EFL.pdb
     RDKit          3D

 29 29  0  0  1  0  0  0  0  0999 V2000
   11.5925  -17.0179   19.1110 N   0  0  0  0  0  0  0  0  0  0  0  0
   10.9152  -17.7269   20.1692 C   0  0  1  0  0  0  0  0  0  0  0  0
   11.7725  -18.7591   20.8438 C   0  0  0  0  0  0  0  0  0  0  0  0
   12.7857  -19.4052   19.9169 C   0  0  0  0  0  0  0  0  0  0  0  0
   13.5968  -20.3566   20.7041 C   0  0  0  0  0  0  0  0  0  0  0  0
   13.2163  -21.5443   20.8214 O   0  0  0  0  0  0  0  0  0  0  0  0
   10.5882  -16.7073   21.2280 C   0  0  0  0  0  0  0  0  0  0  0  0
   11.4422  -15.8136   21.4356 O   0  0  0  0  0  0  0  0  0  0  0  0
   14.7702  -19.9653   21.3145 O   0  0  0  0  0  0  0  0  0  0  0  0
    9.3754  -16.7555   21.9521 N   0  0  0  0  0  0  0  0  0  0  0  0
    9.0614  -15.7541   22.9261 C   0  0  1  0  0  0  0  0  0  0  0  0
    7.6003  -15.3703   22.8573 C   0  0  0  0  0  0  0  0  0  0  0  0
    7.1806  -14.3682   23.8410 C   0  0  0  0  0  0  0  0  0  0  0  0
    6.5351  -14.7890   24.9907 C   0  0  0  0  0  0  0  0  0  0  0  0
    6.1696  -13.8350   25.9086 C   0  0  0  0  0  0  0  0  0  0  0  0
    6.4417  -12.5000   25.6832 C   0  0  0  0  0  0  0  0  0  0  0  0
    7.0895  -12.0892   24.5270 C   0  0  0  0  0  0  0  0  0  0  0  0
    7.4600  -13.0436   23.5999 C   0  0  0  0  0  0  0  0  0  0  0  0
    9.3634  -16.2869   24.2753 C   0  0  0  0  0  0  0  0  0  0  0  0
    9.6317  -17.5177   24.4436 O   0  0  0  0  0  0  0  0  0  0  0  0
   10.6259  -13.6408   29.7032 C   0  0  0  0  0  0  0  0  0  0  0  0
   10.8117  -14.8233   28.8169 C   0  0  2  0  0  0  0  0  0  0  0  0
   12.2898  -15.2469   28.7838 C   0  0  0  0  0  0  0  0  0  0  0  0
   10.2541  -14.6699   27.4744 C   0  0  0  0  0  0  0  0  0  0  0  0
   10.1475  -15.8734   26.6146 C   0  0  2  0  0  0  0  0  0  0  0  0
    9.3601  -15.4443   25.3967 N   0  0  0  0  0  0  0  0  0  0  0  0
    9.4421  -17.0554   27.0772 C   0  0  0  0  0  0  0  0  0  0  0  0
   10.0143  -18.0067   27.7056 O   0  0  0  0  0  0  0  0  0  0  0  0
    8.0892  -17.2187   26.8720 O   0  0  0  0  0  0  0  0  0  0  0  0
  2  3  1  0
  2  1  1  6
  4  5  1  0
  4  3  1  0
  5  9  1  0
  6  5  2  0
  7  2  1  0
  8  7  2  0
 10  7  1  0
 11 10  1  0
 12 13  1  0
 11 12  1  1
 13 14  2  0
 14 15  1  0
 16 15  2  0
 17 16  1  0
 18 17  2  0
 18 13  1  0
 19 11  1  0
 19 20  2  0
 22 21  1  6
 22 23  1  0
 25 24  1  1
 24 22  1  0
 25 26  1  0
 26 19  1  0
 27 25  1  0
 28 27  2  0
 29 27  1  0
M  END
$$$$
