EFL.pdb
     RDKit          3D

 29 29  0  0  1  0  0  0  0  0999 V2000
   10.5136  -16.3500   19.4205 N   0  0  0  0  0  0  0  0  0  0  0  0
    9.4848  -16.8661   20.2902 C   0  0  1  0  0  0  0  0  0  0  0  0
    9.6923  -18.3020   20.6785 C   0  0  0  0  0  0  0  0  0  0  0  0
   11.1431  -18.7431   20.6157 C   0  0  0  0  0  0  0  0  0  0  0  0
   11.1825  -20.1528   20.1753 C   0  0  0  0  0  0  0  0  0  0  0  0
   10.1127  -20.7481   19.9103 O   0  0  0  0  0  0  0  0  0  0  0  0
    9.5691  -16.0771   21.5700 C   0  0  0  0  0  0  0  0  0  0  0  0
   10.7156  -15.7566   21.9624 O   0  0  0  0  0  0  0  0  0  0  0  0
   12.3766  -20.8311   20.0469 O   0  0  0  0  0  0  0  0  0  0  0  0
    8.4104  -15.7143   22.2932 N   0  0  0  0  0  0  0  0  0  0  0  0
    8.5030  -14.9042   23.4702 C   0  0  1  0  0  0  0  0  0  0  0  0
    7.1671  -14.2793   23.8046 C   0  0  0  0  0  0  0  0  0  0  0  0
    7.1544  -13.4729   25.0284 C   0  0  0  0  0  0  0  0  0  0  0  0
    7.7500  -12.2238   25.0124 C   0  0  0  0  0  0  0  0  0  0  0  0
    7.7079  -11.4767   26.1642 C   0  0  0  0  0  0  0  0  0  0  0  0
    7.0882  -11.9645   27.2978 C   0  0  0  0  0  0  0  0  0  0  0  0
    6.4941  -13.2184   27.3026 C   0  0  0  0  0  0  0  0  0  0  0  0
    6.5328  -13.9748   26.1476 C   0  0  0  0  0  0  0  0  0  0  0  0
    8.9421  -15.7530   24.6025 C   0  0  0  0  0  0  0  0  0  0  0  0
    8.5181  -16.9448   24.7249 O   0  0  0  0  0  0  0  0  0  0  0  0
   14.2876  -16.5295   26.9446 C   0  0  0  0  0  0  0  0  0  0  0  0
   12.9172  -17.0808   26.7533 C   0  0  2  0  0  0  0  0  0  0  0  0
   12.9780  -18.4496   26.0547 C   0  0  0  0  0  0  0  0  0  0  0  0
   11.9822  -16.1697   26.0958 C   0  0  0  0  0  0  0  0  0  0  0  0
   10.5461  -16.2542   26.4557 C   0  0  2  0  0  0  0  0  0  0  0  0
    9.8362  -15.2597   25.5643 N   0  0  0  0  0  0  0  0  0  0  0  0
   10.0935  -15.9001   27.7892 C   0  0  0  0  0  0  0  0  0  0  0  0
    9.7745  -14.7112   28.1238 O   0  0  0  0  0  0  0  0  0  0  0  0
    9.9687  -16.8431   28.7864 O   0  0  0  0  0  0  0  0  0  0  0  0
  2  3  1  0
  2  1  1  6
  4  5  1  0
  4  3  1  0
  5  9  1  0
  6  5  2  0
  7  2  1  0
  8  7  2  0
 10  7  1  0
 11 10  1  0
 12 13  1  0
 11 12  1  1
 13 14  2  0
 14 15  1  0
 16 15  2  0
 17 16  1  0
 18 17  2  0
 18 13  1  0
 19 11  1  0
 19 20  2  0
 22 21  1  6
 22 23  1  0
 25 24  1  1
 24 22  1  0
 25 26  1  0
 26 19  1  0
 27 25  1  0
 28 27  2  0
 29 27  1  0
M  END
$$$$
