EGH.pdb
     RDKit          3D

 24 24  0  0  1  0  0  0  0  0999 V2000
    9.7140  -17.3441   15.4219 N   0  0  0  0  0  0  0  0  0  0  0  0
   10.2024  -16.1052   16.0455 C   0  0  1  0  0  0  0  0  0  0  0  0
    9.0625  -15.1330   16.1552 C   0  0  0  0  0  0  0  0  0  0  0  0
    8.8612  -14.3448   14.9044 C   0  0  0  0  0  0  0  0  0  0  0  0
    8.1166  -15.1561   13.8758 C   0  0  0  0  0  0  0  0  0  0  0  0
    7.7101  -16.2920   14.1465 O   0  0  0  0  0  0  0  0  0  0  0  0
   10.8075  -16.4875   17.3273 C   0  0  0  0  0  0  0  0  0  0  0  0
   10.2716  -17.3609   18.0931 O   0  0  0  0  0  0  0  0  0  0  0  0
    7.9207  -14.5635   12.6368 O   0  0  0  0  0  0  0  0  0  0  0  0
   12.0247  -15.9134   17.7989 N   0  0  0  0  0  0  0  0  0  0  0  0
   12.5528  -16.2474   19.1028 C   0  0  0  0  0  0  0  0  0  0  0  0
   11.9533  -15.3846   20.1646 C   0  0  0  0  0  0  0  0  0  0  0  0
   12.3714  -14.2065   20.2654 O   0  0  0  0  0  0  0  0  0  0  0  0
   10.9534  -15.8389   21.0408 N   0  0  0  0  0  0  0  0  0  0  0  0
   10.3849  -15.0128   22.1365 C   0  0  1  0  0  0  0  0  0  0  0  0
    8.9167  -14.9096   22.0022 C   0  0  0  0  0  0  0  0  0  0  0  0
    8.5360  -14.1529   20.7877 C   0  0  0  0  0  0  0  0  0  0  0  0
    9.4924  -13.5706   19.9308 C   0  0  0  0  0  0  0  0  0  0  0  0
    8.8440  -12.9612   18.9314 N   0  0  0  0  0  0  0  0  0  0  0  0
    7.5287  -13.1413   19.1331 C   0  0  0  0  0  0  0  0  0  0  0  0
    7.3554  -13.8538   20.2435 N   0  0  0  0  0  0  0  0  0  0  0  0
   10.7941  -15.7334   23.3874 C   0  0  0  0  0  0  0  0  0  0  0  0
   11.3720  -16.8565   23.3223 O   0  0  0  0  0  0  0  0  0  0  0  0
   10.5458  -15.1805   24.6110 O   0  0  0  0  0  0  0  0  0  0  0  0
  2  1  1  1
  2  3  1  0
  3  4  1  0
  5  4  1  0
  5  9  1  0
  6  5  2  0
  7  2  1  0
  7  8  2  0
 10  7  1  0
 11 10  1  0
 11 12  1  0
 12 14  1  0
 13 12  2  0
 14 15  1  0
 15 16  1  6
 15 22  1  0
 16 17  1  0
 17 18  2  0
 18 19  1  0
 20 19  1  0
 21 17  1  0
 21 20  2  0
 22 24  1  0
 23 22  2  0
M  END
$$$$
