EGH.pdb
     RDKit          3D

 24 24  0  0  1  0  0  0  0  0999 V2000
   11.4132  -20.1692   21.3322 N   0  0  0  0  0  0  0  0  0  0  0  0
   12.4989  -19.1775   21.3497 C   0  0  1  0  0  0  0  0  0  0  0  0
   11.9332  -17.8299   21.0028 C   0  0  0  0  0  0  0  0  0  0  0  0
   10.6739  -17.5304   21.7449 C   0  0  0  0  0  0  0  0  0  0  0  0
   10.1858  -16.1400   21.4296 C   0  0  0  0  0  0  0  0  0  0  0  0
    9.1761  -15.6889   21.9826 O   0  0  0  0  0  0  0  0  0  0  0  0
   13.1227  -19.2574   22.6762 C   0  0  0  0  0  0  0  0  0  0  0  0
   14.1695  -18.5841   22.9717 O   0  0  0  0  0  0  0  0  0  0  0  0
   10.9219  -15.4160   20.5030 O   0  0  0  0  0  0  0  0  0  0  0  0
   12.6053  -20.0860   23.7152 N   0  0  0  0  0  0  0  0  0  0  0  0
   13.1849  -20.0737   25.0397 C   0  0  0  0  0  0  0  0  0  0  0  0
   12.9876  -18.7496   25.7026 C   0  0  0  0  0  0  0  0  0  0  0  0
   13.8989  -17.8960   25.5856 O   0  0  0  0  0  0  0  0  0  0  0  0
   11.8354  -18.4317   26.4408 N   0  0  0  0  0  0  0  0  0  0  0  0
   11.6191  -17.1181   27.0995 C   0  0  1  0  0  0  0  0  0  0  0  0
   10.3281  -16.5327   26.6814 C   0  0  0  0  0  0  0  0  0  0  0  0
   10.0479  -15.2693   27.4013 C   0  0  0  0  0  0  0  0  0  0  0  0
    9.6335  -15.2447   28.7488 C   0  0  0  0  0  0  0  0  0  0  0  0
    9.4622  -13.9682   29.1115 N   0  0  0  0  0  0  0  0  0  0  0  0
    9.7527  -13.2026   28.0472 C   0  0  0  0  0  0  0  0  0  0  0  0
   10.1012  -13.9888   27.0317 N   0  0  0  0  0  0  0  0  0  0  0  0
   11.6539  -17.4344   28.5659 C   0  0  0  0  0  0  0  0  0  0  0  0
   11.3390  -18.5863   28.9824 O   0  0  0  0  0  0  0  0  0  0  0  0
   12.0278  -16.4782   29.4661 O   0  0  0  0  0  0  0  0  0  0  0  0
  2  1  1  1
  2  3  1  0
  3  4  1  0
  5  4  1  0
  5  9  1  0
  6  5  2  0
  7  2  1  0
  7  8  2  0
 10  7  1  0
 11 10  1  0
 11 12  1  0
 12 14  1  0
 13 12  2  0
 14 15  1  0
 15 16  1  6
 15 22  1  0
 16 17  1  0
 17 18  2  0
 18 19  1  0
 20 19  1  0
 21 17  1  0
 21 20  2  0
 22 24  1  0
 23 22  2  0
M  END
$$$$
