EGH.pdb
     RDKit          3D

 24 24  0  0  1  0  0  0  0  0999 V2000
    8.1081  -14.1465   18.1783 N   0  0  0  0  0  0  0  0  0  0  0  0
    7.5039  -15.4049   17.7158 C   0  0  1  0  0  0  0  0  0  0  0  0
    8.0593  -15.7429   16.3616 C   0  0  0  0  0  0  0  0  0  0  0  0
    9.4854  -16.1775   16.4209 C   0  0  0  0  0  0  0  0  0  0  0  0
    9.9348  -16.7188   15.0884 C   0  0  0  0  0  0  0  0  0  0  0  0
    9.1085  -16.9838   14.2076 O   0  0  0  0  0  0  0  0  0  0  0  0
    7.7689  -16.4077   18.7547 C   0  0  0  0  0  0  0  0  0  0  0  0
    7.3762  -17.6197   18.6391 O   0  0  0  0  0  0  0  0  0  0  0  0
   11.2998  -16.8969   14.9160 O   0  0  0  0  0  0  0  0  0  0  0  0
    8.4769  -16.0975   19.9531 N   0  0  0  0  0  0  0  0  0  0  0  0
    8.8691  -17.1358   20.8797 C   0  0  0  0  0  0  0  0  0  0  0  0
    9.5752  -16.5627   22.0647 C   0  0  0  0  0  0  0  0  0  0  0  0
   10.6642  -15.9730   21.8672 O   0  0  0  0  0  0  0  0  0  0  0  0
    9.0704  -16.6593   23.3723 N   0  0  0  0  0  0  0  0  0  0  0  0
    9.7706  -16.1167   24.5646 C   0  0  1  0  0  0  0  0  0  0  0  0
    8.8052  -15.8137   25.6418 C   0  0  0  0  0  0  0  0  0  0  0  0
    7.9547  -14.6520   25.2956 C   0  0  0  0  0  0  0  0  0  0  0  0
    8.2810  -13.7625   24.2514 C   0  0  0  0  0  0  0  0  0  0  0  0
    7.3277  -12.8258   24.1853 N   0  0  0  0  0  0  0  0  0  0  0  0
    6.4264  -13.0974   25.1430 C   0  0  0  0  0  0  0  0  0  0  0  0
    6.8098  -14.1892   25.8000 N   0  0  0  0  0  0  0  0  0  0  0  0
   10.7323  -17.2025   24.9491 C   0  0  0  0  0  0  0  0  0  0  0  0
   10.5977  -18.3728   24.4888 O   0  0  0  0  0  0  0  0  0  0  0  0
   11.7648  -16.9352   25.8017 O   0  0  0  0  0  0  0  0  0  0  0  0
  2  1  1  1
  2  3  1  0
  3  4  1  0
  5  4  1  0
  5  9  1  0
  6  5  2  0
  7  2  1  0
  7  8  2  0
 10  7  1  0
 11 10  1  0
 11 12  1  0
 12 14  1  0
 13 12  2  0
 14 15  1  0
 15 16  1  1
 15 22  1  0
 16 17  1  0
 17 18  2  0
 18 19  1  0
 20 19  1  0
 21 17  1  0
 21 20  2  0
 22 24  1  0
 23 22  2  0
M  END
$$$$
