EGH.pdb
     RDKit          3D

 24 24  0  0  1  0  0  0  0  0999 V2000
   10.0754  -17.8232   17.7536 N   0  0  0  0  0  0  0  0  0  0  0  0
    9.1582  -17.6384   18.8880 C   0  0  1  0  0  0  0  0  0  0  0  0
    8.0723  -18.6735   18.8101 C   0  0  0  0  0  0  0  0  0  0  0  0
    8.6097  -20.0521   18.6179 C   0  0  0  0  0  0  0  0  0  0  0  0
    7.4902  -21.0595   18.5666 C   0  0  0  0  0  0  0  0  0  0  0  0
    6.7305  -21.1045   17.5921 O   0  0  0  0  0  0  0  0  0  0  0  0
    9.9755  -17.6978   20.1061 C   0  0  0  0  0  0  0  0  0  0  0  0
   11.2518  -17.7715   20.0598 O   0  0  0  0  0  0  0  0  0  0  0  0
    7.3683  -21.9120   19.6542 O   0  0  0  0  0  0  0  0  0  0  0  0
    9.4030  -17.6774   21.4121 N   0  0  0  0  0  0  0  0  0  0  0  0
   10.2326  -17.5584   22.5901 C   0  0  0  0  0  0  0  0  0  0  0  0
    9.9562  -16.2836   23.3180 C   0  0  0  0  0  0  0  0  0  0  0  0
   10.1836  -15.2065   22.7172 O   0  0  0  0  0  0  0  0  0  0  0  0
    9.4582  -16.2490   24.6313 N   0  0  0  0  0  0  0  0  0  0  0  0
    9.0177  -15.0031   25.3095 C   0  0  1  0  0  0  0  0  0  0  0  0
    7.6152  -14.6905   24.9638 C   0  0  0  0  0  0  0  0  0  0  0  0
    7.1477  -13.4660   25.6528 C   0  0  0  0  0  0  0  0  0  0  0  0
    7.4350  -12.1726   25.1706 C   0  0  0  0  0  0  0  0  0  0  0  0
    6.8816  -11.2825   26.0024 N   0  0  0  0  0  0  0  0  0  0  0  0
    6.2647  -11.9691   26.9777 C   0  0  0  0  0  0  0  0  0  0  0  0
    6.4294  -13.2715   26.7599 N   0  0  0  0  0  0  0  0  0  0  0  0
    9.1927  -15.3004   26.7698 C   0  0  0  0  0  0  0  0  0  0  0  0
    9.1302  -16.4898   27.1954 O   0  0  0  0  0  0  0  0  0  0  0  0
    9.4224  -14.2861   27.6546 O   0  0  0  0  0  0  0  0  0  0  0  0
  2  1  1  6
  2  3  1  0
  3  4  1  0
  5  4  1  0
  5  9  1  0
  6  5  2  0
  7  2  1  0
  7  8  2  0
 10  7  1  0
 11 10  1  0
 11 12  1  0
 12 14  1  0
 13 12  2  0
 14 15  1  0
 15 16  1  1
 15 22  1  0
 16 17  1  0
 17 18  2  0
 18 19  1  0
 20 19  1  0
 21 17  1  0
 21 20  2  0
 22 24  1  0
 23 22  2  0
M  END
$$$$
