EGH.pdb
     RDKit          3D

 24 24  0  0  1  0  0  0  0  0999 V2000
    9.1522  -12.2261   19.4551 N   0  0  0  0  0  0  0  0  0  0  0  0
    8.9240  -13.4196   18.6270 C   0  0  1  0  0  0  0  0  0  0  0  0
   10.2487  -14.0535   18.3108 C   0  0  0  0  0  0  0  0  0  0  0  0
   11.1869  -14.0258   19.4705 C   0  0  0  0  0  0  0  0  0  0  0  0
   12.6170  -14.1094   19.0029 C   0  0  0  0  0  0  0  0  0  0  0  0
   12.9614  -14.9734   18.1882 O   0  0  0  0  0  0  0  0  0  0  0  0
    7.9953  -14.2790   19.3713 C   0  0  0  0  0  0  0  0  0  0  0  0
    7.4868  -15.3321   18.8527 O   0  0  0  0  0  0  0  0  0  0  0  0
   13.5009  -13.1793   19.5305 O   0  0  0  0  0  0  0  0  0  0  0  0
    7.6021  -13.9972   20.7129 N   0  0  0  0  0  0  0  0  0  0  0  0
    6.6635  -14.8471   21.4109 C   0  0  0  0  0  0  0  0  0  0  0  0
    7.3259  -15.5712   22.5371 C   0  0  0  0  0  0  0  0  0  0  0  0
    6.6009  -16.2526   23.3005 O   0  0  0  0  0  0  0  0  0  0  0  0
    8.7107  -15.5169   22.7677 N   0  0  0  0  0  0  0  0  0  0  0  0
    9.3954  -16.2869   23.8376 C   0  0  1  0  0  0  0  0  0  0  0  0
   10.7494  -16.6900   23.4033 C   0  0  0  0  0  0  0  0  0  0  0  0
   10.6971  -17.5643   22.2093 C   0  0  0  0  0  0  0  0  0  0  0  0
    9.8319  -18.6743   22.1243 C   0  0  0  0  0  0  0  0  0  0  0  0
   10.0155  -19.2588   20.9347 N   0  0  0  0  0  0  0  0  0  0  0  0
   10.9563  -18.5586   20.2806 C   0  0  0  0  0  0  0  0  0  0  0  0
   11.3567  -17.5493   21.0500 N   0  0  0  0  0  0  0  0  0  0  0  0
    9.4277  -15.3430   25.0036 C   0  0  0  0  0  0  0  0  0  0  0  0
    8.9541  -14.1750   24.8981 O   0  0  0  0  0  0  0  0  0  0  0  0
    9.9700  -15.7385   26.1927 O   0  0  0  0  0  0  0  0  0  0  0  0
  2  1  1  1
  2  3  1  0
  3  4  1  0
  5  4  1  0
  5  9  1  0
  6  5  2  0
  7  2  1  0
  7  8  2  0
 10  7  1  0
 11 10  1  0
 11 12  1  0
 12 14  1  0
 13 12  2  0
 14 15  1  0
 15 16  1  6
 15 22  1  0
 16 17  1  0
 17 18  2  0
 18 19  1  0
 20 19  1  0
 21 17  1  0
 21 20  2  0
 22 24  1  0
 23 22  2  0
M  END
$$$$
