EGH.pdb
     RDKit          3D

 24 24  0  0  1  0  0  0  0  0999 V2000
    9.6295  -18.3969   18.4961 N   0  0  0  0  0  0  0  0  0  0  0  0
    8.9396  -17.1002   18.4250 C   0  0  1  0  0  0  0  0  0  0  0  0
    8.1601  -17.0330   17.1426 C   0  0  0  0  0  0  0  0  0  0  0  0
    8.3185  -15.7234   16.4455 C   0  0  0  0  0  0  0  0  0  0  0  0
    8.6278  -15.9296   14.9852 C   0  0  0  0  0  0  0  0  0  0  0  0
    7.8955  -16.6354   14.2821 O   0  0  0  0  0  0  0  0  0  0  0  0
    8.1275  -16.9864   19.6427 C   0  0  0  0  0  0  0  0  0  0  0  0
    6.9156  -17.3937   19.6865 O   0  0  0  0  0  0  0  0  0  0  0  0
    9.7575  -15.2936   14.4913 O   0  0  0  0  0  0  0  0  0  0  0  0
    8.6340  -16.4178   20.8484 N   0  0  0  0  0  0  0  0  0  0  0  0
    7.8107  -16.3216   22.0330 C   0  0  0  0  0  0  0  0  0  0  0  0
    8.6035  -15.8380   23.2031 C   0  0  0  0  0  0  0  0  0  0  0  0
    9.8449  -15.7282   23.0626 O   0  0  0  0  0  0  0  0  0  0  0  0
    8.0169  -15.5068   24.4360 N   0  0  0  0  0  0  0  0  0  0  0  0
    8.7969  -15.1045   25.6343 C   0  0  1  0  0  0  0  0  0  0  0  0
    7.8955  -14.6448   26.7116 C   0  0  0  0  0  0  0  0  0  0  0  0
    7.2299  -13.3713   26.3540 C   0  0  0  0  0  0  0  0  0  0  0  0
    7.7974  -12.4516   25.4484 C   0  0  0  0  0  0  0  0  0  0  0  0
    6.9661  -11.4096   25.3329 N   0  0  0  0  0  0  0  0  0  0  0  0
    5.9094  -11.6448   26.1275 C   0  0  0  0  0  0  0  0  0  0  0  0
    6.0766  -12.8182   26.7325 N   0  0  0  0  0  0  0  0  0  0  0  0
    9.5516  -16.3450   26.0125 C   0  0  0  0  0  0  0  0  0  0  0  0
    9.1898  -17.4756   25.5760 O   0  0  0  0  0  0  0  0  0  0  0  0
   10.6397  -16.2636   26.8334 O   0  0  0  0  0  0  0  0  0  0  0  0
  2  1  1  1
  2  3  1  0
  3  4  1  0
  5  4  1  0
  5  9  1  0
  6  5  2  0
  7  2  1  0
  7  8  2  0
 10  7  1  0
 11 10  1  0
 11 12  1  0
 12 14  1  0
 13 12  2  0
 14 15  1  0
 15 16  1  1
 15 22  1  0
 16 17  1  0
 17 18  2  0
 18 19  1  0
 20 19  1  0
 21 17  1  0
 21 20  2  0
 22 24  1  0
 23 22  2  0
M  END
$$$$
