EGH.pdb
     RDKit          3D

 24 24  0  0  1  0  0  0  0  0999 V2000
    9.5656  -17.1559   18.5086 N   0  0  0  0  0  0  0  0  0  0  0  0
    8.9219  -18.4770   18.5623 C   0  0  1  0  0  0  0  0  0  0  0  0
    9.8230  -19.4848   17.9072 C   0  0  0  0  0  0  0  0  0  0  0  0
   11.2649  -19.2384   18.2011 C   0  0  0  0  0  0  0  0  0  0  0  0
   12.1375  -19.8187   17.1182 C   0  0  0  0  0  0  0  0  0  0  0  0
   11.6327  -20.3776   16.1376 O   0  0  0  0  0  0  0  0  0  0  0  0
    8.6262  -18.7458   19.9749 C   0  0  0  0  0  0  0  0  0  0  0  0
    7.9778  -19.7853   20.3430 O   0  0  0  0  0  0  0  0  0  0  0  0
   13.5085  -19.6899   17.2864 O   0  0  0  0  0  0  0  0  0  0  0  0
    9.0402  -17.8708   21.0221 N   0  0  0  0  0  0  0  0  0  0  0  0
    8.7654  -18.1804   22.4074 C   0  0  0  0  0  0  0  0  0  0  0  0
    9.2735  -17.1052   23.3114 C   0  0  0  0  0  0  0  0  0  0  0  0
   10.1867  -16.3619   22.8796 O   0  0  0  0  0  0  0  0  0  0  0  0
    8.7724  -16.9003   24.6078 N   0  0  0  0  0  0  0  0  0  0  0  0
    8.5825  -15.5566   25.2115 C   0  0  1  0  0  0  0  0  0  0  0  0
    7.1515  -15.1874   25.2197 C   0  0  0  0  0  0  0  0  0  0  0  0
    6.9396  -13.8547   25.8294 C   0  0  0  0  0  0  0  0  0  0  0  0
    8.0073  -12.9848   26.1316 C   0  0  0  0  0  0  0  0  0  0  0  0
    7.5000  -11.8690   26.6683 N   0  0  0  0  0  0  0  0  0  0  0  0
    6.1654  -12.0110   26.7112 C   0  0  0  0  0  0  0  0  0  0  0  0
    5.8411  -13.1996   26.2082 N   0  0  0  0  0  0  0  0  0  0  0  0
    9.1439  -15.6954   26.5961 C   0  0  0  0  0  0  0  0  0  0  0  0
    8.9753  -16.7624   27.2539 O   0  0  0  0  0  0  0  0  0  0  0  0
    9.8444  -14.6676   27.1595 O   0  0  0  0  0  0  0  0  0  0  0  0
  2  1  1  1
  2  3  1  0
  3  4  1  0
  5  4  1  0
  5  9  1  0
  6  5  2  0
  7  2  1  0
  7  8  2  0
 10  7  1  0
 11 10  1  0
 11 12  1  0
 12 14  1  0
 13 12  2  0
 14 15  1  0
 15 16  1  1
 15 22  1  0
 16 17  1  0
 17 18  2  0
 18 19  1  0
 20 19  1  0
 21 17  1  0
 21 20  2  0
 22 24  1  0
 23 22  2  0
M  END
$$$$
