EGH.pdb
     RDKit          3D

 24 24  0  0  1  0  0  0  0  0999 V2000
    7.3953  -19.7509   19.8559 N   0  0  0  0  0  0  0  0  0  0  0  0
    8.5287  -20.3208   19.1122 C   0  0  1  0  0  0  0  0  0  0  0  0
    8.4617  -19.8509   17.6870 C   0  0  0  0  0  0  0  0  0  0  0  0
    8.2784  -18.3740   17.5801 C   0  0  0  0  0  0  0  0  0  0  0  0
    8.3194  -17.9335   16.1396 C   0  0  0  0  0  0  0  0  0  0  0  0
    7.3633  -17.3285   15.6409 O   0  0  0  0  0  0  0  0  0  0  0  0
    9.7466  -19.9267   19.8310 C   0  0  0  0  0  0  0  0  0  0  0  0
   10.9118  -20.2460   19.4106 O   0  0  0  0  0  0  0  0  0  0  0  0
    9.4684  -18.2415   15.4258 O   0  0  0  0  0  0  0  0  0  0  0  0
    9.7098  -19.1670   21.0373 N   0  0  0  0  0  0  0  0  0  0  0  0
   10.9267  -18.7936   21.7229 C   0  0  0  0  0  0  0  0  0  0  0  0
   10.8291  -17.4112   22.2805 C   0  0  0  0  0  0  0  0  0  0  0  0
   11.8916  -16.7581   22.4127 O   0  0  0  0  0  0  0  0  0  0  0  0
    9.6084  -16.8258   22.6560 N   0  0  0  0  0  0  0  0  0  0  0  0
    9.4981  -15.4728   23.2591 C   0  0  1  0  0  0  0  0  0  0  0  0
    8.1649  -14.8925   22.9947 C   0  0  0  0  0  0  0  0  0  0  0  0
    8.0269  -14.4747   21.5808 C   0  0  0  0  0  0  0  0  0  0  0  0
    9.1279  -14.4096   20.7024 C   0  0  0  0  0  0  0  0  0  0  0  0
    8.6866  -14.0030   19.5064 N   0  0  0  0  0  0  0  0  0  0  0  0
    7.3609  -13.8139   19.6071 C   0  0  0  0  0  0  0  0  0  0  0  0
    6.9771  -14.0982   20.8491 N   0  0  0  0  0  0  0  0  0  0  0  0
    9.7399  -15.7040   24.7218 C   0  0  0  0  0  0  0  0  0  0  0  0
    9.8506  -14.7268   25.5171 O   0  0  0  0  0  0  0  0  0  0  0  0
    9.8423  -16.9756   25.2086 O   0  0  0  0  0  0  0  0  0  0  0  0
  2  1  1  1
  2  3  1  0
  3  4  1  0
  5  4  1  0
  5  9  1  0
  6  5  2  0
  7  2  1  0
  7  8  2  0
 10  7  1  0
 11 10  1  0
 11 12  1  0
 12 14  1  0
 13 12  2  0
 14 15  1  0
 15 16  1  1
 15 22  1  0
 16 17  1  0
 17 18  2  0
 18 19  1  0
 20 19  1  0
 21 17  1  0
 21 20  2  0
 22 24  1  0
 23 22  2  0
M  END
$$$$
