PSP.pdb
     RDKit          3D

 21 22  0  0  1  0  0  0  0  0999 V2000
   27.3001  -20.7457  -19.4552 N   0  0  0  0  0  0  0  0  0  0  0  0
   27.7112  -20.9198  -20.8259 C   0  0  0  0  0  0  0  0  0  0  0  0
   29.0930  -20.3334  -20.8353 C   0  0  0  0  0  0  0  0  0  0  0  0
   29.5953  -20.6712  -19.4291 C   0  0  0  0  0  0  0  0  0  0  0  0
   28.4194  -21.2653  -18.7118 C   0  0  1  0  0  0  0  0  0  0  0  0
   28.3664  -20.8824  -17.2737 C   0  0  0  0  0  0  0  0  0  0  0  0
   29.2898  -21.2912  -16.5505 O   0  0  0  0  0  0  0  0  0  0  0  0
   27.1050  -17.6315  -14.0588 O   0  0  0  0  0  0  0  0  0  0  0  0
   27.2613  -18.1822  -15.2836 C   0  0  0  0  0  0  0  0  0  0  0  0
   27.2367  -19.6956  -15.3592 C   0  0  2  0  0  0  0  0  0  0  0  0
   27.2988  -20.0871  -16.7817 N   0  0  0  0  0  0  0  0  0  0  0  0
   26.0900  -20.3284  -14.7050 C   0  0  0  0  0  0  0  0  0  0  0  0
   25.0649  -20.5279  -15.4648 O   0  0  0  0  0  0  0  0  0  0  0  0
   25.9934  -20.7432  -13.3428 N   0  0  0  0  0  0  0  0  0  0  0  0
   27.0927  -20.7615  -12.4109 C   0  0  0  0  0  0  0  0  0  0  0  0
   26.7224  -21.9446  -11.4789 C   0  0  0  0  0  0  0  0  0  0  0  0
   25.2555  -21.6158  -11.2945 C   0  0  0  0  0  0  0  0  0  0  0  0
   24.8228  -21.2264  -12.6625 C   0  0  1  0  0  0  0  0  0  0  0  0
   23.7149  -20.2421  -12.6680 C   0  0  0  0  0  0  0  0  0  0  0  0
   22.4572  -20.6941  -12.3145 O   0  0  0  0  0  0  0  0  0  0  0  0
   23.8669  -19.0470  -12.9722 O   0  0  0  0  0  0  0  0  0  0  0  0
  2  1  1  0
  3  2  1  0
  4  3  1  0
  4  5  1  0
  5  1  1  0
  6 11  1  0
  5  6  1  1
  7  6  2  0
  9  8  1  0
 10  9  1  6
 10 11  1  0
 10 12  1  0
 12 13  2  0
 14 12  1  0
 14 15  1  0
 16 15  1  0
 17 16  1  0
 18 17  1  0
 18 14  1  0
 18 19  1  1
 19 20  1  0
 21 19  2  0
M  END
$$$$
