PSP.pdb
     RDKit          3D

 21 22  0  0  1  0  0  0  0  0999 V2000
   27.6045  -21.9957  -18.5142 N   0  0  0  0  0  0  0  0  0  0  0  0
   28.1908  -22.4562  -19.7482 C   0  0  0  0  0  0  0  0  0  0  0  0
   29.5589  -21.8391  -19.7164 C   0  0  0  0  0  0  0  0  0  0  0  0
   29.8766  -21.8379  -18.2188 C   0  0  0  0  0  0  0  0  0  0  0  0
   28.6211  -22.2979  -17.5390 C   0  0  1  0  0  0  0  0  0  0  0  0
   28.3799  -21.6066  -16.2422 C   0  0  0  0  0  0  0  0  0  0  0  0
   29.1148  -21.9245  -15.2926 O   0  0  0  0  0  0  0  0  0  0  0  0
   26.6310  -17.6460  -14.1220 O   0  0  0  0  0  0  0  0  0  0  0  0
   26.9831  -18.4465  -15.1531 C   0  0  0  0  0  0  0  0  0  0  0  0
   27.1163  -19.9261  -14.8534 C   0  0  2  0  0  0  0  0  0  0  0  0
   27.3518  -20.6351  -16.1271 N   0  0  0  0  0  0  0  0  0  0  0  0
   25.9811  -20.5171  -14.1423 C   0  0  0  0  0  0  0  0  0  0  0  0
   25.0483  -20.9949  -14.8968 O   0  0  0  0  0  0  0  0  0  0  0  0
   25.8064  -20.6212  -12.7296 N   0  0  0  0  0  0  0  0  0  0  0  0
   26.7805  -20.2103  -11.7500 C   0  0  0  0  0  0  0  0  0  0  0  0
   26.5206  -21.1991  -10.5836 C   0  0  0  0  0  0  0  0  0  0  0  0
   25.0075  -21.1318  -10.5842 C   0  0  0  0  0  0  0  0  0  0  0  0
   24.6696  -21.1572  -12.0318 C   0  0  1  0  0  0  0  0  0  0  0  0
   23.4144  -20.4376  -12.3525 C   0  0  0  0  0  0  0  0  0  0  0  0
   22.2234  -21.0365  -11.9867 O   0  0  0  0  0  0  0  0  0  0  0  0
   23.3883  -19.3361  -12.9272 O   0  0  0  0  0  0  0  0  0  0  0  0
  2  1  1  0
  3  2  1  0
  4  3  1  0
  4  5  1  0
  5  1  1  0
  6 11  1  0
  5  6  1  1
  7  6  2  0
  9  8  1  0
 10  9  1  6
 10 11  1  0
 10 12  1  0
 12 13  2  0
 14 12  1  0
 14 15  1  0
 16 15  1  0
 17 16  1  0
 18 17  1  0
 18 14  1  0
 18 19  1  1
 19 20  1  0
 21 19  2  0
M  END
$$$$
