PSP.pdb
     RDKit          3D

 21 22  0  0  1  0  0  0  0  0999 V2000
   17.4901  -11.5900  -15.2563 N   0  0  0  0  0  0  0  0  0  0  0  0
   16.5594  -12.6849  -15.3721 C   0  0  0  0  0  0  0  0  0  0  0  0
   16.3279  -12.7686  -16.8530 C   0  0  0  0  0  0  0  0  0  0  0  0
   17.6878  -12.3469  -17.4156 C   0  0  0  0  0  0  0  0  0  0  0  0
   18.5003  -11.9180  -16.2297 C   0  0  1  0  0  0  0  0  0  0  0  0
   19.3911  -10.7624  -16.5275 C   0  0  0  0  0  0  0  0  0  0  0  0
   20.5161  -11.0250  -16.9838 O   0  0  0  0  0  0  0  0  0  0  0  0
   20.0589   -6.7629  -18.5507 O   0  0  0  0  0  0  0  0  0  0  0  0
   19.4574   -7.8766  -18.0756 C   0  0  0  0  0  0  0  0  0  0  0  0
   19.7904   -8.2775  -16.6526 C   0  0  2  0  0  0  0  0  0  0  0  0
   18.9480   -9.4350  -16.2906 N   0  0  0  0  0  0  0  0  0  0  0  0
   19.6461   -7.2107  -15.6603 C   0  0  0  0  0  0  0  0  0  0  0  0
   18.4446   -7.0234  -15.2255 O   0  0  0  0  0  0  0  0  0  0  0  0
   20.6773   -6.3774  -15.1319 N   0  0  0  0  0  0  0  0  0  0  0  0
   22.0739   -6.4854  -15.4713 C   0  0  0  0  0  0  0  0  0  0  0  0
   22.7728   -6.0224  -14.1664 C   0  0  0  0  0  0  0  0  0  0  0  0
   21.9004   -4.8188  -13.8763 C   0  0  0  0  0  0  0  0  0  0  0  0
   20.5311   -5.3154  -14.1741 C   0  0  1  0  0  0  0  0  0  0  0  0
   19.6112   -4.2514  -14.6409 C   0  0  0  0  0  0  0  0  0  0  0  0
   19.0252   -3.4473  -13.6812 O   0  0  0  0  0  0  0  0  0  0  0  0
   19.3488   -4.0551  -15.8396 O   0  0  0  0  0  0  0  0  0  0  0  0
  2  1  1  0
  3  2  1  0
  4  3  1  0
  4  5  1  0
  5  1  1  0
  6 11  1  0
  5  6  1  6
  7  6  2  0
  9  8  1  0
 10  9  1  6
 10 11  1  0
 10 12  1  0
 12 13  2  0
 14 12  1  0
 14 15  1  0
 16 15  1  0
 17 16  1  0
 18 17  1  0
 18 14  1  0
 18 19  1  6
 19 20  1  0
 21 19  2  0
M  END
$$$$
