PSP.pdb
     RDKit          3D

 21 22  0  0  1  0  0  0  0  0999 V2000
   27.0458  -16.4505  -15.2553 N   0  0  0  0  0  0  0  0  0  0  0  0
   26.9888  -15.4216  -16.2635 C   0  0  0  0  0  0  0  0  0  0  0  0
   26.3931  -16.1409  -17.4387 C   0  0  0  0  0  0  0  0  0  0  0  0
   25.4561  -17.1440  -16.7607 C   0  0  0  0  0  0  0  0  0  0  0  0
   25.7199  -17.0130  -15.2899 C   0  0  1  0  0  0  0  0  0  0  0  0
   25.6419  -18.3148  -14.5709 C   0  0  0  0  0  0  0  0  0  0  0  0
   24.5199  -18.8400  -14.4829 O   0  0  0  0  0  0  0  0  0  0  0  0
   27.9321  -21.5406  -14.8172 O   0  0  0  0  0  0  0  0  0  0  0  0
   27.9192  -21.0114  -13.5731 C   0  0  0  0  0  0  0  0  0  0  0  0
   26.7338  -20.1374  -13.2160 C   0  0  2  0  0  0  0  0  0  0  0  0
   26.8115  -18.9030  -14.0228 N   0  0  0  0  0  0  0  0  0  0  0  0
   26.6129  -19.8111  -11.7939 C   0  0  0  0  0  0  0  0  0  0  0  0
   27.3058  -18.7940  -11.4025 O   0  0  0  0  0  0  0  0  0  0  0  0
   25.8200  -20.4855  -10.8174 N   0  0  0  0  0  0  0  0  0  0  0  0
   24.8555  -21.5151  -11.1125 C   0  0  0  0  0  0  0  0  0  0  0  0
   23.8005  -21.3170   -9.9931 C   0  0  0  0  0  0  0  0  0  0  0  0
   24.7566  -21.1403   -8.8319 C   0  0  0  0  0  0  0  0  0  0  0  0
   25.8149  -20.2624   -9.3973 C   0  0  1  0  0  0  0  0  0  0  0  0
   27.1458  -20.4797   -8.7827 C   0  0  0  0  0  0  0  0  0  0  0  0
   28.0370  -21.2915   -9.4593 O   0  0  0  0  0  0  0  0  0  0  0  0
   27.4886  -19.9708   -7.7021 O   0  0  0  0  0  0  0  0  0  0  0  0
  2  1  1  0
  3  2  1  0
  4  3  1  0
  4  5  1  0
  5  1  1  0
  6 11  1  0
  5  6  1  1
  7  6  2  0
  9  8  1  0
 10  9  1  1
 10 11  1  0
 10 12  1  0
 12 13  2  0
 14 12  1  0
 14 15  1  0
 16 15  1  0
 17 16  1  0
 18 17  1  0
 18 14  1  0
 18 19  1  1
 19 20  1  0
 21 19  2  0
M  END
$$$$
