PSP.pdb
     RDKit          3D

 21 22  0  0  1  0  0  0  0  0999 V2000
   27.7508  -21.9888  -17.8846 N   0  0  0  0  0  0  0  0  0  0  0  0
   28.3555  -22.5845  -19.0498 C   0  0  0  0  0  0  0  0  0  0  0  0
   29.8226  -22.3903  -18.7985 C   0  0  0  0  0  0  0  0  0  0  0  0
   29.9051  -22.4990  -17.2737 C   0  0  0  0  0  0  0  0  0  0  0  0
   28.4852  -22.5838  -16.7973 C   0  0  1  0  0  0  0  0  0  0  0  0
   28.2641  -21.8678  -15.5104 C   0  0  0  0  0  0  0  0  0  0  0  0
   28.7597  -22.3787  -14.4925 O   0  0  0  0  0  0  0  0  0  0  0  0
   26.3281  -18.0023  -15.3144 O   0  0  0  0  0  0  0  0  0  0  0  0
   27.2350  -18.4905  -14.4386 C   0  0  0  0  0  0  0  0  0  0  0  0
   27.2165  -19.9871  -14.2008 C   0  0  2  0  0  0  0  0  0  0  0  0
   27.5180  -20.6608  -15.4797 N   0  0  0  0  0  0  0  0  0  0  0  0
   25.9720  -20.5068  -13.6308 C   0  0  0  0  0  0  0  0  0  0  0  0
   25.1241  -20.9666  -14.4895 O   0  0  0  0  0  0  0  0  0  0  0  0
   25.6102  -20.5605  -12.2512 N   0  0  0  0  0  0  0  0  0  0  0  0
   26.4713  -20.1750  -11.1616 C   0  0  0  0  0  0  0  0  0  0  0  0
   26.0061  -21.1141  -10.0183 C   0  0  0  0  0  0  0  0  0  0  0  0
   24.5122  -20.9647  -10.2183 C   0  0  0  0  0  0  0  0  0  0  0  0
   24.3636  -21.0134  -11.6968 C   0  0  1  0  0  0  0  0  0  0  0  0
   23.2041  -20.2362  -12.1945 C   0  0  0  0  0  0  0  0  0  0  0  0
   21.9414  -20.7352  -11.9340 O   0  0  0  0  0  0  0  0  0  0  0  0
   23.3176  -19.1720  -12.8259 O   0  0  0  0  0  0  0  0  0  0  0  0
  2  1  1  0
  3  2  1  0
  4  3  1  0
  4  5  1  0
  5  1  1  0
  6 11  1  0
  5  6  1  1
  7  6  2  0
  9  8  1  0
 10  9  1  6
 10 11  1  0
 10 12  1  0
 12 13  2  0
 14 12  1  0
 14 15  1  0
 16 15  1  0
 17 16  1  0
 18 17  1  0
 18 14  1  0
 18 19  1  1
 19 20  1  0
 21 19  2  0
M  END
$$$$
