PSP.pdb
     RDKit          3D

 21 22  0  0  1  0  0  0  0  0999 V2000
   24.0668  -20.5007  -10.6957 N   0  0  0  0  0  0  0  0  0  0  0  0
   23.1192  -20.0873  -11.7004 C   0  0  0  0  0  0  0  0  0  0  0  0
   24.0034  -19.6785  -12.8426 C   0  0  0  0  0  0  0  0  0  0  0  0
   25.1830  -20.6436  -12.6978 C   0  0  0  0  0  0  0  0  0  0  0  0
   24.9403  -21.3892  -11.4190 C   0  0  1  0  0  0  0  0  0  0  0  0
   26.1955  -21.6766  -10.6709 C   0  0  0  0  0  0  0  0  0  0  0  0
   27.0342  -22.3955  -11.2388 O   0  0  0  0  0  0  0  0  0  0  0  0
   29.3851  -20.7599  -10.6457 O   0  0  0  0  0  0  0  0  0  0  0  0
   28.5390  -20.1018   -9.8218 C   0  0  0  0  0  0  0  0  0  0  0  0
   27.7566  -20.9432   -8.8338 C   0  0  2  0  0  0  0  0  0  0  0  0
   26.3958  -21.1403   -9.3722 N   0  0  0  0  0  0  0  0  0  0  0  0
   27.6945  -20.4025   -7.4747 C   0  0  0  0  0  0  0  0  0  0  0  0
   26.6052  -19.7733   -7.1826 O   0  0  0  0  0  0  0  0  0  0  0  0
   28.6925  -20.5020   -6.4591 N   0  0  0  0  0  0  0  0  0  0  0  0
   29.9681  -21.1524   -6.6235 C   0  0  0  0  0  0  0  0  0  0  0  0
   30.2616  -21.6805   -5.1950 C   0  0  0  0  0  0  0  0  0  0  0  0
   29.8593  -20.4397   -4.4254 C   0  0  0  0  0  0  0  0  0  0  0  0
   28.6140  -20.0061   -5.1121 C   0  0  1  0  0  0  0  0  0  0  0  0
   28.3949  -18.5414   -5.0572 C   0  0  0  0  0  0  0  0  0  0  0  0
   28.0303  -17.9952   -3.8408 O   0  0  0  0  0  0  0  0  0  0  0  0
   28.5233  -17.7959   -6.0431 O   0  0  0  0  0  0  0  0  0  0  0  0
  2  1  1  0
  3  2  1  0
  4  3  1  0
  4  5  1  0
  5  1  1  0
  6 11  1  0
  5  6  1  1
  7  6  2  0
  9  8  1  0
 10  9  1  6
 10 11  1  0
 10 12  1  0
 12 13  2  0
 14 12  1  0
 14 15  1  0
 16 15  1  0
 17 16  1  0
 18 17  1  0
 18 14  1  0
 18 19  1  6
 19 20  1  0
 21 19  2  0
M  END
$$$$
