PSP.pdb
     RDKit          3D

 21 22  0  0  1  0  0  0  0  0999 V2000
   20.8794  -11.2412  -17.4920 N   0  0  0  0  0  0  0  0  0  0  0  0
   20.8391  -12.4357  -18.2982 C   0  0  0  0  0  0  0  0  0  0  0  0
   19.7161  -13.2163  -17.6794 C   0  0  0  0  0  0  0  0  0  0  0  0
   18.7697  -12.1058  -17.2156 C   0  0  0  0  0  0  0  0  0  0  0  0
   19.5017  -10.8205  -17.4656 C   0  0  1  0  0  0  0  0  0  0  0  0
   19.2461   -9.7966  -16.4149 C   0  0  0  0  0  0  0  0  0  0  0  0
   18.0713   -9.4182  -16.2752 O   0  0  0  0  0  0  0  0  0  0  0  0
   20.4643   -7.9810  -12.2005 O   0  0  0  0  0  0  0  0  0  0  0  0
   20.5233   -8.8203  -13.2588 C   0  0  0  0  0  0  0  0  0  0  0  0
   20.0786   -8.2638  -14.5964 C   0  0  2  0  0  0  0  0  0  0  0  0
   20.3143   -9.2954  -15.6263 N   0  0  0  0  0  0  0  0  0  0  0  0
   20.7134   -7.0023  -14.9826 C   0  0  0  0  0  0  0  0  0  0  0  0
   21.8859   -7.1164  -15.5118 O   0  0  0  0  0  0  0  0  0  0  0  0
   20.1776   -5.6870  -14.8412 N   0  0  0  0  0  0  0  0  0  0  0  0
   18.8238   -5.3909  -14.4450 C   0  0  0  0  0  0  0  0  0  0  0  0
   18.5396   -4.0610  -15.1907 C   0  0  0  0  0  0  0  0  0  0  0  0
   19.8497   -3.3649  -14.8860 C   0  0  0  0  0  0  0  0  0  0  0  0
   20.8563   -4.4421  -15.0779 C   0  0  1  0  0  0  0  0  0  0  0  0
   22.0581   -4.2787  -14.2263 C   0  0  0  0  0  0  0  0  0  0  0  0
   22.9658   -3.2992  -14.5837 O   0  0  0  0  0  0  0  0  0  0  0  0
   22.2802   -4.9741  -13.2208 O   0  0  0  0  0  0  0  0  0  0  0  0
  2  1  1  0
  3  2  1  0
  4  3  1  0
  4  5  1  0
  5  1  1  0
  6 11  1  0
  5  6  1  1
  7  6  2  0
  9  8  1  0
 10  9  1  1
 10 11  1  0
 10 12  1  0
 12 13  2  0
 14 12  1  0
 14 15  1  0
 16 15  1  0
 17 16  1  0
 18 17  1  0
 18 14  1  0
 18 19  1  1
 19 20  1  0
 21 19  2  0
M  END
$$$$
