PSP.pdb
     RDKit          3D

 21 22  0  0  1  0  0  0  0  0999 V2000
   20.6944  -19.4466  -15.6886 N   0  0  0  0  0  0  0  0  0  0  0  0
   19.6335  -18.6796  -16.2922 C   0  0  0  0  0  0  0  0  0  0  0  0
   20.3730  -17.5528  -16.9532 C   0  0  0  0  0  0  0  0  0  0  0  0
   21.6859  -18.2257  -17.3621 C   0  0  0  0  0  0  0  0  0  0  0  0
   21.6372  -19.6018  -16.7669 C   0  0  1  0  0  0  0  0  0  0  0  0
   22.9669  -20.0715  -16.2885 C   0  0  0  0  0  0  0  0  0  0  0  0
   23.7304  -20.5547  -17.1408 O   0  0  0  0  0  0  0  0  0  0  0  0
   26.6464  -18.4284  -14.7509 O   0  0  0  0  0  0  0  0  0  0  0  0
   25.3940  -18.7335  -15.1588 C   0  0  0  0  0  0  0  0  0  0  0  0
   24.7319  -19.9246  -14.4960 C   0  0  2  0  0  0  0  0  0  0  0  0
   23.3172  -19.9593  -14.9177 N   0  0  0  0  0  0  0  0  0  0  0  0
   24.8301  -19.9526  -13.0355 C   0  0  0  0  0  0  0  0  0  0  0  0
   24.0206  -19.1607  -12.4148 O   0  0  0  0  0  0  0  0  0  0  0  0
   25.7078  -20.7530  -12.2441 N   0  0  0  0  0  0  0  0  0  0  0  0
   26.7531  -21.5927  -12.7730 C   0  0  0  0  0  0  0  0  0  0  0  0
   26.8142  -22.7447  -11.7364 C   0  0  0  0  0  0  0  0  0  0  0  0
   26.7431  -21.9014  -10.4803 C   0  0  0  0  0  0  0  0  0  0  0  0
   25.7072  -20.8882  -10.8130 C   0  0  1  0  0  0  0  0  0  0  0  0
   25.9101  -19.5943  -10.1194 C   0  0  0  0  0  0  0  0  0  0  0  0
   25.4067  -19.4706   -8.8379 O   0  0  0  0  0  0  0  0  0  0  0  0
   26.5041  -18.6315  -10.6335 O   0  0  0  0  0  0  0  0  0  0  0  0
  2  1  1  0
  3  2  1  0
  4  3  1  0
  4  5  1  0
  5  1  1  0
  6 11  1  0
  5  6  1  1
  7  6  2  0
  9  8  1  0
 10  9  1  1
 10 11  1  0
 10 12  1  0
 12 13  2  0
 14 12  1  0
 14 15  1  0
 16 15  1  0
 17 16  1  0
 18 17  1  0
 18 14  1  0
 18 19  1  1
 19 20  1  0
 21 19  2  0
M  END
$$$$
