PSP.pdb
     RDKit          3D

 21 22  0  0  1  0  0  0  0  0999 V2000
   24.3720  -13.0330  -17.5026 N   0  0  0  0  0  0  0  0  0  0  0  0
   25.3154  -13.9696  -16.9449 C   0  0  0  0  0  0  0  0  0  0  0  0
   26.4208  -13.0778  -16.4589 C   0  0  0  0  0  0  0  0  0  0  0  0
   25.6571  -11.8202  -16.0356 C   0  0  0  0  0  0  0  0  0  0  0  0
   24.2364  -12.0484  -16.4595 C   0  0  1  0  0  0  0  0  0  0  0  0
   23.5709  -10.8064  -16.9412 C   0  0  0  0  0  0  0  0  0  0  0  0
   23.7600  -10.4935  -18.1282 O   0  0  0  0  0  0  0  0  0  0  0  0
   19.9362   -9.4536  -15.5997 O   0  0  0  0  0  0  0  0  0  0  0  0
   20.6255   -9.0971  -16.7067 C   0  0  0  0  0  0  0  0  0  0  0  0
   22.1010   -8.8022  -16.5260 C   0  0  2  0  0  0  0  0  0  0  0  0
   22.7646  -10.0372  -16.0623 N   0  0  0  0  0  0  0  0  0  0  0  0
   22.4027   -7.6903  -15.6226 C   0  0  0  0  0  0  0  0  0  0  0  0
   22.5945   -8.0209  -14.3891 O   0  0  0  0  0  0  0  0  0  0  0  0
   22.5091   -6.3076  -15.9603 N   0  0  0  0  0  0  0  0  0  0  0  0
   22.4155   -5.7803  -17.2984 C   0  0  0  0  0  0  0  0  0  0  0  0
   23.3402   -4.5368  -17.2342 C   0  0  0  0  0  0  0  0  0  0  0  0
   22.8650   -3.9899  -15.9041 C   0  0  0  0  0  0  0  0  0  0  0  0
   22.7426   -5.2094  -15.0626 C   0  0  1  0  0  0  0  0  0  0  0  0
   21.6977   -5.0970  -14.0176 C   0  0  0  0  0  0  0  0  0  0  0  0
   22.0525   -4.5031  -12.8208 O   0  0  0  0  0  0  0  0  0  0  0  0
   20.5349   -5.5078  -14.1700 O   0  0  0  0  0  0  0  0  0  0  0  0
  2  1  1  0
  3  2  1  0
  4  3  1  0
  4  5  1  0
  5  1  1  0
  6 11  1  0
  5  6  1  6
  7  6  2  0
  9  8  1  0
 10  9  1  1
 10 11  1  0
 10 12  1  0
 12 13  2  0
 14 12  1  0
 14 15  1  0
 16 15  1  0
 17 16  1  0
 18 17  1  0
 18 14  1  0
 18 19  1  1
 19 20  1  0
 21 19  2  0
M  END
$$$$
