PSP.pdb
     RDKit          3D

 21 22  0  0  1  0  0  0  0  0999 V2000
   19.0998  -12.4391  -17.1626 N   0  0  0  0  0  0  0  0  0  0  0  0
   19.4701  -13.1951  -18.3329 C   0  0  0  0  0  0  0  0  0  0  0  0
   19.5683  -12.1377  -19.3939 C   0  0  0  0  0  0  0  0  0  0  0  0
   20.0651  -10.9281  -18.5977 C   0  0  0  0  0  0  0  0  0  0  0  0
   20.0510  -11.3571  -17.1603 C   0  0  1  0  0  0  0  0  0  0  0  0
   19.6538  -10.2605  -16.2343 C   0  0  0  0  0  0  0  0  0  0  0  0
   18.4362  -10.0630  -16.0894 O   0  0  0  0  0  0  0  0  0  0  0  0
   20.3419   -7.9090  -12.2659 O   0  0  0  0  0  0  0  0  0  0  0  0
   20.5136   -8.8370  -13.2339 C   0  0  0  0  0  0  0  0  0  0  0  0
   20.2630   -8.3897  -14.6599 C   0  0  2  0  0  0  0  0  0  0  0  0
   20.6423   -9.4946  -15.5631 N   0  0  0  0  0  0  0  0  0  0  0  0
   20.9460   -7.1546  -15.0492 C   0  0  0  0  0  0  0  0  0  0  0  0
   22.1613   -7.3044  -15.4593 O   0  0  0  0  0  0  0  0  0  0  0  0
   20.4149   -5.8300  -15.0267 N   0  0  0  0  0  0  0  0  0  0  0  0
   19.0281   -5.5058  -14.8046 C   0  0  0  0  0  0  0  0  0  0  0  0
   18.8507   -4.2069  -15.6335 C   0  0  0  0  0  0  0  0  0  0  0  0
   20.1254   -3.5093  -15.2066 C   0  0  0  0  0  0  0  0  0  0  0  0
   21.1331   -4.6021  -15.2341 C   0  0  1  0  0  0  0  0  0  0  0  0
   22.2293   -4.4122  -14.2550 C   0  0  0  0  0  0  0  0  0  0  0  0
   23.2176   -3.4990  -14.5718 O   0  0  0  0  0  0  0  0  0  0  0  0
   22.2961   -5.0296  -13.1787 O   0  0  0  0  0  0  0  0  0  0  0  0
  2  1  1  0
  3  2  1  0
  4  3  1  0
  4  5  1  0
  5  1  1  0
  6 11  1  0
  5  6  1  1
  7  6  2  0
  9  8  1  0
 10  9  1  1
 10 11  1  0
 10 12  1  0
 12 13  2  0
 14 12  1  0
 14 15  1  0
 16 15  1  0
 17 16  1  0
 18 17  1  0
 18 14  1  0
 18 19  1  1
 19 20  1  0
 21 19  2  0
M  END
$$$$
