YMW.pdb
     RDKit          3D

 35 37  0  0  1  0  0  0  0  0999 V2000
   33.4803  -38.2858  -16.1718 O   0  0  0  0  0  0  0  0  0  0  0  0
   32.8701  -37.2238  -16.8195 C   0  0  0  0  0  0  0  0  0  0  0  0
   31.9125  -36.5013  -16.1535 C   0  0  0  0  0  0  0  0  0  0  0  0
   31.2752  -35.4433  -16.7418 C   0  0  0  0  0  0  0  0  0  0  0  0
   31.5834  -35.0683  -18.0441 C   0  0  0  0  0  0  0  0  0  0  0  0
   30.8725  -33.9146  -18.6740 C   0  0  0  0  0  0  0  0  0  0  0  0
   31.7915  -32.7227  -18.5343 C   0  0  2  0  0  0  0  0  0  0  0  0
   31.5806  -32.2188  -17.1870 N   0  0  0  0  0  0  0  0  0  0  0  0
   31.5719  -31.6885  -19.5568 C   0  0  0  0  0  0  0  0  0  0  0  0
   31.0646  -30.5469  -19.3003 O   0  0  0  0  0  0  0  0  0  0  0  0
   32.5386  -35.7927  -18.6985 C   0  0  0  0  0  0  0  0  0  0  0  0
   33.1692  -36.8501  -18.0961 C   0  0  0  0  0  0  0  0  0  0  0  0
   35.6233  -28.0344  -20.8446 C   0  0  0  0  0  0  0  0  0  0  0  0
   34.0993  -28.5463  -21.7180 S   0  0  0  0  0  0  0  0  0  0  0  0
   34.1707  -30.3623  -21.9885 C   0  0  0  0  0  0  0  0  0  0  0  0
   33.0087  -30.8245  -22.8015 C   0  0  0  0  0  0  0  0  0  0  0  0
   31.7778  -31.0133  -21.9915 C   0  0  2  0  0  0  0  0  0  0  0  0
   31.9533  -31.9907  -20.9097 N   0  0  0  0  0  0  0  0  0  0  0  0
   30.5116  -31.1812  -22.7152 C   0  0  0  0  0  0  0  0  0  0  0  0
   30.1472  -30.3724  -23.5729 O   0  0  0  0  0  0  0  0  0  0  0  0
   29.6791  -32.2818  -22.4412 N   0  0  0  0  0  0  0  0  0  0  0  0
   28.4106  -32.5626  -23.0942 C   0  0  1  0  0  0  0  0  0  0  0  0
   28.0506  -33.9903  -22.7619 C   0  0  0  0  0  0  0  0  0  0  0  0
   26.9101  -34.4810  -23.5848 C   0  0  0  0  0  0  0  0  0  0  0  0
   26.1817  -33.8332  -24.5590 C   0  0  0  0  0  0  0  0  0  0  0  0
   25.2450  -34.6644  -25.0441 N   0  0  0  0  0  0  0  0  0  0  0  0
   25.3202  -35.8556  -24.4214 C   0  0  0  0  0  0  0  0  0  0  0  0
   24.5732  -37.0049  -24.5657 C   0  0  0  0  0  0  0  0  0  0  0  0
   24.8996  -38.0679  -23.7557 C   0  0  0  0  0  0  0  0  0  0  0  0
   25.9341  -38.0029  -22.8270 C   0  0  0  0  0  0  0  0  0  0  0  0
   26.6538  -36.8384  -22.7143 C   0  0  0  0  0  0  0  0  0  0  0  0
   26.3528  -35.7551  -23.5103 C   0  0  0  0  0  0  0  0  0  0  0  0
   27.3620  -31.6095  -22.6598 C   0  0  0  0  0  0  0  0  0  0  0  0
   27.2598  -31.3268  -21.2877 O   0  0  0  0  0  0  0  0  0  0  0  0
   26.5613  -31.0436  -23.4307 O   0  0  0  0  0  0  0  0  0  0  0  0
  2  1  1  0
  3  2  2  0
  4  3  1  0
  5  4  2  0
  5 11  1  0
  6  7  1  0
  6  5  1  0
  7  8  1  1
  9  7  1  0
 10  9  2  0
 11 12  2  0
 12  2  1  0
 14 13  1  0
 14 15  1  0
 15 16  1  0
 17 16  1  6
 17 19  1  0
 17 18  1  0
 18  9  1  0
 19 21  1  0
 20 19  2  0
 21 22  1  0
 22 23  1  1
 22 33  1  0
 24 23  1  0
 25 24  2  0
 26 25  1  0
 27 26  1  0
 27 32  2  0
 28 27  1  0
 29 28  2  0
 29 30  1  0
 30 31  2  0
 31 32  1  0
 32 24  1  0
 33 35  2  0
 33 34  1  0
M  END
$$$$
