YMW.pdb
     RDKit          3D

 35 37  0  0  1  0  0  0  0  0999 V2000
   28.9842  -20.0758  -27.5580 O   0  0  0  0  0  0  0  0  0  0  0  0
   27.6644  -20.3521  -27.2393 C   0  0  0  0  0  0  0  0  0  0  0  0
   26.9471  -19.4286  -26.5217 C   0  0  0  0  0  0  0  0  0  0  0  0
   25.6412  -19.6465  -26.1769 C   0  0  0  0  0  0  0  0  0  0  0  0
   24.9994  -20.8222  -26.5477 C   0  0  0  0  0  0  0  0  0  0  0  0
   23.5748  -21.0472  -26.1566 C   0  0  0  0  0  0  0  0  0  0  0  0
   23.5957  -21.4780  -24.7079 C   0  0  2  0  0  0  0  0  0  0  0  0
   24.1822  -22.8084  -24.7013 N   0  0  0  0  0  0  0  0  0  0  0  0
   22.2721  -21.4494  -24.0672 C   0  0  0  0  0  0  0  0  0  0  0  0
   21.3072  -22.2052  -24.4195 O   0  0  0  0  0  0  0  0  0  0  0  0
   25.7213  -21.7350  -27.2627 C   0  0  0  0  0  0  0  0  0  0  0  0
   27.0288  -21.5028  -27.6014 C   0  0  0  0  0  0  0  0  0  0  0  0
   18.1614  -19.0790  -17.7083 C   0  0  0  0  0  0  0  0  0  0  0  0
   19.8030  -19.1414  -18.5135 S   0  0  0  0  0  0  0  0  0  0  0  0
   19.5830  -19.7680  -20.2266 C   0  0  0  0  0  0  0  0  0  0  0  0
   20.8921  -19.8424  -20.9376 C   0  0  0  0  0  0  0  0  0  0  0  0
   20.7740  -20.4143  -22.3036 C   0  0  2  0  0  0  0  0  0  0  0  0
   22.0679  -20.5193  -22.9900 N   0  0  0  0  0  0  0  0  0  0  0  0
   19.7089  -19.8889  -23.1664 C   0  0  0  0  0  0  0  0  0  0  0  0
   19.9102  -18.9480  -23.9389 O   0  0  0  0  0  0  0  0  0  0  0  0
   18.4217  -20.4558  -23.1286 N   0  0  0  0  0  0  0  0  0  0  0  0
   17.2987  -20.0539  -23.9604 C   0  0  1  0  0  0  0  0  0  0  0  0
   17.5027  -20.6911  -25.3134 C   0  0  0  0  0  0  0  0  0  0  0  0
   16.4043  -20.3485  -26.2594 C   0  0  0  0  0  0  0  0  0  0  0  0
   16.2446  -19.2396  -27.0621 C   0  0  0  0  0  0  0  0  0  0  0  0
   15.1025  -19.3529  -27.7594 N   0  0  0  0  0  0  0  0  0  0  0  0
   14.4855  -20.5080  -27.4470 C   0  0  0  0  0  0  0  0  0  0  0  0
   13.2983  -21.0519  -27.8877 C   0  0  0  0  0  0  0  0  0  0  0  0
   12.9323  -22.2669  -27.3561 C   0  0  0  0  0  0  0  0  0  0  0  0
   13.7137  -22.9305  -26.4149 C   0  0  0  0  0  0  0  0  0  0  0  0
   14.8898  -22.3536  -26.0017 C   0  0  0  0  0  0  0  0  0  0  0  0
   15.2854  -21.1377  -26.5141 C   0  0  0  0  0  0  0  0  0  0  0  0
   16.0091  -20.4513  -23.3477 C   0  0  0  0  0  0  0  0  0  0  0  0
   16.0397  -21.3952  -22.3079 O   0  0  0  0  0  0  0  0  0  0  0  0
   14.8971  -20.0063  -23.6956 O   0  0  0  0  0  0  0  0  0  0  0  0
  2  1  1  0
  3  2  2  0
  4  3  1  0
  5  4  2  0
  5 11  1  0
  6  7  1  0
  6  5  1  0
  7  8  1  6
  9  7  1  0
 10  9  2  0
 11 12  2  0
 12  2  1  0
 14 13  1  0
 14 15  1  0
 15 16  1  0
 17 16  1  1
 17 19  1  0
 17 18  1  0
 18  9  1  0
 19 21  1  0
 20 19  2  0
 21 22  1  0
 22 23  1  6
 22 33  1  0
 24 23  1  0
 25 24  2  0
 26 25  1  0
 27 26  1  0
 27 32  2  0
 28 27  1  0
 29 28  2  0
 29 30  1  0
 30 31  2  0
 31 32  1  0
 32 24  1  0
 33 35  2  0
 33 34  1  0
M  END
$$$$
