YMW.pdb
     RDKit          3D

 35 37  0  0  1  0  0  0  0  0999 V2000
   17.7515  -17.1423  -19.6579 O   0  0  0  0  0  0  0  0  0  0  0  0
   18.7568  -17.7803  -18.9492 C   0  0  0  0  0  0  0  0  0  0  0  0
   19.1606  -19.0294  -19.3481 C   0  0  0  0  0  0  0  0  0  0  0  0
   20.1473  -19.7084  -18.6870 C   0  0  0  0  0  0  0  0  0  0  0  0
   20.7735  -19.1453  -17.5813 C   0  0  0  0  0  0  0  0  0  0  0  0
   21.8444  -19.9038  -16.8665 C   0  0  0  0  0  0  0  0  0  0  0  0
   23.1601  -19.3767  -17.3918 C   0  0  2  0  0  0  0  0  0  0  0  0
   23.2825  -19.8999  -18.7427 N   0  0  0  0  0  0  0  0  0  0  0  0
   24.3131  -19.7312  -16.5503 C   0  0  0  0  0  0  0  0  0  0  0  0
   24.8190  -20.9013  -16.5126 O   0  0  0  0  0  0  0  0  0  0  0  0
   20.3655  -17.9013  -17.1925 C   0  0  0  0  0  0  0  0  0  0  0  0
   19.3759  -17.2326  -17.8649 C   0  0  0  0  0  0  0  0  0  0  0  0
   29.8455  -17.5591  -18.3102 C   0  0  0  0  0  0  0  0  0  0  0  0
   29.1868  -17.2483  -16.6318 S   0  0  0  0  0  0  0  0  0  0  0  0
   27.6800  -18.2745  -16.4031 C   0  0  0  0  0  0  0  0  0  0  0  0
   27.1820  -18.1820  -15.0001 C   0  0  0  0  0  0  0  0  0  0  0  0
   25.9581  -18.9918  -14.7689 C   0  0  2  0  0  0  0  0  0  0  0  0
   24.8912  -18.6982  -15.7342 N   0  0  0  0  0  0  0  0  0  0  0  0
   25.4687  -19.0979  -13.3890 C   0  0  0  0  0  0  0  0  0  0  0  0
   24.4465  -18.5131  -13.0207 O   0  0  0  0  0  0  0  0  0  0  0  0
   26.1649  -19.8788  -12.4481 N   0  0  0  0  0  0  0  0  0  0  0  0
   25.7344  -20.1372  -11.0834 C   0  0  1  0  0  0  0  0  0  0  0  0
   24.3428  -20.7163  -11.1627 C   0  0  0  0  0  0  0  0  0  0  0  0
   24.2982  -21.9393  -12.0119 C   0  0  0  0  0  0  0  0  0  0  0  0
   25.1883  -22.9881  -12.0962 C   0  0  0  0  0  0  0  0  0  0  0  0
   24.7429  -23.8817  -12.9943 N   0  0  0  0  0  0  0  0  0  0  0  0
   23.5767  -23.4627  -13.5206 C   0  0  0  0  0  0  0  0  0  0  0  0
   22.7561  -24.0254  -14.4743 C   0  0  0  0  0  0  0  0  0  0  0  0
   21.6185  -23.3283  -14.8095 C   0  0  0  0  0  0  0  0  0  0  0  0
   21.2955  -22.1086  -14.2222 C   0  0  0  0  0  0  0  0  0  0  0  0
   22.1407  -21.5820  -13.2762 C   0  0  0  0  0  0  0  0  0  0  0  0
   23.2883  -22.2545  -12.9175 C   0  0  0  0  0  0  0  0  0  0  0  0
   26.6759  -21.0463  -10.3879 C   0  0  0  0  0  0  0  0  0  0  0  0
   27.7716  -21.5387  -11.1161 O   0  0  0  0  0  0  0  0  0  0  0  0
   26.5590  -21.4068   -9.1996 O   0  0  0  0  0  0  0  0  0  0  0  0
  2  1  1  0
  3  2  2  0
  4  3  1  0
  5  4  2  0
  5 11  1  0
  6  7  1  0
  6  5  1  0
  7  8  1  6
  9  7  1  0
 10  9  2  0
 11 12  2  0
 12  2  1  0
 14 13  1  0
 14 15  1  0
 15 16  1  0
 17 16  1  1
 17 19  1  0
 17 18  1  0
 18  9  1  0
 19 21  1  0
 20 19  2  0
 21 22  1  0
 22 23  1  6
 22 33  1  0
 24 23  1  0
 25 24  2  0
 26 25  1  0
 27 26  1  0
 27 32  2  0
 28 27  1  0
 29 28  2  0
 29 30  1  0
 30 31  2  0
 31 32  1  0
 32 24  1  0
 33 35  2  0
 33 34  1  0
M  END
$$$$
