YMW.pdb
     RDKit          3D

 35 37  0  0  1  0  0  0  0  0999 V2000
   19.6616  -15.2937  -24.7099 O   0  0  0  0  0  0  0  0  0  0  0  0
   20.0603  -16.1646  -23.7087 C   0  0  0  0  0  0  0  0  0  0  0  0
   20.1195  -17.5079  -23.9816 C   0  0  0  0  0  0  0  0  0  0  0  0
   20.5048  -18.4154  -23.0331 C   0  0  0  0  0  0  0  0  0  0  0  0
   20.8498  -17.9965  -21.7536 C   0  0  0  0  0  0  0  0  0  0  0  0
   21.2615  -19.0018  -20.7275 C   0  0  0  0  0  0  0  0  0  0  0  0
   22.7584  -18.8602  -20.5716 C   0  0  2  0  0  0  0  0  0  0  0  0
   23.3348  -19.4193  -21.7836 N   0  0  0  0  0  0  0  0  0  0  0  0
   23.2858  -19.5002  -19.3569 C   0  0  0  0  0  0  0  0  0  0  0  0
   23.2196  -20.7555  -19.1418 O   0  0  0  0  0  0  0  0  0  0  0  0
   20.7889  -16.6574  -21.4917 C   0  0  0  0  0  0  0  0  0  0  0  0
   20.4015  -15.7597  -22.4522 C   0  0  0  0  0  0  0  0  0  0  0  0
   28.1911  -18.3064  -14.6447 C   0  0  0  0  0  0  0  0  0  0  0  0
   28.1614  -17.8214  -16.4086 S   0  0  0  0  0  0  0  0  0  0  0  0
   26.7634  -18.6915  -17.2237 C   0  0  0  0  0  0  0  0  0  0  0  0
   25.4854  -18.4417  -16.4962 C   0  0  0  0  0  0  0  0  0  0  0  0
   24.3390  -19.1909  -17.0720 C   0  0  2  0  0  0  0  0  0  0  0  0
   23.9060  -18.6583  -18.3702 N   0  0  0  0  0  0  0  0  0  0  0  0
   23.2172  -19.5020  -16.1775 C   0  0  0  0  0  0  0  0  0  0  0  0
   22.1875  -18.8222  -16.1745 O   0  0  0  0  0  0  0  0  0  0  0  0
   23.2961  -20.5954  -15.2956 N   0  0  0  0  0  0  0  0  0  0  0  0
   22.5102  -20.7589  -14.0831 C   0  0  1  0  0  0  0  0  0  0  0  0
   23.2536  -21.7357  -13.2048 C   0  0  0  0  0  0  0  0  0  0  0  0
   23.0153  -21.4737  -11.7579 C   0  0  0  0  0  0  0  0  0  0  0  0
   21.8655  -21.6198  -11.0123 C   0  0  0  0  0  0  0  0  0  0  0  0
   22.1110  -21.2712   -9.7388 N   0  0  0  0  0  0  0  0  0  0  0  0
   23.3956  -20.8912   -9.6054 C   0  0  0  0  0  0  0  0  0  0  0  0
   24.1016  -20.4440   -8.5094 C   0  0  0  0  0  0  0  0  0  0  0  0
   25.4232  -20.1176   -8.7083 C   0  0  0  0  0  0  0  0  0  0  0  0
   26.0355  -20.2280   -9.9532 C   0  0  0  0  0  0  0  0  0  0  0  0
   25.2961  -20.6774  -11.0200 C   0  0  0  0  0  0  0  0  0  0  0  0
   23.9702  -21.0126  -10.8551 C   0  0  0  0  0  0  0  0  0  0  0  0
   22.2919  -19.4583  -13.4070 C   0  0  0  0  0  0  0  0  0  0  0  0
   21.0320  -19.2202  -12.8332 O   0  0  0  0  0  0  0  0  0  0  0  0
   23.1510  -18.5587  -13.3158 O   0  0  0  0  0  0  0  0  0  0  0  0
  2  1  1  0
  3  2  2  0
  4  3  1  0
  5  4  2  0
  5 11  1  0
  6  7  1  0
  6  5  1  0
  7  8  1  6
  9  7  1  0
 10  9  2  0
 11 12  2  0
 12  2  1  0
 14 13  1  0
 14 15  1  0
 15 16  1  0
 17 16  1  1
 17 19  1  0
 17 18  1  0
 18  9  1  0
 19 21  1  0
 20 19  2  0
 21 22  1  0
 22 23  1  1
 22 33  1  0
 24 23  1  0
 25 24  2  0
 26 25  1  0
 27 26  1  0
 27 32  2  0
 28 27  1  0
 29 28  2  0
 29 30  1  0
 30 31  2  0
 31 32  1  0
 32 24  1  0
 33 35  2  0
 33 34  1  0
M  END
$$$$
