YMW.pdb
     RDKit          3D

 35 37  0  0  1  0  0  0  0  0999 V2000
   30.6493  -16.4707  -18.7925 O   0  0  0  0  0  0  0  0  0  0  0  0
   29.7040  -16.6811  -17.8015 C   0  0  0  0  0  0  0  0  0  0  0  0
   28.7240  -15.7406  -17.6081 C   0  0  0  0  0  0  0  0  0  0  0  0
   27.7648  -15.8933  -16.6446 C   0  0  0  0  0  0  0  0  0  0  0  0
   27.7576  -17.0169  -15.8267 C   0  0  0  0  0  0  0  0  0  0  0  0
   26.7068  -17.1643  -14.7745 C   0  0  0  0  0  0  0  0  0  0  0  0
   25.7340  -18.2006  -15.2888 C   0  0  2  0  0  0  0  0  0  0  0  0
   24.9963  -17.5505  -16.3599 N   0  0  0  0  0  0  0  0  0  0  0  0
   24.8457  -18.7403  -14.2482 C   0  0  0  0  0  0  0  0  0  0  0  0
   23.8150  -18.1240  -13.8188 O   0  0  0  0  0  0  0  0  0  0  0  0
   28.7365  -17.9480  -16.0274 C   0  0  0  0  0  0  0  0  0  0  0  0
   29.6908  -17.7819  -16.9971 C   0  0  0  0  0  0  0  0  0  0  0  0
   19.3739  -21.8402  -11.1451 C   0  0  0  0  0  0  0  0  0  0  0  0
   20.7982  -22.3317  -12.1831 S   0  0  0  0  0  0  0  0  0  0  0  0
   22.2067  -21.2168  -11.7968 C   0  0  0  0  0  0  0  0  0  0  0  0
   23.2873  -21.3532  -12.8159 C   0  0  0  0  0  0  0  0  0  0  0  0
   24.4867  -20.5369  -12.4963 C   0  0  2  0  0  0  0  0  0  0  0  0
   25.1648  -20.0286  -13.6955 N   0  0  0  0  0  0  0  0  0  0  0  0
   25.4180  -21.0680  -11.4934 C   0  0  0  0  0  0  0  0  0  0  0  0
   26.1774  -22.0057  -11.7516 O   0  0  0  0  0  0  0  0  0  0  0  0
   25.4630  -20.5106  -10.2023 N   0  0  0  0  0  0  0  0  0  0  0  0
   26.2273  -21.0372   -9.0829 C   0  0  1  0  0  0  0  0  0  0  0  0
   27.2483  -19.9883   -8.7146 C   0  0  0  0  0  0  0  0  0  0  0  0
   28.1367  -20.4428   -7.6087 C   0  0  0  0  0  0  0  0  0  0  0  0
   29.0164  -21.5026   -7.5623 C   0  0  0  0  0  0  0  0  0  0  0  0
   29.6158  -21.5340   -6.3609 N   0  0  0  0  0  0  0  0  0  0  0  0
   29.1622  -20.5248   -5.5940 C   0  0  0  0  0  0  0  0  0  0  0  0
   29.4669  -20.1588   -4.3007 C   0  0  0  0  0  0  0  0  0  0  0  0
   28.8089  -19.0640   -3.7897 C   0  0  0  0  0  0  0  0  0  0  0  0
   27.8748  -18.3469   -4.5315 C   0  0  0  0  0  0  0  0  0  0  0  0
   27.5995  -18.7452   -5.8169 C   0  0  0  0  0  0  0  0  0  0  0  0
   28.2407  -19.8374   -6.3588 C   0  0  0  0  0  0  0  0  0  0  0  0
   25.3430  -21.3764   -7.9430 C   0  0  0  0  0  0  0  0  0  0  0  0
   24.0258  -20.8888   -7.9664 O   0  0  0  0  0  0  0  0  0  0  0  0
   25.6907  -22.0633   -6.9617 O   0  0  0  0  0  0  0  0  0  0  0  0
  2  1  1  0
  3  2  2  0
  4  3  1  0
  5  4  2  0
  5 11  1  0
  6  7  1  0
  6  5  1  0
  7  8  1  6
  9  7  1  0
 10  9  2  0
 11 12  2  0
 12  2  1  0
 14 13  1  0
 14 15  1  0
 15 16  1  0
 17 16  1  6
 17 19  1  0
 17 18  1  0
 18  9  1  0
 19 21  1  0
 20 19  2  0
 21 22  1  0
 22 23  1  1
 22 33  1  0
 24 23  1  0
 25 24  2  0
 26 25  1  0
 27 26  1  0
 27 32  2  0
 28 27  1  0
 29 28  2  0
 29 30  1  0
 30 31  2  0
 31 32  1  0
 32 24  1  0
 33 35  2  0
 33 34  1  0
M  END
$$$$
