YMW.pdb
     RDKit          3D

 35 37  0  0  1  0  0  0  0  0999 V2000
   24.6701  -14.0832  -21.7850 O   0  0  0  0  0  0  0  0  0  0  0  0
   23.9495  -15.0065  -21.0446 C   0  0  0  0  0  0  0  0  0  0  0  0
   23.4935  -16.1431  -21.6631 C   0  0  0  0  0  0  0  0  0  0  0  0
   22.7760  -17.0896  -20.9839 C   0  0  0  0  0  0  0  0  0  0  0  0
   22.4862  -16.9230  -19.6349 C   0  0  0  0  0  0  0  0  0  0  0  0
   21.6953  -17.9632  -18.9101 C   0  0  0  0  0  0  0  0  0  0  0  0
   22.6905  -18.7711  -18.1090 C   0  0  2  0  0  0  0  0  0  0  0  0
   23.3718  -19.6220  -19.0711 N   0  0  0  0  0  0  0  0  0  0  0  0
   22.0775  -19.5435  -17.0177 C   0  0  0  0  0  0  0  0  0  0  0  0
   21.4086  -20.6127  -17.2066 O   0  0  0  0  0  0  0  0  0  0  0  0
   22.9453  -15.7890  -19.0278 C   0  0  0  0  0  0  0  0  0  0  0  0
   23.6634  -14.8496  -19.7209 C   0  0  0  0  0  0  0  0  0  0  0  0
   21.8132  -22.5653  -10.4303 C   0  0  0  0  0  0  0  0  0  0  0  0
   22.6085  -21.6695  -11.8132 S   0  0  0  0  0  0  0  0  0  0  0  0
   21.7168  -20.0825  -12.0626 C   0  0  0  0  0  0  0  0  0  0  0  0
   22.2719  -19.3389  -13.2304 C   0  0  0  0  0  0  0  0  0  0  0  0
   21.6895  -19.7803  -14.5239 C   0  0  2  0  0  0  0  0  0  0  0  0
   22.2487  -19.0596  -15.6747 N   0  0  0  0  0  0  0  0  0  0  0  0
   20.2304  -19.9262  -14.5934 C   0  0  0  0  0  0  0  0  0  0  0  0
   19.4840  -18.9438  -14.6035 O   0  0  0  0  0  0  0  0  0  0  0  0
   19.6481  -21.2058  -14.6508 N   0  0  0  0  0  0  0  0  0  0  0  0
   18.2235  -21.4877  -14.5764 C   0  0  1  0  0  0  0  0  0  0  0  0
   18.0243  -22.8904  -15.0971 C   0  0  0  0  0  0  0  0  0  0  0  0
   16.5825  -23.2589  -15.1616 C   0  0  0  0  0  0  0  0  0  0  0  0
   15.4624  -22.4663  -15.0329 C   0  0  0  0  0  0  0  0  0  0  0  0
   14.3612  -23.2231  -15.1673 N   0  0  0  0  0  0  0  0  0  0  0  0
   14.7081  -24.5062  -15.3809 C   0  0  0  0  0  0  0  0  0  0  0  0
   13.9408  -25.6363  -15.5642 C   0  0  0  0  0  0  0  0  0  0  0  0
   14.6111  -26.8232  -15.7502 C   0  0  0  0  0  0  0  0  0  0  0  0
   16.0009  -26.8974  -15.7558 C   0  0  0  0  0  0  0  0  0  0  0  0
   16.7286  -25.7476  -15.5689 C   0  0  0  0  0  0  0  0  0  0  0  0
   16.0884  -24.5425  -15.3798 C   0  0  0  0  0  0  0  0  0  0  0  0
   17.7183  -21.3320  -13.1918 C   0  0  0  0  0  0  0  0  0  0  0  0
   16.5438  -20.5853  -13.0018 O   0  0  0  0  0  0  0  0  0  0  0  0
   18.2679  -21.8168  -12.1826 O   0  0  0  0  0  0  0  0  0  0  0  0
  2  1  1  0
  3  2  2  0
  4  3  1  0
  5  4  2  0
  5 11  1  0
  6  7  1  0
  6  5  1  0
  7  8  1  6
  9  7  1  0
 10  9  2  0
 11 12  2  0
 12  2  1  0
 14 13  1  0
 14 15  1  0
 15 16  1  0
 17 16  1  1
 17 19  1  0
 17 18  1  0
 18  9  1  0
 19 21  1  0
 20 19  2  0
 21 22  1  0
 22 23  1  1
 22 33  1  0
 24 23  1  0
 25 24  2  0
 26 25  1  0
 27 26  1  0
 27 32  2  0
 28 27  1  0
 29 28  2  0
 29 30  1  0
 30 31  2  0
 31 32  1  0
 32 24  1  0
 33 35  2  0
 33 34  1  0
M  END
$$$$
