YMW.pdb
     RDKit          3D

 35 37  0  0  1  0  0  0  0  0999 V2000
   31.0371  -15.3481  -19.6529 O   0  0  0  0  0  0  0  0  0  0  0  0
   29.8957  -15.9913  -19.2022 C   0  0  0  0  0  0  0  0  0  0  0  0
   29.6947  -16.1183  -17.8509 C   0  0  0  0  0  0  0  0  0  0  0  0
   28.5874  -16.7442  -17.3471 C   0  0  0  0  0  0  0  0  0  0  0  0
   27.6264  -17.2745  -18.1996 C   0  0  0  0  0  0  0  0  0  0  0  0
   26.4265  -17.9613  -17.6325 C   0  0  0  0  0  0  0  0  0  0  0  0
   26.8990  -19.3155  -17.1554 C   0  0  2  0  0  0  0  0  0  0  0  0
   27.2678  -20.0489  -18.3554 N   0  0  0  0  0  0  0  0  0  0  0  0
   25.9023  -20.0344  -16.3471 C   0  0  0  0  0  0  0  0  0  0  0  0
   24.8984  -20.6397  -16.8494 O   0  0  0  0  0  0  0  0  0  0  0  0
   27.8347  -17.1422  -19.5430 C   0  0  0  0  0  0  0  0  0  0  0  0
   28.9487  -16.5121  -20.0333 C   0  0  0  0  0  0  0  0  0  0  0  0
   25.7174  -20.0463   -9.3609 C   0  0  0  0  0  0  0  0  0  0  0  0
   25.2028  -21.6605  -10.0515 S   0  0  0  0  0  0  0  0  0  0  0  0
   24.5159  -21.3775  -11.7319 C   0  0  0  0  0  0  0  0  0  0  0  0
   25.5476  -20.7917  -12.6360 C   0  0  0  0  0  0  0  0  0  0  0  0
   25.0592  -20.6127  -14.0276 C   0  0  2  0  0  0  0  0  0  0  0  0
   26.0798  -20.0494  -14.9205 N   0  0  0  0  0  0  0  0  0  0  0  0
   23.7387  -19.9967  -14.2064 C   0  0  0  0  0  0  0  0  0  0  0  0
   23.5932  -18.7714  -14.2035 O   0  0  0  0  0  0  0  0  0  0  0  0
   22.5994  -20.8023  -14.3871 N   0  0  0  0  0  0  0  0  0  0  0  0
   21.2232  -20.3331  -14.3661 C   0  0  1  0  0  0  0  0  0  0  0  0
   20.6955  -20.4531  -15.7752 C   0  0  0  0  0  0  0  0  0  0  0  0
   21.3243  -19.4596  -16.6898 C   0  0  0  0  0  0  0  0  0  0  0  0
   22.3833  -19.6072  -17.5594 C   0  0  0  0  0  0  0  0  0  0  0  0
   22.6077  -18.4442  -18.1923 N   0  0  0  0  0  0  0  0  0  0  0  0
   21.7298  -17.5145  -17.7712 C   0  0  0  0  0  0  0  0  0  0  0  0
   21.5747  -16.1892  -18.1162 C   0  0  0  0  0  0  0  0  0  0  0  0
   20.5706  -15.4925  -17.4844 C   0  0  0  0  0  0  0  0  0  0  0  0
   19.7399  -16.0837  -16.5372 C   0  0  0  0  0  0  0  0  0  0  0  0
   19.9284  -17.4071  -16.2214 C   0  0  0  0  0  0  0  0  0  0  0  0
   20.9248  -18.1335  -16.8355 C   0  0  0  0  0  0  0  0  0  0  0  0
   20.4082  -21.1066  -13.3998 C   0  0  0  0  0  0  0  0  0  0  0  0
   19.0995  -20.6652  -13.1436 O   0  0  0  0  0  0  0  0  0  0  0  0
   20.8074  -22.1220  -12.7955 O   0  0  0  0  0  0  0  0  0  0  0  0
  2  1  1  0
  3  2  2  0
  4  3  1  0
  5  4  2  0
  5 11  1  0
  6  7  1  0
  6  5  1  0
  7  8  1  6
  9  7  1  0
 10  9  2  0
 11 12  2  0
 12  2  1  0
 14 13  1  0
 14 15  1  0
 15 16  1  0
 17 16  1  1
 17 19  1  0
 17 18  1  0
 18  9  1  0
 19 21  1  0
 20 19  2  0
 21 22  1  0
 22 23  1  6
 22 33  1  0
 24 23  1  0
 25 24  2  0
 26 25  1  0
 27 26  1  0
 27 32  2  0
 28 27  1  0
 29 28  2  0
 29 30  1  0
 30 31  2  0
 31 32  1  0
 32 24  1  0
 33 35  2  0
 33 34  1  0
M  END
$$$$
