YMW.pdb
     RDKit          3D

 35 37  0  0  1  0  0  0  0  0999 V2000
   17.9573  -16.2664  -15.9180 O   0  0  0  0  0  0  0  0  0  0  0  0
   18.7292  -17.0474  -15.0730 C   0  0  0  0  0  0  0  0  0  0  0  0
   20.0933  -16.9025  -15.0963 C   0  0  0  0  0  0  0  0  0  0  0  0
   20.9067  -17.6465  -14.2860 C   0  0  0  0  0  0  0  0  0  0  0  0
   20.3673  -18.5796  -13.4086 C   0  0  0  0  0  0  0  0  0  0  0  0
   21.2706  -19.3891  -12.5358 C   0  0  0  0  0  0  0  0  0  0  0  0
   21.8861  -20.4447  -13.4255 C   0  0  2  0  0  0  0  0  0  0  0  0
   20.8351  -21.4209  -13.6628 N   0  0  0  0  0  0  0  0  0  0  0  0
   23.0978  -21.0567  -12.8595 C   0  0  0  0  0  0  0  0  0  0  0  0
   23.0879  -21.8015  -11.8243 O   0  0  0  0  0  0  0  0  0  0  0  0
   19.0084  -18.7160  -13.3919 C   0  0  0  0  0  0  0  0  0  0  0  0
   18.2059  -17.9633  -14.2091 C   0  0  0  0  0  0  0  0  0  0  0  0
   28.4512  -22.2679  -16.1844 C   0  0  0  0  0  0  0  0  0  0  0  0
   29.2929  -22.0240  -14.5783 S   0  0  0  0  0  0  0  0  0  0  0  0
   28.0114  -21.7561  -13.2892 C   0  0  0  0  0  0  0  0  0  0  0  0
   26.7196  -21.3335  -13.9037 C   0  0  0  0  0  0  0  0  0  0  0  0
   25.6291  -21.1833  -12.9061 C   0  0  2  0  0  0  0  0  0  0  0  0
   24.3504  -20.7960  -13.5153 N   0  0  0  0  0  0  0  0  0  0  0  0
   25.9316  -20.4310  -11.6823 C   0  0  0  0  0  0  0  0  0  0  0  0
   25.6464  -19.2355  -11.5733 O   0  0  0  0  0  0  0  0  0  0  0  0
   26.5605  -21.0674  -10.5963 N   0  0  0  0  0  0  0  0  0  0  0  0
   27.3548  -20.4036   -9.5751 C   0  0  1  0  0  0  0  0  0  0  0  0
   26.5331  -20.4035   -8.3090 C   0  0  0  0  0  0  0  0  0  0  0  0
   27.1738  -19.5987   -7.2316 C   0  0  0  0  0  0  0  0  0  0  0  0
   27.2791  -18.2313   -7.0956 C   0  0  0  0  0  0  0  0  0  0  0  0
   27.9362  -17.9441   -5.9601 N   0  0  0  0  0  0  0  0  0  0  0  0
   28.2796  -19.0816   -5.3271 C   0  0  0  0  0  0  0  0  0  0  0  0
   28.9649  -19.2952   -4.1506 C   0  0  0  0  0  0  0  0  0  0  0  0
   29.1683  -20.6029   -3.7746 C   0  0  0  0  0  0  0  0  0  0  0  0
   28.7096  -21.6737   -4.5362 C   0  0  0  0  0  0  0  0  0  0  0  0
   28.0315  -21.4174   -5.7028 C   0  0  0  0  0  0  0  0  0  0  0  0
   27.8109  -20.1194   -6.1081 C   0  0  0  0  0  0  0  0  0  0  0  0
   28.6611  -21.0786   -9.3898 C   0  0  0  0  0  0  0  0  0  0  0  0
   29.7181  -20.3263   -8.8512 O   0  0  0  0  0  0  0  0  0  0  0  0
   28.8865  -22.2697   -9.6831 O   0  0  0  0  0  0  0  0  0  0  0  0
  2  1  1  0
  3  2  2  0
  4  3  1  0
  5  4  2  0
  5 11  1  0
  6  7  1  0
  6  5  1  0
  7  8  1  1
  9  7  1  0
 10  9  2  0
 11 12  2  0
 12  2  1  0
 14 13  1  0
 14 15  1  0
 15 16  1  0
 17 16  1  6
 17 19  1  0
 17 18  1  0
 18  9  1  0
 19 21  1  0
 20 19  2  0
 21 22  1  0
 22 23  1  1
 22 33  1  0
 24 23  1  0
 25 24  2  0
 26 25  1  0
 27 26  1  0
 27 32  2  0
 28 27  1  0
 29 28  2  0
 29 30  1  0
 30 31  2  0
 31 32  1  0
 32 24  1  0
 33 35  2  0
 33 34  1  0
M  END
$$$$
