YMW.pdb
     RDKit          3D

 35 37  0  0  1  0  0  0  0  0999 V2000
   15.7210  -13.0636    2.8116 O   0  0  0  0  0  0  0  0  0  0  0  0
   16.4671  -14.0993    3.3505 C   0  0  0  0  0  0  0  0  0  0  0  0
   17.7582  -13.8530    3.7440 C   0  0  0  0  0  0  0  0  0  0  0  0
   18.5432  -14.8360    4.2816 C   0  0  0  0  0  0  0  0  0  0  0  0
   18.0489  -16.1247    4.4449 C   0  0  0  0  0  0  0  0  0  0  0  0
   18.9223  -17.1882    5.0271 C   0  0  0  0  0  0  0  0  0  0  0  0
   18.4950  -17.3459    6.4684 C   0  0  2  0  0  0  0  0  0  0  0  0
   18.8676  -16.1047    7.1274 N   0  0  0  0  0  0  0  0  0  0  0  0
   19.0777  -18.5241    7.1285 C   0  0  0  0  0  0  0  0  0  0  0  0
   20.3143  -18.6203    7.4252 O   0  0  0  0  0  0  0  0  0  0  0  0
   16.7623  -16.3599    4.0512 C   0  0  0  0  0  0  0  0  0  0  0  0
   15.9874  -15.3650    3.5146 C   0  0  0  0  0  0  0  0  0  0  0  0
   20.1681  -19.0102   12.9572 C   0  0  0  0  0  0  0  0  0  0  0  0
   19.6085  -20.4260   11.9424 S   0  0  0  0  0  0  0  0  0  0  0  0
   18.9116  -19.7723   10.3730 C   0  0  0  0  0  0  0  0  0  0  0  0
   18.2984  -20.8675    9.5671 C   0  0  0  0  0  0  0  0  0  0  0  0
   18.6913  -20.8182    8.1352 C   0  0  2  0  0  0  0  0  0  0  0  0
   18.1992  -19.6153    7.4516 N   0  0  0  0  0  0  0  0  0  0  0  0
   18.5123  -22.0410    7.3428 C   0  0  0  0  0  0  0  0  0  0  0  0
   17.5894  -22.1543    6.5317 O   0  0  0  0  0  0  0  0  0  0  0  0
   19.4015  -23.1207    7.4952 N   0  0  0  0  0  0  0  0  0  0  0  0
   19.3270  -24.3821    6.7755 C   0  0  1  0  0  0  0  0  0  0  0  0
   20.5747  -25.1592    7.1186 C   0  0  0  0  0  0  0  0  0  0  0  0
   20.6165  -25.5338    8.5597 C   0  0  0  0  0  0  0  0  0  0  0  0
   19.9777  -26.5584    9.2240 C   0  0  0  0  0  0  0  0  0  0  0  0
   20.3109  -26.5244   10.5245 N   0  0  0  0  0  0  0  0  0  0  0  0
   21.1558  -25.5023   10.7564 C   0  0  0  0  0  0  0  0  0  0  0  0
   21.7541  -25.0638   11.9180 C   0  0  0  0  0  0  0  0  0  0  0  0
   22.5718  -23.9616   11.8219 C   0  0  0  0  0  0  0  0  0  0  0  0
   22.7958  -23.3069   10.6144 C   0  0  0  0  0  0  0  0  0  0  0  0
   22.1797  -23.7758    9.4799 C   0  0  0  0  0  0  0  0  0  0  0  0
   21.3546  -24.8772    9.5413 C   0  0  0  0  0  0  0  0  0  0  0  0
   18.0945  -25.1268    7.1259 C   0  0  0  0  0  0  0  0  0  0  0  0
   17.7223  -26.2036    6.3043 O   0  0  0  0  0  0  0  0  0  0  0  0
   17.3630  -24.8596    8.1002 O   0  0  0  0  0  0  0  0  0  0  0  0
  2  1  1  0
  3  2  2  0
  4  3  1  0
  5  4  2  0
  5 11  1  0
  6  7  1  0
  6  5  1  0
  7  8  1  1
  9  7  1  0
 10  9  2  0
 11 12  2  0
 12  2  1  0
 14 13  1  0
 14 15  1  0
 15 16  1  0
 17 16  1  1
 17 19  1  0
 17 18  1  0
 18  9  1  0
 19 21  1  0
 20 19  2  0
 21 22  1  0
 22 23  1  1
 22 33  1  0
 24 23  1  0
 25 24  2  0
 26 25  1  0
 27 26  1  0
 27 32  2  0
 28 27  1  0
 29 28  2  0
 29 30  1  0
 30 31  2  0
 31 32  1  0
 32 24  1  0
 33 35  2  0
 33 34  1  0
M  END
$$$$
