YMW.pdb
     RDKit          3D

 35 37  0  0  1  0  0  0  0  0999 V2000
   21.0900  -15.7563  -19.7354 O   0  0  0  0  0  0  0  0  0  0  0  0
   21.1469  -16.2389  -18.4379 C   0  0  0  0  0  0  0  0  0  0  0  0
   22.3683  -16.5604  -17.9019 C   0  0  0  0  0  0  0  0  0  0  0  0
   22.4866  -17.0423  -16.6269 C   0  0  0  0  0  0  0  0  0  0  0  0
   21.3607  -17.2215  -15.8321 C   0  0  0  0  0  0  0  0  0  0  0  0
   21.5073  -17.7556  -14.4442 C   0  0  0  0  0  0  0  0  0  0  0  0
   21.8732  -19.2151  -14.5878 C   0  0  2  0  0  0  0  0  0  0  0  0
   20.6876  -19.8677  -15.1192 N   0  0  0  0  0  0  0  0  0  0  0  0
   22.3341  -19.8315  -13.3344 C   0  0  0  0  0  0  0  0  0  0  0  0
   21.6244  -20.6400  -12.6495 O   0  0  0  0  0  0  0  0  0  0  0  0
   20.1495  -16.8977  -16.3740 C   0  0  0  0  0  0  0  0  0  0  0  0
   20.0463  -16.4155  -17.6527 C   0  0  0  0  0  0  0  0  0  0  0  0
   24.8426  -25.5008  -12.6711 C   0  0  0  0  0  0  0  0  0  0  0  0
   24.1543  -23.8512  -13.0612 S   0  0  0  0  0  0  0  0  0  0  0  0
   25.5528  -22.6944  -13.3473 C   0  0  0  0  0  0  0  0  0  0  0  0
   25.0536  -21.3372  -13.7131 C   0  0  0  0  0  0  0  0  0  0  0  0
   24.6315  -20.5411  -12.5319 C   0  0  2  0  0  0  0  0  0  0  0  0
   23.6530  -19.4992  -12.8685 N   0  0  0  0  0  0  0  0  0  0  0  0
   25.6844  -20.0667  -11.6255 C   0  0  0  0  0  0  0  0  0  0  0  0
   26.5701  -19.2995  -12.0117 O   0  0  0  0  0  0  0  0  0  0  0  0
   25.7034  -20.4833  -10.2817 N   0  0  0  0  0  0  0  0  0  0  0  0
   26.7314  -20.1477   -9.3095 C   0  0  1  0  0  0  0  0  0  0  0  0
   26.0655  -19.3318   -8.2283 C   0  0  0  0  0  0  0  0  0  0  0  0
   27.0559  -18.7690   -7.2684 C   0  0  0  0  0  0  0  0  0  0  0  0
   27.5622  -17.4909   -7.1707 C   0  0  0  0  0  0  0  0  0  0  0  0
   28.4300  -17.4307   -6.1476 N   0  0  0  0  0  0  0  0  0  0  0  0
   28.5248  -18.6350   -5.5533 C   0  0  0  0  0  0  0  0  0  0  0  0
   29.2834  -19.0640   -4.4856 C   0  0  0  0  0  0  0  0  0  0  0  0
   29.1603  -20.3852   -4.1226 C   0  0  0  0  0  0  0  0  0  0  0  0
   28.3128  -21.2628   -4.7923 C   0  0  0  0  0  0  0  0  0  0  0  0
   27.5744  -20.7951   -5.8518 C   0  0  0  0  0  0  0  0  0  0  0  0
   27.6742  -19.4775   -6.2413 C   0  0  0  0  0  0  0  0  0  0  0  0
   27.3753  -21.3679   -8.7681 C   0  0  0  0  0  0  0  0  0  0  0  0
   28.7787  -21.4031   -8.7197 O   0  0  0  0  0  0  0  0  0  0  0  0
   26.7547  -22.3679   -8.3553 O   0  0  0  0  0  0  0  0  0  0  0  0
  2  1  1  0
  3  2  2  0
  4  3  1  0
  5  4  2  0
  5 11  1  0
  6  7  1  0
  6  5  1  0
  7  8  1  1
  9  7  1  0
 10  9  2  0
 11 12  2  0
 12  2  1  0
 14 13  1  0
 14 15  1  0
 15 16  1  0
 17 16  1  6
 17 19  1  0
 17 18  1  0
 18  9  1  0
 19 21  1  0
 20 19  2  0
 21 22  1  0
 22 23  1  1
 22 33  1  0
 24 23  1  0
 25 24  2  0
 26 25  1  0
 27 26  1  0
 27 32  2  0
 28 27  1  0
 29 28  2  0
 29 30  1  0
 30 31  2  0
 31 32  1  0
 32 24  1  0
 33 35  2  0
 33 34  1  0
M  END
$$$$
