YMW.pdb
     RDKit          3D

 35 37  0  0  1  0  0  0  0  0999 V2000
   29.0536  -14.5017  -17.1786 O   0  0  0  0  0  0  0  0  0  0  0  0
   28.4301  -15.6362  -16.6846 C   0  0  0  0  0  0  0  0  0  0  0  0
   27.9041  -15.6066  -15.4178 C   0  0  0  0  0  0  0  0  0  0  0  0
   27.2782  -16.6960  -14.8764 C   0  0  0  0  0  0  0  0  0  0  0  0
   27.1576  -17.8748  -15.6027 C   0  0  0  0  0  0  0  0  0  0  0  0
   26.4773  -19.0576  -14.9934 C   0  0  0  0  0  0  0  0  0  0  0  0
   27.5177  -19.7569  -14.1489 C   0  0  2  0  0  0  0  0  0  0  0  0
   28.4165  -20.4061  -15.0893 N   0  0  0  0  0  0  0  0  0  0  0  0
   26.9474  -20.7038  -13.1786 C   0  0  0  0  0  0  0  0  0  0  0  0
   26.7267  -21.9313  -13.4450 O   0  0  0  0  0  0  0  0  0  0  0  0
   27.6833  -17.8942  -16.8631 C   0  0  0  0  0  0  0  0  0  0  0  0
   28.3072  -16.7948  -17.3927 C   0  0  0  0  0  0  0  0  0  0  0  0
   26.9019  -19.3821   -6.8123 C   0  0  0  0  0  0  0  0  0  0  0  0
   28.0335  -20.6824   -7.4254 S   0  0  0  0  0  0  0  0  0  0  0  0
   27.6675  -20.9765   -9.2017 C   0  0  0  0  0  0  0  0  0  0  0  0
   26.2264  -20.7278   -9.4955 C   0  0  0  0  0  0  0  0  0  0  0  0
   25.8676  -21.0205  -10.9072 C   0  0  2  0  0  0  0  0  0  0  0  0
   26.6277  -20.2096  -11.8669 N   0  0  0  0  0  0  0  0  0  0  0  0
   24.4399  -21.1099  -11.2370 C   0  0  0  0  0  0  0  0  0  0  0  0
   23.6455  -21.7071  -10.5058 O   0  0  0  0  0  0  0  0  0  0  0  0
   23.9440  -20.5082  -12.4082 N   0  0  0  0  0  0  0  0  0  0  0  0
   22.5636  -20.5589  -12.8625 C   0  0  1  0  0  0  0  0  0  0  0  0
   22.4000  -19.4713  -13.8963 C   0  0  0  0  0  0  0  0  0  0  0  0
   21.0168  -19.4333  -14.4477 C   0  0  0  0  0  0  0  0  0  0  0  0
   19.9234  -18.7010  -14.0384 C   0  0  0  0  0  0  0  0  0  0  0  0
   18.8769  -18.9775  -14.8333 N   0  0  0  0  0  0  0  0  0  0  0  0
   19.2341  -19.8792  -15.7670 C   0  0  0  0  0  0  0  0  0  0  0  0
   18.5127  -20.4710  -16.7814 C   0  0  0  0  0  0  0  0  0  0  0  0
   19.1772  -21.3791  -17.5729 C   0  0  0  0  0  0  0  0  0  0  0  0
   20.5170  -21.6976  -17.3723 C   0  0  0  0  0  0  0  0  0  0  0  0
   21.1998  -21.0856  -16.3496 C   0  0  0  0  0  0  0  0  0  0  0  0
   20.5641  -20.1715  -15.5384 C   0  0  0  0  0  0  0  0  0  0  0  0
   22.2269  -21.8964  -13.4049 C   0  0  0  0  0  0  0  0  0  0  0  0
   20.9171  -22.3689  -13.2201 O   0  0  0  0  0  0  0  0  0  0  0  0
   23.0298  -22.6329  -14.0119 O   0  0  0  0  0  0  0  0  0  0  0  0
  2  1  1  0
  3  2  2  0
  4  3  1  0
  5  4  2  0
  5 11  1  0
  6  7  1  0
  6  5  1  0
  7  8  1  6
  9  7  1  0
 10  9  2  0
 11 12  2  0
 12  2  1  0
 14 13  1  0
 14 15  1  0
 15 16  1  0
 17 16  1  1
 17 19  1  0
 17 18  1  0
 18  9  1  0
 19 21  1  0
 20 19  2  0
 21 22  1  0
 22 23  1  6
 22 33  1  0
 24 23  1  0
 25 24  2  0
 26 25  1  0
 27 26  1  0
 27 32  2  0
 28 27  1  0
 29 28  2  0
 29 30  1  0
 30 31  2  0
 31 32  1  0
 32 24  1  0
 33 35  2  0
 33 34  1  0
M  END
$$$$
