YMW.pdb
     RDKit          3D

 35 37  0  0  1  0  0  0  0  0999 V2000
   12.5819  -18.5556  -17.2592 O   0  0  0  0  0  0  0  0  0  0  0  0
   13.4885  -17.5115  -17.1715 C   0  0  0  0  0  0  0  0  0  0  0  0
   13.0489  -16.2846  -16.7426 C   0  0  0  0  0  0  0  0  0  0  0  0
   13.8973  -15.2165  -16.6369 C   0  0  0  0  0  0  0  0  0  0  0  0
   15.2414  -15.3468  -16.9652 C   0  0  0  0  0  0  0  0  0  0  0  0
   16.1527  -14.1680  -16.8509 C   0  0  0  0  0  0  0  0  0  0  0  0
   16.1144  -13.4707  -18.1914 C   0  0  2  0  0  0  0  0  0  0  0  0
   16.8984  -14.3023  -19.0901 N   0  0  0  0  0  0  0  0  0  0  0  0
   16.6030  -12.0841  -18.1466 C   0  0  0  0  0  0  0  0  0  0  0  0
   17.8035  -11.7741  -17.8480 O   0  0  0  0  0  0  0  0  0  0  0  0
   15.6698  -16.5721  -17.3901 C   0  0  0  0  0  0  0  0  0  0  0  0
   14.8084  -17.6334  -17.4906 C   0  0  0  0  0  0  0  0  0  0  0  0
   14.9015   -4.5377  -20.0180 C   0  0  0  0  0  0  0  0  0  0  0  0
   14.2590   -6.2489  -19.9376 S   0  0  0  0  0  0  0  0  0  0  0  0
   15.5327   -7.3076  -19.1423 C   0  0  0  0  0  0  0  0  0  0  0  0
   15.0981   -8.7343  -19.1178 C   0  0  0  0  0  0  0  0  0  0  0  0
   16.0734   -9.6218  -18.4337 C   0  0  2  0  0  0  0  0  0  0  0  0
   15.6717  -11.0341  -18.4581 N   0  0  0  0  0  0  0  0  0  0  0  0
   16.5749   -9.1915  -17.1228 C   0  0  0  0  0  0  0  0  0  0  0  0
   15.9116   -9.3515  -16.0947 O   0  0  0  0  0  0  0  0  0  0  0  0
   17.8377   -8.5810  -17.0125 N   0  0  0  0  0  0  0  0  0  0  0  0
   18.3997   -8.0207  -15.7940 C   0  0  1  0  0  0  0  0  0  0  0  0
   19.8576   -8.4101  -15.7618 C   0  0  0  0  0  0  0  0  0  0  0  0
   20.5812   -7.7591  -14.6342 C   0  0  0  0  0  0  0  0  0  0  0  0
   20.6434   -8.1135  -13.3038 C   0  0  0  0  0  0  0  0  0  0  0  0
   21.4218   -7.2402  -12.6443 N   0  0  0  0  0  0  0  0  0  0  0  0
   21.8848   -6.3040  -13.4938 C   0  0  0  0  0  0  0  0  0  0  0  0
   22.6976   -5.2106  -13.2856 C   0  0  0  0  0  0  0  0  0  0  0  0
   22.9825   -4.4266  -14.3796 C   0  0  0  0  0  0  0  0  0  0  0  0
   22.4811   -4.7102  -15.6464 C   0  0  0  0  0  0  0  0  0  0  0  0
   21.6740   -5.8094  -15.8110 C   0  0  0  0  0  0  0  0  0  0  0  0
   21.3690   -6.6153  -14.7363 C   0  0  0  0  0  0  0  0  0  0  0  0
   18.2158   -6.5509  -15.7457 C   0  0  0  0  0  0  0  0  0  0  0  0
   18.0841   -5.9470  -14.4844 O   0  0  0  0  0  0  0  0  0  0  0  0
   18.1666   -5.8138  -16.7506 O   0  0  0  0  0  0  0  0  0  0  0  0
  2  1  1  0
  3  2  2  0
  4  3  1  0
  5  4  2  0
  5 11  1  0
  6  7  1  0
  6  5  1  0
  7  8  1  6
  9  7  1  0
 10  9  2  0
 11 12  2  0
 12  2  1  0
 14 13  1  0
 14 15  1  0
 15 16  1  0
 17 16  1  1
 17 19  1  0
 17 18  1  0
 18  9  1  0
 19 21  1  0
 20 19  2  0
 21 22  1  0
 22 23  1  6
 22 33  1  0
 24 23  1  0
 25 24  2  0
 26 25  1  0
 27 26  1  0
 27 32  2  0
 28 27  1  0
 29 28  2  0
 29 30  1  0
 30 31  2  0
 31 32  1  0
 32 24  1  0
 33 35  2  0
 33 34  1  0
M  END
$$$$
