YMW.pdb
     RDKit          3D

 35 37  0  0  1  0  0  0  0  0999 V2000
   30.4934  -16.5368  -19.0909 O   0  0  0  0  0  0  0  0  0  0  0  0
   29.5805  -17.3382  -18.4243 C   0  0  0  0  0  0  0  0  0  0  0  0
   29.3783  -17.1394  -17.0819 C   0  0  0  0  0  0  0  0  0  0  0  0
   28.4910  -17.9001  -16.3707 C   0  0  0  0  0  0  0  0  0  0  0  0
   27.7632  -18.9058  -16.9955 C   0  0  0  0  0  0  0  0  0  0  0  0
   26.8035  -19.7320  -16.2022 C   0  0  0  0  0  0  0  0  0  0  0  0
   27.6406  -20.7064  -15.4055 C   0  0  2  0  0  0  0  0  0  0  0  0
   28.1792  -21.6468  -16.3748 N   0  0  0  0  0  0  0  0  0  0  0  0
   26.8954  -21.3794  -14.3308 C   0  0  0  0  0  0  0  0  0  0  0  0
   25.9710  -22.2311  -14.5469 O   0  0  0  0  0  0  0  0  0  0  0  0
   27.9706  -19.0954  -18.3321 C   0  0  0  0  0  0  0  0  0  0  0  0
   28.8625  -18.3252  -19.0319 C   0  0  0  0  0  0  0  0  0  0  0  0
   25.1887  -20.2941   -6.6111 C   0  0  0  0  0  0  0  0  0  0  0  0
   26.4696  -20.1340   -7.9077 S   0  0  0  0  0  0  0  0  0  0  0  0
   25.7879  -20.7995   -9.4787 C   0  0  0  0  0  0  0  0  0  0  0  0
   26.7722  -20.6521  -10.5897 C   0  0  0  0  0  0  0  0  0  0  0  0
   26.2348  -21.1037  -11.8990 C   0  0  2  0  0  0  0  0  0  0  0  0
   27.2356  -21.0535  -12.9724 N   0  0  0  0  0  0  0  0  0  0  0  0
   24.9270  -20.5785  -12.3102 C   0  0  0  0  0  0  0  0  0  0  0  0
   24.7703  -19.3874  -12.5919 O   0  0  0  0  0  0  0  0  0  0  0  0
   23.8134  -21.4344  -12.3922 N   0  0  0  0  0  0  0  0  0  0  0  0
   22.4964  -21.0598  -12.8816 C   0  0  1  0  0  0  0  0  0  0  0  0
   22.1683  -21.9931  -14.0216 C   0  0  0  0  0  0  0  0  0  0  0  0
   20.8318  -21.7010  -14.6110 C   0  0  0  0  0  0  0  0  0  0  0  0
   20.4224  -20.6373  -15.3857 C   0  0  0  0  0  0  0  0  0  0  0  0
   19.1256  -20.7868  -15.7012 N   0  0  0  0  0  0  0  0  0  0  0  0
   18.6480  -21.9222  -15.1578 C   0  0  0  0  0  0  0  0  0  0  0  0
   17.3915  -22.4875  -15.1928 C   0  0  0  0  0  0  0  0  0  0  0  0
   17.2199  -23.6712  -14.5129 C   0  0  0  0  0  0  0  0  0  0  0  0
   18.2573  -24.2836  -13.8161 C   0  0  0  0  0  0  0  0  0  0  0  0
   19.4944  -23.6869  -13.8058 C   0  0  0  0  0  0  0  0  0  0  0  0
   19.7000  -22.5012  -14.4764 C   0  0  0  0  0  0  0  0  0  0  0  0
   21.4846  -21.1256  -11.8007 C   0  0  0  0  0  0  0  0  0  0  0  0
   21.7036  -22.0329  -10.7510 O   0  0  0  0  0  0  0  0  0  0  0  0
   20.4490  -20.4315  -11.7618 O   0  0  0  0  0  0  0  0  0  0  0  0
  2  1  1  0
  3  2  2  0
  4  3  1  0
  5  4  2  0
  5 11  1  0
  6  7  1  0
  6  5  1  0
  7  8  1  6
  9  7  1  0
 10  9  2  0
 11 12  2  0
 12  2  1  0
 14 13  1  0
 14 15  1  0
 15 16  1  0
 17 16  1  1
 17 19  1  0
 17 18  1  0
 18  9  1  0
 19 21  1  0
 20 19  2  0
 21 22  1  0
 22 23  1  6
 22 33  1  0
 24 23  1  0
 25 24  2  0
 26 25  1  0
 27 26  1  0
 27 32  2  0
 28 27  1  0
 29 28  2  0
 29 30  1  0
 30 31  2  0
 31 32  1  0
 32 24  1  0
 33 35  2  0
 33 34  1  0
M  END
$$$$
