ACC.pdb
     RDKit          3D

 18 17  0  0  1  0  0  0  0  0999 V2000
   16.0102  -13.8016  -16.3151 C   0  0  0  0  0  0  0  0  0  0  0  0
   17.4946  -13.9400  -16.2330 C   0  0  2  0  0  0  0  0  0  0  0  0
   17.8197  -15.2044  -15.6008 N   0  0  0  0  0  0  0  0  0  0  0  0
   18.1311  -12.8005  -15.4857 C   0  0  0  0  0  0  0  0  0  0  0  0
   18.0783  -12.7771  -14.2324 O   0  0  0  0  0  0  0  0  0  0  0  0
   18.7782  -11.7755  -16.2163 N   0  0  0  0  0  0  0  0  0  0  0  0
   19.4056  -10.6596  -15.5520 C   0  0  1  0  0  0  0  0  0  0  0  0
   20.7170  -10.4030  -16.2284 C   0  0  0  0  0  0  0  0  0  0  0  0
   21.5802   -8.9321  -15.6333 S   0  0  0  0  0  0  0  0  0  0  0  0
   18.4855   -9.4984  -15.5981 C   0  0  0  0  0  0  0  0  0  0  0  0
   17.8180   -9.2693  -16.6694 O   0  0  0  0  0  0  0  0  0  0  0  0
   18.2604   -8.5902  -14.5482 N   0  0  0  0  0  0  0  0  0  0  0  0
   17.4634   -7.3929  -14.7883 C   0  0  1  0  0  0  0  0  0  0  0  0
   16.3017   -7.3133  -13.8131 C   0  0  0  0  0  0  0  0  0  0  0  0
   15.5516   -5.6828  -13.7604 S   0  0  0  0  0  0  0  0  0  0  0  0
   18.3027   -6.1698  -14.7002 C   0  0  0  0  0  0  0  0  0  0  0  0
   19.2337   -6.0215  -13.8959 O   0  0  0  0  0  0  0  0  0  0  0  0
   18.0053   -5.1420  -15.5860 O   0  0  0  0  0  0  0  0  0  0  0  0
  2  1  1  1
  2  3  1  0
  4  5  2  0
  4  2  1  0
  6  4  1  0
  7  6  1  0
  7  8  1  6
  9  8  1  0
 10  7  1  0
 10 12  1  0
 11 10  2  0
 13 12  1  0
 13 16  1  0
 13 14  1  1
 14 15  1  0
 16 18  1  0
 17 16  2  0
M  END
$$$$
