ACC.pdb
     RDKit          3D

 18 17  0  0  1  0  0  0  0  0999 V2000
   26.5831  -19.7389  -16.6187 C   0  0  0  0  0  0  0  0  0  0  0  0
   28.0077  -20.1854  -16.6388 C   0  0  2  0  0  0  0  0  0  0  0  0
   28.5306  -20.0455  -17.9846 N   0  0  0  0  0  0  0  0  0  0  0  0
   28.1660  -21.6020  -16.1588 C   0  0  0  0  0  0  0  0  0  0  0  0
   27.7487  -21.9187  -15.0188 O   0  0  0  0  0  0  0  0  0  0  0  0
   28.7850  -22.5503  -17.0078 N   0  0  0  0  0  0  0  0  0  0  0  0
   28.9386  -23.9282  -16.6105 C   0  0  1  0  0  0  0  0  0  0  0  0
   27.8618  -24.7215  -17.2847 C   0  0  0  0  0  0  0  0  0  0  0  0
   27.8932  -26.4861  -16.9003 S   0  0  0  0  0  0  0  0  0  0  0  0
   30.3061  -24.3772  -16.9646 C   0  0  0  0  0  0  0  0  0  0  0  0
   30.8352  -23.9713  -18.0606 O   0  0  0  0  0  0  0  0  0  0  0  0
   31.1124  -25.2325  -16.1928 N   0  0  0  0  0  0  0  0  0  0  0  0
   32.4544  -25.5695  -16.6534 C   0  0  1  0  0  0  0  0  0  0  0  0
   33.2905  -26.1298  -15.5161 C   0  0  0  0  0  0  0  0  0  0  0  0
   33.0992  -25.1999  -13.9919 S   0  0  0  0  0  0  0  0  0  0  0  0
   32.4016  -26.5316  -17.7847 C   0  0  0  0  0  0  0  0  0  0  0  0
   31.3520  -26.9542  -18.2900 O   0  0  0  0  0  0  0  0  0  0  0  0
   33.6188  -26.9699  -18.2902 O   0  0  0  0  0  0  0  0  0  0  0  0
  2  1  1  6
  2  3  1  0
  4  5  2  0
  4  2  1  0
  6  4  1  0
  7  6  1  0
  7  8  1  6
  9  8  1  0
 10  7  1  0
 10 12  1  0
 11 10  2  0
 13 12  1  0
 13 16  1  0
 13 14  1  1
 14 15  1  0
 16 18  1  0
 17 16  2  0
M  END
$$$$
