ACC.pdb
     RDKit          3D

 18 17  0  0  1  0  0  0  0  0999 V2000
   26.0249  -33.9749  -11.4700 C   0  0  0  0  0  0  0  0  0  0  0  0
   25.5719  -34.6750  -10.2314 C   0  0  2  0  0  0  0  0  0  0  0  0
   24.2036  -34.2904   -9.9417 N   0  0  0  0  0  0  0  0  0  0  0  0
   26.4606  -34.3797   -9.0546 C   0  0  0  0  0  0  0  0  0  0  0  0
   27.6848  -34.6462   -9.1221 O   0  0  0  0  0  0  0  0  0  0  0  0
   25.8935  -33.8053   -7.8920 N   0  0  0  0  0  0  0  0  0  0  0  0
   26.6717  -33.6094   -6.6936 C   0  0  1  0  0  0  0  0  0  0  0  0
   26.2887  -32.2839   -6.1109 C   0  0  0  0  0  0  0  0  0  0  0  0
   26.7209  -32.0902   -4.3678 S   0  0  0  0  0  0  0  0  0  0  0  0
   26.4266  -34.7463   -5.7746 C   0  0  0  0  0  0  0  0  0  0  0  0
   25.2242  -35.1518   -5.5855 O   0  0  0  0  0  0  0  0  0  0  0  0
   27.4138  -35.4523   -5.0644 N   0  0  0  0  0  0  0  0  0  0  0  0
   27.0246  -36.5452   -4.1808 C   0  0  1  0  0  0  0  0  0  0  0  0
   27.2739  -37.8892   -4.8427 C   0  0  0  0  0  0  0  0  0  0  0  0
   28.9146  -38.0138   -5.5617 S   0  0  0  0  0  0  0  0  0  0  0  0
   27.7444  -36.4613   -2.8835 C   0  0  0  0  0  0  0  0  0  0  0  0
   28.6477  -35.6485   -2.6405 O   0  0  0  0  0  0  0  0  0  0  0  0
   27.3625  -37.3616   -1.8970 O   0  0  0  0  0  0  0  0  0  0  0  0
  2  1  1  6
  2  3  1  0
  4  5  2  0
  4  2  1  0
  6  4  1  0
  7  6  1  0
  7  8  1  1
  9  8  1  0
 10  7  1  0
 10 12  1  0
 11 10  2  0
 13 12  1  0
 13 16  1  0
 13 14  1  6
 14 15  1  0
 16 18  1  0
 17 16  2  0
M  END
$$$$
