ACC.pdb
     RDKit          3D

 18 17  0  0  1  0  0  0  0  0999 V2000
   22.4117  -11.5683  -17.2040 C   0  0  0  0  0  0  0  0  0  0  0  0
   20.9390  -11.4985  -16.9681 C   0  0  2  0  0  0  0  0  0  0  0  0
   20.2528  -12.1972  -18.0382 N   0  0  0  0  0  0  0  0  0  0  0  0
   20.4464  -10.0811  -16.8661 C   0  0  0  0  0  0  0  0  0  0  0  0
   20.5555   -9.3160  -17.8545 O   0  0  0  0  0  0  0  0  0  0  0  0
   19.8682   -9.6401  -15.6519 N   0  0  0  0  0  0  0  0  0  0  0  0
   19.3295   -8.3092  -15.5152 C   0  0  1  0  0  0  0  0  0  0  0  0
   17.9439   -8.4313  -14.9598 C   0  0  0  0  0  0  0  0  0  0  0  0
   16.7538   -9.1727  -16.0986 S   0  0  0  0  0  0  0  0  0  0  0  0
   20.2372   -7.5131  -14.6554 C   0  0  0  0  0  0  0  0  0  0  0  0
   20.6178   -7.9958  -13.5293 O   0  0  0  0  0  0  0  0  0  0  0  0
   20.7435   -6.2370  -14.9601 N   0  0  0  0  0  0  0  0  0  0  0  0
   21.6585   -5.5831  -14.0318 C   0  0  1  0  0  0  0  0  0  0  0  0
   23.0843   -5.6362  -14.5521 C   0  0  0  0  0  0  0  0  0  0  0  0
   23.2158   -5.1221  -16.2674 S   0  0  0  0  0  0  0  0  0  0  0  0
   21.2467   -4.1773  -13.7821 C   0  0  0  0  0  0  0  0  0  0  0  0
   20.3799   -3.5797  -14.4358 O   0  0  0  0  0  0  0  0  0  0  0  0
   21.8884   -3.5124  -12.7450 O   0  0  0  0  0  0  0  0  0  0  0  0
  2  1  1  6
  2  3  1  0
  4  5  2  0
  4  2  1  0
  6  4  1  0
  7  6  1  0
  7  8  1  1
  9  8  1  0
 10  7  1  0
 10 12  1  0
 11 10  2  0
 13 12  1  0
 13 16  1  0
 13 14  1  6
 14 15  1  0
 16 18  1  0
 17 16  2  0
M  END
$$$$
