ACC.pdb
     RDKit          3D

 18 17  0  0  1  0  0  0  0  0999 V2000
   17.3801  -13.2619  -16.1044 C   0  0  0  0  0  0  0  0  0  0  0  0
   17.4054  -11.8738  -16.6540 C   0  0  2  0  0  0  0  0  0  0  0  0
   18.2650  -11.8408  -17.8219 N   0  0  0  0  0  0  0  0  0  0  0  0
   17.8653  -10.8676  -15.6351 C   0  0  0  0  0  0  0  0  0  0  0  0
   17.2406  -10.7538  -14.5530 O   0  0  0  0  0  0  0  0  0  0  0  0
   18.9974  -10.0679  -15.9212 N   0  0  0  0  0  0  0  0  0  0  0  0
   19.3801   -8.9723  -15.0648 C   0  0  1  0  0  0  0  0  0  0  0  0
   20.8735   -8.9806  -14.9510 C   0  0  0  0  0  0  0  0  0  0  0  0
   21.5533   -7.5747  -14.0432 S   0  0  0  0  0  0  0  0  0  0  0  0
   18.8428   -7.7129  -15.6326 C   0  0  0  0  0  0  0  0  0  0  0  0
   18.9117   -7.5161  -16.8984 O   0  0  0  0  0  0  0  0  0  0  0  0
   18.2418   -6.6749  -14.8985 N   0  0  0  0  0  0  0  0  0  0  0  0
   17.7636   -5.4841  -15.5912 C   0  0  1  0  0  0  0  0  0  0  0  0
   16.3248   -5.1803  -15.2118 C   0  0  0  0  0  0  0  0  0  0  0  0
   15.2270   -6.5750  -15.4837 S   0  0  0  0  0  0  0  0  0  0  0  0
   18.6363   -4.3162  -15.3040 C   0  0  0  0  0  0  0  0  0  0  0  0
   19.6197   -4.3512  -14.5507 O   0  0  0  0  0  0  0  0  0  0  0  0
   18.3084   -3.1211  -15.9314 O   0  0  0  0  0  0  0  0  0  0  0  0
  2  1  1  1
  2  3  1  0
  4  5  2  0
  4  2  1  0
  6  4  1  0
  7  6  1  0
  7  8  1  6
  9  8  1  0
 10  7  1  0
 10 12  1  0
 11 10  2  0
 13 12  1  0
 13 16  1  0
 13 14  1  1
 14 15  1  0
 16 18  1  0
 17 16  2  0
M  END
$$$$
