ACC.pdb
     RDKit          3D

 18 17  0  0  1  0  0  0  0  0999 V2000
   14.6527  -10.3580  -14.3013 C   0  0  0  0  0  0  0  0  0  0  0  0
   16.1166  -10.1897  -14.0598 C   0  0  2  0  0  0  0  0  0  0  0  0
   16.5778  -11.2475  -13.1810 N   0  0  0  0  0  0  0  0  0  0  0  0
   16.4452   -8.8426  -13.4772 C   0  0  0  0  0  0  0  0  0  0  0  0
   16.1588   -7.8043  -14.1206 O   0  0  0  0  0  0  0  0  0  0  0  0
   17.0730   -8.7761  -12.2105 N   0  0  0  0  0  0  0  0  0  0  0  0
   17.4105   -7.5120  -11.6039 C   0  0  1  0  0  0  0  0  0  0  0  0
   17.0741   -7.5992  -10.1470 C   0  0  0  0  0  0  0  0  0  0  0  0
   17.8845   -6.3496   -9.1251 S   0  0  0  0  0  0  0  0  0  0  0  0
   18.8429   -7.2281  -11.8584 C   0  0  0  0  0  0  0  0  0  0  0  0
   19.7080   -8.1585  -11.6797 O   0  0  0  0  0  0  0  0  0  0  0  0
   19.3692   -5.9986  -12.2930 N   0  0  0  0  0  0  0  0  0  0  0  0
   20.7892   -5.8920  -12.6072 C   0  0  1  0  0  0  0  0  0  0  0  0
   21.1683   -6.8492  -13.7236 C   0  0  0  0  0  0  0  0  0  0  0  0
   20.6560   -6.2641  -15.3420 S   0  0  0  0  0  0  0  0  0  0  0  0
   21.1491   -4.4971  -12.9717 C   0  0  0  0  0  0  0  0  0  0  0  0
   20.3249   -3.5868  -13.1381 O   0  0  0  0  0  0  0  0  0  0  0  0
   22.5012   -4.2211  -13.1304 O   0  0  0  0  0  0  0  0  0  0  0  0
  2  1  1  1
  2  3  1  0
  4  5  2  0
  4  2  1  0
  6  4  1  0
  7  6  1  0
  7  8  1  1
  9  8  1  0
 10  7  1  0
 10 12  1  0
 11 10  2  0
 13 12  1  0
 13 16  1  0
 13 14  1  6
 14 15  1  0
 16 18  1  0
 17 16  2  0
M  END
$$$$
