ACC.pdb
     RDKit          3D

 18 17  0  0  1  0  0  0  0  0999 V2000
   17.1577  -12.2663  -18.6342 C   0  0  0  0  0  0  0  0  0  0  0  0
   18.3196  -12.6976  -17.8015 C   0  0  2  0  0  0  0  0  0  0  0  0
   17.9713  -13.9153  -17.0944 N   0  0  0  0  0  0  0  0  0  0  0  0
   18.7502  -11.6320  -16.8314 C   0  0  0  0  0  0  0  0  0  0  0  0
   18.0788  -11.4366  -15.7897 O   0  0  0  0  0  0  0  0  0  0  0  0
   19.9083  -10.8701  -17.1167 N   0  0  0  0  0  0  0  0  0  0  0  0
   20.3709   -9.8403  -16.2192 C   0  0  1  0  0  0  0  0  0  0  0  0
   21.8234  -10.0870  -15.9496 C   0  0  0  0  0  0  0  0  0  0  0  0
   22.6327   -8.7772  -15.0051 S   0  0  0  0  0  0  0  0  0  0  0  0
   20.1054   -8.5177  -16.8333 C   0  0  0  0  0  0  0  0  0  0  0  0
   20.4102   -8.3254  -18.0646 O   0  0  0  0  0  0  0  0  0  0  0  0
   19.5311   -7.4124  -16.1805 N   0  0  0  0  0  0  0  0  0  0  0  0
   19.3770   -6.1514  -16.8965 C   0  0  1  0  0  0  0  0  0  0  0  0
   17.9170   -5.7367  -16.9512 C   0  0  0  0  0  0  0  0  0  0  0  0
   16.8798   -6.9577  -17.7621 S   0  0  0  0  0  0  0  0  0  0  0  0
   20.1995   -5.0826  -16.2725 C   0  0  0  0  0  0  0  0  0  0  0  0
   20.8683   -5.2328  -15.2402 O   0  0  0  0  0  0  0  0  0  0  0  0
   20.2024   -3.8459  -16.9051 O   0  0  0  0  0  0  0  0  0  0  0  0
  2  1  1  1
  2  3  1  0
  4  5  2  0
  4  2  1  0
  6  4  1  0
  7  6  1  0
  7  8  1  6
  9  8  1  0
 10  7  1  0
 10 12  1  0
 11 10  2  0
 13 12  1  0
 13 16  1  0
 13 14  1  1
 14 15  1  0
 16 18  1  0
 17 16  2  0
M  END
$$$$
