ACC.pdb
     RDKit          3D

 18 17  0  0  1  0  0  0  0  0999 V2000
   20.2866  -13.2181  -19.1047 C   0  0  0  0  0  0  0  0  0  0  0  0
   20.9411  -12.3285  -18.0998 C   0  0  2  0  0  0  0  0  0  0  0  0
   20.6257  -12.8050  -16.7665 N   0  0  0  0  0  0  0  0  0  0  0  0
   20.5245  -10.8918  -18.2560 C   0  0  0  0  0  0  0  0  0  0  0  0
   20.9663  -10.2213  -19.2200 O   0  0  0  0  0  0  0  0  0  0  0  0
   19.6393  -10.3258  -17.3077 N   0  0  0  0  0  0  0  0  0  0  0  0
   19.2149   -8.9507  -17.4022 C   0  0  1  0  0  0  0  0  0  0  0  0
   17.7187   -8.9281  -17.3378 C   0  0  0  0  0  0  0  0  0  0  0  0
   16.9928   -7.2929  -17.5860 S   0  0  0  0  0  0  0  0  0  0  0  0
   19.8599   -8.1766  -16.3151 C   0  0  0  0  0  0  0  0  0  0  0  0
   19.7542   -8.5880  -15.1045 O   0  0  0  0  0  0  0  0  0  0  0  0
   20.6043   -6.9952  -16.4817 N   0  0  0  0  0  0  0  0  0  0  0  0
   21.1763   -6.3321  -15.3156 C   0  0  1  0  0  0  0  0  0  0  0  0
   22.6231   -5.9466  -15.5697 C   0  0  0  0  0  0  0  0  0  0  0  0
   23.2756   -4.8393  -14.3158 S   0  0  0  0  0  0  0  0  0  0  0  0
   20.3768   -5.1375  -14.9387 C   0  0  0  0  0  0  0  0  0  0  0  0
   19.8302   -4.3809  -15.7538 O   0  0  0  0  0  0  0  0  0  0  0  0
   20.2489   -4.8735  -13.5810 O   0  0  0  0  0  0  0  0  0  0  0  0
  2  1  1  6
  2  3  1  0
  4  5  2  0
  4  2  1  0
  6  4  1  0
  7  6  1  0
  7  8  1  1
  9  8  1  0
 10  7  1  0
 10 12  1  0
 11 10  2  0
 13 12  1  0
 13 16  1  0
 13 14  1  6
 14 15  1  0
 16 18  1  0
 17 16  2  0
M  END
$$$$
