ACC.pdb
     RDKit          3D

 18 17  0  0  1  0  0  0  0  0999 V2000
   19.9738  -13.3706  -17.8713 C   0  0  0  0  0  0  0  0  0  0  0  0
   20.0696  -11.8820  -17.9370 C   0  0  2  0  0  0  0  0  0  0  0  0
   20.5600  -11.4949  -19.2461 N   0  0  0  0  0  0  0  0  0  0  0  0
   20.9546  -11.3214  -16.8579 C   0  0  0  0  0  0  0  0  0  0  0  0
   20.6320  -11.4698  -15.6546 O   0  0  0  0  0  0  0  0  0  0  0  0
   22.1369  -10.6358  -17.2258 N   0  0  0  0  0  0  0  0  0  0  0  0
   22.9533   -9.9648  -16.2444 C   0  0  1  0  0  0  0  0  0  0  0  0
   24.3790  -10.3494  -16.4951 C   0  0  0  0  0  0  0  0  0  0  0  0
   25.5781   -9.4251  -15.5100 S   0  0  0  0  0  0  0  0  0  0  0  0
   22.7143   -8.5052  -16.3425 C   0  0  0  0  0  0  0  0  0  0  0  0
   22.7426   -7.9412  -17.4944 O   0  0  0  0  0  0  0  0  0  0  0  0
   22.4485   -7.6448  -15.2624 N   0  0  0  0  0  0  0  0  0  0  0  0
   22.2650   -6.2185  -15.5041 C   0  0  1  0  0  0  0  0  0  0  0  0
   20.9447   -5.9558  -16.2072 C   0  0  0  0  0  0  0  0  0  0  0  0
   19.5281   -6.4991  -15.2470 S   0  0  0  0  0  0  0  0  0  0  0  0
   22.3413   -5.4505  -14.2342 C   0  0  0  0  0  0  0  0  0  0  0  0
   22.4756   -5.9671  -13.1159 O   0  0  0  0  0  0  0  0  0  0  0  0
   22.2541   -4.0677  -14.3334 O   0  0  0  0  0  0  0  0  0  0  0  0
  2  1  1  6
  2  3  1  0
  4  5  2  0
  4  2  1  0
  6  4  1  0
  7  6  1  0
  7  8  1  6
  9  8  1  0
 10  7  1  0
 10 12  1  0
 11 10  2  0
 13 12  1  0
 13 16  1  0
 13 14  1  1
 14 15  1  0
 16 18  1  0
 17 16  2  0
M  END
$$$$
