ACC.pdb
     RDKit          3D

 18 17  0  0  1  0  0  0  0  0999 V2000
   21.6458  -10.1410  -20.0032 C   0  0  0  0  0  0  0  0  0  0  0  0
   21.8736  -10.5498  -18.5853 C   0  0  2  0  0  0  0  0  0  0  0  0
   21.6699  -11.9810  -18.4650 N   0  0  0  0  0  0  0  0  0  0  0  0
   20.9782   -9.8100  -17.6298 C   0  0  0  0  0  0  0  0  0  0  0  0
   19.7389   -9.8004  -17.8254 O   0  0  0  0  0  0  0  0  0  0  0  0
   21.5563   -9.1381  -16.5264 N   0  0  0  0  0  0  0  0  0  0  0  0
   20.7464   -8.4104  -15.5806 C   0  0  1  0  0  0  0  0  0  0  0  0
   21.3823   -8.5491  -14.2316 C   0  0  0  0  0  0  0  0  0  0  0  0
   20.6032   -7.5537  -12.9414 S   0  0  0  0  0  0  0  0  0  0  0  0
   20.6329   -7.0034  -16.0329 C   0  0  0  0  0  0  0  0  0  0  0  0
   21.5767   -6.4926  -16.7359 O   0  0  0  0  0  0  0  0  0  0  0  0
   19.5561   -6.1406  -15.7614 N   0  0  0  0  0  0  0  0  0  0  0  0
   19.5624   -4.7864  -16.3022 C   0  0  1  0  0  0  0  0  0  0  0  0
   19.5057   -4.8110  -17.8197 C   0  0  0  0  0  0  0  0  0  0  0  0
   19.3188   -3.1738  -18.5329 S   0  0  0  0  0  0  0  0  0  0  0  0
   18.4357   -3.9893  -15.7513 C   0  0  0  0  0  0  0  0  0  0  0  0
   18.4997   -2.7783  -15.4963 O   0  0  0  0  0  0  0  0  0  0  0  0
   17.2464   -4.6672  -15.5159 O   0  0  0  0  0  0  0  0  0  0  0  0
  2  1  1  6
  2  3  1  0
  4  5  2  0
  4  2  1  0
  6  4  1  0
  7  6  1  0
  7  8  1  1
  9  8  1  0
 10  7  1  0
 10 12  1  0
 11 10  2  0
 13 12  1  0
 13 16  1  0
 13 14  1  6
 14 15  1  0
 16 18  1  0
 17 16  2  0
M  END
$$$$
