ACC.pdb
     RDKit          3D

 18 17  0  0  1  0  0  0  0  0999 V2000
   18.2666  -12.4194  -17.8569 C   0  0  0  0  0  0  0  0  0  0  0  0
   19.4437  -11.8599  -17.1285 C   0  0  2  0  0  0  0  0  0  0  0  0
   19.8383  -12.7840  -16.0824 N   0  0  0  0  0  0  0  0  0  0  0  0
   19.1601  -10.5012  -16.5491 C   0  0  0  0  0  0  0  0  0  0  0  0
   18.9027   -9.5431  -17.3172 O   0  0  0  0  0  0  0  0  0  0  0  0
   19.1900  -10.3332  -15.1441 N   0  0  0  0  0  0  0  0  0  0  0  0
   18.8758   -9.0659  -14.5315 C   0  0  1  0  0  0  0  0  0  0  0  0
   18.1987   -9.3447  -13.2249 C   0  0  0  0  0  0  0  0  0  0  0  0
   16.4151   -9.5982  -13.3562 S   0  0  0  0  0  0  0  0  0  0  0  0
   20.1259   -8.2825  -14.3880 C   0  0  0  0  0  0  0  0  0  0  0  0
   21.1854   -8.8651  -13.9591 O   0  0  0  0  0  0  0  0  0  0  0  0
   20.2747   -6.9163  -14.6864 N   0  0  0  0  0  0  0  0  0  0  0  0
   21.5892   -6.2937  -14.5817 C   0  0  1  0  0  0  0  0  0  0  0  0
   22.0906   -5.8587  -15.9477 C   0  0  0  0  0  0  0  0  0  0  0  0
   23.5638   -4.8365  -15.8518 S   0  0  0  0  0  0  0  0  0  0  0  0
   21.5570   -5.1395  -13.6462 C   0  0  0  0  0  0  0  0  0  0  0  0
   20.6085   -4.3479  -13.5505 O   0  0  0  0  0  0  0  0  0  0  0  0
   22.6726   -4.9577  -12.8388 O   0  0  0  0  0  0  0  0  0  0  0  0
  2  1  1  1
  2  3  1  0
  4  5  2  0
  4  2  1  0
  6  4  1  0
  7  6  1  0
  7  8  1  1
  9  8  1  0
 10  7  1  0
 10 12  1  0
 11 10  2  0
 13 12  1  0
 13 16  1  0
 13 14  1  6
 14 15  1  0
 16 18  1  0
 17 16  2  0
M  END
$$$$
