ACC.pdb
     RDKit          3D

 18 17  0  0  1  0  0  0  0  0999 V2000
   23.0467  -19.9636  -15.9510 C   0  0  0  0  0  0  0  0  0  0  0  0
   24.5079  -19.7526  -15.7284 C   0  0  2  0  0  0  0  0  0  0  0  0
   25.2307  -20.1308  -16.9279 N   0  0  0  0  0  0  0  0  0  0  0  0
   25.0192  -20.5236  -14.5425 C   0  0  0  0  0  0  0  0  0  0  0  0
   24.3861  -21.5287  -14.1390 O   0  0  0  0  0  0  0  0  0  0  0  0
   26.2085  -20.0959  -13.9054 N   0  0  0  0  0  0  0  0  0  0  0  0
   26.7696  -20.8235  -12.7938 C   0  0  1  0  0  0  0  0  0  0  0  0
   28.2575  -20.6596  -12.8440 C   0  0  0  0  0  0  0  0  0  0  0  0
   29.1167  -21.2541  -11.3706 S   0  0  0  0  0  0  0  0  0  0  0  0
   26.1664  -20.3162  -11.5385 C   0  0  0  0  0  0  0  0  0  0  0  0
   25.9987  -19.0531  -11.3890 O   0  0  0  0  0  0  0  0  0  0  0  0
   25.7423  -21.1074  -10.4559 N   0  0  0  0  0  0  0  0  0  0  0  0
   25.4438  -20.4775   -9.1751 C   0  0  1  0  0  0  0  0  0  0  0  0
   24.6256  -21.4061   -8.2948 C   0  0  0  0  0  0  0  0  0  0  0  0
   24.3789  -20.7536   -6.6402 S   0  0  0  0  0  0  0  0  0  0  0  0
   26.6922  -20.0672   -8.4813 C   0  0  0  0  0  0  0  0  0  0  0  0
   27.7321  -20.7409   -8.4642 O   0  0  0  0  0  0  0  0  0  0  0  0
   26.6667  -18.8474   -7.8173 O   0  0  0  0  0  0  0  0  0  0  0  0
  2  1  1  6
  2  3  1  0
  4  5  2  0
  4  2  1  0
  6  4  1  0
  7  6  1  0
  7  8  1  1
  9  8  1  0
 10  7  1  0
 10 12  1  0
 11 10  2  0
 13 12  1  0
 13 16  1  0
 13 14  1  1
 14 15  1  0
 16 18  1  0
 17 16  2  0
M  END
$$$$
