ACC.pdb
     RDKit          3D

 18 17  0  0  1  0  0  0  0  0999 V2000
   21.0658  -13.7828  -18.6728 C   0  0  0  0  0  0  0  0  0  0  0  0
   20.9835  -12.2923  -18.6391 C   0  0  2  0  0  0  0  0  0  0  0  0
   21.5705  -11.7565  -19.8525 N   0  0  0  0  0  0  0  0  0  0  0  0
   21.6614  -11.7131  -17.4278 C   0  0  0  0  0  0  0  0  0  0  0  0
   21.2620  -12.0349  -16.2828 O   0  0  0  0  0  0  0  0  0  0  0  0
   22.7394  -10.8139  -17.6077 N   0  0  0  0  0  0  0  0  0  0  0  0
   23.3374  -10.1239  -16.4913 C   0  0  1  0  0  0  0  0  0  0  0  0
   24.8230  -10.2830  -16.5976 C   0  0  0  0  0  0  0  0  0  0  0  0
   25.7611   -9.2424  -15.4576 S   0  0  0  0  0  0  0  0  0  0  0  0
   22.8967   -8.7089  -16.5136 C   0  0  0  0  0  0  0  0  0  0  0  0
   23.1128   -8.0011  -17.5616 O   0  0  0  0  0  0  0  0  0  0  0  0
   22.2404   -8.0393  -15.4654 N   0  0  0  0  0  0  0  0  0  0  0  0
   21.8944   -6.6305  -15.6139 C   0  0  1  0  0  0  0  0  0  0  0  0
   20.3952   -6.4581  -15.7850 C   0  0  0  0  0  0  0  0  0  0  0  0
   19.6976   -7.6043  -16.9782 S   0  0  0  0  0  0  0  0  0  0  0  0
   22.3811   -5.8390  -14.4541 C   0  0  0  0  0  0  0  0  0  0  0  0
   22.9544   -6.3275  -13.4701 O   0  0  0  0  0  0  0  0  0  0  0  0
   22.1683   -4.4671  -14.4996 O   0  0  0  0  0  0  0  0  0  0  0  0
  2  1  1  6
  2  3  1  0
  4  5  2  0
  4  2  1  0
  6  4  1  0
  7  6  1  0
  7  8  1  6
  9  8  1  0
 10  7  1  0
 10 12  1  0
 11 10  2  0
 13 12  1  0
 13 16  1  0
 13 14  1  1
 14 15  1  0
 16 18  1  0
 17 16  2  0
M  END
$$$$
