ACC.pdb
     RDKit          3D

 18 17  0  0  1  0  0  0  0  0999 V2000
   20.6464  -11.4815  -15.7175 C   0  0  0  0  0  0  0  0  0  0  0  0
   20.1751  -10.1955  -16.3120 C   0  0  2  0  0  0  0  0  0  0  0  0
   21.0102   -9.8642  -17.4509 N   0  0  0  0  0  0  0  0  0  0  0  0
   20.1806   -9.0717  -15.3125 C   0  0  0  0  0  0  0  0  0  0  0  0
   19.5287   -9.1888  -14.2469 O   0  0  0  0  0  0  0  0  0  0  0  0
   20.9245   -7.9018  -15.5975 N   0  0  0  0  0  0  0  0  0  0  0  0
   20.9126   -6.7674  -14.7070 C   0  0  1  0  0  0  0  0  0  0  0  0
   22.3314   -6.3361  -14.4964 C   0  0  0  0  0  0  0  0  0  0  0  0
   22.5034   -4.7271  -13.6940 S   0  0  0  0  0  0  0  0  0  0  0  0
   20.0594   -5.7079  -15.2957 C   0  0  0  0  0  0  0  0  0  0  0  0
   20.1066   -5.4950  -16.5600 O   0  0  0  0  0  0  0  0  0  0  0  0
   19.1701   -4.8833  -14.5839 N   0  0  0  0  0  0  0  0  0  0  0  0
   18.4335   -3.8397  -15.2873 C   0  0  1  0  0  0  0  0  0  0  0  0
   16.9854   -4.2475  -15.4949 C   0  0  0  0  0  0  0  0  0  0  0  0
   15.9547   -2.8861  -16.0504 S   0  0  0  0  0  0  0  0  0  0  0  0
   18.5118   -2.5489  -14.5552 C   0  0  0  0  0  0  0  0  0  0  0  0
   18.7382   -2.4506  -13.3408 O   0  0  0  0  0  0  0  0  0  0  0  0
   18.3153   -1.3938  -15.3013 O   0  0  0  0  0  0  0  0  0  0  0  0
  2  1  1  1
  2  3  1  0
  4  5  2  0
  4  2  1  0
  6  4  1  0
  7  6  1  0
  7  8  1  6
  9  8  1  0
 10  7  1  0
 10 12  1  0
 11 10  2  0
 13 12  1  0
 13 16  1  0
 13 14  1  1
 14 15  1  0
 16 18  1  0
 17 16  2  0
M  END
$$$$
