SHM.pdb
     RDKit          3D

 25 25  0  0  1  0  0  0  0  0999 V2000
   26.5975  -25.8003  -16.4869 O   0  0  0  0  0  0  0  0  0  0  0  0
   27.2818  -25.3986  -17.6325 C   0  0  0  0  0  0  0  0  0  0  0  0
   28.4886  -24.5361  -17.2553 C   0  0  2  0  0  0  0  0  0  0  0  0
   29.4382  -25.3170  -16.5303 N   0  0  0  0  0  0  0  0  0  0  0  0
   28.0719  -23.3023  -16.5661 C   0  0  0  0  0  0  0  0  0  0  0  0
   28.4910  -23.0747  -15.4014 O   0  0  0  0  0  0  0  0  0  0  0  0
   27.2109  -22.3240  -17.1295 N   0  0  0  0  0  0  0  0  0  0  0  0
   26.9186  -21.0496  -16.5205 C   0  0  1  0  0  0  0  0  0  0  0  0
   26.2709  -20.0785  -17.4647 C   0  0  0  0  0  0  0  0  0  0  0  0
   27.2467  -19.3359  -18.2881 C   0  0  0  0  0  0  0  0  0  0  0  0
   28.6215  -19.3498  -18.2610 C   0  0  0  0  0  0  0  0  0  0  0  0
   29.1133  -18.5161  -19.1902 N   0  0  0  0  0  0  0  0  0  0  0  0
   28.0513  -17.9737  -19.8065 C   0  0  0  0  0  0  0  0  0  0  0  0
   26.9251  -18.4672  -19.2633 N   0  0  0  0  0  0  0  0  0  0  0  0
   25.9662  -21.2904  -15.4020 C   0  0  0  0  0  0  0  0  0  0  0  0
   25.0871  -22.1914  -15.4334 O   0  0  0  0  0  0  0  0  0  0  0  0
   26.7260  -21.5926   -9.3327 C   0  0  0  0  0  0  0  0  0  0  0  0
   25.7281  -20.1314   -9.2959 S   0  0  0  0  0  0  0  0  0  0  0  0
   24.7636  -19.8248  -10.7490 C   0  0  0  0  0  0  0  0  0  0  0  0
   25.5724  -19.8196  -11.9884 C   0  0  0  0  0  0  0  0  0  0  0  0
   25.1480  -20.7610  -13.0664 C   0  0  2  0  0  0  0  0  0  0  0  0
   26.0155  -20.4913  -14.2270 N   0  0  0  0  0  0  0  0  0  0  0  0
   23.7699  -20.4295  -13.5515 C   0  0  0  0  0  0  0  0  0  0  0  0
   22.6805  -21.2471  -13.2082 O   0  0  0  0  0  0  0  0  0  0  0  0
   23.5171  -19.4396  -14.2659 O   0  0  0  0  0  0  0  0  0  0  0  0
  2  1  1  0
  2  3  1  0
  3  4  1  1
  5  3  1  0
  5  6  2  0
  7  5  1  0
  8  7  1  0
  8  9  1  6
 10 14  1  0
 10  9  1  0
 11 10  2  0
 12 11  1  0
 12 13  1  0
 13 14  2  0
 15  8  1  0
 16 15  2  0
 18 17  1  0
 19 18  1  0
 20 19  1  0
 21 20  1  1
 21 22  1  0
 22 15  1  0
 23 21  1  0
 24 23  1  0
 25 23  2  0
M  END
$$$$
