SHM.pdb
     RDKit          3D

 25 25  0  0  1  0  0  0  0  0999 V2000
   16.1882  -13.5591  -13.6576 O   0  0  0  0  0  0  0  0  0  0  0  0
   15.7169  -12.5247  -14.4638 C   0  0  0  0  0  0  0  0  0  0  0  0
   16.0093  -12.8235  -15.9361 C   0  0  2  0  0  0  0  0  0  0  0  0
   16.2451  -14.2200  -16.1126 N   0  0  0  0  0  0  0  0  0  0  0  0
   17.0850  -11.9608  -16.4553 C   0  0  0  0  0  0  0  0  0  0  0  0
   18.2060  -12.4663  -16.7230 O   0  0  0  0  0  0  0  0  0  0  0  0
   16.9510  -10.5658  -16.6830 N   0  0  0  0  0  0  0  0  0  0  0  0
   17.9683   -9.7379  -17.2829 C   0  0  1  0  0  0  0  0  0  0  0  0
   17.4258   -8.4656  -17.8671 C   0  0  0  0  0  0  0  0  0  0  0  0
   18.4516   -7.6716  -18.5737 C   0  0  0  0  0  0  0  0  0  0  0  0
   19.1004   -7.9177  -19.7608 C   0  0  0  0  0  0  0  0  0  0  0  0
   19.9624   -6.9263  -20.0336 N   0  0  0  0  0  0  0  0  0  0  0  0
   19.8606   -6.0519  -19.0204 C   0  0  0  0  0  0  0  0  0  0  0  0
   18.9498   -6.5002  -18.1393 N   0  0  0  0  0  0  0  0  0  0  0  0
   18.9354   -9.3640  -16.2147 C   0  0  0  0  0  0  0  0  0  0  0  0
   18.6157   -9.2835  -14.9994 O   0  0  0  0  0  0  0  0  0  0  0  0
   26.4949  -10.4160  -14.4870 C   0  0  0  0  0  0  0  0  0  0  0  0
   25.0244  -10.5570  -15.4618 S   0  0  0  0  0  0  0  0  0  0  0  0
   23.7011   -9.4683  -15.0152 C   0  0  0  0  0  0  0  0  0  0  0  0
   22.4908   -9.6596  -15.8452 C   0  0  0  0  0  0  0  0  0  0  0  0
   21.3012   -8.8299  -15.4919 C   0  0  2  0  0  0  0  0  0  0  0  0
   20.2904   -9.0766  -16.5357 N   0  0  0  0  0  0  0  0  0  0  0  0
   21.6129   -7.3700  -15.6186 C   0  0  0  0  0  0  0  0  0  0  0  0
   21.5143   -6.7285  -16.8643 O   0  0  0  0  0  0  0  0  0  0  0  0
   21.9669   -6.6613  -14.6560 O   0  0  0  0  0  0  0  0  0  0  0  0
  2  1  1  0
  2  3  1  0
  3  4  1  1
  5  3  1  0
  5  6  2  0
  7  5  1  0
  8  7  1  0
  8  9  1  1
 10 14  1  0
 10  9  1  0
 11 10  2  0
 12 11  1  0
 12 13  1  0
 13 14  2  0
 15  8  1  0
 16 15  2  0
 18 17  1  0
 19 18  1  0
 20 19  1  0
 21 20  1  6
 21 22  1  0
 22 15  1  0
 23 21  1  0
 24 23  1  0
 25 23  2  0
M  END
$$$$
