SHM.pdb
     RDKit          3D

 25 25  0  0  1  0  0  0  0  0999 V2000
   18.5468  -13.7198  -15.1333 O   0  0  0  0  0  0  0  0  0  0  0  0
   19.0883  -12.4429  -15.2692 C   0  0  0  0  0  0  0  0  0  0  0  0
   18.3791  -11.6820  -16.3920 C   0  0  2  0  0  0  0  0  0  0  0  0
   18.6118  -12.3297  -17.6423 N   0  0  0  0  0  0  0  0  0  0  0  0
   18.7347  -10.2523  -16.3790 C   0  0  0  0  0  0  0  0  0  0  0  0
   19.6826   -9.8458  -17.1001 O   0  0  0  0  0  0  0  0  0  0  0  0
   18.0726   -9.2712  -15.5947 N   0  0  0  0  0  0  0  0  0  0  0  0
   18.4209   -7.8716  -15.5785 C   0  0  1  0  0  0  0  0  0  0  0  0
   17.3508   -7.0035  -14.9822 C   0  0  0  0  0  0  0  0  0  0  0  0
   16.1833   -6.8340  -15.8711 C   0  0  0  0  0  0  0  0  0  0  0  0
   16.0105   -7.1972  -17.1860 C   0  0  0  0  0  0  0  0  0  0  0  0
   14.7844   -6.8508  -17.6067 N   0  0  0  0  0  0  0  0  0  0  0  0
   14.1796   -6.2683  -16.5595 C   0  0  0  0  0  0  0  0  0  0  0  0
   15.0223   -6.2576  -15.5122 N   0  0  0  0  0  0  0  0  0  0  0  0
   19.6412   -7.7186  -14.7398 C   0  0  0  0  0  0  0  0  0  0  0  0
   19.8610   -8.4193  -13.7168 O   0  0  0  0  0  0  0  0  0  0  0  0
   26.4138  -10.0340  -14.5728 C   0  0  0  0  0  0  0  0  0  0  0  0
   24.7279   -9.7448  -15.0268 S   0  0  0  0  0  0  0  0  0  0  0  0
   24.0690   -8.1676  -14.5641 C   0  0  0  0  0  0  0  0  0  0  0  0
   22.6467   -8.0035  -14.9387 C   0  0  0  0  0  0  0  0  0  0  0  0
   21.9680   -6.7645  -14.4563 C   0  0  2  0  0  0  0  0  0  0  0  0
   20.6287   -6.7509  -15.0714 N   0  0  0  0  0  0  0  0  0  0  0  0
   22.6378   -5.5418  -15.0050 C   0  0  0  0  0  0  0  0  0  0  0  0
   23.6518   -4.8998  -14.2751 O   0  0  0  0  0  0  0  0  0  0  0  0
   22.3436   -5.0383  -16.1069 O   0  0  0  0  0  0  0  0  0  0  0  0
  2  1  1  0
  2  3  1  0
  3  4  1  6
  5  3  1  0
  5  6  2  0
  7  5  1  0
  8  7  1  0
  8  9  1  1
 10 14  1  0
 10  9  1  0
 11 10  2  0
 12 11  1  0
 12 13  1  0
 13 14  2  0
 15  8  1  0
 16 15  2  0
 18 17  1  0
 19 18  1  0
 20 19  1  0
 21 20  1  6
 21 22  1  0
 22 15  1  0
 23 21  1  0
 24 23  1  0
 25 23  2  0
M  END
$$$$
