SHM.pdb
     RDKit          3D

 25 25  0  0  1  0  0  0  0  0999 V2000
   19.8728  -14.1546  -15.4725 O   0  0  0  0  0  0  0  0  0  0  0  0
   20.0845  -12.8870  -16.0113 C   0  0  0  0  0  0  0  0  0  0  0  0
   18.7595  -12.1292  -16.1228 C   0  0  2  0  0  0  0  0  0  0  0  0
   17.9124  -12.7666  -17.0784 N   0  0  0  0  0  0  0  0  0  0  0  0
   18.9812  -10.6949  -16.3766 C   0  0  0  0  0  0  0  0  0  0  0  0
   19.3479  -10.3205  -17.5208 O   0  0  0  0  0  0  0  0  0  0  0  0
   18.8087   -9.6751  -15.4039 N   0  0  0  0  0  0  0  0  0  0  0  0
   18.9506   -8.2647  -15.6698 C   0  0  1  0  0  0  0  0  0  0  0  0
   17.8816   -7.4313  -15.0241 C   0  0  0  0  0  0  0  0  0  0  0  0
   16.5835   -7.5146  -15.7238 C   0  0  0  0  0  0  0  0  0  0  0  0
   16.2584   -8.1083  -16.9208 C   0  0  0  0  0  0  0  0  0  0  0  0
   14.9527   -7.9437  -17.1820 N   0  0  0  0  0  0  0  0  0  0  0  0
   14.4496   -7.2461  -16.1515 C   0  0  0  0  0  0  0  0  0  0  0  0
   15.4321   -6.9867  -15.2715 N   0  0  0  0  0  0  0  0  0  0  0  0
   20.2589   -7.8280  -15.1097 C   0  0  0  0  0  0  0  0  0  0  0  0
   20.6915   -8.2211  -13.9943 O   0  0  0  0  0  0  0  0  0  0  0  0
   26.8939   -3.9779  -17.2703 C   0  0  0  0  0  0  0  0  0  0  0  0
   25.3737   -4.8337  -17.5678 S   0  0  0  0  0  0  0  0  0  0  0  0
   24.4413   -5.2644  -16.1252 C   0  0  0  0  0  0  0  0  0  0  0  0
   23.1787   -5.9682  -16.4424 C   0  0  0  0  0  0  0  0  0  0  0  0
   22.3642   -6.4341  -15.2814 C   0  0  2  0  0  0  0  0  0  0  0  0
   21.0894   -6.9279  -15.8320 N   0  0  0  0  0  0  0  0  0  0  0  0
   21.9676   -5.2807  -14.4114 C   0  0  0  0  0  0  0  0  0  0  0  0
   22.7343   -4.9460  -13.2829 O   0  0  0  0  0  0  0  0  0  0  0  0
   20.9654   -4.5725  -14.6311 O   0  0  0  0  0  0  0  0  0  0  0  0
  2  1  1  0
  2  3  1  0
  3  4  1  6
  5  3  1  0
  5  6  2  0
  7  5  1  0
  8  7  1  0
  8  9  1  1
 10 14  1  0
 10  9  1  0
 11 10  2  0
 12 11  1  0
 12 13  1  0
 13 14  2  0
 15  8  1  0
 16 15  2  0
 18 17  1  0
 19 18  1  0
 20 19  1  0
 21 20  1  6
 21 22  1  0
 22 15  1  0
 23 21  1  0
 24 23  1  0
 25 23  2  0
M  END
$$$$
