SHM.pdb
     RDKit          3D

 25 25  0  0  1  0  0  0  0  0999 V2000
   19.0975  -26.3359   -9.5265 O   0  0  0  0  0  0  0  0  0  0  0  0
   19.1097  -25.9305   -8.1932 C   0  0  0  0  0  0  0  0  0  0  0  0
   18.0587  -24.8428   -7.9591 C   0  0  2  0  0  0  0  0  0  0  0  0
   18.5782  -23.5715   -8.3473 N   0  0  0  0  0  0  0  0  0  0  0  0
   17.5396  -24.8860   -6.5809 C   0  0  0  0  0  0  0  0  0  0  0  0
   18.1028  -24.2009   -5.6879 O   0  0  0  0  0  0  0  0  0  0  0  0
   16.4230  -25.6615   -6.1714 N   0  0  0  0  0  0  0  0  0  0  0  0
   15.9553  -25.7592   -4.8104 C   0  0  1  0  0  0  0  0  0  0  0  0
   14.6091  -26.4135   -4.6940 C   0  0  0  0  0  0  0  0  0  0  0  0
   14.1029  -26.4496   -3.3068 C   0  0  0  0  0  0  0  0  0  0  0  0
   14.6861  -26.0166   -2.1392 C   0  0  0  0  0  0  0  0  0  0  0  0
   13.8694  -26.2444   -1.0993 N   0  0  0  0  0  0  0  0  0  0  0  0
   12.7689  -26.8216   -1.6067 C   0  0  0  0  0  0  0  0  0  0  0  0
   12.9085  -26.9459   -2.9379 N   0  0  0  0  0  0  0  0  0  0  0  0
   16.9278  -26.5973   -4.0568 C   0  0  0  0  0  0  0  0  0  0  0  0
   18.0177  -26.9915   -4.5493 O   0  0  0  0  0  0  0  0  0  0  0  0
   21.9646  -25.6794    1.0626 C   0  0  0  0  0  0  0  0  0  0  0  0
   20.8113  -25.4627   -0.2624 S   0  0  0  0  0  0  0  0  0  0  0  0
   19.5870  -26.7313   -0.4282 C   0  0  0  0  0  0  0  0  0  0  0  0
   18.6973  -26.5265   -1.5930 C   0  0  0  0  0  0  0  0  0  0  0  0
   17.6899  -27.5954   -1.8596 C   0  0  2  0  0  0  0  0  0  0  0  0
   16.6546  -26.9938   -2.7190 N   0  0  0  0  0  0  0  0  0  0  0  0
   16.9588  -27.9638   -0.6049 C   0  0  0  0  0  0  0  0  0  0  0  0
   16.1482  -27.0202    0.0476 O   0  0  0  0  0  0  0  0  0  0  0  0
   17.0249  -29.0939   -0.0828 O   0  0  0  0  0  0  0  0  0  0  0  0
  2  1  1  0
  2  3  1  0
  3  4  1  1
  5  3  1  0
  5  6  2  0
  7  5  1  0
  8  7  1  0
  8  9  1  6
 10 14  1  0
 10  9  1  0
 11 10  2  0
 12 11  1  0
 12 13  1  0
 13 14  2  0
 15  8  1  0
 16 15  2  0
 18 17  1  0
 19 18  1  0
 20 19  1  0
 21 20  1  1
 21 22  1  0
 22 15  1  0
 23 21  1  0
 24 23  1  0
 25 23  2  0
M  END
$$$$
