SHM.pdb
     RDKit          3D

 25 25  0  0  1  0  0  0  0  0999 V2000
   22.5046  -19.6273  -21.5259 O   0  0  0  0  0  0  0  0  0  0  0  0
   23.7164  -18.9391  -21.5155 C   0  0  0  0  0  0  0  0  0  0  0  0
   24.7735  -19.7369  -20.7484 C   0  0  2  0  0  0  0  0  0  0  0  0
   25.1195  -20.9143  -21.4770 N   0  0  0  0  0  0  0  0  0  0  0  0
   24.3514  -19.9903  -19.3597 C   0  0  0  0  0  0  0  0  0  0  0  0
   24.2266  -21.1770  -18.9597 O   0  0  0  0  0  0  0  0  0  0  0  0
   24.0669  -18.9717  -18.4124 N   0  0  0  0  0  0  0  0  0  0  0  0
   23.7744  -19.2134  -17.0208 C   0  0  1  0  0  0  0  0  0  0  0  0
   24.6851  -18.4688  -16.0879 C   0  0  0  0  0  0  0  0  0  0  0  0
   26.0638  -18.9988  -16.0819 C   0  0  0  0  0  0  0  0  0  0  0  0
   26.6104  -20.0545  -16.7731 C   0  0  0  0  0  0  0  0  0  0  0  0
   27.9099  -20.1878  -16.4668 N   0  0  0  0  0  0  0  0  0  0  0  0
   28.1877  -19.2174  -15.5819 C   0  0  0  0  0  0  0  0  0  0  0  0
   27.0752  -18.4998  -15.3490 N   0  0  0  0  0  0  0  0  0  0  0  0
   22.3859  -18.7432  -16.7619 C   0  0  0  0  0  0  0  0  0  0  0  0
   21.9292  -17.6668  -17.2294 O   0  0  0  0  0  0  0  0  0  0  0  0
   18.0146  -23.0113  -13.9990 C   0  0  0  0  0  0  0  0  0  0  0  0
   17.1251  -21.9267  -15.0783 S   0  0  0  0  0  0  0  0  0  0  0  0
   17.8849  -20.3566  -15.3838 C   0  0  0  0  0  0  0  0  0  0  0  0
   19.3524  -20.4481  -15.5521 C   0  0  0  0  0  0  0  0  0  0  0  0
   20.0739  -19.1701  -15.8251 C   0  0  2  0  0  0  0  0  0  0  0  0
   21.5016  -19.5121  -15.9566 N   0  0  0  0  0  0  0  0  0  0  0  0
   20.0206  -18.2629  -14.6341 C   0  0  0  0  0  0  0  0  0  0  0  0
   18.9636  -17.3501  -14.4836 O   0  0  0  0  0  0  0  0  0  0  0  0
   20.8841  -18.2649  -13.7349 O   0  0  0  0  0  0  0  0  0  0  0  0
  2  1  1  0
  2  3  1  0
  3  4  1  6
  5  3  1  0
  5  6  2  0
  7  5  1  0
  8  7  1  0
  8  9  1  1
 10 14  1  0
 10  9  1  0
 11 10  2  0
 12 11  1  0
 12 13  1  0
 13 14  2  0
 15  8  1  0
 16 15  2  0
 18 17  1  0
 19 18  1  0
 20 19  1  0
 21 20  1  1
 21 22  1  0
 22 15  1  0
 23 21  1  0
 24 23  1  0
 25 23  2  0
M  END
$$$$
