SHM.pdb
     RDKit          3D

 25 25  0  0  1  0  0  0  0  0999 V2000
   24.8626  -10.6164  -19.1589 O   0  0  0  0  0  0  0  0  0  0  0  0
   23.6719   -9.8992  -19.0594 C   0  0  0  0  0  0  0  0  0  0  0  0
   22.6363  -10.6971  -18.2636 C   0  0  2  0  0  0  0  0  0  0  0  0
   22.0562  -11.7048  -19.0912 N   0  0  0  0  0  0  0  0  0  0  0  0
   21.6539   -9.8081  -17.6189 C   0  0  0  0  0  0  0  0  0  0  0  0
   20.6515   -9.4192  -18.2729 O   0  0  0  0  0  0  0  0  0  0  0  0
   21.7535   -9.3440  -16.2808 N   0  0  0  0  0  0  0  0  0  0  0  0
   20.8436   -8.4019  -15.6765 C   0  0  1  0  0  0  0  0  0  0  0  0
   20.1673   -8.9387  -14.4482 C   0  0  0  0  0  0  0  0  0  0  0  0
   19.0316   -9.8309  -14.7580 C   0  0  0  0  0  0  0  0  0  0  0  0
   18.4485  -10.1366  -15.9653 C   0  0  0  0  0  0  0  0  0  0  0  0
   17.4356  -10.9983  -15.7873 N   0  0  0  0  0  0  0  0  0  0  0  0
   17.3760  -11.2392  -14.4682 C   0  0  0  0  0  0  0  0  0  0  0  0
   18.3380  -10.5358  -13.8464 N   0  0  0  0  0  0  0  0  0  0  0  0
   21.6336   -7.2083  -15.2677 C   0  0  0  0  0  0  0  0  0  0  0  0
   22.8062   -7.2855  -14.8153 O   0  0  0  0  0  0  0  0  0  0  0  0
   24.4324   -1.5862  -18.1840 C   0  0  0  0  0  0  0  0  0  0  0  0
   22.7879   -1.6387  -17.5320 S   0  0  0  0  0  0  0  0  0  0  0  0
   22.5941   -2.5245  -16.0110 C   0  0  0  0  0  0  0  0  0  0  0  0
   21.9300   -3.8354  -16.1867 C   0  0  0  0  0  0  0  0  0  0  0  0
   21.8332   -4.7023  -14.9753 C   0  0  2  0  0  0  0  0  0  0  0  0
   21.0789   -5.9035  -15.3760 N   0  0  0  0  0  0  0  0  0  0  0  0
   20.9753   -4.0610  -13.9279 C   0  0  0  0  0  0  0  0  0  0  0  0
   21.5178   -3.1047  -13.0536 O   0  0  0  0  0  0  0  0  0  0  0  0
   19.7676   -4.3299  -13.7756 O   0  0  0  0  0  0  0  0  0  0  0  0
  2  1  1  0
  2  3  1  0
  3  4  1  6
  5  3  1  0
  5  6  2  0
  7  5  1  0
  8  7  1  0
  8  9  1  1
 10 14  1  0
 10  9  1  0
 11 10  2  0
 12 11  1  0
 12 13  1  0
 13 14  2  0
 15  8  1  0
 16 15  2  0
 18 17  1  0
 19 18  1  0
 20 19  1  0
 21 20  1  6
 21 22  1  0
 22 15  1  0
 23 21  1  0
 24 23  1  0
 25 23  2  0
M  END
$$$$
