SHM.pdb
     RDKit          3D

 25 25  0  0  1  0  0  0  0  0999 V2000
   27.9193  -25.6290  -18.3415 O   0  0  0  0  0  0  0  0  0  0  0  0
   27.6060  -24.7030  -17.3483 C   0  0  0  0  0  0  0  0  0  0  0  0
   28.5402  -23.4939  -17.4358 C   0  0  2  0  0  0  0  0  0  0  0  0
   29.8938  -23.9097  -17.2568 N   0  0  0  0  0  0  0  0  0  0  0  0
   28.1144  -22.4195  -16.5218 C   0  0  0  0  0  0  0  0  0  0  0  0
   28.5724  -22.3890  -15.3500 O   0  0  0  0  0  0  0  0  0  0  0  0
   27.2028  -21.3883  -16.8703 N   0  0  0  0  0  0  0  0  0  0  0  0
   26.7992  -20.3251  -15.9832 C   0  0  1  0  0  0  0  0  0  0  0  0
   26.2702  -19.1207  -16.7071 C   0  0  0  0  0  0  0  0  0  0  0  0
   27.3393  -18.2386  -17.2177 C   0  0  0  0  0  0  0  0  0  0  0  0
   28.7009  -18.2998  -17.0360 C   0  0  0  0  0  0  0  0  0  0  0  0
   29.3022  -17.2902  -17.6837 N   0  0  0  0  0  0  0  0  0  0  0  0
   28.3228  -16.5890  -18.2760 C   0  0  0  0  0  0  0  0  0  0  0  0
   27.1386  -17.1600  -17.9957 N   0  0  0  0  0  0  0  0  0  0  0  0
   25.7036  -20.8467  -15.1208 C   0  0  0  0  0  0  0  0  0  0  0  0
   24.8653  -21.6979  -15.5189 O   0  0  0  0  0  0  0  0  0  0  0  0
   26.5843  -20.2405   -8.7809 C   0  0  0  0  0  0  0  0  0  0  0  0
   24.9585  -20.9398   -8.7722 S   0  0  0  0  0  0  0  0  0  0  0  0
   24.2188  -21.1804  -10.3631 C   0  0  0  0  0  0  0  0  0  0  0  0
   25.0991  -20.7651  -11.4779 C   0  0  0  0  0  0  0  0  0  0  0  0
   24.5775  -20.9878  -12.8588 C   0  0  2  0  0  0  0  0  0  0  0  0
   25.5598  -20.3913  -13.7816 N   0  0  0  0  0  0  0  0  0  0  0  0
   23.3267  -20.1962  -13.0902 C   0  0  0  0  0  0  0  0  0  0  0  0
   22.0711  -20.7473  -12.7854 O   0  0  0  0  0  0  0  0  0  0  0  0
   23.3270  -19.0384  -13.5524 O   0  0  0  0  0  0  0  0  0  0  0  0
  2  1  1  0
  2  3  1  0
  3  4  1  1
  5  3  1  0
  5  6  2  0
  7  5  1  0
  8  7  1  0
  8  9  1  6
 10 14  1  0
 10  9  1  0
 11 10  2  0
 12 11  1  0
 12 13  1  0
 13 14  2  0
 15  8  1  0
 16 15  2  0
 18 17  1  0
 19 18  1  0
 20 19  1  0
 21 20  1  1
 21 22  1  0
 22 15  1  0
 23 21  1  0
 24 23  1  0
 25 23  2  0
M  END
$$$$
