SHM.pdb
     RDKit          3D

 25 25  0  0  1  0  0  0  0  0999 V2000
   26.8188   -9.9978  -19.7008 O   0  0  0  0  0  0  0  0  0  0  0  0
   25.6497   -9.3491  -19.3078 C   0  0  0  0  0  0  0  0  0  0  0  0
   24.6053  -10.3689  -18.8478 C   0  0  2  0  0  0  0  0  0  0  0  0
   24.1781  -11.1622  -19.9546 N   0  0  0  0  0  0  0  0  0  0  0  0
   23.5062   -9.7176  -18.1138 C   0  0  0  0  0  0  0  0  0  0  0  0
   22.6071   -9.1155  -18.7564 O   0  0  0  0  0  0  0  0  0  0  0  0
   23.3798   -9.7166  -16.6996 N   0  0  0  0  0  0  0  0  0  0  0  0
   22.2824   -9.1167  -15.9813 C   0  0  1  0  0  0  0  0  0  0  0  0
   22.1134   -9.6665  -14.5944 C   0  0  0  0  0  0  0  0  0  0  0  0
   20.9166   -9.1403  -13.9069 C   0  0  0  0  0  0  0  0  0  0  0  0
   19.9509   -8.2682  -14.3515 C   0  0  0  0  0  0  0  0  0  0  0  0
   19.0359   -8.0596  -13.3926 N   0  0  0  0  0  0  0  0  0  0  0  0
   19.4207   -8.7989  -12.3403 C   0  0  0  0  0  0  0  0  0  0  0  0
   20.5548   -9.4510  -12.6493 N   0  0  0  0  0  0  0  0  0  0  0  0
   22.5663   -7.6609  -15.8548 C   0  0  0  0  0  0  0  0  0  0  0  0
   23.6987   -7.2091  -15.5397 O   0  0  0  0  0  0  0  0  0  0  0  0
   19.6471   -0.6628  -18.1763 C   0  0  0  0  0  0  0  0  0  0  0  0
   19.8259   -2.4232  -18.2081 S   0  0  0  0  0  0  0  0  0  0  0  0
   20.8545   -3.1124  -16.9421 C   0  0  0  0  0  0  0  0  0  0  0  0
   20.9134   -4.5905  -16.9868 C   0  0  0  0  0  0  0  0  0  0  0  0
   21.7935   -5.2542  -15.9802 C   0  0  2  0  0  0  0  0  0  0  0  0
   21.5430   -6.7024  -16.0912 N   0  0  0  0  0  0  0  0  0  0  0  0
   21.3625   -4.9115  -14.5869 C   0  0  0  0  0  0  0  0  0  0  0  0
   22.0315   -3.9110  -13.8627 O   0  0  0  0  0  0  0  0  0  0  0  0
   20.4147   -5.4765  -14.0068 O   0  0  0  0  0  0  0  0  0  0  0  0
  2  1  1  0
  2  3  1  0
  3  4  1  6
  5  3  1  0
  5  6  2  0
  7  5  1  0
  8  7  1  0
  8  9  1  1
 10 14  1  0
 10  9  1  0
 11 10  2  0
 12 11  1  0
 12 13  1  0
 13 14  2  0
 15  8  1  0
 16 15  2  0
 18 17  1  0
 19 18  1  0
 20 19  1  0
 21 20  1  6
 21 22  1  0
 22 15  1  0
 23 21  1  0
 24 23  1  0
 25 23  2  0
M  END
$$$$
