SHM.pdb
     RDKit          3D

 25 25  0  0  1  0  0  0  0  0999 V2000
   21.7934   -9.5861  -20.4521 O   0  0  0  0  0  0  0  0  0  0  0  0
   21.8697  -10.3751  -19.3060 C   0  0  0  0  0  0  0  0  0  0  0  0
   20.4680  -10.6511  -18.7569 C   0  0  2  0  0  0  0  0  0  0  0  0
   19.5453  -10.8108  -19.8340 N   0  0  0  0  0  0  0  0  0  0  0  0
   20.0692   -9.6343  -17.7680 C   0  0  0  0  0  0  0  0  0  0  0  0
   19.7350   -8.4872  -18.1633 O   0  0  0  0  0  0  0  0  0  0  0  0
   20.0318   -9.8546  -16.3659 N   0  0  0  0  0  0  0  0  0  0  0  0
   19.5937   -8.8770  -15.4001 C   0  0  1  0  0  0  0  0  0  0  0  0
   18.8819   -9.4845  -14.2260 C   0  0  0  0  0  0  0  0  0  0  0  0
   17.5309   -9.9778  -14.5623 C   0  0  0  0  0  0  0  0  0  0  0  0
   16.8312   -9.9094  -15.7441 C   0  0  0  0  0  0  0  0  0  0  0  0
   15.6288  -10.4886  -15.6068 N   0  0  0  0  0  0  0  0  0  0  0  0
   15.5655  -10.9243  -14.3387 C   0  0  0  0  0  0  0  0  0  0  0  0
   16.7120  -10.6168  -13.7078 N   0  0  0  0  0  0  0  0  0  0  0  0
   20.8027   -8.1812  -14.8803 C   0  0  0  0  0  0  0  0  0  0  0  0
   21.9392   -8.7220  -14.8390 O   0  0  0  0  0  0  0  0  0  0  0  0
   25.6177   -3.4461  -17.3629 C   0  0  0  0  0  0  0  0  0  0  0  0
   24.2914   -4.6076  -17.2078 S   0  0  0  0  0  0  0  0  0  0  0  0
   23.6641   -4.8405  -15.5682 C   0  0  0  0  0  0  0  0  0  0  0  0
   22.5465   -5.8089  -15.5096 C   0  0  0  0  0  0  0  0  0  0  0  0
   21.9173   -6.0219  -14.1728 C   0  0  2  0  0  0  0  0  0  0  0  0
   20.7164   -6.8461  -14.3988 N   0  0  0  0  0  0  0  0  0  0  0  0
   21.3826   -4.7345  -13.6241 C   0  0  0  0  0  0  0  0  0  0  0  0
   22.2035   -3.8969  -12.8510 O   0  0  0  0  0  0  0  0  0  0  0  0
   20.2145   -4.3434  -13.8155 O   0  0  0  0  0  0  0  0  0  0  0  0
  2  1  1  0
  2  3  1  0
  3  4  1  6
  5  3  1  0
  5  6  2  0
  7  5  1  0
  8  7  1  0
  8  9  1  1
 10 14  1  0
 10  9  1  0
 11 10  2  0
 12 11  1  0
 12 13  1  0
 13 14  2  0
 15  8  1  0
 16 15  2  0
 18 17  1  0
 19 18  1  0
 20 19  1  0
 21 20  1  6
 21 22  1  0
 22 15  1  0
 23 21  1  0
 24 23  1  0
 25 23  2  0
M  END
$$$$
