SHM.pdb
     RDKit          3D

 25 25  0  0  1  0  0  0  0  0999 V2000
   29.7672  -20.7839  -17.4539 O   0  0  0  0  0  0  0  0  0  0  0  0
   29.0732  -20.4638  -16.2885 C   0  0  0  0  0  0  0  0  0  0  0  0
   27.9381  -19.4851  -16.5983 C   0  0  2  0  0  0  0  0  0  0  0  0
   28.4717  -18.1888  -16.8664 N   0  0  0  0  0  0  0  0  0  0  0  0
   26.9087  -19.5064  -15.5443 C   0  0  0  0  0  0  0  0  0  0  0  0
   27.1034  -18.8656  -14.4788 O   0  0  0  0  0  0  0  0  0  0  0  0
   25.6809  -20.2130  -15.6405 N   0  0  0  0  0  0  0  0  0  0  0  0
   24.6923  -20.2730  -14.5920 C   0  0  1  0  0  0  0  0  0  0  0  0
   23.4190  -20.9445  -15.0184 C   0  0  0  0  0  0  0  0  0  0  0  0
   22.3787  -20.9281  -13.9699 C   0  0  0  0  0  0  0  0  0  0  0  0
   22.3677  -20.3090  -12.7422 C   0  0  0  0  0  0  0  0  0  0  0  0
   21.2133  -20.5591  -12.1058 N   0  0  0  0  0  0  0  0  0  0  0  0
   20.4923  -21.3363  -12.9291 C   0  0  0  0  0  0  0  0  0  0  0  0
   21.1941  -21.5596  -14.0537 N   0  0  0  0  0  0  0  0  0  0  0  0
   25.2667  -21.0701  -13.4736 C   0  0  0  0  0  0  0  0  0  0  0  0
   26.0240  -22.0595  -13.6565 O   0  0  0  0  0  0  0  0  0  0  0  0
   30.4338  -21.3521  -11.6509 C   0  0  0  0  0  0  0  0  0  0  0  0
   29.6373  -20.9145  -10.1321 S   0  0  0  0  0  0  0  0  0  0  0  0
   27.9603  -21.4570   -9.9618 C   0  0  0  0  0  0  0  0  0  0  0  0
   27.0868  -20.9865  -11.0598 C   0  0  0  0  0  0  0  0  0  0  0  0
   25.6525  -21.3951  -10.9936 C   0  0  2  0  0  0  0  0  0  0  0  0
   24.9737  -20.7351  -12.1232 N   0  0  0  0  0  0  0  0  0  0  0  0
   24.9900  -20.8203   -9.7790 C   0  0  0  0  0  0  0  0  0  0  0  0
   24.0768  -19.7602   -9.9031 O   0  0  0  0  0  0  0  0  0  0  0  0
   25.2036  -21.2362   -8.6234 O   0  0  0  0  0  0  0  0  0  0  0  0
  2  1  1  0
  2  3  1  0
  3  4  1  1
  5  3  1  0
  5  6  2  0
  7  5  1  0
  8  7  1  0
  8  9  1  6
 10 14  1  0
 10  9  1  0
 11 10  2  0
 12 11  1  0
 12 13  1  0
 13 14  2  0
 15  8  1  0
 16 15  2  0
 18 17  1  0
 19 18  1  0
 20 19  1  0
 21 20  1  1
 21 22  1  0
 22 15  1  0
 23 21  1  0
 24 23  1  0
 25 23  2  0
M  END
$$$$
