SHM.pdb
     RDKit          3D

 25 25  0  0  1  0  0  0  0  0999 V2000
   17.8711   -9.4489  -13.7826 O   0  0  0  0  0  0  0  0  0  0  0  0
   19.2013   -9.5270  -14.1909 C   0  0  0  0  0  0  0  0  0  0  0  0
   19.2857  -10.0392  -15.6307 C   0  0  2  0  0  0  0  0  0  0  0  0
   19.0560  -11.4475  -15.6614 N   0  0  0  0  0  0  0  0  0  0  0  0
   20.5418   -9.6197  -16.2766 C   0  0  0  0  0  0  0  0  0  0  0  0
   21.5100  -10.4224  -16.3223 O   0  0  0  0  0  0  0  0  0  0  0  0
   20.7498   -8.3455  -16.8675 N   0  0  0  0  0  0  0  0  0  0  0  0
   21.9193   -7.9834  -17.6300 C   0  0  1  0  0  0  0  0  0  0  0  0
   21.6406   -7.8173  -19.0959 C   0  0  0  0  0  0  0  0  0  0  0  0
   21.2509   -9.0800  -19.7559 C   0  0  0  0  0  0  0  0  0  0  0  0
   20.0495   -9.4570  -20.3086 C   0  0  0  0  0  0  0  0  0  0  0  0
   20.1359  -10.7007  -20.8045 N   0  0  0  0  0  0  0  0  0  0  0  0
   21.3911  -11.1126  -20.5667 C   0  0  0  0  0  0  0  0  0  0  0  0
   22.0645  -10.1360  -19.9344 N   0  0  0  0  0  0  0  0  0  0  0  0
   22.4076   -6.6746  -17.1155 C   0  0  0  0  0  0  0  0  0  0  0  0
   21.6897   -5.8959  -16.4343 O   0  0  0  0  0  0  0  0  0  0  0  0
   29.1553   -2.4138  -16.7102 C   0  0  0  0  0  0  0  0  0  0  0  0
   28.1693   -3.7769  -17.2597 S   0  0  0  0  0  0  0  0  0  0  0  0
   26.4617   -3.7251  -16.7935 C   0  0  0  0  0  0  0  0  0  0  0  0
   25.7158   -4.9379  -17.1971 C   0  0  0  0  0  0  0  0  0  0  0  0
   24.2656   -4.9776  -16.8453 C   0  0  2  0  0  0  0  0  0  0  0  0
   23.7366   -6.2446  -17.3812 N   0  0  0  0  0  0  0  0  0  0  0  0
   23.5080   -3.9191  -17.5869 C   0  0  0  0  0  0  0  0  0  0  0  0
   23.0282   -4.1662  -18.8838 O   0  0  0  0  0  0  0  0  0  0  0  0
   23.2665   -2.7923  -17.1113 O   0  0  0  0  0  0  0  0  0  0  0  0
  2  1  1  0
  2  3  1  0
  3  4  1  1
  5  3  1  0
  5  6  2  0
  7  5  1  0
  8  7  1  0
  8  9  1  6
 10 14  1  0
 10  9  1  0
 11 10  2  0
 12 11  1  0
 12 13  1  0
 13 14  2  0
 15  8  1  0
 16 15  2  0
 18 17  1  0
 19 18  1  0
 20 19  1  0
 21 20  1  6
 21 22  1  0
 22 15  1  0
 23 21  1  0
 24 23  1  0
 25 23  2  0
M  END
$$$$
