SHM.pdb
     RDKit          3D

 25 25  0  0  1  0  0  0  0  0999 V2000
   21.9330  -10.9699  -18.1664 O   0  0  0  0  0  0  0  0  0  0  0  0
   21.1594   -9.8607  -17.8300 C   0  0  0  0  0  0  0  0  0  0  0  0
   20.0473  -10.2637  -16.8588 C   0  0  2  0  0  0  0  0  0  0  0  0
   18.9308  -10.7793  -17.5830 N   0  0  0  0  0  0  0  0  0  0  0  0
   19.7121   -9.1618  -15.9398 C   0  0  0  0  0  0  0  0  0  0  0  0
   18.8674   -8.2987  -16.2938 O   0  0  0  0  0  0  0  0  0  0  0  0
   20.2839   -8.9941  -14.6511 N   0  0  0  0  0  0  0  0  0  0  0  0
   20.0156   -7.8753  -13.7812 C   0  0  1  0  0  0  0  0  0  0  0  0
   19.8568   -8.2711  -12.3417 C   0  0  0  0  0  0  0  0  0  0  0  0
   18.5453   -8.8866  -12.0536 C   0  0  0  0  0  0  0  0  0  0  0  0
   17.4496   -9.0588  -12.8664 C   0  0  0  0  0  0  0  0  0  0  0  0
   16.4629   -9.6699  -12.1931 N   0  0  0  0  0  0  0  0  0  0  0  0
   16.9322   -9.8853  -10.9541 C   0  0  0  0  0  0  0  0  0  0  0  0
   18.1880   -9.4133  -10.8688 N   0  0  0  0  0  0  0  0  0  0  0  0
   21.1770   -6.9478  -13.8656 C   0  0  0  0  0  0  0  0  0  0  0  0
   22.3603   -7.3457  -14.0301 O   0  0  0  0  0  0  0  0  0  0  0  0
   24.5220   -2.9227  -18.7652 C   0  0  0  0  0  0  0  0  0  0  0  0
   23.3914   -4.0127  -17.9492 S   0  0  0  0  0  0  0  0  0  0  0  0
   23.2478   -3.7972  -16.1974 C   0  0  0  0  0  0  0  0  0  0  0  0
   22.3255   -4.7694  -15.5696 C   0  0  0  0  0  0  0  0  0  0  0  0
   22.0525   -4.5863  -14.1134 C   0  0  2  0  0  0  0  0  0  0  0  0
   20.9878   -5.5425  -13.7608 N   0  0  0  0  0  0  0  0  0  0  0  0
   21.4434   -3.2431  -13.8501 C   0  0  0  0  0  0  0  0  0  0  0  0
   22.2592   -2.1410  -13.5450 O   0  0  0  0  0  0  0  0  0  0  0  0
   20.2153   -3.0314  -13.8852 O   0  0  0  0  0  0  0  0  0  0  0  0
  2  1  1  0
  2  3  1  0
  3  4  1  6
  5  3  1  0
  5  6  2  0
  7  5  1  0
  8  7  1  0
  8  9  1  1
 10 14  1  0
 10  9  1  0
 11 10  2  0
 12 11  1  0
 12 13  1  0
 13 14  2  0
 15  8  1  0
 16 15  2  0
 18 17  1  0
 19 18  1  0
 20 19  1  0
 21 20  1  6
 21 22  1  0
 22 15  1  0
 23 21  1  0
 24 23  1  0
 25 23  2  0
M  END
$$$$
