PHK.pdb
     RDKit          3D

 27 28  0  0  1  0  0  0  0  0999 V2000
    9.0918  -14.3148   18.2952 N   0  0  0  0  0  0  0  0  0  0  0  0
    8.5235  -13.3313   17.4033 C   0  0  0  0  0  0  0  0  0  0  0  0
    7.3047  -12.7664   18.0530 C   0  0  0  0  0  0  0  0  0  0  0  0
    7.1731  -13.5815   19.3229 C   0  0  0  0  0  0  0  0  0  0  0  0
    8.6256  -13.9190   19.5994 C   0  0  1  0  0  0  0  0  0  0  0  0
    8.7844  -14.9683   20.6196 C   0  0  0  0  0  0  0  0  0  0  0  0
    8.2254  -14.9463   21.7491 O   0  0  0  0  0  0  0  0  0  0  0  0
    9.6234  -16.0699   20.2978 N   0  0  0  0  0  0  0  0  0  0  0  0
    9.8070  -17.1971   21.2303 C   0  0  1  0  0  0  0  0  0  0  0  0
   10.5715  -18.2400   20.4871 C   0  0  0  0  0  0  0  0  0  0  0  0
   10.9053  -19.4593   21.2045 C   0  0  0  0  0  0  0  0  0  0  0  0
   10.4911  -19.7505   22.4926 C   0  0  0  0  0  0  0  0  0  0  0  0
   10.9875  -20.9532   22.8171 N   0  0  0  0  0  0  0  0  0  0  0  0
   11.6903  -21.4227   21.7916 C   0  0  0  0  0  0  0  0  0  0  0  0
   11.6390  -20.4974   20.7940 N   0  0  0  0  0  0  0  0  0  0  0  0
   10.5314  -16.6919   22.3999 C   0  0  0  0  0  0  0  0  0  0  0  0
   11.5210  -15.8965   22.2183 O   0  0  0  0  0  0  0  0  0  0  0  0
   10.2544  -16.9823   23.7571 N   0  0  0  0  0  0  0  0  0  0  0  0
   11.0746  -16.4079   24.8519 C   0  0  1  0  0  0  0  0  0  0  0  0
   10.1337  -15.9432   25.9459 C   0  0  0  0  0  0  0  0  0  0  0  0
   10.8661  -15.3430   27.0850 C   0  0  0  0  0  0  0  0  0  0  0  0
    9.9128  -14.8360   28.1690 C   0  0  0  0  0  0  0  0  0  0  0  0
   10.6493  -14.2444   29.3245 C   0  0  0  0  0  0  0  0  0  0  0  0
    9.7263  -13.6796   30.3041 N   0  0  0  0  0  0  0  0  0  0  0  0
   12.0215  -17.3995   25.3126 C   0  0  0  0  0  0  0  0  0  0  0  0
   13.3061  -17.0269   25.6940 O   0  0  0  0  0  0  0  0  0  0  0  0
   11.6801  -18.6252   25.3693 O   0  0  0  0  0  0  0  0  0  0  0  0
  1  5  1  0
  1  2  1  0
  2  3  1  0
  4  3  1  0
  5  4  1  0
  6  7  2  0
  5  6  1  1
  8  6  1  0
  9  8  1  0
  9 10  1  6
 11 10  1  0
 11 15  1  0
 12 13  1  0
 12 11  2  0
 13 14  1  0
 14 15  2  0
 16  9  1  0
 17 16  2  0
 18 16  1  0
 19 18  1  0
 20 21  1  0
 19 20  1  1
 22 21  1  0
 23 22  1  0
 24 23  1  0
 25 19  1  0
 25 26  1  0
 27 25  2  0
M  END
$$$$
