PHK.pdb
     RDKit          3D

 27 28  0  0  1  0  0  0  0  0999 V2000
    7.1922  -18.8559   20.1271 N   0  0  0  0  0  0  0  0  0  0  0  0
    6.3661  -19.7669   19.3700 C   0  0  0  0  0  0  0  0  0  0  0  0
    6.8057  -19.7153   17.9450 C   0  0  0  0  0  0  0  0  0  0  0  0
    7.8637  -18.6314   17.9422 C   0  0  0  0  0  0  0  0  0  0  0  0
    8.4035  -18.7532   19.3542 C   0  0  1  0  0  0  0  0  0  0  0  0
    9.2495  -17.6131   19.7431 C   0  0  0  0  0  0  0  0  0  0  0  0
   10.4380  -17.4506   19.3565 O   0  0  0  0  0  0  0  0  0  0  0  0
    8.6778  -16.6417   20.6094 N   0  0  0  0  0  0  0  0  0  0  0  0
    9.3936  -15.3996   20.9539 C   0  0  1  0  0  0  0  0  0  0  0  0
    8.4188  -14.2856   20.7715 C   0  0  0  0  0  0  0  0  0  0  0  0
    8.0139  -13.9704   19.4117 C   0  0  0  0  0  0  0  0  0  0  0  0
    8.4954  -12.9007   18.6772 C   0  0  0  0  0  0  0  0  0  0  0  0
    7.8998  -12.9312   17.4762 N   0  0  0  0  0  0  0  0  0  0  0  0
    7.0713  -13.9691   17.4299 C   0  0  0  0  0  0  0  0  0  0  0  0
    7.1424  -14.6118   18.6282 N   0  0  0  0  0  0  0  0  0  0  0  0
    9.8567  -15.5237   22.3388 C   0  0  0  0  0  0  0  0  0  0  0  0
    8.9956  -15.4575   23.2870 O   0  0  0  0  0  0  0  0  0  0  0  0
   11.1897  -15.7226   22.7707 N   0  0  0  0  0  0  0  0  0  0  0  0
   11.4908  -16.2950   24.1059 C   0  0  1  0  0  0  0  0  0  0  0  0
   11.0974  -17.7589   24.0860 C   0  0  0  0  0  0  0  0  0  0  0  0
   11.4422  -18.4398   25.3556 C   0  0  0  0  0  0  0  0  0  0  0  0
   11.0544  -19.9196   25.3295 C   0  0  0  0  0  0  0  0  0  0  0  0
   11.4463  -20.6192   26.5883 C   0  0  0  0  0  0  0  0  0  0  0  0
   11.0099  -22.0120   26.5749 N   0  0  0  0  0  0  0  0  0  0  0  0
   12.8914  -16.0964   24.4080 C   0  0  0  0  0  0  0  0  0  0  0  0
   13.7824  -15.7143   23.4106 O   0  0  0  0  0  0  0  0  0  0  0  0
   13.3160  -16.2737   25.5955 O   0  0  0  0  0  0  0  0  0  0  0  0
  1  5  1  0
  1  2  1  0
  2  3  1  0
  4  3  1  0
  5  4  1  0
  6  7  2  0
  5  6  1  1
  8  6  1  0
  9  8  1  0
  9 10  1  1
 11 10  1  0
 11 15  1  0
 12 13  1  0
 12 11  2  0
 13 14  1  0
 14 15  2  0
 16  9  1  0
 17 16  2  0
 18 16  1  0
 19 18  1  0
 20 21  1  0
 19 20  1  6
 22 21  1  0
 23 22  1  0
 24 23  1  0
 25 19  1  0
 25 26  1  0
 27 25  2  0
M  END
$$$$
