PHK.pdb
     RDKit          3D

 27 28  0  0  1  0  0  0  0  0999 V2000
    8.7400  -14.9909   19.0517 N   0  0  0  0  0  0  0  0  0  0  0  0
    8.7553  -14.2404   17.8180 C   0  0  0  0  0  0  0  0  0  0  0  0
    7.8208  -13.0866   17.9662 C   0  0  0  0  0  0  0  0  0  0  0  0
    7.2022  -13.3080   19.3309 C   0  0  0  0  0  0  0  0  0  0  0  0
    8.3293  -14.0303   20.0435 C   0  0  1  0  0  0  0  0  0  0  0  0
    7.9028  -14.6456   21.3110 C   0  0  0  0  0  0  0  0  0  0  0  0
    7.3855  -14.0080   22.2673 O   0  0  0  0  0  0  0  0  0  0  0  0
    8.0920  -16.0474   21.4523 N   0  0  0  0  0  0  0  0  0  0  0  0
    7.5331  -16.7891   22.5973 C   0  0  1  0  0  0  0  0  0  0  0  0
    7.8121  -18.2320   22.3431 C   0  0  0  0  0  0  0  0  0  0  0  0
    7.3922  -19.1812   23.3606 C   0  0  0  0  0  0  0  0  0  0  0  0
    6.6086  -18.8623   24.4560 C   0  0  0  0  0  0  0  0  0  0  0  0
    6.4268  -19.9850   25.1665 N   0  0  0  0  0  0  0  0  0  0  0  0
    7.0603  -20.9859   24.5642 C   0  0  0  0  0  0  0  0  0  0  0  0
    7.6575  -20.4876   23.4466 N   0  0  0  0  0  0  0  0  0  0  0  0
    8.1886  -16.2924   23.8104 C   0  0  0  0  0  0  0  0  0  0  0  0
    9.4648  -16.1649   23.8156 O   0  0  0  0  0  0  0  0  0  0  0  0
    7.5572  -15.9157   25.0197 N   0  0  0  0  0  0  0  0  0  0  0  0
    8.3299  -15.3350   26.1452 C   0  0  1  0  0  0  0  0  0  0  0  0
    7.4146  -14.3944   26.9040 C   0  0  0  0  0  0  0  0  0  0  0  0
    7.2764  -13.0879   26.2197 C   0  0  0  0  0  0  0  0  0  0  0  0
    6.2750  -12.1769   26.9324 C   0  0  0  0  0  0  0  0  0  0  0  0
    6.1481  -10.8531   26.2551 C   0  0  0  0  0  0  0  0  0  0  0  0
    5.1517  -10.0162   26.9164 N   0  0  0  0  0  0  0  0  0  0  0  0
    8.8460  -16.4024   26.9737 C   0  0  0  0  0  0  0  0  0  0  0  0
    9.9587  -16.1950   27.7820 O   0  0  0  0  0  0  0  0  0  0  0  0
    8.2804  -17.5434   26.9642 O   0  0  0  0  0  0  0  0  0  0  0  0
  1  5  1  0
  1  2  1  0
  2  3  1  0
  4  3  1  0
  5  4  1  0
  6  7  2  0
  5  6  1  1
  8  6  1  0
  9  8  1  0
  9 10  1  6
 11 10  1  0
 11 15  1  0
 12 13  1  0
 12 11  2  0
 13 14  1  0
 14 15  2  0
 16  9  1  0
 17 16  2  0
 18 16  1  0
 19 18  1  0
 20 21  1  0
 19 20  1  1
 22 21  1  0
 23 22  1  0
 24 23  1  0
 25 19  1  0
 25 26  1  0
 27 25  2  0
M  END
$$$$
