PHK.pdb
     RDKit          3D

 27 28  0  0  1  0  0  0  0  0999 V2000
    9.2380  -14.4415   19.2892 N   0  0  0  0  0  0  0  0  0  0  0  0
    9.1038  -13.6563   18.0846 C   0  0  0  0  0  0  0  0  0  0  0  0
    7.8608  -12.8390   18.2007 C   0  0  0  0  0  0  0  0  0  0  0  0
    7.2547  -13.3042   19.5084 C   0  0  0  0  0  0  0  0  0  0  0  0
    8.5004  -13.6983   20.2784 C   0  0  1  0  0  0  0  0  0  0  0  0
    8.2005  -14.4775   21.4907 C   0  0  0  0  0  0  0  0  0  0  0  0
    7.3435  -14.1427   22.3522 O   0  0  0  0  0  0  0  0  0  0  0  0
    8.9303  -15.6811   21.6902 N   0  0  0  0  0  0  0  0  0  0  0  0
    8.6514  -16.5714   22.8318 C   0  0  1  0  0  0  0  0  0  0  0  0
    9.2666  -17.8890   22.5004 C   0  0  0  0  0  0  0  0  0  0  0  0
    8.5989  -18.7029   21.4983 C   0  0  0  0  0  0  0  0  0  0  0  0
    7.3268  -18.4600   21.0101 C   0  0  0  0  0  0  0  0  0  0  0  0
    7.0499  -19.4108   20.1060 N   0  0  0  0  0  0  0  0  0  0  0  0
    8.0896  -20.2327   20.0096 C   0  0  0  0  0  0  0  0  0  0  0  0
    9.0479  -19.7940   20.8717 N   0  0  0  0  0  0  0  0  0  0  0  0
    9.2387  -15.9585   24.0265 C   0  0  0  0  0  0  0  0  0  0  0  0
   10.4358  -15.5023   23.9624 O   0  0  0  0  0  0  0  0  0  0  0  0
    8.6170  -15.7973   25.2876 N   0  0  0  0  0  0  0  0  0  0  0  0
    9.3318  -15.1687   26.4255 C   0  0  1  0  0  0  0  0  0  0  0  0
    8.3378  -14.3141   27.1868 C   0  0  0  0  0  0  0  0  0  0  0  0
    7.7779  -13.2340   26.3416 C   0  0  0  0  0  0  0  0  0  0  0  0
    6.7578  -12.3869   27.1048 C   0  0  0  0  0  0  0  0  0  0  0  0
    6.1998  -11.2920   26.2579 C   0  0  0  0  0  0  0  0  0  0  0  0
    5.2721  -10.4593   27.0171 N   0  0  0  0  0  0  0  0  0  0  0  0
    9.9267  -16.2002   27.2468 C   0  0  0  0  0  0  0  0  0  0  0  0
   10.8786  -15.8772   28.2081 O   0  0  0  0  0  0  0  0  0  0  0  0
    9.5795  -17.4154   27.0900 O   0  0  0  0  0  0  0  0  0  0  0  0
  1  5  1  0
  1  2  1  0
  2  3  1  0
  4  3  1  0
  5  4  1  0
  6  7  2  0
  5  6  1  1
  8  6  1  0
  9  8  1  0
  9 10  1  6
 11 10  1  0
 11 15  1  0
 12 13  1  0
 12 11  2  0
 13 14  1  0
 14 15  2  0
 16  9  1  0
 17 16  2  0
 18 16  1  0
 19 18  1  0
 20 21  1  0
 19 20  1  1
 22 21  1  0
 23 22  1  0
 24 23  1  0
 25 19  1  0
 25 26  1  0
 27 25  2  0
M  END
$$$$
