PHK.pdb
     RDKit          3D

 27 28  0  0  1  0  0  0  0  0999 V2000
    9.2048  -14.4593   18.0752 N   0  0  0  0  0  0  0  0  0  0  0  0
    8.6707  -13.5847   17.0577 C   0  0  0  0  0  0  0  0  0  0  0  0
    7.4010  -12.9949   17.5739 C   0  0  0  0  0  0  0  0  0  0  0  0
    7.2092  -13.6855   18.9082 C   0  0  0  0  0  0  0  0  0  0  0  0
    8.6490  -13.9519   19.3034 C   0  0  1  0  0  0  0  0  0  0  0  0
    8.7679  -14.8914   20.4304 C   0  0  0  0  0  0  0  0  0  0  0  0
    8.1113  -14.7965   21.5020 O   0  0  0  0  0  0  0  0  0  0  0  0
    9.6844  -15.9687   20.2880 N   0  0  0  0  0  0  0  0  0  0  0  0
    9.8319  -16.9985   21.3328 C   0  0  1  0  0  0  0  0  0  0  0  0
   10.5674  -18.1345   20.7059 C   0  0  0  0  0  0  0  0  0  0  0  0
    9.7817  -19.1137   19.9736 C   0  0  0  0  0  0  0  0  0  0  0  0
    8.3989  -19.1726   19.9779 C   0  0  0  0  0  0  0  0  0  0  0  0
    8.0331  -20.1967   19.1933 N   0  0  0  0  0  0  0  0  0  0  0  0
    9.1232  -20.7766   18.7020 C   0  0  0  0  0  0  0  0  0  0  0  0
   10.2050  -20.1059   19.1855 N   0  0  0  0  0  0  0  0  0  0  0  0
   10.5674  -16.3965   22.4485 C   0  0  0  0  0  0  0  0  0  0  0  0
   11.5663  -15.6343   22.1909 O   0  0  0  0  0  0  0  0  0  0  0  0
   10.2924  -16.5561   23.8275 N   0  0  0  0  0  0  0  0  0  0  0  0
   11.1474  -15.9252   24.8629 C   0  0  1  0  0  0  0  0  0  0  0  0
   10.2995  -15.7095   26.1009 C   0  0  0  0  0  0  0  0  0  0  0  0
   11.1112  -15.2510   27.2521 C   0  0  0  0  0  0  0  0  0  0  0  0
   10.2715  -15.1269   28.5251 C   0  0  0  0  0  0  0  0  0  0  0  0
   11.0723  -14.6027   29.6703 C   0  0  0  0  0  0  0  0  0  0  0  0
   10.2468  -14.4495   30.8642 N   0  0  0  0  0  0  0  0  0  0  0  0
   12.2977  -16.7659   25.1124 C   0  0  0  0  0  0  0  0  0  0  0  0
   13.5326  -16.2024   25.4160 O   0  0  0  0  0  0  0  0  0  0  0  0
   12.1829  -18.0328   25.0529 O   0  0  0  0  0  0  0  0  0  0  0  0
  1  5  1  0
  1  2  1  0
  2  3  1  0
  4  3  1  0
  5  4  1  0
  6  7  2  0
  5  6  1  1
  8  6  1  0
  9  8  1  0
  9 10  1  6
 11 10  1  0
 11 15  1  0
 12 13  1  0
 12 11  2  0
 13 14  1  0
 14 15  2  0
 16  9  1  0
 17 16  2  0
 18 16  1  0
 19 18  1  0
 20 21  1  0
 19 20  1  1
 22 21  1  0
 23 22  1  0
 24 23  1  0
 25 19  1  0
 25 26  1  0
 27 25  2  0
M  END
$$$$
