PHK.pdb
     RDKit          3D

 27 28  0  0  1  0  0  0  0  0999 V2000
    9.3414  -14.3710   18.3100 N   0  0  0  0  0  0  0  0  0  0  0  0
    9.0992  -13.4923   17.1898 C   0  0  0  0  0  0  0  0  0  0  0  0
    7.7803  -12.8268   17.4000 C   0  0  0  0  0  0  0  0  0  0  0  0
    7.2552  -13.4775   18.6630 C   0  0  0  0  0  0  0  0  0  0  0  0
    8.5521  -13.8090   19.3759 C   0  0  1  0  0  0  0  0  0  0  0  0
    8.3623  -14.7287   20.5095 C   0  0  0  0  0  0  0  0  0  0  0  0
    7.4904  -14.5744   21.4065 O   0  0  0  0  0  0  0  0  0  0  0  0
    9.2229  -15.8576   20.5853 N   0  0  0  0  0  0  0  0  0  0  0  0
    9.0854  -16.8612   21.6566 C   0  0  1  0  0  0  0  0  0  0  0  0
   10.1151  -17.9069   21.3909 C   0  0  0  0  0  0  0  0  0  0  0  0
   10.1407  -19.0575   22.2785 C   0  0  0  0  0  0  0  0  0  0  0  0
    9.2779  -19.2462   23.3441 C   0  0  0  0  0  0  0  0  0  0  0  0
    9.5991  -20.4109   23.9260 N   0  0  0  0  0  0  0  0  0  0  0  0
   10.6206  -20.9543   23.2723 C   0  0  0  0  0  0  0  0  0  0  0  0
   10.9552  -20.1161   22.2529 N   0  0  0  0  0  0  0  0  0  0  0  0
    9.2928  -16.1763   22.9356 C   0  0  0  0  0  0  0  0  0  0  0  0
   10.3533  -15.4728   23.0953 O   0  0  0  0  0  0  0  0  0  0  0  0
    8.4269  -16.1934   24.0548 N   0  0  0  0  0  0  0  0  0  0  0  0
    8.7538  -15.4471   25.2947 C   0  0  1  0  0  0  0  0  0  0  0  0
    7.4605  -14.8983   25.8642 C   0  0  0  0  0  0  0  0  0  0  0  0
    7.4635  -13.4177   25.9125 C   0  0  0  0  0  0  0  0  0  0  0  0
    6.1557  -12.8657   26.4831 C   0  0  0  0  0  0  0  0  0  0  0  0
    6.1189  -11.3741   26.4462 C   0  0  0  0  0  0  0  0  0  0  0  0
    4.8603  -10.8646   26.9816 N   0  0  0  0  0  0  0  0  0  0  0  0
    9.4422  -16.3249   26.2154 C   0  0  0  0  0  0  0  0  0  0  0  0
   10.3345  -15.8099   27.1498 O   0  0  0  0  0  0  0  0  0  0  0  0
    9.2332  -17.5804   26.1718 O   0  0  0  0  0  0  0  0  0  0  0  0
  1  5  1  0
  1  2  1  0
  2  3  1  0
  4  3  1  0
  5  4  1  0
  6  7  2  0
  5  6  1  1
  8  6  1  0
  9  8  1  0
  9 10  1  6
 11 10  1  0
 11 15  1  0
 12 13  1  0
 12 11  2  0
 13 14  1  0
 14 15  2  0
 16  9  1  0
 17 16  2  0
 18 16  1  0
 19 18  1  0
 20 21  1  0
 19 20  1  1
 22 21  1  0
 23 22  1  0
 24 23  1  0
 25 19  1  0
 25 26  1  0
 27 25  2  0
M  END
$$$$
