PHK.pdb
     RDKit          3D

 27 28  0  0  1  0  0  0  0  0999 V2000
    9.4841  -14.4724   18.4590 N   0  0  0  0  0  0  0  0  0  0  0  0
    9.1573  -13.6800   17.2967 C   0  0  0  0  0  0  0  0  0  0  0  0
    7.7626  -13.1746   17.4580 C   0  0  0  0  0  0  0  0  0  0  0  0
    7.2972  -13.8299   18.7418 C   0  0  0  0  0  0  0  0  0  0  0  0
    8.6109  -13.9669   19.4871 C   0  0  1  0  0  0  0  0  0  0  0  0
    8.5138  -14.8529   20.6586 C   0  0  0  0  0  0  0  0  0  0  0  0
    7.5663  -14.8250   21.4892 O   0  0  0  0  0  0  0  0  0  0  0  0
    9.5610  -15.7943   20.8535 N   0  0  0  0  0  0  0  0  0  0  0  0
    9.5706  -16.7081   22.0105 C   0  0  1  0  0  0  0  0  0  0  0  0
   10.7620  -17.5895   21.8432 C   0  0  0  0  0  0  0  0  0  0  0  0
   10.6433  -18.7010   20.9142 C   0  0  0  0  0  0  0  0  0  0  0  0
    9.4913  -19.0223   20.2177 C   0  0  0  0  0  0  0  0  0  0  0  0
    9.7592  -20.0978   19.4629 N   0  0  0  0  0  0  0  0  0  0  0  0
   11.0229  -20.4597   19.6577 C   0  0  0  0  0  0  0  0  0  0  0  0
   11.5694  -19.5947   20.5561 N   0  0  0  0  0  0  0  0  0  0  0  0
    9.6406  -15.8880   23.2231 C   0  0  0  0  0  0  0  0  0  0  0  0
   10.5979  -15.0429   23.3435 O   0  0  0  0  0  0  0  0  0  0  0  0
    8.7404  -15.9131   24.3149 N   0  0  0  0  0  0  0  0  0  0  0  0
    8.8399  -14.9280   25.4197 C   0  0  1  0  0  0  0  0  0  0  0  0
    7.5025  -14.2244   25.5400 C   0  0  0  0  0  0  0  0  0  0  0  0
    7.4886  -13.2540   26.6591 C   0  0  0  0  0  0  0  0  0  0  0  0
    6.1005  -12.6440   26.8643 C   0  0  0  0  0  0  0  0  0  0  0  0
    6.0792  -11.6821   28.0052 C   0  0  0  0  0  0  0  0  0  0  0  0
    4.7367  -11.1520   28.2225 N   0  0  0  0  0  0  0  0  0  0  0  0
    9.2247  -15.6092   26.6363 C   0  0  0  0  0  0  0  0  0  0  0  0
    9.3746  -16.9919   26.6553 O   0  0  0  0  0  0  0  0  0  0  0  0
    9.4272  -14.9408   27.7013 O   0  0  0  0  0  0  0  0  0  0  0  0
  1  5  1  0
  1  2  1  0
  2  3  1  0
  4  3  1  0
  5  4  1  0
  6  7  2  0
  5  6  1  1
  8  6  1  0
  9  8  1  0
  9 10  1  6
 11 10  1  0
 11 15  1  0
 12 13  1  0
 12 11  2  0
 13 14  1  0
 14 15  2  0
 16  9  1  0
 17 16  2  0
 18 16  1  0
 19 18  1  0
 20 21  1  0
 19 20  1  1
 22 21  1  0
 23 22  1  0
 24 23  1  0
 25 19  1  0
 25 26  1  0
 27 25  2  0
M  END
$$$$
