PHK.pdb
     RDKit          3D

 27 28  0  0  1  0  0  0  0  0999 V2000
    8.9588  -14.5404   17.8229 N   0  0  0  0  0  0  0  0  0  0  0  0
    8.4410  -13.6611   16.8011 C   0  0  0  0  0  0  0  0  0  0  0  0
    7.3195  -12.8740   17.3922 C   0  0  0  0  0  0  0  0  0  0  0  0
    7.1785  -13.4536   18.7845 C   0  0  0  0  0  0  0  0  0  0  0  0
    8.6043  -13.8915   19.0592 C   0  0  1  0  0  0  0  0  0  0  0  0
    8.7157  -14.7718   20.2337 C   0  0  0  0  0  0  0  0  0  0  0  0
    8.1876  -14.5284   21.3520 O   0  0  0  0  0  0  0  0  0  0  0  0
    9.4688  -15.9681   20.0838 N   0  0  0  0  0  0  0  0  0  0  0  0
    9.4799  -17.0081   21.1287 C   0  0  1  0  0  0  0  0  0  0  0  0
   10.0034  -18.2478   20.4857 C   0  0  0  0  0  0  0  0  0  0  0  0
    9.1285  -18.9329   19.5488 C   0  0  0  0  0  0  0  0  0  0  0  0
    7.9706  -19.6034   19.9026 C   0  0  0  0  0  0  0  0  0  0  0  0
    7.4318  -20.1038   18.7812 N   0  0  0  0  0  0  0  0  0  0  0  0
    8.2002  -19.7758   17.7478 C   0  0  0  0  0  0  0  0  0  0  0  0
    9.2502  -19.0512   18.2237 N   0  0  0  0  0  0  0  0  0  0  0  0
   10.3361  -16.5326   22.2190 C   0  0  0  0  0  0  0  0  0  0  0  0
   11.4840  -16.0374   21.9327 O   0  0  0  0  0  0  0  0  0  0  0  0
   10.0331  -16.5486   23.6014 N   0  0  0  0  0  0  0  0  0  0  0  0
   10.9830  -16.0100   24.6057 C   0  0  1  0  0  0  0  0  0  0  0  0
   10.1978  -15.6741   25.8582 C   0  0  0  0  0  0  0  0  0  0  0  0
   11.0842  -15.2594   26.9702 C   0  0  0  0  0  0  0  0  0  0  0  0
   10.2968  -14.9921   28.2544 C   0  0  0  0  0  0  0  0  0  0  0  0
   11.1938  -14.6339   29.3921 C   0  0  0  0  0  0  0  0  0  0  0  0
   10.4370  -14.4751   30.6301 N   0  0  0  0  0  0  0  0  0  0  0  0
   12.0291  -16.9799   24.8448 C   0  0  0  0  0  0  0  0  0  0  0  0
   11.7462  -18.3417   24.8356 O   0  0  0  0  0  0  0  0  0  0  0  0
   13.2200  -16.5873   25.0676 O   0  0  0  0  0  0  0  0  0  0  0  0
  1  5  1  0
  1  2  1  0
  2  3  1  0
  4  3  1  0
  5  4  1  0
  6  7  2  0
  5  6  1  1
  8  6  1  0
  9  8  1  0
  9 10  1  6
 11 10  1  0
 11 15  1  0
 12 13  1  0
 12 11  2  0
 13 14  1  0
 14 15  2  0
 16  9  1  0
 17 16  2  0
 18 16  1  0
 19 18  1  0
 20 21  1  0
 19 20  1  1
 22 21  1  0
 23 22  1  0
 24 23  1  0
 25 19  1  0
 25 26  1  0
 27 25  2  0
M  END
$$$$
