PHK.pdb
     RDKit          3D

 27 28  0  0  1  0  0  0  0  0999 V2000
    9.2315  -14.6422   18.3758 N   0  0  0  0  0  0  0  0  0  0  0  0
    9.0297  -13.8199   17.2059 C   0  0  0  0  0  0  0  0  0  0  0  0
    7.8402  -12.9524   17.4491 C   0  0  0  0  0  0  0  0  0  0  0  0
    7.3288  -13.4256   18.7940 C   0  0  0  0  0  0  0  0  0  0  0  0
    8.6172  -13.8942   19.4426 C   0  0  1  0  0  0  0  0  0  0  0  0
    8.3879  -14.6917   20.6584 C   0  0  0  0  0  0  0  0  0  0  0  0
    7.6355  -14.3367   21.6052 O   0  0  0  0  0  0  0  0  0  0  0  0
    9.0636  -15.9385   20.7582 N   0  0  0  0  0  0  0  0  0  0  0  0
    8.8171  -16.8611   21.8815 C   0  0  1  0  0  0  0  0  0  0  0  0
    9.4218  -18.1686   21.4951 C   0  0  0  0  0  0  0  0  0  0  0  0
    8.7424  -18.9389   20.4667 C   0  0  0  0  0  0  0  0  0  0  0  0
    7.4608  -19.4479   20.5852 C   0  0  0  0  0  0  0  0  0  0  0  0
    7.1732  -20.0945   19.4462 N   0  0  0  0  0  0  0  0  0  0  0  0
    8.2155  -20.0113   18.6260 C   0  0  0  0  0  0  0  0  0  0  0  0
    9.1863  -19.2960   19.2584 N   0  0  0  0  0  0  0  0  0  0  0  0
    9.4387  -16.2823   23.0758 C   0  0  0  0  0  0  0  0  0  0  0  0
   10.4551  -15.5132   22.9328 O   0  0  0  0  0  0  0  0  0  0  0  0
    9.0318  -16.4721   24.4180 N   0  0  0  0  0  0  0  0  0  0  0  0
    9.0745  -15.3621   25.4014 C   0  0  1  0  0  0  0  0  0  0  0  0
    7.7418  -14.6414   25.3504 C   0  0  0  0  0  0  0  0  0  0  0  0
    7.6828  -13.5220   26.3188 C   0  0  0  0  0  0  0  0  0  0  0  0
    6.2948  -12.8795   26.3599 C   0  0  0  0  0  0  0  0  0  0  0  0
    6.2156  -11.7922   27.3791 C   0  0  0  0  0  0  0  0  0  0  0  0
    4.8748  -11.2179   27.4340 N   0  0  0  0  0  0  0  0  0  0  0  0
    9.3725  -15.8946   26.7129 C   0  0  0  0  0  0  0  0  0  0  0  0
    9.5359  -17.2631   26.8998 O   0  0  0  0  0  0  0  0  0  0  0  0
    9.4851  -15.1069   27.7072 O   0  0  0  0  0  0  0  0  0  0  0  0
  1  5  1  0
  1  2  1  0
  2  3  1  0
  4  3  1  0
  5  4  1  0
  6  7  2  0
  5  6  1  1
  8  6  1  0
  9  8  1  0
  9 10  1  6
 11 10  1  0
 11 15  1  0
 12 13  1  0
 12 11  2  0
 13 14  1  0
 14 15  2  0
 16  9  1  0
 17 16  2  0
 18 16  1  0
 19 18  1  0
 20 21  1  0
 19 20  1  1
 22 21  1  0
 23 22  1  0
 24 23  1  0
 25 19  1  0
 25 26  1  0
 27 25  2  0
M  END
$$$$
