PHK.pdb
     RDKit          3D

 27 28  0  0  1  0  0  0  0  0999 V2000
    8.6440  -15.0449   17.7985 N   0  0  0  0  0  0  0  0  0  0  0  0
    8.5948  -14.2827   16.5728 C   0  0  0  0  0  0  0  0  0  0  0  0
    7.9590  -12.9662   16.8714 C   0  0  0  0  0  0  0  0  0  0  0  0
    7.5596  -13.0905   18.3272 C   0  0  0  0  0  0  0  0  0  0  0  0
    8.6219  -14.0458   18.8360 C   0  0  1  0  0  0  0  0  0  0  0  0
    8.3092  -14.5924   20.1665 C   0  0  0  0  0  0  0  0  0  0  0  0
    8.1929  -13.8929   21.2085 O   0  0  0  0  0  0  0  0  0  0  0  0
    8.1295  -15.9989   20.2687 N   0  0  0  0  0  0  0  0  0  0  0  0
    7.6474  -16.6261   21.5128 C   0  0  1  0  0  0  0  0  0  0  0  0
    7.4232  -18.0671   21.2004 C   0  0  0  0  0  0  0  0  0  0  0  0
    7.0252  -18.9327   22.2980 C   0  0  0  0  0  0  0  0  0  0  0  0
    6.0857  -18.6006   23.2587 C   0  0  0  0  0  0  0  0  0  0  0  0
    5.9807  -19.6389   24.1007 N   0  0  0  0  0  0  0  0  0  0  0  0
    6.8104  -20.6001   23.7085 C   0  0  0  0  0  0  0  0  0  0  0  0
    7.4564  -20.1622   22.5928 N   0  0  0  0  0  0  0  0  0  0  0  0
    8.6743  -16.4237   22.5386 C   0  0  0  0  0  0  0  0  0  0  0  0
    9.9093  -16.4891   22.1986 O   0  0  0  0  0  0  0  0  0  0  0  0
    8.4579  -16.1472   23.9097 N   0  0  0  0  0  0  0  0  0  0  0  0
    9.5923  -15.9592   24.8472 C   0  0  1  0  0  0  0  0  0  0  0  0
    9.0631  -15.2670   26.0878 C   0  0  0  0  0  0  0  0  0  0  0  0
   10.1149  -15.1004   27.1174 C   0  0  0  0  0  0  0  0  0  0  0  0
    9.5618  -14.4698   28.3970 C   0  0  0  0  0  0  0  0  0  0  0  0
   10.6082  -14.3491   29.4544 C   0  0  0  0  0  0  0  0  0  0  0  0
   10.0641  -13.7475   30.6679 N   0  0  0  0  0  0  0  0  0  0  0  0
   10.1931  -17.2428   25.1365 C   0  0  0  0  0  0  0  0  0  0  0  0
    9.4182  -18.3977   25.1562 O   0  0  0  0  0  0  0  0  0  0  0  0
   11.4413  -17.3196   25.3771 O   0  0  0  0  0  0  0  0  0  0  0  0
  1  5  1  0
  1  2  1  0
  2  3  1  0
  4  3  1  0
  5  4  1  0
  6  7  2  0
  5  6  1  1
  8  6  1  0
  9  8  1  0
  9 10  1  6
 11 10  1  0
 11 15  1  0
 12 13  1  0
 12 11  2  0
 13 14  1  0
 14 15  2  0
 16  9  1  0
 17 16  2  0
 18 16  1  0
 19 18  1  0
 20 21  1  0
 19 20  1  1
 22 21  1  0
 23 22  1  0
 24 23  1  0
 25 19  1  0
 25 26  1  0
 27 25  2  0
M  END
$$$$
