PHK.pdb
     RDKit          3D

 27 28  0  0  1  0  0  0  0  0999 V2000
    7.3727  -14.8566   18.9521 N   0  0  0  0  0  0  0  0  0  0  0  0
    7.0398  -14.5420   17.5826 C   0  0  0  0  0  0  0  0  0  0  0  0
    7.7449  -13.2800   17.2127 C   0  0  0  0  0  0  0  0  0  0  0  0
    8.4086  -12.8557   18.5065 C   0  0  0  0  0  0  0  0  0  0  0  0
    8.6377  -14.2017   19.1667 C   0  0  1  0  0  0  0  0  0  0  0  0
    9.0019  -14.0864   20.5883 C   0  0  0  0  0  0  0  0  0  0  0  0
   10.1369  -13.7246   21.0001 O   0  0  0  0  0  0  0  0  0  0  0  0
    8.0015  -14.4061   21.5464 N   0  0  0  0  0  0  0  0  0  0  0  0
    8.2317  -14.2239   22.9913 C   0  0  1  0  0  0  0  0  0  0  0  0
    6.9752  -13.6465   23.5499 C   0  0  0  0  0  0  0  0  0  0  0  0
    6.9344  -13.3993   24.9816 C   0  0  0  0  0  0  0  0  0  0  0  0
    7.6490  -12.4051   25.6272 C   0  0  0  0  0  0  0  0  0  0  0  0
    7.3597  -12.4801   26.9344 N   0  0  0  0  0  0  0  0  0  0  0  0
    6.4994  -13.4737   27.1313 C   0  0  0  0  0  0  0  0  0  0  0  0
    6.2368  -14.0421   25.9222 N   0  0  0  0  0  0  0  0  0  0  0  0
    8.5510  -15.5368   23.5588 C   0  0  0  0  0  0  0  0  0  0  0  0
    7.8290  -16.5447   23.2301 O   0  0  0  0  0  0  0  0  0  0  0  0
    9.6048  -15.8381   24.4542 N   0  0  0  0  0  0  0  0  0  0  0  0
    9.9034  -17.2358   24.8520 C   0  0  1  0  0  0  0  0  0  0  0  0
   11.3775  -17.4875   24.6034 C   0  0  0  0  0  0  0  0  0  0  0  0
   11.7802  -18.8534   25.0112 C   0  0  0  0  0  0  0  0  0  0  0  0
   13.2738  -19.0963   24.7849 C   0  0  0  0  0  0  0  0  0  0  0  0
   13.6844  -20.4673   25.2081 C   0  0  0  0  0  0  0  0  0  0  0  0
   15.1084  -20.6866   24.9742 N   0  0  0  0  0  0  0  0  0  0  0  0
    9.5283  -17.4312   26.2352 C   0  0  0  0  0  0  0  0  0  0  0  0
    9.1464  -16.3508   27.0236 O   0  0  0  0  0  0  0  0  0  0  0  0
    9.5482  -18.6006   26.7393 O   0  0  0  0  0  0  0  0  0  0  0  0
  1  5  1  0
  1  2  1  0
  2  3  1  0
  4  3  1  0
  5  4  1  0
  6  7  2  0
  5  6  1  1
  8  6  1  0
  9  8  1  0
  9 10  1  1
 11 10  1  0
 11 15  1  0
 12 13  1  0
 12 11  2  0
 13 14  1  0
 14 15  2  0
 16  9  1  0
 17 16  2  0
 18 16  1  0
 19 18  1  0
 20 21  1  0
 19 20  1  1
 22 21  1  0
 23 22  1  0
 24 23  1  0
 25 19  1  0
 25 26  1  0
 27 25  2  0
M  END
$$$$
