IAS.pdb
     RDKit          3D

 20 19  0  0  1  0  0  0  0  0999 V2000
   21.4043  -16.0146  -14.9196 C   0  0  0  0  0  0  0  0  0  0  0  0
   22.4933  -15.2716  -15.6502 C   0  0  0  0  0  0  0  0  0  0  0  0
   22.3062  -13.7798  -15.5997 C   0  0  2  0  0  0  0  0  0  0  0  0
   20.9456  -13.3692  -16.0976 C   0  0  0  0  0  0  0  0  0  0  0  0
   23.4296  -13.1032  -16.3398 C   0  0  2  0  0  0  0  0  0  0  0  0
   24.6708  -13.5617  -15.7478 N   0  0  0  0  0  0  0  0  0  0  0  0
   23.3816  -11.6492  -16.2912 C   0  0  0  0  0  0  0  0  0  0  0  0
   23.5667  -11.0289  -15.2177 O   0  0  0  0  0  0  0  0  0  0  0  0
   22.9863   -8.9361  -18.8172 C   0  0  0  0  0  0  0  0  0  0  0  0
   22.9990   -9.4425  -17.4053 C   0  0  2  0  0  0  0  0  0  0  0  0
   23.1228  -10.9017  -17.4645 N   0  0  0  0  0  0  0  0  0  0  0  0
   21.7737   -9.0955  -16.6566 C   0  0  0  0  0  0  0  0  0  0  0  0
   20.6818   -9.6866  -16.7791 O   0  0  0  0  0  0  0  0  0  0  0  0
   21.6939   -8.1407  -12.8308 O   0  0  0  0  0  0  0  0  0  0  0  0
   21.2151   -7.0862  -13.5874 C   0  0  0  0  0  0  0  0  0  0  0  0
   20.7301   -7.5650  -14.9519 C   0  0  2  0  0  0  0  0  0  0  0  0
   21.8430   -8.0120  -15.7316 N   0  0  0  0  0  0  0  0  0  0  0  0
   20.0054   -6.4384  -15.5699 C   0  0  0  0  0  0  0  0  0  0  0  0
   18.9355   -6.0012  -15.0889 O   0  0  0  0  0  0  0  0  0  0  0  0
   20.5155   -5.8483  -16.7068 O   0  0  0  0  0  0  0  0  0  0  0  0
  2  1  1  0
  3  2  1  0
  3  4  1  6
  5  7  1  0
  5  3  1  0
  5  6  1  1
  7 11  1  0
  8  7  2  0
 10  9  1  6
 10 12  1  0
 11 10  1  0
 12 13  2  0
 12 17  1  0
 14 15  1  0
 16 15  1  1
 16 18  1  0
 17 16  1  0
 18 20  1  0
 19 18  2  0
M  END
$$$$
