IAS.pdb
     RDKit          3D

 20 19  0  0  1  0  0  0  0  0999 V2000
   27.5489  -16.0673  -15.9290 C   0  0  0  0  0  0  0  0  0  0  0  0
   26.0473  -16.1967  -15.9339 C   0  0  0  0  0  0  0  0  0  0  0  0
   25.3558  -14.8718  -16.1061 C   0  0  2  0  0  0  0  0  0  0  0  0
   25.5967  -13.9583  -14.9334 C   0  0  0  0  0  0  0  0  0  0  0  0
   23.8928  -15.0963  -16.3830 C   0  0  2  0  0  0  0  0  0  0  0  0
   23.8028  -16.0911  -17.4336 N   0  0  0  0  0  0  0  0  0  0  0  0
   23.1755  -13.8978  -16.7926 C   0  0  0  0  0  0  0  0  0  0  0  0
   23.4217  -13.3352  -17.8853 O   0  0  0  0  0  0  0  0  0  0  0  0
   19.9634  -12.4530  -16.1025 C   0  0  0  0  0  0  0  0  0  0  0  0
   21.4074  -12.1731  -16.3968 C   0  0  2  0  0  0  0  0  0  0  0  0
   22.1780  -13.3400  -15.9580 N   0  0  0  0  0  0  0  0  0  0  0  0
   21.9163  -10.9735  -15.7008 C   0  0  0  0  0  0  0  0  0  0  0  0
   22.3753  -10.9734  -14.5407 O   0  0  0  0  0  0  0  0  0  0  0  0
   21.2073   -7.2678  -17.5552 O   0  0  0  0  0  0  0  0  0  0  0  0
   22.4419   -7.4459  -16.9572 C   0  0  0  0  0  0  0  0  0  0  0  0
   22.3732   -8.5030  -15.8598 C   0  0  2  0  0  0  0  0  0  0  0  0
   21.8807   -9.7319  -16.4018 N   0  0  0  0  0  0  0  0  0  0  0  0
   21.5160   -7.9570  -14.7905 C   0  0  0  0  0  0  0  0  0  0  0  0
   20.3675   -8.4057  -14.5743 O   0  0  0  0  0  0  0  0  0  0  0  0
   21.9875   -6.9259  -14.0060 O   0  0  0  0  0  0  0  0  0  0  0  0
  2  1  1  0
  3  2  1  0
  3  4  1  1
  5  7  1  0
  5  3  1  0
  5  6  1  6
  7 11  1  0
  8  7  2  0
 10  9  1  1
 10 12  1  0
 11 10  1  0
 12 13  2  0
 12 17  1  0
 14 15  1  0
 16 15  1  6
 16 18  1  0
 17 16  1  0
 18 20  1  0
 19 18  2  0
M  END
$$$$
