IAS.pdb
     RDKit          3D

 20 19  0  0  1  0  0  0  0  0999 V2000
   26.5419  -32.7623  -14.4637 C   0  0  0  0  0  0  0  0  0  0  0  0
   25.3855  -33.5855  -13.9571 C   0  0  0  0  0  0  0  0  0  0  0  0
   25.1750  -33.4321  -12.4755 C   0  0  2  0  0  0  0  0  0  0  0  0
   26.4173  -33.7732  -11.6956 C   0  0  0  0  0  0  0  0  0  0  0  0
   23.9759  -34.2366  -12.0483 C   0  0  2  0  0  0  0  0  0  0  0  0
   22.8216  -33.6778  -12.7241 N   0  0  0  0  0  0  0  0  0  0  0  0
   23.7404  -34.2339  -10.6119 C   0  0  0  0  0  0  0  0  0  0  0  0
   23.2015  -33.2550  -10.0440 O   0  0  0  0  0  0  0  0  0  0  0  0
   23.5432  -36.8319   -8.0411 C   0  0  0  0  0  0  0  0  0  0  0  0
   23.7833  -35.3944   -8.3963 C   0  0  2  0  0  0  0  0  0  0  0  0
   24.1185  -35.3457   -9.8223 N   0  0  0  0  0  0  0  0  0  0  0  0
   24.8855  -34.7854   -7.6240 C   0  0  0  0  0  0  0  0  0  0  0  0
   26.0779  -34.7687   -7.9907 O   0  0  0  0  0  0  0  0  0  0  0  0
   25.7654  -32.3623   -3.4575 O   0  0  0  0  0  0  0  0  0  0  0  0
   24.8484  -32.9611   -4.3027 C   0  0  0  0  0  0  0  0  0  0  0  0
   25.5405  -33.5863   -5.5095 C   0  0  2  0  0  0  0  0  0  0  0  0
   24.5656  -34.1753   -6.3751 N   0  0  0  0  0  0  0  0  0  0  0  0
   26.5160  -34.5621   -4.9875 C   0  0  0  0  0  0  0  0  0  0  0  0
   26.2378  -35.7780   -4.8808 O   0  0  0  0  0  0  0  0  0  0  0  0
   27.7680  -34.1287   -4.6058 O   0  0  0  0  0  0  0  0  0  0  0  0
  2  1  1  0
  3  2  1  0
  3  4  1  1
  5  7  1  0
  5  3  1  0
  5  6  1  6
  7 11  1  0
  8  7  2  0
 10  9  1  1
 10 12  1  0
 11 10  1  0
 12 13  2  0
 12 17  1  0
 14 15  1  0
 16 15  1  1
 16 18  1  0
 17 16  1  0
 18 20  1  0
 19 18  2  0
M  END
$$$$
