IAS.pdb
     RDKit          3D

 20 19  0  0  1  0  0  0  0  0999 V2000
   10.4317  -12.9915  -11.8780 C   0  0  0  0  0  0  0  0  0  0  0  0
   11.7806  -13.4767  -12.3434 C   0  0  0  0  0  0  0  0  0  0  0  0
   12.7883  -12.3646  -12.4468 C   0  0  2  0  0  0  0  0  0  0  0  0
   12.2919  -11.2386  -13.3149 C   0  0  0  0  0  0  0  0  0  0  0  0
   14.1102  -12.9200  -12.9069 C   0  0  2  0  0  0  0  0  0  0  0  0
   14.5431  -13.8787  -11.9095 N   0  0  0  0  0  0  0  0  0  0  0  0
   15.1460  -11.9136  -13.0885 C   0  0  0  0  0  0  0  0  0  0  0  0
   15.5188  -11.1865  -12.1379 O   0  0  0  0  0  0  0  0  0  0  0  0
   17.6227  -11.1528  -15.7281 C   0  0  0  0  0  0  0  0  0  0  0  0
   16.8169  -10.7388  -14.5325 C   0  0  2  0  0  0  0  0  0  0  0  0
   15.7572  -11.7352  -14.3522 N   0  0  0  0  0  0  0  0  0  0  0  0
   16.1998   -9.4054  -14.6860 C   0  0  0  0  0  0  0  0  0  0  0  0
   15.0919   -9.1989  -15.2211 O   0  0  0  0  0  0  0  0  0  0  0  0
   16.2174   -4.9004  -13.0366 O   0  0  0  0  0  0  0  0  0  0  0  0
   16.5724   -6.2342  -12.9435 C   0  0  0  0  0  0  0  0  0  0  0  0
   16.4485   -6.9310  -14.2946 C   0  0  2  0  0  0  0  0  0  0  0  0
   16.9186   -8.2780  -14.1893 N   0  0  0  0  0  0  0  0  0  0  0  0
   17.2131   -6.1252  -15.2653 C   0  0  0  0  0  0  0  0  0  0  0  0
   18.3657   -6.4519  -15.6286 O   0  0  0  0  0  0  0  0  0  0  0  0
   16.6482   -4.9816  -15.7888 O   0  0  0  0  0  0  0  0  0  0  0  0
  2  1  1  0
  3  2  1  0
  3  4  1  6
  5  7  1  0
  5  3  1  0
  5  6  1  1
  7 11  1  0
  8  7  2  0
 10  9  1  6
 10 12  1  0
 11 10  1  0
 12 13  2  0
 12 17  1  0
 14 15  1  0
 16 15  1  1
 16 18  1  0
 17 16  1  0
 18 20  1  0
 19 18  2  0
M  END
$$$$
