IAS.pdb
     RDKit          3D

 20 19  0  0  1  0  0  0  0  0999 V2000
   25.1118  -15.6885  -16.1705 C   0  0  0  0  0  0  0  0  0  0  0  0
   23.9244  -14.7810  -16.3663 C   0  0  0  0  0  0  0  0  0  0  0  0
   24.2707  -13.3299  -16.1730 C   0  0  2  0  0  0  0  0  0  0  0  0
   24.8503  -13.0699  -14.8076 C   0  0  0  0  0  0  0  0  0  0  0  0
   23.0653  -12.4777  -16.4696 C   0  0  2  0  0  0  0  0  0  0  0  0
   22.6097  -12.8274  -17.8006 N   0  0  0  0  0  0  0  0  0  0  0  0
   23.3211  -11.0460  -16.4094 C   0  0  0  0  0  0  0  0  0  0  0  0
   23.6654  -10.4923  -15.3388 O   0  0  0  0  0  0  0  0  0  0  0  0
   23.6840   -8.3346  -18.9146 C   0  0  0  0  0  0  0  0  0  0  0  0
   23.4413   -8.8031  -17.5104 C   0  0  2  0  0  0  0  0  0  0  0  0
   23.1849  -10.2450  -17.5680 N   0  0  0  0  0  0  0  0  0  0  0  0
   22.2885   -8.1366  -16.8707 C   0  0  0  0  0  0  0  0  0  0  0  0
   21.0947   -8.3996  -17.1203 O   0  0  0  0  0  0  0  0  0  0  0  0
   22.2639   -6.9757  -13.0503 O   0  0  0  0  0  0  0  0  0  0  0  0
   21.1848   -7.0012  -13.9155 C   0  0  0  0  0  0  0  0  0  0  0  0
   21.5382   -6.3594  -15.2533 C   0  0  2  0  0  0  0  0  0  0  0  0
   22.5578   -7.1244  -15.9027 N   0  0  0  0  0  0  0  0  0  0  0  0
   21.9486   -4.9712  -14.9687 C   0  0  0  0  0  0  0  0  0  0  0  0
   23.1135   -4.5706  -15.1919 O   0  0  0  0  0  0  0  0  0  0  0  0
   21.0291   -4.0883  -14.4434 O   0  0  0  0  0  0  0  0  0  0  0  0
  2  1  1  0
  3  2  1  0
  3  4  1  1
  5  7  1  0
  5  3  1  0
  5  6  1  6
  7 11  1  0
  8  7  2  0
 10  9  1  6
 10 12  1  0
 11 10  1  0
 12 13  2  0
 12 17  1  0
 14 15  1  0
 16 15  1  1
 16 18  1  0
 17 16  1  0
 18 20  1  0
 19 18  2  0
M  END
$$$$
