IAS.pdb
     RDKit          3D

 20 19  0  0  1  0  0  0  0  0999 V2000
   26.0151  -16.9329  -16.2033 C   0  0  0  0  0  0  0  0  0  0  0  0
   26.2028  -15.4624  -15.9313 C   0  0  0  0  0  0  0  0  0  0  0  0
   24.9447  -14.6696  -16.1585 C   0  0  2  0  0  0  0  0  0  0  0  0
   24.3287  -14.9695  -17.4995 C   0  0  0  0  0  0  0  0  0  0  0  0
   25.2263  -13.2041  -15.9578 C   0  0  2  0  0  0  0  0  0  0  0  0
   25.8933  -13.0667  -14.6781 N   0  0  0  0  0  0  0  0  0  0  0  0
   24.0380  -12.3636  -15.9737 C   0  0  0  0  0  0  0  0  0  0  0  0
   23.5198  -11.9919  -17.0529 O   0  0  0  0  0  0  0  0  0  0  0  0
   21.5104  -11.4019  -13.4598 C   0  0  0  0  0  0  0  0  0  0  0  0
   22.1975  -11.1688  -14.7727 C   0  0  2  0  0  0  0  0  0  0  0  0
   23.4398  -11.9465  -14.7610 N   0  0  0  0  0  0  0  0  0  0  0  0
   22.5242   -9.7476  -15.0089 C   0  0  0  0  0  0  0  0  0  0  0  0
   23.6078   -9.2126  -14.6991 O   0  0  0  0  0  0  0  0  0  0  0  0
   19.3826   -7.2956  -16.3769 O   0  0  0  0  0  0  0  0  0  0  0  0
   20.6431   -7.0769  -16.9032 C   0  0  0  0  0  0  0  0  0  0  0  0
   21.7291   -7.5487  -15.9418 C   0  0  2  0  0  0  0  0  0  0  0  0
   21.5345   -8.9319  -15.6330 N   0  0  0  0  0  0  0  0  0  0  0  0
   21.6610   -6.6754  -14.7547 C   0  0  0  0  0  0  0  0  0  0  0  0
   21.2243   -7.0899  -13.6571 O   0  0  0  0  0  0  0  0  0  0  0  0
   22.0881   -5.3681  -14.8515 O   0  0  0  0  0  0  0  0  0  0  0  0
  2  1  1  0
  3  2  1  0
  3  4  1  6
  5  7  1  0
  5  3  1  0
  5  6  1  1
  7 11  1  0
  8  7  2  0
 10  9  1  1
 10 12  1  0
 11 10  1  0
 12 13  2  0
 12 17  1  0
 14 15  1  0
 16 15  1  6
 16 18  1  0
 17 16  1  0
 18 20  1  0
 19 18  2  0
M  END
$$$$
