IAS.pdb
     RDKit          3D

 20 19  0  0  1  0  0  0  0  0999 V2000
   17.4605  -14.0602  -18.6800 C   0  0  0  0  0  0  0  0  0  0  0  0
   18.5906  -13.0666  -18.7646 C   0  0  0  0  0  0  0  0  0  0  0  0
   18.8028  -12.3247  -17.4732 C   0  0  2  0  0  0  0  0  0  0  0  0
   17.5478  -11.6307  -17.0138 C   0  0  0  0  0  0  0  0  0  0  0  0
   19.9726  -11.3870  -17.6142 C   0  0  2  0  0  0  0  0  0  0  0  0
   21.0920  -12.1680  -18.1026 N   0  0  0  0  0  0  0  0  0  0  0  0
   20.3533  -10.7226  -16.3762 C   0  0  0  0  0  0  0  0  0  0  0  0
   19.5020  -10.1418  -15.6625 O   0  0  0  0  0  0  0  0  0  0  0  0
   23.5156  -10.3157  -14.4466 C   0  0  0  0  0  0  0  0  0  0  0  0
   22.1233   -9.8955  -14.8141 C   0  0  2  0  0  0  0  0  0  0  0  0
   21.7029  -10.7195  -15.9510 N   0  0  0  0  0  0  0  0  0  0  0  0
   22.0318   -8.4711  -15.1948 C   0  0  0  0  0  0  0  0  0  0  0  0
   22.2102   -8.0378  -16.3511 O   0  0  0  0  0  0  0  0  0  0  0  0
   19.3627   -6.1458  -15.0493 O   0  0  0  0  0  0  0  0  0  0  0  0
   20.2537   -5.6033  -14.1407 C   0  0  0  0  0  0  0  0  0  0  0  0
   21.6694   -6.1142  -14.3879 C   0  0  2  0  0  0  0  0  0  0  0  0
   21.7185   -7.5275  -14.1722 N   0  0  0  0  0  0  0  0  0  0  0  0
   22.5617   -5.3597  -13.4874 C   0  0  0  0  0  0  0  0  0  0  0  0
   23.0830   -5.8911  -12.4809 O   0  0  0  0  0  0  0  0  0  0  0  0
   22.8318   -4.0348  -13.7570 O   0  0  0  0  0  0  0  0  0  0  0  0
  2  1  1  0
  3  2  1  0
  3  4  1  6
  5  7  1  0
  5  3  1  0
  5  6  1  1
  7 11  1  0
  8  7  2  0
 10  9  1  6
 10 12  1  0
 11 10  1  0
 12 13  2  0
 12 17  1  0
 14 15  1  0
 16 15  1  1
 16 18  1  0
 17 16  1  0
 18 20  1  0
 19 18  2  0
M  END
$$$$
