IAS.pdb
     RDKit          3D

 20 19  0  0  1  0  0  0  0  0999 V2000
   25.4037  -14.9175  -15.4376 C   0  0  0  0  0  0  0  0  0  0  0  0
   23.9682  -14.5952  -15.7651 C   0  0  0  0  0  0  0  0  0  0  0  0
   23.7243  -13.1160  -15.8898 C   0  0  2  0  0  0  0  0  0  0  0  0
   24.0822  -12.3812  -14.6250 C   0  0  0  0  0  0  0  0  0  0  0  0
   22.3042  -12.8720  -16.3271 C   0  0  2  0  0  0  0  0  0  0  0  0
   22.0800  -13.6658  -17.5192 N   0  0  0  0  0  0  0  0  0  0  0  0
   22.0028  -11.4771  -16.6141 C   0  0  0  0  0  0  0  0  0  0  0  0
   22.6424  -10.8403  -17.4840 O   0  0  0  0  0  0  0  0  0  0  0  0
   19.1125   -9.3170  -16.0762 C   0  0  0  0  0  0  0  0  0  0  0  0
   20.5950   -9.4382  -16.2707 C   0  0  2  0  0  0  0  0  0  0  0  0
   20.9735  -10.8076  -15.9109 N   0  0  0  0  0  0  0  0  0  0  0  0
   21.3657   -8.4932  -15.4368 C   0  0  0  0  0  0  0  0  0  0  0  0
   21.7335   -8.7236  -14.2671 O   0  0  0  0  0  0  0  0  0  0  0  0
   23.6736   -4.1816  -15.7142 O   0  0  0  0  0  0  0  0  0  0  0  0
   22.8478   -5.1185  -16.3091 C   0  0  0  0  0  0  0  0  0  0  0  0
   22.5661   -6.2816  -15.3635 C   0  0  2  0  0  0  0  0  0  0  0  0
   21.7129   -7.2327  -16.0068 N   0  0  0  0  0  0  0  0  0  0  0  0
   21.9743   -5.7072  -14.1403 C   0  0  0  0  0  0  0  0  0  0  0  0
   20.7407   -5.5252  -14.0291 O   0  0  0  0  0  0  0  0  0  0  0  0
   22.7968   -5.3602  -13.0896 O   0  0  0  0  0  0  0  0  0  0  0  0
  2  1  1  0
  3  2  1  0
  3  4  1  1
  5  7  1  0
  5  3  1  0
  5  6  1  6
  7 11  1  0
  8  7  2  0
 10  9  1  1
 10 12  1  0
 11 10  1  0
 12 13  2  0
 12 17  1  0
 14 15  1  0
 16 15  1  6
 16 18  1  0
 17 16  1  0
 18 20  1  0
 19 18  2  0
M  END
$$$$
