IAS.pdb
     RDKit          3D

 20 19  0  0  1  0  0  0  0  0999 V2000
   22.1886  -11.4686  -20.0551 C   0  0  0  0  0  0  0  0  0  0  0  0
   22.3060  -10.3927  -19.0061 C   0  0  0  0  0  0  0  0  0  0  0  0
   20.9692   -9.8307  -18.6057 C   0  0  2  0  0  0  0  0  0  0  0  0
   20.1458   -9.4377  -19.8038 C   0  0  0  0  0  0  0  0  0  0  0  0
   21.1667   -8.6978  -17.6336 C   0  0  2  0  0  0  0  0  0  0  0  0
   21.9036   -9.2266  -16.5027 N   0  0  0  0  0  0  0  0  0  0  0  0
   19.9273   -8.0975  -17.1620 C   0  0  0  0  0  0  0  0  0  0  0  0
   19.1372   -7.5320  -17.9540 O   0  0  0  0  0  0  0  0  0  0  0  0
   17.6622   -8.3796  -14.3935 C   0  0  0  0  0  0  0  0  0  0  0  0
   18.4035   -7.4347  -15.2923 C   0  0  2  0  0  0  0  0  0  0  0  0
   19.5878   -8.1410  -15.7890 N   0  0  0  0  0  0  0  0  0  0  0  0
   18.8350   -6.2013  -14.6031 C   0  0  0  0  0  0  0  0  0  0  0  0
   18.0877   -5.4849  -13.9068 O   0  0  0  0  0  0  0  0  0  0  0  0
   22.4948   -5.7041  -13.0989 O   0  0  0  0  0  0  0  0  0  0  0  0
   22.2170   -4.6960  -14.0045 C   0  0  0  0  0  0  0  0  0  0  0  0
   20.7156   -4.5676  -14.2398 C   0  0  2  0  0  0  0  0  0  0  0  0
   20.1972   -5.8024  -14.7429 N   0  0  0  0  0  0  0  0  0  0  0  0
   20.5212   -3.4373  -15.1677 C   0  0  0  0  0  0  0  0  0  0  0  0
   20.1784   -3.6149  -16.3585 O   0  0  0  0  0  0  0  0  0  0  0  0
   20.7210   -2.1498  -14.7164 O   0  0  0  0  0  0  0  0  0  0  0  0
  2  1  1  0
  3  2  1  0
  3  4  1  6
  5  7  1  0
  5  3  1  0
  5  6  1  1
  7 11  1  0
  8  7  2  0
 10  9  1  1
 10 12  1  0
 11 10  1  0
 12 13  2  0
 12 17  1  0
 14 15  1  0
 16 15  1  6
 16 18  1  0
 17 16  1  0
 18 20  1  0
 19 18  2  0
M  END
$$$$
