IAS.pdb
     RDKit          3D

 20 19  0  0  1  0  0  0  0  0999 V2000
   24.6331  -14.5653  -16.9065 C   0  0  0  0  0  0  0  0  0  0  0  0
   23.6143  -13.6776  -16.2391 C   0  0  0  0  0  0  0  0  0  0  0  0
   23.7771  -12.2302  -16.6155 C   0  0  2  0  0  0  0  0  0  0  0  0
   25.1537  -11.7174  -16.2844 C   0  0  0  0  0  0  0  0  0  0  0  0
   22.6805  -11.4157  -15.9819 C   0  0  2  0  0  0  0  0  0  0  0  0
   21.4201  -12.0176  -16.3700 N   0  0  0  0  0  0  0  0  0  0  0  0
   22.6833  -10.0127  -16.3699 C   0  0  0  0  0  0  0  0  0  0  0  0
   23.6376   -9.2577  -16.0691 O   0  0  0  0  0  0  0  0  0  0  0  0
   20.3952   -7.8054  -18.3216 C   0  0  0  0  0  0  0  0  0  0  0  0
   21.5248   -8.0292  -17.3602 C   0  0  2  0  0  0  0  0  0  0  0  0
   21.5998   -9.4697  -17.1003 N   0  0  0  0  0  0  0  0  0  0  0  0
   21.3402   -7.3198  -16.0776 C   0  0  0  0  0  0  0  0  0  0  0  0
   20.7532   -7.7978  -15.0859 O   0  0  0  0  0  0  0  0  0  0  0  0
   22.5432   -3.1716  -13.7775 O   0  0  0  0  0  0  0  0  0  0  0  0
   22.6354   -3.9646  -14.9073 C   0  0  0  0  0  0  0  0  0  0  0  0
   21.7404   -5.1940  -14.7899 C   0  0  2  0  0  0  0  0  0  0  0  0
   21.8683   -5.9997  -15.9651 N   0  0  0  0  0  0  0  0  0  0  0  0
   20.3660   -4.7053  -14.5698 C   0  0  0  0  0  0  0  0  0  0  0  0
   19.6248   -4.3742  -15.5228 O   0  0  0  0  0  0  0  0  0  0  0  0
   19.8804   -4.6091  -13.2829 O   0  0  0  0  0  0  0  0  0  0  0  0
  2  1  1  0
  3  2  1  0
  3  4  1  1
  5  7  1  0
  5  3  1  0
  5  6  1  6
  7 11  1  0
  8  7  2  0
 10  9  1  6
 10 12  1  0
 11 10  1  0
 12 13  2  0
 12 17  1  0
 14 15  1  0
 16 15  1  6
 16 18  1  0
 17 16  1  0
 18 20  1  0
 19 18  2  0
M  END
$$$$
