IAS.pdb
     RDKit          3D

 20 19  0  0  1  0  0  0  0  0999 V2000
   19.1174  -13.7542  -16.0156 C   0  0  0  0  0  0  0  0  0  0  0  0
   17.9534  -12.7975  -16.0499 C   0  0  0  0  0  0  0  0  0  0  0  0
   18.3876  -11.3593  -15.9714 C   0  0  2  0  0  0  0  0  0  0  0  0
   19.2465  -11.0993  -14.7621 C   0  0  0  0  0  0  0  0  0  0  0  0
   17.1805  -10.4615  -16.0365 C   0  0  2  0  0  0  0  0  0  0  0  0
   16.4258  -10.8421  -17.2142 N   0  0  0  0  0  0  0  0  0  0  0  0
   17.4989   -9.0428  -16.1068 C   0  0  0  0  0  0  0  0  0  0  0  0
   18.1184   -8.5641  -17.0858 O   0  0  0  0  0  0  0  0  0  0  0  0
   16.2131   -5.9799  -14.7322 C   0  0  0  0  0  0  0  0  0  0  0  0
   17.4436   -6.7433  -15.1240 C   0  0  2  0  0  0  0  0  0  0  0  0
   17.1121   -8.1696  -15.0627 N   0  0  0  0  0  0  0  0  0  0  0  0
   18.5936   -6.4800  -14.2349 C   0  0  0  0  0  0  0  0  0  0  0  0
   18.7852   -7.0512  -13.1424 O   0  0  0  0  0  0  0  0  0  0  0  0
   22.9929   -5.8315  -13.5237 O   0  0  0  0  0  0  0  0  0  0  0  0
   21.8546   -6.1208  -14.2546 C   0  0  0  0  0  0  0  0  0  0  0  0
   20.7167   -5.1697  -13.8983 C   0  0  2  0  0  0  0  0  0  0  0  0
   19.5494   -5.5074  -14.6531 N   0  0  0  0  0  0  0  0  0  0  0  0
   21.2014   -3.8017  -14.1626 C   0  0  0  0  0  0  0  0  0  0  0  0
   20.8371   -3.1582  -15.1727 O   0  0  0  0  0  0  0  0  0  0  0  0
   22.0786   -3.2121  -13.2772 O   0  0  0  0  0  0  0  0  0  0  0  0
  2  1  1  0
  3  2  1  0
  3  4  1  1
  5  7  1  0
  5  3  1  0
  5  6  1  6
  7 11  1  0
  8  7  2  0
 10  9  1  1
 10 12  1  0
 11 10  1  0
 12 13  2  0
 12 17  1  0
 14 15  1  0
 16 15  1  6
 16 18  1  0
 17 16  1  0
 18 20  1  0
 19 18  2  0
M  END
$$$$
