IAS.pdb
     RDKit          3D

 20 19  0  0  1  0  0  0  0  0999 V2000
   17.4930  -10.8567  -20.8796 C   0  0  0  0  0  0  0  0  0  0  0  0
   18.5305  -11.5468  -20.0317 C   0  0  0  0  0  0  0  0  0  0  0  0
   19.0439  -10.6698  -18.9225 C   0  0  2  0  0  0  0  0  0  0  0  0
   19.7217   -9.4346  -19.4540 C   0  0  0  0  0  0  0  0  0  0  0  0
   19.9281  -11.4755  -18.0078 C   0  0  2  0  0  0  0  0  0  0  0  0
   19.1612  -12.6269  -17.5746 N   0  0  0  0  0  0  0  0  0  0  0  0
   20.3984  -10.7438  -16.8407 C   0  0  0  0  0  0  0  0  0  0  0  0
   19.5941  -10.2042  -16.0450 O   0  0  0  0  0  0  0  0  0  0  0  0
   23.6636  -10.2419  -15.1541 C   0  0  0  0  0  0  0  0  0  0  0  0
   22.2653   -9.7997  -15.4693 C   0  0  2  0  0  0  0  0  0  0  0  0
   21.7843  -10.6266  -16.5798 N   0  0  0  0  0  0  0  0  0  0  0  0
   22.1841   -8.3775  -15.8607 C   0  0  0  0  0  0  0  0  0  0  0  0
   22.4943   -7.9374  -16.9861 O   0  0  0  0  0  0  0  0  0  0  0  0
   19.4530   -5.9308  -14.1840 O   0  0  0  0  0  0  0  0  0  0  0  0
   20.2164   -5.5929  -15.2870 C   0  0  0  0  0  0  0  0  0  0  0  0
   21.6659   -6.0321  -15.1070 C   0  0  2  0  0  0  0  0  0  0  0  0
   21.7198   -7.4446  -14.8868 N   0  0  0  0  0  0  0  0  0  0  0  0
   22.2156   -5.2496  -13.9836 C   0  0  0  0  0  0  0  0  0  0  0  0
   22.4974   -5.7823  -12.8864 O   0  0  0  0  0  0  0  0  0  0  0  0
   22.4261   -3.8962  -14.1413 O   0  0  0  0  0  0  0  0  0  0  0  0
  2  1  1  0
  3  2  1  0
  3  4  1  6
  5  7  1  0
  5  3  1  0
  5  6  1  1
  7 11  1  0
  8  7  2  0
 10  9  1  6
 10 12  1  0
 11 10  1  0
 12 13  2  0
 12 17  1  0
 14 15  1  0
 16 15  1  1
 16 18  1  0
 17 16  1  0
 18 20  1  0
 19 18  2  0
M  END
$$$$
