EWM.pdb
     RDKit          3D

 32 33  0  0  1  0  0  0  0  0999 V2000
   19.3097  -12.8676  -16.2861 N   0  0  0  0  0  0  0  0  0  0  0  0
   19.0415  -11.4641  -16.4854 C   0  0  1  0  0  0  0  0  0  0  0  0
   17.6824  -11.2827  -17.0860 C   0  0  0  0  0  0  0  0  0  0  0  0
   17.6763  -11.5760  -18.5526 C   0  0  0  0  0  0  0  0  0  0  0  0
   18.4681  -10.5464  -19.2737 C   0  0  0  0  0  0  0  0  0  0  0  0
   18.0092   -9.3797  -19.4018 O   0  0  0  0  0  0  0  0  0  0  0  0
   19.1636  -10.7960  -15.1554 C   0  0  0  0  0  0  0  0  0  0  0  0
   18.7091  -11.3184  -14.0951 O   0  0  0  0  0  0  0  0  0  0  0  0
   19.6919  -10.8744  -19.7942 O   0  0  0  0  0  0  0  0  0  0  0  0
   19.8042   -9.5204  -15.0003 N   0  0  0  0  0  0  0  0  0  0  0  0
   20.0213   -8.9312  -13.6908 C   0  0  1  0  0  0  0  0  0  0  0  0
   21.2958   -8.1618  -13.7268 C   0  0  0  0  0  0  0  0  0  0  0  0
   22.5004   -9.0205  -13.8580 C   0  0  0  0  0  0  0  0  0  0  0  0
   22.7503  -10.2554  -13.2885 C   0  0  0  0  0  0  0  0  0  0  0  0
   23.9707  -10.6822  -13.6742 N   0  0  0  0  0  0  0  0  0  0  0  0
   24.5430   -9.7767  -14.4797 C   0  0  0  0  0  0  0  0  0  0  0  0
   25.7655   -9.7623  -15.1161 C   0  0  0  0  0  0  0  0  0  0  0  0
   26.0649   -8.6625  -15.8915 C   0  0  0  0  0  0  0  0  0  0  0  0
   25.1565   -7.6068  -16.0214 C   0  0  0  0  0  0  0  0  0  0  0  0
   23.9455   -7.6528  -15.3732 C   0  0  0  0  0  0  0  0  0  0  0  0
   23.6389   -8.7409  -14.6006 C   0  0  0  0  0  0  0  0  0  0  0  0
   18.9041   -7.9987  -13.3706 C   0  0  0  0  0  0  0  0  0  0  0  0
   18.3919   -7.3231  -14.2822 O   0  0  0  0  0  0  0  0  0  0  0  0
   14.3822   -6.1281   -7.0812 C   0  0  0  0  0  0  0  0  0  0  0  0
   15.6233   -7.1946   -7.8631 S   0  0  0  0  0  0  0  0  0  0  0  0
   15.9704   -6.6693   -9.5256 C   0  0  0  0  0  0  0  0  0  0  0  0
   16.8799   -7.5019  -10.3338 C   0  0  0  0  0  0  0  0  0  0  0  0
   17.2389   -7.0733  -11.7052 C   0  0  2  0  0  0  0  0  0  0  0  0
   18.4412   -7.8910  -12.0491 N   0  0  0  0  0  0  0  0  0  0  0  0
   17.6895   -5.6812  -11.8698 C   0  0  0  0  0  0  0  0  0  0  0  0
   16.9119   -4.7494  -12.1705 O   0  0  0  0  0  0  0  0  0  0  0  0
   19.0321   -5.2785  -11.7031 O   0  0  0  0  0  0  0  0  0  0  0  0
  2  1  1  1
  3  2  1  0
  3  4  1  0
  4  5  1  0
  5  9  1  0
  6  5  2  0
  7  2  1  0
  8  7  2  0
 10  7  1  0
 11 10  1  0
 11 12  1  6
 12 13  1  0
 13 21  1  0
 13 14  2  0
 14 15  1  0
 16 17  2  0
 16 15  1  0
 18 17  1  0
 19 18  2  0
 20 19  1  0
 20 21  2  0
 21 16  1  0
 22 23  2  0
 22 11  1  0
 25 26  1  0
 25 24  1  0
 26 27  1  0
 28 27  1  1
 28 29  1  0
 29 22  1  0
 30 32  1  0
 30 28  1  0
 31 30  2  0
M  END
$$$$
