EWM.pdb
     RDKit          3D

 32 33  0  0  1  0  0  0  0  0999 V2000
   25.4841  -18.5185  -16.9211 N   0  0  0  0  0  0  0  0  0  0  0  0
   25.7090  -19.9310  -17.1101 C   0  0  1  0  0  0  0  0  0  0  0  0
   27.0922  -20.1639  -17.6327 C   0  0  0  0  0  0  0  0  0  0  0  0
   27.4236  -19.2448  -18.7651 C   0  0  0  0  0  0  0  0  0  0  0  0
   27.8303  -17.9188  -18.2328 C   0  0  0  0  0  0  0  0  0  0  0  0
   27.0475  -16.9364  -18.3341 O   0  0  0  0  0  0  0  0  0  0  0  0
   25.4851  -20.5961  -15.7918 C   0  0  0  0  0  0  0  0  0  0  0  0
   25.6309  -21.8440  -15.6337 O   0  0  0  0  0  0  0  0  0  0  0  0
   29.0547  -17.7749  -17.6357 O   0  0  0  0  0  0  0  0  0  0  0  0
   25.0909  -19.8587  -14.6246 N   0  0  0  0  0  0  0  0  0  0  0  0
   24.8423  -20.5183  -13.3549 C   0  0  1  0  0  0  0  0  0  0  0  0
   25.4674  -19.7074  -12.2734 C   0  0  0  0  0  0  0  0  0  0  0  0
   26.4099  -20.4807  -11.4253 C   0  0  0  0  0  0  0  0  0  0  0  0
   27.2423  -21.5246  -11.7849 C   0  0  0  0  0  0  0  0  0  0  0  0
   27.9313  -21.9355  -10.7001 N   0  0  0  0  0  0  0  0  0  0  0  0
   27.5883  -21.2036   -9.6310 C   0  0  0  0  0  0  0  0  0  0  0  0
   28.0124  -21.2453   -8.3202 C   0  0  0  0  0  0  0  0  0  0  0  0
   27.4559  -20.3387   -7.4435 C   0  0  0  0  0  0  0  0  0  0  0  0
   26.4984  -19.4157   -7.8768 C   0  0  0  0  0  0  0  0  0  0  0  0
   26.0974  -19.4007   -9.1913 C   0  0  0  0  0  0  0  0  0  0  0  0
   26.6443  -20.2973  -10.0699 C   0  0  0  0  0  0  0  0  0  0  0  0
   23.3745  -20.5971  -13.1112 C   0  0  0  0  0  0  0  0  0  0  0  0
   22.6700  -19.5869  -13.2922 O   0  0  0  0  0  0  0  0  0  0  0  0
   16.9851  -24.5275  -13.0074 C   0  0  0  0  0  0  0  0  0  0  0  0
   18.6405  -23.9654  -13.4901 S   0  0  0  0  0  0  0  0  0  0  0  0
   19.7285  -23.8822  -12.0867 C   0  0  0  0  0  0  0  0  0  0  0  0
   21.0981  -23.3830  -12.3075 C   0  0  0  0  0  0  0  0  0  0  0  0
   21.3368  -21.9251  -12.4133 C   0  0  2  0  0  0  0  0  0  0  0  0
   22.8018  -21.8053  -12.6814 N   0  0  0  0  0  0  0  0  0  0  0  0
   21.1260  -21.1270  -11.1940 C   0  0  0  0  0  0  0  0  0  0  0  0
   21.9787  -21.0452  -10.2832 O   0  0  0  0  0  0  0  0  0  0  0  0
   19.9491  -20.3877  -10.9479 O   0  0  0  0  0  0  0  0  0  0  0  0
  2  1  1  1
  3  2  1  0
  3  4  1  0
  4  5  1  0
  5  9  1  0
  6  5  2  0
  7  2  1  0
  8  7  2  0
 10  7  1  0
 11 10  1  0
 11 12  1  1
 12 13  1  0
 13 21  1  0
 13 14  2  0
 14 15  1  0
 16 17  2  0
 16 15  1  0
 18 17  1  0
 19 18  2  0
 20 19  1  0
 20 21  2  0
 21 16  1  0
 22 23  2  0
 22 11  1  0
 25 26  1  0
 25 24  1  0
 26 27  1  0
 28 27  1  1
 28 29  1  0
 29 22  1  0
 30 32  1  0
 30 28  1  0
 31 30  2  0
M  END
$$$$
