EWM.pdb
     RDKit          3D

 32 33  0  0  1  0  0  0  0  0999 V2000
   27.6897  -22.2112  -15.4362 N   0  0  0  0  0  0  0  0  0  0  0  0
   26.7162  -21.1764  -15.1852 C   0  0  1  0  0  0  0  0  0  0  0  0
   25.8726  -20.9607  -16.4027 C   0  0  0  0  0  0  0  0  0  0  0  0
   26.6557  -20.3573  -17.5251 C   0  0  0  0  0  0  0  0  0  0  0  0
   26.9536  -18.9340  -17.2210 C   0  0  0  0  0  0  0  0  0  0  0  0
   26.0109  -18.1027  -17.1293 O   0  0  0  0  0  0  0  0  0  0  0  0
   25.9057  -21.6064  -14.0068 C   0  0  0  0  0  0  0  0  0  0  0  0
   25.3540  -22.7447  -13.9482 O   0  0  0  0  0  0  0  0  0  0  0  0
   28.2523  -18.5366  -17.0428 O   0  0  0  0  0  0  0  0  0  0  0  0
   25.7041  -20.7533  -12.8696 N   0  0  0  0  0  0  0  0  0  0  0  0
   24.8796  -21.1632  -11.7466 C   0  0  1  0  0  0  0  0  0  0  0  0
   25.3466  -20.4398  -10.5316 C   0  0  0  0  0  0  0  0  0  0  0  0
   26.6662  -20.9081  -10.0363 C   0  0  0  0  0  0  0  0  0  0  0  0
   27.5486  -21.7940  -10.6267 C   0  0  0  0  0  0  0  0  0  0  0  0
   28.6310  -21.9354   -9.8339 N   0  0  0  0  0  0  0  0  0  0  0  0
   28.5019  -21.1763   -8.7369 C   0  0  0  0  0  0  0  0  0  0  0  0
   29.3320  -20.9876   -7.6528 C   0  0  0  0  0  0  0  0  0  0  0  0
   28.9040  -20.1229   -6.6682 C   0  0  0  0  0  0  0  0  0  0  0  0
   27.6733  -19.4666   -6.7741 C   0  0  0  0  0  0  0  0  0  0  0  0
   26.8694  -19.6770   -7.8689 C   0  0  0  0  0  0  0  0  0  0  0  0
   27.2856  -20.5342   -8.8522 C   0  0  0  0  0  0  0  0  0  0  0  0
   23.4592  -20.7974  -12.0092 C   0  0  0  0  0  0  0  0  0  0  0  0
   23.1889  -19.6542  -12.4210 O   0  0  0  0  0  0  0  0  0  0  0  0
   16.6767  -24.4955  -13.7185 C   0  0  0  0  0  0  0  0  0  0  0  0
   18.4375  -24.5449  -13.2870 S   0  0  0  0  0  0  0  0  0  0  0  0
   19.0358  -22.9342  -12.8312 C   0  0  0  0  0  0  0  0  0  0  0  0
   20.4523  -22.8121  -12.4410 C   0  0  0  0  0  0  0  0  0  0  0  0
   21.0264  -21.4717  -12.1818 C   0  0  2  0  0  0  0  0  0  0  0  0
   22.4429  -21.7418  -11.7906 N   0  0  0  0  0  0  0  0  0  0  0  0
   20.4736  -20.7209  -11.0422 C   0  0  0  0  0  0  0  0  0  0  0  0
   20.9147  -20.8364   -9.8780 O   0  0  0  0  0  0  0  0  0  0  0  0
   19.4028  -19.8093  -11.1636 O   0  0  0  0  0  0  0  0  0  0  0  0
  2  1  1  6
  3  2  1  0
  3  4  1  0
  4  5  1  0
  5  9  1  0
  6  5  2  0
  7  2  1  0
  8  7  2  0
 10  7  1  0
 11 10  1  0
 11 12  1  1
 12 13  1  0
 13 21  1  0
 13 14  2  0
 14 15  1  0
 16 17  2  0
 16 15  1  0
 18 17  1  0
 19 18  2  0
 20 19  1  0
 20 21  2  0
 21 16  1  0
 22 23  2  0
 22 11  1  0
 25 26  1  0
 25 24  1  0
 26 27  1  0
 28 27  1  1
 28 29  1  0
 29 22  1  0
 30 32  1  0
 30 28  1  0
 31 30  2  0
M  END
$$$$
