EWM.pdb
     RDKit          3D

 32 33  0  0  1  0  0  0  0  0999 V2000
   25.7365  -25.3947  -15.8574 N   0  0  0  0  0  0  0  0  0  0  0  0
   25.2054  -24.0758  -16.1028 C   0  0  1  0  0  0  0  0  0  0  0  0
   23.8615  -24.1780  -16.7540 C   0  0  0  0  0  0  0  0  0  0  0  0
   23.6803  -25.4848  -17.4587 C   0  0  0  0  0  0  0  0  0  0  0  0
   23.6588  -25.2641  -18.9276 C   0  0  0  0  0  0  0  0  0  0  0  0
   24.4913  -25.8599  -19.6626 O   0  0  0  0  0  0  0  0  0  0  0  0
   25.1423  -23.3714  -14.7875 C   0  0  0  0  0  0  0  0  0  0  0  0
   25.3723  -23.9660  -13.6933 O   0  0  0  0  0  0  0  0  0  0  0  0
   22.7332  -24.4134  -19.4716 O   0  0  0  0  0  0  0  0  0  0  0  0
   24.8166  -21.9766  -14.6859 N   0  0  0  0  0  0  0  0  0  0  0  0
   24.9115  -21.2621  -13.4252 C   0  0  1  0  0  0  0  0  0  0  0  0
   25.6356  -19.9828  -13.6631 C   0  0  0  0  0  0  0  0  0  0  0  0
   27.0976  -20.0777  -13.4196 C   0  0  0  0  0  0  0  0  0  0  0  0
   28.1401  -19.7783  -14.2771 C   0  0  0  0  0  0  0  0  0  0  0  0
   29.3112  -20.0070  -13.6474 N   0  0  0  0  0  0  0  0  0  0  0  0
   29.0870  -20.4479  -12.4018 C   0  0  0  0  0  0  0  0  0  0  0  0
   29.9510  -20.8102  -11.3908 C   0  0  0  0  0  0  0  0  0  0  0  0
   29.3957  -21.2297  -10.2008 C   0  0  0  0  0  0  0  0  0  0  0  0
   28.0078  -21.2823  -10.0351 C   0  0  0  0  0  0  0  0  0  0  0  0
   27.1741  -20.9138  -11.0637 C   0  0  0  0  0  0  0  0  0  0  0  0
   27.7160  -20.4957  -12.2497 C   0  0  0  0  0  0  0  0  0  0  0  0
   23.5437  -20.9551  -12.9202 C   0  0  0  0  0  0  0  0  0  0  0  0
   22.6002  -20.8658  -13.7274 O   0  0  0  0  0  0  0  0  0  0  0  0
   19.5609  -23.0282   -8.1167 C   0  0  0  0  0  0  0  0  0  0  0  0
   20.7638  -21.8269   -7.4849 S   0  0  0  0  0  0  0  0  0  0  0  0
   20.9917  -20.4816   -8.6243 C   0  0  0  0  0  0  0  0  0  0  0  0
   22.1637  -20.5284   -9.5176 C   0  0  0  0  0  0  0  0  0  0  0  0
   21.9642  -20.5516  -10.9849 C   0  0  2  0  0  0  0  0  0  0  0  0
   23.3324  -20.7702  -11.5441 N   0  0  0  0  0  0  0  0  0  0  0  0
   21.5124  -19.2994  -11.6141 C   0  0  0  0  0  0  0  0  0  0  0  0
   22.2819  -18.3405  -11.8415 O   0  0  0  0  0  0  0  0  0  0  0  0
   20.1777  -19.0730  -12.0140 O   0  0  0  0  0  0  0  0  0  0  0  0
  2  1  1  1
  3  2  1  0
  3  4  1  0
  4  5  1  0
  5  9  1  0
  6  5  2  0
  7  2  1  0
  8  7  2  0
 10  7  1  0
 11 10  1  0
 11 12  1  6
 12 13  1  0
 13 21  1  0
 13 14  2  0
 14 15  1  0
 16 17  2  0
 16 15  1  0
 18 17  1  0
 19 18  2  0
 20 19  1  0
 20 21  2  0
 21 16  1  0
 22 23  2  0
 22 11  1  0
 25 26  1  0
 25 24  1  0
 26 27  1  0
 28 27  1  1
 28 29  1  0
 29 22  1  0
 30 32  1  0
 30 28  1  0
 31 30  2  0
M  END
$$$$
