EWM.pdb
     RDKit          3D

 32 33  0  0  1  0  0  0  0  0999 V2000
   28.2049  -22.5394  -15.3163 N   0  0  0  0  0  0  0  0  0  0  0  0
   27.9641  -21.2080  -14.8152 C   0  0  1  0  0  0  0  0  0  0  0  0
   27.2353  -20.3985  -15.8419 C   0  0  0  0  0  0  0  0  0  0  0  0
   28.1031  -19.3326  -16.4317 C   0  0  0  0  0  0  0  0  0  0  0  0
   28.5955  -19.7667  -17.7644 C   0  0  0  0  0  0  0  0  0  0  0  0
   27.9406  -19.4727  -18.8002 O   0  0  0  0  0  0  0  0  0  0  0  0
   27.1850  -21.3450  -13.5485 C   0  0  0  0  0  0  0  0  0  0  0  0
   26.0048  -21.8036  -13.5301 O   0  0  0  0  0  0  0  0  0  0  0  0
   29.7588  -20.4841  -17.8563 O   0  0  0  0  0  0  0  0  0  0  0  0
   27.7291  -20.9644  -12.2754 N   0  0  0  0  0  0  0  0  0  0  0  0
   26.9485  -21.0594  -11.0544 C   0  0  1  0  0  0  0  0  0  0  0  0
   27.7522  -20.4907   -9.9371 C   0  0  0  0  0  0  0  0  0  0  0  0
   27.0059  -20.4070   -8.6558 C   0  0  0  0  0  0  0  0  0  0  0  0
   25.6615  -20.6284   -8.4202 C   0  0  0  0  0  0  0  0  0  0  0  0
   25.4058  -20.4449   -7.1082 N   0  0  0  0  0  0  0  0  0  0  0  0
   26.5305  -20.1092   -6.4613 C   0  0  0  0  0  0  0  0  0  0  0  0
   26.7721  -19.8259   -5.1342 C   0  0  0  0  0  0  0  0  0  0  0  0
   28.0655  -19.5091   -4.7777 C   0  0  0  0  0  0  0  0  0  0  0  0
   29.0868  -19.4790   -5.7330 C   0  0  0  0  0  0  0  0  0  0  0  0
   28.8119  -19.7669   -7.0485 C   0  0  0  0  0  0  0  0  0  0  0  0
   27.5302  -20.0827   -7.4126 C   0  0  0  0  0  0  0  0  0  0  0  0
   25.6953  -20.2664  -11.1991 C   0  0  0  0  0  0  0  0  0  0  0  0
   25.7682  -19.0419  -11.4107 O   0  0  0  0  0  0  0  0  0  0  0  0
   23.4444  -18.6843  -15.8735 C   0  0  0  0  0  0  0  0  0  0  0  0
   21.8907  -19.3817  -15.2500 S   0  0  0  0  0  0  0  0  0  0  0  0
   21.9056  -19.5082  -13.4769 C   0  0  0  0  0  0  0  0  0  0  0  0
   23.1166  -20.0537  -12.8368 C   0  0  0  0  0  0  0  0  0  0  0  0
   23.1718  -20.1767  -11.3620 C   0  0  2  0  0  0  0  0  0  0  0  0
   24.4489  -20.9052  -11.0958 N   0  0  0  0  0  0  0  0  0  0  0  0
   22.1398  -21.0122  -10.7257 C   0  0  0  0  0  0  0  0  0  0  0  0
   21.1845  -20.5314  -10.0779 O   0  0  0  0  0  0  0  0  0  0  0  0
   22.1381  -22.4223  -10.7913 O   0  0  0  0  0  0  0  0  0  0  0  0
  2  1  1  6
  3  2  1  0
  3  4  1  0
  4  5  1  0
  5  9  1  0
  6  5  2  0
  7  2  1  0
  8  7  2  0
 10  7  1  0
 11 10  1  0
 11 12  1  1
 12 13  1  0
 13 21  1  0
 13 14  2  0
 14 15  1  0
 16 17  2  0
 16 15  1  0
 18 17  1  0
 19 18  2  0
 20 19  1  0
 20 21  2  0
 21 16  1  0
 22 23  2  0
 22 11  1  0
 25 26  1  0
 25 24  1  0
 26 27  1  0
 28 27  1  6
 28 29  1  0
 29 22  1  0
 30 32  1  0
 30 28  1  0
 31 30  2  0
M  END
$$$$
