EWM.pdb
     RDKit          3D

 32 33  0  0  1  0  0  0  0  0999 V2000
   17.4897  -12.4799  -15.8752 N   0  0  0  0  0  0  0  0  0  0  0  0
   16.5223  -11.4720  -15.5150 C   0  0  1  0  0  0  0  0  0  0  0  0
   15.2786  -12.1199  -14.9913 C   0  0  0  0  0  0  0  0  0  0  0  0
   14.1473  -12.0258  -15.9651 C   0  0  0  0  0  0  0  0  0  0  0  0
   14.1341  -13.2287  -16.8368 C   0  0  0  0  0  0  0  0  0  0  0  0
   14.1684  -13.0946  -18.0895 O   0  0  0  0  0  0  0  0  0  0  0  0
   17.1644  -10.5830  -14.5013 C   0  0  0  0  0  0  0  0  0  0  0  0
   17.6285  -11.0301  -13.4112 O   0  0  0  0  0  0  0  0  0  0  0  0
   14.0844  -14.4751  -16.2710 O   0  0  0  0  0  0  0  0  0  0  0  0
   17.2935   -9.1673  -14.7033 N   0  0  0  0  0  0  0  0  0  0  0  0
   17.7962   -8.2917  -13.6595 C   0  0  1  0  0  0  0  0  0  0  0  0
   18.7947   -7.3661  -14.2626 C   0  0  0  0  0  0  0  0  0  0  0  0
   20.0956   -8.0161  -14.5641 C   0  0  0  0  0  0  0  0  0  0  0  0
   20.7063   -8.2048  -15.7902 C   0  0  0  0  0  0  0  0  0  0  0  0
   21.8827   -8.8394  -15.6060 N   0  0  0  0  0  0  0  0  0  0  0  0
   22.0779   -9.0803  -14.3021 C   0  0  0  0  0  0  0  0  0  0  0  0
   23.1140   -9.6931  -13.6308 C   0  0  0  0  0  0  0  0  0  0  0  0
   23.0144   -9.7870  -12.2590 C   0  0  0  0  0  0  0  0  0  0  0  0
   21.9010   -9.2770  -11.5833 C   0  0  0  0  0  0  0  0  0  0  0  0
   20.8849   -8.6715  -12.2832 C   0  0  0  0  0  0  0  0  0  0  0  0
   20.9745   -8.5734  -13.6460 C   0  0  0  0  0  0  0  0  0  0  0  0
   16.6739   -7.4895  -13.0962 C   0  0  0  0  0  0  0  0  0  0  0  0
   15.7861   -7.0625  -13.8572 O   0  0  0  0  0  0  0  0  0  0  0  0
   12.1034   -6.8224   -6.8286 C   0  0  0  0  0  0  0  0  0  0  0  0
   13.3646   -7.6817   -7.8084 S   0  0  0  0  0  0  0  0  0  0  0  0
   13.9817   -6.6474   -9.1159 C   0  0  0  0  0  0  0  0  0  0  0  0
   15.0262   -7.2021   -9.9963 C   0  0  0  0  0  0  0  0  0  0  0  0
   15.5461   -6.3864  -11.1178 C   0  0  2  0  0  0  0  0  0  0  0  0
   16.6283   -7.2237  -11.7180 N   0  0  0  0  0  0  0  0  0  0  0  0
   16.2185   -5.1246  -10.7660 C   0  0  0  0  0  0  0  0  0  0  0  0
   17.4618   -5.0203  -10.6850 O   0  0  0  0  0  0  0  0  0  0  0  0
   15.5219   -3.9280  -10.4913 O   0  0  0  0  0  0  0  0  0  0  0  0
  2  1  1  1
  3  2  1  0
  3  4  1  0
  4  5  1  0
  5  9  1  0
  6  5  2  0
  7  2  1  0
  8  7  2  0
 10  7  1  0
 11 10  1  0
 11 12  1  6
 12 13  1  0
 13 21  1  0
 13 14  2  0
 14 15  1  0
 16 17  2  0
 16 15  1  0
 18 17  1  0
 19 18  2  0
 20 19  1  0
 20 21  2  0
 21 16  1  0
 22 23  2  0
 22 11  1  0
 25 26  1  0
 25 24  1  0
 26 27  1  0
 28 27  1  1
 28 29  1  0
 29 22  1  0
 30 32  1  0
 30 28  1  0
 31 30  2  0
M  END
$$$$
