EWM.pdb
     RDKit          3D

 32 33  0  0  1  0  0  0  0  0999 V2000
   28.1389  -21.9431  -15.3425 N   0  0  0  0  0  0  0  0  0  0  0  0
   27.1873  -20.8899  -15.0841 C   0  0  1  0  0  0  0  0  0  0  0  0
   26.4700  -20.5266  -16.3466 C   0  0  0  0  0  0  0  0  0  0  0  0
   27.3659  -19.8218  -17.3150 C   0  0  0  0  0  0  0  0  0  0  0  0
   27.5532  -18.4107  -16.8898 C   0  0  0  0  0  0  0  0  0  0  0  0
   26.5474  -17.6905  -16.6490 O   0  0  0  0  0  0  0  0  0  0  0  0
   26.2542  -21.3846  -14.0282 C   0  0  0  0  0  0  0  0  0  0  0  0
   25.7846  -22.5606  -14.0416 O   0  0  0  0  0  0  0  0  0  0  0  0
   28.8192  -17.9034  -16.7632 O   0  0  0  0  0  0  0  0  0  0  0  0
   25.8340  -20.5549  -12.9342 N   0  0  0  0  0  0  0  0  0  0  0  0
   24.9548  -21.0555  -11.8924 C   0  0  1  0  0  0  0  0  0  0  0  0
   25.3148  -20.3865  -10.6116 C   0  0  0  0  0  0  0  0  0  0  0  0
   26.6629  -20.7570  -10.1105 C   0  0  0  0  0  0  0  0  0  0  0  0
   27.6011  -21.5943  -10.6856 C   0  0  0  0  0  0  0  0  0  0  0  0
   28.6915  -21.6484   -9.8928 N   0  0  0  0  0  0  0  0  0  0  0  0
   28.5140  -20.8778   -8.8107 C   0  0  0  0  0  0  0  0  0  0  0  0
   29.3311  -20.6134   -7.7326 C   0  0  0  0  0  0  0  0  0  0  0  0
   28.8482  -19.7593   -6.7642 C   0  0  0  0  0  0  0  0  0  0  0  0
   27.5768  -19.1878   -6.8800 C   0  0  0  0  0  0  0  0  0  0  0  0
   26.7872  -19.4723   -7.9683 C   0  0  0  0  0  0  0  0  0  0  0  0
   27.2579  -20.3196   -8.9356 C   0  0  0  0  0  0  0  0  0  0  0  0
   23.5416  -20.7241  -12.2288 C   0  0  0  0  0  0  0  0  0  0  0  0
   23.2695  -19.5968  -12.6812 O   0  0  0  0  0  0  0  0  0  0  0  0
   17.5121  -24.7193  -14.9303 C   0  0  0  0  0  0  0  0  0  0  0  0
   18.7244  -24.6036  -13.5864 S   0  0  0  0  0  0  0  0  0  0  0  0
   19.4694  -22.9907  -13.5264 C   0  0  0  0  0  0  0  0  0  0  0  0
   20.4820  -22.7395  -12.4846 C   0  0  0  0  0  0  0  0  0  0  0  0
   21.1083  -21.4015  -12.3811 C   0  0  2  0  0  0  0  0  0  0  0  0
   22.5339  -21.6826  -12.0331 N   0  0  0  0  0  0  0  0  0  0  0  0
   20.6360  -20.5290  -11.2931 C   0  0  0  0  0  0  0  0  0  0  0  0
   21.0812  -20.6004  -10.1269 O   0  0  0  0  0  0  0  0  0  0  0  0
   19.6444  -19.5401  -11.4704 O   0  0  0  0  0  0  0  0  0  0  0  0
  2  1  1  6
  3  2  1  0
  3  4  1  0
  4  5  1  0
  5  9  1  0
  6  5  2  0
  7  2  1  0
  8  7  2  0
 10  7  1  0
 11 10  1  0
 11 12  1  1
 12 13  1  0
 13 21  1  0
 13 14  2  0
 14 15  1  0
 16 17  2  0
 16 15  1  0
 18 17  1  0
 19 18  2  0
 20 19  1  0
 20 21  2  0
 21 16  1  0
 22 23  2  0
 22 11  1  0
 25 26  1  0
 25 24  1  0
 26 27  1  0
 28 27  1  1
 28 29  1  0
 29 22  1  0
 30 32  1  0
 30 28  1  0
 31 30  2  0
M  END
$$$$
