EWM.pdb
     RDKit          3D

 32 33  0  0  1  0  0  0  0  0999 V2000
   26.1566  -24.1553  -15.6766 N   0  0  0  0  0  0  0  0  0  0  0  0
   25.3739  -22.9934  -16.0213 C   0  0  1  0  0  0  0  0  0  0  0  0
   24.9351  -23.0769  -17.4499 C   0  0  0  0  0  0  0  0  0  0  0  0
   26.0528  -22.7725  -18.3961 C   0  0  0  0  0  0  0  0  0  0  0  0
   26.4701  -21.3552  -18.2406 C   0  0  0  0  0  0  0  0  0  0  0  0
   27.5610  -21.0825  -17.6714 O   0  0  0  0  0  0  0  0  0  0  0  0
   24.2168  -22.9424  -15.0784 C   0  0  0  0  0  0  0  0  0  0  0  0
   23.6501  -23.9910  -14.6506 O   0  0  0  0  0  0  0  0  0  0  0  0
   25.6645  -20.3553  -18.7175 O   0  0  0  0  0  0  0  0  0  0  0  0
   23.6782  -21.7000  -14.6009 N   0  0  0  0  0  0  0  0  0  0  0  0
   22.5850  -21.6608  -13.6457 C   0  0  1  0  0  0  0  0  0  0  0  0
   22.4754  -20.2744  -13.1132 C   0  0  0  0  0  0  0  0  0  0  0  0
   21.3462  -20.0933  -12.1658 C   0  0  0  0  0  0  0  0  0  0  0  0
   21.0343  -20.8306  -11.0384 C   0  0  0  0  0  0  0  0  0  0  0  0
   19.9232  -20.3198  -10.4685 N   0  0  0  0  0  0  0  0  0  0  0  0
   19.4833  -19.2693  -11.1751 C   0  0  0  0  0  0  0  0  0  0  0  0
   18.4028  -18.4331  -10.9934 C   0  0  0  0  0  0  0  0  0  0  0  0
   18.2188  -17.4241  -11.9144 C   0  0  0  0  0  0  0  0  0  0  0  0
   19.0999  -17.2629  -12.9887 C   0  0  0  0  0  0  0  0  0  0  0  0
   20.1680  -18.1144  -13.1407 C   0  0  0  0  0  0  0  0  0  0  0  0
   20.3594  -19.1198  -12.2311 C   0  0  0  0  0  0  0  0  0  0  0  0
   21.3101  -22.0165  -14.3300 C   0  0  0  0  0  0  0  0  0  0  0  0
   21.1010  -21.6036  -15.4855 O   0  0  0  0  0  0  0  0  0  0  0  0
   15.7887  -27.6204  -14.3905 C   0  0  0  0  0  0  0  0  0  0  0  0
   17.3423  -26.9384  -13.7501 S   0  0  0  0  0  0  0  0  0  0  0  0
   17.5671  -25.2516  -14.2643 C   0  0  0  0  0  0  0  0  0  0  0  0
   18.8039  -24.5652  -13.8483 C   0  0  0  0  0  0  0  0  0  0  0  0
   19.0647  -23.1833  -14.3127 C   0  0  2  0  0  0  0  0  0  0  0  0
   20.3601  -22.8111  -13.6676 N   0  0  0  0  0  0  0  0  0  0  0  0
   18.1251  -22.1426  -13.8632 C   0  0  0  0  0  0  0  0  0  0  0  0
   17.4475  -21.4542  -14.6571 O   0  0  0  0  0  0  0  0  0  0  0  0
   17.9075  -21.8328  -12.5033 O   0  0  0  0  0  0  0  0  0  0  0  0
  2  1  1  1
  3  2  1  0
  3  4  1  0
  4  5  1  0
  5  9  1  0
  6  5  2  0
  7  2  1  0
  8  7  2  0
 10  7  1  0
 11 10  1  0
 11 12  1  6
 12 13  1  0
 13 21  1  0
 13 14  2  0
 14 15  1  0
 16 17  2  0
 16 15  1  0
 18 17  1  0
 19 18  2  0
 20 19  1  0
 20 21  2  0
 21 16  1  0
 22 23  2  0
 22 11  1  0
 25 26  1  0
 25 24  1  0
 26 27  1  0
 28 27  1  1
 28 29  1  0
 29 22  1  0
 30 32  1  0
 30 28  1  0
 31 30  2  0
M  END
$$$$
