EWM.pdb
     RDKit          3D

 32 33  0  0  1  0  0  0  0  0999 V2000
   23.1840  -19.5965  -13.7579 N   0  0  0  0  0  0  0  0  0  0  0  0
   23.7362  -20.9082  -13.9950 C   0  0  1  0  0  0  0  0  0  0  0  0
   24.5484  -20.9022  -15.2523 C   0  0  0  0  0  0  0  0  0  0  0  0
   24.4032  -19.6178  -16.0049 C   0  0  0  0  0  0  0  0  0  0  0  0
   23.1527  -19.6445  -16.8065 C   0  0  0  0  0  0  0  0  0  0  0  0
   22.8350  -20.6886  -17.4368 O   0  0  0  0  0  0  0  0  0  0  0  0
   24.5533  -21.2683  -12.7979 C   0  0  0  0  0  0  0  0  0  0  0  0
   25.1914  -22.3595  -12.7217 O   0  0  0  0  0  0  0  0  0  0  0  0
   22.3544  -18.5324  -16.8541 O   0  0  0  0  0  0  0  0  0  0  0  0
   24.6635  -20.3975  -11.6616 N   0  0  0  0  0  0  0  0  0  0  0  0
   25.3777  -20.7974  -10.4620 C   0  0  1  0  0  0  0  0  0  0  0  0
   26.3071  -19.6984  -10.0798 C   0  0  0  0  0  0  0  0  0  0  0  0
   27.5648  -20.1797   -9.4534 C   0  0  0  0  0  0  0  0  0  0  0  0
   28.4850  -21.0875   -9.9443 C   0  0  0  0  0  0  0  0  0  0  0  0
   29.4836  -21.2341   -9.0489 N   0  0  0  0  0  0  0  0  0  0  0  0
   29.2621  -20.4572   -7.9795 C   0  0  0  0  0  0  0  0  0  0  0  0
   29.9869  -20.2657   -6.8228 C   0  0  0  0  0  0  0  0  0  0  0  0
   29.4806  -19.3802   -5.8955 C   0  0  0  0  0  0  0  0  0  0  0  0
   28.2770  -18.7067   -6.1282 C   0  0  0  0  0  0  0  0  0  0  0  0
   27.5789  -18.9205   -7.2926 C   0  0  0  0  0  0  0  0  0  0  0  0
   28.0735  -19.7982   -8.2200 C   0  0  0  0  0  0  0  0  0  0  0  0
   24.4079  -21.0164   -9.3522 C   0  0  0  0  0  0  0  0  0  0  0  0
   23.3990  -20.2917   -9.2706 O   0  0  0  0  0  0  0  0  0  0  0  0
   23.9445  -21.1692   -1.8325 C   0  0  0  0  0  0  0  0  0  0  0  0
   24.8859  -21.1466   -3.3825 S   0  0  0  0  0  0  0  0  0  0  0  0
   23.8785  -21.6529   -4.7569 C   0  0  0  0  0  0  0  0  0  0  0  0
   24.5189  -21.7445   -6.0817 C   0  0  0  0  0  0  0  0  0  0  0  0
   23.7372  -22.2365   -7.2393 C   0  0  2  0  0  0  0  0  0  0  0  0
   24.6400  -22.0340   -8.4125 N   0  0  0  0  0  0  0  0  0  0  0  0
   22.5194  -21.4852   -7.5865 C   0  0  0  0  0  0  0  0  0  0  0  0
   22.5504  -20.3671   -8.1452 O   0  0  0  0  0  0  0  0  0  0  0  0
   21.2166  -21.9593   -7.3208 O   0  0  0  0  0  0  0  0  0  0  0  0
  2  1  1  1
  3  2  1  0
  3  4  1  0
  4  5  1  0
  5  9  1  0
  6  5  2  0
  7  2  1  0
  8  7  2  0
 10  7  1  0
 11 10  1  0
 11 12  1  1
 12 13  1  0
 13 21  1  0
 13 14  2  0
 14 15  1  0
 16 17  2  0
 16 15  1  0
 18 17  1  0
 19 18  2  0
 20 19  1  0
 20 21  2  0
 21 16  1  0
 22 23  2  0
 22 11  1  0
 25 26  1  0
 25 24  1  0
 26 27  1  0
 28 27  1  1
 28 29  1  0
 29 22  1  0
 30 32  1  0
 30 28  1  0
 31 30  2  0
M  END
$$$$
