EWM.pdb
     RDKit          3D

 32 33  0  0  1  0  0  0  0  0999 V2000
   28.9539  -32.3417  -15.4199 N   0  0  0  0  0  0  0  0  0  0  0  0
   28.8626  -31.6394  -16.6769 C   0  0  1  0  0  0  0  0  0  0  0  0
   28.3781  -32.5666  -17.7475 C   0  0  0  0  0  0  0  0  0  0  0  0
   29.4193  -33.5695  -18.1310 C   0  0  0  0  0  0  0  0  0  0  0  0
   30.3232  -32.9875  -19.1563 C   0  0  0  0  0  0  0  0  0  0  0  0
   29.9858  -31.9366  -19.7646 O   0  0  0  0  0  0  0  0  0  0  0  0
   27.9398  -30.4830  -16.4729 C   0  0  0  0  0  0  0  0  0  0  0  0
   26.9470  -30.5438  -15.6893 O   0  0  0  0  0  0  0  0  0  0  0  0
   31.5173  -33.5992  -19.4328 O   0  0  0  0  0  0  0  0  0  0  0  0
   28.1244  -29.2326  -17.1541 N   0  0  0  0  0  0  0  0  0  0  0  0
   27.2260  -28.1110  -16.9443 C   0  0  1  0  0  0  0  0  0  0  0  0
   27.9723  -26.8525  -17.2212 C   0  0  0  0  0  0  0  0  0  0  0  0
   27.1469  -25.6286  -17.0589 C   0  0  0  0  0  0  0  0  0  0  0  0
   26.1634  -25.3646  -16.1235 C   0  0  0  0  0  0  0  0  0  0  0  0
   25.6697  -24.1272  -16.3372 N   0  0  0  0  0  0  0  0  0  0  0  0
   26.2882  -23.5574  -17.3807 C   0  0  0  0  0  0  0  0  0  0  0  0
   26.1337  -22.3219  -17.9718 C   0  0  0  0  0  0  0  0  0  0  0  0
   26.9388  -22.0295  -19.0519 C   0  0  0  0  0  0  0  0  0  0  0  0
   27.8738  -22.9573  -19.5227 C   0  0  0  0  0  0  0  0  0  0  0  0
   28.0025  -24.1808  -18.9101 C   0  0  0  0  0  0  0  0  0  0  0  0
   27.2073  -24.4807  -17.8365 C   0  0  0  0  0  0  0  0  0  0  0  0
   26.0768  -28.2075  -17.8878 C   0  0  0  0  0  0  0  0  0  0  0  0
   26.2860  -28.5136  -19.0761 O   0  0  0  0  0  0  0  0  0  0  0  0
   22.2320  -32.9845  -18.0384 C   0  0  0  0  0  0  0  0  0  0  0  0
   21.7444  -31.2634  -18.3368 S   0  0  0  0  0  0  0  0  0  0  0  0
   22.6977  -30.1407  -17.3413 C   0  0  0  0  0  0  0  0  0  0  0  0
   22.5490  -28.6968  -17.5999 C   0  0  0  0  0  0  0  0  0  0  0  0
   23.6005  -27.9770  -18.3546 C   0  0  2  0  0  0  0  0  0  0  0  0
   24.7738  -27.9534  -17.4297 N   0  0  0  0  0  0  0  0  0  0  0  0
   23.3490  -26.5578  -18.6556 C   0  0  0  0  0  0  0  0  0  0  0  0
   23.7976  -25.6270  -17.9515 O   0  0  0  0  0  0  0  0  0  0  0  0
   22.5836  -26.1258  -19.7601 O   0  0  0  0  0  0  0  0  0  0  0  0
  2  1  1  1
  3  2  1  0
  3  4  1  0
  4  5  1  0
  5  9  1  0
  6  5  2  0
  7  2  1  0
  8  7  2  0
 10  7  1  0
 11 10  1  0
 11 12  1  6
 12 13  1  0
 13 21  1  0
 13 14  2  0
 14 15  1  0
 16 17  2  0
 16 15  1  0
 18 17  1  0
 19 18  2  0
 20 19  1  0
 20 21  2  0
 21 16  1  0
 22 23  2  0
 22 11  1  0
 25 26  1  0
 25 24  1  0
 26 27  1  0
 28 27  1  1
 28 29  1  0
 29 22  1  0
 30 32  1  0
 30 28  1  0
 31 30  2  0
M  END
$$$$
