EWM.pdb
     RDKit          3D

 32 33  0  0  1  0  0  0  0  0999 V2000
   28.4881  -21.1637  -17.7853 N   0  0  0  0  0  0  0  0  0  0  0  0
   28.2604  -22.0367  -16.6595 C   0  0  1  0  0  0  0  0  0  0  0  0
   29.5684  -22.4745  -16.0781 C   0  0  0  0  0  0  0  0  0  0  0  0
   29.9248  -23.8673  -16.4906 C   0  0  0  0  0  0  0  0  0  0  0  0
   30.6518  -23.8367  -17.7857 C   0  0  0  0  0  0  0  0  0  0  0  0
   30.8838  -22.7327  -18.3477 O   0  0  0  0  0  0  0  0  0  0  0  0
   27.4299  -21.2822  -15.6739 C   0  0  0  0  0  0  0  0  0  0  0  0
   27.8352  -20.2122  -15.1313 O   0  0  0  0  0  0  0  0  0  0  0  0
   31.0641  -25.0102  -18.3593 O   0  0  0  0  0  0  0  0  0  0  0  0
   26.1215  -21.7261  -15.2832 N   0  0  0  0  0  0  0  0  0  0  0  0
   25.2955  -20.9534  -14.3723 C   0  0  1  0  0  0  0  0  0  0  0  0
   23.8708  -21.1225  -14.7711 C   0  0  0  0  0  0  0  0  0  0  0  0
   22.9382  -20.2486  -14.0147 C   0  0  0  0  0  0  0  0  0  0  0  0
   23.0404  -18.8951  -13.7512 C   0  0  0  0  0  0  0  0  0  0  0  0
   21.9695  -18.5019  -13.0308 N   0  0  0  0  0  0  0  0  0  0  0  0
   21.1577  -19.5441  -12.8046 C   0  0  0  0  0  0  0  0  0  0  0  0
   19.9609  -19.6406  -12.1278 C   0  0  0  0  0  0  0  0  0  0  0  0
   19.3607  -20.8804  -12.0728 C   0  0  0  0  0  0  0  0  0  0  0  0
   19.9510  -21.9918  -12.6835 C   0  0  0  0  0  0  0  0  0  0  0  0
   21.1453  -21.8610  -13.3508 C   0  0  0  0  0  0  0  0  0  0  0  0
   21.7494  -20.6336  -13.4110 C   0  0  0  0  0  0  0  0  0  0  0  0
   25.4711  -21.4635  -12.9833 C   0  0  0  0  0  0  0  0  0  0  0  0
   25.4017  -22.6877  -12.7687 O   0  0  0  0  0  0  0  0  0  0  0  0
   27.5873  -18.5989   -5.9579 C   0  0  0  0  0  0  0  0  0  0  0  0
   28.0544  -19.0541   -7.6501 S   0  0  0  0  0  0  0  0  0  0  0  0
   26.8477  -20.1331   -8.3847 C   0  0  0  0  0  0  0  0  0  0  0  0
   26.7138  -20.1163   -9.8529 C   0  0  0  0  0  0  0  0  0  0  0  0
   25.7293  -21.0081  -10.5076 C   0  0  2  0  0  0  0  0  0  0  0  0
   25.7121  -20.5622  -11.9336 N   0  0  0  0  0  0  0  0  0  0  0  0
   24.3279  -20.8836  -10.0732 C   0  0  0  0  0  0  0  0  0  0  0  0
   23.5587  -20.0020  -10.5142 O   0  0  0  0  0  0  0  0  0  0  0  0
   23.7329  -21.7445   -9.1259 O   0  0  0  0  0  0  0  0  0  0  0  0
  2  1  1  6
  3  2  1  0
  3  4  1  0
  4  5  1  0
  5  9  1  0
  6  5  2  0
  7  2  1  0
  8  7  2  0
 10  7  1  0
 11 10  1  0
 11 12  1  6
 12 13  1  0
 13 21  1  0
 13 14  2  0
 14 15  1  0
 16 17  2  0
 16 15  1  0
 18 17  1  0
 19 18  2  0
 20 19  1  0
 20 21  2  0
 21 16  1  0
 22 23  2  0
 22 11  1  0
 25 26  1  0
 25 24  1  0
 26 27  1  0
 28 27  1  1
 28 29  1  0
 29 22  1  0
 30 32  1  0
 30 28  1  0
 31 30  2  0
M  END
$$$$
