EWM.pdb
     RDKit          3D

 32 33  0  0  1  0  0  0  0  0999 V2000
   15.3673  -17.1267    5.9787 N   0  0  0  0  0  0  0  0  0  0  0  0
   16.6244  -16.8249    6.6191 C   0  0  1  0  0  0  0  0  0  0  0  0
   16.3838  -16.0716    7.8900 C   0  0  0  0  0  0  0  0  0  0  0  0
   15.9879  -14.6526    7.6317 C   0  0  0  0  0  0  0  0  0  0  0  0
   16.6790  -13.7556    8.5933 C   0  0  0  0  0  0  0  0  0  0  0  0
   16.1988  -13.5840    9.7458 O   0  0  0  0  0  0  0  0  0  0  0  0
   17.3238  -18.1228    6.8571 C   0  0  0  0  0  0  0  0  0  0  0  0
   16.9062  -18.9675    7.7032 O   0  0  0  0  0  0  0  0  0  0  0  0
   17.8339  -13.1215    8.2187 O   0  0  0  0  0  0  0  0  0  0  0  0
   18.5122  -18.4898    6.1398 N   0  0  0  0  0  0  0  0  0  0  0  0
   19.1853  -19.7546    6.3772 C   0  0  1  0  0  0  0  0  0  0  0  0
   19.6375  -20.2997    5.0673 C   0  0  0  0  0  0  0  0  0  0  0  0
   18.5617  -20.9916    4.3125 C   0  0  0  0  0  0  0  0  0  0  0  0
   17.4582  -20.4473    3.6816 C   0  0  0  0  0  0  0  0  0  0  0  0
   16.7390  -21.4379    3.1144 N   0  0  0  0  0  0  0  0  0  0  0  0
   17.3228  -22.6222    3.3446 C   0  0  0  0  0  0  0  0  0  0  0  0
   16.9707  -23.9023    2.9745 C   0  0  0  0  0  0  0  0  0  0  0  0
   17.7979  -24.9295    3.3757 C   0  0  0  0  0  0  0  0  0  0  0  0
   18.9481  -24.6727    4.1290 C   0  0  0  0  0  0  0  0  0  0  0  0
   19.2706  -23.3840    4.4813 C   0  0  0  0  0  0  0  0  0  0  0  0
   18.4552  -22.3568    4.0876 C   0  0  0  0  0  0  0  0  0  0  0  0
   20.3767  -19.5321    7.2440 C   0  0  0  0  0  0  0  0  0  0  0  0
   21.1506  -18.5911    6.9888 O   0  0  0  0  0  0  0  0  0  0  0  0
   22.8784  -17.8202   14.0558 C   0  0  0  0  0  0  0  0  0  0  0  0
   21.7026  -17.9183   12.6784 S   0  0  0  0  0  0  0  0  0  0  0  0
   22.2120  -19.1283   11.4800 C   0  0  0  0  0  0  0  0  0  0  0  0
   21.3851  -19.2875   10.2697 C   0  0  0  0  0  0  0  0  0  0  0  0
   21.8190  -20.2216    9.2054 C   0  0  2  0  0  0  0  0  0  0  0  0
   20.6144  -20.3824    8.3361 N   0  0  0  0  0  0  0  0  0  0  0  0
   22.1506  -21.5947    9.6209 C   0  0  0  0  0  0  0  0  0  0  0  0
   23.1854  -21.8756   10.2642 O   0  0  0  0  0  0  0  0  0  0  0  0
   21.3334  -22.7086    9.3313 O   0  0  0  0  0  0  0  0  0  0  0  0
  2  1  1  1
  3  2  1  0
  3  4  1  0
  4  5  1  0
  5  9  1  0
  6  5  2  0
  7  2  1  0
  8  7  2  0
 10  7  1  0
 11 10  1  0
 11 12  1  6
 12 13  1  0
 13 21  1  0
 13 14  2  0
 14 15  1  0
 16 17  2  0
 16 15  1  0
 18 17  1  0
 19 18  2  0
 20 19  1  0
 20 21  2  0
 21 16  1  0
 22 23  2  0
 22 11  1  0
 25 26  1  0
 25 24  1  0
 26 27  1  0
 28 27  1  1
 28 29  1  0
 29 22  1  0
 30 32  1  0
 30 28  1  0
 31 30  2  0
M  END
$$$$
