EWM.pdb
     RDKit          3D

 32 33  0  0  1  0  0  0  0  0999 V2000
   27.9673  -23.1104  -16.6653 N   0  0  0  0  0  0  0  0  0  0  0  0
   27.5950  -21.7707  -16.2803 C   0  0  1  0  0  0  0  0  0  0  0  0
   26.9401  -21.0707  -17.4300 C   0  0  0  0  0  0  0  0  0  0  0  0
   27.9210  -20.7228  -18.5041 C   0  0  0  0  0  0  0  0  0  0  0  0
   28.1011  -21.8830  -19.4143 C   0  0  0  0  0  0  0  0  0  0  0  0
   27.1029  -22.3774  -20.0037 O   0  0  0  0  0  0  0  0  0  0  0  0
   26.6882  -21.8846  -15.0992 C   0  0  0  0  0  0  0  0  0  0  0  0
   26.0863  -22.9615  -14.8137 O   0  0  0  0  0  0  0  0  0  0  0  0
   29.3523  -22.4067  -19.6053 O   0  0  0  0  0  0  0  0  0  0  0  0
   26.4450  -20.7782  -14.2168 N   0  0  0  0  0  0  0  0  0  0  0  0
   25.6181  -20.9171  -13.0311 C   0  0  1  0  0  0  0  0  0  0  0  0
   26.1210  -19.9741  -11.9940 C   0  0  0  0  0  0  0  0  0  0  0  0
   27.3186  -20.4743  -11.2721 C   0  0  0  0  0  0  0  0  0  0  0  0
   28.4897  -20.9936  -11.7922 C   0  0  0  0  0  0  0  0  0  0  0  0
   29.3163  -21.3241  -10.7784 N   0  0  0  0  0  0  0  0  0  0  0  0
   28.7386  -21.0441   -9.6019 C   0  0  0  0  0  0  0  0  0  0  0  0
   29.1808  -21.2009   -8.3059 C   0  0  0  0  0  0  0  0  0  0  0  0
   28.3320  -20.8079   -7.2933 C   0  0  0  0  0  0  0  0  0  0  0  0
   27.0723  -20.2716   -7.5798 C   0  0  0  0  0  0  0  0  0  0  0  0
   26.6620  -20.1285   -8.8837 C   0  0  0  0  0  0  0  0  0  0  0  0
   27.4979  -20.5161   -9.8966 C   0  0  0  0  0  0  0  0  0  0  0  0
   24.2084  -20.5644  -13.3604 C   0  0  0  0  0  0  0  0  0  0  0  0
   23.9794  -19.5911  -14.1020 O   0  0  0  0  0  0  0  0  0  0  0  0
   20.9274  -24.7697  -15.8947 C   0  0  0  0  0  0  0  0  0  0  0  0
   19.4631  -23.9252  -15.2377 S   0  0  0  0  0  0  0  0  0  0  0  0
   19.9105  -22.4434  -14.3636 C   0  0  0  0  0  0  0  0  0  0  0  0
   21.3022  -22.3162  -13.8936 C   0  0  0  0  0  0  0  0  0  0  0  0
   21.7339  -21.0729  -13.2146 C   0  0  2  0  0  0  0  0  0  0  0  0
   23.1555  -21.3301  -12.8335 N   0  0  0  0  0  0  0  0  0  0  0  0
   21.0715  -20.7470  -11.9406 C   0  0  0  0  0  0  0  0  0  0  0  0
   19.9051  -20.3009  -11.8792 O   0  0  0  0  0  0  0  0  0  0  0  0
   21.6920  -20.9093  -10.6831 O   0  0  0  0  0  0  0  0  0  0  0  0
  2  1  1  6
  3  2  1  0
  3  4  1  0
  4  5  1  0
  5  9  1  0
  6  5  2  0
  7  2  1  0
  8  7  2  0
 10  7  1  0
 11 10  1  0
 11 12  1  1
 12 13  1  0
 13 21  1  0
 13 14  2  0
 14 15  1  0
 16 17  2  0
 16 15  1  0
 18 17  1  0
 19 18  2  0
 20 19  1  0
 20 21  2  0
 21 16  1  0
 22 23  2  0
 22 11  1  0
 25 26  1  0
 25 24  1  0
 26 27  1  0
 28 27  1  1
 28 29  1  0
 29 22  1  0
 30 32  1  0
 30 28  1  0
 31 30  2  0
M  END
$$$$
