EWM.pdb
     RDKit          3D

 32 33  0  0  1  0  0  0  0  0999 V2000
   26.3616  -21.4480  -14.9064 N   0  0  0  0  0  0  0  0  0  0  0  0
   25.2879  -20.5767  -14.4946 C   0  0  1  0  0  0  0  0  0  0  0  0
   24.2438  -20.5094  -15.5651 C   0  0  0  0  0  0  0  0  0  0  0  0
   24.7288  -19.7722  -16.7727 C   0  0  0  0  0  0  0  0  0  0  0  0
   24.6358  -18.3083  -16.5381 C   0  0  0  0  0  0  0  0  0  0  0  0
   23.5837  -17.8185  -16.0465 O   0  0  0  0  0  0  0  0  0  0  0  0
   24.7460  -21.1165  -13.2119 C   0  0  0  0  0  0  0  0  0  0  0  0
   24.2585  -22.2819  -13.1242 O   0  0  0  0  0  0  0  0  0  0  0  0
   25.6955  -17.5018  -16.8589 O   0  0  0  0  0  0  0  0  0  0  0  0
   24.7458  -20.3447  -12.0011 N   0  0  0  0  0  0  0  0  0  0  0  0
   24.1804  -20.8627  -10.7678 C   0  0  1  0  0  0  0  0  0  0  0  0
   24.8159  -20.1515   -9.6241 C   0  0  0  0  0  0  0  0  0  0  0  0
   26.2423  -20.5129   -9.4230 C   0  0  0  0  0  0  0  0  0  0  0  0
   27.0827  -21.2225  -10.2609 C   0  0  0  0  0  0  0  0  0  0  0  0
   28.3002  -21.3203   -9.6877 N   0  0  0  0  0  0  0  0  0  0  0  0
   28.3015  -20.7019   -8.4987 C   0  0  0  0  0  0  0  0  0  0  0  0
   29.2936  -20.5340   -7.5566 C   0  0  0  0  0  0  0  0  0  0  0  0
   28.9718  -19.8341   -6.4134 C   0  0  0  0  0  0  0  0  0  0  0  0
   27.6854  -19.3179   -6.2256 C   0  0  0  0  0  0  0  0  0  0  0  0
   26.7190  -19.5032   -7.1852 C   0  0  0  0  0  0  0  0  0  0  0  0
   27.0288  -20.1971   -8.3242 C   0  0  0  0  0  0  0  0  0  0  0  0
   22.7135  -20.6025  -10.7422 C   0  0  0  0  0  0  0  0  0  0  0  0
   22.2392  -19.7067  -11.4647 O   0  0  0  0  0  0  0  0  0  0  0  0
   20.8002  -23.2243  -14.4987 C   0  0  0  0  0  0  0  0  0  0  0  0
   19.1534  -23.3479  -13.7491 S   0  0  0  0  0  0  0  0  0  0  0  0
   19.1268  -22.6226  -12.1264 C   0  0  0  0  0  0  0  0  0  0  0  0
   20.4102  -22.1835  -11.5486 C   0  0  0  0  0  0  0  0  0  0  0  0
   20.4317  -21.5564  -10.2071 C   0  0  2  0  0  0  0  0  0  0  0  0
   21.8830  -21.3672   -9.9067 N   0  0  0  0  0  0  0  0  0  0  0  0
   19.9335  -22.3697   -9.0853 C   0  0  0  0  0  0  0  0  0  0  0  0
   20.6651  -23.1504   -8.4384 O   0  0  0  0  0  0  0  0  0  0  0  0
   18.5931  -22.3391   -8.6437 O   0  0  0  0  0  0  0  0  0  0  0  0
  2  1  1  6
  3  2  1  0
  3  4  1  0
  4  5  1  0
  5  9  1  0
  6  5  2  0
  7  2  1  0
  8  7  2  0
 10  7  1  0
 11 10  1  0
 11 12  1  1
 12 13  1  0
 13 21  1  0
 13 14  2  0
 14 15  1  0
 16 17  2  0
 16 15  1  0
 18 17  1  0
 19 18  2  0
 20 19  1  0
 20 21  2  0
 21 16  1  0
 22 23  2  0
 22 11  1  0
 25 26  1  0
 25 24  1  0
 26 27  1  0
 28 27  1  6
 28 29  1  0
 29 22  1  0
 30 32  1  0
 30 28  1  0
 31 30  2  0
M  END
$$$$
