SEK.pdb
     RDKit          3D

 25 24  0  0  1  0  0  0  0  0999 V2000
    8.2967  -13.1722   20.4402 O   0  0  0  0  0  0  0  0  0  0  0  0
    8.8890  -13.9418   19.4294 C   0  0  0  0  0  0  0  0  0  0  0  0
    8.3134  -15.3367   19.5575 C   0  0  2  0  0  0  0  0  0  0  0  0
    6.8870  -15.3456   19.4511 N   0  0  0  0  0  0  0  0  0  0  0  0
    8.6944  -15.8833   20.8952 C   0  0  0  0  0  0  0  0  0  0  0  0
    7.8510  -16.0332   21.8143 O   0  0  0  0  0  0  0  0  0  0  0  0
   10.0116  -16.2654   21.2184 N   0  0  0  0  0  0  0  0  0  0  0  0
   10.3622  -16.9525   22.3919 C   0  0  1  0  0  0  0  0  0  0  0  0
   11.6427  -17.7089   22.3964 C   0  0  0  0  0  0  0  0  0  0  0  0
   11.5949  -18.8973   21.4519 C   0  0  0  0  0  0  0  0  0  0  0  0
   12.9097  -19.1561   20.8313 C   0  0  0  0  0  0  0  0  0  0  0  0
   13.7415  -19.8829   21.4132 O   0  0  0  0  0  0  0  0  0  0  0  0
   10.3441  -16.0103   23.5352 C   0  0  0  0  0  0  0  0  0  0  0  0
   11.2752  -15.1821   23.6541 O   0  0  0  0  0  0  0  0  0  0  0  0
   13.2379  -18.6056   19.6118 O   0  0  0  0  0  0  0  0  0  0  0  0
    9.3213  -16.0042   24.4997 N   0  0  0  0  0  0  0  0  0  0  0  0
    9.3258  -15.1629   25.6843 C   0  0  1  0  0  0  0  0  0  0  0  0
    8.0953  -14.2922   25.5677 C   0  0  0  0  0  0  0  0  0  0  0  0
    7.9409  -13.2868   26.6610 C   0  0  0  0  0  0  0  0  0  0  0  0
    6.6818  -12.4968   26.3681 C   0  0  0  0  0  0  0  0  0  0  0  0
    6.4187  -11.4315   27.4095 C   0  0  0  0  0  0  0  0  0  0  0  0
    5.1562  -10.7704   27.2376 N   0  0  0  0  0  0  0  0  0  0  0  0
    9.4092  -15.9360   26.9229 C   0  0  0  0  0  0  0  0  0  0  0  0
    9.1512  -17.1637   26.9061 O   0  0  0  0  0  0  0  0  0  0  0  0
    9.7647  -15.3811   28.1447 O   0  0  0  0  0  0  0  0  0  0  0  0
  1  2  1  0
  3  5  1  0
  3  2  1  0
  3  4  1  1
  5  6  2  0
  7  8  1  0
  7  5  1  0
  8  9  1  6
  9 10  1  0
 11 10  1  0
 11 12  2  0
 13  8  1  0
 14 13  2  0
 15 11  1  0
 16 13  1  0
 17 16  1  0
 18 19  1  0
 17 18  1  1
 19 20  1  0
 20 21  1  0
 21 22  1  0
 23 17  1  0
 23 25  1  0
 24 23  2  0
M  END
$$$$
