SEK.pdb
     RDKit          3D

 25 24  0  0  1  0  0  0  0  0999 V2000
   15.3983  -18.9321   11.7877 O   0  0  0  0  0  0  0  0  0  0  0  0
   14.1948  -19.6300   11.9593 C   0  0  0  0  0  0  0  0  0  0  0  0
   13.2131  -18.6516   12.5695 C   0  0  2  0  0  0  0  0  0  0  0  0
   13.1949  -17.4001   11.8771 N   0  0  0  0  0  0  0  0  0  0  0  0
   13.6132  -18.4049   13.9881 C   0  0  0  0  0  0  0  0  0  0  0  0
   13.9707  -17.2687   14.3877 O   0  0  0  0  0  0  0  0  0  0  0  0
   13.6181  -19.4171   14.9685 N   0  0  0  0  0  0  0  0  0  0  0  0
   13.8573  -19.1850   16.3326 C   0  0  1  0  0  0  0  0  0  0  0  0
   13.0159  -19.9146   17.3182 C   0  0  0  0  0  0  0  0  0  0  0  0
   13.3303  -19.4941   18.7434 C   0  0  0  0  0  0  0  0  0  0  0  0
   12.5289  -20.2508   19.7265 C   0  0  0  0  0  0  0  0  0  0  0  0
   13.0836  -21.0810   20.4761 O   0  0  0  0  0  0  0  0  0  0  0  0
   15.2876  -19.4337   16.6285 C   0  0  0  0  0  0  0  0  0  0  0  0
   15.8389  -20.4502   16.1490 O   0  0  0  0  0  0  0  0  0  0  0  0
   11.1693  -20.0557   19.8322 O   0  0  0  0  0  0  0  0  0  0  0  0
   16.0595  -18.5737   17.4290 N   0  0  0  0  0  0  0  0  0  0  0  0
   17.4738  -18.7667   17.7006 C   0  0  1  0  0  0  0  0  0  0  0  0
   18.1025  -17.3981   17.5673 C   0  0  0  0  0  0  0  0  0  0  0  0
   19.5893  -17.3824   17.7058 C   0  0  0  0  0  0  0  0  0  0  0  0
   20.0273  -15.9326   17.6642 C   0  0  0  0  0  0  0  0  0  0  0  0
   21.5329  -15.7881   17.6935 C   0  0  0  0  0  0  0  0  0  0  0  0
   21.9725  -14.4230   17.6304 N   0  0  0  0  0  0  0  0  0  0  0  0
   17.7154  -19.4250   18.9840 C   0  0  0  0  0  0  0  0  0  0  0  0
   16.8894  -19.2850   19.9179 O   0  0  0  0  0  0  0  0  0  0  0  0
   18.8291  -20.2139   19.2377 O   0  0  0  0  0  0  0  0  0  0  0  0
  1  2  1  0
  3  5  1  0
  3  2  1  0
  3  4  1  6
  5  6  2  0
  7  8  1  0
  7  5  1  0
  8  9  1  1
  9 10  1  0
 11 10  1  0
 11 12  2  0
 13  8  1  0
 14 13  2  0
 15 11  1  0
 16 13  1  0
 17 16  1  0
 18 19  1  0
 17 18  1  1
 19 20  1  0
 20 21  1  0
 21 22  1  0
 23 17  1  0
 23 25  1  0
 24 23  2  0
M  END
$$$$
