SEK.pdb
     RDKit          3D

 25 24  0  0  1  0  0  0  0  0999 V2000
   12.9044  -18.1614   18.3882 O   0  0  0  0  0  0  0  0  0  0  0  0
   13.1969  -18.9159   17.2436 C   0  0  0  0  0  0  0  0  0  0  0  0
   14.7021  -19.0783   17.2083 C   0  0  2  0  0  0  0  0  0  0  0  0
   15.1536  -19.6760   15.9897 N   0  0  0  0  0  0  0  0  0  0  0  0
   15.1088  -19.9554   18.3479 C   0  0  0  0  0  0  0  0  0  0  0  0
   14.7868  -21.1688   18.3978 O   0  0  0  0  0  0  0  0  0  0  0  0
   15.8737  -19.4901   19.4361 N   0  0  0  0  0  0  0  0  0  0  0  0
   16.2929  -20.3017   20.5027 C   0  0  1  0  0  0  0  0  0  0  0  0
   17.7542  -20.4190   20.7523 C   0  0  0  0  0  0  0  0  0  0  0  0
   18.4400  -19.0644   20.7127 C   0  0  0  0  0  0  0  0  0  0  0  0
   19.8844  -19.1739   21.0003 C   0  0  0  0  0  0  0  0  0  0  0  0
   20.3470  -18.7001   22.0588 O   0  0  0  0  0  0  0  0  0  0  0  0
   15.6157  -19.8649   21.7460 C   0  0  0  0  0  0  0  0  0  0  0  0
   15.5274  -18.6406   21.9913 O   0  0  0  0  0  0  0  0  0  0  0  0
   20.7378  -19.7943   20.1146 O   0  0  0  0  0  0  0  0  0  0  0  0
   15.0637  -20.7697   22.6697 N   0  0  0  0  0  0  0  0  0  0  0  0
   14.3394  -20.3715   23.8645 C   0  0  1  0  0  0  0  0  0  0  0  0
   13.5714  -21.5986   24.3008 C   0  0  0  0  0  0  0  0  0  0  0  0
   12.7183  -21.3992   25.5101 C   0  0  0  0  0  0  0  0  0  0  0  0
   12.0871  -22.7368   25.8382 C   0  0  0  0  0  0  0  0  0  0  0  0
   11.3060  -22.6994   27.1332 C   0  0  0  0  0  0  0  0  0  0  0  0
   10.5621  -23.9017   27.3813 N   0  0  0  0  0  0  0  0  0  0  0  0
   15.2144  -19.8046   24.8901 C   0  0  0  0  0  0  0  0  0  0  0  0
   16.3955  -20.2150   24.9933 O   0  0  0  0  0  0  0  0  0  0  0  0
   14.8082  -18.8170   25.7770 O   0  0  0  0  0  0  0  0  0  0  0  0
  1  2  1  0
  3  5  1  0
  3  2  1  0
  3  4  1  6
  5  6  2  0
  7  8  1  0
  7  5  1  0
  8  9  1  1
  9 10  1  0
 11 10  1  0
 11 12  2  0
 13  8  1  0
 14 13  2  0
 15 11  1  0
 16 13  1  0
 17 16  1  0
 18 19  1  0
 17 18  1  1
 19 20  1  0
 20 21  1  0
 21 22  1  0
 23 17  1  0
 23 25  1  0
 24 23  2  0
M  END
$$$$
