SEK.pdb
     RDKit          3D

 25 24  0  0  1  0  0  0  0  0999 V2000
    8.7527  -12.4145   19.4131 O   0  0  0  0  0  0  0  0  0  0  0  0
    9.2519  -13.6465   18.9684 C   0  0  0  0  0  0  0  0  0  0  0  0
    8.1677  -14.6705   19.2317 C   0  0  2  0  0  0  0  0  0  0  0  0
    6.8617  -14.0870   19.2370 N   0  0  0  0  0  0  0  0  0  0  0  0
    8.4180  -15.2893   20.5688 C   0  0  0  0  0  0  0  0  0  0  0  0
    7.5701  -15.2328   21.4942 O   0  0  0  0  0  0  0  0  0  0  0  0
    9.6091  -15.9729   20.8843 N   0  0  0  0  0  0  0  0  0  0  0  0
    9.8087  -16.6899   22.0751 C   0  0  1  0  0  0  0  0  0  0  0  0
   10.9564  -17.6340   22.1322 C   0  0  0  0  0  0  0  0  0  0  0  0
   11.0244  -18.3533   23.4682 C   0  0  0  0  0  0  0  0  0  0  0  0
   12.1709  -19.2820   23.5317 C   0  0  0  0  0  0  0  0  0  0  0  0
   12.4768  -19.8216   24.6153 O   0  0  0  0  0  0  0  0  0  0  0  0
    9.8964  -15.7410   23.2096 C   0  0  0  0  0  0  0  0  0  0  0  0
   10.7578  -14.8334   23.1766 O   0  0  0  0  0  0  0  0  0  0  0  0
   12.9152  -19.5662   22.4078 O   0  0  0  0  0  0  0  0  0  0  0  0
    9.0499  -15.8141   24.3296 N   0  0  0  0  0  0  0  0  0  0  0  0
    9.1615  -14.9483   25.4911 C   0  0  1  0  0  0  0  0  0  0  0  0
    7.8891  -14.1319   25.5117 C   0  0  0  0  0  0  0  0  0  0  0  0
    7.8040  -13.1439   26.6282 C   0  0  0  0  0  0  0  0  0  0  0  0
    6.4476  -12.4759   26.5324 C   0  0  0  0  0  0  0  0  0  0  0  0
    6.2223  -11.4747   27.6439 C   0  0  0  0  0  0  0  0  0  0  0  0
    4.9851  -10.7576   27.5187 N   0  0  0  0  0  0  0  0  0  0  0  0
    9.4284  -15.6906   26.7225 C   0  0  0  0  0  0  0  0  0  0  0  0
    9.6409  -15.0658   27.7895 O   0  0  0  0  0  0  0  0  0  0  0  0
    9.4617  -17.0770   26.7842 O   0  0  0  0  0  0  0  0  0  0  0  0
  1  2  1  0
  3  5  1  0
  3  2  1  0
  3  4  1  1
  5  6  2  0
  7  8  1  0
  7  5  1  0
  8  9  1  6
  9 10  1  0
 11 10  1  0
 11 12  2  0
 13  8  1  0
 14 13  2  0
 15 11  1  0
 16 13  1  0
 17 16  1  0
 18 19  1  0
 17 18  1  1
 19 20  1  0
 20 21  1  0
 21 22  1  0
 23 17  1  0
 23 25  1  0
 24 23  2  0
M  END
$$$$
