SEK.pdb
     RDKit          3D

 25 24  0  0  1  0  0  0  0  0999 V2000
    7.6940  -17.1290   21.2166 O   0  0  0  0  0  0  0  0  0  0  0  0
    7.6648  -16.1175   20.2466 C   0  0  0  0  0  0  0  0  0  0  0  0
    8.4366  -16.6424   19.0541 C   0  0  2  0  0  0  0  0  0  0  0  0
    8.0186  -17.9568   18.6747 N   0  0  0  0  0  0  0  0  0  0  0  0
    9.8863  -16.6893   19.4140 C   0  0  0  0  0  0  0  0  0  0  0  0
   10.4280  -17.7371   19.8467 O   0  0  0  0  0  0  0  0  0  0  0  0
   10.7403  -15.5747   19.2953 N   0  0  0  0  0  0  0  0  0  0  0  0
   12.1230  -15.6183   19.5367 C   0  0  1  0  0  0  0  0  0  0  0  0
   12.9933  -14.7033   18.7510 C   0  0  0  0  0  0  0  0  0  0  0  0
   14.4652  -14.9529   19.0303 C   0  0  0  0  0  0  0  0  0  0  0  0
   15.3319  -14.0575   18.2376 C   0  0  0  0  0  0  0  0  0  0  0  0
   16.2137  -13.3802   18.8054 O   0  0  0  0  0  0  0  0  0  0  0  0
   12.3745  -15.4145   20.9825 C   0  0  0  0  0  0  0  0  0  0  0  0
   11.9684  -14.3632   21.5271 O   0  0  0  0  0  0  0  0  0  0  0  0
   15.1838  -13.9553   16.8718 O   0  0  0  0  0  0  0  0  0  0  0  0
   13.0537  -16.3552   21.7764 N   0  0  0  0  0  0  0  0  0  0  0  0
   13.3063  -16.1887   23.1975 C   0  0  1  0  0  0  0  0  0  0  0  0
   12.6998  -17.4038   23.8620 C   0  0  0  0  0  0  0  0  0  0  0  0
   12.9479  -17.4958   25.3317 C   0  0  0  0  0  0  0  0  0  0  0  0
   12.2645  -18.7555   25.8230 C   0  0  0  0  0  0  0  0  0  0  0  0
   12.2819  -18.8654   27.3317 C   0  0  0  0  0  0  0  0  0  0  0  0
   11.4810  -19.9473   27.8304 N   0  0  0  0  0  0  0  0  0  0  0  0
   14.7220  -15.9748   23.4959 C   0  0  0  0  0  0  0  0  0  0  0  0
   15.5924  -16.3499   22.6740 O   0  0  0  0  0  0  0  0  0  0  0  0
   15.1716  -15.3679   24.6606 O   0  0  0  0  0  0  0  0  0  0  0  0
  1  2  1  0
  3  5  1  0
  3  2  1  0
  3  4  1  1
  5  6  2  0
  7  8  1  0
  7  5  1  0
  8  9  1  6
  9 10  1  0
 11 10  1  0
 11 12  2  0
 13  8  1  0
 14 13  2  0
 15 11  1  0
 16 13  1  0
 17 16  1  0
 18 19  1  0
 17 18  1  1
 19 20  1  0
 20 21  1  0
 21 22  1  0
 23 17  1  0
 23 25  1  0
 24 23  2  0
M  END
$$$$
