SEK.pdb
     RDKit          3D

 25 24  0  0  1  0  0  0  0  0999 V2000
    9.1952  -19.6193   18.0849 O   0  0  0  0  0  0  0  0  0  0  0  0
    9.5260  -19.7831   19.4371 C   0  0  0  0  0  0  0  0  0  0  0  0
    9.6454  -18.3915   20.0226 C   0  0  2  0  0  0  0  0  0  0  0  0
   10.0180  -17.4210   19.0400 N   0  0  0  0  0  0  0  0  0  0  0  0
   10.6927  -18.4164   21.0883 C   0  0  0  0  0  0  0  0  0  0  0  0
   10.7542  -19.3422   21.9354 O   0  0  0  0  0  0  0  0  0  0  0  0
   11.6754  -17.4149   21.2185 N   0  0  0  0  0  0  0  0  0  0  0  0
   12.7369  -17.4737   22.1360 C   0  0  1  0  0  0  0  0  0  0  0  0
   14.0723  -17.0015   21.6828 C   0  0  0  0  0  0  0  0  0  0  0  0
   14.6478  -17.9010   20.6027 C   0  0  0  0  0  0  0  0  0  0  0  0
   15.9819  -17.4441   20.1638 C   0  0  0  0  0  0  0  0  0  0  0  0
   16.1101  -16.8527   19.0717 O   0  0  0  0  0  0  0  0  0  0  0  0
   12.3552  -16.7538   23.3734 C   0  0  0  0  0  0  0  0  0  0  0  0
   11.7173  -15.6809   23.2794 O   0  0  0  0  0  0  0  0  0  0  0  0
   17.0965  -17.6604   20.9438 O   0  0  0  0  0  0  0  0  0  0  0  0
   12.6793  -17.2244   24.6579 N   0  0  0  0  0  0  0  0  0  0  0  0
   12.2337  -16.5968   25.8902 C   0  0  1  0  0  0  0  0  0  0  0  0
   12.3928  -17.6509   26.9624 C   0  0  0  0  0  0  0  0  0  0  0  0
   12.0546  -17.1888   28.3416 C   0  0  0  0  0  0  0  0  0  0  0  0
   12.2357  -18.3741   29.2677 C   0  0  0  0  0  0  0  0  0  0  0  0
   11.8826  -18.0408   30.7004 C   0  0  0  0  0  0  0  0  0  0  0  0
   11.9943  -19.1637   31.5877 N   0  0  0  0  0  0  0  0  0  0  0  0
   12.9290  -15.3397   26.1647 C   0  0  0  0  0  0  0  0  0  0  0  0
   14.0863  -15.1602   25.7147 O   0  0  0  0  0  0  0  0  0  0  0  0
   12.3733  -14.3090   26.9101 O   0  0  0  0  0  0  0  0  0  0  0  0
  1  2  1  0
  3  5  1  0
  3  2  1  0
  3  4  1  6
  5  6  2  0
  7  8  1  0
  7  5  1  0
  8  9  1  6
  9 10  1  0
 11 10  1  0
 11 12  2  0
 13  8  1  0
 14 13  2  0
 15 11  1  0
 16 13  1  0
 17 16  1  0
 18 19  1  0
 17 18  1  1
 19 20  1  0
 20 21  1  0
 21 22  1  0
 23 17  1  0
 23 25  1  0
 24 23  2  0
M  END
$$$$
