SEK.pdb
     RDKit          3D

 25 24  0  0  1  0  0  0  0  0999 V2000
    9.7011  -12.4202   17.6143 O   0  0  0  0  0  0  0  0  0  0  0  0
    9.4279  -12.9311   18.8908 C   0  0  0  0  0  0  0  0  0  0  0  0
    8.5537  -14.1510   18.6881 C   0  0  2  0  0  0  0  0  0  0  0  0
    7.2141  -13.8031   18.3270 N   0  0  0  0  0  0  0  0  0  0  0  0
    8.5168  -14.9227   19.9673 C   0  0  0  0  0  0  0  0  0  0  0  0
    7.5777  -14.7938   20.7920 O   0  0  0  0  0  0  0  0  0  0  0  0
    9.5208  -15.8398   20.3366 N   0  0  0  0  0  0  0  0  0  0  0  0
    9.4574  -16.6521   21.4803 C   0  0  1  0  0  0  0  0  0  0  0  0
   10.3705  -17.8239   21.5503 C   0  0  0  0  0  0  0  0  0  0  0  0
   10.1703  -18.6146   22.8316 C   0  0  0  0  0  0  0  0  0  0  0  0
   11.0576  -19.7936   22.8911 C   0  0  0  0  0  0  0  0  0  0  0  0
   11.8318  -20.0398   21.9430 O   0  0  0  0  0  0  0  0  0  0  0  0
    9.6412  -15.8134   22.6878 C   0  0  0  0  0  0  0  0  0  0  0  0
   10.6421  -15.0652   22.7606 O   0  0  0  0  0  0  0  0  0  0  0  0
   11.0466  -20.6338   23.9828 O   0  0  0  0  0  0  0  0  0  0  0  0
    8.7359  -15.8196   23.7633 N   0  0  0  0  0  0  0  0  0  0  0  0
    8.8756  -14.9910   24.9486 C   0  0  1  0  0  0  0  0  0  0  0  0
    7.5871  -14.2063   25.0486 C   0  0  0  0  0  0  0  0  0  0  0  0
    7.5244  -13.2613   26.2032 C   0  0  0  0  0  0  0  0  0  0  0  0
    6.1439  -12.6370   26.1961 C   0  0  0  0  0  0  0  0  0  0  0  0
    5.9503  -11.6621   27.3366 C   0  0  0  0  0  0  0  0  0  0  0  0
    4.6361  -11.0859   27.3727 N   0  0  0  0  0  0  0  0  0  0  0  0
    9.2094  -15.7678   26.1419 C   0  0  0  0  0  0  0  0  0  0  0  0
    8.9568  -16.9963   26.1727 O   0  0  0  0  0  0  0  0  0  0  0  0
    9.8024  -15.2156   27.2690 O   0  0  0  0  0  0  0  0  0  0  0  0
  1  2  1  0
  3  5  1  0
  3  2  1  0
  3  4  1  1
  5  6  2  0
  7  8  1  0
  7  5  1  0
  8  9  1  6
  9 10  1  0
 11 10  1  0
 11 12  2  0
 13  8  1  0
 14 13  2  0
 15 11  1  0
 16 13  1  0
 17 16  1  0
 18 19  1  0
 17 18  1  1
 19 20  1  0
 20 21  1  0
 21 22  1  0
 23 17  1  0
 23 25  1  0
 24 23  2  0
M  END
$$$$
