SEK.pdb
     RDKit          3D

 25 24  0  0  1  0  0  0  0  0999 V2000
    8.1764  -12.2672   19.7912 O   0  0  0  0  0  0  0  0  0  0  0  0
    8.9333  -12.9458   18.8261 C   0  0  0  0  0  0  0  0  0  0  0  0
    8.3083  -14.3169   18.6748 C   0  0  2  0  0  0  0  0  0  0  0  0
    6.9025  -14.2458   18.4200 N   0  0  0  0  0  0  0  0  0  0  0  0
    8.5244  -15.0764   19.9435 C   0  0  0  0  0  0  0  0  0  0  0  0
    7.6215  -15.1899   20.8098 O   0  0  0  0  0  0  0  0  0  0  0  0
    9.7422  -15.7127   20.2561 N   0  0  0  0  0  0  0  0  0  0  0  0
    9.9301  -16.5366   21.3777 C   0  0  1  0  0  0  0  0  0  0  0  0
   11.1634  -17.3659   21.4302 C   0  0  0  0  0  0  0  0  0  0  0  0
   11.1600  -18.2999   22.6279 C   0  0  0  0  0  0  0  0  0  0  0  0
   12.4089  -19.0834   22.7142 C   0  0  0  0  0  0  0  0  0  0  0  0
   12.5419  -20.1215   22.0335 O   0  0  0  0  0  0  0  0  0  0  0  0
    9.8362  -15.7173   22.6086 C   0  0  0  0  0  0  0  0  0  0  0  0
   10.5899  -14.7262   22.7373 O   0  0  0  0  0  0  0  0  0  0  0  0
   13.4384  -18.6863   23.5390 O   0  0  0  0  0  0  0  0  0  0  0  0
    8.9323  -16.0045   23.6464 N   0  0  0  0  0  0  0  0  0  0  0  0
    8.7905  -15.1991   24.8473 C   0  0  1  0  0  0  0  0  0  0  0  0
    7.3554  -14.7233   24.8490 C   0  0  0  0  0  0  0  0  0  0  0  0
    6.9566  -13.9593   26.0686 C   0  0  0  0  0  0  0  0  0  0  0  0
    6.5554  -12.5704   25.6154 C   0  0  0  0  0  0  0  0  0  0  0  0
    6.2470  -11.6549   26.7796 C   0  0  0  0  0  0  0  0  0  0  0  0
    5.8099  -10.3493   26.3735 N   0  0  0  0  0  0  0  0  0  0  0  0
    9.1956  -15.9155   26.0562 C   0  0  0  0  0  0  0  0  0  0  0  0
    9.1279  -17.1679   26.0868 O   0  0  0  0  0  0  0  0  0  0  0  0
    9.6613  -15.2793   27.1987 O   0  0  0  0  0  0  0  0  0  0  0  0
  1  2  1  0
  3  5  1  0
  3  2  1  0
  3  4  1  1
  5  6  2  0
  7  8  1  0
  7  5  1  0
  8  9  1  6
  9 10  1  0
 11 10  1  0
 11 12  2  0
 13  8  1  0
 14 13  2  0
 15 11  1  0
 16 13  1  0
 17 16  1  0
 18 19  1  0
 17 18  1  1
 19 20  1  0
 20 21  1  0
 21 22  1  0
 23 17  1  0
 23 25  1  0
 24 23  2  0
M  END
$$$$
