SEK.pdb
     RDKit          3D

 25 24  0  0  1  0  0  0  0  0999 V2000
   10.1996  -11.8388   18.1822 O   0  0  0  0  0  0  0  0  0  0  0  0
    9.5639  -12.4911   19.2477 C   0  0  0  0  0  0  0  0  0  0  0  0
    9.0582  -13.8110   18.7043 C   0  0  2  0  0  0  0  0  0  0  0  0
    7.7675  -13.6886   18.0998 N   0  0  0  0  0  0  0  0  0  0  0  0
    8.9635  -14.7820   19.8362 C   0  0  0  0  0  0  0  0  0  0  0  0
    7.8782  -15.0057   20.4284 O   0  0  0  0  0  0  0  0  0  0  0  0
   10.0718  -15.5084   20.3156 N   0  0  0  0  0  0  0  0  0  0  0  0
   10.0077  -16.4244   21.3781 C   0  0  1  0  0  0  0  0  0  0  0  0
   10.9898  -17.5412   21.3911 C   0  0  0  0  0  0  0  0  0  0  0  0
   10.7450  -18.4890   22.5524 C   0  0  0  0  0  0  0  0  0  0  0  0
   11.7951  -19.5233   22.6450 C   0  0  0  0  0  0  0  0  0  0  0  0
   12.7187  -19.5510   21.8054 O   0  0  0  0  0  0  0  0  0  0  0  0
   10.0816  -15.6903   22.6629 C   0  0  0  0  0  0  0  0  0  0  0  0
   11.0615  -14.9420   22.8791 O   0  0  0  0  0  0  0  0  0  0  0  0
   11.7740  -20.4659   23.6494 O   0  0  0  0  0  0  0  0  0  0  0  0
    9.0939  -15.7967   23.6576 N   0  0  0  0  0  0  0  0  0  0  0  0
    9.1297  -15.0771   24.9193 C   0  0  1  0  0  0  0  0  0  0  0  0
    7.8130  -14.3386   25.0022 C   0  0  0  0  0  0  0  0  0  0  0  0
    7.6434  -13.5091   26.2323 C   0  0  0  0  0  0  0  0  0  0  0  0
    6.2748  -12.8643   26.1521 C   0  0  0  0  0  0  0  0  0  0  0  0
    6.0077  -11.9400   27.3196 C   0  0  0  0  0  0  0  0  0  0  0  0
    4.7269  -11.2955   27.2508 N   0  0  0  0  0  0  0  0  0  0  0  0
    9.4100  -15.9513   26.0578 C   0  0  0  0  0  0  0  0  0  0  0  0
    9.5503  -15.4546   27.2012 O   0  0  0  0  0  0  0  0  0  0  0  0
    9.5329  -17.3297   25.9476 O   0  0  0  0  0  0  0  0  0  0  0  0
  1  2  1  0
  3  5  1  0
  3  2  1  0
  3  4  1  1
  5  6  2  0
  7  8  1  0
  7  5  1  0
  8  9  1  6
  9 10  1  0
 11 10  1  0
 11 12  2  0
 13  8  1  0
 14 13  2  0
 15 11  1  0
 16 13  1  0
 17 16  1  0
 18 19  1  0
 17 18  1  1
 19 20  1  0
 20 21  1  0
 21 22  1  0
 23 17  1  0
 23 25  1  0
 24 23  2  0
M  END
$$$$
