SEK.pdb
     RDKit          3D

 25 24  0  0  1  0  0  0  0  0999 V2000
    8.7022  -12.2888   19.8205 O   0  0  0  0  0  0  0  0  0  0  0  0
    9.2600  -13.2002   18.9132 C   0  0  0  0  0  0  0  0  0  0  0  0
    8.3264  -14.3918   18.8713 C   0  0  2  0  0  0  0  0  0  0  0  0
    6.9681  -14.0074   18.6404 N   0  0  0  0  0  0  0  0  0  0  0  0
    8.4043  -15.0986   20.1856 C   0  0  0  0  0  0  0  0  0  0  0  0
    7.5403  -14.9282   21.0818 O   0  0  0  0  0  0  0  0  0  0  0  0
    9.4402  -15.9968   20.5109 N   0  0  0  0  0  0  0  0  0  0  0  0
    9.4938  -16.7305   21.7071 C   0  0  1  0  0  0  0  0  0  0  0  0
   10.5339  -17.7867   21.8268 C   0  0  0  0  0  0  0  0  0  0  0  0
   10.6201  -18.6334   20.5688 C   0  0  0  0  0  0  0  0  0  0  0  0
   11.7635  -19.5670   20.6150 C   0  0  0  0  0  0  0  0  0  0  0  0
   12.7032  -19.4424   19.8024 O   0  0  0  0  0  0  0  0  0  0  0  0
    9.6094  -15.7955   22.8506 C   0  0  0  0  0  0  0  0  0  0  0  0
   10.5127  -14.9290   22.8374 O   0  0  0  0  0  0  0  0  0  0  0  0
   11.8125  -20.5812   21.5460 O   0  0  0  0  0  0  0  0  0  0  0  0
    8.7443  -15.8374   23.9579 N   0  0  0  0  0  0  0  0  0  0  0  0
    8.8524  -14.9563   25.1081 C   0  0  1  0  0  0  0  0  0  0  0  0
    7.5487  -14.1922   25.1572 C   0  0  0  0  0  0  0  0  0  0  0  0
    7.4234  -13.2528   26.3113 C   0  0  0  0  0  0  0  0  0  0  0  0
    6.0279  -12.6649   26.2604 C   0  0  0  0  0  0  0  0  0  0  0  0
    5.7432  -11.7624   27.4406 C   0  0  0  0  0  0  0  0  0  0  0  0
    4.4807  -11.0860   27.3452 N   0  0  0  0  0  0  0  0  0  0  0  0
    9.1834  -15.6749   26.3381 C   0  0  0  0  0  0  0  0  0  0  0  0
    8.9554  -16.9060   26.4174 O   0  0  0  0  0  0  0  0  0  0  0  0
    9.7478  -15.0633   27.4492 O   0  0  0  0  0  0  0  0  0  0  0  0
  1  2  1  0
  3  5  1  0
  3  2  1  0
  3  4  1  1
  5  6  2  0
  7  8  1  0
  7  5  1  0
  8  9  1  6
  9 10  1  0
 11 10  1  0
 11 12  2  0
 13  8  1  0
 14 13  2  0
 15 11  1  0
 16 13  1  0
 17 16  1  0
 18 19  1  0
 17 18  1  1
 19 20  1  0
 20 21  1  0
 21 22  1  0
 23 17  1  0
 23 25  1  0
 24 23  2  0
M  END
$$$$
