SEK.pdb
     RDKit          3D

 25 24  0  0  1  0  0  0  0  0999 V2000
    7.9619  -17.6025   21.2744 O   0  0  0  0  0  0  0  0  0  0  0  0
    8.2063  -18.3082   20.0882 C   0  0  0  0  0  0  0  0  0  0  0  0
    9.6616  -18.0745   19.7405 C   0  0  2  0  0  0  0  0  0  0  0  0
   10.0437  -18.7413   18.5340 N   0  0  0  0  0  0  0  0  0  0  0  0
   10.5036  -18.5958   20.8597 C   0  0  0  0  0  0  0  0  0  0  0  0
   10.5484  -19.8196   21.1407 O   0  0  0  0  0  0  0  0  0  0  0  0
   11.2987  -17.7621   21.6711 N   0  0  0  0  0  0  0  0  0  0  0  0
   12.0636  -18.2228   22.7550 C   0  0  1  0  0  0  0  0  0  0  0  0
   13.3947  -17.5986   22.9794 C   0  0  0  0  0  0  0  0  0  0  0  0
   14.1113  -18.2186   24.1663 C   0  0  0  0  0  0  0  0  0  0  0  0
   15.4619  -17.6494   24.3482 C   0  0  0  0  0  0  0  0  0  0  0  0
   16.4284  -18.1231   23.7156 O   0  0  0  0  0  0  0  0  0  0  0  0
   11.2609  -18.1277   23.9966 C   0  0  0  0  0  0  0  0  0  0  0  0
   10.7762  -17.0207   24.3230 O   0  0  0  0  0  0  0  0  0  0  0  0
   15.6765  -16.5966   25.2104 O   0  0  0  0  0  0  0  0  0  0  0  0
   11.0170  -19.2325   24.8312 N   0  0  0  0  0  0  0  0  0  0  0  0
   10.3137  -19.1534   26.1001 C   0  0  1  0  0  0  0  0  0  0  0  0
    9.3678  -20.3327   26.1134 C   0  0  0  0  0  0  0  0  0  0  0  0
    8.5144  -20.4298   27.3350 C   0  0  0  0  0  0  0  0  0  0  0  0
    7.5522  -21.5799   27.1187 C   0  0  0  0  0  0  0  0  0  0  0  0
    6.5961  -21.7526   28.2782 C   0  0  0  0  0  0  0  0  0  0  0  0
    5.7550  -22.9090   28.1518 N   0  0  0  0  0  0  0  0  0  0  0  0
   11.2227  -19.0894   27.2440 C   0  0  0  0  0  0  0  0  0  0  0  0
   12.3718  -19.5844   27.1513 O   0  0  0  0  0  0  0  0  0  0  0  0
   10.8836  -18.5004   28.4544 O   0  0  0  0  0  0  0  0  0  0  0  0
  1  2  1  0
  3  5  1  0
  3  2  1  0
  3  4  1  6
  5  6  2  0
  7  8  1  0
  7  5  1  0
  8  9  1  1
  9 10  1  0
 11 10  1  0
 11 12  2  0
 13  8  1  0
 14 13  2  0
 15 11  1  0
 16 13  1  0
 17 16  1  0
 18 19  1  0
 17 18  1  1
 19 20  1  0
 20 21  1  0
 21 22  1  0
 23 17  1  0
 23 25  1  0
 24 23  2  0
M  END
$$$$
