SEK.pdb
     RDKit          3D

 25 24  0  0  1  0  0  0  0  0999 V2000
    7.2506  -14.6882   22.1919 O   0  0  0  0  0  0  0  0  0  0  0  0
    7.7354  -14.3789   20.9134 C   0  0  0  0  0  0  0  0  0  0  0  0
    7.7576  -15.6782   20.1357 C   0  0  2  0  0  0  0  0  0  0  0  0
    6.5575  -16.4361   20.3134 N   0  0  0  0  0  0  0  0  0  0  0  0
    8.9125  -16.4959   20.6161 C   0  0  0  0  0  0  0  0  0  0  0  0
    8.7578  -17.4626   21.4036 O   0  0  0  0  0  0  0  0  0  0  0  0
   10.2428  -16.2445   20.2253 N   0  0  0  0  0  0  0  0  0  0  0  0
   11.3324  -17.0512   20.5913 C   0  0  1  0  0  0  0  0  0  0  0  0
   12.5532  -16.9941   19.7438 C   0  0  0  0  0  0  0  0  0  0  0  0
   13.5858  -18.0194   20.1789 C   0  0  0  0  0  0  0  0  0  0  0  0
   14.7743  -18.0048   19.3023 C   0  0  0  0  0  0  0  0  0  0  0  0
   14.6420  -17.8120   18.0759 O   0  0  0  0  0  0  0  0  0  0  0  0
   11.6984  -16.7708   21.9993 C   0  0  0  0  0  0  0  0  0  0  0  0
   11.7342  -15.5829   22.3923 O   0  0  0  0  0  0  0  0  0  0  0  0
   16.0366  -18.2018   19.8175 O   0  0  0  0  0  0  0  0  0  0  0  0
   12.0095  -17.7859   22.9210 N   0  0  0  0  0  0  0  0  0  0  0  0
   12.4260  -17.5403   24.2911 C   0  0  1  0  0  0  0  0  0  0  0  0
   11.8253  -18.6641   25.1048 C   0  0  0  0  0  0  0  0  0  0  0  0
   12.2229  -18.6689   26.5442 C   0  0  0  0  0  0  0  0  0  0  0  0
   11.6765  -19.9431   27.1552 C   0  0  0  0  0  0  0  0  0  0  0  0
   11.9071  -20.0068   28.6490 C   0  0  0  0  0  0  0  0  0  0  0  0
   11.2973  -21.1492   29.2684 N   0  0  0  0  0  0  0  0  0  0  0  0
   13.8760  -17.4017   24.4220 C   0  0  0  0  0  0  0  0  0  0  0  0
   14.6326  -18.0745   23.6811 O   0  0  0  0  0  0  0  0  0  0  0  0
   14.4803  -16.5511   25.3376 O   0  0  0  0  0  0  0  0  0  0  0  0
  1  2  1  0
  3  5  1  0
  3  2  1  0
  3  4  1  1
  5  6  2  0
  7  8  1  0
  7  5  1  0
  8  9  1  6
  9 10  1  0
 11 10  1  0
 11 12  2  0
 13  8  1  0
 14 13  2  0
 15 11  1  0
 16 13  1  0
 17 16  1  0
 18 19  1  0
 17 18  1  1
 19 20  1  0
 20 21  1  0
 21 22  1  0
 23 17  1  0
 23 25  1  0
 24 23  2  0
M  END
$$$$
