SEK.pdb
     RDKit          3D

 25 24  0  0  1  0  0  0  0  0999 V2000
   12.5595  -18.7566   16.6492 O   0  0  0  0  0  0  0  0  0  0  0  0
   11.5013  -19.3114   17.3823 C   0  0  0  0  0  0  0  0  0  0  0  0
   10.4965  -18.1989   17.5968 C   0  0  2  0  0  0  0  0  0  0  0  0
   10.1633  -17.5280   16.3782 N   0  0  0  0  0  0  0  0  0  0  0  0
   11.0889  -17.2039   18.5414 C   0  0  0  0  0  0  0  0  0  0  0  0
   11.5728  -16.1160   18.1402 O   0  0  0  0  0  0  0  0  0  0  0  0
   11.1467  -17.4115   19.9339 N   0  0  0  0  0  0  0  0  0  0  0  0
   11.7639  -16.5266   20.8328 C   0  0  1  0  0  0  0  0  0  0  0  0
   11.4995  -16.7157   22.2840 C   0  0  0  0  0  0  0  0  0  0  0  0
   12.2389  -15.6908   23.1265 C   0  0  0  0  0  0  0  0  0  0  0  0
   12.0248  -15.9128   24.5707 C   0  0  0  0  0  0  0  0  0  0  0  0
   12.4598  -16.9497   25.1133 O   0  0  0  0  0  0  0  0  0  0  0  0
   13.2264  -16.5283   20.5956 C   0  0  0  0  0  0  0  0  0  0  0  0
   13.8214  -17.6235   20.4800 O   0  0  0  0  0  0  0  0  0  0  0  0
   11.3482  -14.9889   25.3365 O   0  0  0  0  0  0  0  0  0  0  0  0
   13.9818  -15.3470   20.4936 N   0  0  0  0  0  0  0  0  0  0  0  0
   15.4156  -15.3163   20.2608 C   0  0  1  0  0  0  0  0  0  0  0  0
   15.6379  -14.2183   19.2454 C   0  0  0  0  0  0  0  0  0  0  0  0
   17.0679  -13.9921   18.8794 C   0  0  0  0  0  0  0  0  0  0  0  0
   17.0997  -12.8519   17.8822 C   0  0  0  0  0  0  0  0  0  0  0  0
   18.5111  -12.4671   17.4969 C   0  0  0  0  0  0  0  0  0  0  0  0
   18.5666  -11.3825   16.5582 N   0  0  0  0  0  0  0  0  0  0  0  0
   16.1832  -15.1669   21.4967 C   0  0  0  0  0  0  0  0  0  0  0  0
   15.6328  -14.6793   22.5132 O   0  0  0  0  0  0  0  0  0  0  0  0
   17.5148  -15.5404   21.6162 O   0  0  0  0  0  0  0  0  0  0  0  0
  1  2  1  0
  3  5  1  0
  3  2  1  0
  3  4  1  6
  5  6  2  0
  7  8  1  0
  7  5  1  0
  8  9  1  1
  9 10  1  0
 11 10  1  0
 11 12  2  0
 13  8  1  0
 14 13  2  0
 15 11  1  0
 16 13  1  0
 17 16  1  0
 18 19  1  0
 17 18  1  6
 19 20  1  0
 20 21  1  0
 21 22  1  0
 23 17  1  0
 23 25  1  0
 24 23  2  0
M  END
$$$$
