SEK.pdb
     RDKit          3D

 25 24  0  0  1  0  0  0  0  0999 V2000
   12.0411  -15.8955   18.0855 O   0  0  0  0  0  0  0  0  0  0  0  0
   11.2016  -15.7618   19.2000 C   0  0  0  0  0  0  0  0  0  0  0  0
   10.4733  -17.0809   19.3509 C   0  0  2  0  0  0  0  0  0  0  0  0
    9.3268  -17.1668   18.4998 N   0  0  0  0  0  0  0  0  0  0  0  0
   10.0235  -17.2118   20.7700 C   0  0  0  0  0  0  0  0  0  0  0  0
    8.8929  -16.8132   21.1462 O   0  0  0  0  0  0  0  0  0  0  0  0
   10.8256  -17.7850   21.7769 N   0  0  0  0  0  0  0  0  0  0  0  0
   10.3810  -18.0337   23.0855 C   0  0  1  0  0  0  0  0  0  0  0  0
   10.9701  -19.1913   23.8098 C   0  0  0  0  0  0  0  0  0  0  0  0
   10.7088  -20.4990   23.0827 C   0  0  0  0  0  0  0  0  0  0  0  0
   11.3313  -21.6445   23.7765 C   0  0  0  0  0  0  0  0  0  0  0  0
   10.8458  -22.0632   24.8478 O   0  0  0  0  0  0  0  0  0  0  0  0
   10.5476  -16.8078   23.9008 C   0  0  0  0  0  0  0  0  0  0  0  0
   11.5966  -16.1358   23.7793 O   0  0  0  0  0  0  0  0  0  0  0  0
   12.4473  -22.2646   23.2588 O   0  0  0  0  0  0  0  0  0  0  0  0
    9.5738  -16.3618   24.8114 N   0  0  0  0  0  0  0  0  0  0  0  0
    9.7397  -15.2081   25.6789 C   0  0  1  0  0  0  0  0  0  0  0  0
    8.3951  -14.5169   25.6955 C   0  0  0  0  0  0  0  0  0  0  0  0
    8.3428  -13.2817   26.5331 C   0  0  0  0  0  0  0  0  0  0  0  0
    6.9152  -12.7757   26.4957 C   0  0  0  0  0  0  0  0  0  0  0  0
    6.7470  -11.4791   27.2567 C   0  0  0  0  0  0  0  0  0  0  0  0
    5.3992  -10.9853   27.2440 N   0  0  0  0  0  0  0  0  0  0  0  0
   10.2559  -15.5668   26.9994 C   0  0  0  0  0  0  0  0  0  0  0  0
   10.1321  -16.7442   27.4147 O   0  0  0  0  0  0  0  0  0  0  0  0
   10.8894  -14.6627   27.8410 O   0  0  0  0  0  0  0  0  0  0  0  0
  1  2  1  0
  3  5  1  0
  3  2  1  0
  3  4  1  6
  5  6  2  0
  7  8  1  0
  7  5  1  0
  8  9  1  1
  9 10  1  0
 11 10  1  0
 11 12  2  0
 13  8  1  0
 14 13  2  0
 15 11  1  0
 16 13  1  0
 17 16  1  0
 18 19  1  0
 17 18  1  1
 19 20  1  0
 20 21  1  0
 21 22  1  0
 23 17  1  0
 23 25  1  0
 24 23  2  0
M  END
$$$$
