TIN.pdb
     RDKit          3D

 24 23  0  0  1  0  0  0  0  0999 V2000
    6.4292  -16.3015   20.9951 C   0  0  0  0  0  0  0  0  0  0  0  0
    7.4240  -15.4698   20.1969 C   0  0  1  0  0  0  0  0  0  0  0  0
    7.0113  -15.4865   18.8785 O   0  0  0  0  0  0  0  0  0  0  0  0
    7.4196  -14.0808   20.7859 C   0  0  2  0  0  0  0  0  0  0  0  0
    8.0085  -13.1767   19.8386 N   0  0  0  0  0  0  0  0  0  0  0  0
    8.1218  -14.0350   22.0981 C   0  0  0  0  0  0  0  0  0  0  0  0
    9.3682  -14.0285   22.1422 O   0  0  0  0  0  0  0  0  0  0  0  0
    5.8194  -11.1828   26.0556 C   0  0  0  0  0  0  0  0  0  0  0  0
    6.8905  -11.8620   25.2719 C   0  0  0  0  0  0  0  0  0  0  0  0
    7.0459  -13.3381   25.5961 C   0  0  2  0  0  0  0  0  0  0  0  0
    7.6123  -13.3830   26.9936 C   0  0  0  0  0  0  0  0  0  0  0  0
    7.9852  -14.0234   24.6402 C   0  0  2  0  0  0  0  0  0  0  0  0
    7.3583  -13.9997   23.2846 N   0  0  0  0  0  0  0  0  0  0  0  0
    8.1188  -15.4416   25.0380 C   0  0  0  0  0  0  0  0  0  0  0  0
    7.1975  -16.2727   24.6941 O   0  0  0  0  0  0  0  0  0  0  0  0
   12.3164  -18.4284   22.9149 N   0  0  0  0  0  0  0  0  0  0  0  0
   11.0472  -18.4867   23.5753 C   0  0  0  0  0  0  0  0  0  0  0  0
   10.4969  -19.5823   23.8598 O   0  0  0  0  0  0  0  0  0  0  0  0
   10.3164  -17.2474   23.9624 C   0  0  0  0  0  0  0  0  0  0  0  0
    9.7675  -17.3025   25.3617 C   0  0  2  0  0  0  0  0  0  0  0  0
    9.1670  -16.0318   25.7732 N   0  0  0  0  0  0  0  0  0  0  0  0
   10.9007  -17.5702   26.2620 C   0  0  0  0  0  0  0  0  0  0  0  0
   11.0687  -18.6716   26.8018 O   0  0  0  0  0  0  0  0  0  0  0  0
   11.8156  -16.5575   26.5185 O   0  0  0  0  0  0  0  0  0  0  0  0
  2  3  1  0
  2  1  1  1
  4  2  1  0
  4  5  1  6
  6  7  2  0
  6  4  1  0
  9  8  1  0
  9 10  1  0
 10 11  1  1
 12 10  1  0
 12 13  1  6
 13  6  1  0
 14 12  1  0
 15 14  2  0
 17 16  1  0
 18 17  2  0
 20 19  1  6
 19 17  1  0
 20 21  1  0
 21 14  1  0
 22 24  1  0
 22 20  1  0
 23 22  2  0
M  END
$$$$
