TIN.pdb
     RDKit          3D

 24 23  0  0  1  0  0  0  0  0999 V2000
    8.1684  -19.3943   18.3545 C   0  0  0  0  0  0  0  0  0  0  0  0
    8.8599  -19.0621   17.0392 C   0  0  1  0  0  0  0  0  0  0  0  0
    8.2949  -19.8600   16.0632 O   0  0  0  0  0  0  0  0  0  0  0  0
    8.6438  -17.5916   16.7796 C   0  0  2  0  0  0  0  0  0  0  0  0
    9.1146  -17.2828   15.4587 N   0  0  0  0  0  0  0  0  0  0  0  0
    9.3065  -16.7454   17.8101 C   0  0  0  0  0  0  0  0  0  0  0  0
   10.5505  -16.6646   17.8496 O   0  0  0  0  0  0  0  0  0  0  0  0
    6.7068  -12.2528   19.8739 C   0  0  0  0  0  0  0  0  0  0  0  0
    7.8633  -13.1162   19.5001 C   0  0  0  0  0  0  0  0  0  0  0  0
    8.0334  -14.3342   20.3921 C   0  0  2  0  0  0  0  0  0  0  0  0
    8.4440  -13.7899   21.7378 C   0  0  0  0  0  0  0  0  0  0  0  0
    9.0954  -15.2642   19.8699 C   0  0  2  0  0  0  0  0  0  0  0  0
    8.5086  -16.0407   18.7367 N   0  0  0  0  0  0  0  0  0  0  0  0
    9.4448  -16.2326   20.9318 C   0  0  0  0  0  0  0  0  0  0  0  0
    8.5601  -17.0896   21.3067 O   0  0  0  0  0  0  0  0  0  0  0  0
   12.4616  -20.3437   23.2905 N   0  0  0  0  0  0  0  0  0  0  0  0
   12.6786  -18.9467   23.5170 C   0  0  0  0  0  0  0  0  0  0  0  0
   13.1523  -18.5157   24.6005 O   0  0  0  0  0  0  0  0  0  0  0  0
   12.3561  -17.9324   22.4742 C   0  0  0  0  0  0  0  0  0  0  0  0
   10.9296  -17.4596   22.5367 C   0  0  2  0  0  0  0  0  0  0  0  0
   10.6715  -16.3499   21.6167 N   0  0  0  0  0  0  0  0  0  0  0  0
   10.6953  -16.9669   23.9036 C   0  0  0  0  0  0  0  0  0  0  0  0
   10.7945  -15.7687   24.1993 O   0  0  0  0  0  0  0  0  0  0  0  0
   10.3509  -17.8712   24.8996 O   0  0  0  0  0  0  0  0  0  0  0  0
  2  3  1  0
  2  1  1  1
  4  2  1  0
  4  5  1  6
  6  7  2  0
  6  4  1  0
  9  8  1  0
  9 10  1  0
 10 11  1  1
 12 10  1  0
 12 13  1  6
 13  6  1  0
 14 12  1  0
 15 14  2  0
 17 16  1  0
 18 17  2  0
 20 19  1  1
 19 17  1  0
 20 21  1  0
 21 14  1  0
 22 24  1  0
 22 20  1  0
 23 22  2  0
M  END
$$$$
