TIN.pdb
     RDKit          3D

 24 23  0  0  1  0  0  0  0  0999 V2000
    6.3185  -17.3302   20.2961 C   0  0  0  0  0  0  0  0  0  0  0  0
    7.0728  -16.8817   21.5404 C   0  0  1  0  0  0  0  0  0  0  0  0
    8.0958  -17.7860   21.7508 O   0  0  0  0  0  0  0  0  0  0  0  0
    7.5812  -15.4859   21.2761 C   0  0  2  0  0  0  0  0  0  0  0  0
    8.3542  -15.4985   20.0661 N   0  0  0  0  0  0  0  0  0  0  0  0
    8.3681  -14.9579   22.4246 C   0  0  0  0  0  0  0  0  0  0  0  0
    9.5987  -14.7862   22.3152 O   0  0  0  0  0  0  0  0  0  0  0  0
    5.6959  -11.7305   26.0685 C   0  0  0  0  0  0  0  0  0  0  0  0
    6.8094  -12.2740   25.2394 C   0  0  0  0  0  0  0  0  0  0  0  0
    7.4001  -13.5666   25.7766 C   0  0  2  0  0  0  0  0  0  0  0  0
    8.0557  -13.1937   27.0831 C   0  0  0  0  0  0  0  0  0  0  0  0
    8.4233  -14.1453   24.8366 C   0  0  2  0  0  0  0  0  0  0  0  0
    7.7028  -14.6569   23.6323 N   0  0  0  0  0  0  0  0  0  0  0  0
    9.0675  -15.3057   25.4893 C   0  0  0  0  0  0  0  0  0  0  0  0
    9.9241  -15.0946   26.4270 O   0  0  0  0  0  0  0  0  0  0  0  0
   12.3070  -19.6175   24.6227 N   0  0  0  0  0  0  0  0  0  0  0  0
   12.2541  -18.3652   25.3150 C   0  0  0  0  0  0  0  0  0  0  0  0
   13.0768  -18.0729   26.2216 O   0  0  0  0  0  0  0  0  0  0  0  0
   11.2202  -17.3425   24.9908 C   0  0  0  0  0  0  0  0  0  0  0  0
    9.8643  -17.6822   25.5462 C   0  0  2  0  0  0  0  0  0  0  0  0
    8.8582  -16.6720   25.2117 N   0  0  0  0  0  0  0  0  0  0  0  0
    9.9914  -17.7139   27.0121 C   0  0  0  0  0  0  0  0  0  0  0  0
   10.2618  -18.7529   27.6288 O   0  0  0  0  0  0  0  0  0  0  0  0
    9.8030  -16.5425   27.7336 O   0  0  0  0  0  0  0  0  0  0  0  0
  2  3  1  0
  2  1  1  6
  4  2  1  0
  4  5  1  6
  6  7  2  0
  6  4  1  0
  9  8  1  0
  9 10  1  0
 10 11  1  1
 12 10  1  0
 12 13  1  6
 13  6  1  0
 14 12  1  0
 15 14  2  0
 17 16  1  0
 18 17  2  0
 20 19  1  6
 19 17  1  0
 20 21  1  0
 21 14  1  0
 22 24  1  0
 22 20  1  0
 23 22  2  0
M  END
$$$$
