TIN.pdb
     RDKit          3D

 24 23  0  0  1  0  0  0  0  0999 V2000
    8.1762  -16.5901   19.3329 C   0  0  0  0  0  0  0  0  0  0  0  0
    8.7608  -15.7713   20.4758 C   0  0  1  0  0  0  0  0  0  0  0  0
    8.2450  -14.4937   20.3738 O   0  0  0  0  0  0  0  0  0  0  0  0
    8.3648  -16.4530   21.7622 C   0  0  2  0  0  0  0  0  0  0  0  0
    6.9321  -16.4627   21.8565 N   0  0  0  0  0  0  0  0  0  0  0  0
    8.9885  -15.8018   22.9472 C   0  0  0  0  0  0  0  0  0  0  0  0
   10.2189  -15.5993   22.9761 O   0  0  0  0  0  0  0  0  0  0  0  0
    5.9136  -12.1490   25.6033 C   0  0  0  0  0  0  0  0  0  0  0  0
    7.1322  -12.8257   25.0744 C   0  0  0  0  0  0  0  0  0  0  0  0
    7.5922  -14.0055   25.9139 C   0  0  2  0  0  0  0  0  0  0  0  0
    8.0686  -13.4087   27.2149 C   0  0  0  0  0  0  0  0  0  0  0  0
    8.7166  -14.7562   25.2523 C   0  0  2  0  0  0  0  0  0  0  0  0
    8.1694  -15.4200   24.0313 N   0  0  0  0  0  0  0  0  0  0  0  0
    9.1774  -15.8253   26.1646 C   0  0  0  0  0  0  0  0  0  0  0  0
    8.3806  -16.8008   26.4311 O   0  0  0  0  0  0  0  0  0  0  0  0
   11.8154  -19.3796   28.9368 N   0  0  0  0  0  0  0  0  0  0  0  0
   12.6139  -18.8373   27.8792 C   0  0  0  0  0  0  0  0  0  0  0  0
   13.7113  -19.3545   27.5441 O   0  0  0  0  0  0  0  0  0  0  0  0
   12.1795  -17.6316   27.1192 C   0  0  0  0  0  0  0  0  0  0  0  0
   10.8205  -17.1362   27.5312 C   0  0  2  0  0  0  0  0  0  0  0  0
   10.4280  -15.9249   26.8078 N   0  0  0  0  0  0  0  0  0  0  0  0
   10.8983  -16.7940   28.9606 C   0  0  0  0  0  0  0  0  0  0  0  0
   10.8908  -15.6222   29.3601 O   0  0  0  0  0  0  0  0  0  0  0  0
   10.9832  -17.8154   29.8976 O   0  0  0  0  0  0  0  0  0  0  0  0
  2  3  1  0
  2  1  1  6
  4  2  1  0
  4  5  1  1
  6  7  2  0
  6  4  1  0
  9  8  1  0
  9 10  1  0
 10 11  1  1
 12 10  1  0
 12 13  1  6
 13  6  1  0
 14 12  1  0
 15 14  2  0
 17 16  1  0
 18 17  2  0
 20 19  1  6
 19 17  1  0
 20 21  1  0
 21 14  1  0
 22 24  1  0
 22 20  1  0
 23 22  2  0
M  END
$$$$
