TIN.pdb
     RDKit          3D

 24 23  0  0  1  0  0  0  0  0999 V2000
    7.5934  -19.4073   18.9420 C   0  0  0  0  0  0  0  0  0  0  0  0
    8.4360  -19.2488   17.6837 C   0  0  1  0  0  0  0  0  0  0  0  0
    7.9515  -20.1419   16.7477 O   0  0  0  0  0  0  0  0  0  0  0  0
    8.3041  -17.8141   17.2354 C   0  0  2  0  0  0  0  0  0  0  0  0
    8.8139  -17.7007   15.8978 N   0  0  0  0  0  0  0  0  0  0  0  0
    8.9934  -16.8788   18.1666 C   0  0  0  0  0  0  0  0  0  0  0  0
   10.2329  -16.7476   18.1197 O   0  0  0  0  0  0  0  0  0  0  0  0
    6.6855  -12.1531   19.8091 C   0  0  0  0  0  0  0  0  0  0  0  0
    7.7598  -13.1487   19.5310 C   0  0  0  0  0  0  0  0  0  0  0  0
    7.8543  -14.2553   20.5677 C   0  0  2  0  0  0  0  0  0  0  0  0
    8.3080  -13.5767   21.8364 C   0  0  0  0  0  0  0  0  0  0  0  0
    8.8493  -15.3113   20.1674 C   0  0  2  0  0  0  0  0  0  0  0  0
    8.2258  -16.1476   19.0982 N   0  0  0  0  0  0  0  0  0  0  0  0
    9.0988  -16.1949   21.3269 C   0  0  0  0  0  0  0  0  0  0  0  0
    8.2584  -17.1359   21.5832 O   0  0  0  0  0  0  0  0  0  0  0  0
   11.2184  -20.5910   22.8236 N   0  0  0  0  0  0  0  0  0  0  0  0
   11.9779  -19.4863   22.3206 C   0  0  0  0  0  0  0  0  0  0  0  0
   13.2365  -19.4843   22.3364 O   0  0  0  0  0  0  0  0  0  0  0  0
   11.3113  -18.2828   21.7484 C   0  0  0  0  0  0  0  0  0  0  0  0
   10.7565  -17.3630   22.8012 C   0  0  2  0  0  0  0  0  0  0  0  0
   10.1826  -16.1441   22.2272 N   0  0  0  0  0  0  0  0  0  0  0  0
   11.8803  -16.9616   23.6626 C   0  0  0  0  0  0  0  0  0  0  0  0
   12.4371  -15.8614   23.5512 O   0  0  0  0  0  0  0  0  0  0  0  0
   12.3361  -17.8420   24.6350 O   0  0  0  0  0  0  0  0  0  0  0  0
  2  3  1  0
  2  1  1  1
  4  2  1  0
  4  5  1  6
  6  7  2  0
  6  4  1  0
  9  8  1  0
  9 10  1  0
 10 11  1  1
 12 10  1  0
 12 13  1  6
 13  6  1  0
 14 12  1  0
 15 14  2  0
 17 16  1  0
 18 17  2  0
 20 19  1  6
 19 17  1  0
 20 21  1  0
 21 14  1  0
 22 24  1  0
 22 20  1  0
 23 22  2  0
M  END
$$$$
