TIN.pdb
     RDKit          3D

 24 23  0  0  1  0  0  0  0  0999 V2000
    7.1743  -20.0457   17.4652 C   0  0  0  0  0  0  0  0  0  0  0  0
    7.8256  -19.2353   18.5777 C   0  0  1  0  0  0  0  0  0  0  0  0
    8.8439  -20.0047   19.1064 O   0  0  0  0  0  0  0  0  0  0  0  0
    8.3303  -17.9542   17.9608 C   0  0  2  0  0  0  0  0  0  0  0  0
    9.2322  -18.2813   16.8925 N   0  0  0  0  0  0  0  0  0  0  0  0
    8.9742  -17.0706   18.9716 C   0  0  0  0  0  0  0  0  0  0  0  0
   10.2116  -17.0932   19.1265 O   0  0  0  0  0  0  0  0  0  0  0  0
    7.1742  -12.0301   19.6465 C   0  0  0  0  0  0  0  0  0  0  0  0
    8.1166  -13.1833   19.7136 C   0  0  0  0  0  0  0  0  0  0  0  0
    7.8817  -14.0996   20.9025 C   0  0  2  0  0  0  0  0  0  0  0  0
    8.2702  -13.2894   22.1143 C   0  0  0  0  0  0  0  0  0  0  0  0
    8.7269  -15.3425   20.8246 C   0  0  2  0  0  0  0  0  0  0  0  0
    8.1661  -16.2122   19.7475 N   0  0  0  0  0  0  0  0  0  0  0  0
    8.6020  -16.0843   22.0980 C   0  0  0  0  0  0  0  0  0  0  0  0
    7.5346  -16.7709   22.3149 O   0  0  0  0  0  0  0  0  0  0  0  0
   12.3527  -19.8717   23.6751 N   0  0  0  0  0  0  0  0  0  0  0  0
   10.9597  -19.6516   23.4271 C   0  0  0  0  0  0  0  0  0  0  0  0
   10.0874  -20.5035   23.7393 O   0  0  0  0  0  0  0  0  0  0  0  0
   10.4743  -18.3961   22.7882 C   0  0  0  0  0  0  0  0  0  0  0  0
    9.9014  -17.4180   23.7769 C   0  0  2  0  0  0  0  0  0  0  0  0
    9.5371  -16.1450   23.1514 N   0  0  0  0  0  0  0  0  0  0  0  0
   10.9512  -17.1402   24.7704 C   0  0  0  0  0  0  0  0  0  0  0  0
   11.8998  -16.3808   24.5333 O   0  0  0  0  0  0  0  0  0  0  0  0
   10.8808  -17.7470   26.0174 O   0  0  0  0  0  0  0  0  0  0  0  0
  2  3  1  0
  2  1  1  6
  4  2  1  0
  4  5  1  6
  6  7  2  0
  6  4  1  0
  9  8  1  0
  9 10  1  0
 10 11  1  1
 12 10  1  0
 12 13  1  6
 13  6  1  0
 14 12  1  0
 15 14  2  0
 17 16  1  0
 18 17  2  0
 20 19  1  6
 19 17  1  0
 20 21  1  0
 21 14  1  0
 22 24  1  0
 22 20  1  0
 23 22  2  0
M  END
$$$$
