TIN.pdb
     RDKit          3D

 24 23  0  0  1  0  0  0  0  0999 V2000
    6.9492  -16.3442   20.9405 C   0  0  0  0  0  0  0  0  0  0  0  0
    7.6475  -15.2965   20.0842 C   0  0  1  0  0  0  0  0  0  0  0  0
    7.1625  -15.4259   18.7971 O   0  0  0  0  0  0  0  0  0  0  0  0
    7.3367  -13.9482   20.6857 C   0  0  2  0  0  0  0  0  0  0  0  0
    7.6853  -12.9288   19.7364 N   0  0  0  0  0  0  0  0  0  0  0  0
    8.0345  -13.7491   21.9859 C   0  0  0  0  0  0  0  0  0  0  0  0
    9.2535  -13.4863   22.0093 O   0  0  0  0  0  0  0  0  0  0  0  0
    5.4714  -11.5033   26.3065 C   0  0  0  0  0  0  0  0  0  0  0  0
    6.5548  -11.9533   25.3864 C   0  0  0  0  0  0  0  0  0  0  0  0
    6.9188  -13.4205   25.5382 C   0  0  2  0  0  0  0  0  0  0  0  0
    7.4801  -13.5509   26.9323 C   0  0  0  0  0  0  0  0  0  0  0  0
    7.9505  -13.8467   24.5285 C   0  0  2  0  0  0  0  0  0  0  0  0
    7.2984  -13.8627   23.1847 N   0  0  0  0  0  0  0  0  0  0  0  0
    8.3687  -15.2328   24.8305 C   0  0  0  0  0  0  0  0  0  0  0  0
    7.4648  -16.1411   24.9557 O   0  0  0  0  0  0  0  0  0  0  0  0
   12.5761  -16.6383   22.8082 N   0  0  0  0  0  0  0  0  0  0  0  0
   11.4633  -17.3690   23.3354 C   0  0  0  0  0  0  0  0  0  0  0  0
   10.5864  -17.8740   22.5870 O   0  0  0  0  0  0  0  0  0  0  0  0
   11.2920  -17.5704   24.8018 C   0  0  0  0  0  0  0  0  0  0  0  0
    9.9458  -17.1239   25.3022 C   0  0  2  0  0  0  0  0  0  0  0  0
    9.6822  -15.7144   25.0049 N   0  0  0  0  0  0  0  0  0  0  0  0
    9.9553  -17.2746   26.7663 C   0  0  0  0  0  0  0  0  0  0  0  0
   10.1324  -16.3143   27.5274 O   0  0  0  0  0  0  0  0  0  0  0  0
    9.7596  -18.5335   27.3186 O   0  0  0  0  0  0  0  0  0  0  0  0
  2  3  1  0
  2  1  1  1
  4  2  1  0
  4  5  1  6
  6  7  2  0
  6  4  1  0
  9  8  1  0
  9 10  1  0
 10 11  1  1
 12 10  1  0
 12 13  1  6
 13  6  1  0
 14 12  1  0
 15 14  2  0
 17 16  1  0
 18 17  2  0
 20 19  1  1
 19 17  1  0
 20 21  1  0
 21 14  1  0
 22 24  1  0
 22 20  1  0
 23 22  2  0
M  END
$$$$
