TIN.pdb
     RDKit          3D

 24 23  0  0  1  0  0  0  0  0999 V2000
   11.6926  -17.6257   15.4289 C   0  0  0  0  0  0  0  0  0  0  0  0
   10.2462  -17.1950   15.6310 C   0  0  1  0  0  0  0  0  0  0  0  0
    9.4889  -17.8263   14.6633 O   0  0  0  0  0  0  0  0  0  0  0  0
    9.8504  -17.6000   17.0295 C   0  0  2  0  0  0  0  0  0  0  0  0
    8.4400  -17.8685   17.0497 N   0  0  0  0  0  0  0  0  0  0  0  0
   10.2265  -16.5649   18.0317 C   0  0  0  0  0  0  0  0  0  0  0  0
   11.3809  -16.0929   18.0423 O   0  0  0  0  0  0  0  0  0  0  0  0
    6.4451  -12.8778   19.6809 C   0  0  0  0  0  0  0  0  0  0  0  0
    7.8189  -13.3993   19.4294 C   0  0  0  0  0  0  0  0  0  0  0  0
    8.2607  -14.4659   20.4170 C   0  0  2  0  0  0  0  0  0  0  0  0
    8.4336  -13.7463   21.7316 C   0  0  0  0  0  0  0  0  0  0  0  0
    9.5615  -15.1021   20.0062 C   0  0  2  0  0  0  0  0  0  0  0  0
    9.2610  -16.1295   18.9645 N   0  0  0  0  0  0  0  0  0  0  0  0
   10.1338  -15.8115   21.1710 C   0  0  0  0  0  0  0  0  0  0  0  0
   10.6617  -15.1212   22.1210 O   0  0  0  0  0  0  0  0  0  0  0  0
   13.1837  -18.7995   24.7324 N   0  0  0  0  0  0  0  0  0  0  0  0
   12.9531  -18.6038   23.3328 C   0  0  0  0  0  0  0  0  0  0  0  0
   13.4010  -19.4016   22.4685 O   0  0  0  0  0  0  0  0  0  0  0  0
   12.1650  -17.4430   22.8313 C   0  0  0  0  0  0  0  0  0  0  0  0
   10.7083  -17.7629   22.6366 C   0  0  2  0  0  0  0  0  0  0  0  0
   10.1784  -17.2033   21.3913 N   0  0  0  0  0  0  0  0  0  0  0  0
    9.9747  -17.1405   23.7505 C   0  0  0  0  0  0  0  0  0  0  0  0
    9.1727  -16.2136   23.5764 O   0  0  0  0  0  0  0  0  0  0  0  0
   10.1848  -17.6042   25.0425 O   0  0  0  0  0  0  0  0  0  0  0  0
  2  3  1  0
  2  1  1  6
  4  2  1  0
  4  5  1  6
  6  7  2  0
  6  4  1  0
  9  8  1  0
  9 10  1  0
 10 11  1  1
 12 10  1  0
 12 13  1  6
 13  6  1  0
 14 12  1  0
 15 14  2  0
 17 16  1  0
 18 17  2  0
 20 19  1  1
 19 17  1  0
 20 21  1  0
 21 14  1  0
 22 24  1  0
 22 20  1  0
 23 22  2  0
M  END
$$$$
