TIN.pdb
     RDKit          3D

 24 23  0  0  1  0  0  0  0  0999 V2000
    8.2140  -18.9190   15.9748 C   0  0  0  0  0  0  0  0  0  0  0  0
    8.7246  -18.1416   17.1803 C   0  0  1  0  0  0  0  0  0  0  0  0
    9.5795  -18.9744   17.8762 O   0  0  0  0  0  0  0  0  0  0  0  0
    9.4191  -16.9090   16.6558 C   0  0  2  0  0  0  0  0  0  0  0  0
   10.4246  -17.3125   15.7135 N   0  0  0  0  0  0  0  0  0  0  0  0
    9.9961  -16.0893   17.7569 C   0  0  0  0  0  0  0  0  0  0  0  0
   11.2012  -15.7686   17.7343 O   0  0  0  0  0  0  0  0  0  0  0  0
    6.8979  -12.1166   19.9093 C   0  0  0  0  0  0  0  0  0  0  0  0
    8.1240  -12.8639   19.5081 C   0  0  0  0  0  0  0  0  0  0  0  0
    8.4736  -14.0137   20.4378 C   0  0  2  0  0  0  0  0  0  0  0  0
    8.8229  -13.3694   21.7563 C   0  0  0  0  0  0  0  0  0  0  0  0
    9.6471  -14.8063   19.9278 C   0  0  2  0  0  0  0  0  0  0  0  0
    9.1620  -15.6838   18.8207 N   0  0  0  0  0  0  0  0  0  0  0  0
   10.1309  -15.6910   21.0099 C   0  0  0  0  0  0  0  0  0  0  0  0
   10.7812  -15.1720   21.9926 O   0  0  0  0  0  0  0  0  0  0  0  0
   13.5377  -18.0204   20.3781 N   0  0  0  0  0  0  0  0  0  0  0  0
   12.4850  -18.6216   21.1401 C   0  0  0  0  0  0  0  0  0  0  0  0
   11.9950  -19.7385   20.8290 O   0  0  0  0  0  0  0  0  0  0  0  0
   11.9198  -17.9522   22.3452 C   0  0  0  0  0  0  0  0  0  0  0  0
   10.4220  -17.8229   22.2966 C   0  0  2  0  0  0  0  0  0  0  0  0
    9.9661  -17.0871   21.1154 N   0  0  0  0  0  0  0  0  0  0  0  0
   10.0142  -17.0540   23.4835 C   0  0  0  0  0  0  0  0  0  0  0  0
    9.3865  -15.9903   23.3971 O   0  0  0  0  0  0  0  0  0  0  0  0
   10.3412  -17.5324   24.7454 O   0  0  0  0  0  0  0  0  0  0  0  0
  2  3  1  0
  2  1  1  6
  4  2  1  0
  4  5  1  6
  6  7  2  0
  6  4  1  0
  9  8  1  0
  9 10  1  0
 10 11  1  1
 12 10  1  0
 12 13  1  6
 13  6  1  0
 14 12  1  0
 15 14  2  0
 17 16  1  0
 18 17  2  0
 20 19  1  6
 19 17  1  0
 20 21  1  0
 21 14  1  0
 22 24  1  0
 22 20  1  0
 23 22  2  0
M  END
$$$$
