TIN.pdb
     RDKit          3D

 24 23  0  0  1  0  0  0  0  0999 V2000
    7.8836  -15.6508   19.0058 C   0  0  0  0  0  0  0  0  0  0  0  0
    8.3439  -14.8934   20.2439 C   0  0  1  0  0  0  0  0  0  0  0  0
    7.5863  -13.7412   20.3278 O   0  0  0  0  0  0  0  0  0  0  0  0
    8.1400  -15.8061   21.4279 C   0  0  2  0  0  0  0  0  0  0  0  0
    6.7317  -16.0231   21.6053 N   0  0  0  0  0  0  0  0  0  0  0  0
    8.7709  -15.2604   22.6613 C   0  0  0  0  0  0  0  0  0  0  0  0
    9.9801  -14.9544   22.6641 O   0  0  0  0  0  0  0  0  0  0  0  0
    6.0388  -11.9838   25.9924 C   0  0  0  0  0  0  0  0  0  0  0  0
    7.1819  -12.6745   25.3299 C   0  0  0  0  0  0  0  0  0  0  0  0
    7.5251  -14.0208   25.9447 C   0  0  2  0  0  0  0  0  0  0  0  0
    8.0526  -13.7079   27.3230 C   0  0  0  0  0  0  0  0  0  0  0  0
    8.5747  -14.7470   25.1470 C   0  0  2  0  0  0  0  0  0  0  0  0
    7.9832  -15.0965   23.8207 N   0  0  0  0  0  0  0  0  0  0  0  0
    8.8996  -16.0172   25.8317 C   0  0  0  0  0  0  0  0  0  0  0  0
    7.9457  -16.8382   26.1032 O   0  0  0  0  0  0  0  0  0  0  0  0
   12.7438  -18.1991   24.1837 N   0  0  0  0  0  0  0  0  0  0  0  0
   11.5829  -18.6009   24.9192 C   0  0  0  0  0  0  0  0  0  0  0  0
   10.5549  -19.0461   24.3454 O   0  0  0  0  0  0  0  0  0  0  0  0
   11.5381  -18.5144   26.4060 C   0  0  0  0  0  0  0  0  0  0  0  0
   10.3400  -17.7605   26.9142 C   0  0  2  0  0  0  0  0  0  0  0  0
   10.1697  -16.4703   26.2428 N   0  0  0  0  0  0  0  0  0  0  0  0
   10.5709  -17.4907   28.3425 C   0  0  0  0  0  0  0  0  0  0  0  0
   10.7025  -16.3416   28.7842 O   0  0  0  0  0  0  0  0  0  0  0  0
   10.6446  -18.5565   29.2296 O   0  0  0  0  0  0  0  0  0  0  0  0
  2  3  1  0
  2  1  1  6
  4  2  1  0
  4  5  1  1
  6  7  2  0
  6  4  1  0
  9  8  1  0
  9 10  1  0
 10 11  1  1
 12 10  1  0
 12 13  1  6
 13  6  1  0
 14 12  1  0
 15 14  2  0
 17 16  1  0
 18 17  2  0
 20 19  1  6
 19 17  1  0
 20 21  1  0
 21 14  1  0
 22 24  1  0
 22 20  1  0
 23 22  2  0
M  END
$$$$
