TIN.pdb
     RDKit          3D

 24 23  0  0  1  0  0  0  0  0999 V2000
    6.2851  -16.9142   19.7676 C   0  0  0  0  0  0  0  0  0  0  0  0
    7.0268  -16.5730   21.0528 C   0  0  1  0  0  0  0  0  0  0  0  0
    8.0287  -17.5107   21.2121 O   0  0  0  0  0  0  0  0  0  0  0  0
    7.5659  -15.1722   20.8993 C   0  0  2  0  0  0  0  0  0  0  0  0
    8.3668  -15.1145   19.7089 N   0  0  0  0  0  0  0  0  0  0  0  0
    8.3349  -14.7416   22.0995 C   0  0  0  0  0  0  0  0  0  0  0  0
    9.5813  -14.7867   22.0948 O   0  0  0  0  0  0  0  0  0  0  0  0
    7.1160  -11.8585   27.5156 C   0  0  0  0  0  0  0  0  0  0  0  0
    7.9534  -12.7920   26.7094 C   0  0  0  0  0  0  0  0  0  0  0  0
    7.3911  -13.0838   25.3285 C   0  0  2  0  0  0  0  0  0  0  0  0
    6.0965  -13.8191   25.5713 C   0  0  0  0  0  0  0  0  0  0  0  0
    8.3235  -13.9423   24.5166 C   0  0  2  0  0  0  0  0  0  0  0  0
    7.6343  -14.2846   23.2363 N   0  0  0  0  0  0  0  0  0  0  0  0
    8.5575  -15.2097   25.2421 C   0  0  0  0  0  0  0  0  0  0  0  0
    7.6028  -16.0707   25.3127 O   0  0  0  0  0  0  0  0  0  0  0  0
   10.4429  -18.5911   23.8070 N   0  0  0  0  0  0  0  0  0  0  0  0
   11.3067  -17.7514   24.5809 C   0  0  0  0  0  0  0  0  0  0  0  0
   12.2271  -17.0770   24.0496 O   0  0  0  0  0  0  0  0  0  0  0  0
   11.1537  -17.6325   26.0582 C   0  0  0  0  0  0  0  0  0  0  0  0
    9.8691  -16.9632   26.4632 C   0  0  2  0  0  0  0  0  0  0  0  0
    9.7386  -15.6206   25.8932 N   0  0  0  0  0  0  0  0  0  0  0  0
    9.8960  -16.8229   27.9281 C   0  0  0  0  0  0  0  0  0  0  0  0
    9.5747  -17.7480   28.6856 O   0  0  0  0  0  0  0  0  0  0  0  0
   10.2943  -15.6151   28.4854 O   0  0  0  0  0  0  0  0  0  0  0  0
  2  3  1  0
  2  1  1  6
  4  2  1  0
  4  5  1  6
  6  7  2  0
  6  4  1  0
  9  8  1  0
  9 10  1  0
 10 11  1  1
 12 10  1  0
 12 13  1  6
 13  6  1  0
 14 12  1  0
 15 14  2  0
 17 16  1  0
 18 17  2  0
 20 19  1  6
 19 17  1  0
 20 21  1  0
 21 14  1  0
 22 24  1  0
 22 20  1  0
 23 22  2  0
M  END
$$$$
