TIN.pdb
     RDKit          3D

 24 23  0  0  1  0  0  0  0  0999 V2000
    9.3669  -19.7635   19.8141 C   0  0  0  0  0  0  0  0  0  0  0  0
    9.5668  -19.5639   18.3179 C   0  0  1  0  0  0  0  0  0  0  0  0
    9.1013  -20.6999   17.6844 O   0  0  0  0  0  0  0  0  0  0  0  0
    8.7969  -18.3271   17.9251 C   0  0  2  0  0  0  0  0  0  0  0  0
    8.7616  -18.2419   16.4922 N   0  0  0  0  0  0  0  0  0  0  0  0
    9.3773  -17.0985   18.5339 C   0  0  0  0  0  0  0  0  0  0  0  0
   10.4720  -16.6565   18.1314 O   0  0  0  0  0  0  0  0  0  0  0  0
    6.4750  -12.6454   19.8950 C   0  0  0  0  0  0  0  0  0  0  0  0
    7.7257  -13.4097   19.6223 C   0  0  0  0  0  0  0  0  0  0  0  0
    8.0963  -14.3921   20.7203 C   0  0  2  0  0  0  0  0  0  0  0  0
    8.5030  -13.5410   21.8976 C   0  0  0  0  0  0  0  0  0  0  0  0
    9.2401  -15.2808   20.3110 C   0  0  2  0  0  0  0  0  0  0  0  0
    8.6729  -16.4461   19.5684 N   0  0  0  0  0  0  0  0  0  0  0  0
    9.8913  -15.8105   21.5288 C   0  0  0  0  0  0  0  0  0  0  0  0
    9.4784  -16.9275   22.0182 O   0  0  0  0  0  0  0  0  0  0  0  0
   12.6798  -17.5077   25.4574 N   0  0  0  0  0  0  0  0  0  0  0  0
   11.2711  -17.5856   25.2132 C   0  0  0  0  0  0  0  0  0  0  0  0
   10.5278  -18.3689   25.8598 O   0  0  0  0  0  0  0  0  0  0  0  0
   10.6147  -16.7363   24.1798 C   0  0  0  0  0  0  0  0  0  0  0  0
   11.5965  -15.9431   23.3619 C   0  0  2  0  0  0  0  0  0  0  0  0
   10.9517  -15.2322   22.2559 N   0  0  0  0  0  0  0  0  0  0  0  0
   12.5492  -16.9013   22.7783 C   0  0  0  0  0  0  0  0  0  0  0  0
   13.7107  -16.5845   22.4898 O   0  0  0  0  0  0  0  0  0  0  0  0
   12.1375  -18.2061   22.5411 O   0  0  0  0  0  0  0  0  0  0  0  0
  2  3  1  0
  2  1  1  1
  4  2  1  0
  4  5  1  6
  6  7  2  0
  6  4  1  0
  9  8  1  0
  9 10  1  0
 10 11  1  1
 12 10  1  0
 12 13  1  6
 13  6  1  0
 14 12  1  0
 15 14  2  0
 17 16  1  0
 18 17  2  0
 20 19  1  6
 19 17  1  0
 20 21  1  0
 21 14  1  0
 22 24  1  0
 22 20  1  0
 23 22  2  0
M  END
$$$$
