TIN.pdb
     RDKit          3D

 24 23  0  0  1  0  0  0  0  0999 V2000
    6.4856  -16.9714   20.4755 C   0  0  0  0  0  0  0  0  0  0  0  0
    7.1263  -16.6364   21.8155 C   0  0  1  0  0  0  0  0  0  0  0  0
    7.9848  -17.6714   22.1323 O   0  0  0  0  0  0  0  0  0  0  0  0
    7.8448  -15.3199   21.6508 C   0  0  2  0  0  0  0  0  0  0  0  0
    8.7719  -15.4343   20.5603 N   0  0  0  0  0  0  0  0  0  0  0  0
    8.5245  -14.9005   22.9074 C   0  0  0  0  0  0  0  0  0  0  0  0
    9.7690  -14.8339   22.9548 O   0  0  0  0  0  0  0  0  0  0  0  0
    5.5631  -11.6301   26.1323 C   0  0  0  0  0  0  0  0  0  0  0  0
    6.7327  -12.2486   25.4452 C   0  0  0  0  0  0  0  0  0  0  0  0
    7.2755  -13.4816   26.1475 C   0  0  2  0  0  0  0  0  0  0  0  0
    7.8550  -12.9791   27.4465 C   0  0  0  0  0  0  0  0  0  0  0  0
    8.3473  -14.1592   25.3364 C   0  0  2  0  0  0  0  0  0  0  0  0
    7.7420  -14.5818   24.0379 N   0  0  0  0  0  0  0  0  0  0  0  0
    8.7746  -15.3867   26.0422 C   0  0  0  0  0  0  0  0  0  0  0  0
    9.2829  -15.2808   27.2204 O   0  0  0  0  0  0  0  0  0  0  0  0
    6.3161  -19.0773   24.5712 N   0  0  0  0  0  0  0  0  0  0  0  0
    6.9259  -18.9312   25.8584 C   0  0  0  0  0  0  0  0  0  0  0  0
    6.2533  -18.6441   26.8827 O   0  0  0  0  0  0  0  0  0  0  0  0
    8.3921  -19.1169   26.0478 C   0  0  0  0  0  0  0  0  0  0  0  0
    9.1019  -17.8437   26.4184 C   0  0  2  0  0  0  0  0  0  0  0  0
    8.6941  -16.7156   25.5785 N   0  0  0  0  0  0  0  0  0  0  0  0
   10.5393  -18.0673   26.1943 C   0  0  0  0  0  0  0  0  0  0  0  0
   11.1785  -17.4428   25.3374 O   0  0  0  0  0  0  0  0  0  0  0  0
   11.2066  -19.0088   26.9666 O   0  0  0  0  0  0  0  0  0  0  0  0
  2  3  1  0
  2  1  1  6
  4  2  1  0
  4  5  1  6
  6  7  2  0
  6  4  1  0
  9  8  1  0
  9 10  1  0
 10 11  1  1
 12 10  1  0
 12 13  1  6
 13  6  1  0
 14 12  1  0
 15 14  2  0
 17 16  1  0
 18 17  2  0
 20 19  1  6
 19 17  1  0
 20 21  1  0
 21 14  1  0
 22 24  1  0
 22 20  1  0
 23 22  2  0
M  END
$$$$
