WHS.pdb
     RDKit          3D

 31 33  0  0  1  0  0  0  0  0999 V2000
    6.1812  -17.3989   24.5203 N   0  0  0  0  0  0  0  0  0  0  0  0
    7.1742  -16.4134   24.2338 C   0  0  1  0  0  0  0  0  0  0  0  0
    7.6792  -15.8104   25.5229 C   0  0  0  0  0  0  0  0  0  0  0  0
    6.8175  -14.7373   26.0590 C   0  0  0  0  0  0  0  0  0  0  0  0
    5.6123  -14.8774   26.7335 C   0  0  0  0  0  0  0  0  0  0  0  0
    5.1233  -13.6744   27.0230 N   0  0  0  0  0  0  0  0  0  0  0  0
    5.9803  -12.7476   26.5546 C   0  0  0  0  0  0  0  0  0  0  0  0
    5.9846  -11.3635   26.5786 C   0  0  0  0  0  0  0  0  0  0  0  0
    7.0122  -10.6351   26.0217 C   0  0  0  0  0  0  0  0  0  0  0  0
    8.0728  -11.2617   25.4210 C   0  0  0  0  0  0  0  0  0  0  0  0
    8.0856  -12.6401   25.3874 C   0  0  0  0  0  0  0  0  0  0  0  0
    7.0688  -13.3769   25.9368 C   0  0  0  0  0  0  0  0  0  0  0  0
    8.3672  -17.0169   23.5445 C   0  0  0  0  0  0  0  0  0  0  0  0
    8.4651  -18.2706   23.5447 O   0  0  0  0  0  0  0  0  0  0  0  0
    9.3658  -16.2672   22.9066 N   0  0  0  0  0  0  0  0  0  0  0  0
   10.5694  -16.8488   22.3351 C   0  0  1  0  0  0  0  0  0  0  0  0
   11.1378  -15.9102   21.2582 C   0  0  0  0  0  0  0  0  0  0  0  0
   12.3270  -16.4355   20.6036 C   0  0  0  0  0  0  0  0  0  0  0  0
   13.6138  -15.9937   20.7712 C   0  0  0  0  0  0  0  0  0  0  0  0
   14.4180  -16.7432   19.9879 N   0  0  0  0  0  0  0  0  0  0  0  0
   13.6687  -17.6413   19.3355 C   0  0  0  0  0  0  0  0  0  0  0  0
   12.3751  -17.4414   19.7246 N   0  0  0  0  0  0  0  0  0  0  0  0
   11.5754  -17.1465   23.3776 C   0  0  0  0  0  0  0  0  0  0  0  0
   12.0255  -16.2278   24.1050 O   0  0  0  0  0  0  0  0  0  0  0  0
   12.9725  -20.8614   23.4248 O   0  0  0  0  0  0  0  0  0  0  0  0
   12.9387  -20.3414   24.7211 C   0  0  0  0  0  0  0  0  0  0  0  0
   13.0419  -18.8136   24.5707 C   0  0  2  0  0  0  0  0  0  0  0  0
   12.0616  -18.4523   23.5951 N   0  0  0  0  0  0  0  0  0  0  0  0
   14.4105  -18.4120   24.2523 C   0  0  0  0  0  0  0  0  0  0  0  0
   14.6838  -17.9675   23.1162 O   0  0  0  0  0  0  0  0  0  0  0  0
   15.4326  -18.5059   25.1742 O   0  0  0  0  0  0  0  0  0  0  0  0
  2  1  1  1
  3  2  1  0
  4  3  1  0
  4  5  2  0
  6  5  1  0
  7  6  1  0
  8  7  2  0
  9  8  1  0
 10  9  2  0
 10 11  1  0
 11 12  2  0
 12  7  1  0
 12  4  1  0
 13 14  2  0
 13  2  1  0
 15 13  1  0
 16 15  1  0
 16 17  1  6
 18 17  1  0
 18 22  1  0
 19 18  2  0
 20 19  1  0
 20 21  1  0
 21 22  2  0
 23 16  1  0
 24 23  2  0
 25 26  1  0
 27 26  1  6
 27 28  1  0
 28 23  1  0
 29 27  1  0
 29 31  1  0
 30 29  2  0
M  END
$$$$
