WHS.pdb
     RDKit          3D

 31 33  0  0  1  0  0  0  0  0999 V2000
    6.2884  -17.8823   24.1000 N   0  0  0  0  0  0  0  0  0  0  0  0
    7.0325  -16.7050   23.7847 C   0  0  1  0  0  0  0  0  0  0  0  0
    7.6685  -16.1542   25.0388 C   0  0  0  0  0  0  0  0  0  0  0  0
    6.8852  -15.0819   25.6851 C   0  0  0  0  0  0  0  0  0  0  0  0
    5.7024  -15.2114   26.4001 C   0  0  0  0  0  0  0  0  0  0  0  0
    5.2877  -14.0100   26.7936 N   0  0  0  0  0  0  0  0  0  0  0  0
    6.1718  -13.0946   26.3540 C   0  0  0  0  0  0  0  0  0  0  0  0
    6.2481  -11.7176   26.4740 C   0  0  0  0  0  0  0  0  0  0  0  0
    7.2886  -11.0017   25.9249 C   0  0  0  0  0  0  0  0  0  0  0  0
    8.2908  -11.6342   25.2364 C   0  0  0  0  0  0  0  0  0  0  0  0
    8.2315  -13.0057   25.1065 C   0  0  0  0  0  0  0  0  0  0  0  0
    7.2009  -13.7299   25.6470 C   0  0  0  0  0  0  0  0  0  0  0  0
    8.1544  -17.0017   22.8278 C   0  0  0  0  0  0  0  0  0  0  0  0
    8.5434  -18.1943   22.7410 O   0  0  0  0  0  0  0  0  0  0  0  0
    8.7837  -16.0325   22.0335 N   0  0  0  0  0  0  0  0  0  0  0  0
    9.9610  -16.2955   21.2220 C   0  0  1  0  0  0  0  0  0  0  0  0
   10.2120  -15.1116   20.2737 C   0  0  0  0  0  0  0  0  0  0  0  0
   11.3213  -15.3310   19.3573 C   0  0  0  0  0  0  0  0  0  0  0  0
   11.3417  -16.1930   18.2915 C   0  0  0  0  0  0  0  0  0  0  0  0
   12.5513  -16.0973   17.7001 N   0  0  0  0  0  0  0  0  0  0  0  0
   13.2873  -15.1990   18.3674 C   0  0  0  0  0  0  0  0  0  0  0  0
   12.5152  -14.7309   19.3918 N   0  0  0  0  0  0  0  0  0  0  0  0
   11.1461  -16.5759   22.0611 C   0  0  0  0  0  0  0  0  0  0  0  0
   11.5895  -15.7012   22.8448 O   0  0  0  0  0  0  0  0  0  0  0  0
   12.1075  -19.9509   23.6842 O   0  0  0  0  0  0  0  0  0  0  0  0
   13.1355  -19.6206   22.7977 C   0  0  0  0  0  0  0  0  0  0  0  0
   13.0780  -18.0924   22.6282 C   0  0  2  0  0  0  0  0  0  0  0  0
   11.8153  -17.8166   22.0177 N   0  0  0  0  0  0  0  0  0  0  0  0
   14.2422  -17.6051   21.8914 C   0  0  0  0  0  0  0  0  0  0  0  0
   14.0987  -17.1040   20.7550 O   0  0  0  0  0  0  0  0  0  0  0  0
   15.5184  -17.6776   22.4108 O   0  0  0  0  0  0  0  0  0  0  0  0
  2  1  1  1
  3  2  1  0
  4  3  1  0
  4  5  2  0
  6  5  1  0
  7  6  1  0
  8  7  2  0
  9  8  1  0
 10  9  2  0
 10 11  1  0
 11 12  2  0
 12  7  1  0
 12  4  1  0
 13 14  2  0
 13  2  1  0
 15 13  1  0
 16 15  1  0
 16 17  1  1
 18 17  1  0
 18 22  1  0
 19 18  2  0
 20 19  1  0
 20 21  1  0
 21 22  2  0
 23 16  1  0
 24 23  2  0
 25 26  1  0
 27 26  1  6
 27 28  1  0
 28 23  1  0
 29 27  1  0
 29 31  1  0
 30 29  2  0
M  END
$$$$
