WHS.pdb
     RDKit          3D

 31 33  0  0  1  0  0  0  0  0999 V2000
    6.3814  -17.2403   23.3427 N   0  0  0  0  0  0  0  0  0  0  0  0
    7.2273  -16.1026   23.1713 C   0  0  1  0  0  0  0  0  0  0  0  0
    7.9543  -15.8102   24.4621 C   0  0  0  0  0  0  0  0  0  0  0  0
    7.1158  -15.1527   25.4849 C   0  0  0  0  0  0  0  0  0  0  0  0
    6.2075  -15.7515   26.3470 C   0  0  0  0  0  0  0  0  0  0  0  0
    5.6236  -14.8186   27.0946 N   0  0  0  0  0  0  0  0  0  0  0  0
    6.1285  -13.6208   26.7434 C   0  0  0  0  0  0  0  0  0  0  0  0
    5.8979  -12.3293   27.1854 C   0  0  0  0  0  0  0  0  0  0  0  0
    6.5714  -11.2529   26.6523 C   0  0  0  0  0  0  0  0  0  0  0  0
    7.4997  -11.4264   25.6590 C   0  0  0  0  0  0  0  0  0  0  0  0
    7.7425  -12.7059   25.2059 C   0  0  0  0  0  0  0  0  0  0  0  0
    7.0783  -13.7856   25.7270 C   0  0  0  0  0  0  0  0  0  0  0  0
    8.2832  -16.3527   22.1296 C   0  0  0  0  0  0  0  0  0  0  0  0
    8.6019  -17.5475   21.9012 O   0  0  0  0  0  0  0  0  0  0  0  0
    8.9248  -15.3380   21.4050 N   0  0  0  0  0  0  0  0  0  0  0  0
    9.9064  -15.5892   20.3624 C   0  0  1  0  0  0  0  0  0  0  0  0
   10.0442  -14.3451   19.4696 C   0  0  0  0  0  0  0  0  0  0  0  0
    8.9419  -14.1815   18.5332 C   0  0  0  0  0  0  0  0  0  0  0  0
    7.9283  -15.0748   18.3010 C   0  0  0  0  0  0  0  0  0  0  0  0
    7.1126  -14.5466   17.3641 N   0  0  0  0  0  0  0  0  0  0  0  0
    7.5890  -13.3476   17.0046 C   0  0  0  0  0  0  0  0  0  0  0  0
    8.7223  -13.1318   17.7352 N   0  0  0  0  0  0  0  0  0  0  0  0
   11.2105  -15.9925   20.9315 C   0  0  0  0  0  0  0  0  0  0  0  0
   11.6993  -15.3659   21.9032 O   0  0  0  0  0  0  0  0  0  0  0  0
   11.9995  -19.2795   22.2736 O   0  0  0  0  0  0  0  0  0  0  0  0
   12.6918  -18.0763   22.4303 C   0  0  0  0  0  0  0  0  0  0  0  0
   13.1156  -17.6407   21.0168 C   0  0  2  0  0  0  0  0  0  0  0  0
   11.9460  -17.0799   20.4162 N   0  0  0  0  0  0  0  0  0  0  0  0
   13.7144  -18.7551   20.2851 C   0  0  0  0  0  0  0  0  0  0  0  0
   14.7863  -19.2608   20.6829 O   0  0  0  0  0  0  0  0  0  0  0  0
   13.1319  -19.2812   19.1504 O   0  0  0  0  0  0  0  0  0  0  0  0
  2  1  1  1
  3  2  1  0
  4  3  1  0
  4  5  2  0
  6  5  1  0
  7  6  1  0
  8  7  2  0
  9  8  1  0
 10  9  2  0
 10 11  1  0
 11 12  2  0
 12  7  1  0
 12  4  1  0
 13 14  2  0
 13  2  1  0
 15 13  1  0
 16 15  1  0
 16 17  1  1
 18 17  1  0
 18 22  1  0
 19 18  2  0
 20 19  1  0
 20 21  1  0
 21 22  2  0
 23 16  1  0
 24 23  2  0
 25 26  1  0
 27 26  1  1
 27 28  1  0
 28 23  1  0
 29 27  1  0
 29 31  1  0
 30 29  2  0
M  END
$$$$
