WHS.pdb
     RDKit          3D

 31 33  0  0  1  0  0  0  0  0999 V2000
    6.4899  -17.8821   25.0507 N   0  0  0  0  0  0  0  0  0  0  0  0
    6.8416  -16.5727   24.6024 C   0  0  1  0  0  0  0  0  0  0  0  0
    8.0935  -16.1120   25.3102 C   0  0  0  0  0  0  0  0  0  0  0  0
    7.8351  -15.2567   26.4863 C   0  0  0  0  0  0  0  0  0  0  0  0
    7.7797  -15.6438   27.8182 C   0  0  0  0  0  0  0  0  0  0  0  0
    7.4881  -14.5893   28.5752 N   0  0  0  0  0  0  0  0  0  0  0  0
    7.3515  -13.5183   27.7707 C   0  0  0  0  0  0  0  0  0  0  0  0
    7.0634  -12.1854   28.0088 C   0  0  0  0  0  0  0  0  0  0  0  0
    6.9893  -11.2686   26.9837 C   0  0  0  0  0  0  0  0  0  0  0  0
    7.2002  -11.6489   25.6840 C   0  0  0  0  0  0  0  0  0  0  0  0
    7.4881  -12.9728   25.4276 C   0  0  0  0  0  0  0  0  0  0  0  0
    7.5637  -13.8955   26.4383 C   0  0  0  0  0  0  0  0  0  0  0  0
    7.1494  -16.5580   23.1302 C   0  0  0  0  0  0  0  0  0  0  0  0
    7.5422  -17.6327   22.6085 O   0  0  0  0  0  0  0  0  0  0  0  0
    7.0226  -15.4246   22.3144 N   0  0  0  0  0  0  0  0  0  0  0  0
    7.4545  -15.3774   20.9270 C   0  0  1  0  0  0  0  0  0  0  0  0
    7.1147  -14.0043   20.3247 C   0  0  0  0  0  0  0  0  0  0  0  0
    7.5881  -13.8401   18.9581 C   0  0  0  0  0  0  0  0  0  0  0  0
    8.5757  -12.9898   18.5327 C   0  0  0  0  0  0  0  0  0  0  0  0
    8.7111  -13.1415   17.1983 N   0  0  0  0  0  0  0  0  0  0  0  0
    7.8350  -14.0634   16.7784 C   0  0  0  0  0  0  0  0  0  0  0  0
    7.1448  -14.4892   17.8769 N   0  0  0  0  0  0  0  0  0  0  0  0
    8.8959  -15.6823   20.7974 C   0  0  0  0  0  0  0  0  0  0  0  0
    9.7380  -15.0772   21.5048 O   0  0  0  0  0  0  0  0  0  0  0  0
    9.8156  -18.8690   18.6779 O   0  0  0  0  0  0  0  0  0  0  0  0
   10.8253  -18.4938   19.5676 C   0  0  0  0  0  0  0  0  0  0  0  0
   10.7541  -16.9603   19.6717 C   0  0  2  0  0  0  0  0  0  0  0  0
    9.3761  -16.6495   19.8903 N   0  0  0  0  0  0  0  0  0  0  0  0
   11.3530  -16.3294   18.4975 C   0  0  0  0  0  0  0  0  0  0  0  0
   10.6408  -15.6688   17.7105 O   0  0  0  0  0  0  0  0  0  0  0  0
   12.6999  -16.4362   18.2178 O   0  0  0  0  0  0  0  0  0  0  0  0
  2  1  1  1
  3  2  1  0
  4  3  1  0
  4  5  2  0
  6  5  1  0
  7  6  1  0
  8  7  2  0
  9  8  1  0
 10  9  2  0
 10 11  1  0
 11 12  2  0
 12  7  1  0
 12  4  1  0
 13 14  2  0
 13  2  1  0
 15 13  1  0
 16 15  1  0
 16 17  1  1
 18 17  1  0
 18 22  1  0
 19 18  2  0
 20 19  1  0
 20 21  1  0
 21 22  2  0
 23 16  1  0
 24 23  2  0
 25 26  1  0
 27 26  1  6
 27 28  1  0
 28 23  1  0
 29 27  1  0
 29 31  1  0
 30 29  2  0
M  END
$$$$
