WHS.pdb
     RDKit          3D

 31 33  0  0  1  0  0  0  0  0999 V2000
    6.4590  -17.1564   23.4048 N   0  0  0  0  0  0  0  0  0  0  0  0
    7.3292  -16.0378   23.2298 C   0  0  1  0  0  0  0  0  0  0  0  0
    7.9882  -15.6954   24.5446 C   0  0  0  0  0  0  0  0  0  0  0  0
    7.1005  -14.9932   25.4935 C   0  0  0  0  0  0  0  0  0  0  0  0
    6.1015  -15.5446   26.2840 C   0  0  0  0  0  0  0  0  0  0  0  0
    5.5011  -14.5806   26.9771 N   0  0  0  0  0  0  0  0  0  0  0  0
    6.0838  -13.4088   26.6602 C   0  0  0  0  0  0  0  0  0  0  0  0
    5.8750  -12.1046   27.0748 C   0  0  0  0  0  0  0  0  0  0  0  0
    6.6349  -11.0629   26.5908 C   0  0  0  0  0  0  0  0  0  0  0  0
    7.6307  -11.2853   25.6756 C   0  0  0  0  0  0  0  0  0  0  0  0
    7.8529  -12.5781   25.2508 C   0  0  0  0  0  0  0  0  0  0  0  0
    7.1032  -13.6236   25.7237 C   0  0  0  0  0  0  0  0  0  0  0  0
    8.4371  -16.3476   22.2607 C   0  0  0  0  0  0  0  0  0  0  0  0
    8.8674  -17.5287   22.2291 O   0  0  0  0  0  0  0  0  0  0  0  0
    9.0104  -15.4025   21.3979 N   0  0  0  0  0  0  0  0  0  0  0  0
   10.0521  -15.7181   20.4341 C   0  0  1  0  0  0  0  0  0  0  0  0
   10.2211  -14.5478   19.4515 C   0  0  0  0  0  0  0  0  0  0  0  0
    9.0633  -14.3424   18.5937 C   0  0  0  0  0  0  0  0  0  0  0  0
    8.2522  -15.3156   18.0698 C   0  0  0  0  0  0  0  0  0  0  0  0
    7.2967  -14.7108   17.3329 N   0  0  0  0  0  0  0  0  0  0  0  0
    7.4886  -13.3862   17.3820 C   0  0  0  0  0  0  0  0  0  0  0  0
    8.5856  -13.1696   18.1658 N   0  0  0  0  0  0  0  0  0  0  0  0
   11.3283  -16.0491   21.1043 C   0  0  0  0  0  0  0  0  0  0  0  0
   11.6341  -15.5014   22.1917 O   0  0  0  0  0  0  0  0  0  0  0  0
   12.4517  -19.5363   22.0956 O   0  0  0  0  0  0  0  0  0  0  0  0
   12.7696  -18.2357   22.4947 C   0  0  0  0  0  0  0  0  0  0  0  0
   13.3554  -17.5398   21.2537 C   0  0  2  0  0  0  0  0  0  0  0  0
   12.2387  -16.9784   20.5599 N   0  0  0  0  0  0  0  0  0  0  0  0
   14.1688  -18.4676   20.4706 C   0  0  0  0  0  0  0  0  0  0  0  0
   13.7752  -18.8502   19.3474 O   0  0  0  0  0  0  0  0  0  0  0  0
   15.3778  -18.9470   20.9311 O   0  0  0  0  0  0  0  0  0  0  0  0
  2  1  1  1
  3  2  1  0
  4  3  1  0
  4  5  2  0
  6  5  1  0
  7  6  1  0
  8  7  2  0
  9  8  1  0
 10  9  2  0
 10 11  1  0
 11 12  2  0
 12  7  1  0
 12  4  1  0
 13 14  2  0
 13  2  1  0
 15 13  1  0
 16 15  1  0
 16 17  1  6
 18 17  1  0
 18 22  1  0
 19 18  2  0
 20 19  1  0
 20 21  1  0
 21 22  2  0
 23 16  1  0
 24 23  2  0
 25 26  1  0
 27 26  1  1
 27 28  1  0
 28 23  1  0
 29 27  1  0
 29 31  1  0
 30 29  2  0
M  END
$$$$
