WHS.pdb
     RDKit          3D

 31 33  0  0  1  0  0  0  0  0999 V2000
    6.2691  -17.1810   25.3714 N   0  0  0  0  0  0  0  0  0  0  0  0
    6.7875  -15.9917   24.7746 C   0  0  1  0  0  0  0  0  0  0  0  0
    8.0850  -15.6096   25.4460 C   0  0  0  0  0  0  0  0  0  0  0  0
    7.9230  -14.6535   26.5600 C   0  0  0  0  0  0  0  0  0  0  0  0
    8.3759  -14.7903   27.8650 C   0  0  0  0  0  0  0  0  0  0  0  0
    8.0014  -13.7314   28.5782 N   0  0  0  0  0  0  0  0  0  0  0  0
    7.3135  -12.9020   27.7708 C   0  0  0  0  0  0  0  0  0  0  0  0
    6.7065  -11.6739   27.9701 C   0  0  0  0  0  0  0  0  0  0  0  0
    6.0597  -11.0142   26.9487 C   0  0  0  0  0  0  0  0  0  0  0  0
    5.9955  -11.5562   25.6915 C   0  0  0  0  0  0  0  0  0  0  0  0
    6.5943  -12.7792   25.4743 C   0  0  0  0  0  0  0  0  0  0  0  0
    7.2401  -13.4467   26.4822 C   0  0  0  0  0  0  0  0  0  0  0  0
    7.1008  -16.1972   23.3178 C   0  0  0  0  0  0  0  0  0  0  0  0
    7.2731  -17.3783   22.9221 O   0  0  0  0  0  0  0  0  0  0  0  0
    7.2088  -15.1558   22.3851 N   0  0  0  0  0  0  0  0  0  0  0  0
    7.6204  -15.3496   21.0043 C   0  0  1  0  0  0  0  0  0  0  0  0
    7.4259  -14.0435   20.2171 C   0  0  0  0  0  0  0  0  0  0  0  0
    7.8414  -14.1406   18.8255 C   0  0  0  0  0  0  0  0  0  0  0  0
    8.6808  -13.2835   18.1622 C   0  0  0  0  0  0  0  0  0  0  0  0
    8.8106  -13.7247   16.8932 N   0  0  0  0  0  0  0  0  0  0  0  0
    8.0750  -14.8341   16.7454 C   0  0  0  0  0  0  0  0  0  0  0  0
    7.4791  -15.0824   17.9487 N   0  0  0  0  0  0  0  0  0  0  0  0
    9.0166  -15.8298   20.9173 C   0  0  0  0  0  0  0  0  0  0  0  0
    9.9170  -15.2893   21.6051 O   0  0  0  0  0  0  0  0  0  0  0  0
    9.6504  -18.8713   18.4334 O   0  0  0  0  0  0  0  0  0  0  0  0
   10.5983  -18.8371   19.4591 C   0  0  0  0  0  0  0  0  0  0  0  0
   10.7254  -17.3607   19.8734 C   0  0  2  0  0  0  0  0  0  0  0  0
    9.3882  -16.8970   20.0736 N   0  0  0  0  0  0  0  0  0  0  0  0
   11.5017  -16.6080   18.8903 C   0  0  0  0  0  0  0  0  0  0  0  0
   10.9491  -15.7232   18.2013 O   0  0  0  0  0  0  0  0  0  0  0  0
   12.8468  -16.8399   18.6889 O   0  0  0  0  0  0  0  0  0  0  0  0
  2  1  1  1
  3  2  1  0
  4  3  1  0
  4  5  2  0
  6  5  1  0
  7  6  1  0
  8  7  2  0
  9  8  1  0
 10  9  2  0
 10 11  1  0
 11 12  2  0
 12  7  1  0
 12  4  1  0
 13 14  2  0
 13  2  1  0
 15 13  1  0
 16 15  1  0
 16 17  1  6
 18 17  1  0
 18 22  1  0
 19 18  2  0
 20 19  1  0
 20 21  1  0
 21 22  2  0
 23 16  1  0
 24 23  2  0
 25 26  1  0
 27 26  1  6
 27 28  1  0
 28 23  1  0
 29 27  1  0
 29 31  1  0
 30 29  2  0
M  END
$$$$
