WHS.pdb
     RDKit          3D

 31 33  0  0  1  0  0  0  0  0999 V2000
    6.1547  -17.0561   23.5270 N   0  0  0  0  0  0  0  0  0  0  0  0
    7.0896  -15.9863   23.3842 C   0  0  1  0  0  0  0  0  0  0  0  0
    7.8255  -15.7766   24.6861 C   0  0  0  0  0  0  0  0  0  0  0  0
    7.0820  -14.9623   25.6688 C   0  0  0  0  0  0  0  0  0  0  0  0
    6.1717  -15.4050   26.6187 C   0  0  0  0  0  0  0  0  0  0  0  0
    5.6896  -14.3630   27.2910 N   0  0  0  0  0  0  0  0  0  0  0  0
    6.2633  -13.2462   26.8046 C   0  0  0  0  0  0  0  0  0  0  0  0
    6.1455  -11.9045   27.1245 C   0  0  0  0  0  0  0  0  0  0  0  0
    6.8706  -10.9383   26.4630 C   0  0  0  0  0  0  0  0  0  0  0  0
    7.7395  -11.2763   25.4585 C   0  0  0  0  0  0  0  0  0  0  0  0
    7.8698  -12.6081   25.1258 C   0  0  0  0  0  0  0  0  0  0  0  0
    7.1533  -13.5794   25.7753 C   0  0  0  0  0  0  0  0  0  0  0  0
    8.1321  -16.3000   22.3463 C   0  0  0  0  0  0  0  0  0  0  0  0
    8.4036  -17.5110   22.1436 O   0  0  0  0  0  0  0  0  0  0  0  0
    8.8106  -15.3272   21.5982 N   0  0  0  0  0  0  0  0  0  0  0  0
    9.8183  -15.6376   20.5973 C   0  0  1  0  0  0  0  0  0  0  0  0
   10.0808  -14.3994   19.7245 C   0  0  0  0  0  0  0  0  0  0  0  0
    9.0180  -14.1326   18.7664 C   0  0  0  0  0  0  0  0  0  0  0  0
    7.6938  -13.9237   19.0529 C   0  0  0  0  0  0  0  0  0  0  0  0
    7.0433  -13.7112   17.8895 N   0  0  0  0  0  0  0  0  0  0  0  0
    7.9250  -13.7817   16.8838 C   0  0  0  0  0  0  0  0  0  0  0  0
    9.1450  -14.0431   17.4387 N   0  0  0  0  0  0  0  0  0  0  0  0
   11.0650  -16.1340   21.2192 C   0  0  0  0  0  0  0  0  0  0  0  0
   11.6156  -15.4846   22.1417 O   0  0  0  0  0  0  0  0  0  0  0  0
   12.0852  -19.8688   20.4706 O   0  0  0  0  0  0  0  0  0  0  0  0
   12.6752  -19.3270   21.6152 C   0  0  0  0  0  0  0  0  0  0  0  0
   12.9189  -17.8396   21.3062 C   0  0  2  0  0  0  0  0  0  0  0  0
   11.6760  -17.3373   20.8099 N   0  0  0  0  0  0  0  0  0  0  0  0
   14.0582  -17.6736   20.4061 C   0  0  0  0  0  0  0  0  0  0  0  0
   13.8859  -17.2109   19.2575 O   0  0  0  0  0  0  0  0  0  0  0  0
   15.3414  -18.0140   20.7814 O   0  0  0  0  0  0  0  0  0  0  0  0
  2  1  1  1
  3  2  1  0
  4  3  1  0
  4  5  2  0
  6  5  1  0
  7  6  1  0
  8  7  2  0
  9  8  1  0
 10  9  2  0
 10 11  1  0
 11 12  2  0
 12  7  1  0
 12  4  1  0
 13 14  2  0
 13  2  1  0
 15 13  1  0
 16 15  1  0
 16 17  1  1
 18 17  1  0
 18 22  1  0
 19 18  2  0
 20 19  1  0
 20 21  1  0
 21 22  2  0
 23 16  1  0
 24 23  2  0
 25 26  1  0
 27 26  1  6
 27 28  1  0
 28 23  1  0
 29 27  1  0
 29 31  1  0
 30 29  2  0
M  END
$$$$
