WHS.pdb
     RDKit          3D

 31 33  0  0  1  0  0  0  0  0999 V2000
    7.0728  -17.9369   23.8652 N   0  0  0  0  0  0  0  0  0  0  0  0
    8.0139  -16.8677   23.9668 C   0  0  1  0  0  0  0  0  0  0  0  0
    8.1405  -16.4368   25.4086 C   0  0  0  0  0  0  0  0  0  0  0  0
    7.1356  -15.4373   25.8243 C   0  0  0  0  0  0  0  0  0  0  0  0
    5.8335  -15.6709   26.2448 C   0  0  0  0  0  0  0  0  0  0  0  0
    5.2339  -14.5105   26.4980 N   0  0  0  0  0  0  0  0  0  0  0  0
    6.1130  -13.5203   26.2540 C   0  0  0  0  0  0  0  0  0  0  0  0
    6.0376  -12.1415   26.3520 C   0  0  0  0  0  0  0  0  0  0  0  0
    7.1115  -11.3362   26.0437 C   0  0  0  0  0  0  0  0  0  0  0  0
    8.2994  -11.8778   25.6267 C   0  0  0  0  0  0  0  0  0  0  0  0
    8.3930  -13.2496   25.5230 C   0  0  0  0  0  0  0  0  0  0  0  0
    7.3316  -14.0623   25.8255 C   0  0  0  0  0  0  0  0  0  0  0  0
    9.3858  -17.2969   23.5238 C   0  0  0  0  0  0  0  0  0  0  0  0
    9.6921  -18.5073   23.6735 O   0  0  0  0  0  0  0  0  0  0  0  0
   10.3327  -16.4315   22.9574 N   0  0  0  0  0  0  0  0  0  0  0  0
   11.6471  -16.8586   22.5062 C   0  0  1  0  0  0  0  0  0  0  0  0
   12.1418  -15.9231   21.3910 C   0  0  0  0  0  0  0  0  0  0  0  0
   11.3607  -16.0208   20.1667 C   0  0  0  0  0  0  0  0  0  0  0  0
   10.5348  -15.0584   19.6461 C   0  0  0  0  0  0  0  0  0  0  0  0
    9.9998  -15.5403   18.5043 N   0  0  0  0  0  0  0  0  0  0  0  0
   10.4690  -16.7775   18.2973 C   0  0  0  0  0  0  0  0  0  0  0  0
   11.3111  -17.0647   19.3333 N   0  0  0  0  0  0  0  0  0  0  0  0
   12.6109  -16.9204   23.6263 C   0  0  0  0  0  0  0  0  0  0  0  0
   13.2276  -15.8892   23.9898 O   0  0  0  0  0  0  0  0  0  0  0  0
   12.6441  -20.2486   25.7740 O   0  0  0  0  0  0  0  0  0  0  0  0
   13.1709  -19.1380   26.4380 C   0  0  0  0  0  0  0  0  0  0  0  0
   13.8450  -18.2750   25.3571 C   0  0  2  0  0  0  0  0  0  0  0  0
   12.8720  -18.1193   24.3217 N   0  0  0  0  0  0  0  0  0  0  0  0
   15.1124  -18.8662   24.9329 C   0  0  0  0  0  0  0  0  0  0  0  0
   15.2930  -19.1638   23.7321 O   0  0  0  0  0  0  0  0  0  0  0  0
   16.1373  -19.1136   25.8227 O   0  0  0  0  0  0  0  0  0  0  0  0
  2  1  1  1
  3  2  1  0
  4  3  1  0
  4  5  2  0
  6  5  1  0
  7  6  1  0
  8  7  2  0
  9  8  1  0
 10  9  2  0
 10 11  1  0
 11 12  2  0
 12  7  1  0
 12  4  1  0
 13 14  2  0
 13  2  1  0
 15 13  1  0
 16 15  1  0
 16 17  1  6
 18 17  1  0
 18 22  1  0
 19 18  2  0
 20 19  1  0
 20 21  1  0
 21 22  2  0
 23 16  1  0
 24 23  2  0
 25 26  1  0
 27 26  1  1
 27 28  1  0
 28 23  1  0
 29 27  1  0
 29 31  1  0
 30 29  2  0
M  END
$$$$
