WHS.pdb
     RDKit          3D

 31 33  0  0  1  0  0  0  0  0999 V2000
    7.1015  -17.5021   23.8600 N   0  0  0  0  0  0  0  0  0  0  0  0
    8.0245  -16.4189   23.7413 C   0  0  1  0  0  0  0  0  0  0  0  0
    8.5005  -16.0036   25.1129 C   0  0  0  0  0  0  0  0  0  0  0  0
    7.4602  -15.3531   25.9352 C   0  0  0  0  0  0  0  0  0  0  0  0
    6.4321  -15.9654   26.6388 C   0  0  0  0  0  0  0  0  0  0  0  0
    5.6819  -15.0369   27.2264 N   0  0  0  0  0  0  0  0  0  0  0  0
    6.1946  -13.8288   26.9253 C   0  0  0  0  0  0  0  0  0  0  0  0
    5.8337  -12.5358   27.2633 C   0  0  0  0  0  0  0  0  0  0  0  0
    6.5508  -11.4469   26.8197 C   0  0  0  0  0  0  0  0  0  0  0  0
    7.6541  -11.6091   26.0229 C   0  0  0  0  0  0  0  0  0  0  0  0
    8.0286  -12.8899   25.6757 C   0  0  0  0  0  0  0  0  0  0  0  0
    7.3230  -13.9821   26.1094 C   0  0  0  0  0  0  0  0  0  0  0  0
    9.2484  -16.8200   22.9642 C   0  0  0  0  0  0  0  0  0  0  0  0
    9.6163  -18.0201   23.0394 O   0  0  0  0  0  0  0  0  0  0  0  0
    9.9938  -15.9396   22.1671 N   0  0  0  0  0  0  0  0  0  0  0  0
   11.2475  -16.2988   21.5244 C   0  0  1  0  0  0  0  0  0  0  0  0
   11.7569  -15.1162   20.6845 C   0  0  0  0  0  0  0  0  0  0  0  0
   10.8335  -14.7141   19.6337 C   0  0  0  0  0  0  0  0  0  0  0  0
   10.0769  -15.5457   18.8492 C   0  0  0  0  0  0  0  0  0  0  0  0
    9.3574  -14.7801   18.0019 N   0  0  0  0  0  0  0  0  0  0  0  0
    9.6437  -13.4928   18.2354 C   0  0  0  0  0  0  0  0  0  0  0  0
   10.5592  -13.4639   19.2482 N   0  0  0  0  0  0  0  0  0  0  0  0
   12.2579  -16.7342   22.5128 C   0  0  0  0  0  0  0  0  0  0  0  0
   12.7834  -15.9013   23.2912 O   0  0  0  0  0  0  0  0  0  0  0  0
   14.0709  -20.5860   24.7352 O   0  0  0  0  0  0  0  0  0  0  0  0
   13.2892  -20.1019   23.6833 C   0  0  0  0  0  0  0  0  0  0  0  0
   13.5663  -18.5904   23.6064 C   0  0  2  0  0  0  0  0  0  0  0  0
   12.6653  -18.0800   22.6210 N   0  0  0  0  0  0  0  0  0  0  0  0
   14.9809  -18.3320   23.3457 C   0  0  0  0  0  0  0  0  0  0  0  0
   15.3937  -18.2399   22.1693 O   0  0  0  0  0  0  0  0  0  0  0  0
   15.8965  -18.1827   24.3670 O   0  0  0  0  0  0  0  0  0  0  0  0
  2  1  1  1
  3  2  1  0
  4  3  1  0
  4  5  2  0
  6  5  1  0
  7  6  1  0
  8  7  2  0
  9  8  1  0
 10  9  2  0
 10 11  1  0
 11 12  2  0
 12  7  1  0
 12  4  1  0
 13 14  2  0
 13  2  1  0
 15 13  1  0
 16 15  1  0
 16 17  1  1
 18 17  1  0
 18 22  1  0
 19 18  2  0
 20 19  1  0
 20 21  1  0
 21 22  2  0
 23 16  1  0
 24 23  2  0
 25 26  1  0
 27 26  1  6
 27 28  1  0
 28 23  1  0
 29 27  1  0
 29 31  1  0
 30 29  2  0
M  END
$$$$
