GIG.pdb
     RDKit          3D

 17 16  0  0  1  0  0  0  0  0999 V2000
    5.3886  -18.4208   23.2544 N   0  0  0  0  0  0  0  0  0  0  0  0
    5.6152  -17.7070   24.4973 C   0  0  0  0  0  0  0  0  0  0  0  0
    6.5885  -16.5993   24.3098 C   0  0  0  0  0  0  0  0  0  0  0  0
    7.2320  -16.4147   23.2534 O   0  0  0  0  0  0  0  0  0  0  0  0
    5.4896  -11.8173   26.6559 C   0  0  0  0  0  0  0  0  0  0  0  0
    5.9832  -12.8104   25.6137 C   0  0  0  0  0  0  0  0  0  0  0  0
    7.1613  -13.5124   26.2004 C   0  0  2  0  0  0  0  0  0  0  0  0
    8.2224  -12.4910   26.5501 C   0  0  0  0  0  0  0  0  0  0  0  0
    7.7284  -14.6035   25.3525 C   0  0  2  0  0  0  0  0  0  0  0  0
    6.7931  -15.7095   25.3888 N   0  0  0  0  0  0  0  0  0  0  0  0
    9.0430  -15.0815   25.7542 C   0  0  0  0  0  0  0  0  0  0  0  0
   10.0510  -14.3618   25.6342 O   0  0  0  0  0  0  0  0  0  0  0  0
    9.1917  -16.3762   26.2885 N   0  0  0  0  0  0  0  0  0  0  0  0
   10.4451  -16.8684   26.8207 C   0  0  0  0  0  0  0  0  0  0  0  0
   11.0576  -17.7508   25.7980 C   0  0  0  0  0  0  0  0  0  0  0  0
   10.7762  -17.6129   24.5797 O   0  0  0  0  0  0  0  0  0  0  0  0
   11.9584  -18.7578   26.1294 O   0  0  0  0  0  0  0  0  0  0  0  0
  1  2  1  0
  2  3  1  0
  3  4  2  0
  6  5  1  0
  7  6  1  0
  7  8  1  6
  9  7  1  0
 10  3  1  0
  9 10  1  1
 11 12  2  0
 11  9  1  0
 13 11  1  0
 14 15  1  0
 14 13  1  0
 15 17  1  0
 16 15  2  0
M  END
$$$$
