GIG.pdb
     RDKit          3D

 17 16  0  0  1  0  0  0  0  0999 V2000
    7.7350  -15.2163   19.8515 N   0  0  0  0  0  0  0  0  0  0  0  0
    6.9374  -14.9421   21.0321 C   0  0  0  0  0  0  0  0  0  0  0  0
    7.7970  -14.7735   22.2330 C   0  0  0  0  0  0  0  0  0  0  0  0
    9.0271  -14.9990   22.2407 O   0  0  0  0  0  0  0  0  0  0  0  0
    7.1681  -11.4995   27.2834 C   0  0  0  0  0  0  0  0  0  0  0  0
    7.9654  -12.6423   26.6714 C   0  0  0  0  0  0  0  0  0  0  0  0
    7.2819  -13.0228   25.4013 C   0  0  2  0  0  0  0  0  0  0  0  0
    5.8144  -13.2658   25.6825 C   0  0  0  0  0  0  0  0  0  0  0  0
    7.8886  -14.1849   24.6855 C   0  0  2  0  0  0  0  0  0  0  0  0
    7.1840  -14.3340   23.4283 N   0  0  0  0  0  0  0  0  0  0  0  0
    7.8447  -15.4487   25.4058 C   0  0  0  0  0  0  0  0  0  0  0  0
    6.7676  -16.0438   25.5912 O   0  0  0  0  0  0  0  0  0  0  0  0
    9.0314  -16.0188   25.9063 N   0  0  0  0  0  0  0  0  0  0  0  0
    9.0596  -17.2810   26.6154 C   0  0  0  0  0  0  0  0  0  0  0  0
   10.4653  -17.5536   27.0017 C   0  0  0  0  0  0  0  0  0  0  0  0
   11.3902  -16.7778   26.6480 O   0  0  0  0  0  0  0  0  0  0  0  0
   10.8250  -18.6620   27.7616 O   0  0  0  0  0  0  0  0  0  0  0  0
  1  2  1  0
  2  3  1  0
  3  4  2  0
  6  5  1  0
  7  6  1  0
  7  8  1  1
  9  7  1  0
 10  3  1  0
  9 10  1  6
 11 12  2  0
 11  9  1  0
 13 11  1  0
 14 15  1  0
 14 13  1  0
 15 17  1  0
 16 15  2  0
M  END
$$$$
