GIG.pdb
     RDKit          3D

 17 16  0  0  1  0  0  0  0  0999 V2000
    5.5190  -16.4748   21.0919 N   0  0  0  0  0  0  0  0  0  0  0  0
    5.4586  -16.2944   22.5304 C   0  0  0  0  0  0  0  0  0  0  0  0
    6.6263  -15.5176   23.0230 C   0  0  0  0  0  0  0  0  0  0  0  0
    7.6235  -15.2457   22.3189 O   0  0  0  0  0  0  0  0  0  0  0  0
    5.6673  -11.6669   26.6326 C   0  0  0  0  0  0  0  0  0  0  0  0
    6.2417  -12.4418   25.4554 C   0  0  0  0  0  0  0  0  0  0  0  0
    7.1720  -13.4644   26.0156 C   0  0  2  0  0  0  0  0  0  0  0  0
    8.2839  -12.7634   26.7665 C   0  0  0  0  0  0  0  0  0  0  0  0
    7.7257  -14.4249   25.0147 C   0  0  2  0  0  0  0  0  0  0  0  0
    6.6016  -15.0645   24.3616 N   0  0  0  0  0  0  0  0  0  0  0  0
    8.6035  -15.4504   25.5588 C   0  0  0  0  0  0  0  0  0  0  0  0
    8.2282  -16.1885   26.4877 O   0  0  0  0  0  0  0  0  0  0  0  0
    9.9000  -15.6214   25.0358 N   0  0  0  0  0  0  0  0  0  0  0  0
   10.8357  -16.5963   25.5560 C   0  0  0  0  0  0  0  0  0  0  0  0
   12.0787  -16.5070   24.7517 C   0  0  0  0  0  0  0  0  0  0  0  0
   12.1434  -15.7455   23.7526 O   0  0  0  0  0  0  0  0  0  0  0  0
   13.2156  -17.2484   25.0570 O   0  0  0  0  0  0  0  0  0  0  0  0
  1  2  1  0
  2  3  1  0
  3  4  2  0
  6  5  1  0
  7  6  1  0
  7  8  1  6
  9  7  1  0
 10  3  1  0
  9 10  1  1
 11 12  2  0
 11  9  1  0
 13 11  1  0
 14 15  1  0
 14 13  1  0
 15 17  1  0
 16 15  2  0
M  END
$$$$
