GIG.pdb
     RDKit          3D

 17 16  0  0  1  0  0  0  0  0999 V2000
    5.6557  -18.4388   23.2687 N   0  0  0  0  0  0  0  0  0  0  0  0
    5.6929  -17.6131   24.4612 C   0  0  0  0  0  0  0  0  0  0  0  0
    6.7360  -16.5598   24.3520 C   0  0  0  0  0  0  0  0  0  0  0  0
    7.5085  -16.4494   23.3746 O   0  0  0  0  0  0  0  0  0  0  0  0
    5.6089  -11.7410   26.6467 C   0  0  0  0  0  0  0  0  0  0  0  0
    6.1474  -12.7264   25.6194 C   0  0  0  0  0  0  0  0  0  0  0  0
    7.2727  -13.4621   26.2655 C   0  0  2  0  0  0  0  0  0  0  0  0
    8.3485  -12.4731   26.6605 C   0  0  0  0  0  0  0  0  0  0  0  0
    7.8439  -14.5764   25.4513 C   0  0  2  0  0  0  0  0  0  0  0  0
    6.8558  -15.6354   25.4145 N   0  0  0  0  0  0  0  0  0  0  0  0
    9.1025  -15.1197   25.9400 C   0  0  0  0  0  0  0  0  0  0  0  0
   10.1696  -14.4963   25.7940 O   0  0  0  0  0  0  0  0  0  0  0  0
    9.1284  -16.3690   26.5899 N   0  0  0  0  0  0  0  0  0  0  0  0
   10.2902  -16.8628   27.2991 C   0  0  0  0  0  0  0  0  0  0  0  0
   10.9015  -17.9359   26.4778 C   0  0  0  0  0  0  0  0  0  0  0  0
   10.5599  -18.0996   25.2783 O   0  0  0  0  0  0  0  0  0  0  0  0
   11.8668  -18.8001   26.9845 O   0  0  0  0  0  0  0  0  0  0  0  0
  1  2  1  0
  2  3  1  0
  3  4  2  0
  6  5  1  0
  7  6  1  0
  7  8  1  6
  9  7  1  0
 10  3  1  0
  9 10  1  1
 11 12  2  0
 11  9  1  0
 13 11  1  0
 14 15  1  0
 14 13  1  0
 15 17  1  0
 16 15  2  0
M  END
$$$$
