GIG.pdb
     RDKit          3D

 17 16  0  0  1  0  0  0  0  0999 V2000
    5.9834  -18.4683   22.9872 N   0  0  0  0  0  0  0  0  0  0  0  0
    5.8385  -17.5323   24.0864 C   0  0  0  0  0  0  0  0  0  0  0  0
    7.0299  -16.6510   24.2010 C   0  0  0  0  0  0  0  0  0  0  0  0
    8.0271  -16.7342   23.4508 O   0  0  0  0  0  0  0  0  0  0  0  0
    6.2048  -11.9358   27.1869 C   0  0  0  0  0  0  0  0  0  0  0  0
    6.4894  -13.3879   26.8309 C   0  0  0  0  0  0  0  0  0  0  0  0
    7.4410  -13.3792   25.6823 C   0  0  2  0  0  0  0  0  0  0  0  0
    6.7328  -12.8424   24.4567 C   0  0  0  0  0  0  0  0  0  0  0  0
    8.0879  -14.6940   25.3929 C   0  0  2  0  0  0  0  0  0  0  0  0
    7.0290  -15.6670   25.2156 N   0  0  0  0  0  0  0  0  0  0  0  0
    9.0047  -15.1729   26.4167 C   0  0  0  0  0  0  0  0  0  0  0  0
   10.0583  -14.5613   26.6705 O   0  0  0  0  0  0  0  0  0  0  0  0
    8.7080  -16.3450   27.1392 N   0  0  0  0  0  0  0  0  0  0  0  0
    9.4514  -16.7556   28.3118 C   0  0  0  0  0  0  0  0  0  0  0  0
   10.2820  -17.9257   27.9364 C   0  0  0  0  0  0  0  0  0  0  0  0
   10.4371  -18.2417   26.7287 O   0  0  0  0  0  0  0  0  0  0  0  0
   10.9200  -18.7185   28.8849 O   0  0  0  0  0  0  0  0  0  0  0  0
  1  2  1  0
  2  3  1  0
  3  4  2  0
  6  5  1  0
  7  6  1  0
  7  8  1  6
  9  7  1  0
 10  3  1  0
  9 10  1  1
 11 12  2  0
 11  9  1  0
 13 11  1  0
 14 15  1  0
 14 13  1  0
 15 17  1  0
 16 15  2  0
M  END
$$$$
