GIG.pdb
     RDKit          3D

 17 16  0  0  1  0  0  0  0  0999 V2000
    4.4897  -18.8293   21.7228 N   0  0  0  0  0  0  0  0  0  0  0  0
    5.0123  -17.6087   22.3082 C   0  0  0  0  0  0  0  0  0  0  0  0
    6.3493  -17.2760   21.7505 C   0  0  0  0  0  0  0  0  0  0  0  0
    6.9605  -18.0034   20.9372 O   0  0  0  0  0  0  0  0  0  0  0  0
    7.7261  -11.8941   21.2476 C   0  0  0  0  0  0  0  0  0  0  0  0
    7.6811  -13.2011   22.0260 C   0  0  0  0  0  0  0  0  0  0  0  0
    8.0841  -14.2859   21.0848 C   0  0  2  0  0  0  0  0  0  0  0  0
    7.0889  -14.3480   19.9458 C   0  0  0  0  0  0  0  0  0  0  0  0
    8.2614  -15.6290   21.7136 C   0  0  2  0  0  0  0  0  0  0  0  0
    6.9575  -16.0698   22.1663 N   0  0  0  0  0  0  0  0  0  0  0  0
    9.1908  -15.6722   22.8328 C   0  0  0  0  0  0  0  0  0  0  0  0
    8.8088  -15.4338   23.9929 O   0  0  0  0  0  0  0  0  0  0  0  0
   10.5461  -15.9873   22.6145 N   0  0  0  0  0  0  0  0  0  0  0  0
   11.5467  -15.9232   23.6591 C   0  0  0  0  0  0  0  0  0  0  0  0
   12.8493  -16.3102   23.0647 C   0  0  0  0  0  0  0  0  0  0  0  0
   12.9151  -16.7302   21.8808 O   0  0  0  0  0  0  0  0  0  0  0  0
   14.0428  -16.2295   23.7747 O   0  0  0  0  0  0  0  0  0  0  0  0
  1  2  1  0
  2  3  1  0
  3  4  2  0
  6  5  1  0
  7  6  1  0
  7  8  1  6
  9  7  1  0
 10  3  1  0
  9 10  1  1
 11 12  2  0
 11  9  1  0
 13 11  1  0
 14 15  1  0
 14 13  1  0
 15 17  1  0
 16 15  2  0
M  END
$$$$
