GIG.pdb
     RDKit          3D

 17 16  0  0  1  0  0  0  0  0999 V2000
    5.3303  -18.8775   24.1673 N   0  0  0  0  0  0  0  0  0  0  0  0
    5.6575  -17.9750   25.2554 C   0  0  0  0  0  0  0  0  0  0  0  0
    6.4772  -16.8315   24.7758 C   0  0  0  0  0  0  0  0  0  0  0  0
    6.8905  -16.7211   23.6005 O   0  0  0  0  0  0  0  0  0  0  0  0
    5.6744  -12.1385   27.1771 C   0  0  0  0  0  0  0  0  0  0  0  0
    6.0192  -13.0667   26.0213 C   0  0  0  0  0  0  0  0  0  0  0  0
    7.3918  -13.5924   26.2757 C   0  0  2  0  0  0  0  0  0  0  0  0
    8.3910  -12.4672   26.1110 C   0  0  0  0  0  0  0  0  0  0  0  0
    7.7755  -14.7737   25.4462 C   0  0  2  0  0  0  0  0  0  0  0  0
    6.8037  -15.8169   25.7041 N   0  0  0  0  0  0  0  0  0  0  0  0
    9.1103  -15.2982   25.6936 C   0  0  0  0  0  0  0  0  0  0  0  0
    9.4286  -15.7387   26.8131 O   0  0  0  0  0  0  0  0  0  0  0  0
   10.0667  -15.3137   24.6598 N   0  0  0  0  0  0  0  0  0  0  0  0
   11.4222  -15.7863   24.8492 C   0  0  0  0  0  0  0  0  0  0  0  0
   11.9406  -16.2201   23.5291 C   0  0  0  0  0  0  0  0  0  0  0  0
   11.3722  -17.1407   22.8873 O   0  0  0  0  0  0  0  0  0  0  0  0
   13.0622  -15.6405   22.9447 O   0  0  0  0  0  0  0  0  0  0  0  0
  1  2  1  0
  2  3  1  0
  3  4  2  0
  6  5  1  0
  7  6  1  0
  7  8  1  6
  9  7  1  0
 10  3  1  0
  9 10  1  1
 11 12  2  0
 11  9  1  0
 13 11  1  0
 14 15  1  0
 14 13  1  0
 15 17  1  0
 16 15  2  0
M  END
$$$$
