GIG.pdb
     RDKit          3D

 17 16  0  0  1  0  0  0  0  0999 V2000
    8.6311  -18.6708   17.4808 N   0  0  0  0  0  0  0  0  0  0  0  0
    7.9864  -18.3531   18.7413 C   0  0  0  0  0  0  0  0  0  0  0  0
    8.7808  -17.3637   19.5156 C   0  0  0  0  0  0  0  0  0  0  0  0
   10.0287  -17.2921   19.4727 O   0  0  0  0  0  0  0  0  0  0  0  0
    6.6195  -12.5158   20.1252 C   0  0  0  0  0  0  0  0  0  0  0  0
    7.6651  -13.6029   19.9224 C   0  0  0  0  0  0  0  0  0  0  0  0
    7.8622  -14.2730   21.2404 C   0  0  2  0  0  0  0  0  0  0  0  0
    8.3883  -13.2614   22.2362 C   0  0  0  0  0  0  0  0  0  0  0  0
    8.7301  -15.4880   21.2035 C   0  0  2  0  0  0  0  0  0  0  0  0
    8.0810  -16.4569   20.3438 N   0  0  0  0  0  0  0  0  0  0  0  0
    8.9922  -16.1026   22.4965 C   0  0  0  0  0  0  0  0  0  0  0  0
    8.0683  -16.5872   23.1749 O   0  0  0  0  0  0  0  0  0  0  0  0
   10.3063  -16.1569   23.0002 N   0  0  0  0  0  0  0  0  0  0  0  0
   10.6453  -16.8149   24.2446 C   0  0  0  0  0  0  0  0  0  0  0  0
   12.1007  -16.6391   24.4697 C   0  0  0  0  0  0  0  0  0  0  0  0
   12.8186  -16.0668   23.6098 O   0  0  0  0  0  0  0  0  0  0  0  0
   12.7336  -17.0908   25.6232 O   0  0  0  0  0  0  0  0  0  0  0  0
  1  2  1  0
  2  3  1  0
  3  4  2  0
  6  5  1  0
  7  6  1  0
  7  8  1  1
  9  7  1  0
 10  3  1  0
  9 10  1  6
 11 12  2  0
 11  9  1  0
 13 11  1  0
 14 15  1  0
 14 13  1  0
 15 17  1  0
 16 15  2  0
M  END
$$$$
