GIG.pdb
     RDKit          3D

 17 16  0  0  1  0  0  0  0  0999 V2000
    5.6436  -19.1084   19.3945 N   0  0  0  0  0  0  0  0  0  0  0  0
    5.7276  -18.1727   20.5003 C   0  0  0  0  0  0  0  0  0  0  0  0
    7.0122  -17.4254   20.4742 C   0  0  0  0  0  0  0  0  0  0  0  0
    7.9893  -17.7531   19.7656 O   0  0  0  0  0  0  0  0  0  0  0  0
    6.7348  -12.2955   19.9831 C   0  0  0  0  0  0  0  0  0  0  0  0
    7.1973  -13.7440   19.9165 C   0  0  0  0  0  0  0  0  0  0  0  0
    7.8948  -14.0409   21.2011 C   0  0  2  0  0  0  0  0  0  0  0  0
    9.0712  -13.1005   21.3545 C   0  0  0  0  0  0  0  0  0  0  0  0
    8.3211  -15.4624   21.3702 C   0  0  2  0  0  0  0  0  0  0  0  0
    7.1291  -16.2827   21.2978 N   0  0  0  0  0  0  0  0  0  0  0  0
    9.0235  -15.7560   22.6106 C   0  0  0  0  0  0  0  0  0  0  0  0
    8.4179  -15.7923   23.6970 O   0  0  0  0  0  0  0  0  0  0  0  0
   10.4097  -16.0049   22.5962 N   0  0  0  0  0  0  0  0  0  0  0  0
   11.1554  -16.3714   23.7820 C   0  0  0  0  0  0  0  0  0  0  0  0
   12.5798  -16.5183   23.3956 C   0  0  0  0  0  0  0  0  0  0  0  0
   12.9315  -16.4213   22.1917 O   0  0  0  0  0  0  0  0  0  0  0  0
   13.5808  -16.7665   24.3292 O   0  0  0  0  0  0  0  0  0  0  0  0
  1  2  1  0
  2  3  1  0
  3  4  2  0
  6  5  1  0
  7  6  1  0
  7  8  1  6
  9  7  1  0
 10  3  1  0
  9 10  1  1
 11 12  2  0
 11  9  1  0
 13 11  1  0
 14 15  1  0
 14 13  1  0
 15 17  1  0
 16 15  2  0
M  END
$$$$
