GIG.pdb
     RDKit          3D

 17 16  0  0  1  0  0  0  0  0999 V2000
    6.1630  -18.9599   18.0301 N   0  0  0  0  0  0  0  0  0  0  0  0
    6.0353  -18.3046   19.3183 C   0  0  0  0  0  0  0  0  0  0  0  0
    7.2525  -17.5150   19.6415 C   0  0  0  0  0  0  0  0  0  0  0  0
    8.3668  -17.7120   19.1090 O   0  0  0  0  0  0  0  0  0  0  0  0
    6.7532  -12.3113   20.2825 C   0  0  0  0  0  0  0  0  0  0  0  0
    7.3670  -13.6587   19.9304 C   0  0  0  0  0  0  0  0  0  0  0  0
    7.7981  -14.2920   21.2104 C   0  0  2  0  0  0  0  0  0  0  0  0
    8.8623  -13.4299   21.8553 C   0  0  0  0  0  0  0  0  0  0  0  0
    8.2591  -15.7072   21.0866 C   0  0  2  0  0  0  0  0  0  0  0  0
    7.1370  -16.4868   20.6044 N   0  0  0  0  0  0  0  0  0  0  0  0
    8.7589  -16.3065   22.3152 C   0  0  0  0  0  0  0  0  0  0  0  0
    8.0090  -16.4868   23.2917 O   0  0  0  0  0  0  0  0  0  0  0  0
   10.1096  -16.6930   22.4146 N   0  0  0  0  0  0  0  0  0  0  0  0
   10.6494  -17.3750   23.5722 C   0  0  0  0  0  0  0  0  0  0  0  0
   11.6800  -16.4967   24.1773 C   0  0  0  0  0  0  0  0  0  0  0  0
   12.8041  -16.3552   23.6306 O   0  0  0  0  0  0  0  0  0  0  0  0
   11.4588  -15.7974   25.3594 O   0  0  0  0  0  0  0  0  0  0  0  0
  1  2  1  0
  2  3  1  0
  3  4  2  0
  6  5  1  0
  7  6  1  0
  7  8  1  6
  9  7  1  0
 10  3  1  0
  9 10  1  1
 11 12  2  0
 11  9  1  0
 13 11  1  0
 14 15  1  0
 14 13  1  0
 15 17  1  0
 16 15  2  0
M  END
$$$$
