GIG.pdb
     RDKit          3D

 17 16  0  0  1  0  0  0  0  0999 V2000
    6.6983  -19.4647   18.6629 N   0  0  0  0  0  0  0  0  0  0  0  0
    6.4263  -18.5079   19.7192 C   0  0  0  0  0  0  0  0  0  0  0  0
    7.6057  -17.6398   19.9733 C   0  0  0  0  0  0  0  0  0  0  0  0
    8.7322  -17.8370   19.4670 O   0  0  0  0  0  0  0  0  0  0  0  0
    6.6054  -12.4468   20.2010 C   0  0  0  0  0  0  0  0  0  0  0  0
    7.2918  -13.7764   19.9224 C   0  0  0  0  0  0  0  0  0  0  0  0
    7.8951  -14.2358   21.2069 C   0  0  2  0  0  0  0  0  0  0  0  0
    8.9070  -13.2108   21.6730 C   0  0  0  0  0  0  0  0  0  0  0  0
    8.4985  -15.6015   21.1642 C   0  0  2  0  0  0  0  0  0  0  0  0
    7.4380  -16.5324   20.8355 N   0  0  0  0  0  0  0  0  0  0  0  0
    9.1433  -16.0335   22.3953 C   0  0  0  0  0  0  0  0  0  0  0  0
    8.4719  -16.3393   23.3975 O   0  0  0  0  0  0  0  0  0  0  0  0
   10.5477  -16.1115   22.4682 N   0  0  0  0  0  0  0  0  0  0  0  0
   11.2477  -16.6334   23.6232 C   0  0  0  0  0  0  0  0  0  0  0  0
   12.7032  -16.5294   23.3576 C   0  0  0  0  0  0  0  0  0  0  0  0
   13.1266  -16.2265   22.2124 O   0  0  0  0  0  0  0  0  0  0  0  0
   13.6564  -16.7579   24.3447 O   0  0  0  0  0  0  0  0  0  0  0  0
  1  2  1  0
  2  3  1  0
  3  4  2  0
  6  5  1  0
  7  6  1  0
  7  8  1  6
  9  7  1  0
 10  3  1  0
  9 10  1  1
 11 12  2  0
 11  9  1  0
 13 11  1  0
 14 15  1  0
 14 13  1  0
 15 17  1  0
 16 15  2  0
M  END
$$$$
