GIG.pdb
     RDKit          3D

 17 16  0  0  1  0  0  0  0  0999 V2000
    8.9263  -18.5470   17.7208 N   0  0  0  0  0  0  0  0  0  0  0  0
    8.0911  -18.0840   18.8133 C   0  0  0  0  0  0  0  0  0  0  0  0
    8.7349  -16.9593   19.5412 C   0  0  0  0  0  0  0  0  0  0  0  0
    9.9025  -16.5695   19.3197 O   0  0  0  0  0  0  0  0  0  0  0  0
    7.8821  -12.6878   20.0429 C   0  0  0  0  0  0  0  0  0  0  0  0
    6.8204  -13.6361   20.5812 C   0  0  0  0  0  0  0  0  0  0  0  0
    7.4163  -14.3422   21.7522 C   0  0  2  0  0  0  0  0  0  0  0  0
    7.8652  -13.3175   22.7721 C   0  0  0  0  0  0  0  0  0  0  0  0
    8.5251  -15.2858   21.4188 C   0  0  2  0  0  0  0  0  0  0  0  0
    7.9805  -16.2985   20.5372 N   0  0  0  0  0  0  0  0  0  0  0  0
    9.1491  -15.9378   22.5606 C   0  0  0  0  0  0  0  0  0  0  0  0
    8.4622  -16.5088   23.4271 O   0  0  0  0  0  0  0  0  0  0  0  0
   10.5506  -15.9305   22.7000 N   0  0  0  0  0  0  0  0  0  0  0  0
   11.2278  -16.4546   23.8676 C   0  0  0  0  0  0  0  0  0  0  0  0
   12.6882  -16.3433   23.6339 C   0  0  0  0  0  0  0  0  0  0  0  0
   13.1371  -16.0898   22.4865 O   0  0  0  0  0  0  0  0  0  0  0  0
   13.6184  -16.5108   24.6546 O   0  0  0  0  0  0  0  0  0  0  0  0
  1  2  1  0
  2  3  1  0
  3  4  2  0
  6  5  1  0
  7  6  1  0
  7  8  1  1
  9  7  1  0
 10  3  1  0
  9 10  1  6
 11 12  2  0
 11  9  1  0
 13 11  1  0
 14 15  1  0
 14 13  1  0
 15 17  1  0
 16 15  2  0
M  END
$$$$
