GIG.pdb
     RDKit          3D

 17 16  0  0  1  0  0  0  0  0999 V2000
    5.4887  -18.4416   23.2128 N   0  0  0  0  0  0  0  0  0  0  0  0
    5.5851  -17.6607   24.4319 C   0  0  0  0  0  0  0  0  0  0  0  0
    6.6128  -16.5942   24.3058 C   0  0  0  0  0  0  0  0  0  0  0  0
    7.2807  -16.3959   23.2672 O   0  0  0  0  0  0  0  0  0  0  0  0
    5.5744  -12.0324   27.0555 C   0  0  0  0  0  0  0  0  0  0  0  0
    6.0615  -12.8912   25.8972 C   0  0  0  0  0  0  0  0  0  0  0  0
    7.2646  -13.6316   26.3761 C   0  0  2  0  0  0  0  0  0  0  0  0
    8.3450  -12.6365   26.7422 C   0  0  0  0  0  0  0  0  0  0  0  0
    7.7858  -14.6622   25.4289 C   0  0  2  0  0  0  0  0  0  0  0  0
    6.8426  -15.7620   25.4250 N   0  0  0  0  0  0  0  0  0  0  0  0
    9.1114  -15.1763   25.7396 C   0  0  0  0  0  0  0  0  0  0  0  0
   10.1178  -14.4497   25.6508 O   0  0  0  0  0  0  0  0  0  0  0  0
    9.2729  -16.5145   26.1481 N   0  0  0  0  0  0  0  0  0  0  0  0
   10.5574  -17.0773   26.5088 C   0  0  0  0  0  0  0  0  0  0  0  0
   11.1907  -17.5937   25.2711 C   0  0  0  0  0  0  0  0  0  0  0  0
   11.9045  -16.8454   24.5550 O   0  0  0  0  0  0  0  0  0  0  0  0
   11.0295  -18.9090   24.8476 O   0  0  0  0  0  0  0  0  0  0  0  0
  1  2  1  0
  2  3  1  0
  3  4  2  0
  6  5  1  0
  7  6  1  0
  7  8  1  6
  9  7  1  0
 10  3  1  0
  9 10  1  1
 11 12  2  0
 11  9  1  0
 13 11  1  0
 14 15  1  0
 14 13  1  0
 15 17  1  0
 16 15  2  0
M  END
$$$$
