GIG.pdb
     RDKit          3D

 17 16  0  0  1  0  0  0  0  0999 V2000
    5.5520  -18.4918   23.3087 N   0  0  0  0  0  0  0  0  0  0  0  0
    5.7866  -17.7969   24.5607 C   0  0  0  0  0  0  0  0  0  0  0  0
    6.6222  -16.5853   24.3531 C   0  0  0  0  0  0  0  0  0  0  0  0
    7.1337  -16.2772   23.2542 O   0  0  0  0  0  0  0  0  0  0  0  0
    5.8092  -11.6042   26.8007 C   0  0  0  0  0  0  0  0  0  0  0  0
    5.8076  -12.9866   26.1640 C   0  0  0  0  0  0  0  0  0  0  0  0
    7.1311  -13.6074   26.4609 C   0  0  2  0  0  0  0  0  0  0  0  0
    8.1350  -12.5142   26.7585 C   0  0  0  0  0  0  0  0  0  0  0  0
    7.6431  -14.5301   25.4039 C   0  0  2  0  0  0  0  0  0  0  0  0
    6.8469  -15.7392   25.4629 N   0  0  0  0  0  0  0  0  0  0  0  0
    9.0503  -14.8837   25.5177 C   0  0  0  0  0  0  0  0  0  0  0  0
    9.9406  -14.0274   25.3674 O   0  0  0  0  0  0  0  0  0  0  0  0
    9.4249  -16.2114   25.8018 N   0  0  0  0  0  0  0  0  0  0  0  0
   10.7963  -16.6066   26.0463 C   0  0  0  0  0  0  0  0  0  0  0  0
   11.2036  -17.5298   24.9593 C   0  0  0  0  0  0  0  0  0  0  0  0
   10.3445  -18.2009   24.3316 O   0  0  0  0  0  0  0  0  0  0  0  0
   12.5333  -17.6967   24.5860 O   0  0  0  0  0  0  0  0  0  0  0  0
  1  2  1  0
  2  3  1  0
  3  4  2  0
  6  5  1  0
  7  6  1  0
  7  8  1  6
  9  7  1  0
 10  3  1  0
  9 10  1  1
 11 12  2  0
 11  9  1  0
 13 11  1  0
 14 15  1  0
 14 13  1  0
 15 17  1  0
 16 15  2  0
M  END
$$$$
