GIG.pdb
     RDKit          3D

 17 16  0  0  1  0  0  0  0  0999 V2000
    5.4747  -18.9804   24.2776 N   0  0  0  0  0  0  0  0  0  0  0  0
    5.7542  -17.9225   25.2305 C   0  0  0  0  0  0  0  0  0  0  0  0
    6.6205  -16.8746   24.6297 C   0  0  0  0  0  0  0  0  0  0  0  0
    7.0791  -16.9380   23.4679 O   0  0  0  0  0  0  0  0  0  0  0  0
    7.1084  -11.8350   27.3314 C   0  0  0  0  0  0  0  0  0  0  0  0
    7.2465  -13.3138   26.9991 C   0  0  0  0  0  0  0  0  0  0  0  0
    7.3795  -13.4195   25.5172 C   0  0  2  0  0  0  0  0  0  0  0  0
    6.0499  -13.0845   24.8757 C   0  0  0  0  0  0  0  0  0  0  0  0
    7.8948  -14.7322   25.0251 C   0  0  2  0  0  0  0  0  0  0  0  0
    6.9394  -15.7472   25.4204 N   0  0  0  0  0  0  0  0  0  0  0  0
    9.2128  -15.1051   25.5171 C   0  0  0  0  0  0  0  0  0  0  0  0
    9.4144  -15.2931   26.7306 O   0  0  0  0  0  0  0  0  0  0  0  0
   10.2856  -15.2591   24.6177 N   0  0  0  0  0  0  0  0  0  0  0  0
   11.6368  -15.5524   25.0478 C   0  0  0  0  0  0  0  0  0  0  0  0
   12.4898  -15.6397   23.8377 C   0  0  0  0  0  0  0  0  0  0  0  0
   13.7297  -15.8265   23.9385 O   0  0  0  0  0  0  0  0  0  0  0  0
   11.9702  -15.5215   22.5526 O   0  0  0  0  0  0  0  0  0  0  0  0
  1  2  1  0
  2  3  1  0
  3  4  2  0
  6  5  1  0
  7  6  1  0
  7  8  1  6
  9  7  1  0
 10  3  1  0
  9 10  1  1
 11 12  2  0
 11  9  1  0
 13 11  1  0
 14 15  1  0
 14 13  1  0
 15 17  1  0
 16 15  2  0
M  END
$$$$
