TIH.pdb
     RDKit          3D

 26 26  0  0  1  0  0  0  0  0999 V2000
   10.6685  -19.6093   17.7886 C   0  0  0  0  0  0  0  0  0  0  0  0
    9.2515  -19.1861   17.4745 C   0  0  1  0  0  0  0  0  0  0  0  0
    8.4036  -19.3942   18.5527 O   0  0  0  0  0  0  0  0  0  0  0  0
    9.2181  -17.7224   17.0276 C   0  0  2  0  0  0  0  0  0  0  0  0
   10.1444  -17.5592   15.9020 N   0  0  0  0  0  0  0  0  0  0  0  0
    9.6890  -16.8423   18.1284 C   0  0  0  0  0  0  0  0  0  0  0  0
   10.9284  -16.6393   18.3132 O   0  0  0  0  0  0  0  0  0  0  0  0
    6.5568  -12.7245   19.7710 C   0  0  0  0  0  0  0  0  0  0  0  0
    7.8043  -13.4907   19.4638 C   0  0  0  0  0  0  0  0  0  0  0  0
    8.1344  -14.4935   20.5798 C   0  0  2  0  0  0  0  0  0  0  0  0
    8.3076  -13.7880   21.8804 C   0  0  0  0  0  0  0  0  0  0  0  0
    9.2669  -15.3914   20.1667 C   0  0  2  0  0  0  0  0  0  0  0  0
    8.8068  -16.1886   19.0210 N   0  0  0  0  0  0  0  0  0  0  0  0
    9.7110  -16.3346   21.2083 C   0  0  0  0  0  0  0  0  0  0  0  0
    9.0198  -17.3836   21.4488 O   0  0  0  0  0  0  0  0  0  0  0  0
   10.8721  -16.1874   21.9945 N   0  0  0  0  0  0  0  0  0  0  0  0
   11.2881  -17.2124   22.9378 C   0  0  1  0  0  0  0  0  0  0  0  0
   12.5866  -17.8221   22.4628 C   0  0  0  0  0  0  0  0  0  0  0  0
   12.3473  -19.0623   21.7030 C   0  0  0  0  0  0  0  0  0  0  0  0
   11.1412  -19.6871   21.4631 C   0  0  0  0  0  0  0  0  0  0  0  0
   11.3329  -20.8058   20.7430 N   0  0  0  0  0  0  0  0  0  0  0  0
   12.6493  -20.8929   20.5263 C   0  0  0  0  0  0  0  0  0  0  0  0
   13.2704  -19.8506   21.0983 N   0  0  0  0  0  0  0  0  0  0  0  0
   11.4189  -16.6285   24.2811 C   0  0  0  0  0  0  0  0  0  0  0  0
   11.1730  -15.3023   24.5990 O   0  0  0  0  0  0  0  0  0  0  0  0
   11.7825  -17.3546   25.2522 O   0  0  0  0  0  0  0  0  0  0  0  0
  2  1  1  1
  3  2  1  0
  4  2  1  0
  4  6  1  0
  4  5  1  6
  6 13  1  0
  6  7  2  0
  9  8  1  0
 10  9  1  0
 10 11  1  1
 12 10  1  0
 12 13  1  6
 14 12  1  0
 14 15  2  0
 16 14  1  0
 17 16  1  0
 17 18  1  6
 18 19  1  0
 19 20  2  0
 19 23  1  0
 20 21  1  0
 21 22  1  0
 23 22  2  0
 24 17  1  0
 25 24  1  0
 26 24  2  0
M  END
$$$$
