TIH.pdb
     RDKit          3D

 26 26  0  0  1  0  0  0  0  0999 V2000
    9.9357  -18.7029   15.2297 C   0  0  0  0  0  0  0  0  0  0  0  0
   10.0839  -18.1093   16.6121 C   0  0  1  0  0  0  0  0  0  0  0  0
   11.0718  -18.7531   17.3431 O   0  0  0  0  0  0  0  0  0  0  0  0
   10.3631  -16.6069   16.5209 C   0  0  2  0  0  0  0  0  0  0  0  0
   11.6730  -16.4154   15.8894 N   0  0  0  0  0  0  0  0  0  0  0  0
   10.4303  -16.0173   17.8832 C   0  0  0  0  0  0  0  0  0  0  0  0
   11.5318  -15.9565   18.5114 O   0  0  0  0  0  0  0  0  0  0  0  0
    6.9065  -12.1277   19.2074 C   0  0  0  0  0  0  0  0  0  0  0  0
    8.1740  -12.9200   19.1477 C   0  0  0  0  0  0  0  0  0  0  0  0
    8.1406  -14.1038   20.1263 C   0  0  2  0  0  0  0  0  0  0  0  0
    7.9088  -13.6242   21.5174 C   0  0  0  0  0  0  0  0  0  0  0  0
    9.3413  -14.9866   19.9302 C   0  0  2  0  0  0  0  0  0  0  0  0
    9.2973  -15.4972   18.5528 N   0  0  0  0  0  0  0  0  0  0  0  0
    9.3966  -16.1528   20.8294 C   0  0  0  0  0  0  0  0  0  0  0  0
    9.0387  -17.3025   20.3981 O   0  0  0  0  0  0  0  0  0  0  0  0
    9.8257  -16.1223   22.1722 N   0  0  0  0  0  0  0  0  0  0  0  0
   10.6482  -17.1817   22.7331 C   0  0  1  0  0  0  0  0  0  0  0  0
   11.9031  -17.3236   21.9032 C   0  0  0  0  0  0  0  0  0  0  0  0
   12.7353  -18.4423   22.3813 C   0  0  0  0  0  0  0  0  0  0  0  0
   12.6403  -19.1131   23.5828 C   0  0  0  0  0  0  0  0  0  0  0  0
   13.5869  -20.0644   23.6597 N   0  0  0  0  0  0  0  0  0  0  0  0
   14.2787  -20.0000   22.5175 C   0  0  0  0  0  0  0  0  0  0  0  0
   13.7767  -19.0287   21.7403 N   0  0  0  0  0  0  0  0  0  0  0  0
   10.9554  -16.8812   24.1394 C   0  0  0  0  0  0  0  0  0  0  0  0
   11.1547  -15.6107   24.6558 O   0  0  0  0  0  0  0  0  0  0  0  0
   11.0566  -17.8235   24.9786 O   0  0  0  0  0  0  0  0  0  0  0  0
  2  1  1  6
  3  2  1  0
  4  2  1  0
  4  6  1  0
  4  5  1  1
  6 13  1  0
  6  7  2  0
  9  8  1  0
 10  9  1  0
 10 11  1  1
 12 10  1  0
 12 13  1  6
 14 12  1  0
 14 15  2  0
 16 14  1  0
 17 16  1  0
 17 18  1  6
 18 19  1  0
 19 20  2  0
 19 23  1  0
 20 21  1  0
 21 22  1  0
 23 22  2  0
 24 17  1  0
 25 24  1  0
 26 24  2  0
M  END
$$$$
