TIH.pdb
     RDKit          3D

 26 26  0  0  1  0  0  0  0  0999 V2000
    7.9386  -19.0826   18.3813 C   0  0  0  0  0  0  0  0  0  0  0  0
    8.9557  -18.8059   17.2976 C   0  0  1  0  0  0  0  0  0  0  0  0
    8.6949  -19.5408   16.1501 O   0  0  0  0  0  0  0  0  0  0  0  0
    9.0104  -17.3080   16.9865 C   0  0  2  0  0  0  0  0  0  0  0  0
   10.0195  -17.0864   15.9453 N   0  0  0  0  0  0  0  0  0  0  0  0
    9.4359  -16.5519   18.1930 C   0  0  0  0  0  0  0  0  0  0  0  0
   10.6576  -16.5079   18.5349 O   0  0  0  0  0  0  0  0  0  0  0  0
    6.8900  -12.0305   19.6206 C   0  0  0  0  0  0  0  0  0  0  0  0
    7.9975  -13.0247   19.4698 C   0  0  0  0  0  0  0  0  0  0  0  0
    7.9296  -14.1074   20.5576 C   0  0  2  0  0  0  0  0  0  0  0  0
    8.0070  -13.4917   21.9119 C   0  0  0  0  0  0  0  0  0  0  0  0
    8.9222  -15.2011   20.2785 C   0  0  2  0  0  0  0  0  0  0  0  0
    8.5279  -15.8484   19.0194 N   0  0  0  0  0  0  0  0  0  0  0  0
    8.9831  -16.2502   21.3116 C   0  0  0  0  0  0  0  0  0  0  0  0
    8.2398  -17.2859   21.2068 O   0  0  0  0  0  0  0  0  0  0  0  0
    9.8170  -16.2223   22.4482 N   0  0  0  0  0  0  0  0  0  0  0  0
   10.6091  -17.3766   22.8402 C   0  0  1  0  0  0  0  0  0  0  0  0
   11.4726  -17.8009   21.6750 C   0  0  0  0  0  0  0  0  0  0  0  0
   12.3360  -18.9394   22.0374 C   0  0  0  0  0  0  0  0  0  0  0  0
   12.4009  -19.5994   23.2468 C   0  0  0  0  0  0  0  0  0  0  0  0
   13.3227  -20.5763   23.1937 N   0  0  0  0  0  0  0  0  0  0  0  0
   13.8405  -20.5386   21.9617 C   0  0  0  0  0  0  0  0  0  0  0  0
   13.2557  -19.5587   21.2565 N   0  0  0  0  0  0  0  0  0  0  0  0
   11.4153  -17.0475   24.0251 C   0  0  0  0  0  0  0  0  0  0  0  0
   11.7537  -17.9402   25.0296 O   0  0  0  0  0  0  0  0  0  0  0  0
   11.8544  -15.8706   24.1826 O   0  0  0  0  0  0  0  0  0  0  0  0
  2  1  1  1
  3  2  1  0
  4  2  1  0
  4  6  1  0
  4  5  1  6
  6 13  1  0
  6  7  2  0
  9  8  1  0
 10  9  1  0
 10 11  1  1
 12 10  1  0
 12 13  1  6
 14 12  1  0
 14 15  2  0
 16 14  1  0
 17 16  1  0
 17 18  1  6
 18 19  1  0
 19 20  2  0
 19 23  1  0
 20 21  1  0
 21 22  1  0
 23 22  2  0
 24 17  1  0
 25 24  1  0
 26 24  2  0
M  END
$$$$
