TIH.pdb
     RDKit          3D

 26 26  0  0  1  0  0  0  0  0999 V2000
    6.1617  -17.6729   22.4251 C   0  0  0  0  0  0  0  0  0  0  0  0
    7.0864  -17.0764   21.3884 C   0  0  1  0  0  0  0  0  0  0  0  0
    6.6995  -17.4165   20.1002 O   0  0  0  0  0  0  0  0  0  0  0  0
    7.1628  -15.5563   21.5526 C   0  0  2  0  0  0  0  0  0  0  0  0
    7.9075  -15.0032   20.4164 N   0  0  0  0  0  0  0  0  0  0  0  0
    7.9111  -15.2142   22.7900 C   0  0  0  0  0  0  0  0  0  0  0  0
    9.1805  -15.2057   22.8003 O   0  0  0  0  0  0  0  0  0  0  0  0
    5.9344  -11.5021   25.9240 C   0  0  0  0  0  0  0  0  0  0  0  0
    6.9307  -12.3859   25.2428 C   0  0  0  0  0  0  0  0  0  0  0  0
    7.2110  -13.6521   26.0665 C   0  0  2  0  0  0  0  0  0  0  0  0
    7.7808  -13.2942   27.3955 C   0  0  0  0  0  0  0  0  0  0  0  0
    8.0031  -14.6432   25.2606 C   0  0  2  0  0  0  0  0  0  0  0  0
    7.2721  -14.8832   24.0084 N   0  0  0  0  0  0  0  0  0  0  0  0
    8.1947  -15.9498   25.9147 C   0  0  0  0  0  0  0  0  0  0  0  0
    7.1754  -16.6281   26.2848 O   0  0  0  0  0  0  0  0  0  0  0  0
    9.4432  -16.5490   26.1801 N   0  0  0  0  0  0  0  0  0  0  0  0
    9.5433  -17.8376   26.8456 C   0  0  1  0  0  0  0  0  0  0  0  0
   10.4027  -18.7584   26.0108 C   0  0  0  0  0  0  0  0  0  0  0  0
    9.6618  -19.2657   24.8418 C   0  0  0  0  0  0  0  0  0  0  0  0
    8.3548  -19.0007   24.4895 C   0  0  0  0  0  0  0  0  0  0  0  0
    8.0344  -19.6611   23.3634 N   0  0  0  0  0  0  0  0  0  0  0  0
    9.1275  -20.3407   23.0018 C   0  0  0  0  0  0  0  0  0  0  0  0
   10.1130  -20.1114   23.8825 N   0  0  0  0  0  0  0  0  0  0  0  0
   10.0913  -17.6575   28.1983 C   0  0  0  0  0  0  0  0  0  0  0  0
   10.1121  -18.6314   29.1840 O   0  0  0  0  0  0  0  0  0  0  0  0
   10.5916  -16.5440   28.5334 O   0  0  0  0  0  0  0  0  0  0  0  0
  2  1  1  1
  3  2  1  0
  4  2  1  0
  4  6  1  0
  4  5  1  6
  6 13  1  0
  6  7  2  0
  9  8  1  0
 10  9  1  0
 10 11  1  1
 12 10  1  0
 12 13  1  6
 14 12  1  0
 14 15  2  0
 16 14  1  0
 17 16  1  0
 17 18  1  6
 18 19  1  0
 19 20  2  0
 19 23  1  0
 20 21  1  0
 21 22  1  0
 23 22  2  0
 24 17  1  0
 25 24  1  0
 26 24  2  0
M  END
$$$$
