TIH.pdb
     RDKit          3D

 26 26  0  0  1  0  0  0  0  0999 V2000
    6.8385  -17.3938   20.5187 C   0  0  0  0  0  0  0  0  0  0  0  0
    7.5380  -16.9280   21.7753 C   0  0  1  0  0  0  0  0  0  0  0  0
    8.7133  -17.6306   21.9981 O   0  0  0  0  0  0  0  0  0  0  0  0
    7.8055  -15.4221   21.7105 C   0  0  2  0  0  0  0  0  0  0  0  0
    8.7067  -15.1585   20.5837 N   0  0  0  0  0  0  0  0  0  0  0  0
    8.4915  -14.9724   22.9495 C   0  0  0  0  0  0  0  0  0  0  0  0
    9.7537  -14.8413   22.9824 O   0  0  0  0  0  0  0  0  0  0  0  0
    6.1932  -11.4131   26.1924 C   0  0  0  0  0  0  0  0  0  0  0  0
    7.2120  -12.2276   25.4600 C   0  0  0  0  0  0  0  0  0  0  0  0
    7.5650  -13.5080   26.2320 C   0  0  2  0  0  0  0  0  0  0  0  0
    8.0411  -13.1755   27.6038 C   0  0  0  0  0  0  0  0  0  0  0  0
    8.4763  -14.3829   25.4174 C   0  0  2  0  0  0  0  0  0  0  0  0
    7.7983  -14.6681   24.1451 N   0  0  0  0  0  0  0  0  0  0  0  0
    8.8008  -15.6776   26.0422 C   0  0  0  0  0  0  0  0  0  0  0  0
    7.8701  -16.5286   26.2556 O   0  0  0  0  0  0  0  0  0  0  0  0
   10.0904  -16.0857   26.4405 N   0  0  0  0  0  0  0  0  0  0  0  0
   10.3127  -17.3521   27.1191 C   0  0  1  0  0  0  0  0  0  0  0  0
   11.4988  -18.0464   26.4913 C   0  0  0  0  0  0  0  0  0  0  0  0
   11.2661  -18.3111   25.0600 C   0  0  0  0  0  0  0  0  0  0  0  0
   10.1463  -18.8634   24.4738 C   0  0  0  0  0  0  0  0  0  0  0  0
   10.3174  -18.9588   23.1440 N   0  0  0  0  0  0  0  0  0  0  0  0
   11.5354  -18.4718   22.8855 C   0  0  0  0  0  0  0  0  0  0  0  0
   12.1162  -18.0791   24.0291 N   0  0  0  0  0  0  0  0  0  0  0  0
   10.5161  -17.1171   28.5564 C   0  0  0  0  0  0  0  0  0  0  0  0
   10.5780  -15.8698   29.1573 O   0  0  0  0  0  0  0  0  0  0  0  0
   10.6514  -18.0993   29.3435 O   0  0  0  0  0  0  0  0  0  0  0  0
  2  1  1  6
  3  2  1  0
  4  2  1  0
  4  6  1  0
  4  5  1  6
  6 13  1  0
  6  7  2  0
  9  8  1  0
 10  9  1  0
 10 11  1  1
 12 10  1  0
 12 13  1  6
 14 12  1  0
 14 15  2  0
 16 14  1  0
 17 16  1  0
 17 18  1  6
 18 19  1  0
 19 20  2  0
 19 23  1  0
 20 21  1  0
 21 22  1  0
 23 22  2  0
 24 17  1  0
 25 24  1  0
 26 24  2  0
M  END
$$$$
