TIH.pdb
     RDKit          3D

 26 26  0  0  1  0  0  0  0  0999 V2000
    6.5607  -15.8869   20.3601 C   0  0  0  0  0  0  0  0  0  0  0  0
    7.4719  -14.9225   19.6354 C   0  0  1  0  0  0  0  0  0  0  0  0
    7.1493  -14.8257   18.2895 O   0  0  0  0  0  0  0  0  0  0  0  0
    7.4356  -13.5470   20.3064 C   0  0  2  0  0  0  0  0  0  0  0  0
    8.1559  -12.5952   19.4538 N   0  0  0  0  0  0  0  0  0  0  0  0
    8.1380  -13.5993   21.6148 C   0  0  0  0  0  0  0  0  0  0  0  0
    9.4060  -13.6210   21.6713 O   0  0  0  0  0  0  0  0  0  0  0  0
    7.0800  -11.8908   27.4198 C   0  0  0  0  0  0  0  0  0  0  0  0
    7.9185  -12.7014   26.4831 C   0  0  0  0  0  0  0  0  0  0  0  0
    7.2348  -12.8627   25.1169 C   0  0  2  0  0  0  0  0  0  0  0  0
    5.8745  -13.4474   25.2802 C   0  0  0  0  0  0  0  0  0  0  0  0
    8.1413  -13.5745   24.1521 C   0  0  2  0  0  0  0  0  0  0  0  0
    7.4548  -13.6276   22.8537 N   0  0  0  0  0  0  0  0  0  0  0  0
    8.4715  -14.9597   24.5313 C   0  0  0  0  0  0  0  0  0  0  0  0
    7.5966  -15.8815   24.3867 O   0  0  0  0  0  0  0  0  0  0  0  0
    9.7093  -15.3840   25.0567 N   0  0  0  0  0  0  0  0  0  0  0  0
   10.0129  -16.7929   25.2477 C   0  0  1  0  0  0  0  0  0  0  0  0
   11.3239  -17.1116   24.5673 C   0  0  0  0  0  0  0  0  0  0  0  0
   11.6906  -18.5273   24.7520 C   0  0  0  0  0  0  0  0  0  0  0  0
   10.9839  -19.5026   25.4244 C   0  0  0  0  0  0  0  0  0  0  0  0
   11.6516  -20.6687   25.3874 N   0  0  0  0  0  0  0  0  0  0  0  0
   12.7736  -20.4381   24.6978 C   0  0  0  0  0  0  0  0  0  0  0  0
   12.8090  -19.1544   24.3103 N   0  0  0  0  0  0  0  0  0  0  0  0
   10.0548  -17.1021   26.6847 C   0  0  0  0  0  0  0  0  0  0  0  0
    9.9768  -18.3752   27.2268 O   0  0  0  0  0  0  0  0  0  0  0  0
   10.1689  -16.1656   27.5288 O   0  0  0  0  0  0  0  0  0  0  0  0
  2  1  1  1
  3  2  1  0
  4  2  1  0
  4  6  1  0
  4  5  1  6
  6 13  1  0
  6  7  2  0
  9  8  1  0
 10  9  1  0
 10 11  1  1
 12 10  1  0
 12 13  1  6
 14 12  1  0
 14 15  2  0
 16 14  1  0
 17 16  1  0
 17 18  1  1
 18 19  1  0
 19 20  2  0
 19 23  1  0
 20 21  1  0
 21 22  1  0
 23 22  2  0
 24 17  1  0
 25 24  1  0
 26 24  2  0
M  END
$$$$
