TIH.pdb
     RDKit          3D

 26 26  0  0  1  0  0  0  0  0999 V2000
    5.9004  -16.5512   19.7863 C   0  0  0  0  0  0  0  0  0  0  0  0
    6.8499  -16.1832   20.9036 C   0  0  1  0  0  0  0  0  0  0  0  0
    8.1048  -16.7441   20.7154 O   0  0  0  0  0  0  0  0  0  0  0  0
    6.9467  -14.6617   21.0425 C   0  0  2  0  0  0  0  0  0  0  0  0
    7.5268  -14.1187   19.8096 N   0  0  0  0  0  0  0  0  0  0  0  0
    7.8585  -14.3090   22.1616 C   0  0  0  0  0  0  0  0  0  0  0  0
    9.0806  -14.0428   21.9449 O   0  0  0  0  0  0  0  0  0  0  0  0
    5.7795  -12.6800   27.1295 C   0  0  0  0  0  0  0  0  0  0  0  0
    6.3291  -13.5253   26.0245 C   0  0  0  0  0  0  0  0  0  0  0  0
    7.6906  -13.0012   25.5432 C   0  0  2  0  0  0  0  0  0  0  0  0
    7.5564  -11.6193   25.0035 C   0  0  0  0  0  0  0  0  0  0  0  0
    8.3494  -13.9984   24.6316 C   0  0  2  0  0  0  0  0  0  0  0  0
    7.4332  -14.2482   23.5100 N   0  0  0  0  0  0  0  0  0  0  0  0
    8.6420  -15.2998   25.2580 C   0  0  0  0  0  0  0  0  0  0  0  0
    7.7072  -16.1624   25.3923 O   0  0  0  0  0  0  0  0  0  0  0  0
    9.9043  -15.7026   25.7404 N   0  0  0  0  0  0  0  0  0  0  0  0
   10.1202  -17.0296   26.2936 C   0  0  1  0  0  0  0  0  0  0  0  0
   11.5168  -17.4885   25.9438 C   0  0  0  0  0  0  0  0  0  0  0  0
   11.6424  -17.7636   24.5011 C   0  0  0  0  0  0  0  0  0  0  0  0
   10.6590  -17.6854   23.5370 C   0  0  0  0  0  0  0  0  0  0  0  0
   11.1575  -18.0276   22.3365 N   0  0  0  0  0  0  0  0  0  0  0  0
   12.4467  -18.3214   22.5342 C   0  0  0  0  0  0  0  0  0  0  0  0
   12.7507  -18.1666   23.8315 N   0  0  0  0  0  0  0  0  0  0  0  0
    9.9027  -17.0036   27.7477 C   0  0  0  0  0  0  0  0  0  0  0  0
    9.7431  -18.1238   28.5479 O   0  0  0  0  0  0  0  0  0  0  0  0
    9.8487  -15.8959   28.3581 O   0  0  0  0  0  0  0  0  0  0  0  0
  2  1  1  6
  3  2  1  0
  4  2  1  0
  4  6  1  0
  4  5  1  6
  6 13  1  0
  6  7  2  0
  9  8  1  0
 10  9  1  0
 10 11  1  6
 12 10  1  0
 12 13  1  6
 14 12  1  0
 14 15  2  0
 16 14  1  0
 17 16  1  0
 17 18  1  1
 18 19  1  0
 19 20  2  0
 19 23  1  0
 20 21  1  0
 21 22  1  0
 23 22  2  0
 24 17  1  0
 25 24  1  0
 26 24  2  0
M  END
$$$$
