TIH.pdb
     RDKit          3D

 26 26  0  0  1  0  0  0  0  0999 V2000
    6.5009  -16.8722   21.4112 C   0  0  0  0  0  0  0  0  0  0  0  0
    7.2599  -15.9217   20.5136 C   0  0  1  0  0  0  0  0  0  0  0  0
    6.7795  -15.9517   19.2124 O   0  0  0  0  0  0  0  0  0  0  0  0
    7.2139  -14.5004   21.0804 C   0  0  2  0  0  0  0  0  0  0  0  0
    7.7728  -13.5835   20.0812 N   0  0  0  0  0  0  0  0  0  0  0  0
    8.0612  -14.4093   22.2977 C   0  0  0  0  0  0  0  0  0  0  0  0
    9.3230  -14.3054   22.2050 O   0  0  0  0  0  0  0  0  0  0  0  0
    6.3126  -11.3432   26.1320 C   0  0  0  0  0  0  0  0  0  0  0  0
    7.2123  -12.1107   25.2160 C   0  0  0  0  0  0  0  0  0  0  0  0
    7.5801  -13.4790   25.8097 C   0  0  2  0  0  0  0  0  0  0  0  0
    8.2129  -13.3137   27.1481 C   0  0  0  0  0  0  0  0  0  0  0  0
    8.3567  -14.2960   24.8153 C   0  0  2  0  0  0  0  0  0  0  0  0
    7.5288  -14.4319   23.6087 N   0  0  0  0  0  0  0  0  0  0  0  0
    8.6946  -15.6558   25.2717 C   0  0  0  0  0  0  0  0  0  0  0  0
    7.7580  -16.4786   25.5580 O   0  0  0  0  0  0  0  0  0  0  0  0
   10.0030  -16.1579   25.4268 N   0  0  0  0  0  0  0  0  0  0  0  0
   10.2485  -17.5411   25.8009 C   0  0  1  0  0  0  0  0  0  0  0  0
   11.5955  -17.9657   25.2635 C   0  0  0  0  0  0  0  0  0  0  0  0
   11.6452  -17.8484   23.7950 C   0  0  0  0  0  0  0  0  0  0  0  0
   10.7315  -18.3242   22.8777 C   0  0  0  0  0  0  0  0  0  0  0  0
   11.1335  -18.0337   21.6284 N   0  0  0  0  0  0  0  0  0  0  0  0
   12.2929  -17.3790   21.7488 C   0  0  0  0  0  0  0  0  0  0  0  0
   12.6116  -17.2611   23.0465 N   0  0  0  0  0  0  0  0  0  0  0  0
   10.1757  -17.6814   27.2628 C   0  0  0  0  0  0  0  0  0  0  0  0
   10.0902  -18.8859   27.9429 O   0  0  0  0  0  0  0  0  0  0  0  0
   10.1875  -16.6503   27.9972 O   0  0  0  0  0  0  0  0  0  0  0  0
  2  1  1  1
  3  2  1  0
  4  2  1  0
  4  6  1  0
  4  5  1  6
  6 13  1  0
  6  7  2  0
  9  8  1  0
 10  9  1  0
 10 11  1  1
 12 10  1  0
 12 13  1  6
 14 12  1  0
 14 15  2  0
 16 14  1  0
 17 16  1  0
 17 18  1  1
 18 19  1  0
 19 20  2  0
 19 23  1  0
 20 21  1  0
 21 22  1  0
 23 22  2  0
 24 17  1  0
 25 24  1  0
 26 24  2  0
M  END
$$$$
