TIH.pdb
     RDKit          3D

 26 26  0  0  1  0  0  0  0  0999 V2000
    6.5437  -17.6883   22.7980 C   0  0  0  0  0  0  0  0  0  0  0  0
    7.0858  -16.9743   21.5808 C   0  0  1  0  0  0  0  0  0  0  0  0
    6.5370  -17.4720   20.4078 O   0  0  0  0  0  0  0  0  0  0  0  0
    6.8503  -15.4662   21.6974 C   0  0  2  0  0  0  0  0  0  0  0  0
    7.1284  -14.8506   20.3954 N   0  0  0  0  0  0  0  0  0  0  0  0
    7.7933  -14.8776   22.6835 C   0  0  0  0  0  0  0  0  0  0  0  0
    8.9431  -14.4772   22.3243 O   0  0  0  0  0  0  0  0  0  0  0  0
    5.8274  -11.6353   26.4448 C   0  0  0  0  0  0  0  0  0  0  0  0
    6.7717  -12.2417   25.4558 C   0  0  0  0  0  0  0  0  0  0  0  0
    7.5395  -13.4236   26.0670 C   0  0  2  0  0  0  0  0  0  0  0  0
    8.2514  -12.9990   27.3047 C   0  0  0  0  0  0  0  0  0  0  0  0
    8.3856  -14.1007   25.0253 C   0  0  2  0  0  0  0  0  0  0  0  0
    7.4779  -14.7287   24.0550 N   0  0  0  0  0  0  0  0  0  0  0  0
    9.2698  -15.1575   25.5477 C   0  0  0  0  0  0  0  0  0  0  0  0
   10.2877  -14.8397   26.2540 O   0  0  0  0  0  0  0  0  0  0  0  0
    9.0931  -16.5406   25.3376 N   0  0  0  0  0  0  0  0  0  0  0  0
   10.0092  -17.5194   25.8998 C   0  0  1  0  0  0  0  0  0  0  0  0
   11.4239  -17.1427   25.5258 C   0  0  0  0  0  0  0  0  0  0  0  0
   11.6239  -17.2023   24.0665 C   0  0  0  0  0  0  0  0  0  0  0  0
   10.6832  -17.4737   23.0950 C   0  0  0  0  0  0  0  0  0  0  0  0
   11.2533  -17.4527   21.8779 N   0  0  0  0  0  0  0  0  0  0  0  0
   12.5456  -17.1707   22.0725 C   0  0  0  0  0  0  0  0  0  0  0  0
   12.7813  -17.0179   23.3841 N   0  0  0  0  0  0  0  0  0  0  0  0
    9.8304  -17.5879   27.3578 C   0  0  0  0  0  0  0  0  0  0  0  0
   10.5358  -18.4258   28.2069 O   0  0  0  0  0  0  0  0  0  0  0  0
    8.9773  -16.8440   27.9247 O   0  0  0  0  0  0  0  0  0  0  0  0
  2  1  1  1
  3  2  1  0
  4  2  1  0
  4  6  1  0
  4  5  1  6
  6 13  1  0
  6  7  2  0
  9  8  1  0
 10  9  1  0
 10 11  1  1
 12 10  1  0
 12 13  1  6
 14 12  1  0
 14 15  2  0
 16 14  1  0
 17 16  1  0
 17 18  1  1
 18 19  1  0
 19 20  2  0
 19 23  1  0
 20 21  1  0
 21 22  1  0
 23 22  2  0
 24 17  1  0
 25 24  1  0
 26 24  2  0
M  END
$$$$
