TIH.pdb
     RDKit          3D

 26 26  0  0  1  0  0  0  0  0999 V2000
    6.0961  -16.9540   20.0233 C   0  0  0  0  0  0  0  0  0  0  0  0
    6.9115  -16.5658   21.2356 C   0  0  1  0  0  0  0  0  0  0  0  0
    8.1413  -17.2078   21.2531 O   0  0  0  0  0  0  0  0  0  0  0  0
    7.0873  -15.0463   21.2966 C   0  0  2  0  0  0  0  0  0  0  0  0
    7.8307  -14.6167   20.1074 N   0  0  0  0  0  0  0  0  0  0  0  0
    7.8922  -14.6737   22.4888 C   0  0  0  0  0  0  0  0  0  0  0  0
    9.1512  -14.5346   22.4053 O   0  0  0  0  0  0  0  0  0  0  0  0
    5.9087  -11.3303   26.1658 C   0  0  0  0  0  0  0  0  0  0  0  0
    6.8456  -12.0883   25.2797 C   0  0  0  0  0  0  0  0  0  0  0  0
    7.2779  -13.4135   25.9255 C   0  0  2  0  0  0  0  0  0  0  0  0
    7.8716  -13.1693   27.2698 C   0  0  0  0  0  0  0  0  0  0  0  0
    8.1207  -14.2159   24.9741 C   0  0  2  0  0  0  0  0  0  0  0  0
    7.3206  -14.4547   23.7647 N   0  0  0  0  0  0  0  0  0  0  0  0
    8.5414  -15.5309   25.4893 C   0  0  0  0  0  0  0  0  0  0  0  0
    7.6750  -16.4605   25.6351 O   0  0  0  0  0  0  0  0  0  0  0  0
    9.8600  -15.8774   25.8488 N   0  0  0  0  0  0  0  0  0  0  0  0
   10.1926  -17.2067   26.3345 C   0  0  1  0  0  0  0  0  0  0  0  0
   11.5239  -17.6249   25.7548 C   0  0  0  0  0  0  0  0  0  0  0  0
   11.4789  -17.6539   24.2817 C   0  0  0  0  0  0  0  0  0  0  0  0
   12.0386  -16.7517   23.4011 C   0  0  0  0  0  0  0  0  0  0  0  0
   11.7682  -17.1105   22.1342 N   0  0  0  0  0  0  0  0  0  0  0  0
   11.0426  -18.2311   22.2073 C   0  0  0  0  0  0  0  0  0  0  0  0
   10.8617  -18.5683   23.4929 N   0  0  0  0  0  0  0  0  0  0  0  0
   10.2134  -17.2082   27.8049 C   0  0  0  0  0  0  0  0  0  0  0  0
   10.3163  -18.3402   28.5976 O   0  0  0  0  0  0  0  0  0  0  0  0
   10.1323  -16.1151   28.4383 O   0  0  0  0  0  0  0  0  0  0  0  0
  2  1  1  6
  3  2  1  0
  4  2  1  0
  4  6  1  0
  4  5  1  6
  6 13  1  0
  6  7  2  0
  9  8  1  0
 10  9  1  0
 10 11  1  1
 12 10  1  0
 12 13  1  6
 14 12  1  0
 14 15  2  0
 16 14  1  0
 17 16  1  0
 17 18  1  6
 18 19  1  0
 19 20  2  0
 19 23  1  0
 20 21  1  0
 21 22  1  0
 23 22  2  0
 24 17  1  0
 25 24  1  0
 26 24  2  0
M  END
$$$$
