TIH.pdb
     RDKit          3D

 26 26  0  0  1  0  0  0  0  0999 V2000
    6.9794  -17.6779   21.8363 C   0  0  0  0  0  0  0  0  0  0  0  0
    7.6898  -16.7818   20.8474 C   0  0  1  0  0  0  0  0  0  0  0  0
    7.2651  -17.0152   19.5474 O   0  0  0  0  0  0  0  0  0  0  0  0
    7.5010  -15.3111   21.2282 C   0  0  2  0  0  0  0  0  0  0  0  0
    8.0481  -14.4787   20.1515 N   0  0  0  0  0  0  0  0  0  0  0  0
    8.2633  -15.0031   22.4660 C   0  0  0  0  0  0  0  0  0  0  0  0
    9.5238  -14.8567   22.4334 O   0  0  0  0  0  0  0  0  0  0  0  0
    6.2029  -11.6228   25.9344 C   0  0  0  0  0  0  0  0  0  0  0  0
    7.1367  -12.4512   25.1101 C   0  0  0  0  0  0  0  0  0  0  0  0
    7.5482  -13.7335   25.8494 C   0  0  2  0  0  0  0  0  0  0  0  0
    8.1207  -13.4048   27.1847 C   0  0  0  0  0  0  0  0  0  0  0  0
    8.4010  -14.6022   24.9677 C   0  0  2  0  0  0  0  0  0  0  0  0
    7.6477  -14.8564   23.7317 N   0  0  0  0  0  0  0  0  0  0  0  0
    8.7462  -15.9117   25.5489 C   0  0  0  0  0  0  0  0  0  0  0  0
    7.8148  -16.6962   25.9401 O   0  0  0  0  0  0  0  0  0  0  0  0
   10.0566  -16.4036   25.7196 N   0  0  0  0  0  0  0  0  0  0  0  0
   10.3112  -17.6918   26.3435 C   0  0  1  0  0  0  0  0  0  0  0  0
   11.6721  -18.1878   25.9133 C   0  0  0  0  0  0  0  0  0  0  0  0
   11.7136  -18.4405   24.4616 C   0  0  0  0  0  0  0  0  0  0  0  0
   10.6702  -18.3738   23.5620 C   0  0  0  0  0  0  0  0  0  0  0  0
   11.1004  -18.6875   22.3277 N   0  0  0  0  0  0  0  0  0  0  0  0
   12.4061  -18.9519   22.4403 C   0  0  0  0  0  0  0  0  0  0  0  0
   12.7871  -18.8070   23.7182 N   0  0  0  0  0  0  0  0  0  0  0  0
   10.2142  -17.5643   27.8052 C   0  0  0  0  0  0  0  0  0  0  0  0
   10.0403  -16.3718   28.4896 O   0  0  0  0  0  0  0  0  0  0  0  0
   10.2914  -18.5956   28.5353 O   0  0  0  0  0  0  0  0  0  0  0  0
  2  1  1  1
  3  2  1  0
  4  2  1  0
  4  6  1  0
  4  5  1  6
  6 13  1  0
  6  7  2  0
  9  8  1  0
 10  9  1  0
 10 11  1  1
 12 10  1  0
 12 13  1  6
 14 12  1  0
 14 15  2  0
 16 14  1  0
 17 16  1  0
 17 18  1  1
 18 19  1  0
 19 20  2  0
 19 23  1  0
 20 21  1  0
 21 22  1  0
 23 22  2  0
 24 17  1  0
 25 24  1  0
 26 24  2  0
M  END
$$$$
