TIH.pdb
     RDKit          3D

 26 26  0  0  1  0  0  0  0  0999 V2000
   10.2922  -18.4300   17.5905 C   0  0  0  0  0  0  0  0  0  0  0  0
   11.3207  -17.7852   16.6895 C   0  0  1  0  0  0  0  0  0  0  0  0
   11.4826  -18.4934   15.5075 O   0  0  0  0  0  0  0  0  0  0  0  0
   10.9445  -16.3285   16.4066 C   0  0  2  0  0  0  0  0  0  0  0  0
   11.9341  -15.7642   15.4827 N   0  0  0  0  0  0  0  0  0  0  0  0
   10.9979  -15.5352   17.6620 C   0  0  0  0  0  0  0  0  0  0  0  0
   12.0829  -15.0009   18.0474 O   0  0  0  0  0  0  0  0  0  0  0  0
    7.0941  -12.1894   19.1558 C   0  0  0  0  0  0  0  0  0  0  0  0
    8.4607  -12.7893   19.0552 C   0  0  0  0  0  0  0  0  0  0  0  0
    8.6277  -13.9676   20.0267 C   0  0  2  0  0  0  0  0  0  0  0  0
    8.3606  -13.5318   21.4259 C   0  0  0  0  0  0  0  0  0  0  0  0
    9.9413  -14.6610   19.7969 C   0  0  2  0  0  0  0  0  0  0  0  0
    9.8688  -15.3286   18.4896 N   0  0  0  0  0  0  0  0  0  0  0  0
   10.2731  -15.6903   20.7980 C   0  0  0  0  0  0  0  0  0  0  0  0
   10.3959  -15.3610   22.0278 O   0  0  0  0  0  0  0  0  0  0  0  0
   10.4735  -17.0579   20.5198 N   0  0  0  0  0  0  0  0  0  0  0  0
   10.6572  -18.0324   21.5830 C   0  0  1  0  0  0  0  0  0  0  0  0
   10.0813  -19.3580   21.1419 C   0  0  0  0  0  0  0  0  0  0  0  0
    8.7402  -19.1881   20.5542 C   0  0  0  0  0  0  0  0  0  0  0  0
    7.5876  -18.7693   21.1858 C   0  0  0  0  0  0  0  0  0  0  0  0
    6.5612  -18.7563   20.3180 N   0  0  0  0  0  0  0  0  0  0  0  0
    7.0555  -19.1633   19.1443 C   0  0  0  0  0  0  0  0  0  0  0  0
    8.3646  -19.4260   19.2730 N   0  0  0  0  0  0  0  0  0  0  0  0
   12.0853  -18.1418   21.9160 C   0  0  0  0  0  0  0  0  0  0  0  0
   13.0895  -17.3507   21.3809 O   0  0  0  0  0  0  0  0  0  0  0  0
   12.4742  -19.0119   22.7493 O   0  0  0  0  0  0  0  0  0  0  0  0
  2  1  1  1
  3  2  1  0
  4  2  1  0
  4  6  1  0
  4  5  1  6
  6 13  1  0
  6  7  2  0
  9  8  1  0
 10  9  1  0
 10 11  1  1
 12 10  1  0
 12 13  1  6
 14 12  1  0
 14 15  2  0
 16 14  1  0
 17 16  1  0
 17 18  1  6
 18 19  1  0
 19 20  2  0
 19 23  1  0
 20 21  1  0
 21 22  1  0
 23 22  2  0
 24 17  1  0
 25 24  1  0
 26 24  2  0
M  END
$$$$
