YVW.pdb
     RDKit          3D

 34 36  0  0  1  0  0  0  0  0999 V2000
   31.0531  -17.6366  -19.1787 O   0  0  0  0  0  0  0  0  0  0  0  0
   30.1851  -17.7397  -18.1042 C   0  0  0  0  0  0  0  0  0  0  0  0
   29.3639  -16.6459  -17.8365 C   0  0  0  0  0  0  0  0  0  0  0  0
   28.4879  -16.7355  -16.7654 C   0  0  0  0  0  0  0  0  0  0  0  0
   28.4558  -17.8909  -16.0064 C   0  0  0  0  0  0  0  0  0  0  0  0
   27.5080  -18.0156  -14.8633 C   0  0  0  0  0  0  0  0  0  0  0  0
   26.3185  -18.8613  -15.2346 C   0  0  2  0  0  0  0  0  0  0  0  0
   25.5552  -18.3706  -16.3511 N   0  0  0  0  0  0  0  0  0  0  0  0
   25.4217  -19.1528  -14.1175 C   0  0  0  0  0  0  0  0  0  0  0  0
   24.1849  -18.8134  -14.1774 O   0  0  0  0  0  0  0  0  0  0  0  0
   29.2652  -18.9727  -16.2671 C   0  0  0  0  0  0  0  0  0  0  0  0
   30.1405  -18.8916  -17.3303 C   0  0  0  0  0  0  0  0  0  0  0  0
   22.7400  -21.0235  -11.2095 C   0  0  0  0  0  0  0  0  0  0  0  0
   23.6982  -20.7736  -12.3554 C   0  0  1  0  0  0  0  0  0  0  0  0
   22.9764  -19.9249  -13.3853 C   0  0  0  0  0  0  0  0  0  0  0  0
   24.9092  -20.0977  -11.8359 C   0  0  2  0  0  0  0  0  0  0  0  0
   25.8220  -19.8081  -12.9174 N   0  0  0  0  0  0  0  0  0  0  0  0
   25.5909  -20.7871  -10.7082 C   0  0  0  0  0  0  0  0  0  0  0  0
   25.8427  -22.0306  -10.7070 O   0  0  0  0  0  0  0  0  0  0  0  0
   25.9904  -20.0388   -9.5755 N   0  0  0  0  0  0  0  0  0  0  0  0
   26.6823  -20.6813   -8.4405 C   0  0  1  0  0  0  0  0  0  0  0  0
   27.7535  -19.6729   -8.0633 C   0  0  0  0  0  0  0  0  0  0  0  0
   28.6185  -20.0304   -6.9559 C   0  0  0  0  0  0  0  0  0  0  0  0
   29.6515  -20.9472   -6.8898 C   0  0  0  0  0  0  0  0  0  0  0  0
   30.1106  -20.9194   -5.6499 N   0  0  0  0  0  0  0  0  0  0  0  0
   29.4349  -20.0230   -4.8695 C   0  0  0  0  0  0  0  0  0  0  0  0
   29.5631  -19.6428   -3.5549 C   0  0  0  0  0  0  0  0  0  0  0  0
   28.7422  -18.6812   -3.0234 C   0  0  0  0  0  0  0  0  0  0  0  0
   27.7904  -18.1061   -3.8297 C   0  0  0  0  0  0  0  0  0  0  0  0
   27.6663  -18.4913   -5.1452 C   0  0  0  0  0  0  0  0  0  0  0  0
   28.4864  -19.4557   -5.6879 C   0  0  0  0  0  0  0  0  0  0  0  0
   25.7927  -21.1076   -7.3899 C   0  0  0  0  0  0  0  0  0  0  0  0
   26.1269  -22.1302   -6.6758 O   0  0  0  0  0  0  0  0  0  0  0  0
   24.5996  -20.5234   -7.0618 O   0  0  0  0  0  0  0  0  0  0  0  0
  2  1  1  0
  3  2  2  0
  4  3  1  0
  5 11  1  0
  5  4  2  0
  6  5  1  0
  7  6  1  0
  7  8  1  6
  9  7  1  0
  9 10  2  0
 11 12  2  0
 12  2  1  0
 14 13  1  1
 14 15  1  0
 16 14  1  0
 16 17  1  6
 17  9  1  0
 18 16  1  0
 19 18  2  0
 20 18  1  0
 21 20  1  0
 21 22  1  1
 22 23  1  0
 23 31  1  0
 24 23  2  0
 24 25  1  0
 25 26  1  0
 26 27  1  0
 27 28  2  0
 29 28  1  0
 30 29  2  0
 31 26  2  0
 31 30  1  0
 32 34  1  0
 32 21  1  0
 33 32  2  0
M  END
$$$$
