YVW.pdb
     RDKit          3D

 34 36  0  0  1  0  0  0  0  0999 V2000
   17.7487  -20.5409  -17.1477 O   0  0  0  0  0  0  0  0  0  0  0  0
   18.9079  -20.8432  -16.4524 C   0  0  0  0  0  0  0  0  0  0  0  0
   19.0503  -22.1467  -15.9801 C   0  0  0  0  0  0  0  0  0  0  0  0
   20.2067  -22.4650  -15.2843 C   0  0  0  0  0  0  0  0  0  0  0  0
   21.1700  -21.4935  -15.0833 C   0  0  0  0  0  0  0  0  0  0  0  0
   22.4288  -21.8194  -14.3555 C   0  0  0  0  0  0  0  0  0  0  0  0
   23.5995  -21.8881  -15.3004 C   0  0  2  0  0  0  0  0  0  0  0  0
   23.4919  -22.8965  -16.3209 N   0  0  0  0  0  0  0  0  0  0  0  0
   24.8968  -21.9992  -14.6357 C   0  0  0  0  0  0  0  0  0  0  0  0
   25.2916  -23.1312  -14.1764 O   0  0  0  0  0  0  0  0  0  0  0  0
   21.0329  -20.2054  -15.5475 C   0  0  0  0  0  0  0  0  0  0  0  0
   19.8849  -19.8800  -16.2399 C   0  0  0  0  0  0  0  0  0  0  0  0
   28.5882  -19.6465  -12.3241 C   0  0  0  0  0  0  0  0  0  0  0  0
   27.6509  -19.7075  -13.5121 C   0  0  1  0  0  0  0  0  0  0  0  0
   28.4940  -19.9144  -14.7565 C   0  0  0  0  0  0  0  0  0  0  0  0
   26.6851  -20.8121  -13.3114 C   0  0  2  0  0  0  0  0  0  0  0  0
   25.7968  -20.9110  -14.4461 N   0  0  0  0  0  0  0  0  0  0  0  0
   25.9372  -20.7805  -12.0263 C   0  0  0  0  0  0  0  0  0  0  0  0
   24.7220  -20.4264  -11.9405 O   0  0  0  0  0  0  0  0  0  0  0  0
   26.5916  -21.1642  -10.8316 N   0  0  0  0  0  0  0  0  0  0  0  0
   25.8822  -21.1604   -9.5368 C   0  0  1  0  0  0  0  0  0  0  0  0
   26.9266  -21.6729   -8.5605 C   0  0  0  0  0  0  0  0  0  0  0  0
   27.2186  -20.8258   -7.4206 C   0  0  0  0  0  0  0  0  0  0  0  0
   26.3831  -20.0179   -6.6712 C   0  0  0  0  0  0  0  0  0  0  0  0
   27.1361  -19.4307   -5.7565 N   0  0  0  0  0  0  0  0  0  0  0  0
   28.4479  -19.8042   -5.8505 C   0  0  0  0  0  0  0  0  0  0  0  0
   29.5685  -19.4787   -5.1244 C   0  0  0  0  0  0  0  0  0  0  0  0
   30.7854  -20.0303   -5.4342 C   0  0  0  0  0  0  0  0  0  0  0  0
   30.8621  -20.9138   -6.4833 C   0  0  0  0  0  0  0  0  0  0  0  0
   29.7366  -21.2356   -7.2072 C   0  0  0  0  0  0  0  0  0  0  0  0
   28.5103  -20.6870   -6.9032 C   0  0  0  0  0  0  0  0  0  0  0  0
   25.2633  -19.8976   -9.2224 C   0  0  0  0  0  0  0  0  0  0  0  0
   25.9351  -18.8138   -9.4259 O   0  0  0  0  0  0  0  0  0  0  0  0
   24.0028  -19.7245   -8.7186 O   0  0  0  0  0  0  0  0  0  0  0  0
  2  1  1  0
  3  2  2  0
  4  3  1  0
  5 11  1  0
  5  4  2  0
  6  5  1  0
  7  6  1  0
  7  8  1  6
  9  7  1  0
  9 10  2  0
 11 12  2  0
 12  2  1  0
 14 13  1  1
 14 15  1  0
 16 14  1  0
 16 17  1  6
 17  9  1  0
 18 16  1  0
 19 18  2  0
 20 18  1  0
 21 20  1  0
 21 22  1  1
 22 23  1  0
 23 31  1  0
 24 23  2  0
 24 25  1  0
 25 26  1  0
 26 27  1  0
 27 28  2  0
 29 28  1  0
 30 29  2  0
 31 26  2  0
 31 30  1  0
 32 34  1  0
 32 21  1  0
 33 32  2  0
M  END
$$$$
