YVW.pdb
     RDKit          3D

 34 36  0  0  1  0  0  0  0  0999 V2000
   31.2422  -16.8290  -19.0394 O   0  0  0  0  0  0  0  0  0  0  0  0
   30.3315  -16.9436  -18.0021 C   0  0  0  0  0  0  0  0  0  0  0  0
   30.2412  -18.1784  -17.3620 C   0  0  0  0  0  0  0  0  0  0  0  0
   29.3356  -18.3076  -16.3199 C   0  0  0  0  0  0  0  0  0  0  0  0
   28.5609  -17.2228  -15.9524 C   0  0  0  0  0  0  0  0  0  0  0  0
   27.5958  -17.3342  -14.8224 C   0  0  0  0  0  0  0  0  0  0  0  0
   26.4487  -18.2436  -15.1763 C   0  0  2  0  0  0  0  0  0  0  0  0
   25.6291  -17.7836  -16.2656 N   0  0  0  0  0  0  0  0  0  0  0  0
   25.6001  -18.6027  -14.0415 C   0  0  0  0  0  0  0  0  0  0  0  0
   24.7579  -17.7550  -13.5718 O   0  0  0  0  0  0  0  0  0  0  0  0
   28.6467  -16.0023  -16.5820 C   0  0  0  0  0  0  0  0  0  0  0  0
   29.5444  -15.8654  -17.6205 C   0  0  0  0  0  0  0  0  0  0  0  0
   22.8988  -21.2697  -11.2751 C   0  0  0  0  0  0  0  0  0  0  0  0
   23.7395  -21.0616  -12.5175 C   0  0  1  0  0  0  0  0  0  0  0  0
   22.8398  -20.4826  -13.5932 C   0  0  0  0  0  0  0  0  0  0  0  0
   24.8654  -20.1552  -12.1946 C   0  0  2  0  0  0  0  0  0  0  0  0
   25.6312  -19.8668  -13.3849 N   0  0  0  0  0  0  0  0  0  0  0  0
   25.7358  -20.5936  -11.0713 C   0  0  0  0  0  0  0  0  0  0  0  0
   26.9239  -21.0069  -11.2359 O   0  0  0  0  0  0  0  0  0  0  0  0
   25.2367  -20.5512   -9.7478 N   0  0  0  0  0  0  0  0  0  0  0  0
   25.9859  -21.1566   -8.6288 C   0  0  1  0  0  0  0  0  0  0  0  0
   27.0433  -20.1149   -8.3074 C   0  0  0  0  0  0  0  0  0  0  0  0
   27.9035  -20.3935   -7.1739 C   0  0  0  0  0  0  0  0  0  0  0  0
   28.4600  -21.5852   -6.7468 C   0  0  0  0  0  0  0  0  0  0  0  0
   29.1457  -21.3168   -5.6485 N   0  0  0  0  0  0  0  0  0  0  0  0
   29.0804  -19.9939   -5.3097 C   0  0  0  0  0  0  0  0  0  0  0  0
   29.6327  -19.2610   -4.2865 C   0  0  0  0  0  0  0  0  0  0  0  0
   29.4115  -17.9104   -4.1971 C   0  0  0  0  0  0  0  0  0  0  0  0
   28.6280  -17.3051   -5.1493 C   0  0  0  0  0  0  0  0  0  0  0  0
   28.0772  -18.0442   -6.1714 C   0  0  0  0  0  0  0  0  0  0  0  0
   28.2941  -19.4009   -6.2696 C   0  0  0  0  0  0  0  0  0  0  0  0
   25.1465  -21.5877   -7.5396 C   0  0  0  0  0  0  0  0  0  0  0  0
   24.0351  -20.9637   -7.3330 O   0  0  0  0  0  0  0  0  0  0  0  0
   25.4128  -22.6190   -6.6803 O   0  0  0  0  0  0  0  0  0  0  0  0
  2  1  1  0
  3  2  2  0
  4  3  1  0
  5 11  1  0
  5  4  2  0
  6  5  1  0
  7  6  1  0
  7  8  1  6
  9  7  1  0
  9 10  2  0
 11 12  2  0
 12  2  1  0
 14 13  1  1
 14 15  1  0
 16 14  1  0
 16 17  1  6
 17  9  1  0
 18 16  1  0
 19 18  2  0
 20 18  1  0
 21 20  1  0
 21 22  1  1
 22 23  1  0
 23 31  1  0
 24 23  2  0
 24 25  1  0
 25 26  1  0
 26 27  1  0
 27 28  2  0
 29 28  1  0
 30 29  2  0
 31 26  2  0
 31 30  1  0
 32 34  1  0
 32 21  1  0
 33 32  2  0
M  END
$$$$
