YVW.pdb
     RDKit          3D

 34 36  0  0  1  0  0  0  0  0999 V2000
   24.3291  -13.8063  -21.5943 O   0  0  0  0  0  0  0  0  0  0  0  0
   24.4049  -14.8525  -20.6897 C   0  0  0  0  0  0  0  0  0  0  0  0
   25.2116  -14.6722  -19.5676 C   0  0  0  0  0  0  0  0  0  0  0  0
   25.2954  -15.7099  -18.6517 C   0  0  0  0  0  0  0  0  0  0  0  0
   24.5859  -16.8754  -18.8761 C   0  0  0  0  0  0  0  0  0  0  0  0
   24.6462  -17.9952  -17.8948 C   0  0  0  0  0  0  0  0  0  0  0  0
   26.0235  -18.6025  -17.8486 C   0  0  2  0  0  0  0  0  0  0  0  0
   26.4587  -19.2037  -19.0810 N   0  0  0  0  0  0  0  0  0  0  0  0
   26.2246  -19.5420  -16.7467 C   0  0  0  0  0  0  0  0  0  0  0  0
   25.8236  -20.7570  -16.8533 O   0  0  0  0  0  0  0  0  0  0  0  0
   23.7888  -17.0575  -19.9829 C   0  0  0  0  0  0  0  0  0  0  0  0
   23.7006  -16.0304  -20.8997 C   0  0  0  0  0  0  0  0  0  0  0  0
   29.0503  -20.8877  -15.2814 C   0  0  0  0  0  0  0  0  0  0  0  0
   28.3248  -20.4052  -14.0427 C   0  0  1  0  0  0  0  0  0  0  0  0
   29.0470  -19.1714  -13.5347 C   0  0  0  0  0  0  0  0  0  0  0  0
   26.9146  -20.1143  -14.3893 C   0  0  2  0  0  0  0  0  0  0  0  0
   26.8534  -19.2081  -15.5125 N   0  0  0  0  0  0  0  0  0  0  0  0
   26.0621  -19.6532  -13.2613 C   0  0  0  0  0  0  0  0  0  0  0  0
   25.6810  -18.4506  -13.1275 O   0  0  0  0  0  0  0  0  0  0  0  0
   25.6409  -20.5845  -12.2826 N   0  0  0  0  0  0  0  0  0  0  0  0
   24.4563  -20.3247  -11.4405 C   0  0  1  0  0  0  0  0  0  0  0  0
   23.3328  -20.1674  -12.4503 C   0  0  0  0  0  0  0  0  0  0  0  0
   21.9982  -19.9901  -11.9120 C   0  0  0  0  0  0  0  0  0  0  0  0
   21.3202  -18.8349  -11.5685 C   0  0  0  0  0  0  0  0  0  0  0  0
   20.1411  -19.2070  -11.0995 N   0  0  0  0  0  0  0  0  0  0  0  0
   19.9871  -20.5654  -11.1093 C   0  0  0  0  0  0  0  0  0  0  0  0
   18.9526  -21.3932  -10.7437 C   0  0  0  0  0  0  0  0  0  0  0  0
   19.0650  -22.7531  -10.8814 C   0  0  0  0  0  0  0  0  0  0  0  0
   20.2304  -23.2712  -11.3914 C   0  0  0  0  0  0  0  0  0  0  0  0
   21.2633  -22.4374  -11.7553 C   0  0  0  0  0  0  0  0  0  0  0  0
   21.1594  -21.0705  -11.6211 C   0  0  0  0  0  0  0  0  0  0  0  0
   24.2627  -21.3033  -10.4005 C   0  0  0  0  0  0  0  0  0  0  0  0
   24.7332  -22.4928  -10.5775 O   0  0  0  0  0  0  0  0  0  0  0  0
   23.6159  -21.0954   -9.2126 O   0  0  0  0  0  0  0  0  0  0  0  0
  2  1  1  0
  3  2  2  0
  4  3  1  0
  5 11  1  0
  5  4  2  0
  6  5  1  0
  7  6  1  0
  7  8  1  6
  9  7  1  0
  9 10  2  0
 11 12  2  0
 12  2  1  0
 14 13  1  6
 14 15  1  0
 16 14  1  0
 16 17  1  6
 17  9  1  0
 18 16  1  0
 19 18  2  0
 20 18  1  0
 21 20  1  0
 21 22  1  6
 22 23  1  0
 23 31  1  0
 24 23  2  0
 24 25  1  0
 25 26  1  0
 26 27  1  0
 27 28  2  0
 29 28  1  0
 30 29  2  0
 31 26  2  0
 31 30  1  0
 32 34  1  0
 32 21  1  0
 33 32  2  0
M  END
$$$$
