YVW.pdb
     RDKit          3D

 34 36  0  0  1  0  0  0  0  0999 V2000
   18.8318  -19.9214  -19.6376 O   0  0  0  0  0  0  0  0  0  0  0  0
   19.7732  -20.2833  -18.6882 C   0  0  0  0  0  0  0  0  0  0  0  0
   20.0157  -21.6445  -18.5125 C   0  0  0  0  0  0  0  0  0  0  0  0
   20.9574  -22.0219  -17.5673 C   0  0  0  0  0  0  0  0  0  0  0  0
   21.6182  -21.0503  -16.8384 C   0  0  0  0  0  0  0  0  0  0  0  0
   22.6481  -21.4333  -15.8318 C   0  0  0  0  0  0  0  0  0  0  0  0
   24.0336  -21.3560  -16.4169 C   0  0  2  0  0  0  0  0  0  0  0  0
   24.3078  -22.3227  -17.4466 N   0  0  0  0  0  0  0  0  0  0  0  0
   25.1039  -21.3827  -15.4215 C   0  0  0  0  0  0  0  0  0  0  0  0
   25.6675  -22.4933  -15.1096 O   0  0  0  0  0  0  0  0  0  0  0  0
   21.3813  -19.7055  -17.0085 C   0  0  0  0  0  0  0  0  0  0  0  0
   20.4451  -19.3213  -17.9461 C   0  0  0  0  0  0  0  0  0  0  0  0
   28.5324  -19.3941  -12.6048 C   0  0  0  0  0  0  0  0  0  0  0  0
   27.5587  -19.2654  -13.7577 C   0  0  1  0  0  0  0  0  0  0  0  0
   28.3456  -19.4129  -15.0465 C   0  0  0  0  0  0  0  0  0  0  0  0
   26.5138  -20.3069  -13.6282 C   0  0  2  0  0  0  0  0  0  0  0  0
   25.5937  -20.2318  -14.7391 N   0  0  0  0  0  0  0  0  0  0  0  0
   25.8017  -20.3378  -12.3230 C   0  0  0  0  0  0  0  0  0  0  0  0
   24.6404  -19.8551  -12.1558 O   0  0  0  0  0  0  0  0  0  0  0  0
   26.4287  -20.9335  -11.2030 N   0  0  0  0  0  0  0  0  0  0  0  0
   25.8006  -20.8985   -9.8672 C   0  0  1  0  0  0  0  0  0  0  0  0
   26.8915  -21.4236   -8.9502 C   0  0  0  0  0  0  0  0  0  0  0  0
   26.6973  -21.2170   -7.5283 C   0  0  0  0  0  0  0  0  0  0  0  0
   25.5683  -21.3847   -6.7476 C   0  0  0  0  0  0  0  0  0  0  0  0
   25.8997  -21.0407   -5.5145 N   0  0  0  0  0  0  0  0  0  0  0  0
   27.2055  -20.6465   -5.4221 C   0  0  0  0  0  0  0  0  0  0  0  0
   27.9852  -20.2283   -4.3702 C   0  0  0  0  0  0  0  0  0  0  0  0
   29.3039  -19.9051   -4.5643 C   0  0  0  0  0  0  0  0  0  0  0  0
   29.8297  -20.0075   -5.8291 C   0  0  0  0  0  0  0  0  0  0  0  0
   29.0440  -20.4263   -6.8787 C   0  0  0  0  0  0  0  0  0  0  0  0
   27.7189  -20.7534   -6.6934 C   0  0  0  0  0  0  0  0  0  0  0  0
   25.2307  -19.6181   -9.5319 C   0  0  0  0  0  0  0  0  0  0  0  0
   25.9450  -18.5580   -9.7144 O   0  0  0  0  0  0  0  0  0  0  0  0
   23.9763  -19.4047   -9.0282 O   0  0  0  0  0  0  0  0  0  0  0  0
  2  1  1  0
  3  2  2  0
  4  3  1  0
  5 11  1  0
  5  4  2  0
  6  5  1  0
  7  6  1  0
  7  8  1  6
  9  7  1  0
  9 10  2  0
 11 12  2  0
 12  2  1  0
 14 13  1  1
 14 15  1  0
 16 14  1  0
 16 17  1  6
 17  9  1  0
 18 16  1  0
 19 18  2  0
 20 18  1  0
 21 20  1  0
 21 22  1  1
 22 23  1  0
 23 31  1  0
 24 23  2  0
 24 25  1  0
 25 26  1  0
 26 27  1  0
 27 28  2  0
 29 28  1  0
 30 29  2  0
 31 26  2  0
 31 30  1  0
 32 34  1  0
 32 21  1  0
 33 32  2  0
M  END
$$$$
