YVW.pdb
     RDKit          3D

 34 36  0  0  1  0  0  0  0  0999 V2000
   30.5614  -16.0325  -18.8848 O   0  0  0  0  0  0  0  0  0  0  0  0
   29.7015  -16.3014  -17.8327 C   0  0  0  0  0  0  0  0  0  0  0  0
   29.7215  -17.5899  -17.3019 C   0  0  0  0  0  0  0  0  0  0  0  0
   28.8679  -17.8733  -16.2466 C   0  0  0  0  0  0  0  0  0  0  0  0
   28.0348  -16.8830  -15.7595 C   0  0  0  0  0  0  0  0  0  0  0  0
   27.1240  -17.1606  -14.6133 C   0  0  0  0  0  0  0  0  0  0  0  0
   25.8621  -17.8404  -15.0752 C   0  0  2  0  0  0  0  0  0  0  0  0
   25.0274  -17.0427  -15.9336 N   0  0  0  0  0  0  0  0  0  0  0  0
   25.0567  -18.4028  -13.9925 C   0  0  0  0  0  0  0  0  0  0  0  0
   24.3166  -17.6378  -13.2746 O   0  0  0  0  0  0  0  0  0  0  0  0
   28.0116  -15.6098  -16.2811 C   0  0  0  0  0  0  0  0  0  0  0  0
   28.8570  -15.3197  -17.3319 C   0  0  0  0  0  0  0  0  0  0  0  0
   22.5298  -21.6852  -11.6358 C   0  0  0  0  0  0  0  0  0  0  0  0
   23.2420  -21.1953  -12.8793 C   0  0  1  0  0  0  0  0  0  0  0  0
   22.2204  -20.4865  -13.7487 C   0  0  0  0  0  0  0  0  0  0  0  0
   24.3470  -20.2932  -12.4813 C   0  0  2  0  0  0  0  0  0  0  0  0
   25.0238  -19.7859  -13.6523 N   0  0  0  0  0  0  0  0  0  0  0  0
   25.3039  -20.8543  -11.4908 C   0  0  0  0  0  0  0  0  0  0  0  0
   26.0580  -21.8438  -11.7396 O   0  0  0  0  0  0  0  0  0  0  0  0
   25.3973  -20.2689  -10.2058 N   0  0  0  0  0  0  0  0  0  0  0  0
   26.1889  -20.9032   -9.1329 C   0  0  1  0  0  0  0  0  0  0  0  0
   27.2674  -19.8760   -8.8356 C   0  0  0  0  0  0  0  0  0  0  0  0
   28.2999  -20.2738   -7.8986 C   0  0  0  0  0  0  0  0  0  0  0  0
   29.2949  -21.2267   -8.0177 C   0  0  0  0  0  0  0  0  0  0  0  0
   29.9651  -21.2264   -6.8778 N   0  0  0  0  0  0  0  0  0  0  0  0
   29.4696  -20.3143   -5.9881 C   0  0  0  0  0  0  0  0  0  0  0  0
   29.8402  -19.9509   -4.7154 C   0  0  0  0  0  0  0  0  0  0  0  0
   29.1605  -18.9663   -4.0449 C   0  0  0  0  0  0  0  0  0  0  0  0
   28.1033  -18.3508   -4.6697 C   0  0  0  0  0  0  0  0  0  0  0  0
   27.7364  -18.7192   -5.9441 C   0  0  0  0  0  0  0  0  0  0  0  0
   28.4132  -19.7066   -6.6253 C   0  0  0  0  0  0  0  0  0  0  0  0
   25.3935  -21.3513   -8.0179 C   0  0  0  0  0  0  0  0  0  0  0  0
   24.2104  -20.8568   -7.8659 O   0  0  0  0  0  0  0  0  0  0  0  0
   25.7728  -22.2727   -7.0799 O   0  0  0  0  0  0  0  0  0  0  0  0
  2  1  1  0
  3  2  2  0
  4  3  1  0
  5 11  1  0
  5  4  2  0
  6  5  1  0
  7  6  1  0
  7  8  1  1
  9  7  1  0
  9 10  2  0
 11 12  2  0
 12  2  1  0
 14 13  1  1
 14 15  1  0
 16 14  1  0
 16 17  1  6
 17  9  1  0
 18 16  1  0
 19 18  2  0
 20 18  1  0
 21 20  1  0
 21 22  1  1
 22 23  1  0
 23 31  1  0
 24 23  2  0
 24 25  1  0
 25 26  1  0
 26 27  1  0
 27 28  2  0
 29 28  1  0
 30 29  2  0
 31 26  2  0
 31 30  1  0
 32 34  1  0
 32 21  1  0
 33 32  2  0
M  END
$$$$
