YVW.pdb
     RDKit          3D

 34 36  0  0  1  0  0  0  0  0999 V2000
   18.0235  -17.0541  -16.0567 O   0  0  0  0  0  0  0  0  0  0  0  0
   18.9580  -17.7668  -15.3237 C   0  0  0  0  0  0  0  0  0  0  0  0
   18.5128  -18.9024  -14.6493 C   0  0  0  0  0  0  0  0  0  0  0  0
   19.4376  -19.6276  -13.9133 C   0  0  0  0  0  0  0  0  0  0  0  0
   20.7546  -19.2084  -13.8718 C   0  0  0  0  0  0  0  0  0  0  0  0
   21.7685  -19.9842  -13.1032 C   0  0  0  0  0  0  0  0  0  0  0  0
   22.7032  -20.7198  -14.0268 C   0  0  2  0  0  0  0  0  0  0  0  0
   22.0794  -21.7370  -14.8306 N   0  0  0  0  0  0  0  0  0  0  0  0
   23.8834  -21.2729  -13.3647 C   0  0  0  0  0  0  0  0  0  0  0  0
   23.8163  -22.4080  -12.7687 O   0  0  0  0  0  0  0  0  0  0  0  0
   21.1980  -18.0877  -14.5357 C   0  0  0  0  0  0  0  0  0  0  0  0
   20.2843  -17.3597  -15.2695 C   0  0  0  0  0  0  0  0  0  0  0  0
   28.5841  -21.1826  -11.9720 C   0  0  0  0  0  0  0  0  0  0  0  0
   27.5241  -20.7481  -12.9625 C   0  0  1  0  0  0  0  0  0  0  0  0
   27.7295  -21.5432  -14.2384 C   0  0  0  0  0  0  0  0  0  0  0  0
   26.1854  -20.9855  -12.3753 C   0  0  2  0  0  0  0  0  0  0  0  0
   25.1545  -20.6306  -13.3227 N   0  0  0  0  0  0  0  0  0  0  0  0
   25.9517  -20.3611  -11.0459 C   0  0  0  0  0  0  0  0  0  0  0  0
   25.5575  -19.1638  -10.9026 O   0  0  0  0  0  0  0  0  0  0  0  0
   26.1685  -21.1222   -9.8727 N   0  0  0  0  0  0  0  0  0  0  0  0
   26.2006  -20.4828   -8.5422 C   0  0  1  0  0  0  0  0  0  0  0  0
   26.2963  -21.6598   -7.5872 C   0  0  0  0  0  0  0  0  0  0  0  0
   26.4835  -21.3424   -6.1848 C   0  0  0  0  0  0  0  0  0  0  0  0
   25.5781  -21.3470   -5.1397 C   0  0  0  0  0  0  0  0  0  0  0  0
   26.2355  -20.9570   -4.0606 N   0  0  0  0  0  0  0  0  0  0  0  0
   27.5493  -20.6875   -4.3260 C   0  0  0  0  0  0  0  0  0  0  0  0
   28.5992  -20.2798   -3.5383 C   0  0  0  0  0  0  0  0  0  0  0  0
   29.8476  -20.1009   -4.0772 C   0  0  0  0  0  0  0  0  0  0  0  0
   30.0280  -20.3370   -5.4182 C   0  0  0  0  0  0  0  0  0  0  0  0
   28.9728  -20.7447   -6.2023 C   0  0  0  0  0  0  0  0  0  0  0  0
   27.7157  -20.9274   -5.6699 C   0  0  0  0  0  0  0  0  0  0  0  0
   27.2096  -19.4615   -8.4178 C   0  0  0  0  0  0  0  0  0  0  0  0
   26.8997  -18.3571   -7.8248 O   0  0  0  0  0  0  0  0  0  0  0  0
   28.4971  -19.5449   -8.8742 O   0  0  0  0  0  0  0  0  0  0  0  0
  2  1  1  0
  3  2  2  0
  4  3  1  0
  5 11  1  0
  5  4  2  0
  6  5  1  0
  7  6  1  0
  7  8  1  1
  9  7  1  0
  9 10  2  0
 11 12  2  0
 12  2  1  0
 14 13  1  1
 14 15  1  0
 16 14  1  0
 16 17  1  6
 17  9  1  0
 18 16  1  0
 19 18  2  0
 20 18  1  0
 21 20  1  0
 21 22  1  1
 22 23  1  0
 23 31  1  0
 24 23  2  0
 24 25  1  0
 25 26  1  0
 26 27  1  0
 27 28  2  0
 29 28  1  0
 30 29  2  0
 31 26  2  0
 31 30  1  0
 32 34  1  0
 32 21  1  0
 33 32  2  0
M  END
$$$$
