YVW.pdb
     RDKit          3D

 34 36  0  0  1  0  0  0  0  0999 V2000
   24.7886  -13.3631  -19.7965 O   0  0  0  0  0  0  0  0  0  0  0  0
   24.4539  -14.2507  -18.7873 C   0  0  0  0  0  0  0  0  0  0  0  0
   25.0825  -15.4946  -18.7934 C   0  0  0  0  0  0  0  0  0  0  0  0
   24.7594  -16.3930  -17.7877 C   0  0  0  0  0  0  0  0  0  0  0  0
   23.8367  -16.0325  -16.8229 C   0  0  0  0  0  0  0  0  0  0  0  0
   23.4899  -16.9752  -15.7222 C   0  0  0  0  0  0  0  0  0  0  0  0
   22.8950  -18.2477  -16.2651 C   0  0  2  0  0  0  0  0  0  0  0  0
   21.7132  -18.0671  -17.0655 N   0  0  0  0  0  0  0  0  0  0  0  0
   22.6487  -19.2713  -15.2507 C   0  0  0  0  0  0  0  0  0  0  0  0
   21.5992  -19.2100  -14.5138 O   0  0  0  0  0  0  0  0  0  0  0  0
   23.2136  -14.8057  -16.8137 C   0  0  0  0  0  0  0  0  0  0  0  0
   23.5285  -13.9063  -17.8113 C   0  0  0  0  0  0  0  0  0  0  0  0
   22.7987  -23.6842  -13.4367 C   0  0  0  0  0  0  0  0  0  0  0  0
   23.0468  -22.6871  -14.5492 C   0  0  1  0  0  0  0  0  0  0  0  0
   21.8384  -22.7072  -15.4665 C   0  0  0  0  0  0  0  0  0  0  0  0
   23.2676  -21.3470  -13.9587 C   0  0  2  0  0  0  0  0  0  0  0  0
   23.5122  -20.3766  -15.0002 N   0  0  0  0  0  0  0  0  0  0  0  0
   24.3005  -21.2824  -12.8907 C   0  0  0  0  0  0  0  0  0  0  0  0
   25.5462  -21.2728  -13.1313 O   0  0  0  0  0  0  0  0  0  0  0  0
   23.8967  -21.2231  -11.5357 N   0  0  0  0  0  0  0  0  0  0  0  0
   24.8821  -21.3141  -10.4400 C   0  0  1  0  0  0  0  0  0  0  0  0
   25.8592  -20.1935  -10.7500 C   0  0  0  0  0  0  0  0  0  0  0  0
   27.2115  -20.3573  -10.2532 C   0  0  0  0  0  0  0  0  0  0  0  0
   28.2848  -21.0409  -10.7944 C   0  0  0  0  0  0  0  0  0  0  0  0
   29.2903  -20.9106   -9.9454 N   0  0  0  0  0  0  0  0  0  0  0  0
   28.9479  -20.1677   -8.8500 C   0  0  0  0  0  0  0  0  0  0  0  0
   29.6470  -19.7603   -7.7390 C   0  0  0  0  0  0  0  0  0  0  0  0
   29.0450  -18.9853   -6.7810 C   0  0  0  0  0  0  0  0  0  0  0  0
   27.7309  -18.6243   -6.9534 C   0  0  0  0  0  0  0  0  0  0  0  0
   27.0356  -19.0357   -8.0677 C   0  0  0  0  0  0  0  0  0  0  0  0
   27.6319  -19.8138   -9.0353 C   0  0  0  0  0  0  0  0  0  0  0  0
   24.2866  -21.3122   -9.1277 C   0  0  0  0  0  0  0  0  0  0  0  0
   23.2468  -20.5744   -8.9232 O   0  0  0  0  0  0  0  0  0  0  0  0
   24.7204  -22.0326   -8.0481 O   0  0  0  0  0  0  0  0  0  0  0  0
  2  1  1  0
  3  2  2  0
  4  3  1  0
  5 11  1  0
  5  4  2  0
  6  5  1  0
  7  6  1  0
  7  8  1  1
  9  7  1  0
  9 10  2  0
 11 12  2  0
 12  2  1  0
 14 13  1  1
 14 15  1  0
 16 14  1  0
 16 17  1  6
 17  9  1  0
 18 16  1  0
 19 18  2  0
 20 18  1  0
 21 20  1  0
 21 22  1  1
 22 23  1  0
 23 31  1  0
 24 23  2  0
 24 25  1  0
 25 26  1  0
 26 27  1  0
 27 28  2  0
 29 28  1  0
 30 29  2  0
 31 26  2  0
 31 30  1  0
 32 34  1  0
 32 21  1  0
 33 32  2  0
M  END
$$$$
