YVW.pdb
     RDKit          3D

 34 36  0  0  1  0  0  0  0  0999 V2000
   21.5806  -25.1293  -15.4500 O   0  0  0  0  0  0  0  0  0  0  0  0
   22.9033  -24.8249  -15.7265 C   0  0  0  0  0  0  0  0  0  0  0  0
   23.7287  -24.5150  -14.6472 C   0  0  0  0  0  0  0  0  0  0  0  0
   25.0561  -24.2106  -14.9082 C   0  0  0  0  0  0  0  0  0  0  0  0
   25.5141  -24.2239  -16.2129 C   0  0  0  0  0  0  0  0  0  0  0  0
   26.9415  -23.9193  -16.5136 C   0  0  0  0  0  0  0  0  0  0  0  0
   27.7896  -25.1612  -16.4347 C   0  0  2  0  0  0  0  0  0  0  0  0
   29.1693  -24.9727  -16.7962 N   0  0  0  0  0  0  0  0  0  0  0  0
   27.2431  -26.3042  -17.1642 C   0  0  0  0  0  0  0  0  0  0  0  0
   27.4072  -26.3974  -18.4342 O   0  0  0  0  0  0  0  0  0  0  0  0
   24.7023  -24.5288  -17.2812 C   0  0  0  0  0  0  0  0  0  0  0  0
   23.3800  -24.8318  -17.0305 C   0  0  0  0  0  0  0  0  0  0  0  0
   25.7264  -30.9332  -17.2913 C   0  0  0  0  0  0  0  0  0  0  0  0
   26.3740  -29.7626  -16.5814 C   0  0  1  0  0  0  0  0  0  0  0  0
   27.8713  -30.0066  -16.5580 C   0  0  0  0  0  0  0  0  0  0  0  0
   26.0310  -28.5120  -17.2966 C   0  0  2  0  0  0  0  0  0  0  0  0
   26.5122  -27.3670  -16.5591 N   0  0  0  0  0  0  0  0  0  0  0  0
   24.6000  -28.3640  -17.6733 C   0  0  0  0  0  0  0  0  0  0  0  0
   23.6537  -28.4035  -16.8292 O   0  0  0  0  0  0  0  0  0  0  0  0
   24.2558  -28.1638  -19.0313 N   0  0  0  0  0  0  0  0  0  0  0  0
   22.8493  -28.2101  -19.4779 C   0  0  1  0  0  0  0  0  0  0  0  0
   22.7736  -27.1090  -20.5211 C   0  0  0  0  0  0  0  0  0  0  0  0
   21.4705  -26.8591  -21.1058 C   0  0  0  0  0  0  0  0  0  0  0  0
   20.3520  -26.2501  -20.5671 C   0  0  0  0  0  0  0  0  0  0  0  0
   19.4095  -26.2899  -21.4938 N   0  0  0  0  0  0  0  0  0  0  0  0
   19.8382  -26.8993  -22.6401 C   0  0  0  0  0  0  0  0  0  0  0  0
   19.2343  -27.1514  -23.8487 C   0  0  0  0  0  0  0  0  0  0  0  0
   19.9229  -27.7783  -24.8556 C   0  0  0  0  0  0  0  0  0  0  0  0
   21.2267  -28.1488  -24.6328 C   0  0  0  0  0  0  0  0  0  0  0  0
   21.8261  -27.8942  -23.4202 C   0  0  0  0  0  0  0  0  0  0  0  0
   21.1427  -27.2649  -22.4033 C   0  0  0  0  0  0  0  0  0  0  0  0
   22.4172  -29.5228  -19.8864 C   0  0  0  0  0  0  0  0  0  0  0  0
   23.2951  -30.3399  -20.3650 O   0  0  0  0  0  0  0  0  0  0  0  0
   21.1387  -30.0055  -19.8155 O   0  0  0  0  0  0  0  0  0  0  0  0
  2  1  1  0
  3  2  2  0
  4  3  1  0
  5 11  1  0
  5  4  2  0
  6  5  1  0
  7  6  1  0
  7  8  1  6
  9  7  1  0
  9 10  2  0
 11 12  2  0
 12  2  1  0
 14 13  1  6
 14 15  1  0
 16 14  1  0
 16 17  1  1
 17  9  1  0
 18 16  1  0
 19 18  2  0
 20 18  1  0
 21 20  1  0
 21 22  1  6
 22 23  1  0
 23 31  1  0
 24 23  2  0
 24 25  1  0
 25 26  1  0
 26 27  1  0
 27 28  2  0
 29 28  1  0
 30 29  2  0
 31 26  2  0
 31 30  1  0
 32 34  1  0
 32 21  1  0
 33 32  2  0
M  END
$$$$
