YVW.pdb
     RDKit          3D

 34 36  0  0  1  0  0  0  0  0999 V2000
   17.9962  -16.9968  -15.1601 O   0  0  0  0  0  0  0  0  0  0  0  0
   19.1297  -17.6911  -14.7709 C   0  0  0  0  0  0  0  0  0  0  0  0
   20.2117  -16.9441  -14.3087 C   0  0  0  0  0  0  0  0  0  0  0  0
   21.3527  -17.6256  -13.9132 C   0  0  0  0  0  0  0  0  0  0  0  0
   21.3818  -19.0061  -13.9878 C   0  0  0  0  0  0  0  0  0  0  0  0
   22.5905  -19.7592  -13.5492 C   0  0  0  0  0  0  0  0  0  0  0  0
   23.6820  -19.6835  -14.5839 C   0  0  2  0  0  0  0  0  0  0  0  0
   23.2362  -19.8399  -15.9428 N   0  0  0  0  0  0  0  0  0  0  0  0
   24.8076  -20.5813  -14.3306 C   0  0  0  0  0  0  0  0  0  0  0  0
   25.3822  -21.1868  -15.3060 O   0  0  0  0  0  0  0  0  0  0  0  0
   20.3159  -19.7472  -14.4439 C   0  0  0  0  0  0  0  0  0  0  0  0
   19.1772  -19.0770  -14.8405 C   0  0  0  0  0  0  0  0  0  0  0  0
   29.0509  -20.5461  -13.2399 C   0  0  0  0  0  0  0  0  0  0  0  0
   27.6022  -20.2207  -13.5379 C   0  0  1  0  0  0  0  0  0  0  0  0
   27.4073  -20.3104  -15.0399 C   0  0  0  0  0  0  0  0  0  0  0  0
   26.7319  -21.1739  -12.8118 C   0  0  2  0  0  0  0  0  0  0  0  0
   25.3419  -20.8529  -13.0380 N   0  0  0  0  0  0  0  0  0  0  0  0
   27.0321  -21.3371  -11.3644 C   0  0  0  0  0  0  0  0  0  0  0  0
   27.9114  -22.1393  -10.9253 O   0  0  0  0  0  0  0  0  0  0  0  0
   26.3183  -20.5673  -10.4154 N   0  0  0  0  0  0  0  0  0  0  0  0
   26.5770  -20.7066   -8.9685 C   0  0  1  0  0  0  0  0  0  0  0  0
   27.5847  -19.6069   -8.6825 C   0  0  0  0  0  0  0  0  0  0  0  0
   27.7706  -19.2446   -7.2909 C   0  0  0  0  0  0  0  0  0  0  0  0
   27.2235  -18.2078   -6.5574 C   0  0  0  0  0  0  0  0  0  0  0  0
   27.7274  -18.2928   -5.3378 N   0  0  0  0  0  0  0  0  0  0  0  0
   28.5934  -19.3428   -5.2093 C   0  0  0  0  0  0  0  0  0  0  0  0
   29.3278  -19.8271   -4.1532 C   0  0  0  0  0  0  0  0  0  0  0  0
   30.1192  -20.9370   -4.3042 C   0  0  0  0  0  0  0  0  0  0  0  0
   30.1636  -21.5546   -5.5304 C   0  0  0  0  0  0  0  0  0  0  0  0
   29.4265  -21.0648   -6.5845 C   0  0  0  0  0  0  0  0  0  0  0  0
   28.6286  -19.9511   -6.4422 C   0  0  0  0  0  0  0  0  0  0  0  0
   25.3793  -20.7145   -8.1671 C   0  0  0  0  0  0  0  0  0  0  0  0
   24.2881  -20.2570   -8.6841 O   0  0  0  0  0  0  0  0  0  0  0  0
   25.2767  -21.1710   -6.8811 O   0  0  0  0  0  0  0  0  0  0  0  0
  2  1  1  0
  3  2  2  0
  4  3  1  0
  5 11  1  0
  5  4  2  0
  6  5  1  0
  7  6  1  0
  7  8  1  6
  9  7  1  0
  9 10  2  0
 11 12  2  0
 12  2  1  0
 14 13  1  6
 14 15  1  0
 16 14  1  0
 16 17  1  1
 17  9  1  0
 18 16  1  0
 19 18  2  0
 20 18  1  0
 21 20  1  0
 21 22  1  1
 22 23  1  0
 23 31  1  0
 24 23  2  0
 24 25  1  0
 25 26  1  0
 26 27  1  0
 27 28  2  0
 29 28  1  0
 30 29  2  0
 31 26  2  0
 31 30  1  0
 32 34  1  0
 32 21  1  0
 33 32  2  0
M  END
$$$$
