YVW.pdb
     RDKit          3D

 34 36  0  0  1  0  0  0  0  0999 V2000
   19.7141  -15.9439  -17.0764 O   0  0  0  0  0  0  0  0  0  0  0  0
   20.5376  -16.8551  -16.4359 C   0  0  0  0  0  0  0  0  0  0  0  0
   21.8430  -16.4539  -16.1576 C   0  0  0  0  0  0  0  0  0  0  0  0
   22.6784  -17.3545  -15.5143 C   0  0  0  0  0  0  0  0  0  0  0  0
   22.1978  -18.6053  -15.1731 C   0  0  0  0  0  0  0  0  0  0  0  0
   23.0726  -19.5811  -14.4637 C   0  0  0  0  0  0  0  0  0  0  0  0
   24.2103  -20.0288  -15.3430 C   0  0  2  0  0  0  0  0  0  0  0  0
   23.8112  -20.7275  -16.5357 N   0  0  0  0  0  0  0  0  0  0  0  0
   25.2374  -20.7991  -14.6437 C   0  0  0  0  0  0  0  0  0  0  0  0
   25.1118  -22.0698  -14.5100 O   0  0  0  0  0  0  0  0  0  0  0  0
   20.9099  -19.0054  -15.4465 C   0  0  0  0  0  0  0  0  0  0  0  0
   20.0724  -18.1159  -16.0872 C   0  0  0  0  0  0  0  0  0  0  0  0
   29.1493  -20.7364  -14.3029 C   0  0  0  0  0  0  0  0  0  0  0  0
   28.5331  -20.4058  -12.9596 C   0  0  1  0  0  0  0  0  0  0  0  0
   28.6745  -18.9111  -12.7409 C   0  0  0  0  0  0  0  0  0  0  0  0
   27.1143  -20.8305  -12.9594 C   0  0  2  0  0  0  0  0  0  0  0  0
   26.4145  -20.2342  -14.0734 N   0  0  0  0  0  0  0  0  0  0  0  0
   26.3872  -20.6268  -11.6781 C   0  0  0  0  0  0  0  0  0  0  0  0
   25.5758  -19.6705  -11.4865 O   0  0  0  0  0  0  0  0  0  0  0  0
   26.5916  -21.5336  -10.6111 N   0  0  0  0  0  0  0  0  0  0  0  0
   25.9828  -21.3038   -9.2858 C   0  0  1  0  0  0  0  0  0  0  0  0
   27.1540  -21.4475   -8.3296 C   0  0  0  0  0  0  0  0  0  0  0  0
   27.4753  -20.2882   -7.5203 C   0  0  0  0  0  0  0  0  0  0  0  0
   26.9565  -19.0067   -7.5501 C   0  0  0  0  0  0  0  0  0  0  0  0
   27.5994  -18.3107   -6.6278 N   0  0  0  0  0  0  0  0  0  0  0  0
   28.5332  -19.0630   -5.9711 C   0  0  0  0  0  0  0  0  0  0  0  0
   29.4090  -18.7854   -4.9488 C   0  0  0  0  0  0  0  0  0  0  0  0
   30.2405  -19.7596   -4.4583 C   0  0  0  0  0  0  0  0  0  0  0  0
   30.1808  -21.0170   -5.0080 C   0  0  0  0  0  0  0  0  0  0  0  0
   29.3021  -21.2891   -6.0319 C   0  0  0  0  0  0  0  0  0  0  0  0
   28.4630  -20.3173   -6.5307 C   0  0  0  0  0  0  0  0  0  0  0  0
   25.2239  -20.0815   -9.2044 C   0  0  0  0  0  0  0  0  0  0  0  0
   24.0810  -20.1039   -8.6039 O   0  0  0  0  0  0  0  0  0  0  0  0
   25.6011  -18.8670   -9.7100 O   0  0  0  0  0  0  0  0  0  0  0  0
  2  1  1  0
  3  2  2  0
  4  3  1  0
  5 11  1  0
  5  4  2  0
  6  5  1  0
  7  6  1  0
  7  8  1  6
  9  7  1  0
  9 10  2  0
 11 12  2  0
 12  2  1  0
 14 13  1  6
 14 15  1  0
 16 14  1  0
 16 17  1  6
 17  9  1  0
 18 16  1  0
 19 18  2  0
 20 18  1  0
 21 20  1  0
 21 22  1  1
 22 23  1  0
 23 31  1  0
 24 23  2  0
 24 25  1  0
 25 26  1  0
 26 27  1  0
 27 28  2  0
 29 28  1  0
 30 29  2  0
 31 26  2  0
 31 30  1  0
 32 34  1  0
 32 21  1  0
 33 32  2  0
M  END
$$$$
