YVW.pdb
     RDKit          3D

 34 36  0  0  1  0  0  0  0  0999 V2000
   31.2519  -16.3467  -18.7402 O   0  0  0  0  0  0  0  0  0  0  0  0
   30.2869  -16.5598  -17.7697 C   0  0  0  0  0  0  0  0  0  0  0  0
   30.3246  -17.7724  -17.0837 C   0  0  0  0  0  0  0  0  0  0  0  0
   29.3664  -17.9990  -16.1074 C   0  0  0  0  0  0  0  0  0  0  0  0
   28.4162  -17.0285  -15.8474 C   0  0  0  0  0  0  0  0  0  0  0  0
   27.3897  -17.2434  -14.7888 C   0  0  0  0  0  0  0  0  0  0  0  0
   26.3112  -18.1821  -15.2615 C   0  0  2  0  0  0  0  0  0  0  0  0
   25.5765  -17.7259  -16.4113 N   0  0  0  0  0  0  0  0  0  0  0  0
   25.3776  -18.5937  -14.2145 C   0  0  0  0  0  0  0  0  0  0  0  0
   24.1582  -18.1929  -14.2433 O   0  0  0  0  0  0  0  0  0  0  0  0
   28.3753  -15.8303  -16.5226 C   0  0  0  0  0  0  0  0  0  0  0  0
   29.3244  -15.5973  -17.4964 C   0  0  0  0  0  0  0  0  0  0  0  0
   22.6114  -20.9724  -11.7548 C   0  0  0  0  0  0  0  0  0  0  0  0
   23.6028  -20.5180  -12.8056 C   0  0  1  0  0  0  0  0  0  0  0  0
   22.8866  -19.5516  -13.7303 C   0  0  0  0  0  0  0  0  0  0  0  0
   24.7617  -19.8835  -12.1365 C   0  0  2  0  0  0  0  0  0  0  0  0
   25.7220  -19.4365  -13.1185 N   0  0  0  0  0  0  0  0  0  0  0  0
   25.4029  -20.6931  -11.0664 C   0  0  0  0  0  0  0  0  0  0  0  0
   25.7851  -21.8905  -11.2386 O   0  0  0  0  0  0  0  0  0  0  0  0
   25.6104  -20.1185   -9.7900 N   0  0  0  0  0  0  0  0  0  0  0  0
   26.2668  -20.8784   -8.7075 C   0  0  1  0  0  0  0  0  0  0  0  0
   27.2375  -19.8748   -8.1100 C   0  0  0  0  0  0  0  0  0  0  0  0
   28.0638  -20.3456   -7.0155 C   0  0  0  0  0  0  0  0  0  0  0  0
   28.8218  -21.4963   -6.8999 C   0  0  0  0  0  0  0  0  0  0  0  0
   29.3695  -21.4759   -5.6964 N   0  0  0  0  0  0  0  0  0  0  0  0
   29.0174  -20.3608   -4.9881 C   0  0  0  0  0  0  0  0  0  0  0  0
   29.3453  -19.9064   -3.7331 C   0  0  0  0  0  0  0  0  0  0  0  0
   28.8507  -18.7133   -3.2715 C   0  0  0  0  0  0  0  0  0  0  0  0
   28.0221  -17.9821   -4.0873 C   0  0  0  0  0  0  0  0  0  0  0  0
   27.6966  -18.4425   -5.3429 C   0  0  0  0  0  0  0  0  0  0  0  0
   28.1888  -19.6391   -5.8151 C   0  0  0  0  0  0  0  0  0  0  0  0
   25.3398  -21.5055   -7.7996 C   0  0  0  0  0  0  0  0  0  0  0  0
   24.1132  -21.1022   -7.7943 O   0  0  0  0  0  0  0  0  0  0  0  0
   25.6336  -22.5124   -6.9206 O   0  0  0  0  0  0  0  0  0  0  0  0
  2  1  1  0
  3  2  2  0
  4  3  1  0
  5 11  1  0
  5  4  2  0
  6  5  1  0
  7  6  1  0
  7  8  1  6
  9  7  1  0
  9 10  2  0
 11 12  2  0
 12  2  1  0
 14 13  1  1
 14 15  1  0
 16 14  1  0
 16 17  1  6
 17  9  1  0
 18 16  1  0
 19 18  2  0
 20 18  1  0
 21 20  1  0
 21 22  1  1
 22 23  1  0
 23 31  1  0
 24 23  2  0
 24 25  1  0
 25 26  1  0
 26 27  1  0
 27 28  2  0
 29 28  1  0
 30 29  2  0
 31 26  2  0
 31 30  1  0
 32 34  1  0
 32 21  1  0
 33 32  2  0
M  END
$$$$
