YVW.pdb
     RDKit          3D

 34 36  0  0  1  0  0  0  0  0999 V2000
   29.1697  -28.7318  -25.4388 O   0  0  0  0  0  0  0  0  0  0  0  0
   28.9927  -29.5100  -24.3068 C   0  0  0  0  0  0  0  0  0  0  0  0
   29.5229  -30.7989  -24.3258 C   0  0  0  0  0  0  0  0  0  0  0  0
   29.3559  -31.5890  -23.1986 C   0  0  0  0  0  0  0  0  0  0  0  0
   28.6783  -31.0813  -22.1053 C   0  0  0  0  0  0  0  0  0  0  0  0
   28.5048  -31.9064  -20.8766 C   0  0  0  0  0  0  0  0  0  0  0  0
   29.4737  -31.4893  -19.8018 C   0  0  2  0  0  0  0  0  0  0  0  0
   30.8615  -31.6125  -20.1606 N   0  0  0  0  0  0  0  0  0  0  0  0
   29.2427  -32.1309  -18.5086 C   0  0  0  0  0  0  0  0  0  0  0  0
   30.2334  -32.5685  -17.8193 O   0  0  0  0  0  0  0  0  0  0  0  0
   28.1530  -29.8097  -22.0827 C   0  0  0  0  0  0  0  0  0  0  0  0
   28.3138  -29.0173  -23.2005 C   0  0  0  0  0  0  0  0  0  0  0  0
   28.2595  -32.8167  -14.2445 C   0  0  0  0  0  0  0  0  0  0  0  0
   28.5465  -32.2099  -15.6020 C   0  0  1  0  0  0  0  0  0  0  0  0
   30.0388  -32.3206  -15.8522 C   0  0  0  0  0  0  0  0  0  0  0  0
   27.7608  -32.9296  -16.6306 C   0  0  2  0  0  0  0  0  0  0  0  0
   27.9565  -32.3201  -17.9255 N   0  0  0  0  0  0  0  0  0  0  0  0
   26.3181  -33.1128  -16.3194 C   0  0  0  0  0  0  0  0  0  0  0  0
   25.4350  -32.2431  -16.5903 O   0  0  0  0  0  0  0  0  0  0  0  0
   25.8878  -34.3083  -15.6964 N   0  0  0  0  0  0  0  0  0  0  0  0
   24.4817  -34.4924  -15.2853 C   0  0  1  0  0  0  0  0  0  0  0  0
   23.8984  -35.3487  -16.3957 C   0  0  0  0  0  0  0  0  0  0  0  0
   22.4891  -35.6732  -16.2910 C   0  0  0  0  0  0  0  0  0  0  0  0
   21.4209  -34.8935  -15.8870 C   0  0  0  0  0  0  0  0  0  0  0  0
   20.3441  -35.6589  -15.9432 N   0  0  0  0  0  0  0  0  0  0  0  0
   20.6330  -36.9257  -16.3684 C   0  0  0  0  0  0  0  0  0  0  0  0
   19.8570  -38.0373  -16.5946 C   0  0  0  0  0  0  0  0  0  0  0  0
   20.4213  -39.2014  -17.0501 C   0  0  0  0  0  0  0  0  0  0  0  0
   21.7758  -39.2345  -17.2757 C   0  0  0  0  0  0  0  0  0  0  0  0
   22.5480  -38.1184  -17.0469 C   0  0  0  0  0  0  0  0  0  0  0  0
   21.9902  -36.9449  -16.5899 C   0  0  0  0  0  0  0  0  0  0  0  0
   24.3347  -34.9855  -13.9392 C   0  0  0  0  0  0  0  0  0  0  0  0
   25.1705  -35.8725  -13.5125 O   0  0  0  0  0  0  0  0  0  0  0  0
   23.3759  -34.5988  -13.0426 O   0  0  0  0  0  0  0  0  0  0  0  0
  2  1  1  0
  3  2  2  0
  4  3  1  0
  5 11  1  0
  5  4  2  0
  6  5  1  0
  7  6  1  0
  7  8  1  6
  9  7  1  0
  9 10  2  0
 11 12  2  0
 12  2  1  0
 14 13  1  1
 14 15  1  0
 16 14  1  0
 16 17  1  6
 17  9  1  0
 18 16  1  0
 19 18  2  0
 20 18  1  0
 21 20  1  0
 21 22  1  6
 22 23  1  0
 23 31  1  0
 24 23  2  0
 24 25  1  0
 25 26  1  0
 26 27  1  0
 27 28  2  0
 29 28  1  0
 30 29  2  0
 31 26  2  0
 31 30  1  0
 32 34  1  0
 32 21  1  0
 33 32  2  0
M  END
$$$$
