LQR.pdb
     RDKit          3D

 29 28  0  0  1  0  0  0  0  0999 V2000
    6.7420  -11.5169   27.2031 C   0  0  0  0  0  0  0  0  0  0  0  0
    5.9584  -11.6765   25.8845 C   0  0  2  0  0  0  0  0  0  0  0  0
    4.6790  -10.8882   25.9981 C   0  0  0  0  0  0  0  0  0  0  0  0
    5.7127  -13.1374   25.6072 C   0  0  0  0  0  0  0  0  0  0  0  0
    6.9240  -13.9050   25.3565 C   0  0  2  0  0  0  0  0  0  0  0  0
    8.0918  -13.0679   25.6832 N   0  0  0  0  0  0  0  0  0  0  0  0
    7.1604  -14.5875   24.1189 C   0  0  0  0  0  0  0  0  0  0  0  0
    6.5416  -15.6696   23.8817 O   0  0  0  0  0  0  0  0  0  0  0  0
    8.3122  -12.6596   18.3706 N   0  0  0  0  0  0  0  0  0  0  0  0
    8.6290  -14.0419   18.2518 C   0  0  0  0  0  0  0  0  0  0  0  0
    9.0708  -14.4111   17.1340 O   0  0  0  0  0  0  0  0  0  0  0  0
    8.4417  -14.9867   19.3993 C   0  0  0  0  0  0  0  0  0  0  0  0
    8.4306  -14.1631   20.6415 C   0  0  0  0  0  0  0  0  0  0  0  0
    8.2979  -14.9960   21.9133 C   0  0  2  0  0  0  0  0  0  0  0  0
    8.0479  -14.1842   23.0611 N   0  0  0  0  0  0  0  0  0  0  0  0
    9.5612  -15.7934   22.0020 C   0  0  0  0  0  0  0  0  0  0  0  0
   10.6538  -15.2202   22.3251 O   0  0  0  0  0  0  0  0  0  0  0  0
   13.4011  -18.6956   26.6255 N   0  0  0  0  0  0  0  0  0  0  0  0
   12.2074  -19.0610   27.3454 C   0  0  0  0  0  0  0  0  0  0  0  0
   12.2077  -19.0050   28.6195 N   0  0  0  0  0  0  0  0  0  0  0  0
   11.0566  -19.4750   26.6267 N   0  0  0  0  0  0  0  0  0  0  0  0
   11.2041  -20.1099   25.3454 C   0  0  0  0  0  0  0  0  0  0  0  0
   11.4102  -19.1529   24.2492 C   0  0  0  0  0  0  0  0  0  0  0  0
   10.5396  -18.9749   23.1049 C   0  0  0  0  0  0  0  0  0  0  0  0
   10.7637  -18.0493   22.0176 C   0  0  2  0  0  0  0  0  0  0  0  0
    9.6123  -17.1711   21.7433 N   0  0  0  0  0  0  0  0  0  0  0  0
   11.4839  -18.3851   20.8079 C   0  0  0  0  0  0  0  0  0  0  0  0
   11.2637  -19.2229   19.7731 O   0  0  0  0  0  0  0  0  0  0  0  0
   12.6163  -17.7185   20.6724 O   0  0  0  0  0  0  0  0  0  0  0  0
  2  1  1  1
  2  4  1  0
  3  2  1  0
  4  5  1  0
  5  6  1  6
  5  7  1  0
  7  8  2  0
  7 15  1  0
 10 12  1  0
 10  9  1  0
 11 10  2  0
 14 13  1  6
 13 12  1  0
 14 16  1  0
 15 14  1  0
 16 26  1  0
 16 17  2  0
 19 18  1  0
 20 19  2  0
 21 19  1  0
 21 22  1  0
 22 23  1  0
 23 24  1  0
 25 24  1  6
 25 27  1  0
 26 25  1  0
 27 28  1  0
 29 27  2  0
M  END
$$$$
