LQR.pdb
     RDKit          3D

 29 28  0  0  1  0  0  0  0  0999 V2000
    7.4062  -13.7946   20.7720 C   0  0  0  0  0  0  0  0  0  0  0  0
    8.2624  -13.3884   19.5555 C   0  0  2  0  0  0  0  0  0  0  0  0
    7.7038  -12.1067   18.9927 C   0  0  0  0  0  0  0  0  0  0  0  0
    8.2771  -14.5044   18.5427 C   0  0  0  0  0  0  0  0  0  0  0  0
    8.9364  -15.7168   19.0062 C   0  0  2  0  0  0  0  0  0  0  0  0
    8.3411  -16.1176   20.2933 N   0  0  0  0  0  0  0  0  0  0  0  0
   10.3622  -15.8356   19.0851 C   0  0  0  0  0  0  0  0  0  0  0  0
   10.9740  -16.5268   18.2144 O   0  0  0  0  0  0  0  0  0  0  0  0
   14.3396  -13.4999   17.4284 N   0  0  0  0  0  0  0  0  0  0  0  0
   15.2868  -13.9376   18.3961 C   0  0  0  0  0  0  0  0  0  0  0  0
   16.4790  -14.0140   18.0038 O   0  0  0  0  0  0  0  0  0  0  0  0
   14.8720  -14.2822   19.7938 C   0  0  0  0  0  0  0  0  0  0  0  0
   13.3927  -14.1122   19.8613 C   0  0  0  0  0  0  0  0  0  0  0  0
   12.6453  -15.4281   20.0581 C   0  0  2  0  0  0  0  0  0  0  0  0
   11.2295  -15.2431   20.0680 N   0  0  0  0  0  0  0  0  0  0  0  0
   13.1867  -16.0089   21.3266 C   0  0  0  0  0  0  0  0  0  0  0  0
   12.5913  -15.7873   22.4326 O   0  0  0  0  0  0  0  0  0  0  0  0
   12.1492  -22.1941   24.2435 N   0  0  0  0  0  0  0  0  0  0  0  0
   13.4163  -22.8296   24.5030 C   0  0  0  0  0  0  0  0  0  0  0  0
   13.5383  -23.5783   25.5281 N   0  0  0  0  0  0  0  0  0  0  0  0
   14.5021  -22.6121   23.6165 N   0  0  0  0  0  0  0  0  0  0  0  0
   14.3578  -21.6916   22.5217 C   0  0  0  0  0  0  0  0  0  0  0  0
   14.5805  -20.2925   22.9131 C   0  0  0  0  0  0  0  0  0  0  0  0
   14.5433  -19.1482   22.0254 C   0  0  0  0  0  0  0  0  0  0  0  0
   14.6768  -17.7675   22.4321 C   0  0  2  0  0  0  0  0  0  0  0  0
   14.3416  -16.8039   21.3685 N   0  0  0  0  0  0  0  0  0  0  0  0
   15.7367  -17.2775   23.2871 C   0  0  0  0  0  0  0  0  0  0  0  0
   16.1248  -17.5252   24.5557 O   0  0  0  0  0  0  0  0  0  0  0  0
   16.5134  -16.3864   22.6973 O   0  0  0  0  0  0  0  0  0  0  0  0
  2  1  1  1
  2  4  1  0
  3  2  1  0
  4  5  1  0
  5  6  1  1
  5  7  1  0
  7  8  2  0
  7 15  1  0
 10 12  1  0
 10  9  1  0
 11 10  2  0
 14 13  1  1
 13 12  1  0
 14 16  1  0
 15 14  1  0
 16 26  1  0
 16 17  2  0
 19 18  1  0
 20 19  2  0
 21 19  1  0
 21 22  1  0
 22 23  1  0
 23 24  1  0
 25 24  1  6
 25 27  1  0
 26 25  1  0
 27 28  1  0
 29 27  2  0
M  END
$$$$
