LQR.pdb
     RDKit          3D

 29 28  0  0  1  0  0  0  0  0999 V2000
    6.8472  -12.7667   18.8606 C   0  0  0  0  0  0  0  0  0  0  0  0
    7.8748  -13.4642   17.9464 C   0  0  2  0  0  0  0  0  0  0  0  0
    7.6285  -13.0128   16.5298 C   0  0  0  0  0  0  0  0  0  0  0  0
    7.7680  -14.9595   18.1016 C   0  0  0  0  0  0  0  0  0  0  0  0
    8.0620  -15.4386   19.4446 C   0  0  2  0  0  0  0  0  0  0  0  0
    7.6565  -14.4067   20.4153 N   0  0  0  0  0  0  0  0  0  0  0  0
    9.3457  -15.9583   19.8127 C   0  0  0  0  0  0  0  0  0  0  0  0
    9.6615  -17.1346   19.4566 O   0  0  0  0  0  0  0  0  0  0  0  0
   14.9358  -14.0123   19.1781 N   0  0  0  0  0  0  0  0  0  0  0  0
   15.1947  -14.9176   20.2453 C   0  0  0  0  0  0  0  0  0  0  0  0
   16.3809  -14.9539   20.6606 O   0  0  0  0  0  0  0  0  0  0  0  0
   14.1078  -15.7686   20.8275 C   0  0  0  0  0  0  0  0  0  0  0  0
   12.8127  -15.1277   20.4621 C   0  0  0  0  0  0  0  0  0  0  0  0
   11.5964  -15.9195   20.9341 C   0  0  2  0  0  0  0  0  0  0  0  0
   10.3703  -15.2867   20.5663 N   0  0  0  0  0  0  0  0  0  0  0  0
   11.7732  -16.0798   22.4114 C   0  0  0  0  0  0  0  0  0  0  0  0
   11.6811  -15.0638   23.1770 O   0  0  0  0  0  0  0  0  0  0  0  0
    6.2379  -21.5130   26.1259 N   0  0  0  0  0  0  0  0  0  0  0  0
    7.0784  -20.9156   27.1326 C   0  0  0  0  0  0  0  0  0  0  0  0
    6.5728  -20.6067   28.2619 N   0  0  0  0  0  0  0  0  0  0  0  0
    8.4490  -20.6826   26.8508 N   0  0  0  0  0  0  0  0  0  0  0  0
    8.8497  -20.2884   25.5277 C   0  0  0  0  0  0  0  0  0  0  0  0
    9.8962  -19.2563   25.5268 C   0  0  0  0  0  0  0  0  0  0  0  0
   10.5781  -18.7421   24.3566 C   0  0  0  0  0  0  0  0  0  0  0  0
   11.6009  -17.7207   24.3641 C   0  0  2  0  0  0  0  0  0  0  0  0
   12.0411  -17.3164   23.0170 N   0  0  0  0  0  0  0  0  0  0  0  0
   12.6855  -17.6724   25.3212 C   0  0  0  0  0  0  0  0  0  0  0  0
   13.8865  -17.0587   25.3654 O   0  0  0  0  0  0  0  0  0  0  0  0
   12.4537  -18.3849   26.4093 O   0  0  0  0  0  0  0  0  0  0  0  0
  2  1  1  1
  2  4  1  0
  3  2  1  0
  4  5  1  0
  5  6  1  1
  5  7  1  0
  7  8  2  0
  7 15  1  0
 10 12  1  0
 10  9  1  0
 11 10  2  0
 14 13  1  1
 13 12  1  0
 14 16  1  0
 15 14  1  0
 16 26  1  0
 16 17  2  0
 19 18  1  0
 20 19  2  0
 21 19  1  0
 21 22  1  0
 22 23  1  0
 23 24  1  0
 25 24  1  6
 25 27  1  0
 26 25  1  0
 27 28  1  0
 29 27  2  0
M  END
$$$$
