LQR.pdb
     RDKit          3D

 29 28  0  0  1  0  0  0  0  0999 V2000
    7.9354  -12.8894   27.2082 C   0  0  0  0  0  0  0  0  0  0  0  0
    6.8249  -12.6197   26.1728 C   0  0  2  0  0  0  0  0  0  0  0  0
    5.7271  -11.8410   26.8509 C   0  0  0  0  0  0  0  0  0  0  0  0
    6.3349  -13.9225   25.5947 C   0  0  0  0  0  0  0  0  0  0  0  0
    7.3145  -14.6080   24.7640 C   0  0  2  0  0  0  0  0  0  0  0  0
    8.5846  -13.8627   24.8160 N   0  0  0  0  0  0  0  0  0  0  0  0
    7.0430  -14.9894   23.4096 C   0  0  0  0  0  0  0  0  0  0  0  0
    5.9227  -14.6882   22.8954 O   0  0  0  0  0  0  0  0  0  0  0  0
    8.4561  -12.3273   18.4476 N   0  0  0  0  0  0  0  0  0  0  0  0
    7.7431  -13.4024   19.0482 C   0  0  0  0  0  0  0  0  0  0  0  0
    7.6141  -14.4375   18.3460 O   0  0  0  0  0  0  0  0  0  0  0  0
    7.1865  -13.2915   20.4347 C   0  0  0  0  0  0  0  0  0  0  0  0
    8.3089  -13.5678   21.3757 C   0  0  0  0  0  0  0  0  0  0  0  0
    8.6544  -15.0506   21.4797 C   0  0  2  0  0  0  0  0  0  0  0  0
    7.9178  -15.7003   22.5162 N   0  0  0  0  0  0  0  0  0  0  0  0
   10.1378  -15.1026   21.6703 C   0  0  0  0  0  0  0  0  0  0  0  0
   10.7817  -14.0362   21.9442 O   0  0  0  0  0  0  0  0  0  0  0  0
    7.9216  -19.3918   27.0826 N   0  0  0  0  0  0  0  0  0  0  0  0
    9.2033  -19.4223   27.7407 C   0  0  0  0  0  0  0  0  0  0  0  0
    9.2542  -19.6603   28.9925 N   0  0  0  0  0  0  0  0  0  0  0  0
   10.3819  -19.1880   26.9870 N   0  0  0  0  0  0  0  0  0  0  0  0
   10.4854  -18.0099   26.1697 C   0  0  0  0  0  0  0  0  0  0  0  0
   10.1693  -18.2603   24.7564 C   0  0  0  0  0  0  0  0  0  0  0  0
   10.2081  -17.2778   23.6924 C   0  0  0  0  0  0  0  0  0  0  0  0
   11.2367  -17.1773   22.6819 C   0  0  2  0  0  0  0  0  0  0  0  0
   10.8789  -16.2887   21.5619 N   0  0  0  0  0  0  0  0  0  0  0  0
   12.0499  -18.2920   22.2452 C   0  0  0  0  0  0  0  0  0  0  0  0
   13.2197  -18.8301   22.6493 O   0  0  0  0  0  0  0  0  0  0  0  0
   11.5338  -18.9442   21.2188 O   0  0  0  0  0  0  0  0  0  0  0  0
  2  1  1  1
  2  4  1  0
  3  2  1  0
  4  5  1  0
  5  6  1  6
  5  7  1  0
  7  8  2  0
  7 15  1  0
 10 12  1  0
 10  9  1  0
 11 10  2  0
 14 13  1  1
 13 12  1  0
 14 16  1  0
 15 14  1  0
 16 26  1  0
 16 17  2  0
 19 18  1  0
 20 19  2  0
 21 19  1  0
 21 22  1  0
 22 23  1  0
 23 24  1  0
 25 24  1  6
 25 27  1  0
 26 25  1  0
 27 28  1  0
 29 27  2  0
M  END
$$$$
