LQR.pdb
     RDKit          3D

 29 28  0  0  1  0  0  0  0  0999 V2000
    5.9601  -11.4807   27.2212 C   0  0  0  0  0  0  0  0  0  0  0  0
    6.7541  -12.2893   26.1753 C   0  0  2  0  0  0  0  0  0  0  0  0
    6.8052  -11.4884   24.8997 C   0  0  0  0  0  0  0  0  0  0  0  0
    6.1180  -13.6419   25.9816 C   0  0  0  0  0  0  0  0  0  0  0  0
    6.6704  -14.6843   26.8345 C   0  0  2  0  0  0  0  0  0  0  0  0
    6.9024  -14.1243   28.1777 N   0  0  0  0  0  0  0  0  0  0  0  0
    7.8005  -15.4763   26.4486 C   0  0  0  0  0  0  0  0  0  0  0  0
    8.9552  -14.9502   26.4556 O   0  0  0  0  0  0  0  0  0  0  0  0
   10.1526  -19.8589   27.5014 N   0  0  0  0  0  0  0  0  0  0  0  0
   10.7087  -20.1259   26.2189 C   0  0  0  0  0  0  0  0  0  0  0  0
   11.8177  -20.7183   26.2124 O   0  0  0  0  0  0  0  0  0  0  0  0
   10.0020  -19.7192   24.9620 C   0  0  0  0  0  0  0  0  0  0  0  0
    8.7596  -19.0067   25.3745 C   0  0  0  0  0  0  0  0  0  0  0  0
    8.9376  -17.4939   25.4680 C   0  0  2  0  0  0  0  0  0  0  0  0
    7.7948  -16.8547   26.0377 N   0  0  0  0  0  0  0  0  0  0  0  0
    9.2502  -17.0419   24.0761 C   0  0  0  0  0  0  0  0  0  0  0  0
    8.3125  -16.6330   23.3143 O   0  0  0  0  0  0  0  0  0  0  0  0
    7.8028  -12.2065   19.4635 N   0  0  0  0  0  0  0  0  0  0  0  0
    8.6350  -13.1386   18.7454 C   0  0  0  0  0  0  0  0  0  0  0  0
    8.9853  -12.8664   17.5498 N   0  0  0  0  0  0  0  0  0  0  0  0
    9.0486  -14.3383   19.3791 N   0  0  0  0  0  0  0  0  0  0  0  0
    8.1740  -14.9907   20.3152 C   0  0  0  0  0  0  0  0  0  0  0  0
    8.7944  -15.2035   21.6305 C   0  0  0  0  0  0  0  0  0  0  0  0
   10.2170  -15.2762   21.8945 C   0  0  0  0  0  0  0  0  0  0  0  0
   10.9436  -16.4751   22.2467 C   0  0  2  0  0  0  0  0  0  0  0  0
   10.5501  -17.0425   23.5487 N   0  0  0  0  0  0  0  0  0  0  0  0
   12.3518  -16.6731   21.9774 C   0  0  0  0  0  0  0  0  0  0  0  0
   13.1262  -16.6077   20.8741 O   0  0  0  0  0  0  0  0  0  0  0  0
   13.0508  -16.9835   23.0546 O   0  0  0  0  0  0  0  0  0  0  0  0
  2  1  1  1
  2  4  1  0
  3  2  1  0
  4  5  1  0
  5  6  1  1
  5  7  1  0
  7  8  2  0
  7 15  1  0
 10 12  1  0
 10  9  1  0
 11 10  2  0
 14 13  1  6
 13 12  1  0
 14 16  1  0
 15 14  1  0
 16 26  1  0
 16 17  2  0
 19 18  1  0
 20 19  2  0
 21 19  1  0
 21 22  1  0
 22 23  1  0
 23 24  1  0
 25 24  1  1
 25 27  1  0
 26 25  1  0
 27 28  1  0
 29 27  2  0
M  END
$$$$
