LQR.pdb
     RDKit          3D

 29 28  0  0  1  0  0  0  0  0999 V2000
    7.3691  -12.4114   20.2863 C   0  0  0  0  0  0  0  0  0  0  0  0
    7.6676  -12.9236   18.8626 C   0  0  2  0  0  0  0  0  0  0  0  0
    6.3547  -13.1528   18.1591 C   0  0  0  0  0  0  0  0  0  0  0  0
    8.5098  -14.1716   18.9324 C   0  0  0  0  0  0  0  0  0  0  0  0
    9.6234  -14.0838   19.8659 C   0  0  2  0  0  0  0  0  0  0  0  0
   10.2448  -12.7537   19.7388 N   0  0  0  0  0  0  0  0  0  0  0  0
   10.6489  -15.0821   19.9369 C   0  0  0  0  0  0  0  0  0  0  0  0
   10.3322  -16.3039   19.8069 O   0  0  0  0  0  0  0  0  0  0  0  0
   16.4817  -14.8176   17.9854 N   0  0  0  0  0  0  0  0  0  0  0  0
   15.2377  -14.4555   17.3967 C   0  0  0  0  0  0  0  0  0  0  0  0
   15.3025  -13.9062   16.2675 O   0  0  0  0  0  0  0  0  0  0  0  0
   13.9382  -14.7202   18.0935 C   0  0  0  0  0  0  0  0  0  0  0  0
   14.2504  -15.5481   19.2930 C   0  0  0  0  0  0  0  0  0  0  0  0
   13.0119  -15.9276   20.0999 C   0  0  2  0  0  0  0  0  0  0  0  0
   12.0562  -14.8676   20.1437 N   0  0  0  0  0  0  0  0  0  0  0  0
   13.5221  -16.3357   21.4463 C   0  0  0  0  0  0  0  0  0  0  0  0
   14.1504  -15.4944   22.1703 O   0  0  0  0  0  0  0  0  0  0  0  0
   16.3916  -22.9042   17.3598 N   0  0  0  0  0  0  0  0  0  0  0  0
   16.7397  -21.5057   17.3514 C   0  0  0  0  0  0  0  0  0  0  0  0
   17.2833  -21.0063   16.3115 N   0  0  0  0  0  0  0  0  0  0  0  0
   16.4722  -20.7119   18.4961 N   0  0  0  0  0  0  0  0  0  0  0  0
   15.8640  -21.3088   19.6538 C   0  0  0  0  0  0  0  0  0  0  0  0
   15.7142  -20.3694   20.7742 C   0  0  0  0  0  0  0  0  0  0  0  0
   14.5839  -19.4914   20.9985 C   0  0  0  0  0  0  0  0  0  0  0  0
   14.4068  -18.6300   22.1456 C   0  0  2  0  0  0  0  0  0  0  0  0
   13.3435  -17.6247   21.9701 N   0  0  0  0  0  0  0  0  0  0  0  0
   15.4981  -18.1234   22.9499 C   0  0  0  0  0  0  0  0  0  0  0  0
   16.4070  -17.1365   22.8042 O   0  0  0  0  0  0  0  0  0  0  0  0
   15.6425  -18.7633   24.0966 O   0  0  0  0  0  0  0  0  0  0  0  0
  2  1  1  1
  2  4  1  0
  3  2  1  0
  4  5  1  0
  5  6  1  6
  5  7  1  0
  7  8  2  0
  7 15  1  0
 10 12  1  0
 10  9  1  0
 11 10  2  0
 14 13  1  6
 13 12  1  0
 14 16  1  0
 15 14  1  0
 16 26  1  0
 16 17  2  0
 19 18  1  0
 20 19  2  0
 21 19  1  0
 21 22  1  0
 22 23  1  0
 23 24  1  0
 25 24  1  6
 25 27  1  0
 26 25  1  0
 27 28  1  0
 29 27  2  0
M  END
$$$$
