LQR.pdb
     RDKit          3D

 29 28  0  0  1  0  0  0  0  0999 V2000
    6.6631  -15.2001   19.2594 C   0  0  0  0  0  0  0  0  0  0  0  0
    7.5059  -13.9094   19.3035 C   0  0  2  0  0  0  0  0  0  0  0  0
    7.8621  -13.5303   17.8890 C   0  0  0  0  0  0  0  0  0  0  0  0
    8.7227  -14.1203   20.1674 C   0  0  0  0  0  0  0  0  0  0  0  0
    8.4230  -14.2912   21.5818 C   0  0  2  0  0  0  0  0  0  0  0  0
    7.6090  -13.1496   22.0352 N   0  0  0  0  0  0  0  0  0  0  0  0
    9.4372  -14.5675   22.5557 C   0  0  0  0  0  0  0  0  0  0  0  0
   10.2258  -13.6378   22.9077 O   0  0  0  0  0  0  0  0  0  0  0  0
   12.1794  -19.5537   27.2439 N   0  0  0  0  0  0  0  0  0  0  0  0
   11.4082  -18.3945   26.9496 C   0  0  0  0  0  0  0  0  0  0  0  0
   10.3678  -18.2364   27.6377 O   0  0  0  0  0  0  0  0  0  0  0  0
   11.8251  -17.4306   25.8812 C   0  0  0  0  0  0  0  0  0  0  0  0
   10.6030  -17.1003   25.0945 C   0  0  0  0  0  0  0  0  0  0  0  0
   10.8502  -16.0536   24.0118 C   0  0  2  0  0  0  0  0  0  0  0  0
    9.6866  -15.8200   23.2177 N   0  0  0  0  0  0  0  0  0  0  0  0
   12.0228  -16.5570   23.2301 C   0  0  0  0  0  0  0  0  0  0  0  0
   11.8810  -17.5446   22.4355 O   0  0  0  0  0  0  0  0  0  0  0  0
   15.9368  -14.4762   16.9053 N   0  0  0  0  0  0  0  0  0  0  0  0
   16.1311  -13.3736   17.8128 C   0  0  0  0  0  0  0  0  0  0  0  0
   16.4026  -12.2203   17.3412 N   0  0  0  0  0  0  0  0  0  0  0  0
   16.0172  -13.5898   19.2100 N   0  0  0  0  0  0  0  0  0  0  0  0
   16.5876  -14.7703   19.7996 C   0  0  0  0  0  0  0  0  0  0  0  0
   15.5748  -15.7327   20.2560 C   0  0  0  0  0  0  0  0  0  0  0  0
   14.6188  -15.5150   21.3225 C   0  0  0  0  0  0  0  0  0  0  0  0
   14.4612  -16.3522   22.4902 C   0  0  2  0  0  0  0  0  0  0  0  0
   13.3020  -15.9890   23.3247 N   0  0  0  0  0  0  0  0  0  0  0  0
   15.5660  -16.8401   23.2879 C   0  0  0  0  0  0  0  0  0  0  0  0
   16.6619  -17.5865   23.0367 O   0  0  0  0  0  0  0  0  0  0  0  0
   15.4995  -16.4694   24.5541 O   0  0  0  0  0  0  0  0  0  0  0  0
  2  1  1  6
  2  4  1  0
  3  2  1  0
  4  5  1  0
  5  6  1  1
  5  7  1  0
  7  8  2  0
  7 15  1  0
 10 12  1  0
 10  9  1  0
 11 10  2  0
 14 13  1  1
 13 12  1  0
 14 16  1  0
 15 14  1  0
 16 26  1  0
 16 17  2  0
 19 18  1  0
 20 19  2  0
 21 19  1  0
 21 22  1  0
 22 23  1  0
 23 24  1  0
 25 24  1  1
 25 27  1  0
 26 25  1  0
 27 28  1  0
 29 27  2  0
M  END
$$$$
