LQR.pdb
     RDKit          3D

 29 28  0  0  1  0  0  0  0  0999 V2000
    7.8726  -13.7924   18.0007 C   0  0  0  0  0  0  0  0  0  0  0  0
    7.2385  -13.3039   19.3188 C   0  0  2  0  0  0  0  0  0  0  0  0
    6.8644  -11.8535   19.1530 C   0  0  0  0  0  0  0  0  0  0  0  0
    8.1958  -13.5252   20.4617 C   0  0  0  0  0  0  0  0  0  0  0  0
    8.5022  -14.9256   20.7156 C   0  0  2  0  0  0  0  0  0  0  0  0
    7.3210  -15.7384   20.3754 N   0  0  0  0  0  0  0  0  0  0  0  0
    9.0494  -15.3806   21.9592 C   0  0  0  0  0  0  0  0  0  0  0  0
   10.1446  -14.8884   22.3696 O   0  0  0  0  0  0  0  0  0  0  0  0
    6.6809  -19.3947   26.2481 N   0  0  0  0  0  0  0  0  0  0  0  0
    7.9138  -19.0279   26.8568 C   0  0  0  0  0  0  0  0  0  0  0  0
    8.1257  -19.5042   28.0011 O   0  0  0  0  0  0  0  0  0  0  0  0
    8.8895  -18.1277   26.1625 C   0  0  0  0  0  0  0  0  0  0  0  0
    8.2639  -17.7244   24.8711 C   0  0  0  0  0  0  0  0  0  0  0  0
    9.1224  -16.7538   24.0650 C   0  0  2  0  0  0  0  0  0  0  0  0
    8.4904  -16.3672   22.8443 N   0  0  0  0  0  0  0  0  0  0  0  0
   10.4345  -17.4472   23.8717 C   0  0  0  0  0  0  0  0  0  0  0  0
   10.5662  -18.3121   22.9436 O   0  0  0  0  0  0  0  0  0  0  0  0
   16.9904  -14.8585   19.7836 N   0  0  0  0  0  0  0  0  0  0  0  0
   15.6461  -14.4569   19.4541 C   0  0  0  0  0  0  0  0  0  0  0  0
   15.4036  -13.9899   18.2925 N   0  0  0  0  0  0  0  0  0  0  0  0
   14.6197  -14.5880   20.4243 N   0  0  0  0  0  0  0  0  0  0  0  0
   14.9497  -14.9906   21.7643 C   0  0  0  0  0  0  0  0  0  0  0  0
   14.2855  -16.2371   22.1708 C   0  0  0  0  0  0  0  0  0  0  0  0
   13.0810  -16.3336   22.9701 C   0  0  0  0  0  0  0  0  0  0  0  0
   12.9456  -17.0921   24.1931 C   0  0  2  0  0  0  0  0  0  0  0  0
   11.5563  -17.1926   24.6745 N   0  0  0  0  0  0  0  0  0  0  0  0
   13.8908  -17.0331   25.2876 C   0  0  0  0  0  0  0  0  0  0  0  0
   13.7861  -16.9104   26.6274 O   0  0  0  0  0  0  0  0  0  0  0  0
   15.1492  -17.1269   24.8963 O   0  0  0  0  0  0  0  0  0  0  0  0
  2  1  1  6
  2  4  1  0
  3  2  1  0
  4  5  1  0
  5  6  1  1
  5  7  1  0
  7  8  2  0
  7 15  1  0
 10 12  1  0
 10  9  1  0
 11 10  2  0
 14 13  1  6
 13 12  1  0
 14 16  1  0
 15 14  1  0
 16 26  1  0
 16 17  2  0
 19 18  1  0
 20 19  2  0
 21 19  1  0
 21 22  1  0
 22 23  1  0
 23 24  1  0
 25 24  1  1
 25 27  1  0
 26 25  1  0
 27 28  1  0
 29 27  2  0
M  END
$$$$
