LQR.pdb
     RDKit          3D

 29 28  0  0  1  0  0  0  0  0999 V2000
    5.5359  -12.4481   26.6118 C   0  0  0  0  0  0  0  0  0  0  0  0
    7.0314  -12.0903   26.7292 C   0  0  2  0  0  0  0  0  0  0  0  0
    7.2015  -10.6430   26.3452 C   0  0  0  0  0  0  0  0  0  0  0  0
    7.8497  -13.0157   25.8658 C   0  0  0  0  0  0  0  0  0  0  0  0
    7.7568  -14.4180   26.2460 C   0  0  2  0  0  0  0  0  0  0  0  0
    7.9342  -14.5263   27.7049 N   0  0  0  0  0  0  0  0  0  0  0  0
    8.5192  -15.4435   25.5976 C   0  0  0  0  0  0  0  0  0  0  0  0
    9.7828  -15.4411   25.7137 O   0  0  0  0  0  0  0  0  0  0  0  0
    7.9539  -21.4729   24.9825 N   0  0  0  0  0  0  0  0  0  0  0  0
    8.3820  -20.6777   26.0823 C   0  0  0  0  0  0  0  0  0  0  0  0
    8.4731  -21.2705   27.1875 O   0  0  0  0  0  0  0  0  0  0  0  0
    8.7012  -19.2234   25.9163 C   0  0  0  0  0  0  0  0  0  0  0  0
    8.5177  -18.9015   24.4725 C   0  0  0  0  0  0  0  0  0  0  0  0
    8.8675  -17.4561   24.1302 C   0  0  2  0  0  0  0  0  0  0  0  0
    8.0134  -16.5263   24.7972 N   0  0  0  0  0  0  0  0  0  0  0  0
    8.8017  -17.3721   22.6375 C   0  0  0  0  0  0  0  0  0  0  0  0
    7.6709  -17.3994   22.0481 O   0  0  0  0  0  0  0  0  0  0  0  0
    7.5288  -15.2784   16.4594 N   0  0  0  0  0  0  0  0  0  0  0  0
    7.9853  -13.9194   16.3122 C   0  0  0  0  0  0  0  0  0  0  0  0
    8.1542  -13.4434   15.1412 N   0  0  0  0  0  0  0  0  0  0  0  0
    8.2376  -13.1375   17.4684 N   0  0  0  0  0  0  0  0  0  0  0  0
    8.0840  -13.7208   18.7734 C   0  0  0  0  0  0  0  0  0  0  0  0
    9.0209  -14.8251   19.0241 C   0  0  0  0  0  0  0  0  0  0  0  0
    9.1110  -15.5990   20.2455 C   0  0  0  0  0  0  0  0  0  0  0  0
    9.9655  -16.7470   20.4488 C   0  0  2  0  0  0  0  0  0  0  0  0
    9.9431  -17.2622   21.8295 N   0  0  0  0  0  0  0  0  0  0  0  0
   11.2690  -16.9004   19.8389 C   0  0  0  0  0  0  0  0  0  0  0  0
   11.7103  -17.1075   18.5805 O   0  0  0  0  0  0  0  0  0  0  0  0
   12.2638  -16.8123   20.7037 O   0  0  0  0  0  0  0  0  0  0  0  0
  2  1  1  6
  2  4  1  0
  3  2  1  0
  4  5  1  0
  5  6  1  1
  5  7  1  0
  7  8  2  0
  7 15  1  0
 10 12  1  0
 10  9  1  0
 11 10  2  0
 14 13  1  6
 13 12  1  0
 14 16  1  0
 15 14  1  0
 16 26  1  0
 16 17  2  0
 19 18  1  0
 20 19  2  0
 21 19  1  0
 21 22  1  0
 22 23  1  0
 23 24  1  0
 25 24  1  1
 25 27  1  0
 26 25  1  0
 27 28  1  0
 29 27  2  0
M  END
$$$$
