LQR.pdb
     RDKit          3D

 29 28  0  0  1  0  0  0  0  0999 V2000
    8.0186  -12.9311   18.6180 C   0  0  0  0  0  0  0  0  0  0  0  0
    7.3915  -14.0346   19.4940 C   0  0  2  0  0  0  0  0  0  0  0  0
    6.4947  -13.3766   20.5109 C   0  0  0  0  0  0  0  0  0  0  0  0
    8.4775  -14.8617   20.1328 C   0  0  0  0  0  0  0  0  0  0  0  0
    9.3138  -15.5789   19.1811 C   0  0  2  0  0  0  0  0  0  0  0  0
    8.4962  -16.6060   18.5117 N   0  0  0  0  0  0  0  0  0  0  0  0
   10.5814  -16.1415   19.5415 C   0  0  0  0  0  0  0  0  0  0  0  0
   10.6259  -17.3271   19.9915 O   0  0  0  0  0  0  0  0  0  0  0  0
   16.0922  -13.1474   19.4346 N   0  0  0  0  0  0  0  0  0  0  0  0
   15.7481  -14.0816   18.4178 C   0  0  0  0  0  0  0  0  0  0  0  0
   16.5127  -14.1157   17.4202 O   0  0  0  0  0  0  0  0  0  0  0  0
   14.5440  -14.9641   18.5441 C   0  0  0  0  0  0  0  0  0  0  0  0
   14.2119  -15.0391   19.9952 C   0  0  0  0  0  0  0  0  0  0  0  0
   12.9694  -15.8767   20.2845 C   0  0  2  0  0  0  0  0  0  0  0  0
   11.8694  -15.5073   19.4524 N   0  0  0  0  0  0  0  0  0  0  0  0
   12.7038  -15.7049   21.7472 C   0  0  0  0  0  0  0  0  0  0  0  0
   11.6876  -15.0390   22.1352 O   0  0  0  0  0  0  0  0  0  0  0  0
    6.6196  -18.6109   22.4776 N   0  0  0  0  0  0  0  0  0  0  0  0
    6.8470  -17.3319   23.1015 C   0  0  0  0  0  0  0  0  0  0  0  0
    5.9085  -16.4685   23.1103 N   0  0  0  0  0  0  0  0  0  0  0  0
    8.1065  -17.0567   23.6930 N   0  0  0  0  0  0  0  0  0  0  0  0
    9.2812  -17.7399   23.2239 C   0  0  0  0  0  0  0  0  0  0  0  0
   10.5118  -17.2940   23.8925 C   0  0  0  0  0  0  0  0  0  0  0  0
   11.8480  -17.7846   23.6227 C   0  0  0  0  0  0  0  0  0  0  0  0
   13.0735  -17.0630   23.8812 C   0  0  2  0  0  0  0  0  0  0  0  0
   13.5310  -16.2491   22.7408 N   0  0  0  0  0  0  0  0  0  0  0  0
   14.1840  -17.6037   24.6356 C   0  0  0  0  0  0  0  0  0  0  0  0
   15.5259  -17.5896   24.4926 O   0  0  0  0  0  0  0  0  0  0  0  0
   13.8090  -18.2584   25.7201 O   0  0  0  0  0  0  0  0  0  0  0  0
  2  1  1  1
  2  4  1  0
  3  2  1  0
  4  5  1  0
  5  6  1  1
  5  7  1  0
  7  8  2  0
  7 15  1  0
 10 12  1  0
 10  9  1  0
 11 10  2  0
 14 13  1  6
 13 12  1  0
 14 16  1  0
 15 14  1  0
 16 26  1  0
 16 17  2  0
 19 18  1  0
 20 19  2  0
 21 19  1  0
 21 22  1  0
 22 23  1  0
 23 24  1  0
 25 24  1  6
 25 27  1  0
 26 25  1  0
 27 28  1  0
 29 27  2  0
M  END
$$$$
