LQR.pdb
     RDKit          3D

 29 28  0  0  1  0  0  0  0  0999 V2000
    8.8095  -12.3073   20.3429 C   0  0  0  0  0  0  0  0  0  0  0  0
    7.9283  -13.5218   19.9870 C   0  0  2  0  0  0  0  0  0  0  0  0
    6.5156  -13.0367   19.7866 C   0  0  0  0  0  0  0  0  0  0  0  0
    8.0312  -14.5653   21.0696 C   0  0  0  0  0  0  0  0  0  0  0  0
    9.3962  -14.9666   21.3781 C   0  0  2  0  0  0  0  0  0  0  0  0
   10.2142  -14.8417   20.1587 N   0  0  0  0  0  0  0  0  0  0  0  0
    9.7057  -16.2031   22.0328 C   0  0  0  0  0  0  0  0  0  0  0  0
    8.9652  -16.6017   22.9830 O   0  0  0  0  0  0  0  0  0  0  0  0
   10.4129  -22.1923   20.4443 N   0  0  0  0  0  0  0  0  0  0  0  0
   11.2727  -21.1441   20.0117 C   0  0  0  0  0  0  0  0  0  0  0  0
   12.2930  -21.4995   19.3683 O   0  0  0  0  0  0  0  0  0  0  0  0
   10.9661  -19.7090   20.3128 C   0  0  0  0  0  0  0  0  0  0  0  0
   11.7130  -19.3573   21.5537 C   0  0  0  0  0  0  0  0  0  0  0  0
   10.9884  -18.3314   22.4206 C   0  0  2  0  0  0  0  0  0  0  0  0
   10.7965  -17.0928   21.7364 N   0  0  0  0  0  0  0  0  0  0  0  0
   11.8082  -18.2114   23.6668 C   0  0  0  0  0  0  0  0  0  0  0  0
   12.5939  -17.2182   23.8182 O   0  0  0  0  0  0  0  0  0  0  0  0
   10.2049  -21.6918   30.3520 N   0  0  0  0  0  0  0  0  0  0  0  0
   11.3382  -21.0079   30.9217 C   0  0  0  0  0  0  0  0  0  0  0  0
   11.4780  -20.9846   32.1891 N   0  0  0  0  0  0  0  0  0  0  0  0
   12.2754  -20.3748   30.0656 N   0  0  0  0  0  0  0  0  0  0  0  0
   11.9833  -19.0767   29.5213 C   0  0  0  0  0  0  0  0  0  0  0  0
   11.4571  -19.1326   28.1501 C   0  0  0  0  0  0  0  0  0  0  0  0
   12.0727  -19.8206   27.0337 C   0  0  0  0  0  0  0  0  0  0  0  0
   12.6551  -19.1829   25.8746 C   0  0  2  0  0  0  0  0  0  0  0  0
   11.7596  -19.1541   24.7044 N   0  0  0  0  0  0  0  0  0  0  0  0
   14.0421  -19.3264   25.4867 C   0  0  0  0  0  0  0  0  0  0  0  0
   14.6878  -19.9637   24.4876 O   0  0  0  0  0  0  0  0  0  0  0  0
   14.8764  -18.6837   26.2842 O   0  0  0  0  0  0  0  0  0  0  0  0
  2  1  1  1
  2  4  1  0
  3  2  1  0
  4  5  1  0
  5  6  1  6
  5  7  1  0
  7  8  2  0
  7 15  1  0
 10 12  1  0
 10  9  1  0
 11 10  2  0
 14 13  1  6
 13 12  1  0
 14 16  1  0
 15 14  1  0
 16 26  1  0
 16 17  2  0
 19 18  1  0
 20 19  2  0
 21 19  1  0
 21 22  1  0
 22 23  1  0
 23 24  1  0
 25 24  1  1
 25 27  1  0
 26 25  1  0
 27 28  1  0
 29 27  2  0
M  END
$$$$
