VEQ.pdb
     RDKit          3D

 26 25  0  0  1  0  0  0  0  0999 V2000
   18.5009  -13.6820  -17.7141 C   0  0  0  0  0  0  0  0  0  0  0  0
   19.4193  -12.9804  -16.7439 C   0  0  1  0  0  0  0  0  0  0  0  0
   20.8245  -13.5535  -16.9529 C   0  0  0  0  0  0  0  0  0  0  0  0
   19.4834  -11.4937  -16.9521 C   0  0  2  0  0  0  0  0  0  0  0  0
   19.8265  -11.2861  -18.3541 N   0  0  0  0  0  0  0  0  0  0  0  0
   20.5850  -10.9202  -16.1346 C   0  0  0  0  0  0  0  0  0  0  0  0
   20.5165  -10.8819  -14.8623 O   0  0  0  0  0  0  0  0  0  0  0  0
   21.7532  -10.3930  -16.7137 N   0  0  0  0  0  0  0  0  0  0  0  0
   22.7821   -9.7042  -15.9040 C   0  0  1  0  0  0  0  0  0  0  0  0
   24.1024  -10.1021  -16.5205 C   0  0  0  0  0  0  0  0  0  0  0  0
   25.1916  -10.3401  -15.5519 C   0  0  0  0  0  0  0  0  0  0  0  0
   26.4455  -10.8484  -16.1311 C   0  0  0  0  0  0  0  0  0  0  0  0
   26.5733  -11.0819  -17.3530 O   0  0  0  0  0  0  0  0  0  0  0  0
   22.5258   -8.2434  -15.9497 C   0  0  0  0  0  0  0  0  0  0  0  0
   22.1199   -7.7645  -17.0575 O   0  0  0  0  0  0  0  0  0  0  0  0
   27.5501  -11.0913  -15.3287 O   0  0  0  0  0  0  0  0  0  0  0  0
   17.9739   -6.3212  -16.1717 N   0  0  0  0  0  0  0  0  0  0  0  0
   18.5097   -5.0489  -15.8015 C   0  0  0  0  0  0  0  0  0  0  0  0
   17.6914   -4.0918  -15.8652 O   0  0  0  0  0  0  0  0  0  0  0  0
   19.9101   -4.8933  -15.3825 C   0  0  0  0  0  0  0  0  0  0  0  0
   20.7377   -6.1228  -15.4186 C   0  0  0  0  0  0  0  0  0  0  0  0
   22.1347   -6.0193  -14.9622 C   0  0  2  0  0  0  0  0  0  0  0  0
   22.6999   -7.3728  -14.8530 N   0  0  0  0  0  0  0  0  0  0  0  0
   22.3825   -5.2655  -13.7362 C   0  0  0  0  0  0  0  0  0  0  0  0
   22.5217   -3.8916  -13.6713 O   0  0  0  0  0  0  0  0  0  0  0  0
   22.4820   -5.8782  -12.6426 O   0  0  0  0  0  0  0  0  0  0  0  0
  2  4  1  0
  2  1  1  6
  3  2  1  0
  4  6  1  0
  4  5  1  6
  6  7  2  0
  8  9  1  0
  8  6  1  0
  9 10  1  6
 11 10  1  0
 12 11  1  0
 12 13  2  0
 14 23  1  0
 14  9  1  0
 15 14  2  0
 16 12  1  0
 17 18  1  0
 18 19  2  0
 18 20  1  0
 20 21  1  0
 22 21  1  1
 22 23  1  0
 22 24  1  0
 24 25  1  0
 26 24  2  0
M  END
$$$$
