VEQ.pdb
     RDKit          3D

 26 25  0  0  1  0  0  0  0  0999 V2000
   12.7707  -12.2109  -14.9253 C   0  0  0  0  0  0  0  0  0  0  0  0
   13.7617  -11.3418  -14.1906 C   0  0  1  0  0  0  0  0  0  0  0  0
   13.3254  -11.2959  -12.7229 C   0  0  0  0  0  0  0  0  0  0  0  0
   15.1691  -11.8650  -14.2453 C   0  0  2  0  0  0  0  0  0  0  0  0
   15.1402  -13.1950  -13.6480 N   0  0  0  0  0  0  0  0  0  0  0  0
   16.0522  -11.0172  -13.4015 C   0  0  0  0  0  0  0  0  0  0  0  0
   16.2617  -11.2928  -12.1746 O   0  0  0  0  0  0  0  0  0  0  0  0
   16.6996   -9.8745  -13.9046 N   0  0  0  0  0  0  0  0  0  0  0  0
   17.5697   -9.0334  -13.0537 C   0  0  1  0  0  0  0  0  0  0  0  0
   18.6613   -8.5374  -13.9724 C   0  0  0  0  0  0  0  0  0  0  0  0
   19.6418   -7.6334  -13.3378 C   0  0  0  0  0  0  0  0  0  0  0  0
   20.6819   -7.1069  -14.2362 C   0  0  0  0  0  0  0  0  0  0  0  0
   20.7314   -7.4022  -15.4504 O   0  0  0  0  0  0  0  0  0  0  0  0
   16.7523   -7.9435  -12.4661 C   0  0  0  0  0  0  0  0  0  0  0  0
   15.8464   -7.4402  -13.2061 O   0  0  0  0  0  0  0  0  0  0  0  0
   21.6622   -6.2492  -13.7604 O   0  0  0  0  0  0  0  0  0  0  0  0
   14.7625   -7.3639   -6.6202 N   0  0  0  0  0  0  0  0  0  0  0  0
   14.1972   -6.2282   -7.2786 C   0  0  0  0  0  0  0  0  0  0  0  0
   13.4079   -5.5455   -6.5711 O   0  0  0  0  0  0  0  0  0  0  0  0
   14.5259   -5.9020   -8.6738 C   0  0  0  0  0  0  0  0  0  0  0  0
   15.5002   -6.8011   -9.3373 C   0  0  0  0  0  0  0  0  0  0  0  0
   15.9602   -6.4323  -10.6874 C   0  0  2  0  0  0  0  0  0  0  0  0
   16.9175   -7.4459  -11.1561 N   0  0  0  0  0  0  0  0  0  0  0  0
   16.5143   -5.0923  -10.8612 C   0  0  0  0  0  0  0  0  0  0  0  0
   15.7620   -3.9383  -10.9772 O   0  0  0  0  0  0  0  0  0  0  0  0
   17.7615   -4.9405  -10.9133 O   0  0  0  0  0  0  0  0  0  0  0  0
  2  4  1  0
  2  1  1  6
  3  2  1  0
  4  6  1  0
  4  5  1  1
  6  7  2  0
  8  9  1  0
  8  6  1  0
  9 10  1  6
 11 10  1  0
 12 11  1  0
 12 13  2  0
 14 23  1  0
 14  9  1  0
 15 14  2  0
 16 12  1  0
 17 18  1  0
 18 19  2  0
 18 20  1  0
 20 21  1  0
 22 21  1  1
 22 23  1  0
 22 24  1  0
 24 25  1  0
 26 24  2  0
M  END
$$$$
