VEQ.pdb
     RDKit          3D

 26 25  0  0  1  0  0  0  0  0999 V2000
   25.3827  -12.8354  -21.1282 C   0  0  0  0  0  0  0  0  0  0  0  0
   26.4192  -12.5293  -20.0752 C   0  0  1  0  0  0  0  0  0  0  0  0
   27.4771  -13.6350  -20.1437 C   0  0  0  0  0  0  0  0  0  0  0  0
   27.1066  -11.2091  -20.2812 C   0  0  2  0  0  0  0  0  0  0  0  0
   27.7077  -11.2577  -21.6088 N   0  0  0  0  0  0  0  0  0  0  0  0
   28.2115  -11.0605  -19.2974 C   0  0  0  0  0  0  0  0  0  0  0  0
   27.9815  -11.0026  -18.0449 O   0  0  0  0  0  0  0  0  0  0  0  0
   29.5594  -10.9764  -19.6898 N   0  0  0  0  0  0  0  0  0  0  0  0
   30.6500  -10.8167  -18.7029 C   0  0  1  0  0  0  0  0  0  0  0  0
   31.7036  -11.8187  -19.1121 C   0  0  0  0  0  0  0  0  0  0  0  0
   32.9387  -11.7842  -18.3030 C   0  0  0  0  0  0  0  0  0  0  0  0
   34.0133  -12.6797  -18.7610 C   0  0  0  0  0  0  0  0  0  0  0  0
   33.8882  -13.4204  -19.7607 O   0  0  0  0  0  0  0  0  0  0  0  0
   31.1254   -9.4117  -18.7407 C   0  0  0  0  0  0  0  0  0  0  0  0
   31.2110   -8.8636  -19.8869 O   0  0  0  0  0  0  0  0  0  0  0  0
   35.2246  -12.7356  -18.0883 O   0  0  0  0  0  0  0  0  0  0  0  0
   28.2016   -5.3541  -19.4844 N   0  0  0  0  0  0  0  0  0  0  0  0
   29.3467   -4.5541  -19.1820 C   0  0  0  0  0  0  0  0  0  0  0  0
   29.2192   -3.3275  -19.4446 O   0  0  0  0  0  0  0  0  0  0  0  0
   30.5678   -5.1392  -18.6095 C   0  0  0  0  0  0  0  0  0  0  0  0
   30.5426   -6.6053  -18.3904 C   0  0  0  0  0  0  0  0  0  0  0  0
   31.7312   -7.2248  -17.7788 C   0  0  2  0  0  0  0  0  0  0  0  0
   31.4774   -8.6623  -17.5982 N   0  0  0  0  0  0  0  0  0  0  0  0
   32.2263   -6.6370  -16.5370 C   0  0  0  0  0  0  0  0  0  0  0  0
   32.7276   -5.3541  -16.4184 O   0  0  0  0  0  0  0  0  0  0  0  0
   32.2103   -7.3186  -15.4804 O   0  0  0  0  0  0  0  0  0  0  0  0
  2  4  1  0
  2  1  1  6
  3  2  1  0
  4  6  1  0
  4  5  1  6
  6  7  2  0
  8  9  1  0
  8  6  1  0
  9 10  1  6
 11 10  1  0
 12 11  1  0
 12 13  2  0
 14 23  1  0
 14  9  1  0
 15 14  2  0
 16 12  1  0
 17 18  1  0
 18 19  2  0
 18 20  1  0
 20 21  1  0
 22 21  1  1
 22 23  1  0
 22 24  1  0
 24 25  1  0
 26 24  2  0
M  END
$$$$
