VEQ.pdb
     RDKit          3D

 26 25  0  0  1  0  0  0  0  0999 V2000
   25.1483  -14.4636  -18.0692 C   0  0  0  0  0  0  0  0  0  0  0  0
   24.1788  -13.3071  -18.0784 C   0  0  1  0  0  0  0  0  0  0  0  0
   22.7706  -13.8935  -17.9385 C   0  0  0  0  0  0  0  0  0  0  0  0
   24.3971  -12.3371  -16.9518 C   0  0  2  0  0  0  0  0  0  0  0  0
   24.3176  -13.1104  -15.7181 N   0  0  0  0  0  0  0  0  0  0  0  0
   23.2923  -11.3425  -16.9258 C   0  0  0  0  0  0  0  0  0  0  0  0
   23.1612  -10.4720  -17.8478 O   0  0  0  0  0  0  0  0  0  0  0  0
   22.3389  -11.3066  -15.8925 N   0  0  0  0  0  0  0  0  0  0  0  0
   21.1638  -10.4095  -15.9468 C   0  0  1  0  0  0  0  0  0  0  0  0
   20.0777  -11.1338  -15.1871 C   0  0  0  0  0  0  0  0  0  0  0  0
   19.0903  -11.8334  -16.0339 C   0  0  0  0  0  0  0  0  0  0  0  0
   17.9662  -12.4476  -15.3090 C   0  0  0  0  0  0  0  0  0  0  0  0
   17.7499  -13.6791  -15.3269 O   0  0  0  0  0  0  0  0  0  0  0  0
   21.5329   -9.1034  -15.3475 C   0  0  0  0  0  0  0  0  0  0  0  0
   22.2793   -9.1335  -14.3163 O   0  0  0  0  0  0  0  0  0  0  0  0
   17.0908  -11.6691  -14.5671 O   0  0  0  0  0  0  0  0  0  0  0  0
   21.5006   -3.2855  -17.9132 N   0  0  0  0  0  0  0  0  0  0  0  0
   21.8465   -3.0662  -16.5439 C   0  0  0  0  0  0  0  0  0  0  0  0
   22.0850   -1.8649  -16.2446 O   0  0  0  0  0  0  0  0  0  0  0  0
   21.9126   -4.1722  -15.5778 C   0  0  0  0  0  0  0  0  0  0  0  0
   21.5191   -5.5060  -16.0917 C   0  0  0  0  0  0  0  0  0  0  0  0
   21.5981   -6.6464  -15.1624 C   0  0  2  0  0  0  0  0  0  0  0  0
   21.1135   -7.8532  -15.8497 N   0  0  0  0  0  0  0  0  0  0  0  0
   20.9380   -6.5001  -13.8680 C   0  0  0  0  0  0  0  0  0  0  0  0
   21.5321   -5.9729  -12.7365 O   0  0  0  0  0  0  0  0  0  0  0  0
   19.7433   -6.8700  -13.7375 O   0  0  0  0  0  0  0  0  0  0  0  0
  2  4  1  0
  2  1  1  1
  3  2  1  0
  4  6  1  0
  4  5  1  1
  6  7  2  0
  8  9  1  0
  8  6  1  0
  9 10  1  1
 11 10  1  0
 12 11  1  0
 12 13  2  0
 14 23  1  0
 14  9  1  0
 15 14  2  0
 16 12  1  0
 17 18  1  0
 18 19  2  0
 18 20  1  0
 20 21  1  0
 22 21  1  6
 22 23  1  0
 22 24  1  0
 24 25  1  0
 26 24  2  0
M  END
$$$$
