VEQ.pdb
     RDKit          3D

 26 25  0  0  1  0  0  0  0  0999 V2000
   26.3664  -20.1252   -8.4465 C   0  0  0  0  0  0  0  0  0  0  0  0
   26.2970  -20.3126   -9.9422 C   0  0  1  0  0  0  0  0  0  0  0  0
   26.4429  -21.8120  -10.2197 C   0  0  0  0  0  0  0  0  0  0  0  0
   24.9996  -19.8488  -10.5417 C   0  0  2  0  0  0  0  0  0  0  0  0
   23.9476  -20.6426   -9.9176 N   0  0  0  0  0  0  0  0  0  0  0  0
   24.9829  -20.1530  -11.9970 C   0  0  0  0  0  0  0  0  0  0  0  0
   25.8215  -19.6205  -12.7959 O   0  0  0  0  0  0  0  0  0  0  0  0
   24.0499  -21.0369  -12.5683 N   0  0  0  0  0  0  0  0  0  0  0  0
   24.0224  -21.3084  -14.0223 C   0  0  1  0  0  0  0  0  0  0  0  0
   24.2371  -22.7980  -14.1507 C   0  0  0  0  0  0  0  0  0  0  0  0
   24.2157  -23.3098  -15.5360 C   0  0  0  0  0  0  0  0  0  0  0  0
   24.3733  -24.7671  -15.6683 C   0  0  0  0  0  0  0  0  0  0  0  0
   25.4389  -25.2937  -16.0567 O   0  0  0  0  0  0  0  0  0  0  0  0
   22.7211  -20.8503  -14.5684 C   0  0  0  0  0  0  0  0  0  0  0  0
   21.6926  -21.0425  -13.8427 O   0  0  0  0  0  0  0  0  0  0  0  0
   23.3271  -25.6242  -15.3617 O   0  0  0  0  0  0  0  0  0  0  0  0
   21.7634  -16.2714  -18.7640 N   0  0  0  0  0  0  0  0  0  0  0  0
   22.8337  -17.2042  -18.5993 C   0  0  0  0  0  0  0  0  0  0  0  0
   23.8912  -16.9107  -19.2201 O   0  0  0  0  0  0  0  0  0  0  0  0
   22.6888  -18.4061  -17.7654 C   0  0  0  0  0  0  0  0  0  0  0  0
   21.3795  -18.5721  -17.0900 C   0  0  0  0  0  0  0  0  0  0  0  0
   21.2288  -19.7064  -16.1620 C   0  0  2  0  0  0  0  0  0  0  0  0
   22.5637  -20.2221  -15.8219 N   0  0  0  0  0  0  0  0  0  0  0  0
   20.3540  -20.7988  -16.5790 C   0  0  0  0  0  0  0  0  0  0  0  0
   18.9732  -20.7687  -16.5178 O   0  0  0  0  0  0  0  0  0  0  0  0
   20.8592  -21.8578  -17.0313 O   0  0  0  0  0  0  0  0  0  0  0  0
  2  4  1  0
  2  1  1  1
  3  2  1  0
  4  6  1  0
  4  5  1  1
  6  7  2  0
  8  9  1  0
  8  6  1  0
  9 10  1  1
 11 10  1  0
 12 11  1  0
 12 13  2  0
 14 23  1  0
 14  9  1  0
 15 14  2  0
 16 12  1  0
 17 18  1  0
 18 19  2  0
 18 20  1  0
 20 21  1  0
 22 21  1  6
 22 23  1  0
 22 24  1  0
 24 25  1  0
 26 24  2  0
M  END
$$$$
