VEQ.pdb
     RDKit          3D

 26 25  0  0  1  0  0  0  0  0999 V2000
   23.4411  -14.8432  -15.9319 C   0  0  0  0  0  0  0  0  0  0  0  0
   24.7514  -14.5233  -16.6086 C   0  0  1  0  0  0  0  0  0  0  0  0
   24.5493  -14.7329  -18.1125 C   0  0  0  0  0  0  0  0  0  0  0  0
   25.2060  -13.1081  -16.3891 C   0  0  2  0  0  0  0  0  0  0  0  0
   25.3242  -12.9298  -14.9466 N   0  0  0  0  0  0  0  0  0  0  0  0
   24.1611  -12.1659  -16.8698 C   0  0  0  0  0  0  0  0  0  0  0  0
   24.0268  -11.9001  -18.1094 O   0  0  0  0  0  0  0  0  0  0  0  0
   23.2708  -11.5212  -15.9925 N   0  0  0  0  0  0  0  0  0  0  0  0
   22.2349  -10.5852  -16.4819 C   0  0  1  0  0  0  0  0  0  0  0  0
   20.9221  -11.3010  -16.2681 C   0  0  0  0  0  0  0  0  0  0  0  0
   20.5500  -11.5032  -14.8533 C   0  0  0  0  0  0  0  0  0  0  0  0
   19.2714  -12.1988  -14.6346 C   0  0  0  0  0  0  0  0  0  0  0  0
   18.1735  -11.6003  -14.6382 O   0  0  0  0  0  0  0  0  0  0  0  0
   22.3444   -9.3142  -15.7241 C   0  0  0  0  0  0  0  0  0  0  0  0
   22.8512   -9.3810  -14.5580 O   0  0  0  0  0  0  0  0  0  0  0  0
   19.2376  -13.5672  -14.4126 O   0  0  0  0  0  0  0  0  0  0  0  0
   22.2896   -3.3164  -17.8424 N   0  0  0  0  0  0  0  0  0  0  0  0
   22.4090   -3.1944  -16.4233 C   0  0  0  0  0  0  0  0  0  0  0  0
   22.5182   -2.0112  -16.0017 O   0  0  0  0  0  0  0  0  0  0  0  0
   22.4028   -4.3724  -15.5440 C   0  0  0  0  0  0  0  0  0  0  0  0
   22.1827   -5.6779  -16.2113 C   0  0  0  0  0  0  0  0  0  0  0  0
   22.1607   -6.8828  -15.3638 C   0  0  2  0  0  0  0  0  0  0  0  0
   21.9292   -8.0588  -16.2165 N   0  0  0  0  0  0  0  0  0  0  0  0
   21.2374   -6.8868  -14.2324 C   0  0  0  0  0  0  0  0  0  0  0  0
   21.5166   -6.3565  -12.9866 O   0  0  0  0  0  0  0  0  0  0  0  0
   20.0977   -7.4012  -14.3657 O   0  0  0  0  0  0  0  0  0  0  0  0
  2  4  1  0
  2  1  1  1
  3  2  1  0
  4  6  1  0
  4  5  1  1
  6  7  2  0
  8  9  1  0
  8  6  1  0
  9 10  1  1
 11 10  1  0
 12 11  1  0
 12 13  2  0
 14 23  1  0
 14  9  1  0
 15 14  2  0
 16 12  1  0
 17 18  1  0
 18 19  2  0
 18 20  1  0
 20 21  1  0
 22 21  1  6
 22 23  1  0
 22 24  1  0
 24 25  1  0
 26 24  2  0
M  END
$$$$
