VEQ.pdb
     RDKit          3D

 26 25  0  0  1  0  0  0  0  0999 V2000
   28.0862  -17.5959  -17.2054 C   0  0  0  0  0  0  0  0  0  0  0  0
   27.1765  -18.4791  -16.3871 C   0  0  1  0  0  0  0  0  0  0  0  0
   26.1182  -19.0466  -17.3381 C   0  0  0  0  0  0  0  0  0  0  0  0
   27.8899  -19.6313  -15.7380 C   0  0  2  0  0  0  0  0  0  0  0  0
   28.3729  -20.4819  -16.8195 N   0  0  0  0  0  0  0  0  0  0  0  0
   26.9250  -20.4321  -14.9390 C   0  0  0  0  0  0  0  0  0  0  0  0
   26.2636  -21.3885  -15.4614 O   0  0  0  0  0  0  0  0  0  0  0  0
   26.6902  -20.1818  -13.5751 N   0  0  0  0  0  0  0  0  0  0  0  0
   25.6425  -20.9028  -12.8194 C   0  0  1  0  0  0  0  0  0  0  0  0
   25.8783  -20.5403  -11.3721 C   0  0  0  0  0  0  0  0  0  0  0  0
   24.9361  -21.1582  -10.4173 C   0  0  0  0  0  0  0  0  0  0  0  0
   25.1318  -20.7785   -9.0089 C   0  0  0  0  0  0  0  0  0  0  0  0
   25.9730  -19.9231   -8.6558 O   0  0  0  0  0  0  0  0  0  0  0  0
   24.3132  -20.4795  -13.3248 C   0  0  0  0  0  0  0  0  0  0  0  0
   24.1647  -19.2425  -13.5881 O   0  0  0  0  0  0  0  0  0  0  0  0
   24.3774  -21.3660   -8.0046 O   0  0  0  0  0  0  0  0  0  0  0  0
   21.8836  -18.7437  -17.1086 N   0  0  0  0  0  0  0  0  0  0  0  0
   20.6331  -19.4053  -16.9049 C   0  0  0  0  0  0  0  0  0  0  0  0
   19.6557  -18.8859  -17.5087 O   0  0  0  0  0  0  0  0  0  0  0  0
   20.5204  -20.5975  -16.0524 C   0  0  0  0  0  0  0  0  0  0  0  0
   21.7757  -21.0562  -15.4106 C   0  0  0  0  0  0  0  0  0  0  0  0
   21.9539  -20.7690  -13.9766 C   0  0  2  0  0  0  0  0  0  0  0  0
   23.2265  -21.3558  -13.5296 N   0  0  0  0  0  0  0  0  0  0  0  0
   20.8715  -21.1598  -13.0777 C   0  0  0  0  0  0  0  0  0  0  0  0
   21.0129  -22.0139  -11.9998 O   0  0  0  0  0  0  0  0  0  0  0  0
   19.7145  -20.7056  -13.2683 O   0  0  0  0  0  0  0  0  0  0  0  0
  2  4  1  0
  2  1  1  6
  3  2  1  0
  4  6  1  0
  4  5  1  6
  6  7  2  0
  8  9  1  0
  8  6  1  0
  9 10  1  1
 11 10  1  0
 12 11  1  0
 12 13  2  0
 14 23  1  0
 14  9  1  0
 15 14  2  0
 16 12  1  0
 17 18  1  0
 18 19  2  0
 18 20  1  0
 20 21  1  0
 22 21  1  6
 22 23  1  0
 22 24  1  0
 24 25  1  0
 26 24  2  0
M  END
$$$$
