VEQ.pdb
     RDKit          3D

 26 25  0  0  1  0  0  0  0  0999 V2000
   28.0640  -16.6925  -17.9447 C   0  0  0  0  0  0  0  0  0  0  0  0
   27.2372  -16.7819  -16.6855 C   0  0  1  0  0  0  0  0  0  0  0  0
   25.7782  -16.9705  -17.1124 C   0  0  0  0  0  0  0  0  0  0  0  0
   27.6200  -17.9350  -15.8015 C   0  0  2  0  0  0  0  0  0  0  0  0
   27.4666  -19.1420  -16.6052 N   0  0  0  0  0  0  0  0  0  0  0  0
   26.6667  -18.0330  -14.6647 C   0  0  0  0  0  0  0  0  0  0  0  0
   26.5599  -17.0972  -13.8057 O   0  0  0  0  0  0  0  0  0  0  0  0
   25.8372  -19.1528  -14.4752 N   0  0  0  0  0  0  0  0  0  0  0  0
   24.8616  -19.2213  -13.3652 C   0  0  1  0  0  0  0  0  0  0  0  0
   23.6441  -19.8975  -13.9498 C   0  0  0  0  0  0  0  0  0  0  0  0
   22.5669  -18.9785  -14.3697 C   0  0  0  0  0  0  0  0  0  0  0  0
   21.3181  -19.6301  -14.7967 C   0  0  0  0  0  0  0  0  0  0  0  0
   20.2094  -19.3518  -14.2895 O   0  0  0  0  0  0  0  0  0  0  0  0
   25.4712  -19.9729  -12.2404 C   0  0  0  0  0  0  0  0  0  0  0  0
   26.2258  -20.9525  -12.5444 O   0  0  0  0  0  0  0  0  0  0  0  0
   21.3259  -20.5932  -15.7943 O   0  0  0  0  0  0  0  0  0  0  0  0
   27.8211  -18.0846   -6.8472 N   0  0  0  0  0  0  0  0  0  0  0  0
   27.8599  -19.5087   -6.7320 C   0  0  0  0  0  0  0  0  0  0  0  0
   28.5079  -19.9415   -5.7408 O   0  0  0  0  0  0  0  0  0  0  0  0
   27.1887  -20.3806   -7.7068 C   0  0  0  0  0  0  0  0  0  0  0  0
   26.5436  -19.6956   -8.8525 C   0  0  0  0  0  0  0  0  0  0  0  0
   25.9077  -20.5371   -9.8811 C   0  0  2  0  0  0  0  0  0  0  0  0
   25.2678  -19.6655  -10.8783 N   0  0  0  0  0  0  0  0  0  0  0  0
   24.9692  -21.5577   -9.4225 C   0  0  0  0  0  0  0  0  0  0  0  0
   25.3326  -22.7994   -8.9354 O   0  0  0  0  0  0  0  0  0  0  0  0
   23.7342  -21.3238   -9.4592 O   0  0  0  0  0  0  0  0  0  0  0  0
  2  4  1  0
  2  1  1  6
  3  2  1  0
  4  6  1  0
  4  5  1  6
  6  7  2  0
  8  9  1  0
  8  6  1  0
  9 10  1  6
 11 10  1  0
 12 11  1  0
 12 13  2  0
 14 23  1  0
 14  9  1  0
 15 14  2  0
 16 12  1  0
 17 18  1  0
 18 19  2  0
 18 20  1  0
 20 21  1  0
 22 21  1  1
 22 23  1  0
 22 24  1  0
 24 25  1  0
 26 24  2  0
M  END
$$$$
