VEQ.pdb
     RDKit          3D

 26 25  0  0  1  0  0  0  0  0999 V2000
   17.1904  -18.3601  -16.9907 C   0  0  0  0  0  0  0  0  0  0  0  0
   18.2169  -17.2574  -17.0771 C   0  0  1  0  0  0  0  0  0  0  0  0
   18.0328  -16.3675  -15.8440 C   0  0  0  0  0  0  0  0  0  0  0  0
   19.6328  -17.7602  -17.0855 C   0  0  2  0  0  0  0  0  0  0  0  0
   19.7923  -18.5694  -15.8828 N   0  0  0  0  0  0  0  0  0  0  0  0
   20.5726  -16.6131  -16.9780 C   0  0  0  0  0  0  0  0  0  0  0  0
   20.8139  -16.0557  -15.8572 O   0  0  0  0  0  0  0  0  0  0  0  0
   21.2416  -16.0837  -18.0960 N   0  0  0  0  0  0  0  0  0  0  0  0
   22.1415  -14.9147  -17.9846 C   0  0  1  0  0  0  0  0  0  0  0  0
   23.2183  -15.1443  -19.0186 C   0  0  0  0  0  0  0  0  0  0  0  0
   24.3371  -15.9972  -18.5690 C   0  0  0  0  0  0  0  0  0  0  0  0
   24.7380  -17.0537  -19.5120 C   0  0  0  0  0  0  0  0  0  0  0  0
   24.1968  -17.1947  -20.6305 O   0  0  0  0  0  0  0  0  0  0  0  0
   21.3515  -13.6808  -18.2191 C   0  0  0  0  0  0  0  0  0  0  0  0
   20.2069  -13.8238  -18.7585 O   0  0  0  0  0  0  0  0  0  0  0  0
   25.7481  -17.9470  -19.1885 O   0  0  0  0  0  0  0  0  0  0  0  0
   17.0411  -10.6884  -16.3682 N   0  0  0  0  0  0  0  0  0  0  0  0
   18.1760  -10.4215  -15.5414 C   0  0  0  0  0  0  0  0  0  0  0  0
   17.9164   -9.8155  -14.4667 O   0  0  0  0  0  0  0  0  0  0  0  0
   19.5316  -10.8315  -15.9354 C   0  0  0  0  0  0  0  0  0  0  0  0
   19.6427  -11.5412  -17.2323 C   0  0  0  0  0  0  0  0  0  0  0  0
   20.8353  -11.2763  -18.0557 C   0  0  2  0  0  0  0  0  0  0  0  0
   21.7886  -12.3826  -17.8804 N   0  0  0  0  0  0  0  0  0  0  0  0
   21.5065   -9.9933  -17.8656 C   0  0  0  0  0  0  0  0  0  0  0  0
   20.9596   -8.7640  -18.1834 O   0  0  0  0  0  0  0  0  0  0  0  0
   22.6662   -9.9677  -17.3801 O   0  0  0  0  0  0  0  0  0  0  0  0
  2  4  1  0
  2  1  1  1
  3  2  1  0
  4  6  1  0
  4  5  1  1
  6  7  2  0
  8  9  1  0
  8  6  1  0
  9 10  1  6
 11 10  1  0
 12 11  1  0
 12 13  2  0
 14 23  1  0
 14  9  1  0
 15 14  2  0
 16 12  1  0
 17 18  1  0
 18 19  2  0
 18 20  1  0
 20 21  1  0
 22 21  1  1
 22 23  1  0
 22 24  1  0
 24 25  1  0
 26 24  2  0
M  END
$$$$
