VEQ.pdb
     RDKit          3D

 26 25  0  0  1  0  0  0  0  0999 V2000
   23.6734   -9.2800  -15.1005 C   0  0  0  0  0  0  0  0  0  0  0  0
   23.4224  -10.6418  -15.7003 C   0  0  1  0  0  0  0  0  0  0  0  0
   24.4331  -11.6075  -15.0740 C   0  0  0  0  0  0  0  0  0  0  0  0
   22.0412  -11.1674  -15.4291 C   0  0  2  0  0  0  0  0  0  0  0  0
   21.9665  -12.4806  -16.0588 N   0  0  0  0  0  0  0  0  0  0  0  0
   21.0347  -10.2975  -16.0930 C   0  0  0  0  0  0  0  0  0  0  0  0
   20.8852  -10.3025  -17.3590 O   0  0  0  0  0  0  0  0  0  0  0  0
   20.1990   -9.4287  -15.3686 N   0  0  0  0  0  0  0  0  0  0  0  0
   19.2485   -8.5181  -16.0439 C   0  0  1  0  0  0  0  0  0  0  0  0
   17.8787   -8.9819  -15.6080 C   0  0  0  0  0  0  0  0  0  0  0  0
   16.7610   -8.1361  -16.0735 C   0  0  0  0  0  0  0  0  0  0  0  0
   15.4266   -8.5499  -15.6104 C   0  0  0  0  0  0  0  0  0  0  0  0
   14.3742   -8.1489  -16.1539 O   0  0  0  0  0  0  0  0  0  0  0  0
   19.5555   -7.1237  -15.6403 C   0  0  0  0  0  0  0  0  0  0  0  0
   19.8897   -6.9361  -14.4261 O   0  0  0  0  0  0  0  0  0  0  0  0
   15.2857   -9.4144  -14.5354 O   0  0  0  0  0  0  0  0  0  0  0  0
   22.7859   -2.7442  -18.4574 N   0  0  0  0  0  0  0  0  0  0  0  0
   22.1969   -2.0241  -17.3722 C   0  0  0  0  0  0  0  0  0  0  0  0
   22.6132   -0.8421  -17.2343 O   0  0  0  0  0  0  0  0  0  0  0  0
   21.1860   -2.6362  -16.4980 C   0  0  0  0  0  0  0  0  0  0  0  0
   20.8027   -4.0300  -16.8275 C   0  0  0  0  0  0  0  0  0  0  0  0
   19.8205   -4.6931  -15.9522 C   0  0  2  0  0  0  0  0  0  0  0  0
   19.5024   -6.0155  -16.5122 N   0  0  0  0  0  0  0  0  0  0  0  0
   18.5934   -3.9612  -15.6506 C   0  0  0  0  0  0  0  0  0  0  0  0
   18.4821   -2.9725  -14.6908 O   0  0  0  0  0  0  0  0  0  0  0  0
   17.5434   -4.2234  -16.2910 O   0  0  0  0  0  0  0  0  0  0  0  0
  2  4  1  0
  2  1  1  1
  3  2  1  0
  4  6  1  0
  4  5  1  6
  6  7  2  0
  8  9  1  0
  8  6  1  0
  9 10  1  1
 11 10  1  0
 12 11  1  0
 12 13  2  0
 14 23  1  0
 14  9  1  0
 15 14  2  0
 16 12  1  0
 17 18  1  0
 18 19  2  0
 18 20  1  0
 20 21  1  0
 22 21  1  6
 22 23  1  0
 22 24  1  0
 24 25  1  0
 26 24  2  0
M  END
$$$$
