VEQ.pdb
     RDKit          3D

 26 25  0  0  1  0  0  0  0  0999 V2000
   14.8197   -6.3932   -8.1489 C   0  0  0  0  0  0  0  0  0  0  0  0
   14.1543   -7.6708   -7.6993 C   0  0  1  0  0  0  0  0  0  0  0  0
   12.9323   -7.2770   -6.8637 C   0  0  0  0  0  0  0  0  0  0  0  0
   13.6860   -8.5319   -8.8381 C   0  0  2  0  0  0  0  0  0  0  0  0
   13.2816   -9.8059   -8.2551 N   0  0  0  0  0  0  0  0  0  0  0  0
   14.8203   -8.8042   -9.7599 C   0  0  0  0  0  0  0  0  0  0  0  0
   15.8189   -9.5071   -9.3938 O   0  0  0  0  0  0  0  0  0  0  0  0
   14.8551   -8.3064  -11.0748 N   0  0  0  0  0  0  0  0  0  0  0  0
   15.9709   -8.6151  -11.9959 C   0  0  1  0  0  0  0  0  0  0  0  0
   15.3253   -9.2713  -13.1934 C   0  0  0  0  0  0  0  0  0  0  0  0
   16.2486   -9.5775  -14.3047 C   0  0  0  0  0  0  0  0  0  0  0  0
   15.6345  -10.2445  -15.4642 C   0  0  0  0  0  0  0  0  0  0  0  0
   15.9530   -9.9699  -16.6419 O   0  0  0  0  0  0  0  0  0  0  0  0
   16.6803   -7.3541  -12.3249 C   0  0  0  0  0  0  0  0  0  0  0  0
   16.0020   -6.2784  -12.2610 O   0  0  0  0  0  0  0  0  0  0  0  0
   14.6631  -11.2186  -15.2895 O   0  0  0  0  0  0  0  0  0  0  0  0
   22.9296   -6.1899  -13.0410 N   0  0  0  0  0  0  0  0  0  0  0  0
   22.2856   -4.9624  -13.3894 C   0  0  0  0  0  0  0  0  0  0  0  0
   23.0655   -4.0405  -13.7521 O   0  0  0  0  0  0  0  0  0  0  0  0
   20.8250   -4.8106  -13.3217 C   0  0  0  0  0  0  0  0  0  0  0  0
   20.0633   -6.0281  -12.9535 C   0  0  0  0  0  0  0  0  0  0  0  0
   18.5927   -5.9540  -13.0012 C   0  0  2  0  0  0  0  0  0  0  0  0
   18.0403   -7.2821  -12.6939 N   0  0  0  0  0  0  0  0  0  0  0  0
   17.9900   -5.4236  -14.2211 C   0  0  0  0  0  0  0  0  0  0  0  0
   17.7842   -4.0810  -14.4781 O   0  0  0  0  0  0  0  0  0  0  0  0
   17.6200   -6.2170  -15.1239 O   0  0  0  0  0  0  0  0  0  0  0  0
  2  4  1  0
  2  1  1  6
  3  2  1  0
  4  6  1  0
  4  5  1  1
  6  7  2  0
  8  9  1  0
  8  6  1  0
  9 10  1  6
 11 10  1  0
 12 11  1  0
 12 13  2  0
 14 23  1  0
 14  9  1  0
 15 14  2  0
 16 12  1  0
 17 18  1  0
 18 19  2  0
 18 20  1  0
 20 21  1  0
 22 21  1  6
 22 23  1  0
 22 24  1  0
 24 25  1  0
 26 24  2  0
M  END
$$$$
