VEQ.pdb
     RDKit          3D

 26 25  0  0  1  0  0  0  0  0999 V2000
   12.7650  -10.5127  -11.9158 C   0  0  0  0  0  0  0  0  0  0  0  0
   13.3826  -11.8269  -11.5050 C   0  0  1  0  0  0  0  0  0  0  0  0
   12.5829  -12.9389  -12.1907 C   0  0  0  0  0  0  0  0  0  0  0  0
   14.8218  -11.9632  -11.9147 C   0  0  2  0  0  0  0  0  0  0  0  0
   15.2731  -13.2579  -11.4181 N   0  0  0  0  0  0  0  0  0  0  0  0
   15.6363  -10.9188  -11.2390 C   0  0  0  0  0  0  0  0  0  0  0  0
   15.7769  -10.9035   -9.9721 O   0  0  0  0  0  0  0  0  0  0  0  0
   16.2909   -9.8990  -11.9528 N   0  0  0  0  0  0  0  0  0  0  0  0
   17.1544   -8.9056  -11.2774 C   0  0  1  0  0  0  0  0  0  0  0  0
   18.3369   -8.7182  -12.1983 C   0  0  0  0  0  0  0  0  0  0  0  0
   19.2776   -7.6553  -11.7901 C   0  0  0  0  0  0  0  0  0  0  0  0
   20.4318   -7.4629  -12.6830 C   0  0  0  0  0  0  0  0  0  0  0  0
   20.6022   -8.1478  -13.7153 O   0  0  0  0  0  0  0  0  0  0  0  0
   16.3725   -7.6633  -11.0605 C   0  0  0  0  0  0  0  0  0  0  0  0
   15.5801   -7.3117  -11.9931 O   0  0  0  0  0  0  0  0  0  0  0  0
   21.3889   -6.4983  -12.4068 O   0  0  0  0  0  0  0  0  0  0  0  0
   14.2177   -5.3409   -5.6697 N   0  0  0  0  0  0  0  0  0  0  0  0
   13.7786   -4.3891   -6.6414 C   0  0  0  0  0  0  0  0  0  0  0  0
   13.0412   -3.4725   -6.1880 O   0  0  0  0  0  0  0  0  0  0  0  0
   14.1697   -4.4923   -8.0547 C   0  0  0  0  0  0  0  0  0  0  0  0
   15.0520   -5.6322   -8.4014 C   0  0  0  0  0  0  0  0  0  0  0  0
   15.5345   -5.7245   -9.7903 C   0  0  2  0  0  0  0  0  0  0  0  0
   16.4542   -6.8673   -9.8984 N   0  0  0  0  0  0  0  0  0  0  0  0
   16.1418   -4.5282  -10.3672 C   0  0  0  0  0  0  0  0  0  0  0  0
   15.4377   -3.4268  -10.8171 O   0  0  0  0  0  0  0  0  0  0  0  0
   17.3926   -4.4611  -10.4776 O   0  0  0  0  0  0  0  0  0  0  0  0
  2  4  1  0
  2  1  1  6
  3  2  1  0
  4  6  1  0
  4  5  1  1
  6  7  2  0
  8  9  1  0
  8  6  1  0
  9 10  1  6
 11 10  1  0
 12 11  1  0
 12 13  2  0
 14 23  1  0
 14  9  1  0
 15 14  2  0
 16 12  1  0
 17 18  1  0
 18 19  2  0
 18 20  1  0
 20 21  1  0
 22 21  1  1
 22 23  1  0
 22 24  1  0
 24 25  1  0
 26 24  2  0
M  END
$$$$
