IRC.pdb
     RDKit          3D

 26 25  0  0  1  0  0  0  0  0999 V2000
   22.8620   -8.4635  -13.5393 C   0  0  0  0  0  0  0  0  0  0  0  0
   21.6375   -9.2157  -13.1034 C   0  0  0  0  0  0  0  0  0  0  0  0
   20.5257   -8.3609  -12.6065 C   0  0  2  0  0  0  0  0  0  0  0  0
   21.0702   -7.5296  -11.4476 C   0  0  0  0  0  0  0  0  0  0  0  0
   19.2826   -9.1026  -12.1730 C   0  0  2  0  0  0  0  0  0  0  0  0
   18.8147   -9.8459  -13.3692 N   0  0  0  0  0  0  0  0  0  0  0  0
   18.2005   -8.1884  -11.7466 C   0  0  0  0  0  0  0  0  0  0  0  0
   17.5865   -7.4580  -12.6080 O   0  0  0  0  0  0  0  0  0  0  0  0
   11.0916  -10.1381   -8.2060 N   0  0  0  0  0  0  0  0  0  0  0  0
   12.1593  -10.8577   -8.8350 C   0  0  0  0  0  0  0  0  0  0  0  0
   12.1363  -12.1390   -8.8613 N   0  0  0  0  0  0  0  0  0  0  0  0
   13.2245  -10.1257   -9.4168 N   0  0  0  0  0  0  0  0  0  0  0  0
   13.1687   -8.6715   -9.5861 C   0  0  0  0  0  0  0  0  0  0  0  0
   14.4375   -8.2716  -10.2667 C   0  0  0  0  0  0  0  0  0  0  0  0
   15.5084   -7.6744   -9.4611 C   0  0  0  0  0  0  0  0  0  0  0  0
   16.7185   -7.0994  -10.0917 C   0  0  2  0  0  0  0  0  0  0  0  0
   17.7596   -8.0404  -10.4196 N   0  0  0  0  0  0  0  0  0  0  0  0
   17.2651   -5.9197   -9.3565 C   0  0  0  0  0  0  0  0  0  0  0  0
   17.9162   -6.0941   -8.2916 O   0  0  0  0  0  0  0  0  0  0  0  0
   12.7974  -12.7861   -9.2751 N   0  0  0  0  0  0  0  0  0  0  0  0
   17.0739   -4.6012   -9.8214 C   0  0  1  0  0  0  0  0  0  0  0  0
   17.5359   -3.4167   -9.1201 C   0  0  0  0  0  0  0  0  0  0  0  0
   18.2082   -2.4385  -10.0588 S   0  0  0  0  0  0  0  0  0  0  0  0
   19.4811   -3.3519  -10.9760 C   0  0  0  0  0  0  0  0  0  0  0  0
   16.4282   -2.7459   -8.3932 O   0  0  0  0  0  0  0  0  0  0  0  0
   16.6870   -1.6559   -7.5411 O   0  0  0  0  0  0  0  0  0  0  0  0
  2  1  1  0
  3  2  1  0
  3  4  1  1
  5  3  1  0
  5  6  1  6
  7  5  1  0
  8  7  2  0
 10  9  1  0
 10 12  1  0
 11 10  2  0
 13 12  1  0
 13 14  1  0
 15 14  1  0
 16 17  1  0
 16 15  1  1
 17  7  1  0
 18 16  1  0
 19 18  2  0
 20 18  1  0
 21 20  1  0
 21 22  1  1
 23 22  1  0
 24 25  1  0
 24 21  1  0
 26 24  2  0
M  END
$$$$
