IRC.pdb
     RDKit          3D

 26 25  0  0  1  0  0  0  0  0999 V2000
   21.5900  -28.5143  -18.3781 C   0  0  0  0  0  0  0  0  0  0  0  0
   22.5963  -28.4954  -17.2635 C   0  0  0  0  0  0  0  0  0  0  0  0
   22.2912  -27.5389  -16.1655 C   0  0  2  0  0  0  0  0  0  0  0  0
   20.9009  -27.8796  -15.6349 C   0  0  0  0  0  0  0  0  0  0  0  0
   22.3579  -26.0772  -16.5429 C   0  0  2  0  0  0  0  0  0  0  0  0
   23.7766  -25.8104  -16.8867 N   0  0  0  0  0  0  0  0  0  0  0  0
   21.9805  -25.1879  -15.4225 C   0  0  0  0  0  0  0  0  0  0  0  0
   22.7686  -25.0331  -14.4188 O   0  0  0  0  0  0  0  0  0  0  0  0
   20.7486  -17.1309  -14.9617 N   0  0  0  0  0  0  0  0  0  0  0  0
   21.7773  -18.1276  -15.0027 C   0  0  0  0  0  0  0  0  0  0  0  0
   22.9122  -17.8515  -15.5304 N   0  0  0  0  0  0  0  0  0  0  0  0
   21.5093  -19.4065  -14.4536 N   0  0  0  0  0  0  0  0  0  0  0  0
   20.2356  -19.7229  -13.8025 C   0  0  0  0  0  0  0  0  0  0  0  0
   20.2920  -21.1700  -13.4339 C   0  0  0  0  0  0  0  0  0  0  0  0
   20.5883  -22.1510  -14.4838 C   0  0  0  0  0  0  0  0  0  0  0  0
   20.5014  -23.6065  -14.2258 C   0  0  2  0  0  0  0  0  0  0  0  0
   20.7800  -24.4591  -15.3538 N   0  0  0  0  0  0  0  0  0  0  0  0
   19.2383  -24.0112  -13.5385 C   0  0  0  0  0  0  0  0  0  0  0  0
   18.1575  -24.0432  -14.1860 O   0  0  0  0  0  0  0  0  0  0  0  0
   23.7112  -18.4541  -15.6905 N   0  0  0  0  0  0  0  0  0  0  0  0
   19.2164  -24.3631  -12.1722 C   0  0  2  0  0  0  0  0  0  0  0  0
   18.0093  -24.6991  -11.4385 C   0  0  0  0  0  0  0  0  0  0  0  0
   18.3178  -25.1174  -10.0172 S   0  0  0  0  0  0  0  0  0  0  0  0
   19.4059  -26.5682  -10.1011 C   0  0  0  0  0  0  0  0  0  0  0  0
   17.0391  -23.5749  -11.4394 O   0  0  0  0  0  0  0  0  0  0  0  0
   17.4881  -22.2412  -11.4102 O   0  0  0  0  0  0  0  0  0  0  0  0
  2  1  1  0
  3  2  1  0
  3  4  1  6
  5  3  1  0
  5  6  1  1
  7  5  1  0
  8  7  2  0
 10  9  1  0
 10 12  1  0
 11 10  2  0
 13 12  1  0
 13 14  1  0
 15 14  1  0
 16 17  1  0
 16 15  1  6
 17  7  1  0
 18 16  1  0
 19 18  2  0
 20 18  1  0
 21 20  1  0
 21 22  1  6
 23 22  1  0
 24 25  1  0
 24 21  1  0
 26 24  2  0
M  END
$$$$
