IRC.pdb
     RDKit          3D

 26 25  0  0  1  0  0  0  0  0999 V2000
   21.3016  -17.1223  -21.5637 C   0  0  0  0  0  0  0  0  0  0  0  0
   20.2889  -17.2456  -20.4616 C   0  0  0  0  0  0  0  0  0  0  0  0
   20.8474  -17.6612  -19.1467 C   0  0  2  0  0  0  0  0  0  0  0  0
   21.5047  -19.0255  -19.3392 C   0  0  0  0  0  0  0  0  0  0  0  0
   19.8530  -17.7209  -18.0105 C   0  0  2  0  0  0  0  0  0  0  0  0
   19.4734  -16.3143  -17.7281 N   0  0  0  0  0  0  0  0  0  0  0  0
   20.4375  -18.2961  -16.7792 C   0  0  0  0  0  0  0  0  0  0  0  0
   21.1574  -17.5714  -15.9989 O   0  0  0  0  0  0  0  0  0  0  0  0
   18.8599  -24.7535  -10.3161 N   0  0  0  0  0  0  0  0  0  0  0  0
   19.1462  -23.3913   -9.9754 C   0  0  0  0  0  0  0  0  0  0  0  0
   18.8110  -22.9379   -8.8243 N   0  0  0  0  0  0  0  0  0  0  0  0
   19.7985  -22.5725  -10.9308 N   0  0  0  0  0  0  0  0  0  0  0  0
   19.2141  -22.2924  -12.2448 C   0  0  0  0  0  0  0  0  0  0  0  0
   20.1862  -21.4166  -12.9668 C   0  0  0  0  0  0  0  0  0  0  0  0
   19.8179  -20.9005  -14.2898 C   0  0  0  0  0  0  0  0  0  0  0  0
   20.7521  -20.0657  -15.0791 C   0  0  2  0  0  0  0  0  0  0  0  0
   20.2669  -19.6285  -16.3638 N   0  0  0  0  0  0  0  0  0  0  0  0
   22.1220  -20.6512  -15.1870 C   0  0  0  0  0  0  0  0  0  0  0  0
   22.3244  -21.6298  -15.9550 O   0  0  0  0  0  0  0  0  0  0  0  0
   18.9807  -22.0252   -8.4179 N   0  0  0  0  0  0  0  0  0  0  0  0
   23.2093  -20.1379  -14.4484 C   0  0  2  0  0  0  0  0  0  0  0  0
   24.5510  -20.6917  -14.4853 C   0  0  0  0  0  0  0  0  0  0  0  0
   25.6042  -19.6133  -14.3505 S   0  0  0  0  0  0  0  0  0  0  0  0
   27.2246  -20.4319  -14.3542 C   0  0  0  0  0  0  0  0  0  0  0  0
   24.7437  -21.7257  -13.4370 O   0  0  0  0  0  0  0  0  0  0  0  0
   25.8339  -22.6139  -13.4987 O   0  0  0  0  0  0  0  0  0  0  0  0
  2  1  1  0
  3  2  1  0
  3  4  1  6
  5  3  1  0
  5  6  1  1
  7  5  1  0
  8  7  2  0
 10  9  1  0
 10 12  1  0
 11 10  2  0
 13 12  1  0
 13 14  1  0
 15 14  1  0
 16 17  1  0
 16 15  1  6
 17  7  1  0
 18 16  1  0
 19 18  2  0
 20 18  1  0
 21 20  1  0
 21 22  1  1
 23 22  1  0
 24 25  1  0
 24 21  1  0
 26 24  2  0
M  END
$$$$
