IRC.pdb
     RDKit          3D

 26 25  0  0  1  0  0  0  0  0999 V2000
   22.3781  -14.5872  -19.0071 C   0  0  0  0  0  0  0  0  0  0  0  0
   22.7036  -13.5149  -18.0074 C   0  0  0  0  0  0  0  0  0  0  0  0
   23.9818  -12.7963  -18.2592 C   0  0  2  0  0  0  0  0  0  0  0  0
   25.1038  -13.8307  -18.2205 C   0  0  0  0  0  0  0  0  0  0  0  0
   24.2872  -11.6648  -17.3053 C   0  0  2  0  0  0  0  0  0  0  0  0
   24.1531  -12.2350  -15.9418 N   0  0  0  0  0  0  0  0  0  0  0  0
   23.3282  -10.5455  -17.4327 C   0  0  0  0  0  0  0  0  0  0  0  0
   23.3345   -9.7970  -18.4777 O   0  0  0  0  0  0  0  0  0  0  0  0
   16.8241  -13.0094  -16.3134 N   0  0  0  0  0  0  0  0  0  0  0  0
   16.6657  -12.1783  -15.1568 C   0  0  0  0  0  0  0  0  0  0  0  0
   16.1758  -12.6711  -14.0797 N   0  0  0  0  0  0  0  0  0  0  0  0
   17.0581  -10.8187  -15.2357 N   0  0  0  0  0  0  0  0  0  0  0  0
   17.7274  -10.2688  -16.4173 C   0  0  0  0  0  0  0  0  0  0  0  0
   19.1532  -10.0397  -16.0329 C   0  0  0  0  0  0  0  0  0  0  0  0
   20.0678   -9.4759  -17.0318 C   0  0  0  0  0  0  0  0  0  0  0  0
   21.4592   -9.1085  -16.6828 C   0  0  2  0  0  0  0  0  0  0  0  0
   22.3617  -10.2112  -16.4677 N   0  0  0  0  0  0  0  0  0  0  0  0
   21.5475   -8.1108  -15.5746 C   0  0  0  0  0  0  0  0  0  0  0  0
   21.4939   -8.5007  -14.3773 O   0  0  0  0  0  0  0  0  0  0  0  0
   16.0051  -12.2232  -13.1868 N   0  0  0  0  0  0  0  0  0  0  0  0
   21.6908   -6.7301  -15.8282 C   0  0  1  0  0  0  0  0  0  0  0  0
   21.7263   -5.7127  -14.7928 C   0  0  0  0  0  0  0  0  0  0  0  0
   22.7251   -4.6225  -15.1151 S   0  0  0  0  0  0  0  0  0  0  0  0
   22.6891   -3.4298  -13.7468 C   0  0  0  0  0  0  0  0  0  0  0  0
   20.3837   -5.1216  -14.5622 O   0  0  0  0  0  0  0  0  0  0  0  0
   19.4585   -5.0117  -15.6174 O   0  0  0  0  0  0  0  0  0  0  0  0
  2  1  1  0
  3  2  1  0
  3  4  1  1
  5  3  1  0
  5  6  1  1
  7  5  1  0
  8  7  2  0
 10  9  1  0
 10 12  1  0
 11 10  2  0
 13 12  1  0
 13 14  1  0
 15 14  1  0
 16 17  1  0
 16 15  1  1
 17  7  1  0
 18 16  1  0
 19 18  2  0
 20 18  1  0
 21 20  1  0
 21 22  1  6
 23 22  1  0
 24 25  1  0
 24 21  1  0
 26 24  2  0
M  END
$$$$
