IRC.pdb
     RDKit          3D

 26 25  0  0  1  0  0  0  0  0999 V2000
   27.1554  -14.0439  -19.1523 C   0  0  0  0  0  0  0  0  0  0  0  0
   26.2400  -14.0553  -17.9618 C   0  0  0  0  0  0  0  0  0  0  0  0
   25.6566  -15.3851  -17.6380 C   0  0  2  0  0  0  0  0  0  0  0  0
   24.9885  -15.9128  -18.9052 C   0  0  0  0  0  0  0  0  0  0  0  0
   24.6740  -15.3989  -16.4901 C   0  0  2  0  0  0  0  0  0  0  0  0
   25.4448  -14.9886  -15.2901 N   0  0  0  0  0  0  0  0  0  0  0  0
   24.1169  -16.7466  -16.2409 C   0  0  0  0  0  0  0  0  0  0  0  0
   23.3544  -17.3081  -17.1102 O   0  0  0  0  0  0  0  0  0  0  0  0
   24.1576  -24.0999  -14.4470 N   0  0  0  0  0  0  0  0  0  0  0  0
   25.4918  -23.5829  -14.3697 C   0  0  0  0  0  0  0  0  0  0  0  0
   26.4188  -24.1002  -15.0881 N   0  0  0  0  0  0  0  0  0  0  0  0
   25.7542  -22.5023  -13.4909 N   0  0  0  0  0  0  0  0  0  0  0  0
   24.7008  -21.8825  -12.6829 C   0  0  0  0  0  0  0  0  0  0  0  0
   23.9118  -21.0109  -13.6053 C   0  0  0  0  0  0  0  0  0  0  0  0
   24.5205  -19.7660  -14.0871 C   0  0  0  0  0  0  0  0  0  0  0  0
   23.7581  -18.8062  -14.9180 C   0  0  2  0  0  0  0  0  0  0  0  0
   24.3597  -17.5071  -15.0834 N   0  0  0  0  0  0  0  0  0  0  0  0
   22.3218  -18.6929  -14.5238 C   0  0  0  0  0  0  0  0  0  0  0  0
   22.0073  -18.0465  -13.4886 O   0  0  0  0  0  0  0  0  0  0  0  0
   27.4031  -23.8638  -15.1363 N   0  0  0  0  0  0  0  0  0  0  0  0
   21.2942  -19.2931  -15.2820 C   0  0  2  0  0  0  0  0  0  0  0  0
   19.8958  -19.3040  -14.8912 C   0  0  0  0  0  0  0  0  0  0  0  0
   19.0483  -18.4682  -15.8256 S   0  0  0  0  0  0  0  0  0  0  0  0
   17.3319  -18.5727  -15.2435 C   0  0  0  0  0  0  0  0  0  0  0  0
   19.3603  -20.6872  -14.8179 O   0  0  0  0  0  0  0  0  0  0  0  0
   18.4943  -21.0657  -13.7748 O   0  0  0  0  0  0  0  0  0  0  0  0
  2  1  1  0
  3  2  1  0
  3  4  1  6
  5  3  1  0
  5  6  1  1
  7  5  1  0
  8  7  2  0
 10  9  1  0
 10 12  1  0
 11 10  2  0
 13 12  1  0
 13 14  1  0
 15 14  1  0
 16 17  1  0
 16 15  1  1
 17  7  1  0
 18 16  1  0
 19 18  2  0
 20 18  1  0
 21 20  1  0
 21 22  1  6
 23 22  1  0
 24 25  1  0
 24 21  1  0
 26 24  2  0
M  END
$$$$
