IRC.pdb
     RDKit          3D

 26 25  0  0  1  0  0  0  0  0999 V2000
   28.6930  -19.8911   -5.0741 C   0  0  0  0  0  0  0  0  0  0  0  0
   27.2816  -20.1230   -5.5317 C   0  0  0  0  0  0  0  0  0  0  0  0
   27.0314  -19.8062   -6.9637 C   0  0  2  0  0  0  0  0  0  0  0  0
   27.3551  -18.3285   -7.1689 C   0  0  0  0  0  0  0  0  0  0  0  0
   25.6351  -20.1043   -7.4585 C   0  0  2  0  0  0  0  0  0  0  0  0
   25.3463  -21.4999   -7.0444 N   0  0  0  0  0  0  0  0  0  0  0  0
   25.5315  -20.0306   -8.9325 C   0  0  0  0  0  0  0  0  0  0  0  0
   25.5331  -18.8926   -9.5302 O   0  0  0  0  0  0  0  0  0  0  0  0
   25.4719  -23.0917  -16.9487 N   0  0  0  0  0  0  0  0  0  0  0  0
   26.1381  -24.0038  -16.0667 C   0  0  0  0  0  0  0  0  0  0  0  0
   26.9014  -24.9140  -16.5483 N   0  0  0  0  0  0  0  0  0  0  0  0
   25.9325  -23.8745  -14.6704 N   0  0  0  0  0  0  0  0  0  0  0  0
   25.0757  -22.8303  -14.1030 C   0  0  0  0  0  0  0  0  0  0  0  0
   25.9873  -21.7998  -13.5196 C   0  0  0  0  0  0  0  0  0  0  0  0
   26.1602  -21.7591  -12.0633 C   0  0  0  0  0  0  0  0  0  0  0  0
   25.2451  -20.9783  -11.1997 C   0  0  2  0  0  0  0  0  0  0  0  0
   25.4286  -21.1476   -9.7804 N   0  0  0  0  0  0  0  0  0  0  0  0
   23.8078  -21.1182  -11.5817 C   0  0  0  0  0  0  0  0  0  0  0  0
   23.1069  -22.0238  -11.0553 O   0  0  0  0  0  0  0  0  0  0  0  0
   27.3971  -25.6574  -16.0702 N   0  0  0  0  0  0  0  0  0  0  0  0
   23.2028  -20.2591  -12.5235 C   0  0  1  0  0  0  0  0  0  0  0  0
   21.8164  -20.3601  -12.9431 C   0  0  0  0  0  0  0  0  0  0  0  0
   20.9311  -19.3971  -12.1823 S   0  0  0  0  0  0  0  0  0  0  0  0
   19.2247  -19.6721  -12.7378 C   0  0  0  0  0  0  0  0  0  0  0  0
   21.6710  -20.1397  -14.4045 O   0  0  0  0  0  0  0  0  0  0  0  0
   20.6255  -20.7521  -15.1208 O   0  0  0  0  0  0  0  0  0  0  0  0
  2  1  1  0
  3  2  1  0
  3  4  1  1
  5  3  1  0
  5  6  1  6
  7  5  1  0
  8  7  2  0
 10  9  1  0
 10 12  1  0
 11 10  2  0
 13 12  1  0
 13 14  1  0
 15 14  1  0
 16 17  1  0
 16 15  1  6
 17  7  1  0
 18 16  1  0
 19 18  2  0
 20 18  1  0
 21 20  1  0
 21 22  1  6
 23 22  1  0
 24 25  1  0
 24 21  1  0
 26 24  2  0
M  END
$$$$
