IRC.pdb
     RDKit          3D

 26 25  0  0  1  0  0  0  0  0999 V2000
   17.3184  -16.4472  -15.4680 C   0  0  0  0  0  0  0  0  0  0  0  0
   17.1168  -15.2532  -16.3563 C   0  0  0  0  0  0  0  0  0  0  0  0
   17.5768  -13.9621  -15.7775 C   0  0  2  0  0  0  0  0  0  0  0  0
   16.8553  -13.7747  -14.4453 C   0  0  0  0  0  0  0  0  0  0  0  0
   17.3692  -12.7489  -16.6543 C   0  0  2  0  0  0  0  0  0  0  0  0
   17.9644  -13.0914  -17.9699 N   0  0  0  0  0  0  0  0  0  0  0  0
   18.0632  -11.5510  -16.1328 C   0  0  0  0  0  0  0  0  0  0  0  0
   17.7020  -11.0213  -15.0186 O   0  0  0  0  0  0  0  0  0  0  0  0
   22.0666   -5.0802  -15.6399 N   0  0  0  0  0  0  0  0  0  0  0  0
   22.2243   -5.8227  -14.4245 C   0  0  0  0  0  0  0  0  0  0  0  0
   22.0063   -5.2537  -13.2968 N   0  0  0  0  0  0  0  0  0  0  0  0
   22.6221   -7.1808  -14.5022 N   0  0  0  0  0  0  0  0  0  0  0  0
   22.9019   -7.8381  -15.7814 C   0  0  0  0  0  0  0  0  0  0  0  0
   21.5902   -7.9854  -16.4819 C   0  0  0  0  0  0  0  0  0  0  0  0
   21.0400   -9.3329  -16.6659 C   0  0  0  0  0  0  0  0  0  0  0  0
   19.6476   -9.6566  -16.2796 C   0  0  2  0  0  0  0  0  0  0  0  0
   19.1361  -10.9091  -16.7761 N   0  0  0  0  0  0  0  0  0  0  0  0
   18.6884   -8.5399  -16.5333 C   0  0  0  0  0  0  0  0  0  0  0  0
   18.3763   -8.2413  -17.7172 O   0  0  0  0  0  0  0  0  0  0  0  0
   22.1447   -5.6108  -12.3585 N   0  0  0  0  0  0  0  0  0  0  0  0
   18.1139   -7.8004  -15.4777 C   0  0  2  0  0  0  0  0  0  0  0  0
   17.2519   -6.6474  -15.6677 C   0  0  0  0  0  0  0  0  0  0  0  0
   16.0345   -6.7064  -14.7708 S   0  0  0  0  0  0  0  0  0  0  0  0
   15.2106   -8.2951  -15.0756 C   0  0  0  0  0  0  0  0  0  0  0  0
   17.9856   -5.3752  -15.4477 O   0  0  0  0  0  0  0  0  0  0  0  0
   17.3866   -4.3159  -14.7404 O   0  0  0  0  0  0  0  0  0  0  0  0
  2  1  1  0
  3  2  1  0
  3  4  1  1
  5  3  1  0
  5  6  1  6
  7  5  1  0
  8  7  2  0
 10  9  1  0
 10 12  1  0
 11 10  2  0
 13 12  1  0
 13 14  1  0
 15 14  1  0
 16 17  1  0
 16 15  1  6
 17  7  1  0
 18 16  1  0
 19 18  2  0
 20 18  1  0
 21 20  1  0
 21 22  1  1
 23 22  1  0
 24 25  1  0
 24 21  1  0
 26 24  2  0
M  END
$$$$
