IRC.pdb
     RDKit          3D

 26 25  0  0  1  0  0  0  0  0999 V2000
   22.7999  -19.1861  -20.2305 C   0  0  0  0  0  0  0  0  0  0  0  0
   21.8310  -19.2978  -19.0886 C   0  0  0  0  0  0  0  0  0  0  0  0
   22.4444  -19.1808  -17.7381 C   0  0  2  0  0  0  0  0  0  0  0  0
   23.4897  -20.2863  -17.6128 C   0  0  0  0  0  0  0  0  0  0  0  0
   21.4768  -19.2489  -16.5794 C   0  0  2  0  0  0  0  0  0  0  0  0
   20.6475  -18.0215  -16.6695 N   0  0  0  0  0  0  0  0  0  0  0  0
   22.1645  -19.2448  -15.2695 C   0  0  0  0  0  0  0  0  0  0  0  0
   22.7461  -18.1813  -14.8416 O   0  0  0  0  0  0  0  0  0  0  0  0
   19.8292  -22.5860   -7.9579 N   0  0  0  0  0  0  0  0  0  0  0  0
   19.8415  -22.7886   -9.3765 C   0  0  0  0  0  0  0  0  0  0  0  0
   18.9672  -23.5528   -9.9192 N   0  0  0  0  0  0  0  0  0  0  0  0
   20.8312  -22.1322  -10.1501 N   0  0  0  0  0  0  0  0  0  0  0  0
   22.0586  -21.5990   -9.5538 C   0  0  0  0  0  0  0  0  0  0  0  0
   22.8100  -20.9235  -10.6549 C   0  0  0  0  0  0  0  0  0  0  0  0
   22.1938  -20.8516  -11.9843 C   0  0  0  0  0  0  0  0  0  0  0  0
   22.9066  -20.2472  -13.1329 C   0  0  2  0  0  0  0  0  0  0  0  0
   22.2416  -20.3527  -14.4070 N   0  0  0  0  0  0  0  0  0  0  0  0
   24.3363  -20.6690  -13.2303 C   0  0  0  0  0  0  0  0  0  0  0  0
   24.6181  -21.8402  -13.6006 O   0  0  0  0  0  0  0  0  0  0  0  0
   18.8414  -23.7952  -10.8951 N   0  0  0  0  0  0  0  0  0  0  0  0
   25.3933  -19.7880  -12.9178 C   0  0  2  0  0  0  0  0  0  0  0  0
   26.7903  -20.1804  -12.8656 C   0  0  0  0  0  0  0  0  0  0  0  0
   27.7092  -18.9782  -12.8862 S   0  0  0  0  0  0  0  0  0  0  0  0
   29.4133  -19.5939  -12.7734 C   0  0  0  0  0  0  0  0  0  0  0  0
   27.0772  -21.0205  -11.6752 O   0  0  0  0  0  0  0  0  0  0  0  0
   26.3486  -20.8468  -10.4834 O   0  0  0  0  0  0  0  0  0  0  0  0
  2  1  1  0
  3  2  1  0
  3  4  1  1
  5  3  1  0
  5  6  1  1
  7  5  1  0
  8  7  2  0
 10  9  1  0
 10 12  1  0
 11 10  2  0
 13 12  1  0
 13 14  1  0
 15 14  1  0
 16 17  1  0
 16 15  1  1
 17  7  1  0
 18 16  1  0
 19 18  2  0
 20 18  1  0
 21 20  1  0
 21 22  1  1
 23 22  1  0
 24 25  1  0
 24 21  1  0
 26 24  2  0
M  END
$$$$
