IRC.pdb
     RDKit          3D

 26 25  0  0  1  0  0  0  0  0999 V2000
   28.7940  -18.4205  -17.2782 C   0  0  0  0  0  0  0  0  0  0  0  0
   28.6502  -19.4479  -16.1925 C   0  0  0  0  0  0  0  0  0  0  0  0
   27.2674  -19.6097  -15.6677 C   0  0  2  0  0  0  0  0  0  0  0  0
   26.8326  -18.2610  -15.0999 C   0  0  0  0  0  0  0  0  0  0  0  0
   27.0923  -20.6909  -14.6266 C   0  0  2  0  0  0  0  0  0  0  0  0
   27.4876  -21.9595  -15.2875 N   0  0  0  0  0  0  0  0  0  0  0  0
   25.6877  -20.8221  -14.1809 C   0  0  0  0  0  0  0  0  0  0  0  0
   24.8353  -21.4693  -14.8929 O   0  0  0  0  0  0  0  0  0  0  0  0
   20.6811  -22.8333   -8.6337 N   0  0  0  0  0  0  0  0  0  0  0  0
   19.8254  -21.6926   -8.7752 C   0  0  0  0  0  0  0  0  0  0  0  0
   18.5554  -21.8313   -8.6717 N   0  0  0  0  0  0  0  0  0  0  0  0
   20.4123  -20.4278   -9.0296 N   0  0  0  0  0  0  0  0  0  0  0  0
   21.8545  -20.2647   -9.2291 C   0  0  0  0  0  0  0  0  0  0  0  0
   22.1115  -20.4815  -10.6852 C   0  0  0  0  0  0  0  0  0  0  0  0
   23.4748  -20.2927  -11.1933 C   0  0  0  0  0  0  0  0  0  0  0  0
   23.7941  -20.4689  -12.6285 C   0  0  2  0  0  0  0  0  0  0  0  0
   25.1762  -20.2782  -12.9894 N   0  0  0  0  0  0  0  0  0  0  0  0
   22.8860  -19.7039  -13.5349 C   0  0  0  0  0  0  0  0  0  0  0  0
   22.9956  -18.4511  -13.6167 O   0  0  0  0  0  0  0  0  0  0  0  0
   17.8242  -21.1329   -8.7396 N   0  0  0  0  0  0  0  0  0  0  0  0
   21.8984  -20.3465  -14.3113 C   0  0  2  0  0  0  0  0  0  0  0  0
   20.9958  -19.6541  -15.2138 C   0  0  0  0  0  0  0  0  0  0  0  0
   20.9070  -20.3479  -16.5557 S   0  0  0  0  0  0  0  0  0  0  0  0
   22.5958  -20.4933  -17.2059 C   0  0  0  0  0  0  0  0  0  0  0  0
   19.6404  -19.5086  -14.6248 O   0  0  0  0  0  0  0  0  0  0  0  0
   18.7292  -18.5715  -15.1471 O   0  0  0  0  0  0  0  0  0  0  0  0
  2  1  1  0
  3  2  1  0
  3  4  1  1
  5  3  1  0
  5  6  1  6
  7  5  1  0
  8  7  2  0
 10  9  1  0
 10 12  1  0
 11 10  2  0
 13 12  1  0
 13 14  1  0
 15 14  1  0
 16 17  1  0
 16 15  1  1
 17  7  1  0
 18 16  1  0
 19 18  2  0
 20 18  1  0
 21 20  1  0
 21 22  1  1
 23 22  1  0
 24 25  1  0
 24 21  1  0
 26 24  2  0
M  END
$$$$
