IRC.pdb
     RDKit          3D

 26 25  0  0  1  0  0  0  0  0999 V2000
   29.0230  -22.6969  -18.4774 C   0  0  0  0  0  0  0  0  0  0  0  0
   28.3578  -23.3878  -17.3217 C   0  0  0  0  0  0  0  0  0  0  0  0
   27.2508  -24.3072  -17.6996 C   0  0  2  0  0  0  0  0  0  0  0  0
   26.2791  -23.5187  -18.5740 C   0  0  0  0  0  0  0  0  0  0  0  0
   26.5112  -24.9397  -16.5436 C   0  0  2  0  0  0  0  0  0  0  0  0
   27.4999  -25.8041  -15.8525 N   0  0  0  0  0  0  0  0  0  0  0  0
   25.3880  -25.7920  -16.9914 C   0  0  0  0  0  0  0  0  0  0  0  0
   24.3694  -25.2729  -17.5791 O   0  0  0  0  0  0  0  0  0  0  0  0
   28.7108  -30.1974  -15.5204 N   0  0  0  0  0  0  0  0  0  0  0  0
   27.8420  -31.3160  -15.7387 C   0  0  0  0  0  0  0  0  0  0  0  0
   27.8880  -32.3232  -14.9474 N   0  0  0  0  0  0  0  0  0  0  0  0
   26.9460  -31.2789  -16.8363 N   0  0  0  0  0  0  0  0  0  0  0  0
   26.8015  -30.0925  -17.6837 C   0  0  0  0  0  0  0  0  0  0  0  0
   25.3838  -30.0747  -18.1557 C   0  0  0  0  0  0  0  0  0  0  0  0
   24.3741  -29.4140  -17.3211 C   0  0  0  0  0  0  0  0  0  0  0  0
   24.2115  -27.9422  -17.3276 C   0  0  2  0  0  0  0  0  0  0  0  0
   25.3320  -27.1873  -16.8263 N   0  0  0  0  0  0  0  0  0  0  0  0
   22.9299  -27.4859  -16.7106 C   0  0  0  0  0  0  0  0  0  0  0  0
   22.8930  -27.2054  -15.4824 O   0  0  0  0  0  0  0  0  0  0  0  0
   27.4018  -33.2104  -15.0062 N   0  0  0  0  0  0  0  0  0  0  0  0
   21.7460  -27.3570  -17.4674 C   0  0  2  0  0  0  0  0  0  0  0  0
   20.5048  -26.8105  -16.9485 C   0  0  0  0  0  0  0  0  0  0  0  0
   19.7672  -26.0065  -17.9971 S   0  0  0  0  0  0  0  0  0  0  0  0
   19.4811  -27.0988  -19.4186 C   0  0  0  0  0  0  0  0  0  0  0  0
   19.6222  -27.8763  -16.4097 O   0  0  0  0  0  0  0  0  0  0  0  0
   18.4908  -27.5481  -15.6394 O   0  0  0  0  0  0  0  0  0  0  0  0
  2  1  1  0
  3  2  1  0
  3  4  1  1
  5  3  1  0
  5  6  1  6
  7  5  1  0
  8  7  2  0
 10  9  1  0
 10 12  1  0
 11 10  2  0
 13 12  1  0
 13 14  1  0
 15 14  1  0
 16 17  1  0
 16 15  1  1
 17  7  1  0
 18 16  1  0
 19 18  2  0
 20 18  1  0
 21 20  1  0
 21 22  1  6
 23 22  1  0
 24 25  1  0
 24 21  1  0
 26 24  2  0
M  END
$$$$
