IRC.pdb
     RDKit          3D

 26 25  0  0  1  0  0  0  0  0999 V2000
   26.9838  -17.0137  -16.1933 C   0  0  0  0  0  0  0  0  0  0  0  0
   26.8571  -18.4946  -15.9784 C   0  0  0  0  0  0  0  0  0  0  0  0
   27.7070  -19.0400  -14.8858 C   0  0  2  0  0  0  0  0  0  0  0  0
   29.1601  -18.7353  -15.2407 C   0  0  0  0  0  0  0  0  0  0  0  0
   27.5396  -20.5164  -14.6109 C   0  0  2  0  0  0  0  0  0  0  0  0
   27.7321  -21.1973  -15.9153 N   0  0  0  0  0  0  0  0  0  0  0  0
   26.1860  -20.8475  -14.1140 C   0  0  0  0  0  0  0  0  0  0  0  0
   25.3635  -21.5052  -14.8511 O   0  0  0  0  0  0  0  0  0  0  0  0
   21.6701  -21.8055   -6.2703 N   0  0  0  0  0  0  0  0  0  0  0  0
   20.7920  -22.0235   -7.3815 C   0  0  0  0  0  0  0  0  0  0  0  0
   19.5722  -22.3585   -7.1743 N   0  0  0  0  0  0  0  0  0  0  0  0
   21.3011  -21.8623   -8.6944 N   0  0  0  0  0  0  0  0  0  0  0  0
   22.6762  -21.4248   -8.9479 C   0  0  0  0  0  0  0  0  0  0  0  0
   22.8427  -21.3775  -10.4322 C   0  0  0  0  0  0  0  0  0  0  0  0
   24.1329  -20.9450  -10.9805 C   0  0  0  0  0  0  0  0  0  0  0  0
   24.3632  -20.8688  -12.4413 C   0  0  2  0  0  0  0  0  0  0  0  0
   25.6943  -20.4922  -12.8455 N   0  0  0  0  0  0  0  0  0  0  0  0
   23.3298  -20.0665  -13.1622 C   0  0  0  0  0  0  0  0  0  0  0  0
   23.3393  -18.8095  -13.0712 O   0  0  0  0  0  0  0  0  0  0  0  0
   18.8291  -22.5280   -7.8422 N   0  0  0  0  0  0  0  0  0  0  0  0
   22.3321  -20.6778  -13.9509 C   0  0  2  0  0  0  0  0  0  0  0  0
   21.2715  -19.9519  -14.6265 C   0  0  0  0  0  0  0  0  0  0  0  0
   21.4089  -20.0345  -16.1313 S   0  0  0  0  0  0  0  0  0  0  0  0
   21.4244  -21.7935  -16.5804 C   0  0  0  0  0  0  0  0  0  0  0  0
   19.9297  -20.4332  -14.2103 O   0  0  0  0  0  0  0  0  0  0  0  0
   19.7964  -21.5974  -13.4305 O   0  0  0  0  0  0  0  0  0  0  0  0
  2  1  1  0
  3  2  1  0
  3  4  1  6
  5  3  1  0
  5  6  1  6
  7  5  1  0
  8  7  2  0
 10  9  1  0
 10 12  1  0
 11 10  2  0
 13 12  1  0
 13 14  1  0
 15 14  1  0
 16 17  1  0
 16 15  1  1
 17  7  1  0
 18 16  1  0
 19 18  2  0
 20 18  1  0
 21 20  1  0
 21 22  1  1
 23 22  1  0
 24 25  1  0
 24 21  1  0
 26 24  2  0
M  END
$$$$
