IRC.pdb
     RDKit          3D

 26 25  0  0  1  0  0  0  0  0999 V2000
   28.9669  -17.4920  -19.1097 C   0  0  0  0  0  0  0  0  0  0  0  0
   27.7906  -18.2754  -19.6173 C   0  0  0  0  0  0  0  0  0  0  0  0
   26.9705  -18.9234  -18.5584 C   0  0  2  0  0  0  0  0  0  0  0  0
   26.0599  -17.8516  -17.9646 C   0  0  0  0  0  0  0  0  0  0  0  0
   27.7528  -19.6053  -17.4600 C   0  0  2  0  0  0  0  0  0  0  0  0
   28.4913  -20.7135  -18.1147 N   0  0  0  0  0  0  0  0  0  0  0  0
   26.8753  -20.1873  -16.4208 C   0  0  0  0  0  0  0  0  0  0  0  0
   25.9293  -20.9955  -16.7438 O   0  0  0  0  0  0  0  0  0  0  0  0
   23.2743  -19.8148  -10.1557 N   0  0  0  0  0  0  0  0  0  0  0  0
   23.6406  -20.9191   -9.3191 C   0  0  0  0  0  0  0  0  0  0  0  0
   22.7694  -21.4456   -8.5402 N   0  0  0  0  0  0  0  0  0  0  0  0
   24.9710  -21.4045   -9.3750 N   0  0  0  0  0  0  0  0  0  0  0  0
   25.9987  -20.7658  -10.2012 C   0  0  0  0  0  0  0  0  0  0  0  0
   25.5872  -20.9642  -11.6240 C   0  0  0  0  0  0  0  0  0  0  0  0
   26.4634  -20.4565  -12.6856 C   0  0  0  0  0  0  0  0  0  0  0  0
   26.0525  -20.4931  -14.1078 C   0  0  2  0  0  0  0  0  0  0  0  0
   26.9895  -19.9255  -15.0440 N   0  0  0  0  0  0  0  0  0  0  0  0
   24.6717  -19.9720  -14.3383 C   0  0  0  0  0  0  0  0  0  0  0  0
   24.4273  -18.7490  -14.1569 O   0  0  0  0  0  0  0  0  0  0  0  0
   22.8615  -22.2358   -7.9125 N   0  0  0  0  0  0  0  0  0  0  0  0
   23.6204  -20.8146  -14.7578 C   0  0  2  0  0  0  0  0  0  0  0  0
   22.2451  -20.3786  -14.9218 C   0  0  0  0  0  0  0  0  0  0  0  0
   21.5893  -21.0368  -16.1163 S   0  0  0  0  0  0  0  0  0  0  0  0
   22.4591  -20.4592  -17.6014 C   0  0  0  0  0  0  0  0  0  0  0  0
   21.4431  -20.6300  -13.6975 O   0  0  0  0  0  0  0  0  0  0  0  0
   20.1311  -20.1326  -13.5859 O   0  0  0  0  0  0  0  0  0  0  0  0
  2  1  1  0
  3  2  1  0
  3  4  1  1
  5  3  1  0
  5  6  1  6
  7  5  1  0
  8  7  2  0
 10  9  1  0
 10 12  1  0
 11 10  2  0
 13 12  1  0
 13 14  1  0
 15 14  1  0
 16 17  1  0
 16 15  1  1
 17  7  1  0
 18 16  1  0
 19 18  2  0
 20 18  1  0
 21 20  1  0
 21 22  1  6
 23 22  1  0
 24 25  1  0
 24 21  1  0
 26 24  2  0
M  END
$$$$
