IRC.pdb
     RDKit          3D

 26 25  0  0  1  0  0  0  0  0999 V2000
   28.7418  -23.2026  -18.9537 C   0  0  0  0  0  0  0  0  0  0  0  0
   29.5702  -22.2722  -18.1150 C   0  0  0  0  0  0  0  0  0  0  0  0
   28.8109  -21.5323  -17.0712 C   0  0  2  0  0  0  0  0  0  0  0  0
   28.2957  -22.5590  -16.0657 C   0  0  0  0  0  0  0  0  0  0  0  0
   27.6669  -20.6863  -17.5801 C   0  0  2  0  0  0  0  0  0  0  0  0
   28.2912  -19.5558  -18.3112 N   0  0  0  0  0  0  0  0  0  0  0  0
   26.8468  -20.1280  -16.4827 C   0  0  0  0  0  0  0  0  0  0  0  0
   27.3204  -19.2115  -15.7158 O   0  0  0  0  0  0  0  0  0  0  0  0
   21.8039  -15.2316  -15.5031 N   0  0  0  0  0  0  0  0  0  0  0  0
   21.7717  -15.5305  -16.9042 C   0  0  0  0  0  0  0  0  0  0  0  0
   21.8239  -14.5785  -17.7608 N   0  0  0  0  0  0  0  0  0  0  0  0
   21.6810  -16.8855  -17.3101 N   0  0  0  0  0  0  0  0  0  0  0  0
   21.6916  -17.9892  -16.3466 C   0  0  0  0  0  0  0  0  0  0  0  0
   23.1221  -18.3781  -16.1582 C   0  0  0  0  0  0  0  0  0  0  0  0
   23.4280  -19.5487  -15.3284 C   0  0  0  0  0  0  0  0  0  0  0  0
   24.8249  -19.9641  -15.0663 C   0  0  2  0  0  0  0  0  0  0  0  0
   25.5308  -20.5273  -16.1894 N   0  0  0  0  0  0  0  0  0  0  0  0
   24.9696  -20.8193  -13.8502 C   0  0  0  0  0  0  0  0  0  0  0  0
   24.6557  -22.0388  -13.9031 O   0  0  0  0  0  0  0  0  0  0  0  0
   21.8092  -14.6222  -18.7732 N   0  0  0  0  0  0  0  0  0  0  0  0
   25.4522  -20.2998  -12.6302 C   0  0  2  0  0  0  0  0  0  0  0  0
   25.0960  -20.8262  -11.3247 C   0  0  0  0  0  0  0  0  0  0  0  0
   25.8368  -20.1136  -10.2141 S   0  0  0  0  0  0  0  0  0  0  0  0
   25.4109  -20.9431   -8.6564 C   0  0  0  0  0  0  0  0  0  0  0  0
   23.6317  -20.7544  -11.0882 O   0  0  0  0  0  0  0  0  0  0  0  0
   22.9447  -21.8406  -10.5143 O   0  0  0  0  0  0  0  0  0  0  0  0
  2  1  1  0
  3  2  1  0
  3  4  1  1
  5  3  1  0
  5  6  1  1
  7  5  1  0
  8  7  2  0
 10  9  1  0
 10 12  1  0
 11 10  2  0
 13 12  1  0
 13 14  1  0
 15 14  1  0
 16 17  1  0
 16 15  1  6
 17  7  1  0
 18 16  1  0
 19 18  2  0
 20 18  1  0
 21 20  1  0
 21 22  1  1
 23 22  1  0
 24 25  1  0
 24 21  1  0
 26 24  2  0
M  END
$$$$
