IRC.pdb
     RDKit          3D

 26 25  0  0  1  0  0  0  0  0999 V2000
   21.0663  -27.9779  -19.7483 C   0  0  0  0  0  0  0  0  0  0  0  0
   21.5836  -29.1267  -18.9310 C   0  0  0  0  0  0  0  0  0  0  0  0
   21.4067  -28.9748  -17.4616 C   0  0  2  0  0  0  0  0  0  0  0  0
   22.0899  -27.6730  -17.0504 C   0  0  0  0  0  0  0  0  0  0  0  0
   21.9277  -30.1201  -16.6248 C   0  0  2  0  0  0  0  0  0  0  0  0
   21.2095  -30.0365  -15.3289 N   0  0  0  0  0  0  0  0  0  0  0  0
   23.3781  -30.0075  -16.3556 C   0  0  0  0  0  0  0  0  0  0  0  0
   23.8081  -29.8499  -15.1545 O   0  0  0  0  0  0  0  0  0  0  0  0
   30.4419  -31.5069  -18.3517 N   0  0  0  0  0  0  0  0  0  0  0  0
   30.8010  -32.1658  -17.1309 C   0  0  0  0  0  0  0  0  0  0  0  0
   32.0007  -32.0787  -16.6882 N   0  0  0  0  0  0  0  0  0  0  0  0
   29.8097  -32.9051  -16.4384 N   0  0  0  0  0  0  0  0  0  0  0  0
   28.4277  -32.9929  -16.9169 C   0  0  0  0  0  0  0  0  0  0  0  0
   27.8330  -31.6313  -16.7571 C   0  0  0  0  0  0  0  0  0  0  0  0
   26.4179  -31.4394  -17.0932 C   0  0  0  0  0  0  0  0  0  0  0  0
   25.7707  -30.1127  -16.9761 C   0  0  2  0  0  0  0  0  0  0  0  0
   24.3779  -30.0620  -17.3427 N   0  0  0  0  0  0  0  0  0  0  0  0
   26.5449  -29.0167  -17.6325 C   0  0  0  0  0  0  0  0  0  0  0  0
   26.5263  -28.9039  -18.8876 O   0  0  0  0  0  0  0  0  0  0  0  0
   32.4222  -32.5220  -15.8802 N   0  0  0  0  0  0  0  0  0  0  0  0
   27.3047  -28.0930  -16.8837 C   0  0  2  0  0  0  0  0  0  0  0  0
   28.0020  -26.9573  -17.4602 C   0  0  0  0  0  0  0  0  0  0  0  0
   27.9949  -25.7656  -16.5275 S   0  0  0  0  0  0  0  0  0  0  0  0
   26.2604  -25.3354  -16.2077 C   0  0  0  0  0  0  0  0  0  0  0  0
   29.3970  -27.3047  -17.8322 O   0  0  0  0  0  0  0  0  0  0  0  0
   30.2283  -26.3575  -18.4591 O   0  0  0  0  0  0  0  0  0  0  0  0
  2  1  1  0
  3  2  1  0
  3  4  1  1
  5  3  1  0
  5  6  1  1
  7  5  1  0
  8  7  2  0
 10  9  1  0
 10 12  1  0
 11 10  2  0
 13 12  1  0
 13 14  1  0
 15 14  1  0
 16 17  1  0
 16 15  1  6
 17  7  1  0
 18 16  1  0
 19 18  2  0
 20 18  1  0
 21 20  1  0
 21 22  1  1
 23 22  1  0
 24 25  1  0
 24 21  1  0
 26 24  2  0
M  END
$$$$
