IRC.pdb
     RDKit          3D

 26 25  0  0  1  0  0  0  0  0999 V2000
   27.2824  -19.2607   -5.8601 C   0  0  0  0  0  0  0  0  0  0  0  0
   25.8964  -19.4885   -6.3916 C   0  0  0  0  0  0  0  0  0  0  0  0
   25.8422  -20.0703   -7.7598 C   0  0  2  0  0  0  0  0  0  0  0  0
   26.5594  -19.1025   -8.6976 C   0  0  0  0  0  0  0  0  0  0  0  0
   24.4559  -20.3669   -8.2829 C   0  0  2  0  0  0  0  0  0  0  0  0
   23.9358  -21.4786   -7.4486 N   0  0  0  0  0  0  0  0  0  0  0  0
   24.4692  -20.8162   -9.6923 C   0  0  0  0  0  0  0  0  0  0  0  0
   24.9601  -21.9618  -10.0071 O   0  0  0  0  0  0  0  0  0  0  0  0
   23.5600  -25.6567  -14.6980 N   0  0  0  0  0  0  0  0  0  0  0  0
   23.0067  -24.7934  -15.6990 C   0  0  0  0  0  0  0  0  0  0  0  0
   22.7651  -25.2500  -16.8721 N   0  0  0  0  0  0  0  0  0  0  0  0
   22.7392  -23.4430  -15.3621 N   0  0  0  0  0  0  0  0  0  0  0  0
   22.9748  -22.9150  -14.0159 C   0  0  0  0  0  0  0  0  0  0  0  0
   22.5779  -21.4747  -14.0463 C   0  0  0  0  0  0  0  0  0  0  0  0
   22.7253  -20.6797  -12.8221 C   0  0  0  0  0  0  0  0  0  0  0  0
   24.0229  -20.5866  -12.1149 C   0  0  2  0  0  0  0  0  0  0  0  0
   23.9669  -20.0678  -10.7715 N   0  0  0  0  0  0  0  0  0  0  0  0
   25.0855  -19.9070  -12.9152 C   0  0  0  0  0  0  0  0  0  0  0  0
   25.0451  -18.6574  -13.0736 O   0  0  0  0  0  0  0  0  0  0  0  0
   22.4495  -24.7597  -17.7010 N   0  0  0  0  0  0  0  0  0  0  0  0
   26.1452  -20.6276  -13.5060 C   0  0  2  0  0  0  0  0  0  0  0  0
   27.1895  -20.0223  -14.3130 C   0  0  0  0  0  0  0  0  0  0  0  0
   28.4861  -20.7973  -14.2213 S   0  0  0  0  0  0  0  0  0  0  0  0
   29.0664  -20.6856  -12.5048 C   0  0  0  0  0  0  0  0  0  0  0  0
   26.7745  -19.8898  -15.7327 O   0  0  0  0  0  0  0  0  0  0  0  0
   27.5043  -19.0759  -16.6194 O   0  0  0  0  0  0  0  0  0  0  0  0
  2  1  1  0
  3  2  1  0
  3  4  1  6
  5  3  1  0
  5  6  1  1
  7  5  1  0
  8  7  2  0
 10  9  1  0
 10 12  1  0
 11 10  2  0
 13 12  1  0
 13 14  1  0
 15 14  1  0
 16 17  1  0
 16 15  1  6
 17  7  1  0
 18 16  1  0
 19 18  2  0
 20 18  1  0
 21 20  1  0
 21 22  1  1
 23 22  1  0
 24 25  1  0
 24 21  1  0
 26 24  2  0
M  END
$$$$
