NEN.pdb
     RDKit          3D

 26 25  0  0  1  0  0  0  0  0999 V2000
   13.8479  -14.2036  -10.1839 N   0  0  0  0  0  0  0  0  0  0  0  0
   14.9209  -14.0262  -11.0997 C   0  0  0  0  0  0  0  0  0  0  0  0
   15.5178  -15.0758  -11.4890 O   0  0  0  0  0  0  0  0  0  0  0  0
   15.3306  -12.6775  -11.5833 C   0  0  0  0  0  0  0  0  0  0  0  0
   14.4956  -11.6330  -10.9402 C   0  0  2  0  0  0  0  0  0  0  0  0
   13.1216  -11.8134  -11.4313 N   0  0  0  0  0  0  0  0  0  0  0  0
   14.9399  -10.2356  -11.1471 C   0  0  0  0  0  0  0  0  0  0  0  0
   14.8145   -9.7563  -12.2959 O   0  0  0  0  0  0  0  0  0  0  0  0
   15.4882   -9.4367  -10.1152 N   0  0  0  0  0  0  0  0  0  0  0  0
   15.8728   -8.0630  -10.1843 C   0  0  1  0  0  0  0  0  0  0  0  0
   15.5508   -7.2332   -8.9561 C   0  0  0  0  0  0  0  0  0  0  0  0
   15.9124   -5.7877   -9.0724 C   0  0  0  0  0  0  0  0  0  0  0  0
   15.4142   -5.1213   -7.8379 C   0  0  0  0  0  0  0  0  0  0  0  0
   16.2813   -4.6669   -7.0408 O   0  0  0  0  0  0  0  0  0  0  0  0
   17.2737   -7.8882  -10.5378 C   0  0  0  0  0  0  0  0  0  0  0  0
   18.1140   -8.6707   -9.9727 O   0  0  0  0  0  0  0  0  0  0  0  0
   14.0776   -4.9950   -7.5581 O   0  0  0  0  0  0  0  0  0  0  0  0
   21.7037   -7.3812  -13.1428 N   0  0  0  0  0  0  0  0  0  0  0  0
   20.7575   -8.4240  -13.1371 C   0  0  0  0  0  0  0  0  0  0  0  0
   20.9683   -9.5392  -13.7044 O   0  0  0  0  0  0  0  0  0  0  0  0
   19.4735   -8.2575  -12.4629 C   0  0  0  0  0  0  0  0  0  0  0  0
   19.2147   -6.9210  -11.8525 C   0  0  2  0  0  0  0  0  0  0  0  0
   17.7992   -6.9496  -11.4346 N   0  0  0  0  0  0  0  0  0  0  0  0
   19.3561   -5.7766  -12.7644 C   0  0  0  0  0  0  0  0  0  0  0  0
   18.3987   -5.3195  -13.4122 O   0  0  0  0  0  0  0  0  0  0  0  0
   20.5875   -5.1703  -12.9240 O   0  0  0  0  0  0  0  0  0  0  0  0
  2  1  1  0
  2  3  2  0
  4  2  1  0
  5  4  1  0
  5  7  1  0
  5  6  1  6
  7  8  2  0
  9  7  1  0
  9 10  1  0
 10 11  1  1
 11 12  1  0
 12 13  1  0
 13 17  1  0
 14 13  2  0
 15 10  1  0
 15 16  2  0
 18 19  1  0
 19 21  1  0
 20 19  2  0
 22 21  1  6
 22 23  1  0
 23 15  1  0
 24 26  1  0
 24 22  1  0
 25 24  2  0
M  END
$$$$
