NEN.pdb
     RDKit          3D

 26 25  0  0  1  0  0  0  0  0999 V2000
   12.9084   -8.6273  -15.1847 N   0  0  0  0  0  0  0  0  0  0  0  0
   13.3513   -7.4395  -14.5411 C   0  0  0  0  0  0  0  0  0  0  0  0
   12.5965   -6.4242  -14.6356 O   0  0  0  0  0  0  0  0  0  0  0  0
   14.6375   -7.3813  -13.7906 C   0  0  0  0  0  0  0  0  0  0  0  0
   15.3556   -8.6739  -13.9144 C   0  0  2  0  0  0  0  0  0  0  0  0
   14.8861   -9.5370  -12.8207 N   0  0  0  0  0  0  0  0  0  0  0  0
   16.8342   -8.5920  -13.9108 C   0  0  0  0  0  0  0  0  0  0  0  0
   17.3830   -8.1441  -12.8796 O   0  0  0  0  0  0  0  0  0  0  0  0
   17.6346   -8.9949  -15.0066 N   0  0  0  0  0  0  0  0  0  0  0  0
   19.0594   -8.9749  -15.1021 C   0  0  1  0  0  0  0  0  0  0  0  0
   19.6634   -9.9898  -16.0541 C   0  0  0  0  0  0  0  0  0  0  0  0
   19.5829  -11.4060  -15.5831 C   0  0  0  0  0  0  0  0  0  0  0  0
   20.1287  -12.2530  -16.6789 C   0  0  0  0  0  0  0  0  0  0  0  0
   21.2066  -12.8679  -16.4468 O   0  0  0  0  0  0  0  0  0  0  0  0
   19.5847   -7.6514  -15.4025 C   0  0  0  0  0  0  0  0  0  0  0  0
   18.9758   -6.9796  -16.3055 O   0  0  0  0  0  0  0  0  0  0  0  0
   19.5056  -12.3752  -17.8945 O   0  0  0  0  0  0  0  0  0  0  0  0
   21.4344   -2.8426  -15.2976 N   0  0  0  0  0  0  0  0  0  0  0  0
   20.1774   -3.3543  -14.9224 C   0  0  0  0  0  0  0  0  0  0  0  0
   19.1986   -2.6053  -14.6209 O   0  0  0  0  0  0  0  0  0  0  0  0
   19.9489   -4.7950  -14.8671 C   0  0  0  0  0  0  0  0  0  0  0  0
   21.1345   -5.6636  -15.1231 C   0  0  2  0  0  0  0  0  0  0  0  0
   20.6907   -7.0349  -14.8041 N   0  0  0  0  0  0  0  0  0  0  0  0
   22.3036   -5.3964  -14.2728 C   0  0  0  0  0  0  0  0  0  0  0  0
   22.8662   -4.2882  -14.2439 O   0  0  0  0  0  0  0  0  0  0  0  0
   22.8138   -6.3970  -13.4678 O   0  0  0  0  0  0  0  0  0  0  0  0
  2  1  1  0
  2  3  2  0
  4  2  1  0
  5  4  1  0
  5  7  1  0
  5  6  1  1
  7  8  2  0
  9  7  1  0
  9 10  1  0
 10 11  1  6
 11 12  1  0
 12 13  1  0
 13 17  1  0
 14 13  2  0
 15 10  1  0
 15 16  2  0
 18 19  1  0
 19 21  1  0
 20 19  2  0
 22 21  1  1
 22 23  1  0
 23 15  1  0
 24 26  1  0
 24 22  1  0
 25 24  2  0
M  END
$$$$
