NEN.pdb
     RDKit          3D

 26 25  0  0  1  0  0  0  0  0999 V2000
   17.8761  -11.1107  -18.3873 N   0  0  0  0  0  0  0  0  0  0  0  0
   16.7066  -10.8734  -17.6146 C   0  0  0  0  0  0  0  0  0  0  0  0
   15.5980  -10.9160  -18.2300 O   0  0  0  0  0  0  0  0  0  0  0  0
   16.7708  -10.5879  -16.1533 C   0  0  0  0  0  0  0  0  0  0  0  0
   18.1852  -10.4591  -15.7236 C   0  0  2  0  0  0  0  0  0  0  0  0
   18.7767  -11.8042  -15.7708 N   0  0  0  0  0  0  0  0  0  0  0  0
   18.4007   -9.8454  -14.3932 C   0  0  0  0  0  0  0  0  0  0  0  0
   18.2474  -10.5775  -13.3904 O   0  0  0  0  0  0  0  0  0  0  0  0
   18.7680   -8.4899  -14.2163 N   0  0  0  0  0  0  0  0  0  0  0  0
   19.0212   -7.8062  -12.9882 C   0  0  1  0  0  0  0  0  0  0  0  0
   19.9154   -6.5855  -13.0938 C   0  0  0  0  0  0  0  0  0  0  0  0
   21.3605   -6.8932  -13.3189 C   0  0  0  0  0  0  0  0  0  0  0  0
   22.0789   -5.5893  -13.3307 C   0  0  0  0  0  0  0  0  0  0  0  0
   22.6917   -5.2810  -14.3905 O   0  0  0  0  0  0  0  0  0  0  0  0
   17.8007   -7.4570  -12.2767 C   0  0  0  0  0  0  0  0  0  0  0  0
   16.7947   -7.1141  -12.9895 O   0  0  0  0  0  0  0  0  0  0  0  0
   22.0883   -4.7446  -12.2505 O   0  0  0  0  0  0  0  0  0  0  0  0
   13.1591   -8.5656   -9.7780 N   0  0  0  0  0  0  0  0  0  0  0  0
   14.4070   -8.2819   -9.1906 C   0  0  0  0  0  0  0  0  0  0  0  0
   14.5273   -7.9475   -7.9726 O   0  0  0  0  0  0  0  0  0  0  0  0
   15.6338   -8.3656   -9.9774 C   0  0  0  0  0  0  0  0  0  0  0  0
   16.3436   -7.0791  -10.2358 C   0  0  2  0  0  0  0  0  0  0  0  0
   17.6123   -7.4569  -10.8890 N   0  0  0  0  0  0  0  0  0  0  0  0
   16.7061   -6.3103   -9.0363 C   0  0  0  0  0  0  0  0  0  0  0  0
   17.7920   -6.4633   -8.4507 O   0  0  0  0  0  0  0  0  0  0  0  0
   15.8248   -5.3784   -8.5222 O   0  0  0  0  0  0  0  0  0  0  0  0
  2  1  1  0
  2  3  2  0
  4  2  1  0
  5  4  1  0
  5  7  1  0
  5  6  1  1
  7  8  2  0
  9  7  1  0
  9 10  1  0
 10 11  1  6
 11 12  1  0
 12 13  1  0
 13 17  1  0
 14 13  2  0
 15 10  1  0
 15 16  2  0
 18 19  1  0
 19 21  1  0
 20 19  2  0
 22 21  1  1
 22 23  1  0
 23 15  1  0
 24 26  1  0
 24 22  1  0
 25 24  2  0
M  END
$$$$
