NEN.pdb
     RDKit          3D

 26 25  0  0  1  0  0  0  0  0999 V2000
   14.0156  -12.6109  -16.2833 N   0  0  0  0  0  0  0  0  0  0  0  0
   15.1440  -11.8001  -15.9824 C   0  0  0  0  0  0  0  0  0  0  0  0
   15.8766  -11.4569  -16.9596 O   0  0  0  0  0  0  0  0  0  0  0  0
   15.4580  -11.3702  -14.5904 C   0  0  0  0  0  0  0  0  0  0  0  0
   16.8706  -10.9245  -14.5040 C   0  0  2  0  0  0  0  0  0  0  0  0
   17.7129  -12.1148  -14.6913 N   0  0  0  0  0  0  0  0  0  0  0  0
   17.2469  -10.2147  -13.2600 C   0  0  0  0  0  0  0  0  0  0  0  0
   17.1150  -10.8349  -12.1815 O   0  0  0  0  0  0  0  0  0  0  0  0
   17.7422   -8.8887  -13.2447 N   0  0  0  0  0  0  0  0  0  0  0  0
   18.1080   -8.1055  -12.1078 C   0  0  1  0  0  0  0  0  0  0  0  0
   19.1681   -7.0497  -12.3571 C   0  0  0  0  0  0  0  0  0  0  0  0
   20.5076   -7.5935  -12.7360 C   0  0  0  0  0  0  0  0  0  0  0  0
   21.3766   -6.4219  -13.0334 C   0  0  0  0  0  0  0  0  0  0  0  0
   22.0035   -6.4354  -14.1291 O   0  0  0  0  0  0  0  0  0  0  0  0
   16.9604   -7.4990  -11.4497 C   0  0  0  0  0  0  0  0  0  0  0  0
   16.0870   -6.9467  -12.2045 O   0  0  0  0  0  0  0  0  0  0  0  0
   21.5058   -5.3637  -12.1708 O   0  0  0  0  0  0  0  0  0  0  0  0
   12.8930   -7.7850   -7.4987 N   0  0  0  0  0  0  0  0  0  0  0  0
   14.1337   -7.1254   -7.4061 C   0  0  0  0  0  0  0  0  0  0  0  0
   14.3229   -6.1334   -6.6379 O   0  0  0  0  0  0  0  0  0  0  0  0
   15.2716   -7.5689   -8.2057 C   0  0  0  0  0  0  0  0  0  0  0  0
   15.5187   -6.8252   -9.4751 C   0  0  2  0  0  0  0  0  0  0  0  0
   16.7122   -7.4565  -10.0721 N   0  0  0  0  0  0  0  0  0  0  0  0
   15.8385   -5.3993   -9.3151 C   0  0  0  0  0  0  0  0  0  0  0  0
   17.0002   -4.9935   -9.1385 O   0  0  0  0  0  0  0  0  0  0  0  0
   14.8287   -4.4571   -9.3587 O   0  0  0  0  0  0  0  0  0  0  0  0
  2  1  1  0
  2  3  2  0
  4  2  1  0
  5  4  1  0
  5  7  1  0
  5  6  1  1
  7  8  2  0
  9  7  1  0
  9 10  1  0
 10 11  1  6
 11 12  1  0
 12 13  1  0
 13 17  1  0
 14 13  2  0
 15 10  1  0
 15 16  2  0
 18 19  1  0
 19 21  1  0
 20 19  2  0
 22 21  1  1
 22 23  1  0
 23 15  1  0
 24 26  1  0
 24 22  1  0
 25 24  2  0
M  END
$$$$
