NEN.pdb
     RDKit          3D

 26 25  0  0  1  0  0  0  0  0999 V2000
   15.4198  -20.0713    1.4700 N   0  0  0  0  0  0  0  0  0  0  0  0
   14.6642  -20.3293    2.6463 C   0  0  0  0  0  0  0  0  0  0  0  0
   13.6146  -21.0284    2.5081 O   0  0  0  0  0  0  0  0  0  0  0  0
   15.0776  -19.8080    3.9798 C   0  0  0  0  0  0  0  0  0  0  0  0
   16.2504  -18.9112    3.8322 C   0  0  2  0  0  0  0  0  0  0  0  0
   17.3531  -19.7239    3.2983 N   0  0  0  0  0  0  0  0  0  0  0  0
   16.6775  -18.2022    5.0602 C   0  0  0  0  0  0  0  0  0  0  0  0
   15.9349  -17.2895    5.4852 O   0  0  0  0  0  0  0  0  0  0  0  0
   17.8689  -18.5128    5.7588 N   0  0  0  0  0  0  0  0  0  0  0  0
   18.3590  -17.9148    6.9596 C   0  0  1  0  0  0  0  0  0  0  0  0
   19.2802  -18.7856    7.7927 C   0  0  0  0  0  0  0  0  0  0  0  0
   18.5783  -19.7942    8.6434 C   0  0  0  0  0  0  0  0  0  0  0  0
   19.6352  -20.5585    9.3610 C   0  0  0  0  0  0  0  0  0  0  0  0
   20.6014  -19.8975    9.8332 O   0  0  0  0  0  0  0  0  0  0  0  0
   18.9860  -16.6220    6.7290 C   0  0  0  0  0  0  0  0  0  0  0  0
   19.5928  -16.4651    5.6133 O   0  0  0  0  0  0  0  0  0  0  0  0
   19.5825  -21.9203    9.5146 O   0  0  0  0  0  0  0  0  0  0  0  0
   20.5240  -11.6932    6.4417 N   0  0  0  0  0  0  0  0  0  0  0  0
   19.2127  -12.1104    6.1433 C   0  0  0  0  0  0  0  0  0  0  0  0
   18.3946  -11.3824    5.5024 O   0  0  0  0  0  0  0  0  0  0  0  0
   18.7369  -13.4236    6.5676 C   0  0  0  0  0  0  0  0  0  0  0  0
   19.7064  -14.2652    7.3276 C   0  0  2  0  0  0  0  0  0  0  0  0
   18.9946  -15.5286    7.6041 N   0  0  0  0  0  0  0  0  0  0  0  0
   20.1182  -13.7258    8.6316 C   0  0  0  0  0  0  0  0  0  0  0  0
   19.7449  -14.2260    9.7067 O   0  0  0  0  0  0  0  0  0  0  0  0
   20.9498  -12.6238    8.6904 O   0  0  0  0  0  0  0  0  0  0  0  0
  2  1  1  0
  2  3  2  0
  4  2  1  0
  5  4  1  0
  5  7  1  0
  5  6  1  1
  7  8  2  0
  9  7  1  0
  9 10  1  0
 10 11  1  6
 11 12  1  0
 12 13  1  0
 13 17  1  0
 14 13  2  0
 15 10  1  0
 15 16  2  0
 18 19  1  0
 19 21  1  0
 20 19  2  0
 22 21  1  1
 22 23  1  0
 23 15  1  0
 24 26  1  0
 24 22  1  0
 25 24  2  0
M  END
$$$$
