NEN.pdb
     RDKit          3D

 26 25  0  0  1  0  0  0  0  0999 V2000
   19.5562  -18.1488  -15.1816 N   0  0  0  0  0  0  0  0  0  0  0  0
   20.6667  -18.1523  -14.2939 C   0  0  0  0  0  0  0  0  0  0  0  0
   20.8449  -19.2042  -13.6075 O   0  0  0  0  0  0  0  0  0  0  0  0
   21.5812  -16.9821  -14.1696 C   0  0  0  0  0  0  0  0  0  0  0  0
   21.1266  -15.8866  -15.0611 C   0  0  2  0  0  0  0  0  0  0  0  0
   21.3126  -16.3479  -16.4445 N   0  0  0  0  0  0  0  0  0  0  0  0
   21.7867  -14.5764  -14.8593 C   0  0  0  0  0  0  0  0  0  0  0  0
   21.2489  -13.7784  -14.0598 O   0  0  0  0  0  0  0  0  0  0  0  0
   22.9799  -14.2005  -15.5215 N   0  0  0  0  0  0  0  0  0  0  0  0
   23.6905  -12.9668  -15.4088 C   0  0  1  0  0  0  0  0  0  0  0  0
   25.0586  -12.9401  -16.0634 C   0  0  0  0  0  0  0  0  0  0  0  0
   26.0277  -13.9370  -15.5150 C   0  0  0  0  0  0  0  0  0  0  0  0
   27.2731  -13.8111  -16.3209 C   0  0  0  0  0  0  0  0  0  0  0  0
   28.0300  -12.8352  -16.0595 O   0  0  0  0  0  0  0  0  0  0  0  0
   22.9105  -11.8248  -15.8619 C   0  0  0  0  0  0  0  0  0  0  0  0
   22.2608  -11.9664  -16.9553 O   0  0  0  0  0  0  0  0  0  0  0  0
   27.6041  -14.7036  -17.3082 O   0  0  0  0  0  0  0  0  0  0  0  0
   18.7303   -8.2513  -15.2558 N   0  0  0  0  0  0  0  0  0  0  0  0
   20.0573   -8.1033  -14.8088 C   0  0  0  0  0  0  0  0  0  0  0  0
   20.5592   -6.9732  -14.5244 O   0  0  0  0  0  0  0  0  0  0  0  0
   20.9217   -9.2690  -14.6512 C   0  0  0  0  0  0  0  0  0  0  0  0
   21.9425   -9.4853  -15.7174 C   0  0  2  0  0  0  0  0  0  0  0  0
   22.7968  -10.5833  -15.2239 N   0  0  0  0  0  0  0  0  0  0  0  0
   22.8356   -8.3455  -15.9717 C   0  0  0  0  0  0  0  0  0  0  0  0
   24.0189   -8.3293  -15.5908 O   0  0  0  0  0  0  0  0  0  0  0  0
   22.3661   -7.2410  -16.6565 O   0  0  0  0  0  0  0  0  0  0  0  0
  2  1  1  0
  2  3  2  0
  4  2  1  0
  5  4  1  0
  5  7  1  0
  5  6  1  6
  7  8  2  0
  9  7  1  0
  9 10  1  0
 10 11  1  6
 11 12  1  0
 12 13  1  0
 13 17  1  0
 14 13  2  0
 15 10  1  0
 15 16  2  0
 18 19  1  0
 19 21  1  0
 20 19  2  0
 22 21  1  1
 22 23  1  0
 23 15  1  0
 24 26  1  0
 24 22  1  0
 25 24  2  0
M  END
$$$$
