NEN.pdb
     RDKit          3D

 26 25  0  0  1  0  0  0  0  0999 V2000
   12.7244  -10.5346   -9.9315 N   0  0  0  0  0  0  0  0  0  0  0  0
   12.9601   -9.4322   -9.0652 C   0  0  0  0  0  0  0  0  0  0  0  0
   12.0563   -9.1727   -8.2136 O   0  0  0  0  0  0  0  0  0  0  0  0
   14.2047   -8.6165   -9.1469 C   0  0  0  0  0  0  0  0  0  0  0  0
   15.0731   -9.1245  -10.2374 C   0  0  2  0  0  0  0  0  0  0  0  0
   15.6010  -10.4254   -9.8009 N   0  0  0  0  0  0  0  0  0  0  0  0
   16.1784   -8.2296  -10.6502 C   0  0  0  0  0  0  0  0  0  0  0  0
   17.0612   -7.9762   -9.8006 O   0  0  0  0  0  0  0  0  0  0  0  0
   16.2738   -7.6629  -11.9438 N   0  0  0  0  0  0  0  0  0  0  0  0
   17.2925   -6.7966  -12.4455 C   0  0  1  0  0  0  0  0  0  0  0  0
   18.1471   -7.3715  -13.5591 C   0  0  0  0  0  0  0  0  0  0  0  0
   17.7726   -8.7572  -13.9755 C   0  0  0  0  0  0  0  0  0  0  0  0
   18.6517   -9.1113  -15.1235 C   0  0  0  0  0  0  0  0  0  0  0  0
   19.3140  -10.1820  -15.0307 O   0  0  0  0  0  0  0  0  0  0  0  0
   16.7776   -5.4962  -12.8473 C   0  0  0  0  0  0  0  0  0  0  0  0
   15.5067   -5.3839  -12.9472 O   0  0  0  0  0  0  0  0  0  0  0  0
   18.7534   -8.3249  -16.2424 O   0  0  0  0  0  0  0  0  0  0  0  0
   15.9553   -0.4637  -13.9434 N   0  0  0  0  0  0  0  0  0  0  0  0
   15.5343   -1.2318  -12.8409 C   0  0  0  0  0  0  0  0  0  0  0  0
   14.6969   -0.8018  -11.9901 O   0  0  0  0  0  0  0  0  0  0  0  0
   16.0551   -2.5795  -12.6330 C   0  0  0  0  0  0  0  0  0  0  0  0
   16.9541   -3.1134  -13.6972 C   0  0  2  0  0  0  0  0  0  0  0  0
   17.5306   -4.3516  -13.1372 N   0  0  0  0  0  0  0  0  0  0  0  0
   18.0893   -2.2491  -14.0516 C   0  0  0  0  0  0  0  0  0  0  0  0
   19.1241   -2.1947  -13.3648 O   0  0  0  0  0  0  0  0  0  0  0  0
   18.0277   -1.4597  -15.1840 O   0  0  0  0  0  0  0  0  0  0  0  0
  2  1  1  0
  2  3  2  0
  4  2  1  0
  5  4  1  0
  5  7  1  0
  5  6  1  1
  7  8  2  0
  9  7  1  0
  9 10  1  0
 10 11  1  6
 11 12  1  0
 12 13  1  0
 13 17  1  0
 14 13  2  0
 15 10  1  0
 15 16  2  0
 18 19  1  0
 19 21  1  0
 20 19  2  0
 22 21  1  1
 22 23  1  0
 23 15  1  0
 24 26  1  0
 24 22  1  0
 25 24  2  0
M  END
$$$$
