NEN.pdb
     RDKit          3D

 26 25  0  0  1  0  0  0  0  0999 V2000
    9.8320  -11.0324  -11.0197 N   0  0  0  0  0  0  0  0  0  0  0  0
    9.8951  -10.2946   -9.8060 C   0  0  0  0  0  0  0  0  0  0  0  0
    8.8402  -10.2632   -9.1021 O   0  0  0  0  0  0  0  0  0  0  0  0
   11.1354   -9.5898   -9.3747 C   0  0  0  0  0  0  0  0  0  0  0  0
   12.2066   -9.7863  -10.3824 C   0  0  2  0  0  0  0  0  0  0  0  0
   12.6755  -11.1736  -10.2519 N   0  0  0  0  0  0  0  0  0  0  0  0
   13.3469   -8.8448  -10.3019 C   0  0  0  0  0  0  0  0  0  0  0  0
   14.0392   -8.8677   -9.2600 O   0  0  0  0  0  0  0  0  0  0  0  0
   13.6784   -7.9397  -11.3385 N   0  0  0  0  0  0  0  0  0  0  0  0
   14.7205   -6.9631  -11.3459 C   0  0  1  0  0  0  0  0  0  0  0  0
   15.3472   -6.6886  -12.6997 C   0  0  0  0  0  0  0  0  0  0  0  0
   16.4935   -5.7301  -12.6692 C   0  0  0  0  0  0  0  0  0  0  0  0
   17.7364   -6.5496  -12.6609 C   0  0  0  0  0  0  0  0  0  0  0  0
   18.2863   -6.7474  -11.5419 O   0  0  0  0  0  0  0  0  0  0  0  0
   14.3188   -5.7071  -10.7304 C   0  0  0  0  0  0  0  0  0  0  0  0
   13.2425   -5.1688  -11.1657 O   0  0  0  0  0  0  0  0  0  0  0  0
   18.2780   -7.0764  -13.8054 O   0  0  0  0  0  0  0  0  0  0  0  0
   13.9861   -1.5668   -7.3896 N   0  0  0  0  0  0  0  0  0  0  0  0
   14.2171   -2.8282   -6.8079 C   0  0  0  0  0  0  0  0  0  0  0  0
   14.1970   -3.0144   -5.5530 O   0  0  0  0  0  0  0  0  0  0  0  0
   14.4920   -3.9922   -7.6447 C   0  0  0  0  0  0  0  0  0  0  0  0
   14.5102   -3.7590   -9.1181 C   0  0  2  0  0  0  0  0  0  0  0  0
   14.9898   -5.0242   -9.7083 N   0  0  0  0  0  0  0  0  0  0  0  0
   15.4330   -2.7102   -9.5761 C   0  0  0  0  0  0  0  0  0  0  0  0
   16.5604   -2.9683  -10.0319 O   0  0  0  0  0  0  0  0  0  0  0  0
   15.0565   -1.3824   -9.5075 O   0  0  0  0  0  0  0  0  0  0  0  0
  2  1  1  0
  2  3  2  0
  4  2  1  0
  5  4  1  0
  5  7  1  0
  5  6  1  1
  7  8  2  0
  9  7  1  0
  9 10  1  0
 10 11  1  6
 11 12  1  0
 12 13  1  0
 13 17  1  0
 14 13  2  0
 15 10  1  0
 15 16  2  0
 18 19  1  0
 19 21  1  0
 20 19  2  0
 22 21  1  1
 22 23  1  0
 23 15  1  0
 24 26  1  0
 24 22  1  0
 25 24  2  0
M  END
$$$$
