NEN.pdb
     RDKit          3D

 26 25  0  0  1  0  0  0  0  0999 V2000
   27.2159  -22.8972  -16.2856 N   0  0  0  0  0  0  0  0  0  0  0  0
   26.0080  -22.3639  -16.8128 C   0  0  0  0  0  0  0  0  0  0  0  0
   26.1096  -21.6349  -17.8461 O   0  0  0  0  0  0  0  0  0  0  0  0
   24.6838  -22.6423  -16.1884 C   0  0  0  0  0  0  0  0  0  0  0  0
   23.9053  -21.3848  -16.0686 C   0  0  2  0  0  0  0  0  0  0  0  0
   24.6429  -20.5042  -15.1510 N   0  0  0  0  0  0  0  0  0  0  0  0
   22.5011  -21.5367  -15.6234 C   0  0  0  0  0  0  0  0  0  0  0  0
   21.7591  -22.2793  -16.3039 O   0  0  0  0  0  0  0  0  0  0  0  0
   21.9773  -20.8884  -14.4793 N   0  0  0  0  0  0  0  0  0  0  0  0
   20.6425  -20.9490  -13.9749 C   0  0  1  0  0  0  0  0  0  0  0  0
   20.4790  -20.5690  -12.5155 C   0  0  0  0  0  0  0  0  0  0  0  0
   21.3635  -19.4525  -12.0629 C   0  0  0  0  0  0  0  0  0  0  0  0
   21.1036  -19.2631  -10.6093 C   0  0  0  0  0  0  0  0  0  0  0  0
   21.0351  -18.0749  -10.1884 O   0  0  0  0  0  0  0  0  0  0  0  0
   19.7001  -20.1916  -14.7849 C   0  0  0  0  0  0  0  0  0  0  0  0
   20.0579  -19.0151  -15.1388 O   0  0  0  0  0  0  0  0  0  0  0  0
   20.9422  -20.3173   -9.7472 O   0  0  0  0  0  0  0  0  0  0  0  0
   16.2735  -20.4019  -19.5440 N   0  0  0  0  0  0  0  0  0  0  0  0
   16.5744  -19.7783  -18.3179 C   0  0  0  0  0  0  0  0  0  0  0  0
   16.2769  -18.5687  -18.0768 O   0  0  0  0  0  0  0  0  0  0  0  0
   17.2523  -20.5165  -17.2565 C   0  0  0  0  0  0  0  0  0  0  0  0
   17.5094  -19.7698  -15.9908 C   0  0  2  0  0  0  0  0  0  0  0  0
   18.4384  -20.6179  -15.2183 N   0  0  0  0  0  0  0  0  0  0  0  0
   16.3317  -19.5580  -15.1368 C   0  0  0  0  0  0  0  0  0  0  0  0
   15.7605  -20.4916  -14.5473 O   0  0  0  0  0  0  0  0  0  0  0  0
   15.8226  -18.2845  -14.9676 O   0  0  0  0  0  0  0  0  0  0  0  0
  2  1  1  0
  2  3  2  0
  4  2  1  0
  5  4  1  0
  5  7  1  0
  5  6  1  1
  7  8  2  0
  9  7  1  0
  9 10  1  0
 10 11  1  1
 11 12  1  0
 12 13  1  0
 13 17  1  0
 14 13  2  0
 15 10  1  0
 15 16  2  0
 18 19  1  0
 19 21  1  0
 20 19  2  0
 22 21  1  6
 22 23  1  0
 23 15  1  0
 24 26  1  0
 24 22  1  0
 25 24  2  0
M  END
$$$$
