NEN.pdb
     RDKit          3D

 26 25  0  0  1  0  0  0  0  0999 V2000
   23.1871  -13.4299  -17.3675 N   0  0  0  0  0  0  0  0  0  0  0  0
   23.8166  -12.3740  -16.6534 C   0  0  0  0  0  0  0  0  0  0  0  0
   24.9108  -12.6504  -16.0739 O   0  0  0  0  0  0  0  0  0  0  0  0
   23.2270  -11.0070  -16.5838 C   0  0  0  0  0  0  0  0  0  0  0  0
   22.0053  -10.9386  -17.4231 C   0  0  2  0  0  0  0  0  0  0  0  0
   22.4404  -10.9852  -18.8266 N   0  0  0  0  0  0  0  0  0  0  0  0
   21.1297   -9.7670  -17.1913 C   0  0  0  0  0  0  0  0  0  0  0  0
   21.5372   -8.6554  -17.5959 O   0  0  0  0  0  0  0  0  0  0  0  0
   19.8737   -9.8550  -16.5445 N   0  0  0  0  0  0  0  0  0  0  0  0
   18.9797   -8.7886  -16.2229 C   0  0  1  0  0  0  0  0  0  0  0  0
   17.6127   -9.2128  -15.7208 C   0  0  0  0  0  0  0  0  0  0  0  0
   16.6606   -8.0848  -15.4872 C   0  0  0  0  0  0  0  0  0  0  0  0
   15.3875   -8.6912  -15.0100 C   0  0  0  0  0  0  0  0  0  0  0  0
   15.4253   -9.9027  -14.6573 O   0  0  0  0  0  0  0  0  0  0  0  0
   19.5614   -7.8258  -15.2997 C   0  0  0  0  0  0  0  0  0  0  0  0
   20.3791   -8.2828  -14.4279 O   0  0  0  0  0  0  0  0  0  0  0  0
   14.2138   -7.9845  -14.9476 O   0  0  0  0  0  0  0  0  0  0  0  0
   21.8875   -3.6383  -13.3166 N   0  0  0  0  0  0  0  0  0  0  0  0
   22.3829   -4.6752  -14.1303 C   0  0  0  0  0  0  0  0  0  0  0  0
   23.6196   -4.8174  -14.3763 O   0  0  0  0  0  0  0  0  0  0  0  0
   21.4734   -5.6457  -14.7318 C   0  0  0  0  0  0  0  0  0  0  0  0
   20.0314   -5.5123  -14.3733 C   0  0  2  0  0  0  0  0  0  0  0  0
   19.3184   -6.4469  -15.2661 N   0  0  0  0  0  0  0  0  0  0  0  0
   19.4464   -4.1842  -14.6086 C   0  0  0  0  0  0  0  0  0  0  0  0
   18.7146   -3.9428  -15.5840 O   0  0  0  0  0  0  0  0  0  0  0  0
   19.7047   -3.1511  -13.7280 O   0  0  0  0  0  0  0  0  0  0  0  0
  2  1  1  0
  2  3  2  0
  4  2  1  0
  5  4  1  0
  5  7  1  0
  5  6  1  6
  7  8  2  0
  9  7  1  0
  9 10  1  0
 10 11  1  1
 11 12  1  0
 12 13  1  0
 13 17  1  0
 14 13  2  0
 15 10  1  0
 15 16  2  0
 18 19  1  0
 19 21  1  0
 20 19  2  0
 22 21  1  6
 22 23  1  0
 23 15  1  0
 24 26  1  0
 24 22  1  0
 25 24  2  0
M  END
$$$$
