NEN.pdb
     RDKit          3D

 26 25  0  0  1  0  0  0  0  0999 V2000
   10.4813  -11.5628   -9.9419 N   0  0  0  0  0  0  0  0  0  0  0  0
   10.9608  -10.7080   -8.9121 C   0  0  0  0  0  0  0  0  0  0  0  0
   10.0962  -10.2415   -8.1094 O   0  0  0  0  0  0  0  0  0  0  0  0
   12.4061  -10.3713   -8.7752 C   0  0  0  0  0  0  0  0  0  0  0  0
   13.1903  -11.0670   -9.8253 C   0  0  2  0  0  0  0  0  0  0  0  0
   13.2511  -12.4875   -9.4513 N   0  0  0  0  0  0  0  0  0  0  0  0
   14.5516  -10.5373  -10.0694 C   0  0  0  0  0  0  0  0  0  0  0  0
   15.4080  -10.7181   -9.1755 O   0  0  0  0  0  0  0  0  0  0  0  0
   14.9143   -9.8501  -11.2526 N   0  0  0  0  0  0  0  0  0  0  0  0
   16.2080   -9.3726  -11.6242 C   0  0  1  0  0  0  0  0  0  0  0  0
   16.6829   -9.7836  -13.0049 C   0  0  0  0  0  0  0  0  0  0  0  0
   17.1864  -11.1879  -13.0947 C   0  0  0  0  0  0  0  0  0  0  0  0
   17.5891  -11.4084  -14.5108 C   0  0  0  0  0  0  0  0  0  0  0  0
   16.6870  -11.3018  -15.3875 O   0  0  0  0  0  0  0  0  0  0  0  0
   16.3410   -7.9315  -11.4714 C   0  0  0  0  0  0  0  0  0  0  0  0
   15.2567   -7.2551  -11.4052 O   0  0  0  0  0  0  0  0  0  0  0  0
   18.8765  -11.7146  -14.8706 O   0  0  0  0  0  0  0  0  0  0  0  0
   17.8100   -3.2265   -9.8433 N   0  0  0  0  0  0  0  0  0  0  0  0
   17.1657   -4.2668   -9.1465 C   0  0  0  0  0  0  0  0  0  0  0  0
   16.6940   -4.1154   -7.9784 O   0  0  0  0  0  0  0  0  0  0  0  0
   17.0120   -5.5844   -9.7558 C   0  0  0  0  0  0  0  0  0  0  0  0
   17.5955   -5.7560  -11.1181 C   0  0  2  0  0  0  0  0  0  0  0  0
   17.5360   -7.2059  -11.3891 N   0  0  0  0  0  0  0  0  0  0  0  0
   19.0067   -5.3657  -11.2501 C   0  0  0  0  0  0  0  0  0  0  0  0
   19.3539   -4.1979  -11.4970 O   0  0  0  0  0  0  0  0  0  0  0  0
   20.0012   -6.3131  -11.0985 O   0  0  0  0  0  0  0  0  0  0  0  0
  2  1  1  0
  2  3  2  0
  4  2  1  0
  5  4  1  0
  5  7  1  0
  5  6  1  1
  7  8  2  0
  9  7  1  0
  9 10  1  0
 10 11  1  6
 11 12  1  0
 12 13  1  0
 13 17  1  0
 14 13  2  0
 15 10  1  0
 15 16  2  0
 18 19  1  0
 19 21  1  0
 20 19  2  0
 22 21  1  1
 22 23  1  0
 23 15  1  0
 24 26  1  0
 24 22  1  0
 25 24  2  0
M  END
$$$$
