NEN.pdb
     RDKit          3D

 26 25  0  0  1  0  0  0  0  0999 V2000
   17.3041  -14.0516    2.2724 N   0  0  0  0  0  0  0  0  0  0  0  0
   17.9013  -13.9639    3.5596 C   0  0  0  0  0  0  0  0  0  0  0  0
   18.6613  -12.9699    3.7691 O   0  0  0  0  0  0  0  0  0  0  0  0
   17.6523  -14.9848    4.6163 C   0  0  0  0  0  0  0  0  0  0  0  0
   16.7483  -16.0410    4.0978 C   0  0  2  0  0  0  0  0  0  0  0  0
   15.4139  -15.4397    3.9592 N   0  0  0  0  0  0  0  0  0  0  0  0
   16.6762  -17.2803    4.9052 C   0  0  0  0  0  0  0  0  0  0  0  0
   15.8971  -17.2846    5.8840 O   0  0  0  0  0  0  0  0  0  0  0  0
   17.4381  -18.4378    4.6165 N   0  0  0  0  0  0  0  0  0  0  0  0
   17.4650  -19.6692    5.3396 C   0  0  1  0  0  0  0  0  0  0  0  0
   17.8059  -20.8993    4.5201 C   0  0  0  0  0  0  0  0  0  0  0  0
   17.6980  -22.1902    5.2655 C   0  0  0  0  0  0  0  0  0  0  0  0
   18.0238  -23.2723    4.2964 C   0  0  0  0  0  0  0  0  0  0  0  0
   17.8287  -24.4605    4.6757 O   0  0  0  0  0  0  0  0  0  0  0  0
   18.3216  -19.6130    6.5147 C   0  0  0  0  0  0  0  0  0  0  0  0
   19.4506  -19.0258    6.3789 O   0  0  0  0  0  0  0  0  0  0  0  0
   18.5148  -23.0138    3.0424 O   0  0  0  0  0  0  0  0  0  0  0  0
   20.0910  -19.6586   11.5160 N   0  0  0  0  0  0  0  0  0  0  0  0
   18.7786  -19.1932   11.3066 C   0  0  0  0  0  0  0  0  0  0  0  0
   18.1072  -18.6145   12.2145 O   0  0  0  0  0  0  0  0  0  0  0  0
   18.1295  -19.3614   10.0099 C   0  0  0  0  0  0  0  0  0  0  0  0
   18.9439  -20.0094    8.9410 C   0  0  2  0  0  0  0  0  0  0  0  0
   18.0381  -20.1365    7.7823 N   0  0  0  0  0  0  0  0  0  0  0  0
   19.4182  -21.3664    9.2490 C   0  0  0  0  0  0  0  0  0  0  0  0
   19.0060  -22.3694    8.6412 O   0  0  0  0  0  0  0  0  0  0  0  0
   20.3556  -21.5595   10.2457 O   0  0  0  0  0  0  0  0  0  0  0  0
  2  1  1  0
  2  3  2  0
  4  2  1  0
  5  4  1  0
  5  7  1  0
  5  6  1  1
  7  8  2  0
  9  7  1  0
  9 10  1  0
 10 11  1  6
 11 12  1  0
 12 13  1  0
 13 17  1  0
 14 13  2  0
 15 10  1  0
 15 16  2  0
 18 19  1  0
 19 21  1  0
 20 19  2  0
 22 21  1  1
 22 23  1  0
 23 15  1  0
 24 26  1  0
 24 22  1  0
 25 24  2  0
M  END
$$$$
