NEN.pdb
     RDKit          3D

 26 25  0  0  1  0  0  0  0  0999 V2000
   16.5010  -14.1819  -13.9710 N   0  0  0  0  0  0  0  0  0  0  0  0
   16.6354  -12.9926  -14.7383 C   0  0  0  0  0  0  0  0  0  0  0  0
   15.5806  -12.5405  -15.2791 O   0  0  0  0  0  0  0  0  0  0  0  0
   17.9470  -12.3047  -14.9043 C   0  0  0  0  0  0  0  0  0  0  0  0
   18.0702  -11.7746  -16.2847 C   0  0  2  0  0  0  0  0  0  0  0  0
   18.0868  -12.9306  -17.1930 N   0  0  0  0  0  0  0  0  0  0  0  0
   19.2393  -10.9013  -16.5371 C   0  0  0  0  0  0  0  0  0  0  0  0
   20.0424  -10.7284  -15.5936 O   0  0  0  0  0  0  0  0  0  0  0  0
   19.4792  -10.2690  -17.7806 N   0  0  0  0  0  0  0  0  0  0  0  0
   20.5639   -9.4074  -18.1280 C   0  0  1  0  0  0  0  0  0  0  0  0
   20.6942   -9.0859  -19.6047 C   0  0  0  0  0  0  0  0  0  0  0  0
   21.8512   -8.2041  -19.9475 C   0  0  0  0  0  0  0  0  0  0  0  0
   21.7931   -7.9740  -21.4171 C   0  0  0  0  0  0  0  0  0  0  0  0
   21.1347   -6.9736  -21.8162 O   0  0  0  0  0  0  0  0  0  0  0  0
   20.5708   -8.1729  -17.3575 C   0  0  0  0  0  0  0  0  0  0  0  0
   19.4326   -7.6537  -17.0882 O   0  0  0  0  0  0  0  0  0  0  0  0
   22.4193   -8.7987  -22.3163 O   0  0  0  0  0  0  0  0  0  0  0  0
   21.9327   -4.2298  -14.1160 N   0  0  0  0  0  0  0  0  0  0  0  0
   21.9301   -5.5765  -13.7047 C   0  0  0  0  0  0  0  0  0  0  0  0
   22.0995   -5.9204  -12.4952 O   0  0  0  0  0  0  0  0  0  0  0  0
   21.7265   -6.6484  -14.6745 C   0  0  0  0  0  0  0  0  0  0  0  0
   21.6264   -6.2368  -16.1049 C   0  0  2  0  0  0  0  0  0  0  0  0
   21.6971   -7.4919  -16.8788 N   0  0  0  0  0  0  0  0  0  0  0  0
   22.7222   -5.3859  -16.5913 C   0  0  0  0  0  0  0  0  0  0  0  0
   22.9771   -4.2775  -16.0894 O   0  0  0  0  0  0  0  0  0  0  0  0
   23.5110   -5.8117  -17.6429 O   0  0  0  0  0  0  0  0  0  0  0  0
  2  1  1  0
  2  3  2  0
  4  2  1  0
  5  4  1  0
  5  7  1  0
  5  6  1  6
  7  8  2  0
  9  7  1  0
  9 10  1  0
 10 11  1  6
 11 12  1  0
 12 13  1  0
 13 17  1  0
 14 13  2  0
 15 10  1  0
 15 16  2  0
 18 19  1  0
 19 21  1  0
 20 19  2  0
 22 21  1  1
 22 23  1  0
 23 15  1  0
 24 26  1  0
 24 22  1  0
 25 24  2  0
M  END
$$$$
