NEN.pdb
     RDKit          3D

 26 25  0  0  1  0  0  0  0  0999 V2000
   18.8736  -16.0934  -17.3607 N   0  0  0  0  0  0  0  0  0  0  0  0
   19.9370  -15.2390  -16.9601 C   0  0  0  0  0  0  0  0  0  0  0  0
   20.7475  -15.7016  -16.1007 O   0  0  0  0  0  0  0  0  0  0  0  0
   20.0988  -13.8662  -17.5172 C   0  0  0  0  0  0  0  0  0  0  0  0
   19.7143  -12.8575  -16.4992 C   0  0  2  0  0  0  0  0  0  0  0  0
   18.3158  -13.1236  -16.1320 N   0  0  0  0  0  0  0  0  0  0  0  0
   19.8839  -11.4418  -16.8994 C   0  0  0  0  0  0  0  0  0  0  0  0
   21.0051  -11.0976  -17.3347 O   0  0  0  0  0  0  0  0  0  0  0  0
   18.8464  -10.4829  -16.8120 N   0  0  0  0  0  0  0  0  0  0  0  0
   18.9178   -9.0883  -17.1117 C   0  0  1  0  0  0  0  0  0  0  0  0
   17.6654   -8.4874  -17.7211 C   0  0  0  0  0  0  0  0  0  0  0  0
   17.3464   -8.9810  -19.0952 C   0  0  0  0  0  0  0  0  0  0  0  0
   16.0658   -8.3358  -19.4951 C   0  0  0  0  0  0  0  0  0  0  0  0
   16.0630   -7.6881  -20.5788 O   0  0  0  0  0  0  0  0  0  0  0  0
   19.3373   -8.2884  -15.9706 C   0  0  0  0  0  0  0  0  0  0  0  0
   18.8891   -8.6380  -14.8241 O   0  0  0  0  0  0  0  0  0  0  0  0
   14.9272   -8.4274  -18.7362 O   0  0  0  0  0  0  0  0  0  0  0  0
   21.8950   -4.7372  -12.9125 N   0  0  0  0  0  0  0  0  0  0  0  0
   22.5616   -5.0081  -14.1229 C   0  0  0  0  0  0  0  0  0  0  0  0
   23.7051   -4.5295  -14.3937 O   0  0  0  0  0  0  0  0  0  0  0  0
   21.9496   -5.8686  -15.1308 C   0  0  0  0  0  0  0  0  0  0  0  0
   20.6179   -6.4469  -14.7874 C   0  0  2  0  0  0  0  0  0  0  0  0
   20.1830   -7.1724  -15.9971 N   0  0  0  0  0  0  0  0  0  0  0  0
   19.5651   -5.4649  -14.4901 C   0  0  0  0  0  0  0  0  0  0  0  0
   18.8943   -4.9177  -15.3823 O   0  0  0  0  0  0  0  0  0  0  0  0
   19.2927   -5.1214  -13.1797 O   0  0  0  0  0  0  0  0  0  0  0  0
  2  1  1  0
  2  3  2  0
  4  2  1  0
  5  4  1  0
  5  7  1  0
  5  6  1  6
  7  8  2  0
  9  7  1  0
  9 10  1  0
 10 11  1  1
 11 12  1  0
 12 13  1  0
 13 17  1  0
 14 13  2  0
 15 10  1  0
 15 16  2  0
 18 19  1  0
 19 21  1  0
 20 19  2  0
 22 21  1  6
 22 23  1  0
 23 15  1  0
 24 26  1  0
 24 22  1  0
 25 24  2  0
M  END
$$$$
