NEN.pdb
     RDKit          3D

 26 25  0  0  1  0  0  0  0  0999 V2000
   19.7149  -30.1863  -11.5189 N   0  0  0  0  0  0  0  0  0  0  0  0
   19.8053  -31.5621  -11.8659 C   0  0  0  0  0  0  0  0  0  0  0  0
   19.2884  -31.9064  -12.9721 O   0  0  0  0  0  0  0  0  0  0  0  0
   20.4725  -32.5571  -10.9796 C   0  0  0  0  0  0  0  0  0  0  0  0
   21.0399  -31.8761   -9.7897 C   0  0  2  0  0  0  0  0  0  0  0  0
   22.1626  -31.0500  -10.2573 N   0  0  0  0  0  0  0  0  0  0  0  0
   21.4745  -32.7630   -8.6863 C   0  0  0  0  0  0  0  0  0  0  0  0
   20.6407  -33.5861   -8.2475 O   0  0  0  0  0  0  0  0  0  0  0  0
   22.7717  -32.7176   -8.1216 N   0  0  0  0  0  0  0  0  0  0  0  0
   23.2890  -33.5145   -7.0552 C   0  0  1  0  0  0  0  0  0  0  0  0
   24.8013  -33.6115   -6.9880 C   0  0  0  0  0  0  0  0  0  0  0  0
   25.3181  -34.4933   -5.8975 C   0  0  0  0  0  0  0  0  0  0  0  0
   26.7948  -34.5672   -6.0707 C   0  0  0  0  0  0  0  0  0  0  0  0
   27.3498  -35.6692   -5.8037 O   0  0  0  0  0  0  0  0  0  0  0  0
   22.7670  -33.1215   -5.7549 C   0  0  0  0  0  0  0  0  0  0  0  0
   22.9321  -31.8999   -5.4114 O   0  0  0  0  0  0  0  0  0  0  0  0
   27.5398  -33.4988   -6.4998 O   0  0  0  0  0  0  0  0  0  0  0  0
   20.1933  -31.0867   -2.8599 N   0  0  0  0  0  0  0  0  0  0  0  0
   19.4399  -32.2086   -3.2557 C   0  0  0  0  0  0  0  0  0  0  0  0
   18.1711  -32.2108   -3.2606 O   0  0  0  0  0  0  0  0  0  0  0  0
   20.1048  -33.4351   -3.6854 C   0  0  0  0  0  0  0  0  0  0  0  0
   21.5888  -33.4707   -3.5365 C   0  0  2  0  0  0  0  0  0  0  0  0
   22.1010  -33.9439   -4.8376 N   0  0  0  0  0  0  0  0  0  0  0  0
   22.0956  -34.4084   -2.5239 C   0  0  0  0  0  0  0  0  0  0  0  0
   22.4098  -35.5792   -2.7992 O   0  0  0  0  0  0  0  0  0  0  0  0
   22.2366  -33.9969   -1.2124 O   0  0  0  0  0  0  0  0  0  0  0  0
  2  1  1  0
  2  3  2  0
  4  2  1  0
  5  4  1  0
  5  7  1  0
  5  6  1  6
  7  8  2  0
  9  7  1  0
  9 10  1  0
 10 11  1  1
 11 12  1  0
 12 13  1  0
 13 17  1  0
 14 13  2  0
 15 10  1  0
 15 16  2  0
 18 19  1  0
 19 21  1  0
 20 19  2  0
 22 21  1  6
 22 23  1  0
 23 15  1  0
 24 26  1  0
 24 22  1  0
 25 24  2  0
M  END
$$$$
