MTD.pdb
     RDKit          3D

 24 23  0  0  1  0  0  0  0  0999 V2000
    7.7468  -11.3490   19.5731 C   0  0  0  0  0  0  0  0  0  0  0  0
    6.9834  -12.9921   19.3746 S   0  0  0  0  0  0  0  0  0  0  0  0
    8.1169  -14.2615   19.9936 C   0  0  0  0  0  0  0  0  0  0  0  0
    8.6407  -13.8913   21.3733 C   0  0  0  0  0  0  0  0  0  0  0  0
    9.5761  -14.9448   21.9062 C   0  0  2  0  0  0  0  0  0  0  0  0
    9.8648  -15.9588   20.9282 N   0  0  0  0  0  0  0  0  0  0  0  0
    8.9800  -15.5370   23.1468 C   0  0  0  0  0  0  0  0  0  0  0  0
    7.9483  -15.0541   23.6778 O   0  0  0  0  0  0  0  0  0  0  0  0
    6.6920  -16.6106   23.8622 C   0  0  0  0  0  0  0  0  0  0  0  0
    7.4719  -17.7121   24.4820 C   0  0  1  0  0  0  0  0  0  0  0  0
    7.6655  -18.6704   23.4485 O   0  0  0  0  0  0  0  0  0  0  0  0
    8.8777  -17.3550   24.9170 C   0  0  2  0  0  0  0  0  0  0  0  0
    9.5533  -16.6724   23.7813 N   0  0  0  0  0  0  0  0  0  0  0  0
    9.6847  -18.5013   25.3568 C   0  0  0  0  0  0  0  0  0  0  0  0
   10.5712  -18.9542   24.5658 O   0  0  0  0  0  0  0  0  0  0  0  0
    9.5421  -19.1270   26.5920 N   0  0  0  0  0  0  0  0  0  0  0  0
   10.6699  -19.6268   27.3767 C   0  0  1  0  0  0  0  0  0  0  0  0
   11.7928  -18.6293   27.2637 C   0  0  0  0  0  0  0  0  0  0  0  0
   12.8968  -19.0681   26.4052 C   0  0  0  0  0  0  0  0  0  0  0  0
   13.4125  -20.1945   26.5754 O   0  0  0  0  0  0  0  0  0  0  0  0
   10.2711  -19.7103   28.8156 C   0  0  0  0  0  0  0  0  0  0  0  0
   11.0765  -20.2044   29.6430 O   0  0  0  0  0  0  0  0  0  0  0  0
   13.3577  -18.2117   25.4025 O   0  0  0  0  0  0  0  0  0  0  0  0
    9.0403  -19.2523   29.2236 O   0  0  0  0  0  0  0  0  0  0  0  0
  2  1  1  0
  2  3  1  0
  4  3  1  0
  4  5  1  0
  5  6  1  6
  7  5  1  0
  7  8  2  0
 10  9  1  6
 10 12  1  0
 11 10  1  0
 12 13  1  6
 12 14  1  0
 13  7  1  0
 14 16  1  0
 15 14  2  0
 16 17  1  0
 17 21  1  0
 17 18  1  1
 19 18  1  0
 20 19  2  0
 21 22  2  0
 21 24  1  0
 23 19  1  0
M  END
$$$$
