MTD.pdb
     RDKit          3D

 24 23  0  0  1  0  0  0  0  0999 V2000
    8.5536  -12.1665   27.2574 C   0  0  0  0  0  0  0  0  0  0  0  0
    6.7349  -12.2754   27.2062 S   0  0  0  0  0  0  0  0  0  0  0  0
    6.2202  -13.0197   25.6376 C   0  0  0  0  0  0  0  0  0  0  0  0
    7.0374  -14.2676   25.3382 C   0  0  0  0  0  0  0  0  0  0  0  0
    6.6227  -14.8953   24.0333 C   0  0  2  0  0  0  0  0  0  0  0  0
    5.2424  -15.2987   24.0398 N   0  0  0  0  0  0  0  0  0  0  0  0
    7.5285  -16.0536   23.7451 C   0  0  0  0  0  0  0  0  0  0  0  0
    7.0770  -17.1703   23.3864 O   0  0  0  0  0  0  0  0  0  0  0  0
    8.0408  -17.2019   21.4795 C   0  0  0  0  0  0  0  0  0  0  0  0
    9.4892  -17.0466   21.7694 C   0  0  1  0  0  0  0  0  0  0  0  0
    9.8532  -15.7833   21.2260 O   0  0  0  0  0  0  0  0  0  0  0  0
    9.8554  -16.9335   23.2344 C   0  0  2  0  0  0  0  0  0  0  0  0
    8.9407  -15.9440   23.8640 N   0  0  0  0  0  0  0  0  0  0  0  0
   11.2507  -16.5452   23.4811 C   0  0  0  0  0  0  0  0  0  0  0  0
   11.5445  -15.3082   23.4666 O   0  0  0  0  0  0  0  0  0  0  0  0
   12.2786  -17.4494   23.7329 N   0  0  0  0  0  0  0  0  0  0  0  0
   13.5269  -17.0843   24.4009 C   0  0  1  0  0  0  0  0  0  0  0  0
   14.0943  -18.3265   25.0362 C   0  0  0  0  0  0  0  0  0  0  0  0
   13.3897  -18.7517   26.2492 C   0  0  0  0  0  0  0  0  0  0  0  0
   12.6066  -17.9658   26.8261 O   0  0  0  0  0  0  0  0  0  0  0  0
   14.5079  -16.5989   23.3819 C   0  0  0  0  0  0  0  0  0  0  0  0
   14.2370  -16.7342   22.1630 O   0  0  0  0  0  0  0  0  0  0  0  0
   13.6078  -20.0396   26.7439 O   0  0  0  0  0  0  0  0  0  0  0  0
   15.6881  -16.0138   23.7767 O   0  0  0  0  0  0  0  0  0  0  0  0
  2  1  1  0
  2  3  1  0
  4  3  1  0
  4  5  1  0
  5  6  1  1
  7  5  1  0
  7  8  2  0
 10  9  1  1
 10 12  1  0
 11 10  1  0
 12 13  1  6
 12 14  1  0
 13  7  1  0
 14 16  1  0
 15 14  2  0
 16 17  1  0
 17 21  1  0
 17 18  1  6
 19 18  1  0
 20 19  2  0
 21 22  2  0
 21 24  1  0
 23 19  1  0
M  END
$$$$
