MTD.pdb
     RDKit          3D

 24 23  0  0  1  0  0  0  0  0999 V2000
    7.2375  -11.2342   25.6963 C   0  0  0  0  0  0  0  0  0  0  0  0
    6.6399  -12.2351   27.0974 S   0  0  0  0  0  0  0  0  0  0  0  0
    6.0638  -13.8403   26.4884 C   0  0  0  0  0  0  0  0  0  0  0  0
    7.2025  -14.6111   25.8371 C   0  0  0  0  0  0  0  0  0  0  0  0
    6.7134  -15.8944   25.2185 C   0  0  2  0  0  0  0  0  0  0  0  0
    6.0907  -16.7592   26.1841 N   0  0  0  0  0  0  0  0  0  0  0  0
    7.8643  -16.5728   24.5402 C   0  0  0  0  0  0  0  0  0  0  0  0
    8.3753  -17.6240   25.0022 O   0  0  0  0  0  0  0  0  0  0  0  0
    7.8975  -16.7659   20.6325 C   0  0  0  0  0  0  0  0  0  0  0  0
    9.2846  -16.5645   21.1237 C   0  0  1  0  0  0  0  0  0  0  0  0
    9.5525  -15.1780   20.9507 O   0  0  0  0  0  0  0  0  0  0  0  0
    9.4945  -16.7950   22.6056 C   0  0  2  0  0  0  0  0  0  0  0  0
    8.4323  -16.0596   23.3425 N   0  0  0  0  0  0  0  0  0  0  0  0
   10.8156  -16.3847   23.1006 C   0  0  0  0  0  0  0  0  0  0  0  0
   10.9356  -15.2267   23.6119 O   0  0  0  0  0  0  0  0  0  0  0  0
   11.9517  -17.1872   23.0476 N   0  0  0  0  0  0  0  0  0  0  0  0
   13.2531  -16.7767   23.5723 C   0  0  1  0  0  0  0  0  0  0  0  0
   13.9798  -18.0134   24.0318 C   0  0  0  0  0  0  0  0  0  0  0  0
   13.5479  -18.5072   25.3426 C   0  0  0  0  0  0  0  0  0  0  0  0
   12.8977  -17.7628   26.1086 O   0  0  0  0  0  0  0  0  0  0  0  0
   14.0537  -16.1535   22.4737 C   0  0  0  0  0  0  0  0  0  0  0  0
   15.1762  -15.6589   22.7434 O   0  0  0  0  0  0  0  0  0  0  0  0
   13.8738  -19.8130   25.7163 O   0  0  0  0  0  0  0  0  0  0  0  0
   13.5654  -16.1239   21.1885 O   0  0  0  0  0  0  0  0  0  0  0  0
  2  1  1  0
  2  3  1  0
  4  3  1  0
  4  5  1  0
  5  6  1  1
  7  5  1  0
  7  8  2  0
 10  9  1  1
 10 12  1  0
 11 10  1  0
 12 13  1  1
 12 14  1  0
 13  7  1  0
 14 16  1  0
 15 14  2  0
 16 17  1  0
 17 21  1  0
 17 18  1  6
 19 18  1  0
 20 19  2  0
 21 22  2  0
 21 24  1  0
 23 19  1  0
M  END
$$$$
