MTD.pdb
     RDKit          3D

 24 23  0  0  1  0  0  0  0  0999 V2000
    8.1084  -12.7311   21.3780 C   0  0  0  0  0  0  0  0  0  0  0  0
    7.8475  -11.9326   19.7604 S   0  0  0  0  0  0  0  0  0  0  0  0
    8.2235  -13.1124   18.4390 C   0  0  0  0  0  0  0  0  0  0  0  0
    8.5698  -14.4770   19.0157 C   0  0  0  0  0  0  0  0  0  0  0  0
    8.7219  -15.5094   17.9296 C   0  0  2  0  0  0  0  0  0  0  0  0
    7.5074  -15.6929   17.1816 N   0  0  0  0  0  0  0  0  0  0  0  0
    9.1825  -16.7950   18.5463 C   0  0  0  0  0  0  0  0  0  0  0  0
    8.5350  -17.8629   18.4057 O   0  0  0  0  0  0  0  0  0  0  0  0
   10.0014  -19.1627   17.6710 C   0  0  0  0  0  0  0  0  0  0  0  0
   11.1246  -19.0753   18.6389 C   0  0  1  0  0  0  0  0  0  0  0  0
   12.1910  -18.4554   17.9301 O   0  0  0  0  0  0  0  0  0  0  0  0
   10.8965  -18.1637   19.8263 C   0  0  2  0  0  0  0  0  0  0  0  0
   10.3732  -16.8670   19.3193 N   0  0  0  0  0  0  0  0  0  0  0  0
   12.0920  -17.9285   20.6472 C   0  0  0  0  0  0  0  0  0  0  0  0
   12.5992  -16.7625   20.6547 O   0  0  0  0  0  0  0  0  0  0  0  0
   12.7090  -18.9051   21.4238 N   0  0  0  0  0  0  0  0  0  0  0  0
   13.0130  -18.7323   22.8434 C   0  0  1  0  0  0  0  0  0  0  0  0
   11.7128  -18.5256   23.5751 C   0  0  0  0  0  0  0  0  0  0  0  0
   11.8666  -18.3153   25.0176 C   0  0  0  0  0  0  0  0  0  0  0  0
   13.0009  -18.3713   25.5408 O   0  0  0  0  0  0  0  0  0  0  0  0
   13.6434  -19.9826   23.3686 C   0  0  0  0  0  0  0  0  0  0  0  0
   13.0340  -21.0730   23.2379 O   0  0  0  0  0  0  0  0  0  0  0  0
   10.7322  -18.0535   25.7894 O   0  0  0  0  0  0  0  0  0  0  0  0
   14.8718  -19.9358   23.9849 O   0  0  0  0  0  0  0  0  0  0  0  0
  2  1  1  0
  2  3  1  0
  4  3  1  0
  4  5  1  0
  5  6  1  1
  7  5  1  0
  7  8  2  0
 10  9  1  6
 10 12  1  0
 11 10  1  0
 12 13  1  6
 12 14  1  0
 13  7  1  0
 14 16  1  0
 15 14  2  0
 16 17  1  0
 17 21  1  0
 17 18  1  1
 19 18  1  0
 20 19  2  0
 21 22  2  0
 21 24  1  0
 23 19  1  0
M  END
$$$$
