MTD.pdb
     RDKit          3D

 24 23  0  0  1  0  0  0  0  0999 V2000
    7.6370  -13.2866   18.6927 C   0  0  0  0  0  0  0  0  0  0  0  0
    7.8084  -12.2497   20.1818 S   0  0  0  0  0  0  0  0  0  0  0  0
    8.1828  -13.3012   21.6079 C   0  0  0  0  0  0  0  0  0  0  0  0
    7.2534  -14.5051   21.6499 C   0  0  0  0  0  0  0  0  0  0  0  0
    7.5848  -15.4143   22.8041 C   0  0  2  0  0  0  0  0  0  0  0  0
    8.1667  -14.6996   23.9080 N   0  0  0  0  0  0  0  0  0  0  0  0
    8.4942  -16.5010   22.3172 C   0  0  0  0  0  0  0  0  0  0  0  0
    8.0456  -17.5442   21.7785 O   0  0  0  0  0  0  0  0  0  0  0  0
   10.2431  -16.8430   19.5106 C   0  0  0  0  0  0  0  0  0  0  0  0
   11.2967  -17.0119   20.5437 C   0  0  1  0  0  0  0  0  0  0  0  0
   11.8181  -15.7082   20.7729 O   0  0  0  0  0  0  0  0  0  0  0  0
   10.8114  -17.4563   21.9076 C   0  0  2  0  0  0  0  0  0  0  0  0
    9.9068  -16.4033   22.4416 N   0  0  0  0  0  0  0  0  0  0  0  0
   11.8849  -17.7240   22.8743 C   0  0  0  0  0  0  0  0  0  0  0  0
   12.1432  -16.8389   23.7498 O   0  0  0  0  0  0  0  0  0  0  0  0
   12.6416  -18.8921   22.8952 N   0  0  0  0  0  0  0  0  0  0  0  0
   13.6915  -19.1542   23.8784 C   0  0  1  0  0  0  0  0  0  0  0  0
   14.0162  -20.6242   23.8304 C   0  0  0  0  0  0  0  0  0  0  0  0
   15.0953  -21.0271   24.7371 C   0  0  0  0  0  0  0  0  0  0  0  0
   16.1375  -21.5441   24.2788 O   0  0  0  0  0  0  0  0  0  0  0  0
   14.9239  -18.3977   23.4977 C   0  0  0  0  0  0  0  0  0  0  0  0
   15.0616  -18.0166   22.3089 O   0  0  0  0  0  0  0  0  0  0  0  0
   14.9384  -20.8242   26.1102 O   0  0  0  0  0  0  0  0  0  0  0  0
   15.8902  -18.1249   24.4373 O   0  0  0  0  0  0  0  0  0  0  0  0
  2  1  1  0
  2  3  1  0
  4  3  1  0
  4  5  1  0
  5  6  1  1
  7  5  1  0
  7  8  2  0
 10  9  1  6
 10 12  1  0
 11 10  1  0
 12 13  1  1
 12 14  1  0
 13  7  1  0
 14 16  1  0
 15 14  2  0
 16 17  1  0
 17 21  1  0
 17 18  1  6
 19 18  1  0
 20 19  2  0
 21 22  2  0
 21 24  1  0
 23 19  1  0
M  END
$$$$
