MTD.pdb
     RDKit          3D

 24 23  0  0  1  0  0  0  0  0999 V2000
    7.5715  -12.6063   17.1191 C   0  0  0  0  0  0  0  0  0  0  0  0
    8.3565  -13.1191   18.6821 S   0  0  0  0  0  0  0  0  0  0  0  0
    7.1072  -13.1800   19.9917 C   0  0  0  0  0  0  0  0  0  0  0  0
    7.7314  -13.5993   21.3143 C   0  0  0  0  0  0  0  0  0  0  0  0
    8.2768  -15.0015   21.2438 C   0  0  2  0  0  0  0  0  0  0  0  0
    7.2456  -15.9928   21.3924 N   0  0  0  0  0  0  0  0  0  0  0  0
    9.3400  -15.1592   22.2878 C   0  0  0  0  0  0  0  0  0  0  0  0
    9.2290  -14.6378   23.4259 O   0  0  0  0  0  0  0  0  0  0  0  0
    9.9943  -16.7529   24.8369 C   0  0  0  0  0  0  0  0  0  0  0  0
   11.2374  -17.0296   24.0727 C   0  0  1  0  0  0  0  0  0  0  0  0
   10.9585  -18.1902   23.2987 O   0  0  0  0  0  0  0  0  0  0  0  0
   11.6191  -15.9868   23.0432 C   0  0  2  0  0  0  0  0  0  0  0  0
   10.5239  -15.9058   22.0399 N   0  0  0  0  0  0  0  0  0  0  0  0
   12.8954  -16.2463   22.3633 C   0  0  0  0  0  0  0  0  0  0  0  0
   12.9199  -17.1176   21.4376 O   0  0  0  0  0  0  0  0  0  0  0  0
   14.0873  -15.5950   22.6676 N   0  0  0  0  0  0  0  0  0  0  0  0
   15.3669  -15.9221   22.0406 C   0  0  1  0  0  0  0  0  0  0  0  0
   15.8761  -14.6837   21.3506 C   0  0  0  0  0  0  0  0  0  0  0  0
   15.3007  -14.4621   20.0208 C   0  0  0  0  0  0  0  0  0  0  0  0
   14.7371  -15.4016   19.4182 O   0  0  0  0  0  0  0  0  0  0  0  0
   16.3535  -16.2978   23.0997 C   0  0  0  0  0  0  0  0  0  0  0  0
   16.0230  -16.1875   24.3064 O   0  0  0  0  0  0  0  0  0  0  0  0
   15.3933  -13.1929   19.4449 O   0  0  0  0  0  0  0  0  0  0  0  0
   17.6030  -16.7568   22.7545 O   0  0  0  0  0  0  0  0  0  0  0  0
  2  1  1  0
  2  3  1  0
  4  3  1  0
  4  5  1  0
  5  6  1  1
  7  5  1  0
  7  8  2  0
 10  9  1  6
 10 12  1  0
 11 10  1  0
 12 13  1  6
 12 14  1  0
 13  7  1  0
 14 16  1  0
 15 14  2  0
 16 17  1  0
 17 21  1  0
 17 18  1  1
 19 18  1  0
 20 19  2  0
 21 22  2  0
 21 24  1  0
 23 19  1  0
M  END
$$$$
