MTD.pdb
     RDKit          3D

 24 23  0  0  1  0  0  0  0  0999 V2000
    6.7864  -12.7578   20.6897 C   0  0  0  0  0  0  0  0  0  0  0  0
    7.6907  -12.3521   19.1602 S   0  0  0  0  0  0  0  0  0  0  0  0
    7.8605  -13.8436   18.1473 C   0  0  0  0  0  0  0  0  0  0  0  0
    8.8352  -14.8219   18.7859 C   0  0  0  0  0  0  0  0  0  0  0  0
    8.8809  -16.1237   18.0296 C   0  0  2  0  0  0  0  0  0  0  0  0
    7.5712  -16.5690   17.6365 N   0  0  0  0  0  0  0  0  0  0  0  0
    9.5753  -17.1486   18.8737 C   0  0  0  0  0  0  0  0  0  0  0  0
    9.1122  -18.3081   19.0172 O   0  0  0  0  0  0  0  0  0  0  0  0
   11.2449  -18.4712   17.2764 C   0  0  0  0  0  0  0  0  0  0  0  0
   12.3334  -18.2128   18.2533 C   0  0  1  0  0  0  0  0  0  0  0  0
   12.9853  -17.0345   17.7946 O   0  0  0  0  0  0  0  0  0  0  0  0
   11.8845  -17.8596   19.6558 C   0  0  2  0  0  0  0  0  0  0  0  0
   10.7902  -16.8576   19.5518 N   0  0  0  0  0  0  0  0  0  0  0  0
   12.9525  -17.3388   20.5199 C   0  0  0  0  0  0  0  0  0  0  0  0
   14.0101  -18.0313   20.6562 O   0  0  0  0  0  0  0  0  0  0  0  0
   12.8821  -16.1278   21.2024 N   0  0  0  0  0  0  0  0  0  0  0  0
   13.3725  -15.9426   22.5673 C   0  0  1  0  0  0  0  0  0  0  0  0
   12.4955  -16.7486   23.4892 C   0  0  0  0  0  0  0  0  0  0  0  0
   12.9010  -16.6953   24.8968 C   0  0  0  0  0  0  0  0  0  0  0  0
   13.9293  -16.0658   25.2284 O   0  0  0  0  0  0  0  0  0  0  0  0
   14.7642  -16.4804   22.6686 C   0  0  0  0  0  0  0  0  0  0  0  0
   14.9483  -17.7179   22.5583 O   0  0  0  0  0  0  0  0  0  0  0  0
   12.1240  -17.3551   25.8518 O   0  0  0  0  0  0  0  0  0  0  0  0
   15.8243  -15.6303   22.8796 O   0  0  0  0  0  0  0  0  0  0  0  0
  2  1  1  0
  2  3  1  0
  4  3  1  0
  4  5  1  0
  5  6  1  1
  7  5  1  0
  7  8  2  0
 10  9  1  6
 10 12  1  0
 11 10  1  0
 12 13  1  6
 12 14  1  0
 13  7  1  0
 14 16  1  0
 15 14  2  0
 16 17  1  0
 17 21  1  0
 17 18  1  1
 19 18  1  0
 20 19  2  0
 21 22  2  0
 21 24  1  0
 23 19  1  0
M  END
$$$$
