MTD.pdb
     RDKit          3D

 24 23  0  0  1  0  0  0  0  0999 V2000
    8.1802  -11.5783   20.0786 C   0  0  0  0  0  0  0  0  0  0  0  0
    7.1302  -12.4297   18.8560 S   0  0  0  0  0  0  0  0  0  0  0  0
    8.1100  -13.6816   17.9887 C   0  0  0  0  0  0  0  0  0  0  0  0
    9.1914  -14.2463   18.8979 C   0  0  0  0  0  0  0  0  0  0  0  0
    9.3760  -15.7250   18.6784 C   0  0  2  0  0  0  0  0  0  0  0  0
    8.3556  -16.2791   17.8300 N   0  0  0  0  0  0  0  0  0  0  0  0
    9.4100  -16.4104   20.0104 C   0  0  0  0  0  0  0  0  0  0  0  0
    8.3640  -16.6010   20.6807 O   0  0  0  0  0  0  0  0  0  0  0  0
    8.4693  -18.6326   21.1528 C   0  0  0  0  0  0  0  0  0  0  0  0
    9.8023  -18.8217   21.7799 C   0  0  1  0  0  0  0  0  0  0  0  0
   10.5285  -19.6575   20.8866 O   0  0  0  0  0  0  0  0  0  0  0  0
   10.6565  -17.5763   21.8909 C   0  0  2  0  0  0  0  0  0  0  0  0
   10.6265  -16.8771   20.5785 N   0  0  0  0  0  0  0  0  0  0  0  0
   12.0489  -17.8306   22.2849 C   0  0  0  0  0  0  0  0  0  0  0  0
   12.9407  -17.8385   21.3787 O   0  0  0  0  0  0  0  0  0  0  0  0
   12.4583  -18.0634   23.5948 N   0  0  0  0  0  0  0  0  0  0  0  0
   13.8352  -17.8836   24.0524 C   0  0  1  0  0  0  0  0  0  0  0  0
   14.1773  -16.4217   23.9327 C   0  0  0  0  0  0  0  0  0  0  0  0
   15.2376  -16.1343   22.9622 C   0  0  0  0  0  0  0  0  0  0  0  0
   15.6733  -17.0442   22.2235 O   0  0  0  0  0  0  0  0  0  0  0  0
   13.9285  -18.2617   25.4962 C   0  0  0  0  0  0  0  0  0  0  0  0
   15.0459  -18.5842   25.9702 O   0  0  0  0  0  0  0  0  0  0  0  0
   15.7474  -14.8364   22.8793 O   0  0  0  0  0  0  0  0  0  0  0  0
   12.8058  -18.2555   26.2904 O   0  0  0  0  0  0  0  0  0  0  0  0
  2  1  1  0
  2  3  1  0
  4  3  1  0
  4  5  1  0
  5  6  1  6
  7  5  1  0
  7  8  2  0
 10  9  1  6
 10 12  1  0
 11 10  1  0
 12 13  1  6
 12 14  1  0
 13  7  1  0
 14 16  1  0
 15 14  2  0
 16 17  1  0
 17 21  1  0
 17 18  1  1
 19 18  1  0
 20 19  2  0
 21 22  2  0
 21 24  1  0
 23 19  1  0
M  END
$$$$
