MTD.pdb
     RDKit          3D

 24 23  0  0  1  0  0  0  0  0999 V2000
    8.1700  -11.8015   27.1460 C   0  0  0  0  0  0  0  0  0  0  0  0
    6.4859  -11.9522   26.4655 S   0  0  0  0  0  0  0  0  0  0  0  0
    6.5809  -12.4604   24.7300 C   0  0  0  0  0  0  0  0  0  0  0  0
    7.1527  -13.8651   24.6092 C   0  0  0  0  0  0  0  0  0  0  0  0
    7.3344  -14.2617   23.1675 C   0  0  2  0  0  0  0  0  0  0  0  0
    6.0961  -14.2331   22.4368 N   0  0  0  0  0  0  0  0  0  0  0  0
    7.9673  -15.6189   23.1160 C   0  0  0  0  0  0  0  0  0  0  0  0
    7.3719  -16.6054   22.6143 O   0  0  0  0  0  0  0  0  0  0  0  0
    8.9133  -17.0980   21.0587 C   0  0  0  0  0  0  0  0  0  0  0  0
   10.1614  -17.2454   21.8501 C   0  0  1  0  0  0  0  0  0  0  0  0
   10.9725  -16.1323   21.4935 O   0  0  0  0  0  0  0  0  0  0  0  0
   10.0044  -17.1172   23.3508 C   0  0  2  0  0  0  0  0  0  0  0  0
    9.2706  -15.8543   23.6321 N   0  0  0  0  0  0  0  0  0  0  0  0
   11.2710  -17.1305   24.0952 C   0  0  0  0  0  0  0  0  0  0  0  0
   11.9454  -16.0545   24.1582 O   0  0  0  0  0  0  0  0  0  0  0  0
   11.7834  -18.2516   24.7417 N   0  0  0  0  0  0  0  0  0  0  0  0
   12.8597  -18.1902   25.7294 C   0  0  1  0  0  0  0  0  0  0  0  0
   12.7489  -19.4048   26.6132 C   0  0  0  0  0  0  0  0  0  0  0  0
   11.6541  -19.3377   27.5855 C   0  0  0  0  0  0  0  0  0  0  0  0
   10.9742  -18.2936   27.6913 O   0  0  0  0  0  0  0  0  0  0  0  0
   14.1782  -18.2508   25.0264 C   0  0  0  0  0  0  0  0  0  0  0  0
   14.2236  -18.7015   23.8551 O   0  0  0  0  0  0  0  0  0  0  0  0
   11.3873  -20.4521   28.3843 O   0  0  0  0  0  0  0  0  0  0  0  0
   15.3220  -17.8189   25.6559 O   0  0  0  0  0  0  0  0  0  0  0  0
  2  1  1  0
  2  3  1  0
  4  3  1  0
  4  5  1  0
  5  6  1  1
  7  5  1  0
  7  8  2  0
 10  9  1  6
 10 12  1  0
 11 10  1  0
 12 13  1  6
 12 14  1  0
 13  7  1  0
 14 16  1  0
 15 14  2  0
 16 17  1  0
 17 21  1  0
 17 18  1  1
 19 18  1  0
 20 19  2  0
 21 22  2  0
 21 24  1  0
 23 19  1  0
M  END
$$$$
