MTD.pdb
     RDKit          3D

 24 23  0  0  1  0  0  0  0  0999 V2000
    5.7092  -11.8653   26.3733 C   0  0  0  0  0  0  0  0  0  0  0  0
    6.9776  -12.6492   27.4215 S   0  0  0  0  0  0  0  0  0  0  0  0
    7.7676  -13.9965   26.5049 C   0  0  0  0  0  0  0  0  0  0  0  0
    7.1276  -15.3328   26.8505 C   0  0  0  0  0  0  0  0  0  0  0  0
    6.5015  -15.9714   25.6386 C   0  0  2  0  0  0  0  0  0  0  0  0
    5.7239  -17.1326   25.9779 N   0  0  0  0  0  0  0  0  0  0  0  0
    7.5823  -16.3063   24.6564 C   0  0  0  0  0  0  0  0  0  0  0  0
    8.3069  -17.3238   24.7948 O   0  0  0  0  0  0  0  0  0  0  0  0
    6.9096  -15.1473   20.9119 C   0  0  0  0  0  0  0  0  0  0  0  0
    8.3709  -15.2227   21.1662 C   0  0  1  0  0  0  0  0  0  0  0  0
    8.7951  -13.8777   21.3529 O   0  0  0  0  0  0  0  0  0  0  0  0
    8.7774  -15.9156   22.4499 C   0  0  2  0  0  0  0  0  0  0  0  0
    7.8390  -15.4890   23.5221 N   0  0  0  0  0  0  0  0  0  0  0  0
   10.1608  -15.6514   22.8683 C   0  0  0  0  0  0  0  0  0  0  0  0
   10.3533  -15.0555   23.9749 O   0  0  0  0  0  0  0  0  0  0  0  0
   11.2821  -16.0150   22.1280 N   0  0  0  0  0  0  0  0  0  0  0  0
   12.6064  -16.2111   22.7155 C   0  0  1  0  0  0  0  0  0  0  0  0
   12.5240  -17.3741   23.6691 C   0  0  0  0  0  0  0  0  0  0  0  0
   13.7918  -17.6939   24.3315 C   0  0  0  0  0  0  0  0  0  0  0  0
   14.4630  -18.6798   23.9559 O   0  0  0  0  0  0  0  0  0  0  0  0
   13.5771  -16.5688   21.6356 C   0  0  0  0  0  0  0  0  0  0  0  0
   14.6433  -15.9130   21.5335 O   0  0  0  0  0  0  0  0  0  0  0  0
   14.2318  -16.8837   25.3808 O   0  0  0  0  0  0  0  0  0  0  0  0
   13.3035  -17.6008   20.7689 O   0  0  0  0  0  0  0  0  0  0  0  0
  2  1  1  0
  2  3  1  0
  4  3  1  0
  4  5  1  0
  5  6  1  1
  7  5  1  0
  7  8  2  0
 10  9  1  1
 10 12  1  0
 11 10  1  0
 12 13  1  1
 12 14  1  0
 13  7  1  0
 14 16  1  0
 15 14  2  0
 16 17  1  0
 17 21  1  0
 17 18  1  1
 19 18  1  0
 20 19  2  0
 21 22  2  0
 21 24  1  0
 23 19  1  0
M  END
$$$$
