MTD.pdb
     RDKit          3D

 24 23  0  0  1  0  0  0  0  0999 V2000
    7.4903  -12.4747   20.8444 C   0  0  0  0  0  0  0  0  0  0  0  0
    7.1977  -12.1275   19.0792 S   0  0  0  0  0  0  0  0  0  0  0  0
    7.5917  -13.6007   18.1024 C   0  0  0  0  0  0  0  0  0  0  0  0
    8.3367  -14.6245   18.9459 C   0  0  0  0  0  0  0  0  0  0  0  0
    8.5428  -15.9118   18.1914 C   0  0  2  0  0  0  0  0  0  0  0  0
    7.3165  -16.4173   17.6359 N   0  0  0  0  0  0  0  0  0  0  0  0
    9.1802  -16.9117   19.1073 C   0  0  0  0  0  0  0  0  0  0  0  0
    8.4923  -17.6920   19.8128 O   0  0  0  0  0  0  0  0  0  0  0  0
   10.9681  -19.8485   18.4035 C   0  0  0  0  0  0  0  0  0  0  0  0
   11.8799  -19.0844   19.2928 C   0  0  1  0  0  0  0  0  0  0  0  0
   12.7402  -18.3582   18.4231 O   0  0  0  0  0  0  0  0  0  0  0  0
   11.2243  -18.0120   20.1373 C   0  0  2  0  0  0  0  0  0  0  0  0
   10.5925  -17.0248   19.2215 N   0  0  0  0  0  0  0  0  0  0  0  0
   12.1397  -17.3208   21.0554 C   0  0  0  0  0  0  0  0  0  0  0  0
   12.5695  -16.1702   20.7264 O   0  0  0  0  0  0  0  0  0  0  0  0
   12.5686  -17.8463   22.2709 N   0  0  0  0  0  0  0  0  0  0  0  0
   13.4885  -17.1507   23.1694 C   0  0  1  0  0  0  0  0  0  0  0  0
   13.2212  -17.6319   24.5714 C   0  0  0  0  0  0  0  0  0  0  0  0
   14.1339  -17.0792   25.5765 C   0  0  0  0  0  0  0  0  0  0  0  0
   15.0168  -16.2612   25.2375 O   0  0  0  0  0  0  0  0  0  0  0  0
   14.8946  -17.5179   22.8168 C   0  0  0  0  0  0  0  0  0  0  0  0
   15.1294  -18.6668   22.3672 O   0  0  0  0  0  0  0  0  0  0  0  0
   13.9998  -17.4802   26.9077 O   0  0  0  0  0  0  0  0  0  0  0  0
   15.9131  -16.6090   22.9834 O   0  0  0  0  0  0  0  0  0  0  0  0
  2  1  1  0
  2  3  1  0
  4  3  1  0
  4  5  1  0
  5  6  1  1
  7  5  1  0
  7  8  2  0
 10  9  1  6
 10 12  1  0
 11 10  1  0
 12 13  1  6
 12 14  1  0
 13  7  1  0
 14 16  1  0
 15 14  2  0
 16 17  1  0
 17 21  1  0
 17 18  1  1
 19 18  1  0
 20 19  2  0
 21 22  2  0
 21 24  1  0
 23 19  1  0
M  END
$$$$
