MTD.pdb
     RDKit          3D

 24 23  0  0  1  0  0  0  0  0999 V2000
    5.8513  -11.6525   28.6943 C   0  0  0  0  0  0  0  0  0  0  0  0
    6.8320  -11.5635   27.1605 S   0  0  0  0  0  0  0  0  0  0  0  0
    5.7642  -11.9182   25.7416 C   0  0  0  0  0  0  0  0  0  0  0  0
    5.9519  -13.3524   25.2697 C   0  0  0  0  0  0  0  0  0  0  0  0
    7.4030  -13.7547   25.2997 C   0  0  2  0  0  0  0  0  0  0  0  0
    8.2740  -12.6719   24.9294 N   0  0  0  0  0  0  0  0  0  0  0  0
    7.5943  -14.9400   24.4034 C   0  0  0  0  0  0  0  0  0  0  0  0
    6.9405  -16.0012   24.5651 O   0  0  0  0  0  0  0  0  0  0  0  0
    7.2584  -14.9271   20.7966 C   0  0  0  0  0  0  0  0  0  0  0  0
    8.4933  -15.7176   21.0333 C   0  0  1  0  0  0  0  0  0  0  0  0
    9.5711  -14.8436   20.7200 O   0  0  0  0  0  0  0  0  0  0  0  0
    8.7511  -16.1147   22.4717 C   0  0  2  0  0  0  0  0  0  0  0  0
    8.5240  -14.9202   23.3283 N   0  0  0  0  0  0  0  0  0  0  0  0
   10.0955  -16.6532   22.7191 C   0  0  0  0  0  0  0  0  0  0  0  0
   10.9248  -15.9345   23.3613 O   0  0  0  0  0  0  0  0  0  0  0  0
   10.5227  -17.9082   22.2949 N   0  0  0  0  0  0  0  0  0  0  0  0
   11.8780  -18.4129   22.5097 C   0  0  1  0  0  0  0  0  0  0  0  0
   11.8001  -19.5479   23.4968 C   0  0  0  0  0  0  0  0  0  0  0  0
   11.6099  -19.1191   24.8856 C   0  0  0  0  0  0  0  0  0  0  0  0
   10.5194  -19.3272   25.4610 O   0  0  0  0  0  0  0  0  0  0  0  0
   12.4113  -18.9573   21.2230 C   0  0  0  0  0  0  0  0  0  0  0  0
   13.6366  -19.2181   21.1335 O   0  0  0  0  0  0  0  0  0  0  0  0
   12.6604  -18.4795   25.5476 O   0  0  0  0  0  0  0  0  0  0  0  0
   11.5702  -19.1682   20.1557 O   0  0  0  0  0  0  0  0  0  0  0  0
  2  1  1  0
  2  3  1  0
  4  3  1  0
  4  5  1  0
  5  6  1  6
  7  5  1  0
  7  8  2  0
 10  9  1  1
 10 12  1  0
 11 10  1  0
 12 13  1  1
 12 14  1  0
 13  7  1  0
 14 16  1  0
 15 14  2  0
 16 17  1  0
 17 21  1  0
 17 18  1  1
 19 18  1  0
 20 19  2  0
 21 22  2  0
 21 24  1  0
 23 19  1  0
M  END
$$$$
