GGK.pdb
     RDKit          3D

 18 17  0  0  1  0  0  0  0  0999 V2000
    4.4398  -23.2013   22.7057 N   0  0  0  0  0  0  0  0  0  0  0  0
    5.2184  -22.6744   23.7848 C   0  0  0  0  0  0  0  0  0  0  0  0
    4.9733  -21.2177   23.9772 C   0  0  0  0  0  0  0  0  0  0  0  0
    3.8733  -20.7704   24.3816 O   0  0  0  0  0  0  0  0  0  0  0  0
    6.0321  -20.3235   23.6877 N   0  0  0  0  0  0  0  0  0  0  0  0
    5.8917  -18.9000   23.9920 C   0  0  0  0  0  0  0  0  0  0  0  0
    7.0742  -18.1823   23.4434 C   0  0  0  0  0  0  0  0  0  0  0  0
    8.0514  -18.7916   22.9121 O   0  0  0  0  0  0  0  0  0  0  0  0
    7.1509  -16.7658   23.4966 N   0  0  0  0  0  0  0  0  0  0  0  0
    8.1870  -16.0439   22.7621 C   0  0  1  0  0  0  0  0  0  0  0  0
    7.5910  -14.8368   22.1176 C   0  0  0  0  0  0  0  0  0  0  0  0
    8.5282  -14.0615   21.2507 C   0  0  0  0  0  0  0  0  0  0  0  0
    7.7641  -13.4273   20.0822 C   0  0  0  0  0  0  0  0  0  0  0  0
    8.7622  -12.7959   19.1560 C   0  0  0  0  0  0  0  0  0  0  0  0
    8.1254  -12.1634   18.0263 N   0  0  0  0  0  0  0  0  0  0  0  0
    9.2909  -15.7667   23.6946 C   0  0  0  0  0  0  0  0  0  0  0  0
    9.1256  -15.6221   24.9364 O   0  0  0  0  0  0  0  0  0  0  0  0
   10.6174  -15.6464   23.2365 O   0  0  0  0  0  0  0  0  0  0  0  0
  1  2  1  0
  3  2  1  0
  3  5  1  0
  4  3  2  0
  6  5  1  0
  7  9  1  0
  7  6  1  0
  8  7  2  0
 10  9  1  0
 10 16  1  0
 10 11  1  1
 12 11  1  0
 13 14  1  0
 13 12  1  0
 14 15  1  0
 16 17  2  0
 16 18  1  0
M  END
$$$$
