GGK.pdb
     RDKit          3D

 18 17  0  0  1  0  0  0  0  0999 V2000
    9.2173  -16.2771   17.2353 N   0  0  0  0  0  0  0  0  0  0  0  0
    7.9485  -15.9399   17.8052 C   0  0  0  0  0  0  0  0  0  0  0  0
    8.0902  -15.4413   19.2018 C   0  0  0  0  0  0  0  0  0  0  0  0
    9.0798  -15.7256   19.9182 O   0  0  0  0  0  0  0  0  0  0  0  0
    7.0605  -14.6190   19.7196 N   0  0  0  0  0  0  0  0  0  0  0  0
    7.1998  -14.0200   21.0465 C   0  0  0  0  0  0  0  0  0  0  0  0
    6.9516  -15.0738   22.0674 C   0  0  0  0  0  0  0  0  0  0  0  0
    5.9943  -15.9001   21.9707 O   0  0  0  0  0  0  0  0  0  0  0  0
    7.7924  -15.1929   23.2049 N   0  0  0  0  0  0  0  0  0  0  0  0
    7.6134  -16.2863   24.1571 C   0  0  1  0  0  0  0  0  0  0  0  0
    8.8804  -16.4967   24.9173 C   0  0  0  0  0  0  0  0  0  0  0  0
    8.8330  -17.6010   25.9220 C   0  0  0  0  0  0  0  0  0  0  0  0
   10.1786  -17.7117   26.6489 C   0  0  0  0  0  0  0  0  0  0  0  0
   10.1363  -18.9237   27.5332 C   0  0  0  0  0  0  0  0  0  0  0  0
   11.3709  -19.1069   28.2572 N   0  0  0  0  0  0  0  0  0  0  0  0
    6.4383  -15.9748   24.9860 C   0  0  0  0  0  0  0  0  0  0  0  0
    6.1004  -14.7985   25.2902 O   0  0  0  0  0  0  0  0  0  0  0  0
    5.6134  -16.9980   25.4925 O   0  0  0  0  0  0  0  0  0  0  0  0
  1  2  1  0
  3  2  1  0
  3  5  1  0
  4  3  2  0
  6  5  1  0
  7  9  1  0
  7  6  1  0
  8  7  2  0
 10  9  1  0
 10 16  1  0
 10 11  1  1
 12 11  1  0
 13 14  1  0
 13 12  1  0
 14 15  1  0
 16 17  2  0
 16 18  1  0
M  END
$$$$
