GGK.pdb
     RDKit          3D

 18 17  0  0  1  0  0  0  0  0999 V2000
    4.3370  -20.2897   16.3179 N   0  0  0  0  0  0  0  0  0  0  0  0
    5.0499  -20.1007   17.5444 C   0  0  0  0  0  0  0  0  0  0  0  0
    6.0459  -18.9983   17.4350 C   0  0  0  0  0  0  0  0  0  0  0  0
    6.7765  -18.8523   16.4259 O   0  0  0  0  0  0  0  0  0  0  0  0
    6.1557  -18.0944   18.5192 N   0  0  0  0  0  0  0  0  0  0  0  0
    7.1884  -17.0589   18.5070 C   0  0  0  0  0  0  0  0  0  0  0  0
    8.4412  -17.6367   19.0648 C   0  0  0  0  0  0  0  0  0  0  0  0
    9.4863  -16.9418   19.2474 O   0  0  0  0  0  0  0  0  0  0  0  0
    8.5112  -19.0098   19.4180 N   0  0  0  0  0  0  0  0  0  0  0  0
    9.7806  -19.6188   19.8080 C   0  0  1  0  0  0  0  0  0  0  0  0
    9.5329  -20.6690   20.8391 C   0  0  0  0  0  0  0  0  0  0  0  0
   10.7232  -21.5029   21.1836 C   0  0  0  0  0  0  0  0  0  0  0  0
   10.3308  -22.5946   22.1863 C   0  0  0  0  0  0  0  0  0  0  0  0
   11.5519  -23.4119   22.4925 C   0  0  0  0  0  0  0  0  0  0  0  0
   11.2545  -24.5196   23.3680 N   0  0  0  0  0  0  0  0  0  0  0  0
   10.4463  -20.0959   18.5856 C   0  0  0  0  0  0  0  0  0  0  0  0
   11.6980  -20.2074   18.4799 O   0  0  0  0  0  0  0  0  0  0  0  0
    9.7019  -20.4602   17.4467 O   0  0  0  0  0  0  0  0  0  0  0  0
  1  2  1  0
  3  2  1  0
  3  5  1  0
  4  3  2  0
  6  5  1  0
  7  9  1  0
  7  6  1  0
  8  7  2  0
 10  9  1  0
 10 16  1  0
 10 11  1  1
 12 11  1  0
 13 14  1  0
 13 12  1  0
 14 15  1  0
 16 17  2  0
 16 18  1  0
M  END
$$$$
