GGK.pdb
     RDKit          3D

 18 17  0  0  1  0  0  0  0  0999 V2000
    7.8864  -13.2439   16.1455 N   0  0  0  0  0  0  0  0  0  0  0  0
    8.0282  -13.5996   17.5245 C   0  0  0  0  0  0  0  0  0  0  0  0
    8.2963  -15.0556   17.6901 C   0  0  0  0  0  0  0  0  0  0  0  0
    8.4184  -15.8305   16.7113 O   0  0  0  0  0  0  0  0  0  0  0  0
    8.4139  -15.5622   19.0069 N   0  0  0  0  0  0  0  0  0  0  0  0
    8.5956  -16.9968   19.2255 C   0  0  0  0  0  0  0  0  0  0  0  0
    8.7973  -17.2294   20.6814 C   0  0  0  0  0  0  0  0  0  0  0  0
    8.3516  -16.4348   21.5637 O   0  0  0  0  0  0  0  0  0  0  0  0
    9.5081  -18.3689   21.1414 N   0  0  0  0  0  0  0  0  0  0  0  0
    8.9908  -19.1808   22.2403 C   0  0  1  0  0  0  0  0  0  0  0  0
    7.5962  -19.6107   21.9279 C   0  0  0  0  0  0  0  0  0  0  0  0
    6.9485  -20.4509   22.9795 C   0  0  0  0  0  0  0  0  0  0  0  0
    5.5501  -20.8835   22.5225 C   0  0  0  0  0  0  0  0  0  0  0  0
    4.9673  -21.7782   23.5774 C   0  0  0  0  0  0  0  0  0  0  0  0
    3.6685  -22.2814   23.2009 N   0  0  0  0  0  0  0  0  0  0  0  0
    9.9401  -20.2804   22.4743 C   0  0  0  0  0  0  0  0  0  0  0  0
   10.2384  -21.1337   21.5950 O   0  0  0  0  0  0  0  0  0  0  0  0
   10.5775  -20.4384   23.7204 O   0  0  0  0  0  0  0  0  0  0  0  0
  1  2  1  0
  3  2  1  0
  3  5  1  0
  4  3  2  0
  6  5  1  0
  7  9  1  0
  7  6  1  0
  8  7  2  0
 10  9  1  0
 10 16  1  0
 10 11  1  6
 12 11  1  0
 13 14  1  0
 13 12  1  0
 14 15  1  0
 16 17  2  0
 16 18  1  0
M  END
$$$$
