GGK.pdb
     RDKit          3D

 18 17  0  0  1  0  0  0  0  0999 V2000
    8.3253  -13.2023   16.3752 N   0  0  0  0  0  0  0  0  0  0  0  0
    8.4248  -13.2086   17.8030 C   0  0  0  0  0  0  0  0  0  0  0  0
    8.3774  -14.5937   18.3495 C   0  0  0  0  0  0  0  0  0  0  0  0
    8.6779  -15.5974   17.6597 O   0  0  0  0  0  0  0  0  0  0  0  0
    7.9764  -14.7611   19.6970 N   0  0  0  0  0  0  0  0  0  0  0  0
    8.4274  -15.9275   20.4552 C   0  0  0  0  0  0  0  0  0  0  0  0
    8.9242  -15.4650   21.7795 C   0  0  0  0  0  0  0  0  0  0  0  0
   10.1143  -15.0633   21.9552 O   0  0  0  0  0  0  0  0  0  0  0  0
    8.0683  -15.4573   22.9119 N   0  0  0  0  0  0  0  0  0  0  0  0
    8.5532  -15.0057   24.2139 C   0  0  1  0  0  0  0  0  0  0  0  0
    7.3962  -14.5841   25.0571 C   0  0  0  0  0  0  0  0  0  0  0  0
    7.3952  -13.1415   25.4446 C   0  0  0  0  0  0  0  0  0  0  0  0
    6.1916  -12.8374   26.3448 C   0  0  0  0  0  0  0  0  0  0  0  0
    6.1816  -11.3646   26.6336 C   0  0  0  0  0  0  0  0  0  0  0  0
    5.0668  -10.9858   27.4678 N   0  0  0  0  0  0  0  0  0  0  0  0
    9.3771  -16.0819   24.7865 C   0  0  0  0  0  0  0  0  0  0  0  0
    9.2484  -17.2948   24.4658 O   0  0  0  0  0  0  0  0  0  0  0  0
   10.3733  -15.8050   25.7429 O   0  0  0  0  0  0  0  0  0  0  0  0
  1  2  1  0
  3  2  1  0
  3  5  1  0
  4  3  2  0
  6  5  1  0
  7  9  1  0
  7  6  1  0
  8  7  2  0
 10  9  1  0
 10 16  1  0
 10 11  1  1
 12 11  1  0
 13 14  1  0
 13 12  1  0
 14 15  1  0
 16 17  2  0
 16 18  1  0
M  END
$$$$
