GGK.pdb
     RDKit          3D

 18 17  0  0  1  0  0  0  0  0999 V2000
    9.0969  -18.0541   16.1350 N   0  0  0  0  0  0  0  0  0  0  0  0
    9.5487  -17.6275   17.4243 C   0  0  0  0  0  0  0  0  0  0  0  0
    8.4082  -17.2745   18.3154 C   0  0  0  0  0  0  0  0  0  0  0  0
    7.2132  -17.4498   17.9766 O   0  0  0  0  0  0  0  0  0  0  0  0
    8.7053  -16.7230   19.5851 N   0  0  0  0  0  0  0  0  0  0  0  0
    7.6239  -16.4132   20.5196 C   0  0  0  0  0  0  0  0  0  0  0  0
    8.2076  -15.7290   21.7052 C   0  0  0  0  0  0  0  0  0  0  0  0
    9.4592  -15.6141   21.8744 O   0  0  0  0  0  0  0  0  0  0  0  0
    7.3688  -15.1713   22.7055 N   0  0  0  0  0  0  0  0  0  0  0  0
    7.9236  -14.3335   23.7661 C   0  0  1  0  0  0  0  0  0  0  0  0
    6.8190  -13.5962   24.4470 C   0  0  0  0  0  0  0  0  0  0  0  0
    7.2516  -12.7274   25.5825 C   0  0  0  0  0  0  0  0  0  0  0  0
    6.0343  -12.0472   26.2204 C   0  0  0  0  0  0  0  0  0  0  0  0
    6.5128  -11.2129   27.3727 C   0  0  0  0  0  0  0  0  0  0  0  0
    5.4220  -10.5640   28.0589 N   0  0  0  0  0  0  0  0  0  0  0  0
    8.7284  -15.1948   24.6467 C   0  0  0  0  0  0  0  0  0  0  0  0
    9.7646  -14.7950   25.2440 O   0  0  0  0  0  0  0  0  0  0  0  0
    8.3735  -16.5392   24.8717 O   0  0  0  0  0  0  0  0  0  0  0  0
  1  2  1  0
  3  2  1  0
  3  5  1  0
  4  3  2  0
  6  5  1  0
  7  9  1  0
  7  6  1  0
  8  7  2  0
 10  9  1  0
 10 16  1  0
 10 11  1  1
 12 11  1  0
 13 14  1  0
 13 12  1  0
 14 15  1  0
 16 17  2  0
 16 18  1  0
M  END
$$$$
