GGK.pdb
     RDKit          3D

 18 17  0  0  1  0  0  0  0  0999 V2000
    4.7027  -19.7004   22.3868 N   0  0  0  0  0  0  0  0  0  0  0  0
    6.1337  -19.7124   22.3596 C   0  0  0  0  0  0  0  0  0  0  0  0
    6.6731  -18.6692   21.4430 C   0  0  0  0  0  0  0  0  0  0  0  0
    5.9285  -17.9402   20.7446 O   0  0  0  0  0  0  0  0  0  0  0  0
    8.0783  -18.5114   21.3725 N   0  0  0  0  0  0  0  0  0  0  0  0
    8.6524  -17.3919   20.6269 C   0  0  0  0  0  0  0  0  0  0  0  0
    9.5077  -16.5995   21.5516 C   0  0  0  0  0  0  0  0  0  0  0  0
   10.2256  -15.6334   21.1518 O   0  0  0  0  0  0  0  0  0  0  0  0
    9.5505  -16.9028   22.9378 N   0  0  0  0  0  0  0  0  0  0  0  0
   10.3824  -16.1215   23.8498 C   0  0  1  0  0  0  0  0  0  0  0  0
    9.6078  -15.8103   25.0870 C   0  0  0  0  0  0  0  0  0  0  0  0
   10.3951  -15.1482   26.1700 C   0  0  0  0  0  0  0  0  0  0  0  0
    9.5235  -14.9617   27.4178 C   0  0  0  0  0  0  0  0  0  0  0  0
   10.3688  -14.3429   28.4927 C   0  0  0  0  0  0  0  0  0  0  0  0
    9.5991  -14.0333   29.6733 N   0  0  0  0  0  0  0  0  0  0  0  0
   11.6311  -16.8673   24.0722 C   0  0  0  0  0  0  0  0  0  0  0  0
   12.7577  -16.3108   24.1796 O   0  0  0  0  0  0  0  0  0  0  0  0
   11.6306  -18.2717   24.1786 O   0  0  0  0  0  0  0  0  0  0  0  0
  1  2  1  0
  3  2  1  0
  3  5  1  0
  4  3  2  0
  6  5  1  0
  7  9  1  0
  7  6  1  0
  8  7  2  0
 10  9  1  0
 10 16  1  0
 10 11  1  1
 12 11  1  0
 13 14  1  0
 13 12  1  0
 14 15  1  0
 16 17  2  0
 16 18  1  0
M  END
$$$$
