GGK.pdb
     RDKit          3D

 18 17  0  0  1  0  0  0  0  0999 V2000
    7.2299  -13.2566   17.8713 N   0  0  0  0  0  0  0  0  0  0  0  0
    7.3181  -13.8076   19.1893 C   0  0  0  0  0  0  0  0  0  0  0  0
    8.7106  -14.2232   19.5173 C   0  0  0  0  0  0  0  0  0  0  0  0
    9.6477  -14.1425   18.6874 O   0  0  0  0  0  0  0  0  0  0  0  0
    8.9638  -14.7241   20.8172 N   0  0  0  0  0  0  0  0  0  0  0  0
   10.3404  -14.8830   21.2848 C   0  0  0  0  0  0  0  0  0  0  0  0
   10.3087  -15.2415   22.7288 C   0  0  0  0  0  0  0  0  0  0  0  0
   11.3650  -15.4425   23.4013 O   0  0  0  0  0  0  0  0  0  0  0  0
    9.0734  -15.3731   23.4156 N   0  0  0  0  0  0  0  0  0  0  0  0
    9.0389  -15.5825   24.8610 C   0  0  1  0  0  0  0  0  0  0  0  0
    7.7900  -14.9871   25.4206 C   0  0  0  0  0  0  0  0  0  0  0  0
    7.7692  -13.4941   25.4585 C   0  0  0  0  0  0  0  0  0  0  0  0
    6.4410  -12.9992   26.0436 C   0  0  0  0  0  0  0  0  0  0  0  0
    6.5240  -11.5089   26.2021 C   0  0  0  0  0  0  0  0  0  0  0  0
    5.3304  -10.9626   26.8010 N   0  0  0  0  0  0  0  0  0  0  0  0
    9.2050  -17.0227   25.1123 C   0  0  0  0  0  0  0  0  0  0  0  0
    9.3863  -17.5063   26.2628 O   0  0  0  0  0  0  0  0  0  0  0  0
    9.1691  -17.9542   24.0564 O   0  0  0  0  0  0  0  0  0  0  0  0
  1  2  1  0
  3  2  1  0
  3  5  1  0
  4  3  2  0
  6  5  1  0
  7  9  1  0
  7  6  1  0
  8  7  2  0
 10  9  1  0
 10 16  1  0
 10 11  1  6
 12 11  1  0
 13 14  1  0
 13 12  1  0
 14 15  1  0
 16 17  2  0
 16 18  1  0
M  END
$$$$
