GGK.pdb
     RDKit          3D

 18 17  0  0  1  0  0  0  0  0999 V2000
   11.3271  -19.3951   18.8798 N   0  0  0  0  0  0  0  0  0  0  0  0
   10.6522  -19.0102   20.0818 C   0  0  0  0  0  0  0  0  0  0  0  0
   11.2508  -17.7830   20.6774 C   0  0  0  0  0  0  0  0  0  0  0  0
   12.4888  -17.6439   20.8240 O   0  0  0  0  0  0  0  0  0  0  0  0
   10.3739  -16.7491   21.0859 N   0  0  0  0  0  0  0  0  0  0  0  0
   10.9146  -15.4971   21.6141 C   0  0  0  0  0  0  0  0  0  0  0  0
   11.2534  -15.6987   23.0490 C   0  0  0  0  0  0  0  0  0  0  0  0
   10.3816  -15.6337   23.9677 O   0  0  0  0  0  0  0  0  0  0  0  0
   12.5878  -15.9758   23.4462 N   0  0  0  0  0  0  0  0  0  0  0  0
   12.9447  -16.0665   24.8600 C   0  0  1  0  0  0  0  0  0  0  0  0
   12.7582  -17.4702   25.3314 C   0  0  0  0  0  0  0  0  0  0  0  0
   13.0957  -17.6993   26.7683 C   0  0  0  0  0  0  0  0  0  0  0  0
   12.7953  -19.1522   27.1561 C   0  0  0  0  0  0  0  0  0  0  0  0
   13.0865  -19.3174   28.6192 C   0  0  0  0  0  0  0  0  0  0  0  0
   12.7559  -20.6410   29.0891 N   0  0  0  0  0  0  0  0  0  0  0  0
   14.3086  -15.5368   25.0158 C   0  0  0  0  0  0  0  0  0  0  0  0
   14.8246  -15.2779   26.1370 O   0  0  0  0  0  0  0  0  0  0  0  0
   15.1243  -15.2869   23.8951 O   0  0  0  0  0  0  0  0  0  0  0  0
  1  2  1  0
  3  2  1  0
  3  5  1  0
  4  3  2  0
  6  5  1  0
  7  9  1  0
  7  6  1  0
  8  7  2  0
 10  9  1  0
 10 16  1  0
 10 11  1  6
 12 11  1  0
 13 14  1  0
 13 12  1  0
 14 15  1  0
 16 17  2  0
 16 18  1  0
M  END
$$$$
