GGK.pdb
     RDKit          3D

 18 17  0  0  1  0  0  0  0  0999 V2000
    5.6435  -20.1268   18.9332 N   0  0  0  0  0  0  0  0  0  0  0  0
    6.0250  -18.8227   18.4833 C   0  0  0  0  0  0  0  0  0  0  0  0
    7.3793  -18.4471   18.9773 C   0  0  0  0  0  0  0  0  0  0  0  0
    7.5884  -18.1038   20.1655 O   0  0  0  0  0  0  0  0  0  0  0  0
    8.4546  -18.4857   18.0570 N   0  0  0  0  0  0  0  0  0  0  0  0
    9.2269  -17.2745   17.7827 C   0  0  0  0  0  0  0  0  0  0  0  0
   10.4454  -17.2894   18.6368 C   0  0  0  0  0  0  0  0  0  0  0  0
   11.5651  -16.8551   18.2292 O   0  0  0  0  0  0  0  0  0  0  0  0
   10.3959  -17.7993   19.9607 N   0  0  0  0  0  0  0  0  0  0  0  0
   11.0125  -17.0712   21.0671 C   0  0  1  0  0  0  0  0  0  0  0  0
   10.0017  -16.8511   22.1428 C   0  0  0  0  0  0  0  0  0  0  0  0
    9.5140  -15.4447   22.2670 C   0  0  0  0  0  0  0  0  0  0  0  0
    8.3890  -15.3657   23.3059 C   0  0  0  0  0  0  0  0  0  0  0  0
    7.9141  -13.9437   23.3766 C   0  0  0  0  0  0  0  0  0  0  0  0
    6.7836  -13.7955   24.2609 N   0  0  0  0  0  0  0  0  0  0  0  0
   12.2101  -17.8164   21.4857 C   0  0  0  0  0  0  0  0  0  0  0  0
   12.1698  -18.8043   22.2685 O   0  0  0  0  0  0  0  0  0  0  0  0
   13.4904  -17.4556   21.0224 O   0  0  0  0  0  0  0  0  0  0  0  0
  1  2  1  0
  3  2  1  0
  3  5  1  0
  4  3  2  0
  6  5  1  0
  7  9  1  0
  7  6  1  0
  8  7  2  0
 10  9  1  0
 10 16  1  0
 10 11  1  1
 12 11  1  0
 13 14  1  0
 13 12  1  0
 14 15  1  0
 16 17  2  0
 16 18  1  0
M  END
$$$$
