GGK.pdb
     RDKit          3D

 18 17  0  0  1  0  0  0  0  0999 V2000
    7.4905  -15.6966   16.0207 N   0  0  0  0  0  0  0  0  0  0  0  0
    7.2457  -15.0071   17.2507 C   0  0  0  0  0  0  0  0  0  0  0  0
    8.4318  -14.2145   17.6800 C   0  0  0  0  0  0  0  0  0  0  0  0
    9.5723  -14.3956   17.1903 O   0  0  0  0  0  0  0  0  0  0  0  0
    8.2435  -13.2272   18.6771 N   0  0  0  0  0  0  0  0  0  0  0  0
    9.3817  -12.4426   19.1543 C   0  0  0  0  0  0  0  0  0  0  0  0
    9.7533  -12.9289   20.5108 C   0  0  0  0  0  0  0  0  0  0  0  0
   10.7542  -12.4750   21.1437 O   0  0  0  0  0  0  0  0  0  0  0  0
    8.9868  -13.9354   21.1546 N   0  0  0  0  0  0  0  0  0  0  0  0
    9.3756  -14.4485   22.4661 C   0  0  1  0  0  0  0  0  0  0  0  0
    8.1884  -14.4543   23.3703 C   0  0  0  0  0  0  0  0  0  0  0  0
    7.9577  -13.1777   24.1108 C   0  0  0  0  0  0  0  0  0  0  0  0
    6.7042  -13.2942   24.9863 C   0  0  0  0  0  0  0  0  0  0  0  0
    6.4811  -11.9741   25.6648 C   0  0  0  0  0  0  0  0  0  0  0  0
    5.3325  -12.0033   26.5377 N   0  0  0  0  0  0  0  0  0  0  0  0
   10.0089  -15.7617   22.2670 C   0  0  0  0  0  0  0  0  0  0  0  0
    9.9118  -16.4194   21.1953 O   0  0  0  0  0  0  0  0  0  0  0  0
   10.7723  -16.3633   23.2863 O   0  0  0  0  0  0  0  0  0  0  0  0
  1  2  1  0
  3  2  1  0
  3  5  1  0
  4  3  2  0
  6  5  1  0
  7  9  1  0
  7  6  1  0
  8  7  2  0
 10  9  1  0
 10 16  1  0
 10 11  1  1
 12 11  1  0
 13 14  1  0
 13 12  1  0
 14 15  1  0
 16 17  2  0
 16 18  1  0
M  END
$$$$
