GGK.pdb
     RDKit          3D

 18 17  0  0  1  0  0  0  0  0999 V2000
   11.6014  -18.6872   17.5007 N   0  0  0  0  0  0  0  0  0  0  0  0
   11.8339  -19.2963   18.7748 C   0  0  0  0  0  0  0  0  0  0  0  0
   10.8594  -18.8199   19.7959 C   0  0  0  0  0  0  0  0  0  0  0  0
    9.9838  -17.9596   19.5373 O   0  0  0  0  0  0  0  0  0  0  0  0
   10.9416  -19.3700   21.0979 N   0  0  0  0  0  0  0  0  0  0  0  0
    9.9976  -18.9474   22.1318 C   0  0  0  0  0  0  0  0  0  0  0  0
   10.7689  -18.3728   23.2673 C   0  0  0  0  0  0  0  0  0  0  0  0
   12.0226  -18.1892   23.2120 O   0  0  0  0  0  0  0  0  0  0  0  0
   10.1167  -18.0037   24.4730 N   0  0  0  0  0  0  0  0  0  0  0  0
   10.8578  -17.3719   25.5620 C   0  0  1  0  0  0  0  0  0  0  0  0
   10.0105  -16.3194   26.1957 C   0  0  0  0  0  0  0  0  0  0  0  0
   10.6471  -15.6100   27.3457 C   0  0  0  0  0  0  0  0  0  0  0  0
    9.6761  -14.5785   27.9328 C   0  0  0  0  0  0  0  0  0  0  0  0
   10.3875  -13.8314   29.0230 C   0  0  0  0  0  0  0  0  0  0  0  0
    9.5401  -12.8391   29.6389 N   0  0  0  0  0  0  0  0  0  0  0  0
   11.3119  -18.4336   26.4739 C   0  0  0  0  0  0  0  0  0  0  0  0
   10.6405  -19.4747   26.7099 O   0  0  0  0  0  0  0  0  0  0  0  0
   12.5471  -18.3379   27.1441 O   0  0  0  0  0  0  0  0  0  0  0  0
  1  2  1  0
  3  2  1  0
  3  5  1  0
  4  3  2  0
  6  5  1  0
  7  9  1  0
  7  6  1  0
  8  7  2  0
 10  9  1  0
 10 16  1  0
 10 11  1  1
 12 11  1  0
 13 14  1  0
 13 12  1  0
 14 15  1  0
 16 17  2  0
 16 18  1  0
M  END
$$$$
