GGK.pdb
     RDKit          3D

 18 17  0  0  1  0  0  0  0  0999 V2000
    5.5586  -20.6353   18.8024 N   0  0  0  0  0  0  0  0  0  0  0  0
    6.9194  -20.9150   18.4580 C   0  0  0  0  0  0  0  0  0  0  0  0
    7.8590  -19.9729   19.1281 C   0  0  0  0  0  0  0  0  0  0  0  0
    7.6834  -18.7309   19.1190 O   0  0  0  0  0  0  0  0  0  0  0  0
    8.9833  -20.5192   19.7929 N   0  0  0  0  0  0  0  0  0  0  0  0
    9.9143  -19.6400   20.4993 C   0  0  0  0  0  0  0  0  0  0  0  0
    9.3838  -19.3943   21.8677 C   0  0  0  0  0  0  0  0  0  0  0  0
    9.2969  -18.2300   22.3629 O   0  0  0  0  0  0  0  0  0  0  0  0
    8.9488  -20.4737   22.6807 N   0  0  0  0  0  0  0  0  0  0  0  0
    8.3088  -20.2288   23.9709 C   0  0  1  0  0  0  0  0  0  0  0  0
    7.0229  -20.9831   24.0399 C   0  0  0  0  0  0  0  0  0  0  0  0
    6.0291  -20.6265   22.9834 C   0  0  0  0  0  0  0  0  0  0  0  0
    4.8340  -21.5857   23.0372 C   0  0  0  0  0  0  0  0  0  0  0  0
    3.9210  -21.2633   21.8904 C   0  0  0  0  0  0  0  0  0  0  0  0
    2.7207  -22.0636   21.9146 N   0  0  0  0  0  0  0  0  0  0  0  0
    9.2792  -20.5611   25.0260 C   0  0  0  0  0  0  0  0  0  0  0  0
    9.0724  -20.3364   26.2496 O   0  0  0  0  0  0  0  0  0  0  0  0
   10.5153  -21.1603   24.7150 O   0  0  0  0  0  0  0  0  0  0  0  0
  1  2  1  0
  3  2  1  0
  3  5  1  0
  4  3  2  0
  6  5  1  0
  7  9  1  0
  7  6  1  0
  8  7  2  0
 10  9  1  0
 10 16  1  0
 10 11  1  1
 12 11  1  0
 13 14  1  0
 13 12  1  0
 14 15  1  0
 16 17  2  0
 16 18  1  0
M  END
$$$$
