GGK.pdb
     RDKit          3D

 18 17  0  0  1  0  0  0  0  0999 V2000
    8.1960  -13.6362   15.7902 N   0  0  0  0  0  0  0  0  0  0  0  0
    8.8237  -13.4929   17.0684 C   0  0  0  0  0  0  0  0  0  0  0  0
    8.3077  -14.4904   18.0472 C   0  0  0  0  0  0  0  0  0  0  0  0
    7.2806  -15.1762   17.8275 O   0  0  0  0  0  0  0  0  0  0  0  0
    9.0162  -14.6547   19.2619 N   0  0  0  0  0  0  0  0  0  0  0  0
    8.6253  -15.7057   20.2007 C   0  0  0  0  0  0  0  0  0  0  0  0
    8.9936  -15.2703   21.5751 C   0  0  0  0  0  0  0  0  0  0  0  0
   10.1612  -14.8733   21.8711 O   0  0  0  0  0  0  0  0  0  0  0  0
    8.0340  -15.2844   22.6211 N   0  0  0  0  0  0  0  0  0  0  0  0
    8.3278  -14.6733   23.9151 C   0  0  1  0  0  0  0  0  0  0  0  0
    7.0712  -14.1221   24.5021 C   0  0  0  0  0  0  0  0  0  0  0  0
    7.2287  -13.5021   25.8518 C   0  0  0  0  0  0  0  0  0  0  0  0
    6.1592  -12.4244   26.0660 C   0  0  0  0  0  0  0  0  0  0  0  0
    6.3221  -11.8698   27.4511 C   0  0  0  0  0  0  0  0  0  0  0  0
    5.2959  -10.9074   27.7713 N   0  0  0  0  0  0  0  0  0  0  0  0
    9.0096  -15.6794   24.7446 C   0  0  0  0  0  0  0  0  0  0  0  0
    8.8851  -16.9214   24.5649 O   0  0  0  0  0  0  0  0  0  0  0  0
    9.8544  -15.2968   25.8047 O   0  0  0  0  0  0  0  0  0  0  0  0
  1  2  1  0
  3  2  1  0
  3  5  1  0
  4  3  2  0
  6  5  1  0
  7  9  1  0
  7  6  1  0
  8  7  2  0
 10  9  1  0
 10 16  1  0
 10 11  1  1
 12 11  1  0
 13 14  1  0
 13 12  1  0
 14 15  1  0
 16 17  2  0
 16 18  1  0
M  END
$$$$
