GGK.pdb
     RDKit          3D

 18 17  0  0  1  0  0  0  0  0999 V2000
    9.0809  -16.7992   16.8542 N   0  0  0  0  0  0  0  0  0  0  0  0
    9.3858  -17.2934   18.1623 C   0  0  0  0  0  0  0  0  0  0  0  0
    8.6961  -16.5039   19.2208 C   0  0  0  0  0  0  0  0  0  0  0  0
    8.5962  -15.2546   19.1677 O   0  0  0  0  0  0  0  0  0  0  0  0
    8.1409  -17.2076   20.3167 N   0  0  0  0  0  0  0  0  0  0  0  0
    7.4200  -16.4827   21.3624 C   0  0  0  0  0  0  0  0  0  0  0  0
    8.3962  -16.0672   22.4059 C   0  0  0  0  0  0  0  0  0  0  0  0
    9.6302  -16.3504   22.3319 O   0  0  0  0  0  0  0  0  0  0  0  0
    7.9726  -15.3263   23.5403 N   0  0  0  0  0  0  0  0  0  0  0  0
    8.9450  -14.7824   24.4852 C   0  0  1  0  0  0  0  0  0  0  0  0
    8.5031  -13.4281   24.9300 C   0  0  0  0  0  0  0  0  0  0  0  0
    7.2278  -13.4085   25.7074 C   0  0  0  0  0  0  0  0  0  0  0  0
    6.8804  -11.9718   26.1159 C   0  0  0  0  0  0  0  0  0  0  0  0
    5.5491  -11.9896   26.8088 C   0  0  0  0  0  0  0  0  0  0  0  0
    5.1753  -10.6828   27.2932 N   0  0  0  0  0  0  0  0  0  0  0  0
    9.1195  -15.7635   25.5677 C   0  0  0  0  0  0  0  0  0  0  0  0
    8.3201  -16.7177   25.7699 O   0  0  0  0  0  0  0  0  0  0  0  0
   10.2128  -15.6842   26.4522 O   0  0  0  0  0  0  0  0  0  0  0  0
  1  2  1  0
  3  2  1  0
  3  5  1  0
  4  3  2  0
  6  5  1  0
  7  9  1  0
  7  6  1  0
  8  7  2  0
 10  9  1  0
 10 16  1  0
 10 11  1  1
 12 11  1  0
 13 14  1  0
 13 12  1  0
 14 15  1  0
 16 17  2  0
 16 18  1  0
M  END
$$$$
