GGK.pdb
     RDKit          3D

 18 17  0  0  1  0  0  0  0  0999 V2000
    8.1340  -13.6956   14.9381 N   0  0  0  0  0  0  0  0  0  0  0  0
    8.8364  -13.7951   16.1811 C   0  0  0  0  0  0  0  0  0  0  0  0
    7.9698  -14.3524   17.2571 C   0  0  0  0  0  0  0  0  0  0  0  0
    7.0234  -15.1395   17.0157 O   0  0  0  0  0  0  0  0  0  0  0  0
    8.2408  -13.9674   18.5924 N   0  0  0  0  0  0  0  0  0  0  0  0
    7.5104  -14.5895   19.6960 C   0  0  0  0  0  0  0  0  0  0  0  0
    8.3782  -14.5711   20.9048 C   0  0  0  0  0  0  0  0  0  0  0  0
    9.5625  -14.1180   20.8829 O   0  0  0  0  0  0  0  0  0  0  0  0
    7.9020  -15.0687   22.1460 N   0  0  0  0  0  0  0  0  0  0  0  0
    8.3546  -14.4889   23.4083 C   0  0  1  0  0  0  0  0  0  0  0  0
    7.1965  -13.8646   24.1129 C   0  0  0  0  0  0  0  0  0  0  0  0
    7.5334  -13.2028   25.4089 C   0  0  0  0  0  0  0  0  0  0  0  0
    6.2646  -12.6378   26.0588 C   0  0  0  0  0  0  0  0  0  0  0  0
    6.6377  -12.0601   27.3929 C   0  0  0  0  0  0  0  0  0  0  0  0
    5.4851  -11.5739   28.1119 N   0  0  0  0  0  0  0  0  0  0  0  0
    9.0457  -15.5435   24.1669 C   0  0  0  0  0  0  0  0  0  0  0  0
    8.7894  -16.7709   24.0329 O   0  0  0  0  0  0  0  0  0  0  0  0
   10.0507  -15.2274   25.1017 O   0  0  0  0  0  0  0  0  0  0  0  0
  1  2  1  0
  3  2  1  0
  3  5  1  0
  4  3  2  0
  6  5  1  0
  7  9  1  0
  7  6  1  0
  8  7  2  0
 10  9  1  0
 10 16  1  0
 10 11  1  1
 12 11  1  0
 13 14  1  0
 13 12  1  0
 14 15  1  0
 16 17  2  0
 16 18  1  0
M  END
$$$$
