GGK.pdb
     RDKit          3D

 18 17  0  0  1  0  0  0  0  0999 V2000
    5.3646  -19.4921   22.8996 N   0  0  0  0  0  0  0  0  0  0  0  0
    5.3381  -18.0613   22.8754 C   0  0  0  0  0  0  0  0  0  0  0  0
    6.4615  -17.5060   22.0699 C   0  0  0  0  0  0  0  0  0  0  0  0
    7.3810  -18.2277   21.6144 O   0  0  0  0  0  0  0  0  0  0  0  0
    6.4730  -16.1123   21.8211 N   0  0  0  0  0  0  0  0  0  0  0  0
    7.5873  -15.5083   21.0915 C   0  0  0  0  0  0  0  0  0  0  0  0
    8.7140  -15.2995   22.0410 C   0  0  0  0  0  0  0  0  0  0  0  0
    9.8472  -14.8715   21.6656 O   0  0  0  0  0  0  0  0  0  0  0  0
    8.5565  -15.5771   23.4242 N   0  0  0  0  0  0  0  0  0  0  0  0
    9.6633  -15.3824   24.3577 C   0  0  1  0  0  0  0  0  0  0  0  0
    9.1244  -15.0026   25.6966 C   0  0  0  0  0  0  0  0  0  0  0  0
   10.1483  -14.9027   26.7795 C   0  0  0  0  0  0  0  0  0  0  0  0
    9.4743  -14.5595   28.1134 C   0  0  0  0  0  0  0  0  0  0  0  0
   10.5333  -14.5116   29.1760 C   0  0  0  0  0  0  0  0  0  0  0  0
    9.9781  -14.2378   30.4793 N   0  0  0  0  0  0  0  0  0  0  0  0
   10.4847  -16.6032   24.3442 C   0  0  0  0  0  0  0  0  0  0  0  0
   11.6542  -16.6535   24.8134 O   0  0  0  0  0  0  0  0  0  0  0  0
    9.9946  -17.8037   23.7942 O   0  0  0  0  0  0  0  0  0  0  0  0
  1  2  1  0
  3  2  1  0
  3  5  1  0
  4  3  2  0
  6  5  1  0
  7  9  1  0
  7  6  1  0
  8  7  2  0
 10  9  1  0
 10 16  1  0
 10 11  1  1
 12 11  1  0
 13 14  1  0
 13 12  1  0
 14 15  1  0
 16 17  2  0
 16 18  1  0
M  END
$$$$
