MIP.pdb
     RDKit          3D

 24 24  0  0  1  0  0  0  0  0999 V2000
   11.6474  -19.9025   22.2904 C   0  0  0  0  0  0  0  0  0  0  0  0
   10.1926  -20.3244   21.2877 S   0  0  0  0  0  0  0  0  0  0  0  0
    9.4581  -18.7446   20.7259 C   0  0  0  0  0  0  0  0  0  0  0  0
    9.8668  -17.6965   21.7305 C   0  0  0  0  0  0  0  0  0  0  0  0
    9.2020  -16.3638   21.4423 C   0  0  2  0  0  0  0  0  0  0  0  0
    9.8817  -15.7741   20.3112 N   0  0  0  0  0  0  0  0  0  0  0  0
    9.2963  -15.4533   22.6110 C   0  0  0  0  0  0  0  0  0  0  0  0
   10.4042  -14.8190   22.7097 O   0  0  0  0  0  0  0  0  0  0  0  0
    6.2777  -12.0277   26.6683 C   0  0  0  0  0  0  0  0  0  0  0  0
    7.4889  -12.9243   26.3827 C   0  0  0  0  0  0  0  0  0  0  0  0
    7.2380  -13.7903   25.1832 C   0  0  2  0  0  0  0  0  0  0  0  0
    5.9654  -14.5543   25.3979 C   0  0  0  0  0  0  0  0  0  0  0  0
    8.4346  -14.5846   24.8138 C   0  0  2  0  0  0  0  0  0  0  0  0
    8.2628  -15.2807   23.5536 N   0  0  0  0  0  0  0  0  0  0  0  0
    9.0601  -15.3950   25.8510 C   0  0  0  0  0  0  0  0  0  0  0  0
    9.2217  -16.6414   25.5622 O   0  0  0  0  0  0  0  0  0  0  0  0
    9.5140  -15.0159   27.1301 N   0  0  0  0  0  0  0  0  0  0  0  0
    9.1163  -13.9943   28.0641 C   0  0  0  0  0  0  0  0  0  0  0  0
   10.3622  -13.6849   28.8923 C   0  0  0  0  0  0  0  0  0  0  0  0
   11.4553  -14.5466   28.2831 C   0  0  0  0  0  0  0  0  0  0  0  0
   10.6135  -15.7213   27.8193 C   0  0  1  0  0  0  0  0  0  0  0  0
   10.0991  -16.5222   28.9551 C   0  0  0  0  0  0  0  0  0  0  0  0
    8.7543  -16.6055   29.2596 O   0  0  0  0  0  0  0  0  0  0  0  0
   10.9092  -17.1529   29.6742 O   0  0  0  0  0  0  0  0  0  0  0  0
  1  2  1  0
  3  2  1  0
  4  3  1  0
  5  7  1  0
  5  4  1  0
  5  6  1  6
  7  8  2  0
  9 10  1  0
 10 11  1  0
 11 12  1  1
 13 11  1  0
 13 14  1  6
 14  7  1  0
 15 16  2  0
 15 13  1  0
 17 15  1  0
 18 17  1  0
 19 18  1  0
 20 19  1  0
 20 21  1  0
 21 22  1  1
 21 17  1  0
 22 23  1  0
 24 22  2  0
M  END
$$$$
