MIP.pdb
     RDKit          3D

 24 24  0  0  1  0  0  0  0  0999 V2000
   10.4695  -18.7514   27.6511 C   0  0  0  0  0  0  0  0  0  0  0  0
    9.7355  -20.4024   27.4636 S   0  0  0  0  0  0  0  0  0  0  0  0
    7.9447  -20.1582   27.1740 C   0  0  0  0  0  0  0  0  0  0  0  0
    7.8168  -19.0215   26.1910 C   0  0  0  0  0  0  0  0  0  0  0  0
    6.3663  -18.6301   25.9821 C   0  0  2  0  0  0  0  0  0  0  0  0
    5.7319  -19.6935   25.2365 N   0  0  0  0  0  0  0  0  0  0  0  0
    6.2574  -17.3572   25.2260 C   0  0  0  0  0  0  0  0  0  0  0  0
    5.8528  -17.4832   24.0177 O   0  0  0  0  0  0  0  0  0  0  0  0
    6.2017  -12.1687   27.4150 C   0  0  0  0  0  0  0  0  0  0  0  0
    5.9651  -13.3416   26.4554 C   0  0  0  0  0  0  0  0  0  0  0  0
    7.2482  -13.7574   25.7979 C   0  0  2  0  0  0  0  0  0  0  0  0
    7.8394  -12.5689   25.0998 C   0  0  0  0  0  0  0  0  0  0  0  0
    7.0815  -14.9879   24.9872 C   0  0  2  0  0  0  0  0  0  0  0  0
    6.5682  -16.0949   25.7704 N   0  0  0  0  0  0  0  0  0  0  0  0
    8.1635  -15.3600   24.0847 C   0  0  0  0  0  0  0  0  0  0  0  0
    8.9445  -16.2952   24.5071 O   0  0  0  0  0  0  0  0  0  0  0  0
    8.4851  -14.8438   22.8134 N   0  0  0  0  0  0  0  0  0  0  0  0
    8.1824  -13.6098   22.1355 C   0  0  0  0  0  0  0  0  0  0  0  0
    8.2279  -13.9366   20.6438 C   0  0  0  0  0  0  0  0  0  0  0  0
    8.4926  -15.4316   20.5835 C   0  0  0  0  0  0  0  0  0  0  0  0
    9.3189  -15.5869   21.8470 C   0  0  1  0  0  0  0  0  0  0  0  0
   10.6588  -14.9672   21.7172 C   0  0  0  0  0  0  0  0  0  0  0  0
   11.6637  -15.5190   20.9466 O   0  0  0  0  0  0  0  0  0  0  0  0
   10.8995  -13.8992   22.3277 O   0  0  0  0  0  0  0  0  0  0  0  0
  1  2  1  0
  3  2  1  0
  4  3  1  0
  5  7  1  0
  5  4  1  0
  5  6  1  6
  7  8  2  0
  9 10  1  0
 10 11  1  0
 11 12  1  6
 13 11  1  0
 13 14  1  1
 14  7  1  0
 15 16  2  0
 15 13  1  0
 17 15  1  0
 18 17  1  0
 19 18  1  0
 20 19  1  0
 20 21  1  0
 21 22  1  6
 21 17  1  0
 22 23  1  0
 24 22  2  0
M  END
$$$$
