MIP.pdb
     RDKit          3D

 24 24  0  0  1  0  0  0  0  0999 V2000
    8.2223  -19.6686   28.6771 C   0  0  0  0  0  0  0  0  0  0  0  0
    7.3623  -21.1317   28.0294 S   0  0  0  0  0  0  0  0  0  0  0  0
    6.1343  -20.5309   26.8121 C   0  0  0  0  0  0  0  0  0  0  0  0
    6.7451  -19.3268   26.1401 C   0  0  0  0  0  0  0  0  0  0  0  0
    5.7526  -18.6434   25.2188 C   0  0  2  0  0  0  0  0  0  0  0  0
    5.3454  -19.6100   24.2243 N   0  0  0  0  0  0  0  0  0  0  0  0
    6.3632  -17.4670   24.5501 C   0  0  0  0  0  0  0  0  0  0  0  0
    6.6753  -17.6494   23.3218 O   0  0  0  0  0  0  0  0  0  0  0  0
    7.7496  -12.4852   27.3592 C   0  0  0  0  0  0  0  0  0  0  0  0
    7.7440  -13.9198   26.8168 C   0  0  0  0  0  0  0  0  0  0  0  0
    7.3801  -13.9362   25.3611 C   0  0  2  0  0  0  0  0  0  0  0  0
    6.0191  -13.3275   25.1977 C   0  0  0  0  0  0  0  0  0  0  0  0
    7.5862  -15.2733   24.7539 C   0  0  2  0  0  0  0  0  0  0  0  0
    6.5925  -16.2337   25.1926 N   0  0  0  0  0  0  0  0  0  0  0  0
    8.9427  -15.8051   24.7236 C   0  0  0  0  0  0  0  0  0  0  0  0
    9.2212  -16.6729   25.6360 O   0  0  0  0  0  0  0  0  0  0  0  0
   10.0006  -15.5072   23.8416 N   0  0  0  0  0  0  0  0  0  0  0  0
   10.2645  -14.4181   22.9371 C   0  0  0  0  0  0  0  0  0  0  0  0
   11.1651  -14.9962   21.8468 C   0  0  0  0  0  0  0  0  0  0  0  0
   11.2905  -16.4709   22.1906 C   0  0  0  0  0  0  0  0  0  0  0  0
   11.1826  -16.3819   23.7018 C   0  0  1  0  0  0  0  0  0  0  0  0
   12.3797  -15.7556   24.3109 C   0  0  0  0  0  0  0  0  0  0  0  0
   12.3361  -14.5331   24.9527 O   0  0  0  0  0  0  0  0  0  0  0  0
   13.4805  -16.3515   24.2462 O   0  0  0  0  0  0  0  0  0  0  0  0
  1  2  1  0
  3  2  1  0
  4  3  1  0
  5  7  1  0
  5  4  1  0
  5  6  1  6
  7  8  2  0
  9 10  1  0
 10 11  1  0
 11 12  1  1
 13 11  1  0
 13 14  1  1
 14  7  1  0
 15 16  2  0
 15 13  1  0
 17 15  1  0
 18 17  1  0
 19 18  1  0
 20 19  1  0
 20 21  1  0
 21 22  1  6
 21 17  1  0
 22 23  1  0
 24 22  2  0
M  END
$$$$
