MIP.pdb
     RDKit          3D

 24 24  0  0  1  0  0  0  0  0999 V2000
   10.7141  -15.0707   28.5559 C   0  0  0  0  0  0  0  0  0  0  0  0
    9.7711  -15.8857   29.8775 S   0  0  0  0  0  0  0  0  0  0  0  0
    9.6224  -17.6502   29.4139 C   0  0  0  0  0  0  0  0  0  0  0  0
    9.3257  -17.6852   27.9356 C   0  0  0  0  0  0  0  0  0  0  0  0
    7.8574  -17.9599   27.6716 C   0  0  2  0  0  0  0  0  0  0  0  0
    7.7205  -19.3737   27.4040 N   0  0  0  0  0  0  0  0  0  0  0  0
    7.3670  -17.1820   26.5062 C   0  0  0  0  0  0  0  0  0  0  0  0
    6.9285  -17.8902   25.5338 O   0  0  0  0  0  0  0  0  0  0  0  0
    7.8561  -11.3619   26.0954 C   0  0  0  0  0  0  0  0  0  0  0  0
    8.1265  -12.8654   25.9585 C   0  0  0  0  0  0  0  0  0  0  0  0
    6.8964  -13.5863   25.4907 C   0  0  2  0  0  0  0  0  0  0  0  0
    5.7688  -13.2744   26.4291 C   0  0  0  0  0  0  0  0  0  0  0  0
    7.1623  -15.0210   25.2264 C   0  0  2  0  0  0  0  0  0  0  0  0
    7.3716  -15.7738   26.4477 N   0  0  0  0  0  0  0  0  0  0  0  0
    8.1019  -15.3544   24.1635 C   0  0  0  0  0  0  0  0  0  0  0  0
    9.0722  -16.1336   24.5020 O   0  0  0  0  0  0  0  0  0  0  0  0
    8.1079  -14.9465   22.8146 N   0  0  0  0  0  0  0  0  0  0  0  0
    7.5510  -13.8180   22.1144 C   0  0  0  0  0  0  0  0  0  0  0  0
    7.3300  -14.2913   20.6788 C   0  0  0  0  0  0  0  0  0  0  0  0
    7.7288  -15.7574   20.6893 C   0  0  0  0  0  0  0  0  0  0  0  0
    8.8029  -15.7131   21.7607 C   0  0  1  0  0  0  0  0  0  0  0  0
   10.0191  -15.0009   21.3026 C   0  0  0  0  0  0  0  0  0  0  0  0
   10.9047  -15.5469   20.3939 O   0  0  0  0  0  0  0  0  0  0  0  0
   10.2625  -13.8565   21.7522 O   0  0  0  0  0  0  0  0  0  0  0  0
  1  2  1  0
  3  2  1  0
  4  3  1  0
  5  7  1  0
  5  4  1  0
  5  6  1  6
  7  8  2  0
  9 10  1  0
 10 11  1  0
 11 12  1  1
 13 11  1  0
 13 14  1  1
 14  7  1  0
 15 16  2  0
 15 13  1  0
 17 15  1  0
 18 17  1  0
 19 18  1  0
 20 19  1  0
 20 21  1  0
 21 22  1  6
 21 17  1  0
 22 23  1  0
 24 22  2  0
M  END
$$$$
