MIP.pdb
     RDKit          3D

 24 24  0  0  1  0  0  0  0  0999 V2000
   10.7848  -14.8913   28.3307 C   0  0  0  0  0  0  0  0  0  0  0  0
    9.7572  -15.8235   29.5034 S   0  0  0  0  0  0  0  0  0  0  0  0
   10.0241  -17.5994   29.1490 C   0  0  0  0  0  0  0  0  0  0  0  0
    9.4711  -17.8527   27.7688 C   0  0  0  0  0  0  0  0  0  0  0  0
    7.9543  -17.8719   27.7747 C   0  0  2  0  0  0  0  0  0  0  0  0
    7.5366  -19.2548   27.7288 N   0  0  0  0  0  0  0  0  0  0  0  0
    7.4039  -17.1455   26.6028 C   0  0  0  0  0  0  0  0  0  0  0  0
    7.0294  -17.8944   25.6341 O   0  0  0  0  0  0  0  0  0  0  0  0
    7.6054  -11.3222   26.1457 C   0  0  0  0  0  0  0  0  0  0  0  0
    7.9362  -12.8157   26.0339 C   0  0  0  0  0  0  0  0  0  0  0  0
    6.7481  -13.5876   25.5398 C   0  0  2  0  0  0  0  0  0  0  0  0
    5.5830  -13.3090   26.4422 C   0  0  0  0  0  0  0  0  0  0  0  0
    7.0753  -15.0139   25.2997 C   0  0  2  0  0  0  0  0  0  0  0  0
    7.2906  -15.7423   26.5347 N   0  0  0  0  0  0  0  0  0  0  0  0
    8.0477  -15.3232   24.2592 C   0  0  0  0  0  0  0  0  0  0  0  0
    9.0567  -16.0338   24.6333 O   0  0  0  0  0  0  0  0  0  0  0  0
    8.0489  -14.9560   22.8987 N   0  0  0  0  0  0  0  0  0  0  0  0
    7.4243  -13.8926   22.1550 C   0  0  0  0  0  0  0  0  0  0  0  0
    7.2652  -14.4231   20.7311 C   0  0  0  0  0  0  0  0  0  0  0  0
    7.7696  -15.8550   20.7934 C   0  0  0  0  0  0  0  0  0  0  0  0
    8.8175  -15.7003   21.8803 C   0  0  1  0  0  0  0  0  0  0  0  0
    9.9868  -14.9144   21.4205 C   0  0  0  0  0  0  0  0  0  0  0  0
   10.9684  -15.4458   20.6067 O   0  0  0  0  0  0  0  0  0  0  0  0
   10.0983  -13.7186   21.7792 O   0  0  0  0  0  0  0  0  0  0  0  0
  1  2  1  0
  3  2  1  0
  4  3  1  0
  5  7  1  0
  5  4  1  0
  5  6  1  6
  7  8  2  0
  9 10  1  0
 10 11  1  0
 11 12  1  1
 13 11  1  0
 13 14  1  1
 14  7  1  0
 15 16  2  0
 15 13  1  0
 17 15  1  0
 18 17  1  0
 19 18  1  0
 20 19  1  0
 20 21  1  0
 21 22  1  6
 21 17  1  0
 22 23  1  0
 24 22  2  0
M  END
$$$$
