MIP.pdb
     RDKit          3D

 24 24  0  0  1  0  0  0  0  0999 V2000
   10.3690  -20.1611   21.5255 C   0  0  0  0  0  0  0  0  0  0  0  0
    9.1530  -19.8973   22.8490 S   0  0  0  0  0  0  0  0  0  0  0  0
    8.7221  -18.1184   22.8280 C   0  0  0  0  0  0  0  0  0  0  0  0
    9.3644  -17.5326   21.5955 C   0  0  0  0  0  0  0  0  0  0  0  0
    8.9703  -16.0806   21.4022 C   0  0  2  0  0  0  0  0  0  0  0  0
    9.8116  -15.5363   20.3606 N   0  0  0  0  0  0  0  0  0  0  0  0
    9.1581  -15.3026   22.6526 C   0  0  0  0  0  0  0  0  0  0  0  0
   10.3598  -14.9182   22.8705 O   0  0  0  0  0  0  0  0  0  0  0  0
    6.4195  -11.6284   26.7188 C   0  0  0  0  0  0  0  0  0  0  0  0
    7.5441  -12.6255   26.4132 C   0  0  0  0  0  0  0  0  0  0  0  0
    7.2321  -13.4160   25.1766 C   0  0  2  0  0  0  0  0  0  0  0  0
    5.8550  -13.9952   25.3094 C   0  0  0  0  0  0  0  0  0  0  0  0
    8.3206  -14.3637   24.8358 C   0  0  2  0  0  0  0  0  0  0  0  0
    8.1135  -14.9962   23.5477 N   0  0  0  0  0  0  0  0  0  0  0  0
    8.7738  -15.2811   25.8736 C   0  0  0  0  0  0  0  0  0  0  0  0
    8.5886  -16.5337   25.6294 O   0  0  0  0  0  0  0  0  0  0  0  0
    9.3850  -14.9992   27.1116 N   0  0  0  0  0  0  0  0  0  0  0  0
    9.2015  -13.9673   28.0993 C   0  0  0  0  0  0  0  0  0  0  0  0
   10.5461  -13.8351   28.8126 C   0  0  0  0  0  0  0  0  0  0  0  0
   11.4659  -14.8017   28.0859 C   0  0  0  0  0  0  0  0  0  0  0  0
   10.4486  -15.8522   27.6798 C   0  0  1  0  0  0  0  0  0  0  0  0
    9.9460  -16.6212   28.8426 C   0  0  0  0  0  0  0  0  0  0  0  0
   10.7347  -17.5125   29.5438 O   0  0  0  0  0  0  0  0  0  0  0  0
    8.7587  -16.4634   29.2122 O   0  0  0  0  0  0  0  0  0  0  0  0
  1  2  1  0
  3  2  1  0
  4  3  1  0
  5  7  1  0
  5  4  1  0
  5  6  1  6
  7  8  2  0
  9 10  1  0
 10 11  1  0
 11 12  1  1
 13 11  1  0
 13 14  1  6
 14  7  1  0
 15 16  2  0
 15 13  1  0
 17 15  1  0
 18 17  1  0
 19 18  1  0
 20 19  1  0
 20 21  1  0
 21 22  1  1
 21 17  1  0
 22 23  1  0
 24 22  2  0
M  END
$$$$
