MIP.pdb
     RDKit          3D

 24 24  0  0  1  0  0  0  0  0999 V2000
    8.1215  -11.7776   19.2078 C   0  0  0  0  0  0  0  0  0  0  0  0
    8.5911  -13.2354   18.2308 S   0  0  0  0  0  0  0  0  0  0  0  0
    7.9215  -14.6984   19.1037 C   0  0  0  0  0  0  0  0  0  0  0  0
    7.8647  -14.3399   20.5675 C   0  0  0  0  0  0  0  0  0  0  0  0
    8.6695  -15.3130   21.4079 C   0  0  2  0  0  0  0  0  0  0  0  0
    7.9163  -16.5439   21.4892 N   0  0  0  0  0  0  0  0  0  0  0  0
    8.9009  -14.7788   22.7735 C   0  0  0  0  0  0  0  0  0  0  0  0
    9.8487  -13.9224   22.8618 O   0  0  0  0  0  0  0  0  0  0  0  0
    5.6055  -12.1450   25.9550 C   0  0  0  0  0  0  0  0  0  0  0  0
    6.8777  -12.7136   25.3143 C   0  0  0  0  0  0  0  0  0  0  0  0
    7.1782  -14.0816   25.8529 C   0  0  2  0  0  0  0  0  0  0  0  0
    7.1408  -14.0286   27.3513 C   0  0  0  0  0  0  0  0  0  0  0  0
    8.3970  -14.6626   25.2397 C   0  0  2  0  0  0  0  0  0  0  0  0
    8.1513  -15.1660   23.9024 N   0  0  0  0  0  0  0  0  0  0  0  0
    9.2148  -15.5482   26.0587 C   0  0  0  0  0  0  0  0  0  0  0  0
    9.5021  -16.6887   25.5297 O   0  0  0  0  0  0  0  0  0  0  0  0
    9.7380  -15.3419   27.3508 N   0  0  0  0  0  0  0  0  0  0  0  0
    9.3870  -14.4643   28.4374 C   0  0  0  0  0  0  0  0  0  0  0  0
   10.6758  -14.2534   29.2302 C   0  0  0  0  0  0  0  0  0  0  0  0
   11.7384  -15.0071   28.4483 C   0  0  0  0  0  0  0  0  0  0  0  0
   10.8798  -16.1191   27.8741 C   0  0  1  0  0  0  0  0  0  0  0  0
   10.4363  -17.0760   28.9151 C   0  0  0  0  0  0  0  0  0  0  0  0
   11.3022  -17.9538   29.5379 O   0  0  0  0  0  0  0  0  0  0  0  0
    9.2288  -17.0972   29.2507 O   0  0  0  0  0  0  0  0  0  0  0  0
  1  2  1  0
  3  2  1  0
  4  3  1  0
  5  7  1  0
  5  4  1  0
  5  6  1  1
  7  8  2  0
  9 10  1  0
 10 11  1  0
 11 12  1  1
 13 11  1  0
 13 14  1  6
 14  7  1  0
 15 16  2  0
 15 13  1  0
 17 15  1  0
 18 17  1  0
 19 18  1  0
 20 19  1  0
 20 21  1  0
 21 22  1  1
 21 17  1  0
 22 23  1  0
 24 22  2  0
M  END
$$$$
