MIP.pdb
     RDKit          3D

 24 24  0  0  1  0  0  0  0  0999 V2000
    9.0558  -20.4275   23.0270 C   0  0  0  0  0  0  0  0  0  0  0  0
    9.5591  -20.2420   21.2915 S   0  0  0  0  0  0  0  0  0  0  0  0
    9.1045  -18.5427   20.7850 C   0  0  0  0  0  0  0  0  0  0  0  0
    9.4535  -17.6391   21.9411 C   0  0  0  0  0  0  0  0  0  0  0  0
    8.8987  -16.2418   21.7393 C   0  0  2  0  0  0  0  0  0  0  0  0
    9.5979  -15.6536   20.6194 N   0  0  0  0  0  0  0  0  0  0  0  0
    9.1003  -15.4046   22.9486 C   0  0  0  0  0  0  0  0  0  0  0  0
   10.2545  -14.8573   23.0365 O   0  0  0  0  0  0  0  0  0  0  0  0
    5.6583  -11.9663   25.4593 C   0  0  0  0  0  0  0  0  0  0  0  0
    6.8931  -12.6958   24.9155 C   0  0  0  0  0  0  0  0  0  0  0  0
    7.2335  -13.8777   25.7750 C   0  0  2  0  0  0  0  0  0  0  0  0
    7.3287  -13.4248   27.2017 C   0  0  0  0  0  0  0  0  0  0  0  0
    8.3908  -14.6357   25.2409 C   0  0  2  0  0  0  0  0  0  0  0  0
    8.1159  -15.2098   23.9382 N   0  0  0  0  0  0  0  0  0  0  0  0
    9.0872  -15.5413   26.1458 C   0  0  0  0  0  0  0  0  0  0  0  0
    9.1131  -16.7789   25.7844 O   0  0  0  0  0  0  0  0  0  0  0  0
    9.7372  -15.2626   27.3647 N   0  0  0  0  0  0  0  0  0  0  0  0
    9.5984  -14.2221   28.3506 C   0  0  0  0  0  0  0  0  0  0  0  0
   10.9643  -14.1084   29.0255 C   0  0  0  0  0  0  0  0  0  0  0  0
   11.8474  -15.0945   28.2796 C   0  0  0  0  0  0  0  0  0  0  0  0
   10.8019  -16.1301   27.9085 C   0  0  1  0  0  0  0  0  0  0  0  0
   10.3190  -16.8839   29.0895 C   0  0  0  0  0  0  0  0  0  0  0  0
   11.1016  -17.8071   29.7553 O   0  0  0  0  0  0  0  0  0  0  0  0
    9.1550  -16.6824   29.5086 O   0  0  0  0  0  0  0  0  0  0  0  0
  1  2  1  0
  3  2  1  0
  4  3  1  0
  5  7  1  0
  5  4  1  0
  5  6  1  6
  7  8  2  0
  9 10  1  0
 10 11  1  0
 11 12  1  1
 13 11  1  0
 13 14  1  6
 14  7  1  0
 15 16  2  0
 15 13  1  0
 17 15  1  0
 18 17  1  0
 19 18  1  0
 20 19  1  0
 20 21  1  0
 21 22  1  1
 21 17  1  0
 22 23  1  0
 24 22  2  0
M  END
$$$$
