HCI.pdb
     RDKit          3D

 25 25  0  0  1  0  0  0  0  0999 V2000
    7.6582  -16.9436   19.0243 N   0  0  0  0  0  0  0  0  0  0  0  0
    7.8550  -15.9317   20.0546 C   0  0  1  0  0  0  0  0  0  0  0  0
    7.0364  -14.7290   19.6867 C   0  0  0  0  0  0  0  0  0  0  0  0
    7.6096  -13.9967   18.5436 C   0  0  0  0  0  0  0  0  0  0  0  0
    8.4058  -12.8886   18.4848 C   0  0  0  0  0  0  0  0  0  0  0  0
    8.6471  -12.6279   17.2021 N   0  0  0  0  0  0  0  0  0  0  0  0
    8.0407  -13.5204   16.4304 C   0  0  0  0  0  0  0  0  0  0  0  0
    7.4018  -14.3632   17.2581 N   0  0  0  0  0  0  0  0  0  0  0  0
    7.4597  -16.4458   21.3729 C   0  0  0  0  0  0  0  0  0  0  0  0
    6.2992  -16.8824   21.5764 O   0  0  0  0  0  0  0  0  0  0  0  0
    8.3729  -16.4598   22.4347 N   0  0  0  0  0  0  0  0  0  0  0  0
    8.1066  -16.8893   23.7688 C   0  0  1  0  0  0  0  0  0  0  0  0
    8.5046  -18.3058   24.0550 C   0  0  0  0  0  0  0  0  0  0  0  0
    8.1721  -18.6648   25.7908 S   0  0  0  0  0  0  0  0  0  0  0  0
    8.6984  -15.9239   24.7349 C   0  0  0  0  0  0  0  0  0  0  0  0
    9.8653  -15.4758   24.5494 O   0  0  0  0  0  0  0  0  0  0  0  0
    5.8414  -11.9508   26.7230 C   0  0  0  0  0  0  0  0  0  0  0  0
    6.9980  -12.7903   26.1781 C   0  0  0  0  0  0  0  0  0  0  0  0
    7.6515  -13.5686   27.2949 C   0  0  2  0  0  0  0  0  0  0  0  0
    8.1798  -12.5770   28.3060 C   0  0  0  0  0  0  0  0  0  0  0  0
    8.6725  -14.5562   26.8235 C   0  0  2  0  0  0  0  0  0  0  0  0
    8.0011  -15.4687   25.8842 N   0  0  0  0  0  0  0  0  0  0  0  0
    9.2948  -15.3328   27.9257 C   0  0  0  0  0  0  0  0  0  0  0  0
    9.0560  -16.7012   28.0802 O   0  0  0  0  0  0  0  0  0  0  0  0
   10.0632  -14.8256   28.7787 O   0  0  0  0  0  0  0  0  0  0  0  0
  2  1  1  6
  3  2  1  0
  4  3  1  0
  5  4  2  0
  6  5  1  0
  6  7  1  0
  7  8  2  0
  8  4  1  0
  9 10  2  0
  9  2  1  0
 11  9  1  0
 12 11  1  0
 13 14  1  0
 12 13  1  1
 15 12  1  0
 15 22  1  0
 16 15  2  0
 18 17  1  0
 19 18  1  0
 19 20  1  1
 21 19  1  0
 21 22  1  6
 21 23  1  0
 23 24  1  0
 25 23  2  0
M  END
$$$$
