HCI.pdb
     RDKit          3D

 25 25  0  0  1  0  0  0  0  0999 V2000
    9.5797  -17.4777   18.2941 N   0  0  0  0  0  0  0  0  0  0  0  0
    9.9755  -17.6673   19.6839 C   0  0  1  0  0  0  0  0  0  0  0  0
   11.3301  -17.0488   19.8695 C   0  0  0  0  0  0  0  0  0  0  0  0
   12.4123  -17.9339   19.4039 C   0  0  0  0  0  0  0  0  0  0  0  0
   13.2306  -17.8676   18.3124 C   0  0  0  0  0  0  0  0  0  0  0  0
   14.0453  -18.9194   18.3494 N   0  0  0  0  0  0  0  0  0  0  0  0
   13.7878  -19.6620   19.4182 C   0  0  0  0  0  0  0  0  0  0  0  0
   12.7816  -19.0537   20.0670 N   0  0  0  0  0  0  0  0  0  0  0  0
    8.9964  -17.0563   20.5931 C   0  0  0  0  0  0  0  0  0  0  0  0
    8.3690  -16.0180   20.2662 O   0  0  0  0  0  0  0  0  0  0  0  0
    8.7413  -17.6218   21.8487 N   0  0  0  0  0  0  0  0  0  0  0  0
    7.7351  -17.2062   22.7707 C   0  0  1  0  0  0  0  0  0  0  0  0
    6.9261  -18.3264   23.3519 C   0  0  0  0  0  0  0  0  0  0  0  0
    5.8002  -17.6510   24.5883 S   0  0  0  0  0  0  0  0  0  0  0  0
    8.3403  -16.3370   23.8166 C   0  0  0  0  0  0  0  0  0  0  0  0
    9.4973  -16.5881   24.2583 O   0  0  0  0  0  0  0  0  0  0  0  0
    7.1950  -11.0984   26.8449 C   0  0  0  0  0  0  0  0  0  0  0  0
    7.8527  -12.4753   26.9492 C   0  0  0  0  0  0  0  0  0  0  0  0
    7.3227  -13.3915   25.8723 C   0  0  2  0  0  0  0  0  0  0  0  0
    5.9920  -13.9364   26.3382 C   0  0  0  0  0  0  0  0  0  0  0  0
    8.2950  -14.4471   25.4474 C   0  0  2  0  0  0  0  0  0  0  0  0
    7.6670  -15.2108   24.3575 N   0  0  0  0  0  0  0  0  0  0  0  0
    8.6875  -15.3645   26.5472 C   0  0  0  0  0  0  0  0  0  0  0  0
    9.6958  -15.0275   27.4545 O   0  0  0  0  0  0  0  0  0  0  0  0
    8.1524  -16.4841   26.7357 O   0  0  0  0  0  0  0  0  0  0  0  0
  2  1  1  6
  3  2  1  0
  4  3  1  0
  5  4  2  0
  6  5  1  0
  6  7  1  0
  7  8  2  0
  8  4  1  0
  9 10  2  0
  9  2  1  0
 11  9  1  0
 12 11  1  0
 13 14  1  0
 12 13  1  1
 15 12  1  0
 15 22  1  0
 16 15  2  0
 18 17  1  0
 19 18  1  0
 19 20  1  1
 21 19  1  0
 21 22  1  6
 21 23  1  0
 23 24  1  0
 25 23  2  0
M  END
$$$$
