HCI.pdb
     RDKit          3D

 25 25  0  0  1  0  0  0  0  0999 V2000
    6.9397  -16.5113   19.4134 N   0  0  0  0  0  0  0  0  0  0  0  0
    7.2686  -15.6266   20.5240 C   0  0  1  0  0  0  0  0  0  0  0  0
    6.5221  -14.3394   20.3292 C   0  0  0  0  0  0  0  0  0  0  0  0
    7.1021  -13.5198   19.2506 C   0  0  0  0  0  0  0  0  0  0  0  0
    8.0093  -12.4992   19.2762 C   0  0  0  0  0  0  0  0  0  0  0  0
    8.2003  -12.0924   18.0235 N   0  0  0  0  0  0  0  0  0  0  0  0
    7.4551  -12.8068   17.1903 C   0  0  0  0  0  0  0  0  0  0  0  0
    6.7789  -13.6859   17.9476 N   0  0  0  0  0  0  0  0  0  0  0  0
    6.9108  -16.2456   21.8075 C   0  0  0  0  0  0  0  0  0  0  0  0
    5.7095  -16.4391   22.1207 O   0  0  0  0  0  0  0  0  0  0  0  0
    7.9066  -16.6344   22.7124 N   0  0  0  0  0  0  0  0  0  0  0  0
    7.6963  -17.2397   23.9870 C   0  0  1  0  0  0  0  0  0  0  0  0
    7.3193  -18.6894   23.9301 C   0  0  0  0  0  0  0  0  0  0  0  0
    7.1763  -19.3205   25.6135 S   0  0  0  0  0  0  0  0  0  0  0  0
    8.8744  -16.9903   24.8620 C   0  0  0  0  0  0  0  0  0  0  0  0
   10.0372  -17.2718   24.4554 O   0  0  0  0  0  0  0  0  0  0  0  0
   10.7695  -13.1182   29.1235 C   0  0  0  0  0  0  0  0  0  0  0  0
   10.9710  -14.5167   28.5380 C   0  0  0  0  0  0  0  0  0  0  0  0
    9.8224  -14.8722   27.6245 C   0  0  2  0  0  0  0  0  0  0  0  0
    8.5389  -14.7118   28.4066 C   0  0  0  0  0  0  0  0  0  0  0  0
    9.9681  -16.2082   26.9657 C   0  0  2  0  0  0  0  0  0  0  0  0
    8.7557  -16.4381   26.1640 N   0  0  0  0  0  0  0  0  0  0  0  0
   10.1571  -17.3230   27.9283 C   0  0  0  0  0  0  0  0  0  0  0  0
    9.1929  -18.3223   28.0867 O   0  0  0  0  0  0  0  0  0  0  0  0
   11.1749  -17.4440   28.6526 O   0  0  0  0  0  0  0  0  0  0  0  0
  2  1  1  6
  3  2  1  0
  4  3  1  0
  5  4  2  0
  6  5  1  0
  6  7  1  0
  7  8  2  0
  8  4  1  0
  9 10  2  0
  9  2  1  0
 11  9  1  0
 12 11  1  0
 13 14  1  0
 12 13  1  6
 15 12  1  0
 15 22  1  0
 16 15  2  0
 18 17  1  0
 19 18  1  0
 19 20  1  1
 21 19  1  0
 21 22  1  1
 21 23  1  0
 23 24  1  0
 25 23  2  0
M  END
$$$$
