HCI.pdb
     RDKit          3D

 25 25  0  0  1  0  0  0  0  0999 V2000
    9.7702  -17.7642   19.4998 N   0  0  0  0  0  0  0  0  0  0  0  0
   10.2765  -18.0739   20.8310 C   0  0  1  0  0  0  0  0  0  0  0  0
   11.7366  -17.7289   20.8645 C   0  0  0  0  0  0  0  0  0  0  0  0
   12.5864  -18.8791   20.5091 C   0  0  0  0  0  0  0  0  0  0  0  0
   12.2769  -20.1728   20.1994 C   0  0  0  0  0  0  0  0  0  0  0  0
   13.4156  -20.8164   19.9533 N   0  0  0  0  0  0  0  0  0  0  0  0
   14.4469  -19.9935   20.0909 C   0  0  0  0  0  0  0  0  0  0  0  0
   13.9347  -18.8002   20.4333 N   0  0  0  0  0  0  0  0  0  0  0  0
    9.5412  -17.3216   21.8567 C   0  0  0  0  0  0  0  0  0  0  0  0
    9.1346  -16.1534   21.6360 O   0  0  0  0  0  0  0  0  0  0  0  0
    9.2775  -17.8942   23.1073 N   0  0  0  0  0  0  0  0  0  0  0  0
    8.5496  -17.2883   24.1742 C   0  0  1  0  0  0  0  0  0  0  0  0
    7.3660  -18.0789   24.6445 C   0  0  0  0  0  0  0  0  0  0  0  0
    7.9510  -19.6035   25.4100 S   0  0  0  0  0  0  0  0  0  0  0  0
    9.4799  -16.9397   25.2826 C   0  0  0  0  0  0  0  0  0  0  0  0
   10.5939  -17.5274   25.3840 O   0  0  0  0  0  0  0  0  0  0  0  0
    8.5046  -12.2490   27.9812 C   0  0  0  0  0  0  0  0  0  0  0  0
    9.2346  -13.3220   27.1716 C   0  0  0  0  0  0  0  0  0  0  0  0
    9.6452  -14.4654   28.0683 C   0  0  2  0  0  0  0  0  0  0  0  0
   10.6225  -13.9287   29.0889 C   0  0  0  0  0  0  0  0  0  0  0  0
   10.1427  -15.6651   27.3246 C   0  0  2  0  0  0  0  0  0  0  0  0
    9.1720  -15.9551   26.2572 N   0  0  0  0  0  0  0  0  0  0  0  0
   10.3197  -16.8616   28.1862 C   0  0  0  0  0  0  0  0  0  0  0  0
    9.2802  -17.7729   28.3926 O   0  0  0  0  0  0  0  0  0  0  0  0
   11.3928  -17.1333   28.7775 O   0  0  0  0  0  0  0  0  0  0  0  0
  2  1  1  6
  3  2  1  0
  4  3  1  0
  5  4  2  0
  6  5  1  0
  6  7  1  0
  7  8  2  0
  8  4  1  0
  9 10  2  0
  9  2  1  0
 11  9  1  0
 12 11  1  0
 13 14  1  0
 12 13  1  1
 15 12  1  0
 15 22  1  0
 16 15  2  0
 18 17  1  0
 19 18  1  0
 19 20  1  1
 21 19  1  0
 21 22  1  6
 21 23  1  0
 23 24  1  0
 25 23  2  0
M  END
$$$$
