HCI.pdb
     RDKit          3D

 25 25  0  0  1  0  0  0  0  0999 V2000
    8.8640  -16.0994   19.5087 N   0  0  0  0  0  0  0  0  0  0  0  0
    8.1531  -14.9219   19.9908 C   0  0  1  0  0  0  0  0  0  0  0  0
    7.1720  -14.5067   18.9341 C   0  0  0  0  0  0  0  0  0  0  0  0
    7.8295  -14.2317   17.6442 C   0  0  0  0  0  0  0  0  0  0  0  0
    8.6944  -13.2470   17.2600 C   0  0  0  0  0  0  0  0  0  0  0  0
    8.9966  -13.4472   15.9793 N   0  0  0  0  0  0  0  0  0  0  0  0
    8.3637  -14.5190   15.5205 C   0  0  0  0  0  0  0  0  0  0  0  0
    7.6450  -15.0014   16.5472 N   0  0  0  0  0  0  0  0  0  0  0  0
    7.4635  -15.2106   21.2556 C   0  0  0  0  0  0  0  0  0  0  0  0
    6.6727  -14.3787   21.7666 O   0  0  0  0  0  0  0  0  0  0  0  0
    7.6746  -16.4252   21.9203 N   0  0  0  0  0  0  0  0  0  0  0  0
    7.1374  -16.7951   23.1891 C   0  0  1  0  0  0  0  0  0  0  0  0
    7.0612  -18.2738   23.4227 C   0  0  0  0  0  0  0  0  0  0  0  0
    6.5926  -18.5689   25.1390 S   0  0  0  0  0  0  0  0  0  0  0  0
    7.8702  -16.0833   24.2717 C   0  0  0  0  0  0  0  0  0  0  0  0
    9.1317  -16.1351   24.3237 O   0  0  0  0  0  0  0  0  0  0  0  0
    5.3734  -11.8377   26.6839 C   0  0  0  0  0  0  0  0  0  0  0  0
    6.4097  -12.6994   25.9608 C   0  0  0  0  0  0  0  0  0  0  0  0
    7.1042  -13.6150   26.9403 C   0  0  2  0  0  0  0  0  0  0  0  0
    7.7947  -12.7540   27.9731 C   0  0  0  0  0  0  0  0  0  0  0  0
    8.0022  -14.6212   26.2912 C   0  0  2  0  0  0  0  0  0  0  0  0
    7.2075  -15.3295   25.2751 N   0  0  0  0  0  0  0  0  0  0  0  0
    8.5843  -15.5962   27.2481 C   0  0  0  0  0  0  0  0  0  0  0  0
    9.8598  -15.4150   27.7900 O   0  0  0  0  0  0  0  0  0  0  0  0
    7.9844  -16.6304   27.6299 O   0  0  0  0  0  0  0  0  0  0  0  0
  2  1  1  6
  3  2  1  0
  4  3  1  0
  5  4  2  0
  6  5  1  0
  6  7  1  0
  7  8  2  0
  8  4  1  0
  9 10  2  0
  9  2  1  0
 11  9  1  0
 12 11  1  0
 13 14  1  0
 12 13  1  1
 15 12  1  0
 15 22  1  0
 16 15  2  0
 18 17  1  0
 19 18  1  0
 19 20  1  1
 21 19  1  0
 21 22  1  6
 21 23  1  0
 23 24  1  0
 25 23  2  0
M  END
$$$$
