HCI.pdb
     RDKit          3D

 25 25  0  0  1  0  0  0  0  0999 V2000
    6.3134  -17.5673   19.9277 N   0  0  0  0  0  0  0  0  0  0  0  0
    6.9524  -16.5803   20.7892 C   0  0  1  0  0  0  0  0  0  0  0  0
    6.4992  -15.2185   20.3509 C   0  0  0  0  0  0  0  0  0  0  0  0
    7.5935  -14.4375   19.7476 C   0  0  0  0  0  0  0  0  0  0  0  0
    8.9085  -14.7370   19.5322 C   0  0  0  0  0  0  0  0  0  0  0  0
    9.4768  -13.6826   18.9519 N   0  0  0  0  0  0  0  0  0  0  0  0
    8.5848  -12.7152   18.7837 C   0  0  0  0  0  0  0  0  0  0  0  0
    7.4249  -13.1815   19.2743 N   0  0  0  0  0  0  0  0  0  0  0  0
    6.6058  -16.8150   22.1975 C   0  0  0  0  0  0  0  0  0  0  0  0
    5.4231  -16.6906   22.6027 O   0  0  0  0  0  0  0  0  0  0  0  0
    7.5917  -17.1839   23.1212 N   0  0  0  0  0  0  0  0  0  0  0  0
    7.4030  -17.3773   24.5220 C   0  0  1  0  0  0  0  0  0  0  0  0
    7.5333  -18.8004   24.9744 C   0  0  0  0  0  0  0  0  0  0  0  0
    7.3520  -18.8604   26.7678 S   0  0  0  0  0  0  0  0  0  0  0  0
    8.2904  -16.4539   25.2806 C   0  0  0  0  0  0  0  0  0  0  0  0
    9.4893  -16.2861   24.9183 O   0  0  0  0  0  0  0  0  0  0  0  0
    5.9892  -12.3322   27.8688 C   0  0  0  0  0  0  0  0  0  0  0  0
    7.0049  -13.0794   27.0030 C   0  0  0  0  0  0  0  0  0  0  0  0
    7.9778  -13.8376   27.8740 C   0  0  2  0  0  0  0  0  0  0  0  0
    8.8074  -12.8278   28.6333 C   0  0  0  0  0  0  0  0  0  0  0  0
    8.7887  -14.8516   27.1294 C   0  0  2  0  0  0  0  0  0  0  0  0
    7.8476  -15.7330   26.4201 N   0  0  0  0  0  0  0  0  0  0  0  0
    9.6741  -15.6585   28.0070 C   0  0  0  0  0  0  0  0  0  0  0  0
   10.9693  -15.2384   28.3222 O   0  0  0  0  0  0  0  0  0  0  0  0
    9.3288  -16.7521   28.5171 O   0  0  0  0  0  0  0  0  0  0  0  0
  2  1  1  6
  3  2  1  0
  4  3  1  0
  5  4  2  0
  6  5  1  0
  6  7  1  0
  7  8  2  0
  8  4  1  0
  9 10  2  0
  9  2  1  0
 11  9  1  0
 12 11  1  0
 13 14  1  0
 12 13  1  1
 15 12  1  0
 15 22  1  0
 16 15  2  0
 18 17  1  0
 19 18  1  0
 19 20  1  6
 21 19  1  0
 21 22  1  1
 21 23  1  0
 23 24  1  0
 25 23  2  0
M  END
$$$$
