HCI.pdb
     RDKit          3D

 25 25  0  0  1  0  0  0  0  0999 V2000
    8.5408  -16.0445   20.6732 N   0  0  0  0  0  0  0  0  0  0  0  0
    8.0190  -14.9231   21.4441 C   0  0  1  0  0  0  0  0  0  0  0  0
    6.9003  -14.3014   20.6606 C   0  0  0  0  0  0  0  0  0  0  0  0
    7.3151  -13.9392   19.2937 C   0  0  0  0  0  0  0  0  0  0  0  0
    8.0892  -12.9173   18.8227 C   0  0  0  0  0  0  0  0  0  0  0  0
    8.1602  -13.0368   17.4990 N   0  0  0  0  0  0  0  0  0  0  0  0
    7.4650  -14.0921   17.0955 C   0  0  0  0  0  0  0  0  0  0  0  0
    6.9448  -14.6472   18.2022 N   0  0  0  0  0  0  0  0  0  0  0  0
    7.5449  -15.3710   22.7607 C   0  0  0  0  0  0  0  0  0  0  0  0
    6.8788  -14.6073   23.5033 O   0  0  0  0  0  0  0  0  0  0  0  0
    7.8274  -16.6648   23.2166 N   0  0  0  0  0  0  0  0  0  0  0  0
    7.6032  -17.1605   24.5354 C   0  0  1  0  0  0  0  0  0  0  0  0
    6.9739  -18.5200   24.5879 C   0  0  0  0  0  0  0  0  0  0  0  0
    6.7815  -19.0065   26.3138 S   0  0  0  0  0  0  0  0  0  0  0  0
    8.8647  -17.0848   25.3218 C   0  0  0  0  0  0  0  0  0  0  0  0
    9.9374  -17.5539   24.8464 O   0  0  0  0  0  0  0  0  0  0  0  0
    9.4527  -13.6055   29.8815 C   0  0  0  0  0  0  0  0  0  0  0  0
    9.3313  -14.9595   29.1805 C   0  0  0  0  0  0  0  0  0  0  0  0
   10.2158  -14.9968   27.9573 C   0  0  2  0  0  0  0  0  0  0  0  0
    9.8197  -13.8458   27.0612 C   0  0  0  0  0  0  0  0  0  0  0  0
   10.2330  -16.3247   27.2669 C   0  0  2  0  0  0  0  0  0  0  0  0
    8.9263  -16.4973   26.6123 N   0  0  0  0  0  0  0  0  0  0  0  0
   10.4935  -17.4630   28.1843 C   0  0  0  0  0  0  0  0  0  0  0  0
    9.5128  -18.4211   28.4559 O   0  0  0  0  0  0  0  0  0  0  0  0
   11.5900  -17.6414   28.7684 O   0  0  0  0  0  0  0  0  0  0  0  0
  2  1  1  6
  3  2  1  0
  4  3  1  0
  5  4  2  0
  6  5  1  0
  6  7  1  0
  7  8  2  0
  8  4  1  0
  9 10  2  0
  9  2  1  0
 11  9  1  0
 12 11  1  0
 13 14  1  0
 12 13  1  6
 15 12  1  0
 15 22  1  0
 16 15  2  0
 18 17  1  0
 19 18  1  0
 19 20  1  6
 21 19  1  0
 21 22  1  1
 21 23  1  0
 23 24  1  0
 25 23  2  0
M  END
$$$$
