HCI.pdb
     RDKit          3D

 25 25  0  0  1  0  0  0  0  0999 V2000
    7.6594  -16.9500   19.6179 N   0  0  0  0  0  0  0  0  0  0  0  0
    7.7245  -15.8304   20.5489 C   0  0  1  0  0  0  0  0  0  0  0  0
    6.9470  -14.6903   19.9592 C   0  0  0  0  0  0  0  0  0  0  0  0
    7.6108  -14.1214   18.7729 C   0  0  0  0  0  0  0  0  0  0  0  0
    8.4935  -13.0882   18.6368 C   0  0  0  0  0  0  0  0  0  0  0  0
    8.7935  -12.9761   17.3450 N   0  0  0  0  0  0  0  0  0  0  0  0
    8.1421  -13.8929   16.6413 C   0  0  0  0  0  0  0  0  0  0  0  0
    7.4138  -14.5979   17.5222 N   0  0  0  0  0  0  0  0  0  0  0  0
    7.1782  -16.2092   21.8591 C   0  0  0  0  0  0  0  0  0  0  0  0
    5.9655  -16.0270   22.1323 O   0  0  0  0  0  0  0  0  0  0  0  0
    8.0024  -16.7839   22.8348 N   0  0  0  0  0  0  0  0  0  0  0  0
    7.6307  -17.0884   24.1781 C   0  0  1  0  0  0  0  0  0  0  0  0
    7.5994  -18.5531   24.4956 C   0  0  0  0  0  0  0  0  0  0  0  0
    7.2693  -18.7603   26.2565 S   0  0  0  0  0  0  0  0  0  0  0  0
    8.4849  -16.3178   25.1226 C   0  0  0  0  0  0  0  0  0  0  0  0
    9.7427  -16.3436   25.0054 O   0  0  0  0  0  0  0  0  0  0  0  0
    6.7422  -11.6858   27.2082 C   0  0  0  0  0  0  0  0  0  0  0  0
    7.6511  -12.7548   26.5994 C   0  0  0  0  0  0  0  0  0  0  0  0
    8.1605  -13.6834   27.6756 C   0  0  2  0  0  0  0  0  0  0  0  0
    9.0006  -12.8697   28.6331 C   0  0  0  0  0  0  0  0  0  0  0  0
    8.8531  -14.8990   27.1437 C   0  0  2  0  0  0  0  0  0  0  0  0
    7.9449  -15.5349   26.1760 N   0  0  0  0  0  0  0  0  0  0  0  0
    9.2294  -15.8728   28.1997 C   0  0  0  0  0  0  0  0  0  0  0  0
   10.4438  -15.7744   28.8845 O   0  0  0  0  0  0  0  0  0  0  0  0
    8.4985  -16.8331   28.5447 O   0  0  0  0  0  0  0  0  0  0  0  0
  2  1  1  6
  3  2  1  0
  4  3  1  0
  5  4  2  0
  6  5  1  0
  6  7  1  0
  7  8  2  0
  8  4  1  0
  9 10  2  0
  9  2  1  0
 11  9  1  0
 12 11  1  0
 13 14  1  0
 12 13  1  1
 15 12  1  0
 15 22  1  0
 16 15  2  0
 18 17  1  0
 19 18  1  0
 19 20  1  1
 21 19  1  0
 21 22  1  6
 21 23  1  0
 23 24  1  0
 25 23  2  0
M  END
$$$$
