HCI.pdb
     RDKit          3D

 25 25  0  0  1  0  0  0  0  0999 V2000
    7.0568  -17.1328   19.0965 N   0  0  0  0  0  0  0  0  0  0  0  0
    7.3339  -16.0836   20.0695 C   0  0  1  0  0  0  0  0  0  0  0  0
    6.6504  -14.8299   19.6079 C   0  0  0  0  0  0  0  0  0  0  0  0
    7.3726  -14.1806   18.4996 C   0  0  0  0  0  0  0  0  0  0  0  0
    8.2889  -13.1679   18.4855 C   0  0  0  0  0  0  0  0  0  0  0  0
    8.6385  -12.9525   17.2195 N   0  0  0  0  0  0  0  0  0  0  0  0
    7.9870  -13.7828   16.4158 C   0  0  0  0  0  0  0  0  0  0  0  0
    7.2074  -14.5389   17.2057 N   0  0  0  0  0  0  0  0  0  0  0  0
    6.8600  -16.4723   21.4047 C   0  0  0  0  0  0  0  0  0  0  0  0
    5.6441  -16.7064   21.6177 O   0  0  0  0  0  0  0  0  0  0  0  0
    7.7586  -16.5904   22.4725 N   0  0  0  0  0  0  0  0  0  0  0  0
    7.4254  -16.9125   23.8218 C   0  0  1  0  0  0  0  0  0  0  0  0
    7.4452  -18.3789   24.1320 C   0  0  0  0  0  0  0  0  0  0  0  0
    7.0879  -18.6083   25.8848 S   0  0  0  0  0  0  0  0  0  0  0  0
    8.2760  -16.1209   24.7520 C   0  0  0  0  0  0  0  0  0  0  0  0
    9.5349  -16.2132   24.6939 O   0  0  0  0  0  0  0  0  0  0  0  0
    6.1054  -11.6152   26.9066 C   0  0  0  0  0  0  0  0  0  0  0  0
    7.0984  -12.5409   26.2020 C   0  0  0  0  0  0  0  0  0  0  0  0
    7.8456  -13.3751   27.2149 C   0  0  2  0  0  0  0  0  0  0  0  0
    8.6649  -12.4399   28.0745 C   0  0  0  0  0  0  0  0  0  0  0  0
    8.6371  -14.4917   26.6091 C   0  0  2  0  0  0  0  0  0  0  0  0
    7.7315  -15.2445   25.7265 N   0  0  0  0  0  0  0  0  0  0  0  0
    9.2362  -15.4039   27.6161 C   0  0  0  0  0  0  0  0  0  0  0  0
   10.5140  -15.1795   28.1359 O   0  0  0  0  0  0  0  0  0  0  0  0
    8.6495  -16.4198   28.0621 O   0  0  0  0  0  0  0  0  0  0  0  0
  2  1  1  6
  3  2  1  0
  4  3  1  0
  5  4  2  0
  6  5  1  0
  6  7  1  0
  7  8  2  0
  8  4  1  0
  9 10  2  0
  9  2  1  0
 11  9  1  0
 12 11  1  0
 13 14  1  0
 12 13  1  6
 15 12  1  0
 15 22  1  0
 16 15  2  0
 18 17  1  0
 19 18  1  0
 19 20  1  6
 21 19  1  0
 21 22  1  6
 21 23  1  0
 23 24  1  0
 25 23  2  0
M  END
$$$$
