HCI.pdb
     RDKit          3D

 25 25  0  0  1  0  0  0  0  0999 V2000
    7.2352  -19.2943   22.0621 N   0  0  0  0  0  0  0  0  0  0  0  0
    6.9124  -18.5398   23.2667 C   0  0  1  0  0  0  0  0  0  0  0  0
    7.3341  -19.3564   24.4530 C   0  0  0  0  0  0  0  0  0  0  0  0
    6.4635  -20.5276   24.6577 C   0  0  0  0  0  0  0  0  0  0  0  0
    5.3776  -20.9813   23.9648 C   0  0  0  0  0  0  0  0  0  0  0  0
    4.9464  -22.0893   24.5631 N   0  0  0  0  0  0  0  0  0  0  0  0
    5.7077  -22.3701   25.6126 C   0  0  0  0  0  0  0  0  0  0  0  0
    6.6420  -21.4072   25.6698 N   0  0  0  0  0  0  0  0  0  0  0  0
    7.5924  -17.2374   23.2642 C   0  0  0  0  0  0  0  0  0  0  0  0
    8.7138  -17.0934   22.7162 O   0  0  0  0  0  0  0  0  0  0  0  0
    7.0014  -16.1246   23.8756 N   0  0  0  0  0  0  0  0  0  0  0  0
    7.5566  -14.8128   23.9536 C   0  0  1  0  0  0  0  0  0  0  0  0
    6.5648  -13.7387   24.2848 C   0  0  0  0  0  0  0  0  0  0  0  0
    5.8503  -14.0850   25.9041 S   0  0  0  0  0  0  0  0  0  0  0  0
    8.7243  -14.8156   24.8765 C   0  0  0  0  0  0  0  0  0  0  0  0
    9.6661  -13.9897   24.7101 O   0  0  0  0  0  0  0  0  0  0  0  0
    9.3540  -12.5156   28.7231 C   0  0  0  0  0  0  0  0  0  0  0  0
    9.6675  -13.3766   27.4985 C   0  0  0  0  0  0  0  0  0  0  0  0
    9.8869  -14.8126   27.9106 C   0  0  2  0  0  0  0  0  0  0  0  0
   11.0169  -14.8415   28.9140 C   0  0  0  0  0  0  0  0  0  0  0  0
   10.0758  -15.7479   26.7575 C   0  0  2  0  0  0  0  0  0  0  0  0
    8.8375  -15.7221   25.9626 N   0  0  0  0  0  0  0  0  0  0  0  0
   10.3820  -17.1407   27.1718 C   0  0  0  0  0  0  0  0  0  0  0  0
    9.4388  -18.1642   27.0453 O   0  0  0  0  0  0  0  0  0  0  0  0
   11.4867  -17.4896   27.6547 O   0  0  0  0  0  0  0  0  0  0  0  0
  2  1  1  6
  3  2  1  0
  4  3  1  0
  5  4  2  0
  6  5  1  0
  6  7  1  0
  7  8  2  0
  8  4  1  0
  9 10  2  0
  9  2  1  0
 11  9  1  0
 12 11  1  0
 13 14  1  0
 12 13  1  1
 15 12  1  0
 15 22  1  0
 16 15  2  0
 18 17  1  0
 19 18  1  0
 19 20  1  1
 21 19  1  0
 21 22  1  1
 21 23  1  0
 23 24  1  0
 25 23  2  0
M  END
$$$$
