HCI.pdb
     RDKit          3D

 25 25  0  0  1  0  0  0  0  0999 V2000
    9.0765  -16.2378   19.6290 N   0  0  0  0  0  0  0  0  0  0  0  0
    8.3297  -15.2016   20.3310 C   0  0  1  0  0  0  0  0  0  0  0  0
    7.1947  -14.7692   19.4497 C   0  0  0  0  0  0  0  0  0  0  0  0
    7.6589  -14.3372   18.1196 C   0  0  0  0  0  0  0  0  0  0  0  0
    8.3734  -13.2438   17.7204 C   0  0  0  0  0  0  0  0  0  0  0  0
    8.5324  -13.3204   16.4012 N   0  0  0  0  0  0  0  0  0  0  0  0
    7.9511  -14.4165   15.9317 C   0  0  0  0  0  0  0  0  0  0  0  0
    7.4133  -15.0421   16.9914 N   0  0  0  0  0  0  0  0  0  0  0  0
    7.8271  -15.7020   21.6177 C   0  0  0  0  0  0  0  0  0  0  0  0
    6.6684  -15.4207   22.0139 O   0  0  0  0  0  0  0  0  0  0  0  0
    8.6334  -16.5066   22.4326 N   0  0  0  0  0  0  0  0  0  0  0  0
    8.3073  -16.9747   23.7401 C   0  0  1  0  0  0  0  0  0  0  0  0
    8.6081  -18.4248   23.9722 C   0  0  0  0  0  0  0  0  0  0  0  0
    8.3744  -18.7953   25.7217 S   0  0  0  0  0  0  0  0  0  0  0  0
    8.9345  -16.0914   24.7609 C   0  0  0  0  0  0  0  0  0  0  0  0
   10.1868  -15.9225   24.7699 O   0  0  0  0  0  0  0  0  0  0  0  0
    6.1577  -11.8185   26.4654 C   0  0  0  0  0  0  0  0  0  0  0  0
    7.2163  -12.8003   25.9606 C   0  0  0  0  0  0  0  0  0  0  0  0
    7.9049  -13.4718   27.1246 C   0  0  2  0  0  0  0  0  0  0  0  0
    8.5171  -12.3931   27.9885 C   0  0  0  0  0  0  0  0  0  0  0  0
    8.8683  -14.5427   26.7181 C   0  0  2  0  0  0  0  0  0  0  0  0
    8.1785  -15.4110   25.7506 N   0  0  0  0  0  0  0  0  0  0  0  0
    9.3662  -15.3522   27.8591 C   0  0  0  0  0  0  0  0  0  0  0  0
   10.5428  -15.0162   28.5343 O   0  0  0  0  0  0  0  0  0  0  0  0
    8.7776  -16.3741   28.2887 O   0  0  0  0  0  0  0  0  0  0  0  0
  2  1  1  6
  3  2  1  0
  4  3  1  0
  5  4  2  0
  6  5  1  0
  6  7  1  0
  7  8  2  0
  8  4  1  0
  9 10  2  0
  9  2  1  0
 11  9  1  0
 12 11  1  0
 13 14  1  0
 12 13  1  6
 15 12  1  0
 15 22  1  0
 16 15  2  0
 18 17  1  0
 19 18  1  0
 19 20  1  6
 21 19  1  0
 21 22  1  6
 21 23  1  0
 23 24  1  0
 25 23  2  0
M  END
$$$$
