AEP.pdb
     RDKit          3D

 22 22  0  0  1  0  0  0  0  0999 V2000
    8.3935  -12.1528   19.5885 C   0  0  0  0  0  0  0  0  0  0  0  0
    8.3897  -13.6585   19.5870 C   0  0  2  0  0  0  0  0  0  0  0  0
    7.5744  -14.1969   18.5221 N   0  0  0  0  0  0  0  0  0  0  0  0
    7.9057  -14.1398   20.9055 C   0  0  0  0  0  0  0  0  0  0  0  0
    6.6730  -14.1019   21.1622 O   0  0  0  0  0  0  0  0  0  0  0  0
    8.7582  -14.6456   21.9068 N   0  0  0  0  0  0  0  0  0  0  0  0
    8.2249  -15.1405   23.1544 C   0  0  1  0  0  0  0  0  0  0  0  0
    8.3668  -16.6213   23.2412 C   0  0  0  0  0  0  0  0  0  0  0  0
    7.7210  -17.3261   22.0955 C   0  0  0  0  0  0  0  0  0  0  0  0
    8.0587  -18.8097   22.1828 C   0  0  0  0  0  0  0  0  0  0  0  0
    7.8794  -19.4747   23.2234 O   0  0  0  0  0  0  0  0  0  0  0  0
    8.6578  -14.4436   24.3564 C   0  0  0  0  0  0  0  0  0  0  0  0
    9.9423  -14.2650   24.5408 O   0  0  0  0  0  0  0  0  0  0  0  0
    8.5786  -19.3839   21.0374 O   0  0  0  0  0  0  0  0  0  0  0  0
    7.9006  -13.8965   25.4121 N   0  0  0  0  0  0  0  0  0  0  0  0
    6.4459  -13.9276   25.4697 C   0  0  0  0  0  0  0  0  0  0  0  0
    6.0494  -13.1799   26.7035 C   0  0  0  0  0  0  0  0  0  0  0  0
    7.2471  -12.2896   26.9675 C   0  0  0  0  0  0  0  0  0  0  0  0
    8.3785  -13.2380   26.5650 C   0  0  1  0  0  0  0  0  0  0  0  0
    8.5892  -14.1373   27.7344 C   0  0  0  0  0  0  0  0  0  0  0  0
    9.1133  -13.7761   28.8178 O   0  0  0  0  0  0  0  0  0  0  0  0
    8.1888  -15.4618   27.6459 O   0  0  0  0  0  0  0  0  0  0  0  0
  2  1  1  1
  2  3  1  0
  4  6  1  0
  4  2  1  0
  5  4  2  0
  7  6  1  0
  7 12  1  0
  7  8  1  1
  9  8  1  0
 10  9  1  0
 11 10  2  0
 12 15  1  0
 13 12  2  0
 14 10  1  0
 15 16  1  0
 15 19  1  0
 16 17  1  0
 18 17  1  0
 19 18  1  0
 19 20  1  1
 20 21  2  0
 20 22  1  0
M  END
$$$$
