AEP.pdb
     RDKit          3D

 22 22  0  0  1  0  0  0  0  0999 V2000
   -0.6656  -26.9121   29.1949 C   0  0  0  0  0  0  0  0  0  0  0  0
   -1.2898  -26.0790   30.2828 C   0  0  2  0  0  0  0  0  0  0  0  0
   -1.2114  -26.7260   31.5727 N   0  0  0  0  0  0  0  0  0  0  0  0
   -2.7041  -25.8027   29.9256 C   0  0  0  0  0  0  0  0  0  0  0  0
   -2.9657  -25.2433   28.8277 O   0  0  0  0  0  0  0  0  0  0  0  0
   -3.7927  -26.1342   30.7565 N   0  0  0  0  0  0  0  0  0  0  0  0
   -5.1423  -25.7740   30.3898 C   0  0  1  0  0  0  0  0  0  0  0  0
   -6.1292  -26.6737   31.0508 C   0  0  0  0  0  0  0  0  0  0  0  0
   -6.2914  -27.9713   30.3322 C   0  0  0  0  0  0  0  0  0  0  0  0
   -7.3402  -28.8039   31.0599 C   0  0  0  0  0  0  0  0  0  0  0  0
   -7.8332  -28.4509   32.1506 O   0  0  0  0  0  0  0  0  0  0  0  0
   -5.4793  -24.3624   30.4975 C   0  0  0  0  0  0  0  0  0  0  0  0
   -5.0419  -23.6982   31.5384 O   0  0  0  0  0  0  0  0  0  0  0  0
   -7.7193  -29.9810   30.4414 O   0  0  0  0  0  0  0  0  0  0  0  0
   -6.2310  -23.5392   29.6346 N   0  0  0  0  0  0  0  0  0  0  0  0
   -6.8316  -24.0002   28.3907 C   0  0  0  0  0  0  0  0  0  0  0  0
   -7.4675  -22.8054   27.7530 C   0  0  0  0  0  0  0  0  0  0  0  0
   -6.7152  -21.6434   28.3698 C   0  0  0  0  0  0  0  0  0  0  0  0
   -6.5326  -22.1700   29.7948 C   0  0  1  0  0  0  0  0  0  0  0  0
   -7.8238  -21.9102   30.4918 C   0  0  0  0  0  0  0  0  0  0  0  0
   -8.6762  -22.7958   30.7529 O   0  0  0  0  0  0  0  0  0  0  0  0
   -8.1264  -20.6165   30.8883 O   0  0  0  0  0  0  0  0  0  0  0  0
  2  1  1  6
  2  3  1  0
  4  6  1  0
  4  2  1  0
  5  4  2  0
  7  6  1  0
  7 12  1  0
  7  8  1  1
  9  8  1  0
 10  9  1  0
 11 10  2  0
 12 15  1  0
 13 12  2  0
 14 10  1  0
 15 16  1  0
 15 19  1  0
 16 17  1  0
 18 17  1  0
 19 18  1  0
 19 20  1  1
 20 21  2  0
 20 22  1  0
M  END
$$$$
