AEP.pdb
     RDKit          3D

 22 22  0  0  1  0  0  0  0  0999 V2000
    7.5868  -12.4982   19.1642 C   0  0  0  0  0  0  0  0  0  0  0  0
    8.6602  -13.2407   19.9151 C   0  0  2  0  0  0  0  0  0  0  0  0
    9.0818  -14.4343   19.2178 N   0  0  0  0  0  0  0  0  0  0  0  0
    8.1528  -13.5815   21.2681 C   0  0  0  0  0  0  0  0  0  0  0  0
    7.6914  -12.6681   22.0028 O   0  0  0  0  0  0  0  0  0  0  0  0
    8.1567  -14.8899   21.7908 N   0  0  0  0  0  0  0  0  0  0  0  0
    7.6316  -15.1640   23.1079 C   0  0  1  0  0  0  0  0  0  0  0  0
    7.3444  -16.6169   23.2722 C   0  0  0  0  0  0  0  0  0  0  0  0
    6.3977  -17.1332   22.2409 C   0  0  0  0  0  0  0  0  0  0  0  0
    6.9311  -18.4581   21.7091 C   0  0  0  0  0  0  0  0  0  0  0  0
    7.3391  -19.3643   22.4638 O   0  0  0  0  0  0  0  0  0  0  0  0
    8.3680  -14.5873   24.2228 C   0  0  0  0  0  0  0  0  0  0  0  0
    9.6720  -14.7115   24.2350 O   0  0  0  0  0  0  0  0  0  0  0  0
    6.9385  -18.6033   20.3340 O   0  0  0  0  0  0  0  0  0  0  0  0
    7.9031  -13.8803   25.3503 N   0  0  0  0  0  0  0  0  0  0  0  0
    6.5205  -13.4616   25.5334 C   0  0  0  0  0  0  0  0  0  0  0  0
    6.4735  -12.6839   26.8108 C   0  0  0  0  0  0  0  0  0  0  0  0
    7.9060  -12.2214   26.9862 C   0  0  0  0  0  0  0  0  0  0  0  0
    8.6499  -13.4547   26.4694 C   0  0  1  0  0  0  0  0  0  0  0  0
    8.6580  -14.4264   27.5992 C   0  0  0  0  0  0  0  0  0  0  0  0
    7.9275  -15.4471   27.6582 O   0  0  0  0  0  0  0  0  0  0  0  0
    9.5188  -14.2125   28.6649 O   0  0  0  0  0  0  0  0  0  0  0  0
  2  1  1  6
  2  3  1  0
  4  6  1  0
  4  2  1  0
  5  4  2  0
  7  6  1  0
  7 12  1  0
  7  8  1  1
  9  8  1  0
 10  9  1  0
 11 10  2  0
 12 15  1  0
 13 12  2  0
 14 10  1  0
 15 16  1  0
 15 19  1  0
 16 17  1  0
 18 17  1  0
 19 18  1  0
 19 20  1  1
 20 21  2  0
 20 22  1  0
M  END
$$$$
