AEP.pdb
     RDKit          3D

 22 22  0  0  1  0  0  0  0  0999 V2000
    8.6798  -12.6905   19.7242 C   0  0  0  0  0  0  0  0  0  0  0  0
    8.0651  -14.0648   19.7489 C   0  0  2  0  0  0  0  0  0  0  0  0
    7.0025  -14.2002   18.7787 N   0  0  0  0  0  0  0  0  0  0  0  0
    7.5577  -14.3404   21.1166 C   0  0  0  0  0  0  0  0  0  0  0  0
    6.4057  -13.9457   21.4391 O   0  0  0  0  0  0  0  0  0  0  0  0
    8.3010  -15.0297   22.0951 N   0  0  0  0  0  0  0  0  0  0  0  0
    7.7288  -15.3293   23.3868 C   0  0  1  0  0  0  0  0  0  0  0  0
    7.5766  -16.8001   23.5709 C   0  0  0  0  0  0  0  0  0  0  0  0
    6.9961  -17.1535   24.8993 C   0  0  0  0  0  0  0  0  0  0  0  0
    6.9390  -18.6718   25.0182 C   0  0  0  0  0  0  0  0  0  0  0  0
    5.8954  -19.3195   24.7981 O   0  0  0  0  0  0  0  0  0  0  0  0
    8.3379  -14.6607   24.5270 C   0  0  0  0  0  0  0  0  0  0  0  0
    9.6374  -14.7409   24.6710 O   0  0  0  0  0  0  0  0  0  0  0  0
    8.1156  -19.2981   25.3859 O   0  0  0  0  0  0  0  0  0  0  0  0
    7.7472  -13.9009   25.5569 N   0  0  0  0  0  0  0  0  0  0  0  0
    6.3297  -13.5719   25.6132 C   0  0  0  0  0  0  0  0  0  0  0  0
    6.1394  -12.6988   26.8132 C   0  0  0  0  0  0  0  0  0  0  0  0
    7.5210  -12.1191   27.0410 C   0  0  0  0  0  0  0  0  0  0  0  0
    8.3819  -13.3320   26.6815 C   0  0  1  0  0  0  0  0  0  0  0  0
    8.3760  -14.2056   27.8887 C   0  0  0  0  0  0  0  0  0  0  0  0
    8.9513  -13.9214   28.9690 O   0  0  0  0  0  0  0  0  0  0  0  0
    7.6985  -15.4144   27.8416 O   0  0  0  0  0  0  0  0  0  0  0  0
  2  1  1  1
  2  3  1  0
  4  6  1  0
  4  2  1  0
  5  4  2  0
  7  6  1  0
  7 12  1  0
  7  8  1  1
  9  8  1  0
 10  9  1  0
 11 10  2  0
 12 15  1  0
 13 12  2  0
 14 10  1  0
 15 16  1  0
 15 19  1  0
 16 17  1  0
 18 17  1  0
 19 18  1  0
 19 20  1  1
 20 21  2  0
 20 22  1  0
M  END
$$$$
