AEP.pdb
     RDKit          3D

 22 22  0  0  1  0  0  0  0  0999 V2000
    8.5793  -12.6678   19.7487 C   0  0  0  0  0  0  0  0  0  0  0  0
    7.9262  -14.0238   19.7898 C   0  0  2  0  0  0  0  0  0  0  0  0
    6.8305  -14.1257   18.8530 N   0  0  0  0  0  0  0  0  0  0  0  0
    7.4540  -14.2888   21.1722 C   0  0  0  0  0  0  0  0  0  0  0  0
    6.2996  -13.9165   21.5124 O   0  0  0  0  0  0  0  0  0  0  0  0
    8.2339  -14.9437   22.1458 N   0  0  0  0  0  0  0  0  0  0  0  0
    7.6984  -15.2286   23.4565 C   0  0  1  0  0  0  0  0  0  0  0  0
    7.6143  -16.6984   23.6867 C   0  0  0  0  0  0  0  0  0  0  0  0
    7.0693  -17.0362   25.0340 C   0  0  0  0  0  0  0  0  0  0  0  0
    7.0353  -18.5528   25.1800 C   0  0  0  0  0  0  0  0  0  0  0  0
    7.0904  -19.3192   24.1967 O   0  0  0  0  0  0  0  0  0  0  0  0
    8.2977  -14.4999   24.5645 C   0  0  0  0  0  0  0  0  0  0  0  0
    9.6028  -14.3945   24.6035 O   0  0  0  0  0  0  0  0  0  0  0  0
    6.9394  -19.0380   26.4712 O   0  0  0  0  0  0  0  0  0  0  0  0
    7.6914  -13.8521   25.6600 N   0  0  0  0  0  0  0  0  0  0  0  0
    6.2510  -13.7299   25.8360 C   0  0  0  0  0  0  0  0  0  0  0  0
    6.0377  -12.9161   27.0733 C   0  0  0  0  0  0  0  0  0  0  0  0
    7.3379  -12.1497   27.2108 C   0  0  0  0  0  0  0  0  0  0  0  0
    8.3289  -13.2202   26.7487 C   0  0  1  0  0  0  0  0  0  0  0  0
    8.5439  -14.1088   27.9255 C   0  0  0  0  0  0  0  0  0  0  0  0
    8.0476  -15.2570   28.0436 O   0  0  0  0  0  0  0  0  0  0  0  0
    9.3396  -13.6625   28.9696 O   0  0  0  0  0  0  0  0  0  0  0  0
  2  1  1  1
  2  3  1  0
  4  6  1  0
  4  2  1  0
  5  4  2  0
  7  6  1  0
  7 12  1  0
  7  8  1  1
  9  8  1  0
 10  9  1  0
 11 10  2  0
 12 15  1  0
 13 12  2  0
 14 10  1  0
 15 16  1  0
 15 19  1  0
 16 17  1  0
 18 17  1  0
 19 18  1  0
 19 20  1  1
 20 21  2  0
 20 22  1  0
M  END
$$$$
