AEP.pdb
     RDKit          3D

 22 22  0  0  1  0  0  0  0  0999 V2000
    8.7598  -12.8676   20.0091 C   0  0  0  0  0  0  0  0  0  0  0  0
    7.9301  -14.1234   20.0474 C   0  0  2  0  0  0  0  0  0  0  0  0
    6.7846  -14.0425   19.1699 N   0  0  0  0  0  0  0  0  0  0  0  0
    7.4966  -14.3713   21.4456 C   0  0  0  0  0  0  0  0  0  0  0  0
    6.4610  -13.8016   21.8812 O   0  0  0  0  0  0  0  0  0  0  0  0
    8.1870  -15.2213   22.3322 N   0  0  0  0  0  0  0  0  0  0  0  0
    7.7165  -15.4245   23.6824 C   0  0  1  0  0  0  0  0  0  0  0  0
    7.5619  -16.8770   23.9769 C   0  0  0  0  0  0  0  0  0  0  0  0
    7.0322  -17.1294   25.3488 C   0  0  0  0  0  0  0  0  0  0  0  0
    6.9689  -18.6348   25.5778 C   0  0  0  0  0  0  0  0  0  0  0  0
    6.2362  -19.3826   24.8988 O   0  0  0  0  0  0  0  0  0  0  0  0
    8.4230  -14.6923   24.7229 C   0  0  0  0  0  0  0  0  0  0  0  0
    9.7325  -14.7287   24.7265 O   0  0  0  0  0  0  0  0  0  0  0  0
    7.7738  -19.1314   26.5865 O   0  0  0  0  0  0  0  0  0  0  0  0
    7.9225  -13.9085   25.7823 N   0  0  0  0  0  0  0  0  0  0  0  0
    6.5125  -13.5927   25.9635 C   0  0  0  0  0  0  0  0  0  0  0  0
    6.4252  -12.6865   27.1508 C   0  0  0  0  0  0  0  0  0  0  0  0
    7.8144  -12.0861   27.2298 C   0  0  0  0  0  0  0  0  0  0  0  0
    8.6533  -13.3001   26.8248 C   0  0  1  0  0  0  0  0  0  0  0  0
    8.7731  -14.1377   28.0515 C   0  0  0  0  0  0  0  0  0  0  0  0
    8.1631  -15.2218   28.2289 O   0  0  0  0  0  0  0  0  0  0  0  0
    9.6055  -13.7150   29.0766 O   0  0  0  0  0  0  0  0  0  0  0  0
  2  1  1  1
  2  3  1  0
  4  6  1  0
  4  2  1  0
  5  4  2  0
  7  6  1  0
  7 12  1  0
  7  8  1  1
  9  8  1  0
 10  9  1  0
 11 10  2  0
 12 15  1  0
 13 12  2  0
 14 10  1  0
 15 16  1  0
 15 19  1  0
 16 17  1  0
 18 17  1  0
 19 18  1  0
 19 20  1  1
 20 21  2  0
 20 22  1  0
M  END
$$$$
