AEP.pdb
     RDKit          3D

 22 22  0  0  1  0  0  0  0  0999 V2000
    2.2121  -18.7074   21.2503 C   0  0  0  0  0  0  0  0  0  0  0  0
    3.3889  -19.2398   20.4764 C   0  0  2  0  0  0  0  0  0  0  0  0
    3.1206  -20.5424   19.9110 N   0  0  0  0  0  0  0  0  0  0  0  0
    4.5695  -19.2968   21.3748 C   0  0  0  0  0  0  0  0  0  0  0  0
    4.4935  -19.9418   22.4542 O   0  0  0  0  0  0  0  0  0  0  0  0
    5.7935  -18.6605   21.0881 N   0  0  0  0  0  0  0  0  0  0  0  0
    6.8795  -18.6783   22.0399 C   0  0  1  0  0  0  0  0  0  0  0  0
    8.1934  -18.5589   21.3472 C   0  0  0  0  0  0  0  0  0  0  0  0
    8.0760  -17.9211   20.0035 C   0  0  0  0  0  0  0  0  0  0  0  0
    9.4695  -17.7971   19.3991 C   0  0  0  0  0  0  0  0  0  0  0  0
   10.4967  -18.1519   20.0124 O   0  0  0  0  0  0  0  0  0  0  0  0
    6.7424  -17.7889   23.1836 C   0  0  0  0  0  0  0  0  0  0  0  0
    5.9524  -16.7502   23.0700 O   0  0  0  0  0  0  0  0  0  0  0  0
    9.5349  -17.2660   18.1241 O   0  0  0  0  0  0  0  0  0  0  0  0
    7.3386  -17.8507   24.4595 N   0  0  0  0  0  0  0  0  0  0  0  0
    8.2945  -18.8734   24.8609 C   0  0  0  0  0  0  0  0  0  0  0  0
    8.6165  -18.6183   26.2996 C   0  0  0  0  0  0  0  0  0  0  0  0
    7.4162  -17.8326   26.7880 C   0  0  0  0  0  0  0  0  0  0  0  0
    7.1344  -16.9787   25.5499 C   0  0  1  0  0  0  0  0  0  0  0  0
    8.1003  -15.8455   25.6103 C   0  0  0  0  0  0  0  0  0  0  0  0
    9.1558  -15.7802   24.9316 O   0  0  0  0  0  0  0  0  0  0  0  0
    7.8393  -14.7831   26.4621 O   0  0  0  0  0  0  0  0  0  0  0  0
  2  1  1  1
  2  3  1  0
  4  6  1  0
  4  2  1  0
  5  4  2  0
  7  6  1  0
  7 12  1  0
  7  8  1  6
  9  8  1  0
 10  9  1  0
 11 10  2  0
 12 15  1  0
 13 12  2  0
 14 10  1  0
 15 16  1  0
 15 19  1  0
 16 17  1  0
 18 17  1  0
 19 18  1  0
 19 20  1  6
 20 21  2  0
 20 22  1  0
M  END
$$$$
