AEP.pdb
     RDKit          3D

 22 22  0  0  1  0  0  0  0  0999 V2000
    8.5576  -12.4952   19.8794 C   0  0  0  0  0  0  0  0  0  0  0  0
    8.0990  -13.9285   19.8309 C   0  0  2  0  0  0  0  0  0  0  0  0
    7.0996  -14.1430   18.8092 N   0  0  0  0  0  0  0  0  0  0  0  0
    7.5686  -14.3095   21.1642 C   0  0  0  0  0  0  0  0  0  0  0  0
    6.3443  -14.1456   21.4116 O   0  0  0  0  0  0  0  0  0  0  0  0
    8.3671  -14.8533   22.1899 N   0  0  0  0  0  0  0  0  0  0  0  0
    7.8009  -15.1752   23.4788 C   0  0  1  0  0  0  0  0  0  0  0  0
    7.6050  -16.6457   23.6194 C   0  0  0  0  0  0  0  0  0  0  0  0
    7.0817  -17.0273   24.9635 C   0  0  0  0  0  0  0  0  0  0  0  0
    6.9748  -18.5461   25.0320 C   0  0  0  0  0  0  0  0  0  0  0  0
    5.8809  -19.1420   24.9582 O   0  0  0  0  0  0  0  0  0  0  0  0
    8.4439  -14.5617   24.6312 C   0  0  0  0  0  0  0  0  0  0  0  0
    9.7397  -14.7002   24.7649 O   0  0  0  0  0  0  0  0  0  0  0  0
    8.1651  -19.2338   25.1813 O   0  0  0  0  0  0  0  0  0  0  0  0
    7.8914  -13.8038   25.6836 N   0  0  0  0  0  0  0  0  0  0  0  0
    6.4990  -13.3806   25.7360 C   0  0  0  0  0  0  0  0  0  0  0  0
    6.3512  -12.5439   26.9676 C   0  0  0  0  0  0  0  0  0  0  0  0
    7.7657  -12.0699   27.2347 C   0  0  0  0  0  0  0  0  0  0  0  0
    8.5470  -13.3242   26.8374 C   0  0  1  0  0  0  0  0  0  0  0  0
    8.4639  -14.2417   28.0087 C   0  0  0  0  0  0  0  0  0  0  0  0
    7.7192  -15.2524   28.0626 O   0  0  0  0  0  0  0  0  0  0  0  0
    9.2494  -13.9852   29.1219 O   0  0  0  0  0  0  0  0  0  0  0  0
  2  1  1  1
  2  3  1  0
  4  6  1  0
  4  2  1  0
  5  4  2  0
  7  6  1  0
  7 12  1  0
  7  8  1  1
  9  8  1  0
 10  9  1  0
 11 10  2  0
 12 15  1  0
 13 12  2  0
 14 10  1  0
 15 16  1  0
 15 19  1  0
 16 17  1  0
 18 17  1  0
 19 18  1  0
 19 20  1  1
 20 21  2  0
 20 22  1  0
M  END
$$$$
