AEP.pdb
     RDKit          3D

 22 22  0  0  1  0  0  0  0  0999 V2000
    8.4545  -12.1981   19.5974 C   0  0  0  0  0  0  0  0  0  0  0  0
    8.4390  -13.7016   19.6788 C   0  0  2  0  0  0  0  0  0  0  0  0
    7.7110  -14.2957   18.5808 N   0  0  0  0  0  0  0  0  0  0  0  0
    7.8432  -14.1070   20.9768 C   0  0  0  0  0  0  0  0  0  0  0  0
    6.6077  -13.9494   21.1652 O   0  0  0  0  0  0  0  0  0  0  0  0
    8.5905  -14.6679   22.0314 N   0  0  0  0  0  0  0  0  0  0  0  0
    7.9521  -15.0605   23.2659 C   0  0  1  0  0  0  0  0  0  0  0  0
    7.8946  -16.5448   23.3841 C   0  0  0  0  0  0  0  0  0  0  0  0
    7.2423  -17.1878   22.2063 C   0  0  0  0  0  0  0  0  0  0  0  0
    7.7113  -18.6353   22.1190 C   0  0  0  0  0  0  0  0  0  0  0  0
    7.3861  -19.3864   21.1771 O   0  0  0  0  0  0  0  0  0  0  0  0
    8.4292  -14.3994   24.4713 C   0  0  0  0  0  0  0  0  0  0  0  0
    9.7223  -14.2719   24.6380 O   0  0  0  0  0  0  0  0  0  0  0  0
    8.5234  -19.0750   23.1481 O   0  0  0  0  0  0  0  0  0  0  0  0
    7.7094  -13.8411   25.5471 N   0  0  0  0  0  0  0  0  0  0  0  0
    6.2556  -13.7824   25.6085 C   0  0  0  0  0  0  0  0  0  0  0  0
    5.9087  -13.0526   26.8678 C   0  0  0  0  0  0  0  0  0  0  0  0
    7.1605  -12.2488   27.1569 C   0  0  0  0  0  0  0  0  0  0  0  0
    8.2293  -13.2526   26.7195 C   0  0  1  0  0  0  0  0  0  0  0  0
    8.3845  -14.2017   27.8578 C   0  0  0  0  0  0  0  0  0  0  0  0
    7.9300  -15.3731   27.8677 O   0  0  0  0  0  0  0  0  0  0  0  0
    9.0712  -13.7891   28.9895 O   0  0  0  0  0  0  0  0  0  0  0  0
  2  1  1  6
  2  3  1  0
  4  6  1  0
  4  2  1  0
  5  4  2  0
  7  6  1  0
  7 12  1  0
  7  8  1  1
  9  8  1  0
 10  9  1  0
 11 10  2  0
 12 15  1  0
 13 12  2  0
 14 10  1  0
 15 16  1  0
 15 19  1  0
 16 17  1  0
 18 17  1  0
 19 18  1  0
 19 20  1  1
 20 21  2  0
 20 22  1  0
M  END
$$$$
