AEP.pdb
     RDKit          3D

 22 22  0  0  1  0  0  0  0  0999 V2000
    8.3877  -12.3884   19.6700 C   0  0  0  0  0  0  0  0  0  0  0  0
    8.4299  -13.8925   19.7263 C   0  0  2  0  0  0  0  0  0  0  0  0
    7.6772  -14.4958   18.6502 N   0  0  0  0  0  0  0  0  0  0  0  0
    7.9056  -14.3397   21.0413 C   0  0  0  0  0  0  0  0  0  0  0  0
    6.6630  -14.4773   21.1962 O   0  0  0  0  0  0  0  0  0  0  0  0
    8.7294  -14.6246   22.1483 N   0  0  0  0  0  0  0  0  0  0  0  0
    8.1618  -15.0627   23.4019 C   0  0  1  0  0  0  0  0  0  0  0  0
    8.1788  -16.5495   23.5005 C   0  0  0  0  0  0  0  0  0  0  0  0
    9.5598  -17.1112   23.4411 C   0  0  0  0  0  0  0  0  0  0  0  0
    9.4852  -18.6149   23.6776 C   0  0  0  0  0  0  0  0  0  0  0  0
    9.4823  -19.1108   24.8227 O   0  0  0  0  0  0  0  0  0  0  0  0
    8.6572  -14.3952   24.5964 C   0  0  0  0  0  0  0  0  0  0  0  0
    9.9528  -14.2720   24.7455 O   0  0  0  0  0  0  0  0  0  0  0  0
    9.4203  -19.4065   22.5458 O   0  0  0  0  0  0  0  0  0  0  0  0
    7.9537  -13.8264   25.6775 N   0  0  0  0  0  0  0  0  0  0  0  0
    6.5011  -13.7973   25.7762 C   0  0  0  0  0  0  0  0  0  0  0  0
    6.1712  -13.0447   27.0265 C   0  0  0  0  0  0  0  0  0  0  0  0
    7.4121  -12.2076   27.2631 C   0  0  0  0  0  0  0  0  0  0  0  0
    8.4910  -13.1987   26.8213 C   0  0  1  0  0  0  0  0  0  0  0  0
    8.6966  -14.1164   27.9773 C   0  0  0  0  0  0  0  0  0  0  0  0
    8.2715  -15.2978   28.0255 O   0  0  0  0  0  0  0  0  0  0  0  0
    9.3997  -13.6605   29.0819 O   0  0  0  0  0  0  0  0  0  0  0  0
  2  1  1  1
  2  3  1  0
  4  6  1  0
  4  2  1  0
  5  4  2  0
  7  6  1  0
  7 12  1  0
  7  8  1  1
  9  8  1  0
 10  9  1  0
 11 10  2  0
 12 15  1  0
 13 12  2  0
 14 10  1  0
 15 16  1  0
 15 19  1  0
 16 17  1  0
 18 17  1  0
 19 18  1  0
 19 20  1  1
 20 21  2  0
 20 22  1  0
M  END
$$$$
