AEP.pdb
     RDKit          3D

 22 22  0  0  1  0  0  0  0  0999 V2000
    8.4293  -12.8449   19.7029 C   0  0  0  0  0  0  0  0  0  0  0  0
    8.2637  -14.3277   19.9050 C   0  0  2  0  0  0  0  0  0  0  0  0
    7.4887  -14.9351   18.8472 N   0  0  0  0  0  0  0  0  0  0  0  0
    7.6205  -14.5650   21.2219 C   0  0  0  0  0  0  0  0  0  0  0  0
    6.4004  -14.2899   21.3717 O   0  0  0  0  0  0  0  0  0  0  0  0
    8.3055  -15.0889   22.3362 N   0  0  0  0  0  0  0  0  0  0  0  0
    7.6711  -15.1575   23.6317 C   0  0  1  0  0  0  0  0  0  0  0  0
    7.4186  -16.5727   24.0240 C   0  0  0  0  0  0  0  0  0  0  0  0
    6.6045  -17.3099   23.0140 C   0  0  0  0  0  0  0  0  0  0  0  0
    6.4017  -18.7398   23.5007 C   0  0  0  0  0  0  0  0  0  0  0  0
    6.5768  -19.0705   24.6912 O   0  0  0  0  0  0  0  0  0  0  0  0
    8.2822  -14.3622   24.6862 C   0  0  0  0  0  0  0  0  0  0  0  0
    9.5889  -14.2758   24.7192 O   0  0  0  0  0  0  0  0  0  0  0  0
    6.0098  -19.6584   22.5444 O   0  0  0  0  0  0  0  0  0  0  0  0
    7.6867  -13.6285   25.7322 N   0  0  0  0  0  0  0  0  0  0  0  0
    6.2522  -13.4122   25.8586 C   0  0  0  0  0  0  0  0  0  0  0  0
    6.0549  -12.5298   27.0507 C   0  0  0  0  0  0  0  0  0  0  0  0
    7.3952  -11.8368   27.1928 C   0  0  0  0  0  0  0  0  0  0  0  0
    8.3313  -12.9852   26.8100 C   0  0  1  0  0  0  0  0  0  0  0  0
    8.4591  -13.8287   28.0319 C   0  0  0  0  0  0  0  0  0  0  0  0
    9.0255  -13.4575   29.0903 O   0  0  0  0  0  0  0  0  0  0  0  0
    7.9261  -15.1086   28.0251 O   0  0  0  0  0  0  0  0  0  0  0  0
  2  1  1  6
  2  3  1  0
  4  6  1  0
  4  2  1  0
  5  4  2  0
  7  6  1  0
  7 12  1  0
  7  8  1  1
  9  8  1  0
 10  9  1  0
 11 10  2  0
 12 15  1  0
 13 12  2  0
 14 10  1  0
 15 16  1  0
 15 19  1  0
 16 17  1  0
 18 17  1  0
 19 18  1  0
 19 20  1  1
 20 21  2  0
 20 22  1  0
M  END
$$$$
