AEP.pdb
     RDKit          3D

 22 22  0  0  1  0  0  0  0  0999 V2000
    7.3731  -15.7174   19.5615 C   0  0  0  0  0  0  0  0  0  0  0  0
    8.4477  -15.7009   20.6161 C   0  0  2  0  0  0  0  0  0  0  0  0
    9.2237  -16.9201   20.6176 N   0  0  0  0  0  0  0  0  0  0  0  0
    7.8167  -15.4853   21.9426 C   0  0  0  0  0  0  0  0  0  0  0  0
    7.0600  -14.4926   22.1125 O   0  0  0  0  0  0  0  0  0  0  0  0
    8.0172  -16.3400   23.0447 N   0  0  0  0  0  0  0  0  0  0  0  0
    7.4813  -16.0118   24.3450 C   0  0  1  0  0  0  0  0  0  0  0  0
    7.3171  -17.2380   25.1756 C   0  0  0  0  0  0  0  0  0  0  0  0
    6.3568  -18.2104   24.5768 C   0  0  0  0  0  0  0  0  0  0  0  0
    6.5774  -19.5735   25.2216 C   0  0  0  0  0  0  0  0  0  0  0  0
    6.9205  -19.6995   26.4147 O   0  0  0  0  0  0  0  0  0  0  0  0
    8.1331  -14.9166   25.0476 C   0  0  0  0  0  0  0  0  0  0  0  0
    9.4178  -14.7391   24.8632 O   0  0  0  0  0  0  0  0  0  0  0  0
    6.3751  -20.6722   24.4067 O   0  0  0  0  0  0  0  0  0  0  0  0
    7.5993  -13.9618   25.9368 N   0  0  0  0  0  0  0  0  0  0  0  0
    6.1768  -13.8119   26.2098 C   0  0  0  0  0  0  0  0  0  0  0  0
    6.0390  -12.6484   27.1404 C   0  0  0  0  0  0  0  0  0  0  0  0
    7.3089  -11.8584   26.8957 C   0  0  0  0  0  0  0  0  0  0  0  0
    8.3029  -13.0050   26.6988 C   0  0  1  0  0  0  0  0  0  0  0  0
    8.6656  -13.4670   28.0683 C   0  0  0  0  0  0  0  0  0  0  0  0
    8.2500  -14.5333   28.5872 O   0  0  0  0  0  0  0  0  0  0  0  0
    9.5152  -12.6879   28.8387 O   0  0  0  0  0  0  0  0  0  0  0  0
  2  1  1  6
  2  3  1  0
  4  6  1  0
  4  2  1  0
  5  4  2  0
  7  6  1  0
  7 12  1  0
  7  8  1  1
  9  8  1  0
 10  9  1  0
 11 10  2  0
 12 15  1  0
 13 12  2  0
 14 10  1  0
 15 16  1  0
 15 19  1  0
 16 17  1  0
 18 17  1  0
 19 18  1  0
 19 20  1  1
 20 21  2  0
 20 22  1  0
M  END
$$$$
