AEP.pdb
     RDKit          3D

 22 22  0  0  1  0  0  0  0  0999 V2000
    8.4132  -12.1498   19.6303 C   0  0  0  0  0  0  0  0  0  0  0  0
    8.3444  -13.6535   19.5967 C   0  0  2  0  0  0  0  0  0  0  0  0
    7.4757  -14.1325   18.5457 N   0  0  0  0  0  0  0  0  0  0  0  0
    7.8791  -14.1436   20.9186 C   0  0  0  0  0  0  0  0  0  0  0  0
    6.6620  -14.0336   21.2245 O   0  0  0  0  0  0  0  0  0  0  0  0
    8.7328  -14.7352   21.8706 N   0  0  0  0  0  0  0  0  0  0  0  0
    8.2165  -15.2236   23.1278 C   0  0  1  0  0  0  0  0  0  0  0  0
    8.3152  -16.7087   23.2003 C   0  0  0  0  0  0  0  0  0  0  0  0
    7.7670  -17.3786   21.9850 C   0  0  0  0  0  0  0  0  0  0  0  0
    8.4408  -18.7369   21.8312 C   0  0  0  0  0  0  0  0  0  0  0  0
    9.4194  -18.9148   21.0775 O   0  0  0  0  0  0  0  0  0  0  0  0
    8.7007  -14.5498   24.3234 C   0  0  0  0  0  0  0  0  0  0  0  0
    9.9952  -14.4433   24.4936 O   0  0  0  0  0  0  0  0  0  0  0  0
    7.9051  -19.7701   22.5779 O   0  0  0  0  0  0  0  0  0  0  0  0
    7.9869  -13.9588   25.3856 N   0  0  0  0  0  0  0  0  0  0  0  0
    6.5342  -13.8726   25.4396 C   0  0  0  0  0  0  0  0  0  0  0  0
    6.1956  -13.1137   26.6838 C   0  0  0  0  0  0  0  0  0  0  0  0
    7.4607  -12.3276   26.9637 C   0  0  0  0  0  0  0  0  0  0  0  0
    8.5127  -13.3586   26.5494 C   0  0  1  0  0  0  0  0  0  0  0  0
    8.6458  -14.2894   27.7055 C   0  0  0  0  0  0  0  0  0  0  0  0
    9.1939  -13.9881   28.7953 O   0  0  0  0  0  0  0  0  0  0  0  0
    8.1397  -15.5756   27.5961 O   0  0  0  0  0  0  0  0  0  0  0  0
  2  1  1  1
  2  3  1  0
  4  6  1  0
  4  2  1  0
  5  4  2  0
  7  6  1  0
  7 12  1  0
  7  8  1  1
  9  8  1  0
 10  9  1  0
 11 10  2  0
 12 15  1  0
 13 12  2  0
 14 10  1  0
 15 16  1  0
 15 19  1  0
 16 17  1  0
 18 17  1  0
 19 18  1  0
 19 20  1  1
 20 21  2  0
 20 22  1  0
M  END
$$$$
