AEP.pdb
     RDKit          3D

 22 22  0  0  1  0  0  0  0  0999 V2000
    8.7878  -12.4104   19.8341 C   0  0  0  0  0  0  0  0  0  0  0  0
    8.1973  -13.7905   19.7159 C   0  0  2  0  0  0  0  0  0  0  0  0
    7.1909  -13.8620   18.6812 N   0  0  0  0  0  0  0  0  0  0  0  0
    7.6223  -14.1818   21.0276 C   0  0  0  0  0  0  0  0  0  0  0  0
    6.4244  -13.8918   21.2879 O   0  0  0  0  0  0  0  0  0  0  0  0
    8.3495  -14.8709   22.0184 N   0  0  0  0  0  0  0  0  0  0  0  0
    7.7448  -15.2001   23.2878 C   0  0  1  0  0  0  0  0  0  0  0  0
    7.5917  -16.6750   23.4354 C   0  0  0  0  0  0  0  0  0  0  0  0
    7.0283  -17.0619   24.7617 C   0  0  0  0  0  0  0  0  0  0  0  0
    6.9298  -18.5814   24.8251 C   0  0  0  0  0  0  0  0  0  0  0  0
    7.9176  -19.3045   25.0673 O   0  0  0  0  0  0  0  0  0  0  0  0
    8.3224  -14.5557   24.4579 C   0  0  0  0  0  0  0  0  0  0  0  0
    9.6255  -14.5651   24.5907 O   0  0  0  0  0  0  0  0  0  0  0  0
    5.6767  -19.1201   24.5982 O   0  0  0  0  0  0  0  0  0  0  0  0
    7.6960  -13.8867   25.5290 N   0  0  0  0  0  0  0  0  0  0  0  0
    6.2540  -13.7270   25.6551 C   0  0  0  0  0  0  0  0  0  0  0  0
    6.0197  -12.9013   26.8807 C   0  0  0  0  0  0  0  0  0  0  0  0
    7.3336  -12.1674   27.0590 C   0  0  0  0  0  0  0  0  0  0  0  0
    8.3120  -13.2653   26.6359 C   0  0  1  0  0  0  0  0  0  0  0  0
    8.4641  -14.1526   27.8234 C   0  0  0  0  0  0  0  0  0  0  0  0
    9.0667  -13.8261   28.8766 O   0  0  0  0  0  0  0  0  0  0  0  0
    7.9133  -15.4246   27.7884 O   0  0  0  0  0  0  0  0  0  0  0  0
  2  1  1  1
  2  3  1  0
  4  6  1  0
  4  2  1  0
  5  4  2  0
  7  6  1  0
  7 12  1  0
  7  8  1  1
  9  8  1  0
 10  9  1  0
 11 10  2  0
 12 15  1  0
 13 12  2  0
 14 10  1  0
 15 16  1  0
 15 19  1  0
 16 17  1  0
 18 17  1  0
 19 18  1  0
 19 20  1  1
 20 21  2  0
 20 22  1  0
M  END
$$$$
