AEP.pdb
     RDKit          3D

 22 22  0  0  1  0  0  0  0  0999 V2000
    8.3882  -12.5215   19.6787 C   0  0  0  0  0  0  0  0  0  0  0  0
    8.0202  -13.9815   19.6978 C   0  0  2  0  0  0  0  0  0  0  0  0
    7.0219  -14.3012   18.7029 N   0  0  0  0  0  0  0  0  0  0  0  0
    7.5338  -14.3374   21.0546 C   0  0  0  0  0  0  0  0  0  0  0  0
    6.2976  -14.3072   21.2951 O   0  0  0  0  0  0  0  0  0  0  0  0
    8.3876  -14.7138   22.1104 N   0  0  0  0  0  0  0  0  0  0  0  0
    7.8518  -15.1236   23.3873 C   0  0  1  0  0  0  0  0  0  0  0  0
    7.6283  -16.5965   23.4203 C   0  0  0  0  0  0  0  0  0  0  0  0
    7.1502  -17.0730   24.7510 C   0  0  0  0  0  0  0  0  0  0  0  0
    6.9963  -18.5883   24.6998 C   0  0  0  0  0  0  0  0  0  0  0  0
    6.1900  -19.2021   25.4282 O   0  0  0  0  0  0  0  0  0  0  0  0
    8.5407  -14.6137   24.5635 C   0  0  0  0  0  0  0  0  0  0  0  0
    9.8166  -14.8786   24.6981 O   0  0  0  0  0  0  0  0  0  0  0  0
    7.8047  -19.2520   23.7954 O   0  0  0  0  0  0  0  0  0  0  0  0
    8.0539  -13.8436   25.6392 N   0  0  0  0  0  0  0  0  0  0  0  0
    6.7016  -13.3078   25.7083 C   0  0  0  0  0  0  0  0  0  0  0  0
    6.6248  -12.4981   26.9641 C   0  0  0  0  0  0  0  0  0  0  0  0
    8.0740  -12.1514   27.2405 C   0  0  0  0  0  0  0  0  0  0  0  0
    8.7479  -13.4541   26.8044 C   0  0  1  0  0  0  0  0  0  0  0  0
    8.5896  -14.3955   27.9487 C   0  0  0  0  0  0  0  0  0  0  0  0
    7.7687  -15.3465   27.9725 O   0  0  0  0  0  0  0  0  0  0  0  0
    9.3885  -14.2325   29.0701 O   0  0  0  0  0  0  0  0  0  0  0  0
  2  1  1  1
  2  3  1  0
  4  6  1  0
  4  2  1  0
  5  4  2  0
  7  6  1  0
  7 12  1  0
  7  8  1  6
  9  8  1  0
 10  9  1  0
 11 10  2  0
 12 15  1  0
 13 12  2  0
 14 10  1  0
 15 16  1  0
 15 19  1  0
 16 17  1  0
 18 17  1  0
 19 18  1  0
 19 20  1  1
 20 21  2  0
 20 22  1  0
M  END
$$$$
