AEP.pdb
     RDKit          3D

 22 22  0  0  1  0  0  0  0  0999 V2000
    8.4684  -12.6648   19.6521 C   0  0  0  0  0  0  0  0  0  0  0  0
    8.0448  -14.1076   19.7297 C   0  0  2  0  0  0  0  0  0  0  0  0
    7.0319  -14.4281   18.7499 N   0  0  0  0  0  0  0  0  0  0  0  0
    7.5493  -14.3905   21.1004 C   0  0  0  0  0  0  0  0  0  0  0  0
    6.3599  -14.1020   21.3988 O   0  0  0  0  0  0  0  0  0  0  0  0
    8.3442  -14.9730   22.1074 N   0  0  0  0  0  0  0  0  0  0  0  0
    7.7996  -15.2467   23.4166 C   0  0  1  0  0  0  0  0  0  0  0  0
    7.7191  -16.7144   23.6610 C   0  0  0  0  0  0  0  0  0  0  0  0
    7.1963  -17.0404   25.0200 C   0  0  0  0  0  0  0  0  0  0  0  0
    7.1550  -18.5558   25.1760 C   0  0  0  0  0  0  0  0  0  0  0  0
    6.5277  -19.1147   26.0986 O   0  0  0  0  0  0  0  0  0  0  0  0
    8.3876  -14.5047   24.5219 C   0  0  0  0  0  0  0  0  0  0  0  0
    9.6934  -14.4712   24.6210 O   0  0  0  0  0  0  0  0  0  0  0  0
    7.8557  -19.2841   24.2323 O   0  0  0  0  0  0  0  0  0  0  0  0
    7.7693  -13.7762   25.5583 N   0  0  0  0  0  0  0  0  0  0  0  0
    6.3355  -13.5338   25.6376 C   0  0  0  0  0  0  0  0  0  0  0  0
    6.1129  -12.6667   26.8365 C   0  0  0  0  0  0  0  0  0  0  0  0
    7.4602  -12.0027   27.0373 C   0  0  0  0  0  0  0  0  0  0  0  0
    8.3872  -13.1630   26.6688 C   0  0  1  0  0  0  0  0  0  0  0  0
    8.4553  -14.0282   27.8802 C   0  0  0  0  0  0  0  0  0  0  0  0
    9.0503  -13.7126   28.9410 O   0  0  0  0  0  0  0  0  0  0  0  0
    7.8291  -15.2650   27.8602 O   0  0  0  0  0  0  0  0  0  0  0  0
  2  1  1  1
  2  3  1  0
  4  6  1  0
  4  2  1  0
  5  4  2  0
  7  6  1  0
  7 12  1  0
  7  8  1  1
  9  8  1  0
 10  9  1  0
 11 10  2  0
 12 15  1  0
 13 12  2  0
 14 10  1  0
 15 16  1  0
 15 19  1  0
 16 17  1  0
 18 17  1  0
 19 18  1  0
 19 20  1  1
 20 21  2  0
 20 22  1  0
M  END
$$$$
