FLF.pdb
     RDKit          3D

 31 32  0  0  1  0  0  0  0  0999 V2000
    7.7939  -18.6898   21.7859 N   0  0  0  0  0  0  0  0  0  0  0  0
    8.8273  -18.0926   21.0022 C   0  0  1  0  0  0  0  0  0  0  0  0
    8.3480  -17.8627   19.6065 C   0  0  0  0  0  0  0  0  0  0  0  0
    7.9127  -19.1937   19.0646 C   0  0  0  0  0  0  0  0  0  0  0  0
    6.5924  -19.5716   19.0660 C   0  0  0  0  0  0  0  0  0  0  0  0
    6.1476  -20.7831   18.5793 C   0  0  0  0  0  0  0  0  0  0  0  0
    7.0909  -21.6568   18.0643 C   0  0  0  0  0  0  0  0  0  0  0  0
    8.4395  -21.3167   18.0421 C   0  0  0  0  0  0  0  0  0  0  0  0
    8.8306  -20.0887   18.5433 C   0  0  0  0  0  0  0  0  0  0  0  0
    9.4228  -16.8911   21.6306 C   0  0  0  0  0  0  0  0  0  0  0  0
   10.4688  -16.3931   21.1298 O   0  0  0  0  0  0  0  0  0  0  0  0
    7.5458  -13.1406   21.9776 C   0  0  0  0  0  0  0  0  0  0  0  0
    7.2040  -13.9519   23.2415 C   0  0  2  0  0  0  0  0  0  0  0  0
    6.1937  -13.0953   23.9709 C   0  0  0  0  0  0  0  0  0  0  0  0
    8.4792  -14.1398   23.9745 C   0  0  0  0  0  0  0  0  0  0  0  0
    9.4643  -15.0958   23.4271 C   0  0  2  0  0  0  0  0  0  0  0  0
    8.8912  -16.2502   22.7747 N   0  0  0  0  0  0  0  0  0  0  0  0
   10.4533  -15.5126   24.4287 C   0  0  0  0  0  0  0  0  0  0  0  0
   11.4532  -14.8303   24.7608 O   0  0  0  0  0  0  0  0  0  0  0  0
   10.2973  -16.7620   25.0871 N   0  0  0  0  0  0  0  0  0  0  0  0
   11.2160  -17.2130   26.1208 C   0  0  1  0  0  0  0  0  0  0  0  0
   10.3965  -17.1247   27.4204 C   0  0  0  0  0  0  0  0  0  0  0  0
   10.2341  -15.7530   27.9017 C   0  0  0  0  0  0  0  0  0  0  0  0
   11.1599  -15.2013   28.7573 C   0  0  0  0  0  0  0  0  0  0  0  0
   10.9908  -13.9100   29.1995 C   0  0  0  0  0  0  0  0  0  0  0  0
    9.9134  -13.1340   28.8134 C   0  0  0  0  0  0  0  0  0  0  0  0
    9.0090  -13.7298   27.9531 C   0  0  0  0  0  0  0  0  0  0  0  0
    9.1328  -15.0114   27.4848 C   0  0  0  0  0  0  0  0  0  0  0  0
   11.7454  -18.5568   25.9133 C   0  0  0  0  0  0  0  0  0  0  0  0
   11.3975  -19.3669   24.8347 O   0  0  0  0  0  0  0  0  0  0  0  0
   12.5711  -19.0634   26.7318 O   0  0  0  0  0  0  0  0  0  0  0  0
  2  1  1  1
  3  4  1  0
  3  2  1  0
  4  9  1  0
  4  5  2  0
  5  6  1  0
  6  7  2  0
  8  7  1  0
  9  8  2  0
 10 11  2  0
 10  2  1  0
 13 12  1  6
 13 14  1  0
 13 15  1  0
 16 15  1  1
 16 17  1  0
 17 10  1  0
 18 16  1  0
 19 18  2  0
 20 18  1  0
 21 20  1  0
 21 22  1  1
 22 23  1  0
 23 28  1  0
 24 23  2  0
 24 25  1  0
 25 26  2  0
 26 27  1  0
 28 27  2  0
 29 30  1  0
 29 21  1  0
 31 29  2  0
M  END
$$$$
