FLF.pdb
     RDKit          3D

 31 32  0  0  1  0  0  0  0  0999 V2000
    5.5819  -18.3148   24.0678 N   0  0  0  0  0  0  0  0  0  0  0  0
    6.2801  -17.1026   24.3538 C   0  0  1  0  0  0  0  0  0  0  0  0
    6.5112  -16.9756   25.8239 C   0  0  0  0  0  0  0  0  0  0  0  0
    6.8365  -15.5352   26.0965 C   0  0  0  0  0  0  0  0  0  0  0  0
    8.0861  -15.1489   26.5147 C   0  0  0  0  0  0  0  0  0  0  0  0
    8.4292  -13.8389   26.7768 C   0  0  0  0  0  0  0  0  0  0  0  0
    7.4540  -12.8703   26.6059 C   0  0  0  0  0  0  0  0  0  0  0  0
    6.1741  -13.2149   26.1838 C   0  0  0  0  0  0  0  0  0  0  0  0
    5.8843  -14.5439   25.9352 C   0  0  0  0  0  0  0  0  0  0  0  0
    7.5063  -16.9241   23.5428 C   0  0  0  0  0  0  0  0  0  0  0  0
    8.1794  -17.9414   23.2189 O   0  0  0  0  0  0  0  0  0  0  0  0
    7.4762  -14.4365   19.8768 C   0  0  0  0  0  0  0  0  0  0  0  0
    7.9122  -13.5608   21.0666 C   0  0  2  0  0  0  0  0  0  0  0  0
    8.0660  -12.1783   20.4735 C   0  0  0  0  0  0  0  0  0  0  0  0
    9.1769  -14.1454   21.5740 C   0  0  0  0  0  0  0  0  0  0  0  0
    9.1207  -15.4700   22.2269 C   0  0  2  0  0  0  0  0  0  0  0  0
    7.9851  -15.6693   23.0973 N   0  0  0  0  0  0  0  0  0  0  0  0
   10.3673  -15.7994   22.9288 C   0  0  0  0  0  0  0  0  0  0  0  0
   11.5150  -15.5663   22.4773 O   0  0  0  0  0  0  0  0  0  0  0  0
   10.3074  -16.4197   24.2058 N   0  0  0  0  0  0  0  0  0  0  0  0
   11.5040  -16.8226   24.9280 C   0  0  1  0  0  0  0  0  0  0  0  0
   12.0402  -15.5129   25.5327 C   0  0  0  0  0  0  0  0  0  0  0  0
   11.2756  -15.0656   26.6967 C   0  0  0  0  0  0  0  0  0  0  0  0
   10.5923  -13.8717   26.6638 C   0  0  0  0  0  0  0  0  0  0  0  0
    9.8787  -13.4672   27.7678 C   0  0  0  0  0  0  0  0  0  0  0  0
    9.8198  -14.2226   28.9245 C   0  0  0  0  0  0  0  0  0  0  0  0
   10.5215  -15.4144   28.9118 C   0  0  0  0  0  0  0  0  0  0  0  0
   11.2465  -15.8609   27.8383 C   0  0  0  0  0  0  0  0  0  0  0  0
   11.2769  -17.8322   25.9567 C   0  0  0  0  0  0  0  0  0  0  0  0
   12.2973  -18.4248   26.6972 O   0  0  0  0  0  0  0  0  0  0  0  0
   10.1037  -18.2283   26.2306 O   0  0  0  0  0  0  0  0  0  0  0  0
  2  1  1  1
  3  4  1  0
  3  2  1  0
  4  9  1  0
  4  5  2  0
  5  6  1  0
  6  7  2  0
  8  7  1  0
  9  8  2  0
 10 11  2  0
 10  2  1  0
 13 12  1  6
 13 14  1  0
 13 15  1  0
 16 15  1  1
 16 17  1  0
 17 10  1  0
 18 16  1  0
 19 18  2  0
 20 18  1  0
 21 20  1  0
 21 22  1  1
 22 23  1  0
 23 28  1  0
 24 23  2  0
 24 25  1  0
 25 26  2  0
 26 27  1  0
 28 27  2  0
 29 30  1  0
 29 21  1  0
 31 29  2  0
M  END
$$$$
