FLF.pdb
     RDKit          3D

 31 32  0  0  1  0  0  0  0  0999 V2000
    7.2518  -17.0098   25.7823 N   0  0  0  0  0  0  0  0  0  0  0  0
    6.5172  -16.7711   24.5815 C   0  0  1  0  0  0  0  0  0  0  0  0
    5.6405  -15.5728   24.7431 C   0  0  0  0  0  0  0  0  0  0  0  0
    6.4653  -14.5094   25.4092 C   0  0  0  0  0  0  0  0  0  0  0  0
    7.4434  -13.8282   24.7272 C   0  0  0  0  0  0  0  0  0  0  0  0
    8.2245  -12.8450   25.2979 C   0  0  0  0  0  0  0  0  0  0  0  0
    8.0019  -12.5366   26.6298 C   0  0  0  0  0  0  0  0  0  0  0  0
    7.0219  -13.2005   27.3604 C   0  0  0  0  0  0  0  0  0  0  0  0
    6.2674  -14.1781   26.7383 C   0  0  0  0  0  0  0  0  0  0  0  0
    7.3680  -16.7247   23.3703 C   0  0  0  0  0  0  0  0  0  0  0  0
    7.1857  -17.5806   22.4609 O   0  0  0  0  0  0  0  0  0  0  0  0
    7.7978  -15.0104   19.7022 C   0  0  0  0  0  0  0  0  0  0  0  0
    8.3568  -14.0412   20.7608 C   0  0  2  0  0  0  0  0  0  0  0  0
    8.6103  -12.7616   19.9958 C   0  0  0  0  0  0  0  0  0  0  0  0
    9.5831  -14.6756   21.3016 C   0  0  0  0  0  0  0  0  0  0  0  0
    9.4308  -15.8690   22.1599 C   0  0  2  0  0  0  0  0  0  0  0  0
    8.3905  -15.7699   23.1572 N   0  0  0  0  0  0  0  0  0  0  0  0
   10.6977  -16.2750   22.7806 C   0  0  0  0  0  0  0  0  0  0  0  0
   11.8274  -16.0930   22.2648 O   0  0  0  0  0  0  0  0  0  0  0  0
   10.6808  -16.9148   24.0493 N   0  0  0  0  0  0  0  0  0  0  0  0
   11.8215  -16.8769   24.9511 C   0  0  1  0  0  0  0  0  0  0  0  0
   11.8183  -15.4411   25.5053 C   0  0  0  0  0  0  0  0  0  0  0  0
   10.7036  -15.1825   26.4164 C   0  0  0  0  0  0  0  0  0  0  0  0
    9.7526  -14.2388   26.1025 C   0  0  0  0  0  0  0  0  0  0  0  0
    8.7114  -14.0092   26.9714 C   0  0  0  0  0  0  0  0  0  0  0  0
    8.5808  -14.6978   28.1633 C   0  0  0  0  0  0  0  0  0  0  0  0
    9.5594  -15.6361   28.4368 C   0  0  0  0  0  0  0  0  0  0  0  0
   10.6151  -15.9014   27.6047 C   0  0  0  0  0  0  0  0  0  0  0  0
   11.7751  -17.8639   26.0248 C   0  0  0  0  0  0  0  0  0  0  0  0
   10.7232  -18.7587   26.2075 O   0  0  0  0  0  0  0  0  0  0  0  0
   12.7196  -17.9535   26.8664 O   0  0  0  0  0  0  0  0  0  0  0  0
  2  1  1  1
  3  4  1  0
  3  2  1  0
  4  9  1  0
  4  5  2  0
  5  6  1  0
  6  7  2  0
  8  7  1  0
  9  8  2  0
 10 11  2  0
 10  2  1  0
 13 12  1  6
 13 14  1  0
 13 15  1  0
 16 15  1  1
 16 17  1  0
 17 10  1  0
 18 16  1  0
 19 18  2  0
 20 18  1  0
 21 20  1  0
 21 22  1  1
 22 23  1  0
 23 28  1  0
 24 23  2  0
 24 25  1  0
 25 26  2  0
 26 27  1  0
 28 27  2  0
 29 30  1  0
 29 21  1  0
 31 29  2  0
M  END
$$$$
