FLF.pdb
     RDKit          3D

 31 32  0  0  1  0  0  0  0  0999 V2000
    6.5237  -17.6699   25.5965 N   0  0  0  0  0  0  0  0  0  0  0  0
    6.2831  -17.1165   24.3024 C   0  0  1  0  0  0  0  0  0  0  0  0
    5.4081  -15.9110   24.4120 C   0  0  0  0  0  0  0  0  0  0  0  0
    6.1503  -14.9009   25.2388 C   0  0  0  0  0  0  0  0  0  0  0  0
    5.9182  -13.5541   25.1043 C   0  0  0  0  0  0  0  0  0  0  0  0
    6.5757  -12.5916   25.8417 C   0  0  0  0  0  0  0  0  0  0  0  0
    7.5177  -13.0173   26.7636 C   0  0  0  0  0  0  0  0  0  0  0  0
    7.7860  -14.3715   26.9342 C   0  0  0  0  0  0  0  0  0  0  0  0
    7.0973  -15.2940   26.1683 C   0  0  0  0  0  0  0  0  0  0  0  0
    7.5204  -16.8826   23.5230 C   0  0  0  0  0  0  0  0  0  0  0  0
    8.2164  -17.8736   23.1674 O   0  0  0  0  0  0  0  0  0  0  0  0
    8.4769  -12.3377   19.9598 C   0  0  0  0  0  0  0  0  0  0  0  0
    8.4448  -13.8444   20.2781 C   0  0  2  0  0  0  0  0  0  0  0  0
    6.9760  -14.2015   20.2364 C   0  0  0  0  0  0  0  0  0  0  0  0
    9.0679  -14.0022   21.6143 C   0  0  0  0  0  0  0  0  0  0  0  0
    9.0742  -15.3471   22.2268 C   0  0  2  0  0  0  0  0  0  0  0  0
    7.9858  -15.6018   23.1418 N   0  0  0  0  0  0  0  0  0  0  0  0
   10.3599  -15.6658   22.8598 C   0  0  0  0  0  0  0  0  0  0  0  0
   11.4794  -15.4256   22.3454 O   0  0  0  0  0  0  0  0  0  0  0  0
   10.3748  -16.2831   24.1395 N   0  0  0  0  0  0  0  0  0  0  0  0
   11.6123  -16.5554   24.8538 C   0  0  1  0  0  0  0  0  0  0  0  0
   11.1681  -16.7735   26.3111 C   0  0  0  0  0  0  0  0  0  0  0  0
   10.6433  -15.5596   26.9364 C   0  0  0  0  0  0  0  0  0  0  0  0
   11.4972  -14.5574   27.3360 C   0  0  0  0  0  0  0  0  0  0  0  0
   10.9857  -13.4232   27.9222 C   0  0  0  0  0  0  0  0  0  0  0  0
    9.6298  -13.2478   28.1285 C   0  0  0  0  0  0  0  0  0  0  0  0
    8.8101  -14.2807   27.7112 C   0  0  0  0  0  0  0  0  0  0  0  0
    9.2704  -15.4293   27.1228 C   0  0  0  0  0  0  0  0  0  0  0  0
   12.3625  -17.6998   24.3472 C   0  0  0  0  0  0  0  0  0  0  0  0
   11.9098  -18.5291   23.3234 O   0  0  0  0  0  0  0  0  0  0  0  0
   13.4951  -18.0005   24.8319 O   0  0  0  0  0  0  0  0  0  0  0  0
  2  1  1  1
  3  4  1  0
  3  2  1  0
  4  9  1  0
  4  5  2  0
  5  6  1  0
  6  7  2  0
  8  7  1  0
  9  8  2  0
 10 11  2  0
 10  2  1  0
 13 12  1  1
 13 14  1  0
 13 15  1  0
 16 15  1  1
 16 17  1  0
 17 10  1  0
 18 16  1  0
 19 18  2  0
 20 18  1  0
 21 20  1  0
 21 22  1  1
 22 23  1  0
 23 28  1  0
 24 23  2  0
 24 25  1  0
 25 26  2  0
 26 27  1  0
 28 27  2  0
 29 30  1  0
 29 21  1  0
 31 29  2  0
M  END
$$$$
