FLF.pdb
     RDKit          3D

 31 32  0  0  1  0  0  0  0  0999 V2000
    6.7475  -19.2966   20.2093 N   0  0  0  0  0  0  0  0  0  0  0  0
    6.8537  -18.7089   21.5062 C   0  0  1  0  0  0  0  0  0  0  0  0
    6.9456  -19.7744   22.5489 C   0  0  0  0  0  0  0  0  0  0  0  0
    6.7386  -19.1090   23.8790 C   0  0  0  0  0  0  0  0  0  0  0  0
    7.6090  -19.3063   24.9227 C   0  0  0  0  0  0  0  0  0  0  0  0
    7.4584  -18.7165   26.1604 C   0  0  0  0  0  0  0  0  0  0  0  0
    6.3682  -17.8832   26.3494 C   0  0  0  0  0  0  0  0  0  0  0  0
    5.4603  -17.6538   25.3208 C   0  0  0  0  0  0  0  0  0  0  0  0
    5.6595  -18.2710   24.0995 C   0  0  0  0  0  0  0  0  0  0  0  0
    7.9228  -17.6889   21.6045 C   0  0  0  0  0  0  0  0  0  0  0  0
    9.1083  -18.0153   21.3203 O   0  0  0  0  0  0  0  0  0  0  0  0
    8.2886  -13.9699   19.2121 C   0  0  0  0  0  0  0  0  0  0  0  0
    7.3222  -13.8083   20.4005 C   0  0  2  0  0  0  0  0  0  0  0  0
    6.7314  -12.4289   20.2140 C   0  0  0  0  0  0  0  0  0  0  0  0
    8.1415  -13.9546   21.6277 C   0  0  0  0  0  0  0  0  0  0  0  0
    8.6861  -15.2906   21.9479 C   0  0  2  0  0  0  0  0  0  0  0  0
    7.7040  -16.3486   22.0023 N   0  0  0  0  0  0  0  0  0  0  0  0
    9.4986  -15.2834   23.1706 C   0  0  0  0  0  0  0  0  0  0  0  0
   10.5588  -14.6261   23.3105 O   0  0  0  0  0  0  0  0  0  0  0  0
    9.0855  -16.0566   24.2889 N   0  0  0  0  0  0  0  0  0  0  0  0
    9.7395  -15.9562   25.5842 C   0  0  1  0  0  0  0  0  0  0  0  0
    8.5817  -15.7571   26.5784 C   0  0  0  0  0  0  0  0  0  0  0  0
    7.9658  -14.4339   26.4810 C   0  0  0  0  0  0  0  0  0  0  0  0
    6.6848  -14.2963   25.9979 C   0  0  0  0  0  0  0  0  0  0  0  0
    6.1220  -13.0442   25.9134 C   0  0  0  0  0  0  0  0  0  0  0  0
    6.8011  -11.9034   26.2998 C   0  0  0  0  0  0  0  0  0  0  0  0
    8.0851  -12.0901   26.7789 C   0  0  0  0  0  0  0  0  0  0  0  0
    8.6897  -13.3152   26.8824 C   0  0  0  0  0  0  0  0  0  0  0  0
   10.5559  -17.1122   25.9395 C   0  0  0  0  0  0  0  0  0  0  0  0
   10.6910  -18.2404   25.1334 O   0  0  0  0  0  0  0  0  0  0  0  0
   11.1983  -17.1429   27.0324 O   0  0  0  0  0  0  0  0  0  0  0  0
  2  1  1  6
  3  4  1  0
  3  2  1  0
  4  9  1  0
  4  5  2  0
  5  6  1  0
  6  7  2  0
  8  7  1  0
  9  8  2  0
 10 11  2  0
 10  2  1  0
 13 12  1  6
 13 14  1  0
 13 15  1  0
 16 15  1  1
 16 17  1  0
 17 10  1  0
 18 16  1  0
 19 18  2  0
 20 18  1  0
 21 20  1  0
 21 22  1  1
 22 23  1  0
 23 28  1  0
 24 23  2  0
 24 25  1  0
 25 26  2  0
 26 27  1  0
 28 27  2  0
 29 30  1  0
 29 21  1  0
 31 29  2  0
M  END
$$$$
