FLF.pdb
     RDKit          3D

 31 32  0  0  1  0  0  0  0  0999 V2000
    7.7089  -18.0821   21.2300 N   0  0  0  0  0  0  0  0  0  0  0  0
    7.9860  -16.7806   20.7122 C   0  0  1  0  0  0  0  0  0  0  0  0
    6.7793  -16.2323   20.0236 C   0  0  0  0  0  0  0  0  0  0  0  0
    7.1406  -14.8632   19.5238 C   0  0  0  0  0  0  0  0  0  0  0  0
    7.8309  -14.6873   18.3498 C   0  0  0  0  0  0  0  0  0  0  0  0
    8.1838  -13.4499   17.8531 C   0  0  0  0  0  0  0  0  0  0  0  0
    7.8174  -12.3326   18.5852 C   0  0  0  0  0  0  0  0  0  0  0  0
    7.1173  -12.4623   19.7801 C   0  0  0  0  0  0  0  0  0  0  0  0
    6.7890  -13.7273   20.2320 C   0  0  0  0  0  0  0  0  0  0  0  0
    8.5664  -15.8591   21.7157 C   0  0  0  0  0  0  0  0  0  0  0  0
    9.6377  -15.2509   21.4410 O   0  0  0  0  0  0  0  0  0  0  0  0
    6.7252  -12.9578   26.8661 C   0  0  0  0  0  0  0  0  0  0  0  0
    7.9528  -13.2306   25.9767 C   0  0  2  0  0  0  0  0  0  0  0  0
    8.3608  -11.8628   25.4773 C   0  0  0  0  0  0  0  0  0  0  0  0
    7.4981  -14.1535   24.9090 C   0  0  0  0  0  0  0  0  0  0  0  0
    8.5057  -14.6765   23.9629 C   0  0  2  0  0  0  0  0  0  0  0  0
    7.9933  -15.6080   22.9849 N   0  0  0  0  0  0  0  0  0  0  0  0
    9.6726  -15.2450   24.6487 C   0  0  0  0  0  0  0  0  0  0  0  0
   10.7591  -14.6388   24.8148 O   0  0  0  0  0  0  0  0  0  0  0  0
    9.6008  -16.5633   25.1740 N   0  0  0  0  0  0  0  0  0  0  0  0
   10.6482  -17.1196   26.0163 C   0  0  1  0  0  0  0  0  0  0  0  0
    9.9853  -17.2665   27.3974 C   0  0  0  0  0  0  0  0  0  0  0  0
    9.8895  -16.0000   28.1230 C   0  0  0  0  0  0  0  0  0  0  0  0
    8.8613  -15.1238   27.8611 C   0  0  0  0  0  0  0  0  0  0  0  0
    8.7873  -13.9376   28.5532 C   0  0  0  0  0  0  0  0  0  0  0  0
    9.7172  -13.5859   29.5142 C   0  0  0  0  0  0  0  0  0  0  0  0
   10.7324  -14.4969   29.7437 C   0  0  0  0  0  0  0  0  0  0  0  0
   10.8498  -15.6905   29.0814 C   0  0  0  0  0  0  0  0  0  0  0  0
   11.1899  -18.3902   25.5459 C   0  0  0  0  0  0  0  0  0  0  0  0
   10.7386  -19.0476   24.4035 O   0  0  0  0  0  0  0  0  0  0  0  0
   12.1243  -18.9715   26.1762 O   0  0  0  0  0  0  0  0  0  0  0  0
  2  1  1  1
  3  4  1  0
  3  2  1  0
  4  9  1  0
  4  5  2  0
  5  6  1  0
  6  7  2  0
  8  7  1  0
  9  8  2  0
 10 11  2  0
 10  2  1  0
 13 12  1  1
 13 14  1  0
 13 15  1  0
 16 15  1  1
 16 17  1  0
 17 10  1  0
 18 16  1  0
 19 18  2  0
 20 18  1  0
 21 20  1  0
 21 22  1  1
 22 23  1  0
 23 28  1  0
 24 23  2  0
 24 25  1  0
 25 26  2  0
 26 27  1  0
 28 27  2  0
 29 30  1  0
 29 21  1  0
 31 29  2  0
M  END
$$$$
