FLF.pdb
     RDKit          3D

 31 32  0  0  1  0  0  0  0  0999 V2000
    5.9942  -19.5897   21.0611 N   0  0  0  0  0  0  0  0  0  0  0  0
    5.9353  -18.2861   21.6409 C   0  0  1  0  0  0  0  0  0  0  0  0
    5.5386  -18.3786   23.0778 C   0  0  0  0  0  0  0  0  0  0  0  0
    4.1070  -18.8302   23.1120 C   0  0  0  0  0  0  0  0  0  0  0  0
    3.1158  -18.1207   22.4796 C   0  0  0  0  0  0  0  0  0  0  0  0
    1.7890  -18.4977   22.4847 C   0  0  0  0  0  0  0  0  0  0  0  0
    1.4498  -19.6544   23.1669 C   0  0  0  0  0  0  0  0  0  0  0  0
    2.4202  -20.4053   23.8222 C   0  0  0  0  0  0  0  0  0  0  0  0
    3.7358  -19.9813   23.7848 C   0  0  0  0  0  0  0  0  0  0  0  0
    7.1600  -17.4851   21.4138 C   0  0  0  0  0  0  0  0  0  0  0  0
    8.2368  -18.0797   21.1315 O   0  0  0  0  0  0  0  0  0  0  0  0
    9.1226  -13.7392   18.7715 C   0  0  0  0  0  0  0  0  0  0  0  0
    7.8250  -13.5094   19.5690 C   0  0  2  0  0  0  0  0  0  0  0  0
    7.5045  -12.0488   19.3441 C   0  0  0  0  0  0  0  0  0  0  0  0
    8.1352  -13.8506   20.9783 C   0  0  0  0  0  0  0  0  0  0  0  0
    8.3934  -15.2668   21.3127 C   0  0  2  0  0  0  0  0  0  0  0  0
    7.2083  -16.0730   21.4928 N   0  0  0  0  0  0  0  0  0  0  0  0
    9.2916  -15.4131   22.4646 C   0  0  0  0  0  0  0  0  0  0  0  0
   10.4825  -15.0172   22.4866 O   0  0  0  0  0  0  0  0  0  0  0  0
    8.8134  -16.0354   23.6491 N   0  0  0  0  0  0  0  0  0  0  0  0
    9.4669  -15.8563   24.9363 C   0  0  1  0  0  0  0  0  0  0  0  0
    8.3054  -15.6551   25.9258 C   0  0  0  0  0  0  0  0  0  0  0  0
    8.7575  -15.3902   27.2915 C   0  0  0  0  0  0  0  0  0  0  0  0
    9.0903  -16.4303   28.1286 C   0  0  0  0  0  0  0  0  0  0  0  0
    9.5134  -16.1621   29.4096 C   0  0  0  0  0  0  0  0  0  0  0  0
    9.6188  -14.8720   29.8958 C   0  0  0  0  0  0  0  0  0  0  0  0
    9.2739  -13.8591   29.0194 C   0  0  0  0  0  0  0  0  0  0  0  0
    8.8473  -14.0743   27.7353 C   0  0  0  0  0  0  0  0  0  0  0  0
   10.3242  -16.9667   25.3376 C   0  0  0  0  0  0  0  0  0  0  0  0
   11.4624  -16.8186   26.1271 O   0  0  0  0  0  0  0  0  0  0  0  0
   10.0639  -18.1533   24.9735 O   0  0  0  0  0  0  0  0  0  0  0  0
  2  1  1  1
  3  4  1  0
  3  2  1  0
  4  9  1  0
  4  5  2  0
  5  6  1  0
  6  7  2  0
  8  7  1  0
  9  8  2  0
 10 11  2  0
 10  2  1  0
 13 12  1  6
 13 14  1  0
 13 15  1  0
 16 15  1  1
 16 17  1  0
 17 10  1  0
 18 16  1  0
 19 18  2  0
 20 18  1  0
 21 20  1  0
 21 22  1  1
 22 23  1  0
 23 28  1  0
 24 23  2  0
 24 25  1  0
 25 26  2  0
 26 27  1  0
 28 27  2  0
 29 30  1  0
 29 21  1  0
 31 29  2  0
M  END
$$$$
