FLF.pdb
     RDKit          3D

 31 32  0  0  1  0  0  0  0  0999 V2000
    7.6818  -17.6145   20.7003 N   0  0  0  0  0  0  0  0  0  0  0  0
    8.9130  -16.9149   20.5170 C   0  0  1  0  0  0  0  0  0  0  0  0
    8.9286  -16.2397   19.1848 C   0  0  0  0  0  0  0  0  0  0  0  0
    8.3458  -14.8694   19.3780 C   0  0  0  0  0  0  0  0  0  0  0  0
    6.9992  -14.6836   19.5730 C   0  0  0  0  0  0  0  0  0  0  0  0
    6.4208  -13.4446   19.7544 C   0  0  0  0  0  0  0  0  0  0  0  0
    7.2514  -12.3363   19.7371 C   0  0  0  0  0  0  0  0  0  0  0  0
    8.6217  -12.4762   19.5428 C   0  0  0  0  0  0  0  0  0  0  0  0
    9.1489  -13.7423   19.3660 C   0  0  0  0  0  0  0  0  0  0  0  0
    9.2515  -16.0142   21.6427 C   0  0  0  0  0  0  0  0  0  0  0  0
   10.3550  -15.4019   21.6263 O   0  0  0  0  0  0  0  0  0  0  0  0
    6.2562  -13.3597   26.3841 C   0  0  0  0  0  0  0  0  0  0  0  0
    7.6041  -13.4122   25.6405 C   0  0  2  0  0  0  0  0  0  0  0  0
    7.8108  -11.9983   25.1459 C   0  0  0  0  0  0  0  0  0  0  0  0
    7.4454  -14.4142   24.5590 C   0  0  0  0  0  0  0  0  0  0  0  0
    8.6480  -14.8198   23.8018 C   0  0  2  0  0  0  0  0  0  0  0  0
    8.4084  -15.7876   22.7564 N   0  0  0  0  0  0  0  0  0  0  0  0
    9.7335  -15.2734   24.6799 C   0  0  0  0  0  0  0  0  0  0  0  0
   10.7509  -14.5919   24.9553 O   0  0  0  0  0  0  0  0  0  0  0  0
    9.6580  -16.5608   25.2766 N   0  0  0  0  0  0  0  0  0  0  0  0
   10.7203  -17.0875   26.1191 C   0  0  1  0  0  0  0  0  0  0  0  0
   10.0669  -17.2344   27.5048 C   0  0  0  0  0  0  0  0  0  0  0  0
   10.0519  -15.9847   28.2649 C   0  0  0  0  0  0  0  0  0  0  0  0
    9.2396  -14.9439   27.8774 C   0  0  0  0  0  0  0  0  0  0  0  0
    9.2387  -13.7764   28.6044 C   0  0  0  0  0  0  0  0  0  0  0  0
   10.0321  -13.6047   29.7237 C   0  0  0  0  0  0  0  0  0  0  0  0
   10.8319  -14.6769   30.0755 C   0  0  0  0  0  0  0  0  0  0  0  0
   10.8685  -15.8597   29.3848 C   0  0  0  0  0  0  0  0  0  0  0  0
   11.2855  -18.3514   25.6584 C   0  0  0  0  0  0  0  0  0  0  0  0
   12.3501  -18.9961   26.2842 O   0  0  0  0  0  0  0  0  0  0  0  0
   10.8187  -18.9374   24.6352 O   0  0  0  0  0  0  0  0  0  0  0  0
  2  1  1  1
  3  4  1  0
  3  2  1  0
  4  9  1  0
  4  5  2  0
  5  6  1  0
  6  7  2  0
  8  7  1  0
  9  8  2  0
 10 11  2  0
 10  2  1  0
 13 12  1  1
 13 14  1  0
 13 15  1  0
 16 15  1  1
 16 17  1  0
 17 10  1  0
 18 16  1  0
 19 18  2  0
 20 18  1  0
 21 20  1  0
 21 22  1  1
 22 23  1  0
 23 28  1  0
 24 23  2  0
 24 25  1  0
 25 26  2  0
 26 27  1  0
 28 27  2  0
 29 30  1  0
 29 21  1  0
 31 29  2  0
M  END
$$$$
