FLF.pdb
     RDKit          3D

 31 32  0  0  1  0  0  0  0  0999 V2000
    7.3703  -19.3933   20.5467 N   0  0  0  0  0  0  0  0  0  0  0  0
    7.1968  -18.7250   21.7966 C   0  0  1  0  0  0  0  0  0  0  0  0
    7.2795  -19.7049   22.9207 C   0  0  0  0  0  0  0  0  0  0  0  0
    6.9769  -18.9529   24.1847 C   0  0  0  0  0  0  0  0  0  0  0  0
    7.8760  -18.9016   25.2215 C   0  0  0  0  0  0  0  0  0  0  0  0
    7.6406  -18.2238   26.3994 C   0  0  0  0  0  0  0  0  0  0  0  0
    6.4303  -17.5636   26.5329 C   0  0  0  0  0  0  0  0  0  0  0  0
    5.4890  -17.5880   25.5089 C   0  0  0  0  0  0  0  0  0  0  0  0
    5.7769  -18.2831   24.3488 C   0  0  0  0  0  0  0  0  0  0  0  0
    8.0851  -17.5522   21.9653 C   0  0  0  0  0  0  0  0  0  0  0  0
    9.3229  -17.6870   21.7586 O   0  0  0  0  0  0  0  0  0  0  0  0
    8.4299  -13.7342   19.4252 C   0  0  0  0  0  0  0  0  0  0  0  0
    7.1718  -13.9294   20.2923 C   0  0  2  0  0  0  0  0  0  0  0  0
    6.2704  -12.7793   19.9032 C   0  0  0  0  0  0  0  0  0  0  0  0
    7.6270  -13.8908   21.7030 C   0  0  0  0  0  0  0  0  0  0  0  0
    8.3929  -15.0437   22.2208 C   0  0  2  0  0  0  0  0  0  0  0  0
    7.6349  -16.2668   22.3493 N   0  0  0  0  0  0  0  0  0  0  0  0
    9.0831  -14.7351   23.4792 C   0  0  0  0  0  0  0  0  0  0  0  0
    9.2533  -13.5742   23.9252 O   0  0  0  0  0  0  0  0  0  0  0  0
    9.6015  -15.7955   24.2703 N   0  0  0  0  0  0  0  0  0  0  0  0
    9.8234  -15.6574   25.7012 C   0  0  1  0  0  0  0  0  0  0  0  0
    8.4298  -15.3390   26.2714 C   0  0  0  0  0  0  0  0  0  0  0  0
    8.1684  -13.9033   26.3733 C   0  0  0  0  0  0  0  0  0  0  0  0
    6.8811  -13.4231   26.2974 C   0  0  0  0  0  0  0  0  0  0  0  0
    6.6544  -12.0701   26.3952 C   0  0  0  0  0  0  0  0  0  0  0  0
    7.6820  -11.1614   26.5690 C   0  0  0  0  0  0  0  0  0  0  0  0
    8.9584  -11.6894   26.6397 C   0  0  0  0  0  0  0  0  0  0  0  0
    9.2360  -13.0280   26.5478 C   0  0  0  0  0  0  0  0  0  0  0  0
   10.4050  -16.8343   26.3381 C   0  0  0  0  0  0  0  0  0  0  0  0
   10.6690  -18.0260   25.6665 O   0  0  0  0  0  0  0  0  0  0  0  0
   10.7047  -16.8250   27.5704 O   0  0  0  0  0  0  0  0  0  0  0  0
  2  1  1  6
  3  4  1  0
  3  2  1  0
  4  9  1  0
  4  5  2  0
  5  6  1  0
  6  7  2  0
  8  7  1  0
  9  8  2  0
 10 11  2  0
 10  2  1  0
 13 12  1  6
 13 14  1  0
 13 15  1  0
 16 15  1  1
 16 17  1  0
 17 10  1  0
 18 16  1  0
 19 18  2  0
 20 18  1  0
 21 20  1  0
 21 22  1  1
 22 23  1  0
 23 28  1  0
 24 23  2  0
 24 25  1  0
 25 26  2  0
 26 27  1  0
 28 27  2  0
 29 30  1  0
 29 21  1  0
 31 29  2  0
M  END
$$$$
