TGI.pdb
     RDKit          3D

 20 19  0  0  1  0  0  0  0  0999 V2000
    7.7519  -17.5340   16.8622 C   0  0  0  0  0  0  0  0  0  0  0  0
    7.3326  -17.6514   18.3072 C   0  0  1  0  0  0  0  0  0  0  0  0
    6.9289  -18.9260   18.6340 O   0  0  0  0  0  0  0  0  0  0  0  0
    8.3890  -17.1303   19.2548 C   0  0  2  0  0  0  0  0  0  0  0  0
    9.5730  -17.9168   19.0687 N   0  0  0  0  0  0  0  0  0  0  0  0
    7.9615  -17.1487   20.6676 C   0  0  0  0  0  0  0  0  0  0  0  0
    8.4229  -18.0387   21.4221 O   0  0  0  0  0  0  0  0  0  0  0  0
    7.0543  -16.2219   21.2464 N   0  0  0  0  0  0  0  0  0  0  0  0
    6.7084  -16.2198   22.6320 C   0  0  0  0  0  0  0  0  0  0  0  0
    7.6960  -15.4499   23.4584 C   0  0  0  0  0  0  0  0  0  0  0  0
    8.7366  -15.0082   22.9418 O   0  0  0  0  0  0  0  0  0  0  0  0
    5.8657  -11.7125   26.2526 C   0  0  0  0  0  0  0  0  0  0  0  0
    6.8508  -12.5730   25.4629 C   0  0  0  0  0  0  0  0  0  0  0  0
    7.6105  -13.4487   26.4268 C   0  0  2  0  0  0  0  0  0  0  0  0
    8.4649  -12.5457   27.2873 C   0  0  0  0  0  0  0  0  0  0  0  0
    8.4387  -14.4578   25.6676 C   0  0  2  0  0  0  0  0  0  0  0  0
    7.4780  -15.2032   24.8396 N   0  0  0  0  0  0  0  0  0  0  0  0
    9.2270  -15.3687   26.5043 C   0  0  0  0  0  0  0  0  0  0  0  0
    8.6403  -16.3986   26.9877 O   0  0  0  0  0  0  0  0  0  0  0  0
   10.5582  -15.2446   26.8384 O   0  0  0  0  0  0  0  0  0  0  0  0
  2  1  1  6
  3  2  1  0
  4  2  1  0
  4  5  1  1
  6  7  2  0
  6  4  1  0
  8  6  1  0
  9  8  1  0
 10  9  1  0
 10 11  2  0
 12 13  1  0
 13 14  1  0
 14 16  1  0
 14 15  1  6
 16 17  1  1
 16 18  1  0
 17 10  1  0
 18 19  2  0
 18 20  1  0
M  END
$$$$
