TGI.pdb
     RDKit          3D

 20 19  0  0  1  0  0  0  0  0999 V2000
    7.6182  -18.9405   17.4263 C   0  0  0  0  0  0  0  0  0  0  0  0
    7.0654  -18.5799   18.7835 C   0  0  1  0  0  0  0  0  0  0  0  0
    6.0745  -19.4433   19.1924 O   0  0  0  0  0  0  0  0  0  0  0  0
    8.1522  -18.4300   19.8237 C   0  0  2  0  0  0  0  0  0  0  0  0
    8.8452  -19.6813   19.9190 N   0  0  0  0  0  0  0  0  0  0  0  0
    7.6392  -18.0108   21.1429 C   0  0  0  0  0  0  0  0  0  0  0  0
    7.6145  -18.8535   22.0721 O   0  0  0  0  0  0  0  0  0  0  0  0
    7.1645  -16.7067   21.4448 N   0  0  0  0  0  0  0  0  0  0  0  0
    6.5862  -16.3509   22.7011 C   0  0  0  0  0  0  0  0  0  0  0  0
    7.5657  -15.6474   23.5936 C   0  0  0  0  0  0  0  0  0  0  0  0
    8.7145  -15.3979   23.1901 O   0  0  0  0  0  0  0  0  0  0  0  0
    5.8327  -11.4874   26.0124 C   0  0  0  0  0  0  0  0  0  0  0  0
    6.6818  -12.5665   25.3424 C   0  0  0  0  0  0  0  0  0  0  0  0
    7.3168  -13.4177   26.4126 C   0  0  2  0  0  0  0  0  0  0  0  0
    8.1486  -12.5066   27.2864 C   0  0  0  0  0  0  0  0  0  0  0  0
    8.1467  -14.5101   25.7812 C   0  0  2  0  0  0  0  0  0  0  0  0
    7.2180  -15.2483   24.9111 N   0  0  0  0  0  0  0  0  0  0  0  0
    8.8073  -15.4138   26.7290 C   0  0  0  0  0  0  0  0  0  0  0  0
    8.1104  -16.3547   27.2462 O   0  0  0  0  0  0  0  0  0  0  0  0
   10.1227  -15.3693   27.1373 O   0  0  0  0  0  0  0  0  0  0  0  0
  2  1  1  6
  3  2  1  0
  4  2  1  0
  4  5  1  1
  6  7  2  0
  6  4  1  0
  8  6  1  0
  9  8  1  0
 10  9  1  0
 10 11  2  0
 12 13  1  0
 13 14  1  0
 14 16  1  0
 14 15  1  1
 16 17  1  6
 16 18  1  0
 17 10  1  0
 18 19  2  0
 18 20  1  0
M  END
$$$$
