TGI.pdb
     RDKit          3D

 20 19  0  0  1  0  0  0  0  0999 V2000
    7.7484  -12.6305   19.0182 C   0  0  0  0  0  0  0  0  0  0  0  0
    7.7567  -13.7590   18.0162 C   0  0  1  0  0  0  0  0  0  0  0  0
    8.2264  -13.3631   16.7845 O   0  0  0  0  0  0  0  0  0  0  0  0
    8.4819  -14.9802   18.5343 C   0  0  2  0  0  0  0  0  0  0  0  0
    8.4873  -15.9636   17.4913 N   0  0  0  0  0  0  0  0  0  0  0  0
    7.8882  -15.5270   19.7703 C   0  0  0  0  0  0  0  0  0  0  0  0
    7.3344  -16.6519   19.7228 O   0  0  0  0  0  0  0  0  0  0  0  0
    7.8962  -14.8669   21.0278 N   0  0  0  0  0  0  0  0  0  0  0  0
    7.2707  -15.3950   22.1979 C   0  0  0  0  0  0  0  0  0  0  0  0
    8.0758  -15.1302   23.4359 C   0  0  0  0  0  0  0  0  0  0  0  0
    9.3062  -14.9710   23.3615 O   0  0  0  0  0  0  0  0  0  0  0  0
    6.0345  -11.5422   26.2243 C   0  0  0  0  0  0  0  0  0  0  0  0
    6.9386  -12.5708   25.5467 C   0  0  0  0  0  0  0  0  0  0  0  0
    7.3739  -13.5849   26.5739 C   0  0  2  0  0  0  0  0  0  0  0  0
    8.1348  -12.8455   27.6509 C   0  0  0  0  0  0  0  0  0  0  0  0
    8.2140  -14.6563   25.9204 C   0  0  2  0  0  0  0  0  0  0  0  0
    7.4675  -15.0536   24.7166 N   0  0  0  0  0  0  0  0  0  0  0  0
    8.5031  -15.8197   26.7656 C   0  0  0  0  0  0  0  0  0  0  0  0
    7.6226  -16.7464   26.8325 O   0  0  0  0  0  0  0  0  0  0  0  0
    9.6396  -16.0390   27.5135 O   0  0  0  0  0  0  0  0  0  0  0  0
  2  1  1  1
  3  2  1  0
  4  2  1  0
  4  5  1  6
  6  7  2  0
  6  4  1  0
  8  6  1  0
  9  8  1  0
 10  9  1  0
 10 11  2  0
 12 13  1  0
 13 14  1  0
 14 16  1  0
 14 15  1  1
 16 17  1  6
 16 18  1  0
 17 10  1  0
 18 19  2  0
 18 20  1  0
M  END
$$$$
