TGI.pdb
     RDKit          3D

 20 19  0  0  1  0  0  0  0  0999 V2000
   10.0899  -14.5375   17.2020 C   0  0  0  0  0  0  0  0  0  0  0  0
    9.5712  -14.6271   18.6164 C   0  0  1  0  0  0  0  0  0  0  0  0
   10.4003  -14.0014   19.5195 O   0  0  0  0  0  0  0  0  0  0  0  0
    8.1414  -14.1503   18.7340 C   0  0  2  0  0  0  0  0  0  0  0  0
    8.0894  -12.7967   18.2647 N   0  0  0  0  0  0  0  0  0  0  0  0
    7.6063  -14.2526   20.1060 C   0  0  0  0  0  0  0  0  0  0  0  0
    7.5892  -13.2219   20.8213 O   0  0  0  0  0  0  0  0  0  0  0  0
    7.1019  -15.4466   20.6864 N   0  0  0  0  0  0  0  0  0  0  0  0
    6.5366  -15.5071   21.9965 C   0  0  0  0  0  0  0  0  0  0  0  0
    7.5286  -15.1283   23.0565 C   0  0  0  0  0  0  0  0  0  0  0  0
    8.7482  -15.2103   22.8319 O   0  0  0  0  0  0  0  0  0  0  0  0
    5.6803  -11.6168   26.6030 C   0  0  0  0  0  0  0  0  0  0  0  0
    6.5601  -12.3842   25.6172 C   0  0  0  0  0  0  0  0  0  0  0  0
    7.2989  -13.4643   26.3661 C   0  0  2  0  0  0  0  0  0  0  0  0
    8.2058  -12.7862   27.3678 C   0  0  0  0  0  0  0  0  0  0  0  0
    8.0702  -14.3305   25.3988 C   0  0  2  0  0  0  0  0  0  0  0  0
    7.1130  -14.6697   24.3344 N   0  0  0  0  0  0  0  0  0  0  0  0
    8.6563  -15.5418   25.9823 C   0  0  0  0  0  0  0  0  0  0  0  0
    7.9188  -16.5847   26.0662 O   0  0  0  0  0  0  0  0  0  0  0  0
    9.9395  -15.6940   26.4611 O   0  0  0  0  0  0  0  0  0  0  0  0
  2  1  1  6
  3  2  1  0
  4  2  1  0
  4  5  1  1
  6  7  2  0
  6  4  1  0
  8  6  1  0
  9  8  1  0
 10  9  1  0
 10 11  2  0
 12 13  1  0
 13 14  1  0
 14 16  1  0
 14 15  1  1
 16 17  1  6
 16 18  1  0
 17 10  1  0
 18 19  2  0
 18 20  1  0
M  END
$$$$
