TGI.pdb
     RDKit          3D

 20 19  0  0  1  0  0  0  0  0999 V2000
    7.9445  -12.9587   17.0278 C   0  0  0  0  0  0  0  0  0  0  0  0
    7.4611  -13.6140   18.2984 C   0  0  1  0  0  0  0  0  0  0  0  0
    6.6339  -14.6864   18.0535 O   0  0  0  0  0  0  0  0  0  0  0  0
    8.5990  -13.9753   19.2259 C   0  0  2  0  0  0  0  0  0  0  0  0
    9.3443  -15.0364   18.6146 N   0  0  0  0  0  0  0  0  0  0  0  0
    8.1465  -14.3605   20.5772 C   0  0  0  0  0  0  0  0  0  0  0  0
    7.7514  -13.4601   21.3566 O   0  0  0  0  0  0  0  0  0  0  0  0
    8.1240  -15.6925   21.0695 N   0  0  0  0  0  0  0  0  0  0  0  0
    7.5706  -16.0545   22.3352 C   0  0  0  0  0  0  0  0  0  0  0  0
    8.3109  -15.4212   23.4761 C   0  0  0  0  0  0  0  0  0  0  0  0
    9.5394  -15.2460   23.4062 O   0  0  0  0  0  0  0  0  0  0  0  0
    5.7975  -12.0562   27.2260 C   0  0  0  0  0  0  0  0  0  0  0  0
    6.2778  -13.3172   26.5092 C   0  0  0  0  0  0  0  0  0  0  0  0
    7.7127  -13.1200   26.0905 C   0  0  2  0  0  0  0  0  0  0  0  0
    7.7132  -12.2293   24.8689 C   0  0  0  0  0  0  0  0  0  0  0  0
    8.3611  -14.4563   25.8177 C   0  0  2  0  0  0  0  0  0  0  0  0
    7.6422  -15.0063   24.6580 N   0  0  0  0  0  0  0  0  0  0  0  0
    8.3394  -15.3976   26.9424 C   0  0  0  0  0  0  0  0  0  0  0  0
    9.0279  -15.1067   27.9816 O   0  0  0  0  0  0  0  0  0  0  0  0
    7.6467  -16.5867   27.0149 O   0  0  0  0  0  0  0  0  0  0  0  0
  2  1  1  6
  3  2  1  0
  4  2  1  0
  4  5  1  6
  6  7  2  0
  6  4  1  0
  8  6  1  0
  9  8  1  0
 10  9  1  0
 10 11  2  0
 12 13  1  0
 13 14  1  0
 14 16  1  0
 14 15  1  6
 16 17  1  6
 16 18  1  0
 17 10  1  0
 18 19  2  0
 18 20  1  0
M  END
$$$$
