TGI.pdb
     RDKit          3D

 20 19  0  0  1  0  0  0  0  0999 V2000
    7.9556  -20.0153   17.9565 C   0  0  0  0  0  0  0  0  0  0  0  0
    7.2069  -19.0336   18.8244 C   0  0  1  0  0  0  0  0  0  0  0  0
    5.9486  -19.4814   19.1572 O   0  0  0  0  0  0  0  0  0  0  0  0
    8.0029  -18.6215   20.0419 C   0  0  2  0  0  0  0  0  0  0  0  0
    7.9213  -19.6841   21.0007 N   0  0  0  0  0  0  0  0  0  0  0  0
    7.5468  -17.3463   20.6293 C   0  0  0  0  0  0  0  0  0  0  0  0
    7.7763  -16.2825   20.0049 O   0  0  0  0  0  0  0  0  0  0  0  0
    6.8577  -17.2303   21.8657 N   0  0  0  0  0  0  0  0  0  0  0  0
    6.4399  -15.9822   22.4198 C   0  0  0  0  0  0  0  0  0  0  0  0
    7.4879  -15.3812   23.3093 C   0  0  0  0  0  0  0  0  0  0  0  0
    8.6110  -15.1027   22.8554 O   0  0  0  0  0  0  0  0  0  0  0  0
    5.9419  -11.5231   26.3167 C   0  0  0  0  0  0  0  0  0  0  0  0
    6.8088  -12.4533   25.4695 C   0  0  0  0  0  0  0  0  0  0  0  0
    7.4552  -13.4713   26.3744 C   0  0  2  0  0  0  0  0  0  0  0  0
    8.3422  -12.7226   27.3431 C   0  0  0  0  0  0  0  0  0  0  0  0
    8.2313  -14.4745   25.5547 C   0  0  2  0  0  0  0  0  0  0  0  0
    7.2355  -15.1140   24.6808 N   0  0  0  0  0  0  0  0  0  0  0  0
    8.9658  -15.4769   26.3338 C   0  0  0  0  0  0  0  0  0  0  0  0
   10.1726  -15.2112   26.6676 O   0  0  0  0  0  0  0  0  0  0  0  0
    8.4978  -16.7007   26.7608 O   0  0  0  0  0  0  0  0  0  0  0  0
  2  1  1  1
  3  2  1  0
  4  2  1  0
  4  5  1  1
  6  7  2  0
  6  4  1  0
  8  6  1  0
  9  8  1  0
 10  9  1  0
 10 11  2  0
 12 13  1  0
 13 14  1  0
 14 16  1  0
 14 15  1  1
 16 17  1  6
 16 18  1  0
 17 10  1  0
 18 19  2  0
 18 20  1  0
M  END
$$$$
