TGI.pdb
     RDKit          3D

 20 19  0  0  1  0  0  0  0  0999 V2000
    6.5344  -12.4062   19.0798 C   0  0  0  0  0  0  0  0  0  0  0  0
    7.2746  -13.4685   19.8551 C   0  0  1  0  0  0  0  0  0  0  0  0
    6.7165  -14.7168   19.6981 O   0  0  0  0  0  0  0  0  0  0  0  0
    8.7567  -13.4679   19.5566 C   0  0  2  0  0  0  0  0  0  0  0  0
    8.9208  -13.6517   18.1444 N   0  0  0  0  0  0  0  0  0  0  0  0
    9.5011  -14.4954   20.3111 C   0  0  0  0  0  0  0  0  0  0  0  0
   10.2075  -15.3133   19.6736 O   0  0  0  0  0  0  0  0  0  0  0  0
    9.4784  -14.6306   21.7247 N   0  0  0  0  0  0  0  0  0  0  0  0
   10.2265  -15.6197   22.4329 C   0  0  0  0  0  0  0  0  0  0  0  0
    9.9207  -15.6132   23.9017 C   0  0  0  0  0  0  0  0  0  0  0  0
   10.5899  -16.3091   24.6845 O   0  0  0  0  0  0  0  0  0  0  0  0
    6.4151  -11.6882   25.3578 C   0  0  0  0  0  0  0  0  0  0  0  0
    7.6691  -12.5595   25.3052 C   0  0  0  0  0  0  0  0  0  0  0  0
    7.3865  -13.8591   26.0154 C   0  0  2  0  0  0  0  0  0  0  0  0
    7.0856  -13.5332   27.4606 C   0  0  0  0  0  0  0  0  0  0  0  0
    8.5666  -14.7915   25.8785 C   0  0  2  0  0  0  0  0  0  0  0  0
    8.8708  -14.8229   24.4395 N   0  0  0  0  0  0  0  0  0  0  0  0
    8.3507  -16.1460   26.3983 C   0  0  0  0  0  0  0  0  0  0  0  0
    8.8001  -16.4196   27.5652 O   0  0  0  0  0  0  0  0  0  0  0  0
    7.7036  -17.1840   25.7635 O   0  0  0  0  0  0  0  0  0  0  0  0
  2  1  1  6
  3  2  1  0
  4  2  1  0
  4  5  1  6
  6  7  2  0
  6  4  1  0
  8  6  1  0
  9  8  1  0
 10  9  1  0
 10 11  2  0
 12 13  1  0
 13 14  1  0
 14 16  1  0
 14 15  1  1
 16 17  1  6
 16 18  1  0
 17 10  1  0
 18 19  2  0
 18 20  1  0
M  END
$$$$
