TGI.pdb
     RDKit          3D

 20 19  0  0  1  0  0  0  0  0999 V2000
    7.7747  -12.6528   18.7367 C   0  0  0  0  0  0  0  0  0  0  0  0
    7.8780  -14.0800   18.2570 C   0  0  1  0  0  0  0  0  0  0  0  0
    8.4110  -14.1704   16.9912 O   0  0  0  0  0  0  0  0  0  0  0  0
    8.6053  -14.9651   19.2435 C   0  0  2  0  0  0  0  0  0  0  0  0
    8.6100  -16.2986   18.7174 N   0  0  0  0  0  0  0  0  0  0  0  0
    8.0143  -14.9349   20.5959 C   0  0  0  0  0  0  0  0  0  0  0  0
    8.0585  -13.8626   21.2459 O   0  0  0  0  0  0  0  0  0  0  0  0
    7.3900  -16.0438   21.2266 N   0  0  0  0  0  0  0  0  0  0  0  0
    6.7390  -15.9638   22.4951 C   0  0  0  0  0  0  0  0  0  0  0  0
    7.6887  -15.5856   23.5933 C   0  0  0  0  0  0  0  0  0  0  0  0
    8.9139  -15.7253   23.4384 O   0  0  0  0  0  0  0  0  0  0  0  0
    5.8186  -11.5824   26.3818 C   0  0  0  0  0  0  0  0  0  0  0  0
    6.6943  -12.5703   25.6126 C   0  0  0  0  0  0  0  0  0  0  0  0
    7.3663  -13.4920   26.5985 C   0  0  2  0  0  0  0  0  0  0  0  0
    8.2579  -12.6463   27.4790 C   0  0  0  0  0  0  0  0  0  0  0  0
    8.1428  -14.5589   25.8641 C   0  0  2  0  0  0  0  0  0  0  0  0
    7.2260  -15.0625   24.8296 N   0  0  0  0  0  0  0  0  0  0  0  0
    8.6381  -15.6547   26.7038 C   0  0  0  0  0  0  0  0  0  0  0  0
    7.8467  -16.6318   26.9436 O   0  0  0  0  0  0  0  0  0  0  0  0
    9.8864  -15.7600   27.2780 O   0  0  0  0  0  0  0  0  0  0  0  0
  2  1  1  1
  3  2  1  0
  4  2  1  0
  4  5  1  6
  6  7  2  0
  6  4  1  0
  8  6  1  0
  9  8  1  0
 10  9  1  0
 10 11  2  0
 12 13  1  0
 13 14  1  0
 14 16  1  0
 14 15  1  6
 16 17  1  6
 16 18  1  0
 17 10  1  0
 18 19  2  0
 18 20  1  0
M  END
$$$$
