TGI.pdb
     RDKit          3D

 20 19  0  0  1  0  0  0  0  0999 V2000
    5.0378  -21.3264   22.5206 C   0  0  0  0  0  0  0  0  0  0  0  0
    5.7062  -20.1187   21.9105 C   0  0  1  0  0  0  0  0  0  0  0  0
    4.9220  -19.5117   20.9561 O   0  0  0  0  0  0  0  0  0  0  0  0
    6.1863  -19.1393   22.9572 C   0  0  2  0  0  0  0  0  0  0  0  0
    5.0426  -18.6877   23.6942 N   0  0  0  0  0  0  0  0  0  0  0  0
    6.9292  -17.9981   22.3871 C   0  0  0  0  0  0  0  0  0  0  0  0
    8.0861  -18.1969   21.9440 O   0  0  0  0  0  0  0  0  0  0  0  0
    6.4264  -16.6727   22.3004 N   0  0  0  0  0  0  0  0  0  0  0  0
    7.2049  -15.5636   21.8495 C   0  0  0  0  0  0  0  0  0  0  0  0
    7.9552  -14.9082   22.9713 C   0  0  0  0  0  0  0  0  0  0  0  0
    8.8906  -14.1269   22.7278 O   0  0  0  0  0  0  0  0  0  0  0  0
    5.4683  -12.2371   26.2139 C   0  0  0  0  0  0  0  0  0  0  0  0
    6.5991  -12.8547   25.3927 C   0  0  0  0  0  0  0  0  0  0  0  0
    7.3646  -13.8152   26.2671 C   0  0  2  0  0  0  0  0  0  0  0  0
    8.0083  -13.0109   27.3737 C   0  0  0  0  0  0  0  0  0  0  0  0
    8.3850  -14.5646   25.4439 C   0  0  2  0  0  0  0  0  0  0  0  0
    7.6264  -15.1552   24.3303 N   0  0  0  0  0  0  0  0  0  0  0  0
    9.1343  -15.5942   26.1719 C   0  0  0  0  0  0  0  0  0  0  0  0
    8.5638  -16.7224   26.3725 O   0  0  0  0  0  0  0  0  0  0  0  0
   10.4123  -15.4882   26.6764 O   0  0  0  0  0  0  0  0  0  0  0  0
  2  1  1  1
  3  2  1  0
  4  2  1  0
  4  5  1  6
  6  7  2  0
  6  4  1  0
  8  6  1  0
  9  8  1  0
 10  9  1  0
 10 11  2  0
 12 13  1  0
 13 14  1  0
 14 16  1  0
 14 15  1  1
 16 17  1  6
 16 18  1  0
 17 10  1  0
 18 19  2  0
 18 20  1  0
M  END
$$$$
