TGI.pdb
     RDKit          3D

 20 19  0  0  1  0  0  0  0  0999 V2000
    5.8381  -17.7426   24.3707 C   0  0  0  0  0  0  0  0  0  0  0  0
    6.0936  -18.7079   23.2391 C   0  0  1  0  0  0  0  0  0  0  0  0
    5.2997  -19.8295   23.3174 O   0  0  0  0  0  0  0  0  0  0  0  0
    6.0021  -18.0413   21.8853 C   0  0  2  0  0  0  0  0  0  0  0  0
    5.9845  -19.0714   20.8884 N   0  0  0  0  0  0  0  0  0  0  0  0
    7.0977  -17.0845   21.6341 C   0  0  0  0  0  0  0  0  0  0  0  0
    8.2470  -17.5346   21.4083 O   0  0  0  0  0  0  0  0  0  0  0  0
    6.9478  -15.6722   21.6283 N   0  0  0  0  0  0  0  0  0  0  0  0
    8.0432  -14.7649   21.5006 C   0  0  0  0  0  0  0  0  0  0  0  0
    8.5994  -14.3614   22.8343 C   0  0  0  0  0  0  0  0  0  0  0  0
    9.6155  -13.6486   22.9002 O   0  0  0  0  0  0  0  0  0  0  0  0
    5.7533  -11.8880   25.9069 C   0  0  0  0  0  0  0  0  0  0  0  0
    6.9629  -12.5292   25.2284 C   0  0  0  0  0  0  0  0  0  0  0  0
    7.4417  -13.6795   26.0774 C   0  0  2  0  0  0  0  0  0  0  0  0
    7.9016  -13.1097   27.4001 C   0  0  0  0  0  0  0  0  0  0  0  0
    8.5467  -14.4236   25.3661 C   0  0  2  0  0  0  0  0  0  0  0  0
    7.9922  -14.7746   24.0494 N   0  0  0  0  0  0  0  0  0  0  0  0
    9.0393  -15.6168   26.0624 C   0  0  0  0  0  0  0  0  0  0  0  0
    8.3801  -16.7057   25.9267 O   0  0  0  0  0  0  0  0  0  0  0  0
   10.1567  -15.7067   26.8639 O   0  0  0  0  0  0  0  0  0  0  0  0
  2  1  1  1
  3  2  1  0
  4  2  1  0
  4  5  1  6
  6  7  2  0
  6  4  1  0
  8  6  1  0
  9  8  1  0
 10  9  1  0
 10 11  2  0
 12 13  1  0
 13 14  1  0
 14 16  1  0
 14 15  1  1
 16 17  1  6
 16 18  1  0
 17 10  1  0
 18 19  2  0
 18 20  1  0
M  END
$$$$
