TGI.pdb
     RDKit          3D

 20 19  0  0  1  0  0  0  0  0999 V2000
    9.5868  -19.0116   17.2727 C   0  0  0  0  0  0  0  0  0  0  0  0
    8.6499  -18.7084   18.4164 C   0  0  1  0  0  0  0  0  0  0  0  0
    7.6038  -19.6000   18.4876 O   0  0  0  0  0  0  0  0  0  0  0  0
    9.3777  -18.5811   19.7353 C   0  0  2  0  0  0  0  0  0  0  0  0
    9.9717  -19.8512   20.0341 N   0  0  0  0  0  0  0  0  0  0  0  0
    8.5049  -18.1356   20.8393 C   0  0  0  0  0  0  0  0  0  0  0  0
    7.3717  -18.6613   20.9574 O   0  0  0  0  0  0  0  0  0  0  0  0
    8.8554  -17.1425   21.7922 N   0  0  0  0  0  0  0  0  0  0  0  0
    7.9617  -16.6688   22.8003 C   0  0  0  0  0  0  0  0  0  0  0  0
    8.6253  -15.6964   23.7303 C   0  0  0  0  0  0  0  0  0  0  0  0
    9.8305  -15.4236   23.5966 O   0  0  0  0  0  0  0  0  0  0  0  0
    5.7249  -11.9071   26.8059 C   0  0  0  0  0  0  0  0  0  0  0  0
    6.3592  -13.2176   26.3425 C   0  0  0  0  0  0  0  0  0  0  0  0
    7.7250  -12.9216   25.7766 C   0  0  2  0  0  0  0  0  0  0  0  0
    7.5303  -12.3485   24.3912 C   0  0  0  0  0  0  0  0  0  0  0  0
    8.5615  -14.1787   25.7574 C   0  0  2  0  0  0  0  0  0  0  0  0
    7.9087  -15.0637   24.7802 N   0  0  0  0  0  0  0  0  0  0  0  0
    8.7066  -14.8472   27.0549 C   0  0  0  0  0  0  0  0  0  0  0  0
    7.9754  -15.8720   27.2870 O   0  0  0  0  0  0  0  0  0  0  0  0
    9.5595  -14.4946   28.0782 O   0  0  0  0  0  0  0  0  0  0  0  0
  2  1  1  6
  3  2  1  0
  4  2  1  0
  4  5  1  1
  6  7  2  0
  6  4  1  0
  8  6  1  0
  9  8  1  0
 10  9  1  0
 10 11  2  0
 12 13  1  0
 13 14  1  0
 14 16  1  0
 14 15  1  6
 16 17  1  6
 16 18  1  0
 17 10  1  0
 18 19  2  0
 18 20  1  0
M  END
$$$$
