SPH.pdb
     RDKit          3D

 24 25  0  0  1  0  0  0  0  0999 V2000
    7.1842  -17.4359   17.6257 O   0  0  0  0  0  0  0  0  0  0  0  0
    8.0472  -17.3562   16.5349 C   0  0  0  0  0  0  0  0  0  0  0  0
    8.5758  -15.9161   16.4033 C   0  0  2  0  0  0  0  0  0  0  0  0
    9.4542  -15.9174   15.2867 N   0  0  0  0  0  0  0  0  0  0  0  0
    9.1095  -15.5191   17.6898 C   0  0  0  0  0  0  0  0  0  0  0  0
   10.0876  -16.1634   18.1469 O   0  0  0  0  0  0  0  0  0  0  0  0
    8.6256  -14.4302   18.5285 N   0  0  0  0  0  0  0  0  0  0  0  0
    7.4980  -13.5972   18.2582 C   0  0  0  0  0  0  0  0  0  0  0  0
    7.0521  -13.0783   19.5932 C   0  0  0  0  0  0  0  0  0  0  0  0
    8.4154  -12.8916   20.2799 C   0  0  0  0  0  0  0  0  0  0  0  0
    9.2328  -14.0359   19.7685 C   0  0  1  0  0  0  0  0  0  0  0  0
    9.3037  -15.1506   20.7486 C   0  0  0  0  0  0  0  0  0  0  0  0
    8.2601  -15.8092   20.9720 O   0  0  0  0  0  0  0  0  0  0  0  0
   10.4778  -15.5156   21.4467 N   0  0  0  0  0  0  0  0  0  0  0  0
   10.5600  -16.6124   22.3852 C   0  0  1  0  0  0  0  0  0  0  0  0
   11.7358  -17.5211   22.0908 C   0  0  0  0  0  0  0  0  0  0  0  0
   11.5495  -18.3006   20.8451 C   0  0  0  0  0  0  0  0  0  0  0  0
   10.4132  -18.8729   20.3123 C   0  0  0  0  0  0  0  0  0  0  0  0
   10.7071  -19.4860   19.1647 N   0  0  0  0  0  0  0  0  0  0  0  0
   12.0287  -19.3146   18.9496 C   0  0  0  0  0  0  0  0  0  0  0  0
   12.5404  -18.5872   19.9829 N   0  0  0  0  0  0  0  0  0  0  0  0
   10.7849  -16.0449   23.7366 C   0  0  0  0  0  0  0  0  0  0  0  0
   10.8106  -16.8495   24.8751 O   0  0  0  0  0  0  0  0  0  0  0  0
   10.9555  -14.8111   23.8518 O   0  0  0  0  0  0  0  0  0  0  0  0
  1  2  1  0
  2  3  1  0
  3  5  1  0
  3  4  1  6
  5  6  2  0
  7 11  1  0
  7  5  1  0
  8  7  1  0
  9  8  1  0
  9 10  1  0
 10 11  1  0
 11 12  1  1
 12 14  1  0
 12 13  2  0
 14 15  1  0
 15 22  1  0
 15 16  1  6
 17 18  2  0
 17 16  1  0
 19 18  1  0
 20 21  2  0
 20 19  1  0
 21 17  1  0
 22 24  2  0
 22 23  1  0
M  END
$$$$
