SPH.pdb
     RDKit          3D

 24 25  0  0  1  0  0  0  0  0999 V2000
    6.8549  -16.9631   19.5398 O   0  0  0  0  0  0  0  0  0  0  0  0
    7.4550  -16.8355   20.7906 C   0  0  0  0  0  0  0  0  0  0  0  0
    8.1978  -15.4890   20.8681 C   0  0  2  0  0  0  0  0  0  0  0  0
    9.0700  -15.4530   19.7472 N   0  0  0  0  0  0  0  0  0  0  0  0
    8.7811  -15.3784   22.1892 C   0  0  0  0  0  0  0  0  0  0  0  0
    9.8639  -15.9788   22.4081 O   0  0  0  0  0  0  0  0  0  0  0  0
    8.2373  -14.6301   23.3151 N   0  0  0  0  0  0  0  0  0  0  0  0
    7.1388  -13.7193   23.2682 C   0  0  0  0  0  0  0  0  0  0  0  0
    6.5907  -13.6779   24.6639 C   0  0  0  0  0  0  0  0  0  0  0  0
    7.8960  -13.7829   25.4703 C   0  0  0  0  0  0  0  0  0  0  0  0
    8.7459  -14.7067   24.6556 C   0  0  1  0  0  0  0  0  0  0  0  0
    8.7332  -16.0924   25.1921 C   0  0  0  0  0  0  0  0  0  0  0  0
    8.1179  -16.9722   24.5439 O   0  0  0  0  0  0  0  0  0  0  0  0
    9.3735  -16.4815   26.3912 N   0  0  0  0  0  0  0  0  0  0  0  0
   10.2110  -17.6525   26.5248 C   0  0  1  0  0  0  0  0  0  0  0  0
   11.4075  -17.6004   25.5972 C   0  0  0  0  0  0  0  0  0  0  0  0
   11.2357  -18.4614   24.4043 C   0  0  0  0  0  0  0  0  0  0  0  0
   10.2174  -19.3297   24.0698 C   0  0  0  0  0  0  0  0  0  0  0  0
   10.4753  -19.9027   22.8932 N   0  0  0  0  0  0  0  0  0  0  0  0
   11.6561  -19.4109   22.4620 C   0  0  0  0  0  0  0  0  0  0  0  0
   12.1180  -18.5277   23.3922 N   0  0  0  0  0  0  0  0  0  0  0  0
   10.7426  -17.6816   27.9087 C   0  0  0  0  0  0  0  0  0  0  0  0
   10.6132  -16.5906   28.7674 O   0  0  0  0  0  0  0  0  0  0  0  0
   11.3215  -18.7151   28.3108 O   0  0  0  0  0  0  0  0  0  0  0  0
  1  2  1  0
  2  3  1  0
  3  5  1  0
  3  4  1  6
  5  6  2  0
  7 11  1  0
  7  5  1  0
  8  7  1  0
  9  8  1  0
  9 10  1  0
 10 11  1  0
 11 12  1  1
 12 14  1  0
 12 13  2  0
 14 15  1  0
 15 22  1  0
 15 16  1  6
 17 18  2  0
 17 16  1  0
 19 18  1  0
 20 21  2  0
 20 19  1  0
 21 17  1  0
 22 24  2  0
 22 23  1  0
M  END
$$$$
