SPH.pdb
     RDKit          3D

 24 25  0  0  1  0  0  0  0  0999 V2000
    7.1772  -17.7733   18.7424 O   0  0  0  0  0  0  0  0  0  0  0  0
    7.9365  -17.8013   17.5746 C   0  0  0  0  0  0  0  0  0  0  0  0
    8.4205  -16.3776   17.2433 C   0  0  2  0  0  0  0  0  0  0  0  0
    9.2197  -16.4933   16.0744 N   0  0  0  0  0  0  0  0  0  0  0  0
    9.0320  -15.8273   18.4352 C   0  0  0  0  0  0  0  0  0  0  0  0
   10.0668  -16.3865   18.8793 O   0  0  0  0  0  0  0  0  0  0  0  0
    8.5680  -14.6707   19.1905 N   0  0  0  0  0  0  0  0  0  0  0  0
    7.4674  -13.8284   18.8477 C   0  0  0  0  0  0  0  0  0  0  0  0
    7.0194  -13.2072   20.1375 C   0  0  0  0  0  0  0  0  0  0  0  0
    8.3786  -13.0103   20.8294 C   0  0  0  0  0  0  0  0  0  0  0  0
    9.1704  -14.2086   20.4092 C   0  0  1  0  0  0  0  0  0  0  0  0
    9.1980  -15.2548   21.4641 C   0  0  0  0  0  0  0  0  0  0  0  0
    8.2961  -16.1262   21.4570 O   0  0  0  0  0  0  0  0  0  0  0  0
   10.1807  -15.3289   22.4780 N   0  0  0  0  0  0  0  0  0  0  0  0
   10.5348  -16.5408   23.1826 C   0  0  1  0  0  0  0  0  0  0  0  0
   11.2517  -17.5277   22.2843 C   0  0  0  0  0  0  0  0  0  0  0  0
   11.6389  -18.7654   22.9999 C   0  0  0  0  0  0  0  0  0  0  0  0
   11.2822  -19.2206   24.2522 C   0  0  0  0  0  0  0  0  0  0  0  0
   11.8690  -20.3937   24.4947 N   0  0  0  0  0  0  0  0  0  0  0  0
   12.6048  -20.7026   23.4061 C   0  0  0  0  0  0  0  0  0  0  0  0
   12.4602  -19.7010   22.4925 N   0  0  0  0  0  0  0  0  0  0  0  0
   11.4809  -16.1824   24.2665 C   0  0  0  0  0  0  0  0  0  0  0  0
   11.4067  -16.7698   25.5290 O   0  0  0  0  0  0  0  0  0  0  0  0
   12.3669  -15.3298   24.0363 O   0  0  0  0  0  0  0  0  0  0  0  0
  1  2  1  0
  2  3  1  0
  3  5  1  0
  3  4  1  6
  5  6  2  0
  7 11  1  0
  7  5  1  0
  8  7  1  0
  9  8  1  0
  9 10  1  0
 10 11  1  0
 11 12  1  1
 12 14  1  0
 12 13  2  0
 14 15  1  0
 15 22  1  0
 15 16  1  6
 17 18  2  0
 17 16  1  0
 19 18  1  0
 20 21  2  0
 20 19  1  0
 21 17  1  0
 22 24  2  0
 22 23  1  0
M  END
$$$$
