SPH.pdb
     RDKit          3D

 24 25  0  0  1  0  0  0  0  0999 V2000
   10.8817  -14.5727   17.8146 O   0  0  0  0  0  0  0  0  0  0  0  0
   10.4546  -13.9430   18.9816 C   0  0  0  0  0  0  0  0  0  0  0  0
    8.9256  -13.7664   18.9390 C   0  0  2  0  0  0  0  0  0  0  0  0
    8.6933  -12.4246   18.5340 N   0  0  0  0  0  0  0  0  0  0  0  0
    8.3928  -14.1948   20.2157 C   0  0  0  0  0  0  0  0  0  0  0  0
    8.5403  -13.4305   21.2030 O   0  0  0  0  0  0  0  0  0  0  0  0
    7.6887  -15.4420   20.4847 N   0  0  0  0  0  0  0  0  0  0  0  0
    7.4057  -16.4701   19.5354 C   0  0  0  0  0  0  0  0  0  0  0  0
    7.2363  -17.7248   20.3399 C   0  0  0  0  0  0  0  0  0  0  0  0
    6.5337  -17.1557   21.5839 C   0  0  0  0  0  0  0  0  0  0  0  0
    7.1693  -15.8139   21.7707 C   0  0  1  0  0  0  0  0  0  0  0  0
    8.2170  -15.8365   22.8242 C   0  0  0  0  0  0  0  0  0  0  0  0
    9.3582  -16.2545   22.5147 O   0  0  0  0  0  0  0  0  0  0  0  0
    8.0066  -15.4149   24.1572 N   0  0  0  0  0  0  0  0  0  0  0  0
    9.0189  -15.4399   25.1892 C   0  0  1  0  0  0  0  0  0  0  0  0
    9.1064  -14.1198   25.9271 C   0  0  0  0  0  0  0  0  0  0  0  0
    7.7732  -13.5837   26.2864 C   0  0  0  0  0  0  0  0  0  0  0  0
    6.5119  -14.0339   25.9560 C   0  0  0  0  0  0  0  0  0  0  0  0
    5.5879  -13.2407   26.5003 N   0  0  0  0  0  0  0  0  0  0  0  0
    6.2430  -12.2775   27.1825 C   0  0  0  0  0  0  0  0  0  0  0  0
    7.5825  -12.4925   27.0481 N   0  0  0  0  0  0  0  0  0  0  0  0
    8.6312  -16.4645   26.1885 C   0  0  0  0  0  0  0  0  0  0  0  0
    7.4284  -17.1635   26.0935 O   0  0  0  0  0  0  0  0  0  0  0  0
    9.4077  -16.7036   27.1396 O   0  0  0  0  0  0  0  0  0  0  0  0
  1  2  1  0
  2  3  1  0
  3  5  1  0
  3  4  1  1
  5  6  2  0
  7 11  1  0
  7  5  1  0
  8  7  1  0
  9  8  1  0
  9 10  1  0
 10 11  1  0
 11 12  1  1
 12 14  1  0
 12 13  2  0
 14 15  1  0
 15 22  1  0
 15 16  1  1
 17 18  2  0
 17 16  1  0
 19 18  1  0
 20 21  2  0
 20 19  1  0
 21 17  1  0
 22 24  2  0
 22 23  1  0
M  END
$$$$
