SPH.pdb
     RDKit          3D

 24 25  0  0  1  0  0  0  0  0999 V2000
    6.9782  -16.4067   21.4035 O   0  0  0  0  0  0  0  0  0  0  0  0
    6.8095  -15.7557   22.6236 C   0  0  0  0  0  0  0  0  0  0  0  0
    7.4247  -14.3465   22.5424 C   0  0  2  0  0  0  0  0  0  0  0  0
    8.1854  -14.3152   21.3429 N   0  0  0  0  0  0  0  0  0  0  0  0
    8.1109  -14.0883   23.7914 C   0  0  0  0  0  0  0  0  0  0  0  0
    9.2860  -14.5169   23.9185 O   0  0  0  0  0  0  0  0  0  0  0  0
    7.5752  -13.3694   24.9402 N   0  0  0  0  0  0  0  0  0  0  0  0
    6.3058  -12.7197   25.0091 C   0  0  0  0  0  0  0  0  0  0  0  0
    5.9609  -12.6643   26.4679 C   0  0  0  0  0  0  0  0  0  0  0  0
    7.3555  -12.4151   27.0662 C   0  0  0  0  0  0  0  0  0  0  0  0
    8.2687  -13.2108   26.1874 C   0  0  1  0  0  0  0  0  0  0  0  0
    8.6396  -14.5113   26.8033 C   0  0  0  0  0  0  0  0  0  0  0  0
    7.7273  -15.3434   27.0230 O   0  0  0  0  0  0  0  0  0  0  0  0
    9.9605  -14.8698   27.1577 N   0  0  0  0  0  0  0  0  0  0  0  0
   10.3225  -16.1123   27.8025 C   0  0  1  0  0  0  0  0  0  0  0  0
   11.5464  -16.7417   27.1697 C   0  0  0  0  0  0  0  0  0  0  0  0
   11.3638  -17.0027   25.7231 C   0  0  0  0  0  0  0  0  0  0  0  0
   10.2793  -17.5099   25.0380 C   0  0  0  0  0  0  0  0  0  0  0  0
   10.5543  -17.5761   23.7345 N   0  0  0  0  0  0  0  0  0  0  0  0
   11.8120  -17.1145   23.5697 C   0  0  0  0  0  0  0  0  0  0  0  0
   12.3038  -16.7643   24.7921 N   0  0  0  0  0  0  0  0  0  0  0  0
   10.6744  -15.8132   29.2115 C   0  0  0  0  0  0  0  0  0  0  0  0
   10.6916  -14.5081   29.7022 O   0  0  0  0  0  0  0  0  0  0  0  0
   10.9627  -16.7610   29.9754 O   0  0  0  0  0  0  0  0  0  0  0  0
  1  2  1  0
  2  3  1  0
  3  5  1  0
  3  4  1  6
  5  6  2  0
  7 11  1  0
  7  5  1  0
  8  7  1  0
  9  8  1  0
  9 10  1  0
 10 11  1  0
 11 12  1  1
 12 14  1  0
 12 13  2  0
 14 15  1  0
 15 22  1  0
 15 16  1  6
 17 18  2  0
 17 16  1  0
 19 18  1  0
 20 21  2  0
 20 19  1  0
 21 17  1  0
 22 24  2  0
 22 23  1  0
M  END
$$$$
