SPH.pdb
     RDKit          3D

 24 25  0  0  1  0  0  0  0  0999 V2000
    6.4631  -18.3467   17.4012 O   0  0  0  0  0  0  0  0  0  0  0  0
    7.2486  -17.7964   18.4117 C   0  0  0  0  0  0  0  0  0  0  0  0
    8.2127  -16.7603   17.8051 C   0  0  2  0  0  0  0  0  0  0  0  0
    9.0306  -17.4710   16.8863 N   0  0  0  0  0  0  0  0  0  0  0  0
    8.8609  -16.0635   18.8969 C   0  0  0  0  0  0  0  0  0  0  0  0
    9.8801  -16.5906   19.4107 O   0  0  0  0  0  0  0  0  0  0  0  0
    8.4509  -14.7905   19.4755 N   0  0  0  0  0  0  0  0  0  0  0  0
    7.4106  -13.9417   18.9900 C   0  0  0  0  0  0  0  0  0  0  0  0
    6.9729  -13.1263   20.1705 C   0  0  0  0  0  0  0  0  0  0  0  0
    8.3262  -12.9143   20.8695 C   0  0  0  0  0  0  0  0  0  0  0  0
    9.0534  -14.2016   20.6381 C   0  0  1  0  0  0  0  0  0  0  0  0
    8.9954  -15.0942   21.8247 C   0  0  0  0  0  0  0  0  0  0  0  0
    7.8723  -15.5080   22.1994 O   0  0  0  0  0  0  0  0  0  0  0  0
   10.1306  -15.5070   22.5594 N   0  0  0  0  0  0  0  0  0  0  0  0
   10.0873  -16.4132   23.6853 C   0  0  1  0  0  0  0  0  0  0  0  0
    9.8001  -17.8367   23.2541 C   0  0  0  0  0  0  0  0  0  0  0  0
   10.7241  -18.3038   22.1949 C   0  0  0  0  0  0  0  0  0  0  0  0
   12.0994  -18.2340   22.1162 C   0  0  0  0  0  0  0  0  0  0  0  0
   12.5190  -18.7832   20.9753 N   0  0  0  0  0  0  0  0  0  0  0  0
   11.4229  -19.2093   20.3127 C   0  0  0  0  0  0  0  0  0  0  0  0
   10.3250  -18.9129   21.0648 N   0  0  0  0  0  0  0  0  0  0  0  0
   11.4268  -16.4201   24.3212 C   0  0  0  0  0  0  0  0  0  0  0  0
   11.6885  -17.1622   25.4724 O   0  0  0  0  0  0  0  0  0  0  0  0
   12.3422  -15.7402   23.8068 O   0  0  0  0  0  0  0  0  0  0  0  0
  1  2  1  0
  2  3  1  0
  3  5  1  0
  3  4  1  1
  5  6  2  0
  7 11  1  0
  7  5  1  0
  8  7  1  0
  9  8  1  0
  9 10  1  0
 10 11  1  0
 11 12  1  1
 12 14  1  0
 12 13  2  0
 14 15  1  0
 15 22  1  0
 15 16  1  6
 17 18  2  0
 17 16  1  0
 19 18  1  0
 20 21  2  0
 20 19  1  0
 21 17  1  0
 22 24  2  0
 22 23  1  0
M  END
$$$$
