SPH.pdb
     RDKit          3D

 24 25  0  0  1  0  0  0  0  0999 V2000
    8.7209  -17.7149   17.4156 O   0  0  0  0  0  0  0  0  0  0  0  0
    8.2041  -16.7028   16.6097 C   0  0  0  0  0  0  0  0  0  0  0  0
    9.1964  -15.5264   16.5641 C   0  0  2  0  0  0  0  0  0  0  0  0
   10.2597  -15.9381   15.7165 N   0  0  0  0  0  0  0  0  0  0  0  0
    9.5152  -15.1605   17.9286 C   0  0  0  0  0  0  0  0  0  0  0  0
   10.4108  -15.8147   18.5209 O   0  0  0  0  0  0  0  0  0  0  0  0
    8.8976  -14.0931   18.7049 N   0  0  0  0  0  0  0  0  0  0  0  0
    7.8758  -13.2054   18.2508 C   0  0  0  0  0  0  0  0  0  0  0  0
    7.1752  -12.7312   19.4895 C   0  0  0  0  0  0  0  0  0  0  0  0
    8.3693  -12.6293   20.4533 C   0  0  0  0  0  0  0  0  0  0  0  0
    9.2427  -13.7800   20.0630 C   0  0  1  0  0  0  0  0  0  0  0  0
    9.0751  -14.9402   20.9762 C   0  0  0  0  0  0  0  0  0  0  0  0
    8.0622  -15.6655   20.8314 O   0  0  0  0  0  0  0  0  0  0  0  0
    9.9889  -15.2781   22.0007 N   0  0  0  0  0  0  0  0  0  0  0  0
    9.8199  -16.3900   22.9093 C   0  0  1  0  0  0  0  0  0  0  0  0
   10.0085  -17.7222   22.2132 C   0  0  0  0  0  0  0  0  0  0  0  0
   11.2774  -17.7874   21.4519 C   0  0  0  0  0  0  0  0  0  0  0  0
   12.2506  -16.8298   21.2561 C   0  0  0  0  0  0  0  0  0  0  0  0
   13.2300  -17.3241   20.4974 N   0  0  0  0  0  0  0  0  0  0  0  0
   12.8977  -18.5980   20.1996 C   0  0  0  0  0  0  0  0  0  0  0  0
   11.6996  -18.8771   20.7873 N   0  0  0  0  0  0  0  0  0  0  0  0
   10.8723  -16.2974   23.9497 C   0  0  0  0  0  0  0  0  0  0  0  0
   10.9467  -17.2101   25.0013 O   0  0  0  0  0  0  0  0  0  0  0  0
   11.7128  -15.3738   23.8768 O   0  0  0  0  0  0  0  0  0  0  0  0
  1  2  1  0
  2  3  1  0
  3  5  1  0
  3  4  1  6
  5  6  2  0
  7 11  1  0
  7  5  1  0
  8  7  1  0
  9  8  1  0
  9 10  1  0
 10 11  1  0
 11 12  1  1
 12 14  1  0
 12 13  2  0
 14 15  1  0
 15 22  1  0
 15 16  1  6
 17 18  2  0
 17 16  1  0
 19 18  1  0
 20 21  2  0
 20 19  1  0
 21 17  1  0
 22 24  2  0
 22 23  1  0
M  END
$$$$
