SPH.pdb
     RDKit          3D

 24 25  0  0  1  0  0  0  0  0999 V2000
    7.6900  -17.4029   17.4029 O   0  0  0  0  0  0  0  0  0  0  0  0
    8.5132  -17.1560   16.3063 C   0  0  0  0  0  0  0  0  0  0  0  0
    8.8521  -15.6552   16.2471 C   0  0  2  0  0  0  0  0  0  0  0  0
    9.6612  -15.4773   15.0929 N   0  0  0  0  0  0  0  0  0  0  0  0
    9.4026  -15.2727   17.5309 C   0  0  0  0  0  0  0  0  0  0  0  0
   10.4506  -15.8490   17.9186 O   0  0  0  0  0  0  0  0  0  0  0  0
    8.8620  -14.2705   18.4401 N   0  0  0  0  0  0  0  0  0  0  0  0
    7.7214  -13.4457   18.2013 C   0  0  0  0  0  0  0  0  0  0  0  0
    7.2183  -13.0521   19.5585 C   0  0  0  0  0  0  0  0  0  0  0  0
    8.5530  -12.8904   20.3053 C   0  0  0  0  0  0  0  0  0  0  0  0
    9.4176  -13.9672   19.7289 C   0  0  1  0  0  0  0  0  0  0  0  0
    9.4872  -15.1583   20.6146 C   0  0  0  0  0  0  0  0  0  0  0  0
    8.4807  -15.9034   20.6843 O   0  0  0  0  0  0  0  0  0  0  0  0
   10.6205  -15.5047   21.3857 N   0  0  0  0  0  0  0  0  0  0  0  0
   10.7078  -16.6797   22.2237 C   0  0  1  0  0  0  0  0  0  0  0  0
   11.9872  -17.4535   21.9804 C   0  0  0  0  0  0  0  0  0  0  0  0
   12.0499  -18.0273   20.6163 C   0  0  0  0  0  0  0  0  0  0  0  0
   11.3245  -19.0521   20.0452 C   0  0  0  0  0  0  0  0  0  0  0  0
   11.7137  -19.2374   18.7829 N   0  0  0  0  0  0  0  0  0  0  0  0
   12.6883  -18.3380   18.5314 C   0  0  0  0  0  0  0  0  0  0  0  0
   12.8906  -17.5985   19.6588 N   0  0  0  0  0  0  0  0  0  0  0  0
   10.7387  -16.2344   23.6377 C   0  0  0  0  0  0  0  0  0  0  0  0
   10.7679  -17.1451   24.6932 O   0  0  0  0  0  0  0  0  0  0  0  0
   10.7385  -15.0079   23.8839 O   0  0  0  0  0  0  0  0  0  0  0  0
  1  2  1  0
  2  3  1  0
  3  5  1  0
  3  4  1  6
  5  6  2  0
  7 11  1  0
  7  5  1  0
  8  7  1  0
  9  8  1  0
  9 10  1  0
 10 11  1  0
 11 12  1  1
 12 14  1  0
 12 13  2  0
 14 15  1  0
 15 22  1  0
 15 16  1  6
 17 18  2  0
 17 16  1  0
 19 18  1  0
 20 21  2  0
 20 19  1  0
 21 17  1  0
 22 24  2  0
 22 23  1  0
M  END
$$$$
