SPH.pdb
     RDKit          3D

 24 25  0  0  1  0  0  0  0  0999 V2000
    5.3192  -17.9658   20.6908 O   0  0  0  0  0  0  0  0  0  0  0  0
    6.6849  -18.2341   20.6295 C   0  0  0  0  0  0  0  0  0  0  0  0
    7.3129  -17.4358   19.4721 C   0  0  2  0  0  0  0  0  0  0  0  0
    7.7946  -18.3973   18.5437 N   0  0  0  0  0  0  0  0  0  0  0  0
    8.2626  -16.5016   20.0403 C   0  0  0  0  0  0  0  0  0  0  0  0
    9.3034  -16.9673   20.5699 O   0  0  0  0  0  0  0  0  0  0  0  0
    8.1395  -15.0497   20.0640 N   0  0  0  0  0  0  0  0  0  0  0  0
    7.1018  -14.2832   19.4526 C   0  0  0  0  0  0  0  0  0  0  0  0
    7.0559  -12.9904   20.2121 C   0  0  0  0  0  0  0  0  0  0  0  0
    8.5549  -12.7856   20.4882 C   0  0  0  0  0  0  0  0  0  0  0  0
    9.0685  -14.1721   20.7186 C   0  0  1  0  0  0  0  0  0  0  0  0
    9.2183  -14.4765   22.1653 C   0  0  0  0  0  0  0  0  0  0  0  0
    8.4512  -13.9009   22.9735 O   0  0  0  0  0  0  0  0  0  0  0  0
   10.1744  -15.3771   22.6886 N   0  0  0  0  0  0  0  0  0  0  0  0
   10.3940  -15.6034   24.0996 C   0  0  1  0  0  0  0  0  0  0  0  0
    9.3017  -16.4560   24.7119 C   0  0  0  0  0  0  0  0  0  0  0  0
    8.0437  -15.7013   24.9169 C   0  0  0  0  0  0  0  0  0  0  0  0
    7.7235  -14.7376   25.8503 C   0  0  0  0  0  0  0  0  0  0  0  0
    6.4685  -14.3247   25.6665 N   0  0  0  0  0  0  0  0  0  0  0  0
    5.9722  -15.0155   24.6184 C   0  0  0  0  0  0  0  0  0  0  0  0
    6.9421  -15.8582   24.1625 N   0  0  0  0  0  0  0  0  0  0  0  0
   11.6619  -16.3568   24.2523 C   0  0  0  0  0  0  0  0  0  0  0  0
   12.4144  -16.7578   23.1489 O   0  0  0  0  0  0  0  0  0  0  0  0
   12.0620  -16.6372   25.4039 O   0  0  0  0  0  0  0  0  0  0  0  0
  1  2  1  0
  2  3  1  0
  3  5  1  0
  3  4  1  6
  5  6  2  0
  7 11  1  0
  7  5  1  0
  8  7  1  0
  9  8  1  0
  9 10  1  0
 10 11  1  0
 11 12  1  1
 12 14  1  0
 12 13  2  0
 14 15  1  0
 15 22  1  0
 15 16  1  6
 17 18  2  0
 17 16  1  0
 19 18  1  0
 20 21  2  0
 20 19  1  0
 21 17  1  0
 22 24  2  0
 22 23  1  0
M  END
$$$$
