SPH.pdb
     RDKit          3D

 24 25  0  0  1  0  0  0  0  0999 V2000
    4.9041  -19.2261   22.7750 O   0  0  0  0  0  0  0  0  0  0  0  0
    6.1128  -18.6118   23.0952 C   0  0  0  0  0  0  0  0  0  0  0  0
    6.8579  -18.2397   21.8001 C   0  0  2  0  0  0  0  0  0  0  0  0
    7.3624  -19.4574   21.2700 N   0  0  0  0  0  0  0  0  0  0  0  0
    7.8045  -17.1906   22.1176 C   0  0  0  0  0  0  0  0  0  0  0  0
    8.8454  -17.5063   22.7482 O   0  0  0  0  0  0  0  0  0  0  0  0
    7.6783  -15.7793   21.7771 N   0  0  0  0  0  0  0  0  0  0  0  0
    6.6141  -15.1851   21.0338 C   0  0  0  0  0  0  0  0  0  0  0  0
    6.5957  -13.7416   21.4416 C   0  0  0  0  0  0  0  0  0  0  0  0
    8.1042  -13.4849   21.5955 C   0  0  0  0  0  0  0  0  0  0  0  0
    8.6309  -14.7715   22.1492 C   0  0  1  0  0  0  0  0  0  0  0  0
    8.8411  -14.7000   23.6184 C   0  0  0  0  0  0  0  0  0  0  0  0
    8.5145  -13.6447   24.2122 O   0  0  0  0  0  0  0  0  0  0  0  0
    9.3879  -15.7507   24.3906 N   0  0  0  0  0  0  0  0  0  0  0  0
    9.5225  -15.7195   25.8298 C   0  0  1  0  0  0  0  0  0  0  0  0
    8.1759  -15.6840   26.5227 C   0  0  0  0  0  0  0  0  0  0  0  0
    7.5633  -14.3356   26.4988 C   0  0  0  0  0  0  0  0  0  0  0  0
    8.0517  -13.1257   26.9461 C   0  0  0  0  0  0  0  0  0  0  0  0
    7.1567  -12.1623   26.7225 N   0  0  0  0  0  0  0  0  0  0  0  0
    6.0894  -12.7407   26.1320 C   0  0  0  0  0  0  0  0  0  0  0  0
    6.3439  -14.0732   25.9972 N   0  0  0  0  0  0  0  0  0  0  0  0
   10.1909  -16.9726   26.2561 C   0  0  0  0  0  0  0  0  0  0  0  0
   10.5291  -17.9708   25.3431 O   0  0  0  0  0  0  0  0  0  0  0  0
   10.4558  -17.1327   27.4681 O   0  0  0  0  0  0  0  0  0  0  0  0
  1  2  1  0
  2  3  1  0
  3  5  1  0
  3  4  1  1
  5  6  2  0
  7 11  1  0
  7  5  1  0
  8  7  1  0
  9  8  1  0
  9 10  1  0
 10 11  1  0
 11 12  1  1
 12 14  1  0
 12 13  2  0
 14 15  1  0
 15 22  1  0
 15 16  1  1
 17 18  2  0
 17 16  1  0
 19 18  1  0
 20 21  2  0
 20 19  1  0
 21 17  1  0
 22 24  2  0
 22 23  1  0
M  END
$$$$
