SPH.pdb
     RDKit          3D

 24 25  0  0  1  0  0  0  0  0999 V2000
    7.5075  -17.0662   16.8401 O   0  0  0  0  0  0  0  0  0  0  0  0
    8.2424  -16.7652   15.6954 C   0  0  0  0  0  0  0  0  0  0  0  0
    8.6047  -15.2686   15.6973 C   0  0  2  0  0  0  0  0  0  0  0  0
    9.2959  -15.0271   14.4799 N   0  0  0  0  0  0  0  0  0  0  0  0
    9.2906  -14.9789   16.9395 C   0  0  0  0  0  0  0  0  0  0  0  0
   10.3991  -15.5355   17.1450 O   0  0  0  0  0  0  0  0  0  0  0  0
    8.8251  -14.0927   17.9986 N   0  0  0  0  0  0  0  0  0  0  0  0
    7.5803  -13.3941   18.0246 C   0  0  0  0  0  0  0  0  0  0  0  0
    7.2976  -13.1299   19.4739 C   0  0  0  0  0  0  0  0  0  0  0  0
    8.7227  -12.8529   19.9813 C   0  0  0  0  0  0  0  0  0  0  0  0
    9.5739  -13.7924   19.1863 C   0  0  1  0  0  0  0  0  0  0  0  0
    9.9294  -15.0105   19.9596 C   0  0  0  0  0  0  0  0  0  0  0  0
    9.0692  -15.9173   20.0636 O   0  0  0  0  0  0  0  0  0  0  0  0
   11.1804  -15.2113   20.5870 N   0  0  0  0  0  0  0  0  0  0  0  0
   11.5684  -16.4310   21.2595 C   0  0  1  0  0  0  0  0  0  0  0  0
   12.9933  -16.8278   20.9325 C   0  0  0  0  0  0  0  0  0  0  0  0
   13.1441  -17.2915   19.5338 C   0  0  0  0  0  0  0  0  0  0  0  0
   12.2961  -18.0421   18.7464 C   0  0  0  0  0  0  0  0  0  0  0  0
   12.8370  -18.2259   17.5410 N   0  0  0  0  0  0  0  0  0  0  0  0
   14.0321  -17.5983   17.5418 C   0  0  0  0  0  0  0  0  0  0  0  0
   14.2155  -17.0270   18.7660 N   0  0  0  0  0  0  0  0  0  0  0  0
   11.5163  -16.1865   22.7210 C   0  0  0  0  0  0  0  0  0  0  0  0
   11.8194  -17.1872   23.6435 O   0  0  0  0  0  0  0  0  0  0  0  0
   11.1913  -15.0503   23.1312 O   0  0  0  0  0  0  0  0  0  0  0  0
  1  2  1  0
  2  3  1  0
  3  5  1  0
  3  4  1  6
  5  6  2  0
  7 11  1  0
  7  5  1  0
  8  7  1  0
  9  8  1  0
  9 10  1  0
 10 11  1  0
 11 12  1  1
 12 14  1  0
 12 13  2  0
 14 15  1  0
 15 22  1  0
 15 16  1  6
 17 18  2  0
 17 16  1  0
 19 18  1  0
 20 21  2  0
 20 19  1  0
 21 17  1  0
 22 24  2  0
 22 23  1  0
M  END
$$$$
