SPH.pdb
     RDKit          3D

 24 25  0  0  1  0  0  0  0  0999 V2000
    9.3353  -17.2537   16.1994 O   0  0  0  0  0  0  0  0  0  0  0  0
    8.2296  -16.4566   15.9110 C   0  0  0  0  0  0  0  0  0  0  0  0
    8.6816  -14.9944   15.7422 C   0  0  2  0  0  0  0  0  0  0  0  0
    9.4527  -14.9536   14.5498 N   0  0  0  0  0  0  0  0  0  0  0  0
    9.3138  -14.5791   16.9773 C   0  0  0  0  0  0  0  0  0  0  0  0
   10.5568  -14.7344   17.0849 O   0  0  0  0  0  0  0  0  0  0  0  0
    8.6509  -13.9876   18.1323 N   0  0  0  0  0  0  0  0  0  0  0  0
    7.2541  -13.7183   18.2542 C   0  0  0  0  0  0  0  0  0  0  0  0
    6.9762  -13.6948   19.7281 C   0  0  0  0  0  0  0  0  0  0  0  0
    8.2696  -13.0365   20.2368 C   0  0  0  0  0  0  0  0  0  0  0  0
    9.3286  -13.5831   19.3318 C   0  0  1  0  0  0  0  0  0  0  0  0
   10.0808  -14.6972   19.9652 C   0  0  0  0  0  0  0  0  0  0  0  0
    9.5794  -15.8461   19.9276 O   0  0  0  0  0  0  0  0  0  0  0  0
   11.3297  -14.5418   20.6093 N   0  0  0  0  0  0  0  0  0  0  0  0
   12.0851  -15.6267   21.1951 C   0  0  1  0  0  0  0  0  0  0  0  0
   13.5784  -15.3894   21.1035 C   0  0  0  0  0  0  0  0  0  0  0  0
   14.0405  -15.2285   19.7054 C   0  0  0  0  0  0  0  0  0  0  0  0
   13.6181  -15.8505   18.5490 C   0  0  0  0  0  0  0  0  0  0  0  0
   14.3169  -15.3978   17.5069 N   0  0  0  0  0  0  0  0  0  0  0  0
   15.1910  -14.4849   17.9808 C   0  0  0  0  0  0  0  0  0  0  0  0
   15.0173  -14.3849   19.3294 N   0  0  0  0  0  0  0  0  0  0  0  0
   11.7495  -15.6937   22.6378 C   0  0  0  0  0  0  0  0  0  0  0  0
   10.9195  -14.7504   23.2425 O   0  0  0  0  0  0  0  0  0  0  0  0
   12.2267  -16.6234   23.3254 O   0  0  0  0  0  0  0  0  0  0  0  0
  1  2  1  0
  2  3  1  0
  3  5  1  0
  3  4  1  6
  5  6  2  0
  7 11  1  0
  7  5  1  0
  8  7  1  0
  9  8  1  0
  9 10  1  0
 10 11  1  0
 11 12  1  1
 12 14  1  0
 12 13  2  0
 14 15  1  0
 15 22  1  0
 15 16  1  1
 17 18  2  0
 17 16  1  0
 19 18  1  0
 20 21  2  0
 20 19  1  0
 21 17  1  0
 22 24  2  0
 22 23  1  0
M  END
$$$$
