SPH.pdb
     RDKit          3D

 24 25  0  0  1  0  0  0  0  0999 V2000
    7.7263  -15.5679   15.9845 O   0  0  0  0  0  0  0  0  0  0  0  0
    8.5785  -15.3895   17.0722 C   0  0  0  0  0  0  0  0  0  0  0  0
    8.2569  -14.0507   17.7614 C   0  0  2  0  0  0  0  0  0  0  0  0
    8.6105  -13.0335   16.8348 N   0  0  0  0  0  0  0  0  0  0  0  0
    8.9069  -14.0495   19.0557 C   0  0  0  0  0  0  0  0  0  0  0  0
   10.1539  -13.8927   19.0894 O   0  0  0  0  0  0  0  0  0  0  0  0
    8.2577  -14.2132   20.3500 N   0  0  0  0  0  0  0  0  0  0  0  0
    6.8517  -14.3042   20.5806 C   0  0  0  0  0  0  0  0  0  0  0  0
    6.7041  -15.0344   21.8826 C   0  0  0  0  0  0  0  0  0  0  0  0
    7.9078  -14.4635   22.6508 C   0  0  0  0  0  0  0  0  0  0  0  0
    8.9602  -14.3044   21.5989 C   0  0  1  0  0  0  0  0  0  0  0  0
    9.9417  -15.4199   21.6210 C   0  0  0  0  0  0  0  0  0  0  0  0
    9.6227  -16.4997   21.0685 O   0  0  0  0  0  0  0  0  0  0  0  0
   11.2162  -15.3393   22.2279 N   0  0  0  0  0  0  0  0  0  0  0  0
   12.1761  -16.4202   22.2539 C   0  0  1  0  0  0  0  0  0  0  0  0
   13.5782  -15.9383   21.9425 C   0  0  0  0  0  0  0  0  0  0  0  0
   13.7191  -15.4764   20.5422 C   0  0  0  0  0  0  0  0  0  0  0  0
   12.9457  -15.7449   19.4321 C   0  0  0  0  0  0  0  0  0  0  0  0
   13.4429  -15.1140   18.3671 N   0  0  0  0  0  0  0  0  0  0  0  0
   14.5353  -14.4372   18.7803 C   0  0  0  0  0  0  0  0  0  0  0  0
   14.7002  -14.6628   20.1147 N   0  0  0  0  0  0  0  0  0  0  0  0
   12.2086  -16.9730   23.6294 C   0  0  0  0  0  0  0  0  0  0  0  0
   12.9969  -18.0750   23.9587 O   0  0  0  0  0  0  0  0  0  0  0  0
   11.5081  -16.4320   24.5134 O   0  0  0  0  0  0  0  0  0  0  0  0
  1  2  1  0
  2  3  1  0
  3  5  1  0
  3  4  1  6
  5  6  2  0
  7 11  1  0
  7  5  1  0
  8  7  1  0
  9  8  1  0
  9 10  1  0
 10 11  1  0
 11 12  1  6
 12 14  1  0
 12 13  2  0
 14 15  1  0
 15 22  1  0
 15 16  1  1
 17 18  2  0
 17 16  1  0
 19 18  1  0
 20 21  2  0
 20 19  1  0
 21 17  1  0
 22 24  2  0
 22 23  1  0
M  END
$$$$
