YTD.pdb
     RDKit          3D

 28 28  0  0  1  0  0  0  0  0999 V2000
   33.4543   -9.1791  -18.6260 O   0  0  0  0  0  0  0  0  0  0  0  0
   32.0701   -9.0986  -18.5699 C   0  0  0  0  0  0  0  0  0  0  0  0
   31.4395   -8.4303  -17.5299 C   0  0  0  0  0  0  0  0  0  0  0  0
   30.0602   -8.3918  -17.5411 C   0  0  0  0  0  0  0  0  0  0  0  0
   29.3282   -8.9932  -18.5458 C   0  0  0  0  0  0  0  0  0  0  0  0
   27.8375   -8.9458  -18.5482 C   0  0  0  0  0  0  0  0  0  0  0  0
   27.3184  -10.0015  -17.5888 C   0  0  2  0  0  0  0  0  0  0  0  0
   27.7918  -11.3263  -17.9260 N   0  0  0  0  0  0  0  0  0  0  0  0
   25.8406   -9.9491  -17.4961 C   0  0  0  0  0  0  0  0  0  0  0  0
   25.1749  -10.5345  -18.3826 O   0  0  0  0  0  0  0  0  0  0  0  0
   29.9793   -9.6537  -19.5722 C   0  0  0  0  0  0  0  0  0  0  0  0
   31.3530   -9.7005  -19.5746 C   0  0  0  0  0  0  0  0  0  0  0  0
   23.8870  -11.5031  -15.1878 C   0  0  0  0  0  0  0  0  0  0  0  0
   23.3424  -10.1019  -15.0911 C   0  0  1  0  0  0  0  0  0  0  0  0
   24.0826   -9.4515  -14.0597 O   0  0  0  0  0  0  0  0  0  0  0  0
   23.6775   -9.3265  -16.3416 C   0  0  2  0  0  0  0  0  0  0  0  0
   25.1537   -9.2711  -16.4574 N   0  0  0  0  0  0  0  0  0  0  0  0
   23.1313   -7.9614  -16.3892 C   0  0  0  0  0  0  0  0  0  0  0  0
   23.9045   -7.0380  -16.8370 O   0  0  0  0  0  0  0  0  0  0  0  0
   21.8552   -7.5294  -16.0060 N   0  0  0  0  0  0  0  0  0  0  0  0
   21.3526   -6.1875  -16.2560 C   0  0  1  0  0  0  0  0  0  0  0  0
   21.3833   -5.9516  -17.7570 C   0  0  0  0  0  0  0  0  0  0  0  0
   20.7885   -4.6227  -18.1072 C   0  0  0  0  0  0  0  0  0  0  0  0
   20.4036   -3.8205  -17.2182 O   0  0  0  0  0  0  0  0  0  0  0  0
   19.9782   -6.0088  -15.7592 C   0  0  0  0  0  0  0  0  0  0  0  0
   19.6708   -4.9138  -14.9888 O   0  0  0  0  0  0  0  0  0  0  0  0
   20.6550   -4.2600  -19.4369 O   0  0  0  0  0  0  0  0  0  0  0  0
   19.1005   -6.8443  -16.0355 O   0  0  0  0  0  0  0  0  0  0  0  0
  1  2  1  0
  2 12  2  0
  3  4  2  0
  3  2  1  0
  4  5  1  0
  5  6  1  0
  5 11  2  0
  6  7  1  0
  7  8  1  6
  9 17  1  0
  9  7  1  0
 10  9  2  0
 12 11  1  0
 14 13  1  6
 14 16  1  0
 15 14  1  0
 16 18  1  0
 16 17  1  1
 18 20  1  0
 19 18  2  0
 20 21  1  0
 21 25  1  0
 21 22  1  6
 22 23  1  0
 23 27  1  0
 24 23  2  0
 25 26  1  0
 28 25  2  0
M  END
$$$$
