YTD.pdb
     RDKit          3D

 28 28  0  0  1  0  0  0  0  0999 V2000
   10.7889  -11.2596   -9.9200 O   0  0  0  0  0  0  0  0  0  0  0  0
   10.7040   -9.9357   -9.5126 C   0  0  0  0  0  0  0  0  0  0  0  0
    9.5764   -9.4669   -8.8534 C   0  0  0  0  0  0  0  0  0  0  0  0
    9.5638   -8.1388   -8.4789 C   0  0  0  0  0  0  0  0  0  0  0  0
   10.6292   -7.3019   -8.7464 C   0  0  0  0  0  0  0  0  0  0  0  0
   10.6052   -5.8679   -8.3372 C   0  0  0  0  0  0  0  0  0  0  0  0
   10.9255   -5.7822   -6.8558 C   0  0  2  0  0  0  0  0  0  0  0  0
    9.9185   -6.4261   -6.0409 N   0  0  0  0  0  0  0  0  0  0  0  0
   11.1530   -4.3765   -6.4459 C   0  0  0  0  0  0  0  0  0  0  0  0
   10.1661   -3.6038   -6.4233 O   0  0  0  0  0  0  0  0  0  0  0  0
   11.7425   -7.7924   -9.4048 C   0  0  0  0  0  0  0  0  0  0  0  0
   11.7696   -9.1132   -9.7842 C   0  0  0  0  0  0  0  0  0  0  0  0
   11.5956   -3.1496   -3.4448 C   0  0  0  0  0  0  0  0  0  0  0  0
   12.7991   -2.5313   -4.1072 C   0  0  1  0  0  0  0  0  0  0  0  0
   13.8773   -3.4464   -3.9206 O   0  0  0  0  0  0  0  0  0  0  0  0
   12.6014   -2.4818   -5.6025 C   0  0  2  0  0  0  0  0  0  0  0  0
   12.4275   -3.8731   -6.0818 N   0  0  0  0  0  0  0  0  0  0  0  0
   13.6928   -1.8391   -6.3508 C   0  0  0  0  0  0  0  0  0  0  0  0
   14.0025   -2.3516   -7.4877 O   0  0  0  0  0  0  0  0  0  0  0  0
   14.4500   -0.7203   -5.9808 N   0  0  0  0  0  0  0  0  0  0  0  0
   15.4973   -0.1484   -6.8125 C   0  0  1  0  0  0  0  0  0  0  0  0
   14.8808    0.2129   -8.1538 C   0  0  0  0  0  0  0  0  0  0  0  0
   15.8656    0.9289   -9.0256 C   0  0  0  0  0  0  0  0  0  0  0  0
   17.0680    1.0662   -8.6828 O   0  0  0  0  0  0  0  0  0  0  0  0
   16.0922    1.0541   -6.2060 C   0  0  0  0  0  0  0  0  0  0  0  0
   17.4191    1.3380   -6.4201 O   0  0  0  0  0  0  0  0  0  0  0  0
   15.4527    1.4549  -10.2381 O   0  0  0  0  0  0  0  0  0  0  0  0
   15.3974    1.8085   -5.5039 O   0  0  0  0  0  0  0  0  0  0  0  0
  1  2  1  0
  2 12  2  0
  3  4  2  0
  3  2  1  0
  4  5  1  0
  5  6  1  0
  5 11  2  0
  6  7  1  0
  7  8  1  1
  9 17  1  0
  9  7  1  0
 10  9  2  0
 12 11  1  0
 14 13  1  1
 14 16  1  0
 15 14  1  0
 16 18  1  0
 16 17  1  6
 18 20  1  0
 19 18  2  0
 20 21  1  0
 21 25  1  0
 21 22  1  6
 22 23  1  0
 23 27  1  0
 24 23  2  0
 25 26  1  0
 28 25  2  0
M  END
$$$$
