YTD.pdb
     RDKit          3D

 28 28  0  0  1  0  0  0  0  0999 V2000
    8.5054  -12.2828  -10.8192 O   0  0  0  0  0  0  0  0  0  0  0  0
    9.7153  -11.6405  -11.0415 C   0  0  0  0  0  0  0  0  0  0  0  0
   10.1585  -11.3885  -12.3322 C   0  0  0  0  0  0  0  0  0  0  0  0
   11.3712  -10.7459  -12.4750 C   0  0  0  0  0  0  0  0  0  0  0  0
   12.1211  -10.3650  -11.3798 C   0  0  0  0  0  0  0  0  0  0  0  0
   13.4308   -9.6710  -11.5454 C   0  0  0  0  0  0  0  0  0  0  0  0
   14.4020  -10.6247  -12.2175 C   0  0  2  0  0  0  0  0  0  0  0  0
   14.6389  -11.8115  -11.4249 N   0  0  0  0  0  0  0  0  0  0  0  0
   15.6643   -9.9322  -12.5674 C   0  0  0  0  0  0  0  0  0  0  0  0
   16.4812   -9.6979  -11.6458 O   0  0  0  0  0  0  0  0  0  0  0  0
   11.6584  -10.6271  -10.1028 C   0  0  0  0  0  0  0  0  0  0  0  0
   10.4521  -11.2666   -9.9446 C   0  0  0  0  0  0  0  0  0  0  0  0
   18.2676  -11.0515  -14.7901 C   0  0  0  0  0  0  0  0  0  0  0  0
   17.9477   -9.6667  -15.2893 C   0  0  1  0  0  0  0  0  0  0  0  0
   16.9460   -9.8209  -16.2931 O   0  0  0  0  0  0  0  0  0  0  0  0
   17.2725   -8.8657  -14.2032 C   0  0  2  0  0  0  0  0  0  0  0  0
   15.9845   -9.5270  -13.8879 N   0  0  0  0  0  0  0  0  0  0  0  0
   17.0291   -7.4533  -14.5353 C   0  0  0  0  0  0  0  0  0  0  0  0
   15.8271   -7.0200  -14.3992 O   0  0  0  0  0  0  0  0  0  0  0  0
   17.9530   -6.5018  -14.9857 N   0  0  0  0  0  0  0  0  0  0  0  0
   17.5794   -5.1715  -15.4398 C   0  0  1  0  0  0  0  0  0  0  0  0
   17.2142   -4.3479  -14.2158 C   0  0  0  0  0  0  0  0  0  0  0  0
   16.8419   -2.9486  -14.5978 C   0  0  0  0  0  0  0  0  0  0  0  0
   16.8913   -2.5586  -15.7925 O   0  0  0  0  0  0  0  0  0  0  0  0
   18.6722   -4.5076  -16.1697 C   0  0  0  0  0  0  0  0  0  0  0  0
   18.4190   -3.3532  -16.8700 O   0  0  0  0  0  0  0  0  0  0  0  0
   16.4327   -2.0567  -13.6207 O   0  0  0  0  0  0  0  0  0  0  0  0
   19.8178   -4.9891  -16.1525 O   0  0  0  0  0  0  0  0  0  0  0  0
  1  2  1  0
  2 12  2  0
  3  4  2  0
  3  2  1  0
  4  5  1  0
  5  6  1  0
  5 11  2  0
  6  7  1  0
  7  8  1  1
  9 17  1  0
  9  7  1  0
 10  9  2  0
 12 11  1  0
 14 13  1  1
 14 16  1  0
 15 14  1  0
 16 18  1  0
 16 17  1  6
 18 20  1  0
 19 18  2  0
 20 21  1  0
 21 25  1  0
 21 22  1  1
 22 23  1  0
 23 27  1  0
 24 23  2  0
 25 26  1  0
 28 25  2  0
M  END
$$$$
