YTD.pdb
     RDKit          3D

 28 28  0  0  1  0  0  0  0  0999 V2000
   20.0929   -2.0844  -15.8001 O   0  0  0  0  0  0  0  0  0  0  0  0
   21.1236   -3.0076  -15.6953 C   0  0  0  0  0  0  0  0  0  0  0  0
   21.6645   -3.3303  -14.4588 C   0  0  0  0  0  0  0  0  0  0  0  0
   22.6868   -4.2567  -14.4330 C   0  0  0  0  0  0  0  0  0  0  0  0
   23.1591   -4.8448  -15.5898 C   0  0  0  0  0  0  0  0  0  0  0  0
   24.2647   -5.8450  -15.5506 C   0  0  0  0  0  0  0  0  0  0  0  0
   23.6995   -7.2054  -15.9172 C   0  0  2  0  0  0  0  0  0  0  0  0
   22.7346   -7.6755  -14.9473 N   0  0  0  0  0  0  0  0  0  0  0  0
   24.7877   -8.1872  -16.1355 C   0  0  0  0  0  0  0  0  0  0  0  0
   25.2766   -8.7557  -15.1309 O   0  0  0  0  0  0  0  0  0  0  0  0
   22.6039   -4.5071  -16.8109 C   0  0  0  0  0  0  0  0  0  0  0  0
   21.5847   -3.5857  -16.8525 C   0  0  0  0  0  0  0  0  0  0  0  0
   25.0892  -11.0736  -16.0445 C   0  0  0  0  0  0  0  0  0  0  0  0
   25.5776  -10.9070  -17.4597 C   0  0  1  0  0  0  0  0  0  0  0  0
   24.4147  -10.7778  -18.2756 O   0  0  0  0  0  0  0  0  0  0  0  0
   26.2925   -9.5865  -17.6109 C   0  0  2  0  0  0  0  0  0  0  0  0
   25.2947   -8.5078  -17.4202 N   0  0  0  0  0  0  0  0  0  0  0  0
   26.9781   -9.3970  -18.8985 C   0  0  0  0  0  0  0  0  0  0  0  0
   26.6140   -8.3923  -19.6120 O   0  0  0  0  0  0  0  0  0  0  0  0
   27.9958  -10.1807  -19.4572 N   0  0  0  0  0  0  0  0  0  0  0  0
   28.6040   -9.9057  -20.7495 C   0  0  1  0  0  0  0  0  0  0  0  0
   29.2434   -8.5288  -20.6788 C   0  0  0  0  0  0  0  0  0  0  0  0
   29.9902   -8.2148  -21.9383 C   0  0  0  0  0  0  0  0  0  0  0  0
   29.4516   -8.3349  -23.0686 O   0  0  0  0  0  0  0  0  0  0  0  0
   29.6262  -10.9039  -21.1049 C   0  0  0  0  0  0  0  0  0  0  0  0
   29.8213  -11.2375  -22.4230 O   0  0  0  0  0  0  0  0  0  0  0  0
   31.3036   -7.7818  -21.8672 O   0  0  0  0  0  0  0  0  0  0  0  0
   30.3092  -11.4419  -20.2167 O   0  0  0  0  0  0  0  0  0  0  0  0
  1  2  1  0
  2 12  2  0
  3  4  2  0
  3  2  1  0
  4  5  1  0
  5  6  1  0
  5 11  2  0
  6  7  1  0
  7  8  1  1
  9 17  1  0
  9  7  1  0
 10  9  2  0
 12 11  1  0
 14 13  1  1
 14 16  1  0
 15 14  1  0
 16 18  1  0
 16 17  1  6
 18 20  1  0
 19 18  2  0
 20 21  1  0
 21 25  1  0
 21 22  1  1
 22 23  1  0
 23 27  1  0
 24 23  2  0
 25 26  1  0
 28 25  2  0
M  END
$$$$
