YTD.pdb
     RDKit          3D

 28 28  0  0  1  0  0  0  0  0999 V2000
   24.3354   -1.9071    1.7572 O   0  0  0  0  0  0  0  0  0  0  0  0
   24.4664   -1.1317    0.6138 C   0  0  0  0  0  0  0  0  0  0  0  0
   25.4469   -1.4140   -0.3267 C   0  0  0  0  0  0  0  0  0  0  0  0
   25.5166   -0.5992   -1.4382 C   0  0  0  0  0  0  0  0  0  0  0  0
   24.6470    0.4588   -1.6149 C   0  0  0  0  0  0  0  0  0  0  0  0
   24.7311    1.3334   -2.8200 C   0  0  0  0  0  0  0  0  0  0  0  0
   25.8933    2.2934   -2.6409 C   0  0  2  0  0  0  0  0  0  0  0  0
   25.7565    3.1004   -1.4481 N   0  0  0  0  0  0  0  0  0  0  0  0
   26.0822    3.1249   -3.8527 C   0  0  0  0  0  0  0  0  0  0  0  0
   25.3513    4.1336   -3.9931 O   0  0  0  0  0  0  0  0  0  0  0  0
   23.6776    0.7205   -0.6634 C   0  0  0  0  0  0  0  0  0  0  0  0
   23.5959   -0.0824    0.4493 C   0  0  0  0  0  0  0  0  0  0  0  0
   29.0104    4.9424   -4.6845 C   0  0  0  0  0  0  0  0  0  0  0  0
   28.7320    4.1691   -5.9470 C   0  0  1  0  0  0  0  0  0  0  0  0
   29.4558    2.9448   -5.8383 O   0  0  0  0  0  0  0  0  0  0  0  0
   27.2835    3.7480   -5.9899 C   0  0  2  0  0  0  0  0  0  0  0  0
   27.0453    2.8308   -4.8508 N   0  0  0  0  0  0  0  0  0  0  0  0
   26.8649    3.0950   -7.2399 C   0  0  0  0  0  0  0  0  0  0  0  0
   26.4267    1.8903   -7.1514 O   0  0  0  0  0  0  0  0  0  0  0  0
   26.8792    3.6249   -8.5364 N   0  0  0  0  0  0  0  0  0  0  0  0
   26.4278    2.8921   -9.7089 C   0  0  1  0  0  0  0  0  0  0  0  0
   24.9999    2.4390   -9.4528 C   0  0  0  0  0  0  0  0  0  0  0  0
   24.4343    1.7345  -10.6470 C   0  0  0  0  0  0  0  0  0  0  0  0
   25.1771    1.1580  -11.4824 O   0  0  0  0  0  0  0  0  0  0  0  0
   26.4698    3.7163  -10.9281 C   0  0  0  0  0  0  0  0  0  0  0  0
   26.2451    3.1329  -12.1512 O   0  0  0  0  0  0  0  0  0  0  0  0
   23.0639    1.7117  -10.8446 O   0  0  0  0  0  0  0  0  0  0  0  0
   26.7075    4.9338  -10.8511 O   0  0  0  0  0  0  0  0  0  0  0  0
  1  2  1  0
  2 12  2  0
  3  4  2  0
  3  2  1  0
  4  5  1  0
  5  6  1  0
  5 11  2  0
  6  7  1  0
  7  8  1  1
  9 17  1  0
  9  7  1  0
 10  9  2  0
 12 11  1  0
 14 13  1  1
 14 16  1  0
 15 14  1  0
 16 18  1  0
 16 17  1  1
 18 20  1  0
 19 18  2  0
 20 21  1  0
 21 25  1  0
 21 22  1  1
 22 23  1  0
 23 27  1  0
 24 23  2  0
 25 26  1  0
 28 25  2  0
M  END
$$$$
