YTD.pdb
     RDKit          3D

 28 28  0  0  1  0  0  0  0  0999 V2000
   20.4625  -19.0241  -14.6756 O   0  0  0  0  0  0  0  0  0  0  0  0
   20.7470  -17.6665  -14.7178 C   0  0  0  0  0  0  0  0  0  0  0  0
   21.0340  -16.9649  -13.5554 C   0  0  0  0  0  0  0  0  0  0  0  0
   21.3070  -15.6177  -13.6757 C   0  0  0  0  0  0  0  0  0  0  0  0
   21.2969  -14.9846  -14.9029 C   0  0  0  0  0  0  0  0  0  0  0  0
   21.5933  -13.5277  -15.0216 C   0  0  0  0  0  0  0  0  0  0  0  0
   22.7745  -13.3491  -15.9583 C   0  0  2  0  0  0  0  0  0  0  0  0
   23.9577  -14.0317  -15.4819 N   0  0  0  0  0  0  0  0  0  0  0  0
   23.0307  -11.9127  -16.2162 C   0  0  0  0  0  0  0  0  0  0  0  0
   23.8806  -11.3298  -15.5024 O   0  0  0  0  0  0  0  0  0  0  0  0
   21.0080  -15.7051  -16.0478 C   0  0  0  0  0  0  0  0  0  0  0  0
   20.7339  -17.0480  -15.9438 C   0  0  0  0  0  0  0  0  0  0  0  0
   23.9818  -10.5630  -19.4522 C   0  0  0  0  0  0  0  0  0  0  0  0
   22.9081   -9.6143  -18.9869 C   0  0  1  0  0  0  0  0  0  0  0  0
   21.6874  -10.0703  -19.5670 O   0  0  0  0  0  0  0  0  0  0  0  0
   22.6955   -9.7588  -17.4998 C   0  0  2  0  0  0  0  0  0  0  0  0
   22.3616  -11.1763  -17.2264 N   0  0  0  0  0  0  0  0  0  0  0  0
   21.6489   -8.8920  -16.9364 C   0  0  0  0  0  0  0  0  0  0  0  0
   20.7270   -9.4621  -16.2463 O   0  0  0  0  0  0  0  0  0  0  0  0
   21.5252   -7.5017  -17.0536 N   0  0  0  0  0  0  0  0  0  0  0  0
   20.4012   -6.7475  -16.5212 C   0  0  1  0  0  0  0  0  0  0  0  0
   20.4084   -6.9069  -15.0098 C   0  0  0  0  0  0  0  0  0  0  0  0
   19.2699   -6.1631  -14.3828 C   0  0  0  0  0  0  0  0  0  0  0  0
   19.1932   -4.9090  -14.4409 O   0  0  0  0  0  0  0  0  0  0  0  0
   20.4805   -5.3179  -16.8642 C   0  0  0  0  0  0  0  0  0  0  0  0
   21.6177   -4.8225  -17.4545 O   0  0  0  0  0  0  0  0  0  0  0  0
   18.2745   -6.8631  -13.7220 O   0  0  0  0  0  0  0  0  0  0  0  0
   19.5234   -4.5632  -16.6210 O   0  0  0  0  0  0  0  0  0  0  0  0
  1  2  1  0
  2 12  2  0
  3  4  2  0
  3  2  1  0
  4  5  1  0
  5  6  1  0
  5 11  2  0
  6  7  1  0
  7  8  1  1
  9 17  1  0
  9  7  1  0
 10  9  2  0
 12 11  1  0
 14 13  1  6
 14 16  1  0
 15 14  1  0
 16 18  1  0
 16 17  1  6
 18 20  1  0
 19 18  2  0
 20 21  1  0
 21 25  1  0
 21 22  1  1
 22 23  1  0
 23 27  1  0
 24 23  2  0
 25 26  1  0
 28 25  2  0
M  END
$$$$
