YTD.pdb
     RDKit          3D

 28 28  0  0  1  0  0  0  0  0999 V2000
   38.5601   -3.0801    2.2015 O   0  0  0  0  0  0  0  0  0  0  0  0
   38.5202   -2.9681    0.8189 C   0  0  0  0  0  0  0  0  0  0  0  0
   39.1563   -1.9173    0.1732 C   0  0  0  0  0  0  0  0  0  0  0  0
   39.0732   -1.8718   -1.2034 C   0  0  0  0  0  0  0  0  0  0  0  0
   38.3849   -2.8320   -1.9184 C   0  0  0  0  0  0  0  0  0  0  0  0
   38.3012   -2.7732   -3.4063 C   0  0  0  0  0  0  0  0  0  0  0  0
   39.3103   -3.7477   -3.9865 C   0  0  2  0  0  0  0  0  0  0  0  0
   40.6656   -3.4295   -3.5931 N   0  0  0  0  0  0  0  0  0  0  0  0
   39.1687   -3.8397   -5.4585 C   0  0  0  0  0  0  0  0  0  0  0  0
   39.9007   -3.1084   -6.1663 O   0  0  0  0  0  0  0  0  0  0  0  0
   37.7587   -3.8702   -1.2525 C   0  0  0  0  0  0  0  0  0  0  0  0
   37.8327   -3.9289    0.1188 C   0  0  0  0  0  0  0  0  0  0  0  0
   38.9144   -7.0785   -7.5456 C   0  0  0  0  0  0  0  0  0  0  0  0
   37.7965   -6.1633   -7.9721 C   0  0  1  0  0  0  0  0  0  0  0  0
   36.6615   -6.5179   -7.1843 O   0  0  0  0  0  0  0  0  0  0  0  0
   38.1057   -4.7422   -7.5691 C   0  0  2  0  0  0  0  0  0  0  0  0
   38.2489   -4.7113   -6.0947 N   0  0  0  0  0  0  0  0  0  0  0  0
   37.1036   -3.7485   -7.9844 C   0  0  0  0  0  0  0  0  0  0  0  0
   36.0846   -3.5908   -7.2177 O   0  0  0  0  0  0  0  0  0  0  0  0
   37.1165   -2.9355   -9.1249 N   0  0  0  0  0  0  0  0  0  0  0  0
   36.0249   -2.0463   -9.4901 C   0  0  1  0  0  0  0  0  0  0  0  0
   36.4927   -0.6182   -9.2630 C   0  0  0  0  0  0  0  0  0  0  0  0
   35.4429    0.3663   -9.6768 C   0  0  0  0  0  0  0  0  0  0  0  0
   34.2426    0.2335   -9.3250 O   0  0  0  0  0  0  0  0  0  0  0  0
   35.6209   -2.2126  -10.8961 C   0  0  0  0  0  0  0  0  0  0  0  0
   34.4735   -1.6089  -11.3497 O   0  0  0  0  0  0  0  0  0  0  0  0
   35.7917    1.4505  -10.4644 O   0  0  0  0  0  0  0  0  0  0  0  0
   36.3147   -2.8957  -11.6687 O   0  0  0  0  0  0  0  0  0  0  0  0
  1  2  1  0
  2 12  2  0
  3  4  2  0
  3  2  1  0
  4  5  1  0
  5  6  1  0
  5 11  2  0
  6  7  1  0
  7  8  1  6
  9 17  1  0
  9  7  1  0
 10  9  2  0
 12 11  1  0
 14 13  1  1
 14 16  1  0
 15 14  1  0
 16 18  1  0
 16 17  1  1
 18 20  1  0
 19 18  2  0
 20 21  1  0
 21 25  1  0
 21 22  1  6
 22 23  1  0
 23 27  1  0
 24 23  2  0
 25 26  1  0
 28 25  2  0
M  END
$$$$
