YTD.pdb
     RDKit          3D

 28 28  0  0  1  0  0  0  0  0999 V2000
   22.0924  -31.5627   -2.0906 O   0  0  0  0  0  0  0  0  0  0  0  0
   21.3325  -30.4602   -1.7264 C   0  0  0  0  0  0  0  0  0  0  0  0
   20.5450  -30.4868   -0.5841 C   0  0  0  0  0  0  0  0  0  0  0  0
   19.8170  -29.3532   -0.2859 C   0  0  0  0  0  0  0  0  0  0  0  0
   19.8652  -28.2308   -1.0889 C   0  0  0  0  0  0  0  0  0  0  0  0
   19.0741  -27.0107   -0.7574 C   0  0  0  0  0  0  0  0  0  0  0  0
   17.6340  -27.2382   -1.1804 C   0  0  2  0  0  0  0  0  0  0  0  0
   17.4880  -27.2842   -2.6190 N   0  0  0  0  0  0  0  0  0  0  0  0
   16.7382  -26.2309   -0.5654 C   0  0  0  0  0  0  0  0  0  0  0  0
   16.5345  -25.1646   -1.1924 O   0  0  0  0  0  0  0  0  0  0  0  0
   20.6577  -28.2280   -2.2226 C   0  0  0  0  0  0  0  0  0  0  0  0
   21.3887  -29.3500   -2.5328 C   0  0  0  0  0  0  0  0  0  0  0  0
   13.2478  -26.9567    0.7500 C   0  0  0  0  0  0  0  0  0  0  0  0
   13.9857  -26.2030    1.8254 C   0  0  1  0  0  0  0  0  0  0  0  0
   14.6055  -27.1849    2.6539 O   0  0  0  0  0  0  0  0  0  0  0  0
   15.1378  -25.4352    1.2249 C   0  0  2  0  0  0  0  0  0  0  0  0
   16.1076  -26.4198    0.6904 N   0  0  0  0  0  0  0  0  0  0  0  0
   15.8261  -24.5244    2.1527 C   0  0  0  0  0  0  0  0  0  0  0  0
   16.9857  -24.8850    2.5728 O   0  0  0  0  0  0  0  0  0  0  0  0
   15.3760  -23.2926    2.6446 N   0  0  0  0  0  0  0  0  0  0  0  0
   16.1227  -22.4870    3.5981 C   0  0  1  0  0  0  0  0  0  0  0  0
   15.8058  -21.0266    3.3216 C   0  0  0  0  0  0  0  0  0  0  0  0
   16.5792  -20.1242    4.2328 C   0  0  0  0  0  0  0  0  0  0  0  0
   17.4469  -20.5760    5.0234 O   0  0  0  0  0  0  0  0  0  0  0  0
   15.7724  -22.8100    4.9911 C   0  0  0  0  0  0  0  0  0  0  0  0
   16.7533  -22.8262    5.9526 O   0  0  0  0  0  0  0  0  0  0  0  0
   16.3406  -18.7603    4.2117 O   0  0  0  0  0  0  0  0  0  0  0  0
   14.5950  -23.0666    5.2957 O   0  0  0  0  0  0  0  0  0  0  0  0
  1  2  1  0
  2 12  2  0
  3  4  2  0
  3  2  1  0
  4  5  1  0
  5  6  1  0
  5 11  2  0
  6  7  1  0
  7  8  1  6
  9 17  1  0
  9  7  1  0
 10  9  2  0
 12 11  1  0
 14 13  1  6
 14 16  1  0
 15 14  1  0
 16 18  1  0
 16 17  1  1
 18 20  1  0
 19 18  2  0
 20 21  1  0
 21 25  1  0
 21 22  1  6
 22 23  1  0
 23 27  1  0
 24 23  2  0
 25 26  1  0
 28 25  2  0
M  END
$$$$
