YTD.pdb
     RDKit          3D

 28 28  0  0  1  0  0  0  0  0999 V2000
   17.7926  -17.0023  -20.6445 O   0  0  0  0  0  0  0  0  0  0  0  0
   18.3928  -16.0503  -19.8326 C   0  0  0  0  0  0  0  0  0  0  0  0
   18.1678  -16.0417  -18.4633 C   0  0  0  0  0  0  0  0  0  0  0  0
   18.7987  -15.0649  -17.7204 C   0  0  0  0  0  0  0  0  0  0  0  0
   19.6243  -14.1281  -18.3101 C   0  0  0  0  0  0  0  0  0  0  0  0
   20.3013  -13.0764  -17.4978 C   0  0  0  0  0  0  0  0  0  0  0  0
   21.6357  -13.6193  -17.0190 C   0  0  2  0  0  0  0  0  0  0  0  0
   21.4818  -14.7984  -16.1951 N   0  0  0  0  0  0  0  0  0  0  0  0
   22.4191  -12.5644  -16.3342 C   0  0  0  0  0  0  0  0  0  0  0  0
   22.1476  -12.3149  -15.1361 O   0  0  0  0  0  0  0  0  0  0  0  0
   19.8333  -14.1569  -19.6772 C   0  0  0  0  0  0  0  0  0  0  0  0
   19.2115  -15.1240  -20.4305 C   0  0  0  0  0  0  0  0  0  0  0  0
   26.3972   -9.6701  -16.0815 C   0  0  0  0  0  0  0  0  0  0  0  0
   25.6131  -10.7736  -16.7422 C   0  0  1  0  0  0  0  0  0  0  0  0
   26.1368  -12.0000  -16.2358 O   0  0  0  0  0  0  0  0  0  0  0  0
   24.1811  -10.7505  -16.2664 C   0  0  2  0  0  0  0  0  0  0  0  0
   23.4531  -11.8320  -16.9706 N   0  0  0  0  0  0  0  0  0  0  0  0
   23.4801   -9.4737  -16.4730 C   0  0  0  0  0  0  0  0  0  0  0  0
   23.0901   -9.2080  -17.6681 O   0  0  0  0  0  0  0  0  0  0  0  0
   23.1745   -8.4938  -15.5200 N   0  0  0  0  0  0  0  0  0  0  0  0
   22.4872   -7.2517  -15.8368 C   0  0  1  0  0  0  0  0  0  0  0  0
   21.8375   -6.7413  -14.5613 C   0  0  0  0  0  0  0  0  0  0  0  0
   20.8030   -7.7013  -14.0605 C   0  0  0  0  0  0  0  0  0  0  0  0
   20.0558   -8.3331  -14.8509 O   0  0  0  0  0  0  0  0  0  0  0  0
   23.4057   -6.2284  -16.3631 C   0  0  0  0  0  0  0  0  0  0  0  0
   24.7618   -6.4416  -16.3127 O   0  0  0  0  0  0  0  0  0  0  0  0
   20.6583   -7.9048  -12.6985 O   0  0  0  0  0  0  0  0  0  0  0  0
   22.9564   -5.1770  -16.8504 O   0  0  0  0  0  0  0  0  0  0  0  0
  1  2  1  0
  2 12  2  0
  3  4  2  0
  3  2  1  0
  4  5  1  0
  5  6  1  0
  5 11  2  0
  6  7  1  0
  7  8  1  1
  9 17  1  0
  9  7  1  0
 10  9  2  0
 12 11  1  0
 14 13  1  1
 14 16  1  0
 15 14  1  0
 16 18  1  0
 16 17  1  6
 18 20  1  0
 19 18  2  0
 20 21  1  0
 21 25  1  0
 21 22  1  1
 22 23  1  0
 23 27  1  0
 24 23  2  0
 25 26  1  0
 28 25  2  0
M  END
$$$$
