YTD.pdb
     RDKit          3D

 28 28  0  0  1  0  0  0  0  0999 V2000
   30.0732  -31.2921  -19.2445 O   0  0  0  0  0  0  0  0  0  0  0  0
   29.5980  -30.1705  -18.5797 C   0  0  0  0  0  0  0  0  0  0  0  0
   29.7452  -30.0443  -17.2056 C   0  0  0  0  0  0  0  0  0  0  0  0
   29.2476  -28.9013  -16.6141 C   0  0  0  0  0  0  0  0  0  0  0  0
   28.6254  -27.9158  -17.3549 C   0  0  0  0  0  0  0  0  0  0  0  0
   28.0910  -26.6842  -16.7054 C   0  0  0  0  0  0  0  0  0  0  0  0
   29.0607  -25.5440  -16.9586 C   0  0  2  0  0  0  0  0  0  0  0  0
   30.3150  -25.7287  -16.2620 N   0  0  0  0  0  0  0  0  0  0  0  0
   28.4362  -24.2394  -16.6372 C   0  0  0  0  0  0  0  0  0  0  0  0
   28.6987  -23.7197  -15.5270 O   0  0  0  0  0  0  0  0  0  0  0  0
   28.4905  -28.0641  -18.7235 C   0  0  0  0  0  0  0  0  0  0  0  0
   28.9812  -29.1974  -19.3270 C   0  0  0  0  0  0  0  0  0  0  0  0
   29.0018  -21.1423  -18.2217 C   0  0  0  0  0  0  0  0  0  0  0  0
   27.5007  -21.2617  -18.2664 C   0  0  1  0  0  0  0  0  0  0  0  0
   27.1839  -21.9115  -19.4960 O   0  0  0  0  0  0  0  0  0  0  0  0
   27.0234  -22.2181  -17.2010 C   0  0  2  0  0  0  0  0  0  0  0  0
   27.5626  -23.5601  -17.5236 N   0  0  0  0  0  0  0  0  0  0  0  0
   25.5622  -22.3006  -17.0521 C   0  0  0  0  0  0  0  0  0  0  0  0
   24.9630  -23.2453  -17.6841 O   0  0  0  0  0  0  0  0  0  0  0  0
   24.7243  -21.4711  -16.2960 N   0  0  0  0  0  0  0  0  0  0  0  0
   23.2749  -21.5915  -16.2818 C   0  0  1  0  0  0  0  0  0  0  0  0
   22.7382  -20.6265  -15.2375 C   0  0  0  0  0  0  0  0  0  0  0  0
   21.2472  -20.7186  -15.1326 C   0  0  0  0  0  0  0  0  0  0  0  0
   20.6648  -21.8261  -15.0052 O   0  0  0  0  0  0  0  0  0  0  0  0
   22.6797  -21.2780  -17.5915 C   0  0  0  0  0  0  0  0  0  0  0  0
   23.3492  -20.4536  -18.4627 O   0  0  0  0  0  0  0  0  0  0  0  0
   20.4841  -19.5640  -15.1758 O   0  0  0  0  0  0  0  0  0  0  0  0
   21.5770  -21.7568  -17.9072 O   0  0  0  0  0  0  0  0  0  0  0  0
  1  2  1  0
  2 12  2  0
  3  4  2  0
  3  2  1  0
  4  5  1  0
  5  6  1  0
  5 11  2  0
  6  7  1  0
  7  8  1  1
  9 17  1  0
  9  7  1  0
 10  9  2  0
 12 11  1  0
 14 13  1  1
 14 16  1  0
 15 14  1  0
 16 18  1  0
 16 17  1  6
 18 20  1  0
 19 18  2  0
 20 21  1  0
 21 25  1  0
 21 22  1  1
 22 23  1  0
 23 27  1  0
 24 23  2  0
 25 26  1  0
 28 25  2  0
M  END
$$$$
