YTD.pdb
     RDKit          3D

 28 28  0  0  1  0  0  0  0  0999 V2000
   20.0798  -23.2440   -6.5207 O   0  0  0  0  0  0  0  0  0  0  0  0
   20.8599  -22.4424   -7.3421 C   0  0  0  0  0  0  0  0  0  0  0  0
   21.7933  -21.5688   -6.8023 C   0  0  0  0  0  0  0  0  0  0  0  0
   22.5323  -20.8037   -7.6812 C   0  0  0  0  0  0  0  0  0  0  0  0
   22.3555  -20.8983   -9.0475 C   0  0  0  0  0  0  0  0  0  0  0  0
   23.1596  -20.0665   -9.9887 C   0  0  0  0  0  0  0  0  0  0  0  0
   24.3059  -20.9082  -10.5198 C   0  0  2  0  0  0  0  0  0  0  0  0
   25.3671  -21.0610   -9.5486 N   0  0  0  0  0  0  0  0  0  0  0  0
   24.8061  -20.3671  -11.8053 C   0  0  0  0  0  0  0  0  0  0  0  0
   25.5526  -19.3607  -11.7687 O   0  0  0  0  0  0  0  0  0  0  0  0
   21.4188  -21.7766   -9.5621 C   0  0  0  0  0  0  0  0  0  0  0  0
   20.6750  -22.5453   -8.6990 C   0  0  0  0  0  0  0  0  0  0  0  0
   27.1342  -21.5101  -13.9507 C   0  0  0  0  0  0  0  0  0  0  0  0
   25.9899  -21.3131  -14.9104 C   0  0  1  0  0  0  0  0  0  0  0  0
   25.2969  -22.5583  -14.9733 O   0  0  0  0  0  0  0  0  0  0  0  0
   24.9834  -20.3508  -14.3287 C   0  0  2  0  0  0  0  0  0  0  0  0
   24.4793  -20.9339  -13.0632 N   0  0  0  0  0  0  0  0  0  0  0  0
   23.8476  -20.0351  -15.2087 C   0  0  0  0  0  0  0  0  0  0  0  0
   22.6705  -20.1429  -14.7048 O   0  0  0  0  0  0  0  0  0  0  0  0
   23.8821  -19.6226  -16.5468 N   0  0  0  0  0  0  0  0  0  0  0  0
   22.7463  -19.0277  -17.2337 C   0  0  1  0  0  0  0  0  0  0  0  0
   22.3643  -17.7596  -16.4883 C   0  0  0  0  0  0  0  0  0  0  0  0
   20.9172  -17.4303  -16.6889 C   0  0  0  0  0  0  0  0  0  0  0  0
   20.1813  -18.1295  -17.4315 O   0  0  0  0  0  0  0  0  0  0  0  0
   23.0560  -18.6988  -18.6350 C   0  0  0  0  0  0  0  0  0  0  0  0
   24.3043  -18.2287  -18.9631 O   0  0  0  0  0  0  0  0  0  0  0  0
   20.3681  -16.3333  -16.0467 O   0  0  0  0  0  0  0  0  0  0  0  0
   22.1923  -18.8459  -19.5166 O   0  0  0  0  0  0  0  0  0  0  0  0
  1  2  1  0
  2 12  2  0
  3  4  2  0
  3  2  1  0
  4  5  1  0
  5  6  1  0
  5 11  2  0
  6  7  1  0
  7  8  1  1
  9 17  1  0
  9  7  1  0
 10  9  2  0
 12 11  1  0
 14 13  1  1
 14 16  1  0
 15 14  1  0
 16 18  1  0
 16 17  1  1
 18 20  1  0
 19 18  2  0
 20 21  1  0
 21 25  1  0
 21 22  1  1
 22 23  1  0
 23 27  1  0
 24 23  2  0
 25 26  1  0
 28 25  2  0
M  END
$$$$
