YTD.pdb
     RDKit          3D

 28 28  0  0  1  0  0  0  0  0999 V2000
   19.0865   -4.9696  -27.2049 O   0  0  0  0  0  0  0  0  0  0  0  0
   19.1855   -5.1363  -25.8308 C   0  0  0  0  0  0  0  0  0  0  0  0
   20.3076   -5.7264  -25.2664 C   0  0  0  0  0  0  0  0  0  0  0  0
   20.3350   -5.8585  -23.8931 C   0  0  0  0  0  0  0  0  0  0  0  0
   19.2892   -5.4225  -23.1037 C   0  0  0  0  0  0  0  0  0  0  0  0
   19.3290   -5.5703  -21.6202 C   0  0  0  0  0  0  0  0  0  0  0  0
   18.7993   -6.9457  -21.2567 C   0  0  2  0  0  0  0  0  0  0  0  0
   17.4010   -7.0993  -21.5941 N   0  0  0  0  0  0  0  0  0  0  0  0
   19.0612   -7.2519  -19.8308 C   0  0  0  0  0  0  0  0  0  0  0  0
   18.1255   -7.0875  -19.0129 O   0  0  0  0  0  0  0  0  0  0  0  0
   18.1811   -4.8372  -23.6893 C   0  0  0  0  0  0  0  0  0  0  0  0
   18.1393   -4.6988  -25.0562 C   0  0  0  0  0  0  0  0  0  0  0  0
   22.8730   -8.7443  -18.2614 C   0  0  0  0  0  0  0  0  0  0  0  0
   21.4944   -9.1694  -17.8277 C   0  0  1  0  0  0  0  0  0  0  0  0
   21.5791   -9.4503  -16.4318 O   0  0  0  0  0  0  0  0  0  0  0  0
   20.5384   -8.0054  -17.9205 C   0  0  2  0  0  0  0  0  0  0  0  0
   20.3134   -7.7184  -19.3567 N   0  0  0  0  0  0  0  0  0  0  0  0
   20.9864   -6.7800  -17.2409 C   0  0  0  0  0  0  0  0  0  0  0  0
   21.8358   -6.0438  -17.8635 O   0  0  0  0  0  0  0  0  0  0  0  0
   20.5993   -6.3010  -15.9829 N   0  0  0  0  0  0  0  0  0  0  0  0
   21.1742   -5.1179  -15.3620 C   0  0  1  0  0  0  0  0  0  0  0  0
   20.0495   -4.1233  -15.1263 C   0  0  0  0  0  0  0  0  0  0  0  0
   20.5729   -2.8412  -14.5563 C   0  0  0  0  0  0  0  0  0  0  0  0
   21.8073   -2.6294  -14.4404 O   0  0  0  0  0  0  0  0  0  0  0  0
   21.8316   -5.4277  -14.0815 C   0  0  0  0  0  0  0  0  0  0  0  0
   22.5953   -4.4698  -13.4601 O   0  0  0  0  0  0  0  0  0  0  0  0
   19.6857   -1.8609  -14.1448 O   0  0  0  0  0  0  0  0  0  0  0  0
   21.6962   -6.5503  -13.5654 O   0  0  0  0  0  0  0  0  0  0  0  0
  1  2  1  0
  2 12  2  0
  3  4  2  0
  3  2  1  0
  4  5  1  0
  5  6  1  0
  5 11  2  0
  6  7  1  0
  7  8  1  1
  9 17  1  0
  9  7  1  0
 10  9  2  0
 12 11  1  0
 14 13  1  1
 14 16  1  0
 15 14  1  0
 16 18  1  0
 16 17  1  6
 18 20  1  0
 19 18  2  0
 20 21  1  0
 21 25  1  0
 21 22  1  1
 22 23  1  0
 23 27  1  0
 24 23  2  0
 25 26  1  0
 28 25  2  0
M  END
$$$$
