YTD.pdb
     RDKit          3D

 28 28  0  0  1  0  0  0  0  0999 V2000
   20.8956  -15.9686  -20.7551 O   0  0  0  0  0  0  0  0  0  0  0  0
   20.5808  -14.7591  -20.1520 C   0  0  0  0  0  0  0  0  0  0  0  0
   21.2057  -14.3685  -18.9760 C   0  0  0  0  0  0  0  0  0  0  0  0
   20.8412  -13.1528  -18.4346 C   0  0  0  0  0  0  0  0  0  0  0  0
   19.8914  -12.3497  -19.0345 C   0  0  0  0  0  0  0  0  0  0  0  0
   19.5046  -11.0374  -18.4407 C   0  0  0  0  0  0  0  0  0  0  0  0
   18.6776  -11.2954  -17.1940 C   0  0  2  0  0  0  0  0  0  0  0  0
   17.4822  -12.0584  -17.4797 N   0  0  0  0  0  0  0  0  0  0  0  0
   18.3698  -10.0266  -16.4934 C   0  0  0  0  0  0  0  0  0  0  0  0
   17.6373   -9.1946  -17.0789 O   0  0  0  0  0  0  0  0  0  0  0  0
   19.2822  -12.7605  -20.2065 C   0  0  0  0  0  0  0  0  0  0  0  0
   19.6349  -13.9692  -20.7578 C   0  0  0  0  0  0  0  0  0  0  0  0
   16.6037   -9.5492  -13.4824 C   0  0  0  0  0  0  0  0  0  0  0  0
   17.8545   -8.7483  -13.2309 C   0  0  1  0  0  0  0  0  0  0  0  0
   18.7609   -9.6173  -12.5541 O   0  0  0  0  0  0  0  0  0  0  0  0
   18.5406   -8.4318  -14.5372 C   0  0  2  0  0  0  0  0  0  0  0  0
   18.8639   -9.7165  -15.2011 N   0  0  0  0  0  0  0  0  0  0  0  0
   19.7632   -7.6228  -14.4149 C   0  0  0  0  0  0  0  0  0  0  0  0
   20.8629   -8.1641  -14.8008 O   0  0  0  0  0  0  0  0  0  0  0  0
   19.8872   -6.3159  -13.9268 N   0  0  0  0  0  0  0  0  0  0  0  0
   21.1436   -5.5835  -13.9016 C   0  0  1  0  0  0  0  0  0  0  0  0
   21.6107   -5.4120  -15.3376 C   0  0  0  0  0  0  0  0  0  0  0  0
   22.8676   -4.6006  -15.4035 C   0  0  0  0  0  0  0  0  0  0  0  0
   23.5210   -4.3162  -14.3671 O   0  0  0  0  0  0  0  0  0  0  0  0
   21.0018   -4.2608  -13.2705 C   0  0  0  0  0  0  0  0  0  0  0  0
   22.1211   -3.5852  -12.8491 O   0  0  0  0  0  0  0  0  0  0  0  0
   23.3288   -4.1487  -16.6285 O   0  0  0  0  0  0  0  0  0  0  0  0
   19.8752   -3.7582  -13.1197 O   0  0  0  0  0  0  0  0  0  0  0  0
  1  2  1  0
  2 12  2  0
  3  4  2  0
  3  2  1  0
  4  5  1  0
  5  6  1  0
  5 11  2  0
  6  7  1  0
  7  8  1  6
  9 17  1  0
  9  7  1  0
 10  9  2  0
 12 11  1  0
 14 13  1  6
 14 16  1  0
 15 14  1  0
 16 18  1  0
 16 17  1  1
 18 20  1  0
 19 18  2  0
 20 21  1  0
 21 25  1  0
 21 22  1  6
 22 23  1  0
 23 27  1  0
 24 23  2  0
 25 26  1  0
 28 25  2  0
M  END
$$$$
