YTD.pdb
     RDKit          3D

 28 28  0  0  1  0  0  0  0  0999 V2000
    9.0815  -10.9915   -8.5895 O   0  0  0  0  0  0  0  0  0  0  0  0
   10.3859  -10.6659   -8.9333 C   0  0  0  0  0  0  0  0  0  0  0  0
   11.4574  -11.3626   -8.3927 C   0  0  0  0  0  0  0  0  0  0  0  0
   12.7256  -10.9823   -8.7814 C   0  0  0  0  0  0  0  0  0  0  0  0
   12.9288   -9.9485   -9.6741 C   0  0  0  0  0  0  0  0  0  0  0  0
   14.3039   -9.5454  -10.0874 C   0  0  0  0  0  0  0  0  0  0  0  0
   14.6889  -10.3370  -11.3242 C   0  0  2  0  0  0  0  0  0  0  0  0
   15.0088  -11.7134  -11.0141 N   0  0  0  0  0  0  0  0  0  0  0  0
   15.7865   -9.6660  -12.0593 C   0  0  0  0  0  0  0  0  0  0  0  0
   16.9257   -9.6582  -11.5361 O   0  0  0  0  0  0  0  0  0  0  0  0
   11.8448   -9.2686  -10.1996 C   0  0  0  0  0  0  0  0  0  0  0  0
   10.5753   -9.6361   -9.8219 C   0  0  0  0  0  0  0  0  0  0  0  0
   17.4343  -10.4982  -15.0691 C   0  0  0  0  0  0  0  0  0  0  0  0
   16.9460   -9.0966  -15.3266 C   0  0  1  0  0  0  0  0  0  0  0  0
   15.6402   -9.2207  -15.8872 O   0  0  0  0  0  0  0  0  0  0  0  0
   16.7278   -8.3739  -14.0199 C   0  0  2  0  0  0  0  0  0  0  0  0
   15.6048   -9.0383  -13.3177 N   0  0  0  0  0  0  0  0  0  0  0  0
   16.4434   -6.9361  -14.1470 C   0  0  0  0  0  0  0  0  0  0  0  0
   15.2396   -6.5554  -13.9087 O   0  0  0  0  0  0  0  0  0  0  0  0
   17.3296   -5.9095  -14.4974 N   0  0  0  0  0  0  0  0  0  0  0  0
   16.9081   -4.5469  -14.7826 C   0  0  1  0  0  0  0  0  0  0  0  0
   17.1327   -3.7186  -13.5284 C   0  0  0  0  0  0  0  0  0  0  0  0
   16.8139   -2.2755  -13.7699 C   0  0  0  0  0  0  0  0  0  0  0  0
   15.6346   -1.8432  -13.7034 O   0  0  0  0  0  0  0  0  0  0  0  0
   17.6606   -3.9566  -15.9019 C   0  0  0  0  0  0  0  0  0  0  0  0
   17.1989   -2.8105  -16.5021 O   0  0  0  0  0  0  0  0  0  0  0  0
   17.8336   -1.3893  -14.0739 O   0  0  0  0  0  0  0  0  0  0  0  0
   18.7083   -4.4925  -16.3017 O   0  0  0  0  0  0  0  0  0  0  0  0
  1  2  1  0
  2 12  2  0
  3  4  2  0
  3  2  1  0
  4  5  1  0
  5  6  1  0
  5 11  2  0
  6  7  1  0
  7  8  1  1
  9 17  1  0
  9  7  1  0
 10  9  2  0
 12 11  1  0
 14 13  1  1
 14 16  1  0
 15 14  1  0
 16 18  1  0
 16 17  1  6
 18 20  1  0
 19 18  2  0
 20 21  1  0
 21 25  1  0
 21 22  1  1
 22 23  1  0
 23 27  1  0
 24 23  2  0
 25 26  1  0
 28 25  2  0
M  END
$$$$
