YTD.pdb
     RDKit          3D

 28 28  0  0  1  0  0  0  0  0999 V2000
   30.3639  -16.1319  -18.8452 O   0  0  0  0  0  0  0  0  0  0  0  0
   29.3897  -16.8998  -18.2231 C   0  0  0  0  0  0  0  0  0  0  0  0
   28.6966  -17.8739  -18.9276 C   0  0  0  0  0  0  0  0  0  0  0  0
   27.7424  -18.5978  -18.2424 C   0  0  0  0  0  0  0  0  0  0  0  0
   27.4815  -18.3674  -16.9060 C   0  0  0  0  0  0  0  0  0  0  0  0
   26.4478  -19.1556  -16.1749 C   0  0  0  0  0  0  0  0  0  0  0  0
   27.1489  -20.1006  -15.2158 C   0  0  2  0  0  0  0  0  0  0  0  0
   28.0817  -20.9742  -15.8937 N   0  0  0  0  0  0  0  0  0  0  0  0
   26.1644  -20.8608  -14.4105 C   0  0  0  0  0  0  0  0  0  0  0  0
   25.7952  -21.9803  -14.8370 O   0  0  0  0  0  0  0  0  0  0  0  0
   28.1856  -17.3908  -16.2248 C   0  0  0  0  0  0  0  0  0  0  0  0
   29.1392  -16.6615  -16.8940 C   0  0  0  0  0  0  0  0  0  0  0  0
   26.4935  -21.6299  -10.8865 C   0  0  0  0  0  0  0  0  0  0  0  0
   25.0569  -21.1874  -10.9847 C   0  0  1  0  0  0  0  0  0  0  0  0
   25.0262  -19.8217  -10.5741 O   0  0  0  0  0  0  0  0  0  0  0  0
   24.6200  -21.1566  -12.4289 C   0  0  2  0  0  0  0  0  0  0  0  0
   25.6272  -20.3802  -13.1894 N   0  0  0  0  0  0  0  0  0  0  0  0
   23.2845  -20.5847  -12.6601 C   0  0  0  0  0  0  0  0  0  0  0  0
   23.2273  -19.4798  -13.3137 O   0  0  0  0  0  0  0  0  0  0  0  0
   22.0452  -21.0973  -12.2563 N   0  0  0  0  0  0  0  0  0  0  0  0
   20.7696  -20.5293  -12.6635 C   0  0  1  0  0  0  0  0  0  0  0  0
   20.6568  -20.6735  -14.1722 C   0  0  0  0  0  0  0  0  0  0  0  0
   19.3323  -20.1776  -14.6647 C   0  0  0  0  0  0  0  0  0  0  0  0
   18.8198  -20.6168  -15.7261 O   0  0  0  0  0  0  0  0  0  0  0  0
   19.6309  -21.2049  -12.0195 C   0  0  0  0  0  0  0  0  0  0  0  0
   19.6313  -22.5734  -11.9002 O   0  0  0  0  0  0  0  0  0  0  0  0
   18.6488  -19.2142  -13.9421 O   0  0  0  0  0  0  0  0  0  0  0  0
   18.6742  -20.5404  -11.5860 O   0  0  0  0  0  0  0  0  0  0  0  0
  1  2  1  0
  2 12  2  0
  3  4  2  0
  3  2  1  0
  4  5  1  0
  5  6  1  0
  5 11  2  0
  6  7  1  0
  7  8  1  6
  9 17  1  0
  9  7  1  0
 10  9  2  0
 12 11  1  0
 14 13  1  6
 14 16  1  0
 15 14  1  0
 16 18  1  0
 16 17  1  6
 18 20  1  0
 19 18  2  0
 20 21  1  0
 21 25  1  0
 21 22  1  6
 22 23  1  0
 23 27  1  0
 24 23  2  0
 25 26  1  0
 28 25  2  0
M  END
$$$$
