PYW.pdb
     RDKit          3D

 34 37  0  0  1  0  0  0  0  0999 V2000
    8.2342  -14.9557   20.0825 N   0  0  0  0  0  0  0  0  0  0  0  0
    8.2613  -13.6536   19.4616 C   0  0  0  0  0  0  0  0  0  0  0  0
    9.7046  -13.2596   19.3047 C   0  0  0  0  0  0  0  0  0  0  0  0
   10.3417  -14.6295   19.0463 C   0  0  0  0  0  0  0  0  0  0  0  0
    9.5032  -15.5893   19.8722 C   0  0  1  0  0  0  0  0  0  0  0  0
   10.1773  -15.8254   21.1749 C   0  0  0  0  0  0  0  0  0  0  0  0
   11.1642  -16.6027   21.2277 O   0  0  0  0  0  0  0  0  0  0  0  0
   11.1636  -15.4623   30.0723 O   0  0  0  0  0  0  0  0  0  0  0  0
   11.0008  -15.1774   28.7015 C   0  0  0  0  0  0  0  0  0  0  0  0
   10.1497  -14.1928   28.2737 C   0  0  0  0  0  0  0  0  0  0  0  0
    9.9921  -13.9138   26.9135 C   0  0  0  0  0  0  0  0  0  0  0  0
   10.6867  -14.6194   25.9583 C   0  0  0  0  0  0  0  0  0  0  0  0
   10.5133  -14.3191   24.5476 C   0  0  0  0  0  0  0  0  0  0  0  0
   10.2799  -15.5315   23.6808 C   0  0  2  0  0  0  0  0  0  0  0  0
    9.7696  -15.2175   22.3855 N   0  0  0  0  0  0  0  0  0  0  0  0
    9.4582  -16.5277   24.3707 C   0  0  0  0  0  0  0  0  0  0  0  0
    9.9336  -17.0763   25.4240 O   0  0  0  0  0  0  0  0  0  0  0  0
   11.5334  -15.6011   26.4091 C   0  0  0  0  0  0  0  0  0  0  0  0
   11.7025  -15.8907   27.7461 C   0  0  0  0  0  0  0  0  0  0  0  0
    8.1705  -16.9074   23.9276 N   0  0  0  0  0  0  0  0  0  0  0  0
    7.2573  -17.6528   24.8124 C   0  0  1  0  0  0  0  0  0  0  0  0
    5.9508  -16.9691   24.7250 C   0  0  0  0  0  0  0  0  0  0  0  0
    6.0329  -15.5189   24.4840 C   0  0  0  0  0  0  0  0  0  0  0  0
    6.0178  -14.8880   23.2277 C   0  0  0  0  0  0  0  0  0  0  0  0
    6.1510  -13.5638   23.3780 N   0  0  0  0  0  0  0  0  0  0  0  0
    6.2550  -13.2773   24.6947 C   0  0  0  0  0  0  0  0  0  0  0  0
    6.3892  -12.0922   25.4044 C   0  0  0  0  0  0  0  0  0  0  0  0
    6.4492  -12.0998   26.7832 C   0  0  0  0  0  0  0  0  0  0  0  0
    6.3771  -13.2795   27.4725 C   0  0  0  0  0  0  0  0  0  0  0  0
    6.2450  -14.4554   26.7716 C   0  0  0  0  0  0  0  0  0  0  0  0
    6.1841  -14.4610   25.3814 C   0  0  0  0  0  0  0  0  0  0  0  0
    7.1982  -19.0650   24.4567 C   0  0  0  0  0  0  0  0  0  0  0  0
    6.4695  -19.9174   25.2987 O   0  0  0  0  0  0  0  0  0  0  0  0
    7.7546  -19.5625   23.4512 O   0  0  0  0  0  0  0  0  0  0  0  0
  1  2  1  0
  3  2  1  0
  4  5  1  0
  4  3  1  0
  5  6  1  1
  5  1  1  0
  6  7  2  0
  8  9  1  0
  9 19  2  0
  9 10  1  0
 10 11  2  0
 11 12  1  0
 12 13  1  0
 14 13  1  1
 15 14  1  0
 15  6  1  0
 16 14  1  0
 16 17  2  0
 18 12  2  0
 19 18  1  0
 20 16  1  0
 21 20  1  0
 21 32  1  0
 21 22  1  6
 23 22  1  0
 24 23  2  0
 25 26  1  0
 25 24  1  0
 26 31  2  0
 27 26  1  0
 27 28  2  0
 28 29  1  0
 29 30  2  0
 31 23  1  0
 31 30  1  0
 32 33  1  0
 34 32  2  0
M  END
$$$$
