PYW.pdb
     RDKit          3D

 34 37  0  0  1  0  0  0  0  0999 V2000
    6.9346  -18.3433   21.2177 N   0  0  0  0  0  0  0  0  0  0  0  0
    5.8325  -18.0028   20.3510 C   0  0  0  0  0  0  0  0  0  0  0  0
    6.4145  -17.5399   19.0433 C   0  0  0  0  0  0  0  0  0  0  0  0
    7.6610  -18.4281   18.9622 C   0  0  0  0  0  0  0  0  0  0  0  0
    8.0920  -18.5940   20.4090 C   0  0  1  0  0  0  0  0  0  0  0  0
    9.1534  -17.6009   20.7162 C   0  0  0  0  0  0  0  0  0  0  0  0
   10.2710  -17.6956   20.1479 O   0  0  0  0  0  0  0  0  0  0  0  0
    7.2072  -13.3114   16.6394 O   0  0  0  0  0  0  0  0  0  0  0  0
    7.7988  -13.5210   17.9015 C   0  0  0  0  0  0  0  0  0  0  0  0
    7.0371  -13.6811   19.0288 C   0  0  0  0  0  0  0  0  0  0  0  0
    7.6284  -13.8890   20.2778 C   0  0  0  0  0  0  0  0  0  0  0  0
    8.9962  -13.9396   20.4167 C   0  0  0  0  0  0  0  0  0  0  0  0
    9.5978  -14.1564   21.7212 C   0  0  0  0  0  0  0  0  0  0  0  0
    9.9876  -15.5882   21.9928 C   0  0  2  0  0  0  0  0  0  0  0  0
    8.9818  -16.5326   21.6276 N   0  0  0  0  0  0  0  0  0  0  0  0
   10.4332  -15.7643   23.3762 C   0  0  0  0  0  0  0  0  0  0  0  0
   11.3969  -15.0355   23.7965 O   0  0  0  0  0  0  0  0  0  0  0  0
    9.7398  -13.7766   19.2747 C   0  0  0  0  0  0  0  0  0  0  0  0
    9.1750  -13.5709   18.0342 C   0  0  0  0  0  0  0  0  0  0  0  0
    9.8491  -16.6977   24.2628 N   0  0  0  0  0  0  0  0  0  0  0  0
   10.1635  -16.6699   25.7026 C   0  0  1  0  0  0  0  0  0  0  0  0
    9.7631  -15.3323   26.1850 C   0  0  0  0  0  0  0  0  0  0  0  0
    8.3221  -15.0492   26.0810 C   0  0  0  0  0  0  0  0  0  0  0  0
    7.3374  -15.9368   25.6128 C   0  0  0  0  0  0  0  0  0  0  0  0
    6.1402  -15.3363   25.6155 N   0  0  0  0  0  0  0  0  0  0  0  0
    6.2817  -14.0718   26.0709 C   0  0  0  0  0  0  0  0  0  0  0  0
    5.3879  -13.0337   26.2941 C   0  0  0  0  0  0  0  0  0  0  0  0
    5.8234  -11.8261   26.8010 C   0  0  0  0  0  0  0  0  0  0  0  0
    7.1466  -11.6342   27.0915 C   0  0  0  0  0  0  0  0  0  0  0  0
    8.0344  -12.6610   26.8704 C   0  0  0  0  0  0  0  0  0  0  0  0
    7.6079  -13.8829   26.3591 C   0  0  0  0  0  0  0  0  0  0  0  0
    9.5138  -17.7624   26.4157 C   0  0  0  0  0  0  0  0  0  0  0  0
    8.7634  -18.6758   25.6612 O   0  0  0  0  0  0  0  0  0  0  0  0
    9.5832  -17.9357   27.6540 O   0  0  0  0  0  0  0  0  0  0  0  0
  1  2  1  0
  3  2  1  0
  4  5  1  0
  4  3  1  0
  5  6  1  1
  5  1  1  0
  6  7  2  0
  8  9  1  0
  9 19  2  0
  9 10  1  0
 10 11  2  0
 11 12  1  0
 12 13  1  0
 14 13  1  1
 15 14  1  0
 15  6  1  0
 16 14  1  0
 16 17  2  0
 18 12  2  0
 19 18  1  0
 20 16  1  0
 21 20  1  0
 21 32  1  0
 21 22  1  1
 23 22  1  0
 24 23  2  0
 25 26  1  0
 25 24  1  0
 26 31  2  0
 27 26  1  0
 27 28  2  0
 28 29  1  0
 29 30  2  0
 31 23  1  0
 31 30  1  0
 32 33  1  0
 34 32  2  0
M  END
$$$$
