PYW.pdb
     RDKit          3D

 34 37  0  0  1  0  0  0  0  0999 V2000
    8.3850  -18.8931   18.8999 N   0  0  0  0  0  0  0  0  0  0  0  0
    7.5831  -18.9236   17.7010 C   0  0  0  0  0  0  0  0  0  0  0  0
    7.5275  -17.5208   17.1606 C   0  0  0  0  0  0  0  0  0  0  0  0
    8.9186  -17.0135   17.5568 C   0  0  0  0  0  0  0  0  0  0  0  0
    9.2111  -17.7214   18.8681 C   0  0  1  0  0  0  0  0  0  0  0  0
    8.8604  -16.8196   19.9955 C   0  0  0  0  0  0  0  0  0  0  0  0
    9.3265  -15.6521   20.0205 O   0  0  0  0  0  0  0  0  0  0  0  0
    2.4752  -19.1124   19.4850 O   0  0  0  0  0  0  0  0  0  0  0  0
    3.4515  -18.5446   20.3283 C   0  0  0  0  0  0  0  0  0  0  0  0
    3.7336  -17.2045   20.2917 C   0  0  0  0  0  0  0  0  0  0  0  0
    4.7022  -16.6462   21.1301 C   0  0  0  0  0  0  0  0  0  0  0  0
    5.4053  -17.4245   22.0205 C   0  0  0  0  0  0  0  0  0  0  0  0
    6.4096  -16.8311   22.8863 C   0  0  0  0  0  0  0  0  0  0  0  0
    7.6521  -16.3686   22.1664 C   0  0  2  0  0  0  0  0  0  0  0  0
    8.0168  -17.2002   21.0654 N   0  0  0  0  0  0  0  0  0  0  0  0
    8.7632  -16.1693   23.0988 C   0  0  0  0  0  0  0  0  0  0  0  0
    9.6987  -15.3658   22.7588 O   0  0  0  0  0  0  0  0  0  0  0  0
    5.1067  -18.7640   22.0401 C   0  0  0  0  0  0  0  0  0  0  0  0
    4.1548  -19.3330   21.2215 C   0  0  0  0  0  0  0  0  0  0  0  0
    8.8472  -16.8209   24.3506 N   0  0  0  0  0  0  0  0  0  0  0  0
    9.9455  -16.5193   25.2861 C   0  0  1  0  0  0  0  0  0  0  0  0
    9.7947  -15.0961   25.6520 C   0  0  0  0  0  0  0  0  0  0  0  0
    8.4058  -14.6671   25.8855 C   0  0  0  0  0  0  0  0  0  0  0  0
    7.2638  -15.4828   25.8011 C   0  0  0  0  0  0  0  0  0  0  0  0
    6.1631  -14.7563   26.0343 N   0  0  0  0  0  0  0  0  0  0  0  0
    6.5222  -13.4758   26.2748 C   0  0  0  0  0  0  0  0  0  0  0  0
    5.8070  -12.3279   26.5864 C   0  0  0  0  0  0  0  0  0  0  0  0
    6.4576  -11.1311   26.8081 C   0  0  0  0  0  0  0  0  0  0  0  0
    7.8212  -11.0586   26.7235 C   0  0  0  0  0  0  0  0  0  0  0  0
    8.5323  -12.1944   26.4140 C   0  0  0  0  0  0  0  0  0  0  0  0
    7.8880  -13.4068   26.1876 C   0  0  0  0  0  0  0  0  0  0  0  0
    9.9358  -17.4176   26.4338 C   0  0  0  0  0  0  0  0  0  0  0  0
    8.9549  -18.4193   26.4669 O   0  0  0  0  0  0  0  0  0  0  0  0
   10.7445  -17.3514   27.3877 O   0  0  0  0  0  0  0  0  0  0  0  0
  1  2  1  0
  3  2  1  0
  4  5  1  0
  4  3  1  0
  5  6  1  1
  5  1  1  0
  6  7  2  0
  8  9  1  0
  9 19  2  0
  9 10  1  0
 10 11  2  0
 11 12  1  0
 12 13  1  0
 14 13  1  1
 15 14  1  0
 15  6  1  0
 16 14  1  0
 16 17  2  0
 18 12  2  0
 19 18  1  0
 20 16  1  0
 21 20  1  0
 21 32  1  0
 21 22  1  1
 23 22  1  0
 24 23  2  0
 25 26  1  0
 25 24  1  0
 26 31  2  0
 27 26  1  0
 27 28  2  0
 28 29  1  0
 29 30  2  0
 31 23  1  0
 31 30  1  0
 32 33  1  0
 34 32  2  0
M  END
$$$$
