PYW.pdb
     RDKit          3D

 34 37  0  0  1  0  0  0  0  0999 V2000
    6.6881  -19.4059   21.7972 N   0  0  0  0  0  0  0  0  0  0  0  0
    5.5768  -19.5193   20.8841 C   0  0  0  0  0  0  0  0  0  0  0  0
    6.0840  -19.1689   19.5119 C   0  0  0  0  0  0  0  0  0  0  0  0
    7.5152  -19.7110   19.5961 C   0  0  0  0  0  0  0  0  0  0  0  0
    7.9072  -19.4968   21.0476 C   0  0  1  0  0  0  0  0  0  0  0  0
    8.6718  -18.2282   21.1619 C   0  0  0  0  0  0  0  0  0  0  0  0
    9.7775  -18.1183   20.5735 O   0  0  0  0  0  0  0  0  0  0  0  0
    8.1895  -12.9982   16.2497 O   0  0  0  0  0  0  0  0  0  0  0  0
    8.1440  -13.4131   17.5960 C   0  0  0  0  0  0  0  0  0  0  0  0
    7.4498  -12.7017   18.5387 C   0  0  0  0  0  0  0  0  0  0  0  0
    7.4074  -13.1174   19.8722 C   0  0  0  0  0  0  0  0  0  0  0  0
    8.0621  -14.2556   20.2828 C   0  0  0  0  0  0  0  0  0  0  0  0
    8.0097  -14.6763   21.6723 C   0  0  0  0  0  0  0  0  0  0  0  0
    8.8939  -15.8551   21.9958 C   0  0  2  0  0  0  0  0  0  0  0  0
    8.2242  -17.1121   21.9073 N   0  0  0  0  0  0  0  0  0  0  0  0
    9.5656  -15.6775   23.2845 C   0  0  0  0  0  0  0  0  0  0  0  0
   10.3692  -14.6907   23.4145 O   0  0  0  0  0  0  0  0  0  0  0  0
    8.7513  -14.9527   19.3221 C   0  0  0  0  0  0  0  0  0  0  0  0
    8.8045  -14.5589   18.0022 C   0  0  0  0  0  0  0  0  0  0  0  0
    9.3664  -16.5425   24.3848 N   0  0  0  0  0  0  0  0  0  0  0  0
   10.0888  -16.3303   25.6520 C   0  0  1  0  0  0  0  0  0  0  0  0
    9.0574  -16.2667   26.7076 C   0  0  0  0  0  0  0  0  0  0  0  0
    7.8850  -15.4425   26.3701 C   0  0  0  0  0  0  0  0  0  0  0  0
    6.6880  -15.9046   25.7954 C   0  0  0  0  0  0  0  0  0  0  0  0
    5.8534  -14.8781   25.5868 N   0  0  0  0  0  0  0  0  0  0  0  0
    6.4454  -13.7364   26.0021 C   0  0  0  0  0  0  0  0  0  0  0  0
    6.0378  -12.4102   26.0386 C   0  0  0  0  0  0  0  0  0  0  0  0
    6.8656  -11.4328   26.5525 C   0  0  0  0  0  0  0  0  0  0  0  0
    8.1039  -11.7580   27.0349 C   0  0  0  0  0  0  0  0  0  0  0  0
    8.5107  -13.0714   26.9991 C   0  0  0  0  0  0  0  0  0  0  0  0
    7.6856  -14.0659   26.4828 C   0  0  0  0  0  0  0  0  0  0  0  0
   11.0893  -17.3653   25.8799 C   0  0  0  0  0  0  0  0  0  0  0  0
   11.2098  -18.3765   24.9158 O   0  0  0  0  0  0  0  0  0  0  0  0
   11.8444  -17.4081   26.8781 O   0  0  0  0  0  0  0  0  0  0  0  0
  1  2  1  0
  3  2  1  0
  4  5  1  0
  4  3  1  0
  5  6  1  6
  5  1  1  0
  6  7  2  0
  8  9  1  0
  9 19  2  0
  9 10  1  0
 10 11  2  0
 11 12  1  0
 12 13  1  0
 14 13  1  1
 15 14  1  0
 15  6  1  0
 16 14  1  0
 16 17  2  0
 18 12  2  0
 19 18  1  0
 20 16  1  0
 21 20  1  0
 21 32  1  0
 21 22  1  1
 23 22  1  0
 24 23  2  0
 25 26  1  0
 25 24  1  0
 26 31  2  0
 27 26  1  0
 27 28  2  0
 28 29  1  0
 29 30  2  0
 31 23  1  0
 31 30  1  0
 32 33  1  0
 34 32  2  0
M  END
$$$$
