PYW.pdb
     RDKit          3D

 34 37  0  0  1  0  0  0  0  0999 V2000
    7.9471  -18.7959   20.4661 N   0  0  0  0  0  0  0  0  0  0  0  0
    7.1050  -18.6533   19.3033 C   0  0  0  0  0  0  0  0  0  0  0  0
    7.8967  -17.9099   18.2623 C   0  0  0  0  0  0  0  0  0  0  0  0
    9.3070  -18.4324   18.5580 C   0  0  0  0  0  0  0  0  0  0  0  0
    9.3147  -18.6463   20.0616 C   0  0  1  0  0  0  0  0  0  0  0  0
    9.9133  -17.4556   20.7182 C   0  0  0  0  0  0  0  0  0  0  0  0
   11.1150  -17.1639   20.4912 O   0  0  0  0  0  0  0  0  0  0  0  0
    6.8941  -13.1834   16.8574 O   0  0  0  0  0  0  0  0  0  0  0  0
    7.3596  -13.4480   18.1613 C   0  0  0  0  0  0  0  0  0  0  0  0
    6.6993  -14.3139   18.9925 C   0  0  0  0  0  0  0  0  0  0  0  0
    7.1651  -14.5733   20.2842 C   0  0  0  0  0  0  0  0  0  0  0  0
    8.3029  -13.9670   20.7644 C   0  0  0  0  0  0  0  0  0  0  0  0
    8.7759  -14.2456   22.1094 C   0  0  0  0  0  0  0  0  0  0  0  0
    9.7136  -15.4236   22.2040 C   0  0  2  0  0  0  0  0  0  0  0  0
    9.2005  -16.6113   21.6018 N   0  0  0  0  0  0  0  0  0  0  0  0
   10.1471  -15.6480   23.5843 C   0  0  0  0  0  0  0  0  0  0  0  0
   11.0521  -14.8818   24.0641 O   0  0  0  0  0  0  0  0  0  0  0  0
    8.9482  -13.1033   19.9151 C   0  0  0  0  0  0  0  0  0  0  0  0
    8.5046  -12.8350   18.6378 C   0  0  0  0  0  0  0  0  0  0  0  0
    9.6128  -16.6673   24.4055 N   0  0  0  0  0  0  0  0  0  0  0  0
   10.0793  -16.8408   25.7929 C   0  0  1  0  0  0  0  0  0  0  0  0
    9.7936  -15.5674   26.4850 C   0  0  0  0  0  0  0  0  0  0  0  0
    8.3929  -15.1227   26.3968 C   0  0  0  0  0  0  0  0  0  0  0  0
    7.2760  -15.9484   26.1789 C   0  0  0  0  0  0  0  0  0  0  0  0
    6.1628  -15.2065   26.1150 N   0  0  0  0  0  0  0  0  0  0  0  0
    6.4889  -13.9058   26.2834 C   0  0  0  0  0  0  0  0  0  0  0  0
    5.7454  -12.7346   26.3262 C   0  0  0  0  0  0  0  0  0  0  0  0
    6.3597  -11.5178   26.5418 C   0  0  0  0  0  0  0  0  0  0  0  0
    7.7149  -11.4480   26.7170 C   0  0  0  0  0  0  0  0  0  0  0  0
    8.4541  -12.6070   26.6742 C   0  0  0  0  0  0  0  0  0  0  0  0
    7.8466  -13.8399   26.4568 C   0  0  0  0  0  0  0  0  0  0  0  0
    9.4600  -17.9976   26.4273 C   0  0  0  0  0  0  0  0  0  0  0  0
    9.8633  -18.3169   27.7319 O   0  0  0  0  0  0  0  0  0  0  0  0
    8.5946  -18.7209   25.8831 O   0  0  0  0  0  0  0  0  0  0  0  0
  1  2  1  0
  3  2  1  0
  4  5  1  0
  4  3  1  0
  5  6  1  1
  5  1  1  0
  6  7  2  0
  8  9  1  0
  9 19  2  0
  9 10  1  0
 10 11  2  0
 11 12  1  0
 12 13  1  0
 14 13  1  1
 15 14  1  0
 15  6  1  0
 16 14  1  0
 16 17  2  0
 18 12  2  0
 19 18  1  0
 20 16  1  0
 21 20  1  0
 21 32  1  0
 21 22  1  1
 23 22  1  0
 24 23  2  0
 25 26  1  0
 25 24  1  0
 26 31  2  0
 27 26  1  0
 27 28  2  0
 28 29  1  0
 29 30  2  0
 31 23  1  0
 31 30  1  0
 32 33  1  0
 34 32  2  0
M  END
$$$$
