PYW.pdb
     RDKit          3D

 34 37  0  0  1  0  0  0  0  0999 V2000
    8.9821  -14.6761   18.3092 N   0  0  0  0  0  0  0  0  0  0  0  0
    7.8298  -14.0992   17.6604 C   0  0  0  0  0  0  0  0  0  0  0  0
    7.0438  -13.3625   18.7104 C   0  0  0  0  0  0  0  0  0  0  0  0
    8.1793  -12.8647   19.6116 C   0  0  0  0  0  0  0  0  0  0  0  0
    9.2256  -13.9623   19.5289 C   0  0  1  0  0  0  0  0  0  0  0  0
    9.0676  -14.8724   20.6925 C   0  0  0  0  0  0  0  0  0  0  0  0
    9.0560  -14.3927   21.8546 O   0  0  0  0  0  0  0  0  0  0  0  0
    8.8762  -20.5195   15.9253 O   0  0  0  0  0  0  0  0  0  0  0  0
    9.2991  -19.9139   17.1258 C   0  0  0  0  0  0  0  0  0  0  0  0
    8.6553  -20.1534   18.3111 C   0  0  0  0  0  0  0  0  0  0  0  0
    9.0786  -19.5508   19.4987 C   0  0  0  0  0  0  0  0  0  0  0  0
   10.1566  -18.6962   19.5169 C   0  0  0  0  0  0  0  0  0  0  0  0
   10.5860  -18.0765   20.7587 C   0  0  0  0  0  0  0  0  0  0  0  0
    9.5253  -17.2426   21.4334 C   0  0  2  0  0  0  0  0  0  0  0  0
    8.9264  -16.2749   20.5722 N   0  0  0  0  0  0  0  0  0  0  0  0
   10.0279  -16.6435   22.6711 C   0  0  0  0  0  0  0  0  0  0  0  0
   10.9084  -15.7200   22.5796 O   0  0  0  0  0  0  0  0  0  0  0  0
   10.7865  -18.4704   18.3185 C   0  0  0  0  0  0  0  0  0  0  0  0
   10.3840  -19.0555   17.1371 C   0  0  0  0  0  0  0  0  0  0  0  0
    9.5857  -17.0374   23.9549 N   0  0  0  0  0  0  0  0  0  0  0  0
   10.0637  -16.3426   25.1637 C   0  0  1  0  0  0  0  0  0  0  0  0
    9.7103  -14.9192   24.9867 C   0  0  0  0  0  0  0  0  0  0  0  0
    8.3201  -14.5846   25.3376 C   0  0  0  0  0  0  0  0  0  0  0  0
    7.2022  -15.4213   25.1736 C   0  0  0  0  0  0  0  0  0  0  0  0
    6.0904  -14.7817   25.5588 N   0  0  0  0  0  0  0  0  0  0  0  0
    6.4186  -13.5398   25.9790 C   0  0  0  0  0  0  0  0  0  0  0  0
    5.6816  -12.4811   26.4911 C   0  0  0  0  0  0  0  0  0  0  0  0
    6.3027  -11.3079   26.8685 C   0  0  0  0  0  0  0  0  0  0  0  0
    7.6583  -11.1709   26.7426 C   0  0  0  0  0  0  0  0  0  0  0  0
    8.3908  -12.2182   26.2345 C   0  0  0  0  0  0  0  0  0  0  0  0
    7.7762  -13.4059   25.8498 C   0  0  0  0  0  0  0  0  0  0  0  0
    9.5097  -16.9314   26.3764 C   0  0  0  0  0  0  0  0  0  0  0  0
   10.0376  -16.5076   27.6046 O   0  0  0  0  0  0  0  0  0  0  0  0
    8.5963  -17.7880   26.3904 O   0  0  0  0  0  0  0  0  0  0  0  0
  1  2  1  0
  3  2  1  0
  4  5  1  0
  4  3  1  0
  5  6  1  1
  5  1  1  0
  6  7  2  0
  8  9  1  0
  9 19  2  0
  9 10  1  0
 10 11  2  0
 11 12  1  0
 12 13  1  0
 14 13  1  6
 15 14  1  0
 15  6  1  0
 16 14  1  0
 16 17  2  0
 18 12  2  0
 19 18  1  0
 20 16  1  0
 21 20  1  0
 21 32  1  0
 21 22  1  6
 23 22  1  0
 24 23  2  0
 25 26  1  0
 25 24  1  0
 26 31  2  0
 27 26  1  0
 27 28  2  0
 28 29  1  0
 29 30  2  0
 31 23  1  0
 31 30  1  0
 32 33  1  0
 34 32  2  0
M  END
$$$$
