PYW.pdb
     RDKit          3D

 34 37  0  0  1  0  0  0  0  0999 V2000
    9.4162  -13.1404   19.5901 N   0  0  0  0  0  0  0  0  0  0  0  0
    9.2890  -13.0792   18.1543 C   0  0  0  0  0  0  0  0  0  0  0  0
    8.3337  -14.1650   17.7402 C   0  0  0  0  0  0  0  0  0  0  0  0
    7.3831  -14.1744   18.9425 C   0  0  0  0  0  0  0  0  0  0  0  0
    8.2745  -13.8261   20.1217 C   0  0  1  0  0  0  0  0  0  0  0  0
    8.7007  -15.0799   20.7951 C   0  0  0  0  0  0  0  0  0  0  0  0
    7.8382  -15.9448   21.0932 O   0  0  0  0  0  0  0  0  0  0  0  0
   15.3368  -13.8090   18.5714 O   0  0  0  0  0  0  0  0  0  0  0  0
   14.4202  -14.6597   19.2215 C   0  0  0  0  0  0  0  0  0  0  0  0
   14.6188  -15.0680   20.5140 C   0  0  0  0  0  0  0  0  0  0  0  0
   13.7068  -15.9113   21.1544 C   0  0  0  0  0  0  0  0  0  0  0  0
   12.5786  -16.3599   20.5074 C   0  0  0  0  0  0  0  0  0  0  0  0
   11.6387  -17.2362   21.1850 C   0  0  0  0  0  0  0  0  0  0  0  0
   10.4898  -16.5176   21.8479 C   0  0  2  0  0  0  0  0  0  0  0  0
   10.0449  -15.3677   21.1292 N   0  0  0  0  0  0  0  0  0  0  0  0
   10.7917  -16.2106   23.2472 C   0  0  0  0  0  0  0  0  0  0  0  0
   11.7153  -15.3601   23.4922 O   0  0  0  0  0  0  0  0  0  0  0  0
   12.3996  -15.9387   19.2134 C   0  0  0  0  0  0  0  0  0  0  0  0
   13.2875  -15.1071   18.5651 C   0  0  0  0  0  0  0  0  0  0  0  0
   10.1115  -16.8083   24.3330 N   0  0  0  0  0  0  0  0  0  0  0  0
   10.3174  -16.3256   25.7103 C   0  0  1  0  0  0  0  0  0  0  0  0
    9.8280  -14.9320   25.7351 C   0  0  0  0  0  0  0  0  0  0  0  0
    8.3753  -14.7960   25.9321 C   0  0  0  0  0  0  0  0  0  0  0  0
    7.4117  -15.7903   25.6882 C   0  0  0  0  0  0  0  0  0  0  0  0
    6.1858  -15.3112   25.9358 N   0  0  0  0  0  0  0  0  0  0  0  0
    6.2875  -14.0257   26.3401 C   0  0  0  0  0  0  0  0  0  0  0  0
    5.3573  -13.0746   26.7358 C   0  0  0  0  0  0  0  0  0  0  0  0
    5.7616  -11.8151   27.1294 C   0  0  0  0  0  0  0  0  0  0  0  0
    7.0893  -11.4847   27.1351 C   0  0  0  0  0  0  0  0  0  0  0  0
    8.0130  -12.4250   26.7425 C   0  0  0  0  0  0  0  0  0  0  0  0
    7.6180  -13.6980   26.3428 C   0  0  0  0  0  0  0  0  0  0  0  0
    9.6622  -17.1880   26.6856 C   0  0  0  0  0  0  0  0  0  0  0  0
    9.9456  -16.9686   28.0414 O   0  0  0  0  0  0  0  0  0  0  0  0
    8.8660  -18.1084   26.3902 O   0  0  0  0  0  0  0  0  0  0  0  0
  1  2  1  0
  3  2  1  0
  4  5  1  0
  4  3  1  0
  5  6  1  6
  5  1  1  0
  6  7  2  0
  8  9  1  0
  9 19  2  0
  9 10  1  0
 10 11  2  0
 11 12  1  0
 12 13  1  0
 14 13  1  6
 15 14  1  0
 15  6  1  0
 16 14  1  0
 16 17  2  0
 18 12  2  0
 19 18  1  0
 20 16  1  0
 21 20  1  0
 21 32  1  0
 21 22  1  6
 23 22  1  0
 24 23  2  0
 25 26  1  0
 25 24  1  0
 26 31  2  0
 27 26  1  0
 27 28  2  0
 28 29  1  0
 29 30  2  0
 31 23  1  0
 31 30  1  0
 32 33  1  0
 34 32  2  0
M  END
$$$$
