PYW.pdb
     RDKit          3D

 34 37  0  0  1  0  0  0  0  0999 V2000
    9.4432  -14.1107   18.5584 N   0  0  0  0  0  0  0  0  0  0  0  0
    8.4874  -14.1291   17.4777 C   0  0  0  0  0  0  0  0  0  0  0  0
    7.1147  -14.1715   18.0915 C   0  0  0  0  0  0  0  0  0  0  0  0
    7.3483  -13.3386   19.3568 C   0  0  0  0  0  0  0  0  0  0  0  0
    8.7831  -13.6502   19.7452 C   0  0  1  0  0  0  0  0  0  0  0  0
    8.7855  -14.7189   20.7772 C   0  0  0  0  0  0  0  0  0  0  0  0
    8.0734  -14.5865   21.8050 O   0  0  0  0  0  0  0  0  0  0  0  0
   10.2811  -22.4982   24.8554 O   0  0  0  0  0  0  0  0  0  0  0  0
   10.2826  -21.4310   23.9346 C   0  0  0  0  0  0  0  0  0  0  0  0
   11.3355  -20.5580   23.8561 C   0  0  0  0  0  0  0  0  0  0  0  0
   11.3325  -19.5017   22.9412 C   0  0  0  0  0  0  0  0  0  0  0  0
   10.2711  -19.3032   22.0886 C   0  0  0  0  0  0  0  0  0  0  0  0
   10.2810  -18.2009   21.1424 C   0  0  0  0  0  0  0  0  0  0  0  0
    9.5778  -16.9591   21.6315 C   0  0  2  0  0  0  0  0  0  0  0  0
    9.5552  -15.9013   20.6738 N   0  0  0  0  0  0  0  0  0  0  0  0
   10.1091  -16.5218   22.9238 C   0  0  0  0  0  0  0  0  0  0  0  0
   11.0710  -15.6784   22.9259 O   0  0  0  0  0  0  0  0  0  0  0  0
    9.2273  -20.1892   22.1845 C   0  0  0  0  0  0  0  0  0  0  0  0
    9.2121  -21.2371   23.0799 C   0  0  0  0  0  0  0  0  0  0  0  0
    9.6091  -16.9869   24.1617 N   0  0  0  0  0  0  0  0  0  0  0  0
   10.1030  -16.4280   25.4330 C   0  0  1  0  0  0  0  0  0  0  0  0
    9.7981  -14.9832   25.3930 C   0  0  0  0  0  0  0  0  0  0  0  0
    8.3739  -14.6523   25.5655 C   0  0  0  0  0  0  0  0  0  0  0  0
    7.2902  -15.5149   25.3243 C   0  0  0  0  0  0  0  0  0  0  0  0
    6.1355  -14.8731   25.5448 N   0  0  0  0  0  0  0  0  0  0  0  0
    6.4016  -13.6048   25.9281 C   0  0  0  0  0  0  0  0  0  0  0  0
    5.6008  -12.5315   26.2929 C   0  0  0  0  0  0  0  0  0  0  0  0
    6.1635  -11.3293   26.6706 C   0  0  0  0  0  0  0  0  0  0  0  0
    7.5230  -11.1774   26.6908 C   0  0  0  0  0  0  0  0  0  0  0  0
    8.3189  -12.2391   26.3288 C   0  0  0  0  0  0  0  0  0  0  0  0
    7.7637  -13.4561   25.9454 C   0  0  0  0  0  0  0  0  0  0  0  0
    9.5229  -17.1119   26.5819 C   0  0  0  0  0  0  0  0  0  0  0  0
   10.0957  -16.8709   27.8391 O   0  0  0  0  0  0  0  0  0  0  0  0
    8.5498  -17.8974   26.5172 O   0  0  0  0  0  0  0  0  0  0  0  0
  1  2  1  0
  3  2  1  0
  4  5  1  0
  4  3  1  0
  5  6  1  1
  5  1  1  0
  6  7  2  0
  8  9  1  0
  9 19  2  0
  9 10  1  0
 10 11  2  0
 11 12  1  0
 12 13  1  0
 14 13  1  6
 15 14  1  0
 15  6  1  0
 16 14  1  0
 16 17  2  0
 18 12  2  0
 19 18  1  0
 20 16  1  0
 21 20  1  0
 21 32  1  0
 21 22  1  1
 23 22  1  0
 24 23  2  0
 25 26  1  0
 25 24  1  0
 26 31  2  0
 27 26  1  0
 27 28  2  0
 28 29  1  0
 29 30  2  0
 31 23  1  0
 31 30  1  0
 32 33  1  0
 34 32  2  0
M  END
$$$$
