PYW.pdb
     RDKit          3D

 34 37  0  0  1  0  0  0  0  0999 V2000
    8.3801  -20.2053   20.5240 N   0  0  0  0  0  0  0  0  0  0  0  0
    7.3981  -20.3447   19.4762 C   0  0  0  0  0  0  0  0  0  0  0  0
    7.8122  -19.4400   18.3479 C   0  0  0  0  0  0  0  0  0  0  0  0
    9.3379  -19.5304   18.4627 C   0  0  0  0  0  0  0  0  0  0  0  0
    9.5884  -19.6859   19.9525 C   0  0  1  0  0  0  0  0  0  0  0  0
    9.8963  -18.3541   20.5347 C   0  0  0  0  0  0  0  0  0  0  0  0
   11.0163  -17.8275   20.3136 O   0  0  0  0  0  0  0  0  0  0  0  0
    7.6455  -11.7477   17.5760 O   0  0  0  0  0  0  0  0  0  0  0  0
    7.7263  -12.6670   18.6414 C   0  0  0  0  0  0  0  0  0  0  0  0
    8.5572  -12.4506   19.7089 C   0  0  0  0  0  0  0  0  0  0  0  0
    8.6335  -13.3649   20.7630 C   0  0  0  0  0  0  0  0  0  0  0  0
    7.8763  -14.5135   20.7634 C   0  0  0  0  0  0  0  0  0  0  0  0
    7.9655  -15.4556   21.8657 C   0  0  0  0  0  0  0  0  0  0  0  0
    9.2078  -16.3113   21.8496 C   0  0  2  0  0  0  0  0  0  0  0  0
    8.9887  -17.6260   21.3394 N   0  0  0  0  0  0  0  0  0  0  0  0
    9.8571  -16.3300   23.1617 C   0  0  0  0  0  0  0  0  0  0  0  0
   10.9499  -15.6803   23.3029 O   0  0  0  0  0  0  0  0  0  0  0  0
    7.0513  -14.7102   19.6844 C   0  0  0  0  0  0  0  0  0  0  0  0
    6.9620  -13.8201   18.6356 C   0  0  0  0  0  0  0  0  0  0  0  0
    9.3328  -17.0294   24.2729 N   0  0  0  0  0  0  0  0  0  0  0  0
    9.9163  -16.8590   25.6156 C   0  0  1  0  0  0  0  0  0  0  0  0
    9.7029  -15.4435   25.9801 C   0  0  0  0  0  0  0  0  0  0  0  0
    8.2915  -15.0257   26.0150 C   0  0  0  0  0  0  0  0  0  0  0  0
    7.1841  -15.8278   25.6883 C   0  0  0  0  0  0  0  0  0  0  0  0
    6.0551  -15.1146   25.7911 N   0  0  0  0  0  0  0  0  0  0  0  0
    6.3616  -13.8563   26.1775 C   0  0  0  0  0  0  0  0  0  0  0  0
    5.5973  -12.7303   26.4501 C   0  0  0  0  0  0  0  0  0  0  0  0
    6.1950  -11.5556   26.8594 C   0  0  0  0  0  0  0  0  0  0  0  0
    7.5538  -11.4837   27.0027 C   0  0  0  0  0  0  0  0  0  0  0  0
    8.3135  -12.5978   26.7323 C   0  0  0  0  0  0  0  0  0  0  0  0
    7.7229  -13.7878   26.3183 C   0  0  0  0  0  0  0  0  0  0  0  0
    9.3444  -17.7973   26.5731 C   0  0  0  0  0  0  0  0  0  0  0  0
    8.3654  -18.6864   26.1065 O   0  0  0  0  0  0  0  0  0  0  0  0
    9.6709  -17.8590   27.7805 O   0  0  0  0  0  0  0  0  0  0  0  0
  1  2  1  0
  3  2  1  0
  4  5  1  0
  4  3  1  0
  5  6  1  1
  5  1  1  0
  6  7  2  0
  8  9  1  0
  9 19  2  0
  9 10  1  0
 10 11  2  0
 11 12  1  0
 12 13  1  0
 14 13  1  1
 15 14  1  0
 15  6  1  0
 16 14  1  0
 16 17  2  0
 18 12  2  0
 19 18  1  0
 20 16  1  0
 21 20  1  0
 21 32  1  0
 21 22  1  1
 23 22  1  0
 24 23  2  0
 25 26  1  0
 25 24  1  0
 26 31  2  0
 27 26  1  0
 27 28  2  0
 28 29  1  0
 29 30  2  0
 31 23  1  0
 31 30  1  0
 32 33  1  0
 34 32  2  0
M  END
$$$$
