PYW.pdb
     RDKit          3D

 34 37  0  0  1  0  0  0  0  0999 V2000
    7.5676  -18.6120   21.0414 N   0  0  0  0  0  0  0  0  0  0  0  0
    6.7238  -18.4566   19.8814 C   0  0  0  0  0  0  0  0  0  0  0  0
    7.5628  -17.8446   18.7930 C   0  0  0  0  0  0  0  0  0  0  0  0
    8.9251  -18.4756   19.1021 C   0  0  0  0  0  0  0  0  0  0  0  0
    8.9367  -18.6083   20.6150 C   0  0  1  0  0  0  0  0  0  0  0  0
    9.6495  -17.4429   21.1991 C   0  0  0  0  0  0  0  0  0  0  0  0
   10.8330  -17.2037   20.8484 O   0  0  0  0  0  0  0  0  0  0  0  0
    6.9916  -13.1931   17.2619 O   0  0  0  0  0  0  0  0  0  0  0  0
    7.4560  -13.4303   18.5714 C   0  0  0  0  0  0  0  0  0  0  0  0
    8.7079  -13.0383   18.9664 C   0  0  0  0  0  0  0  0  0  0  0  0
    9.1636  -13.2755   20.2660 C   0  0  0  0  0  0  0  0  0  0  0  0
    8.3696  -13.9112   21.1924 C   0  0  0  0  0  0  0  0  0  0  0  0
    8.8560  -14.1515   22.5400 C   0  0  0  0  0  0  0  0  0  0  0  0
    9.6895  -15.4007   22.6837 C   0  0  2  0  0  0  0  0  0  0  0  0
    9.0675  -16.5669   22.1453 N   0  0  0  0  0  0  0  0  0  0  0  0
   10.1206  -15.5954   24.0692 C   0  0  0  0  0  0  0  0  0  0  0  0
   11.0838  -14.8767   24.5075 O   0  0  0  0  0  0  0  0  0  0  0  0
    7.1197  -14.2954   20.7753 C   0  0  0  0  0  0  0  0  0  0  0  0
    6.6524  -14.0701   19.4982 C   0  0  0  0  0  0  0  0  0  0  0  0
    9.5229  -16.5361   24.9390 N   0  0  0  0  0  0  0  0  0  0  0  0
   10.0632  -16.7630   26.2914 C   0  0  1  0  0  0  0  0  0  0  0  0
    9.2113  -15.9815   27.2111 C   0  0  0  0  0  0  0  0  0  0  0  0
    7.9514  -15.5008   26.6200 C   0  0  0  0  0  0  0  0  0  0  0  0
    6.9553  -16.3015   26.0341 C   0  0  0  0  0  0  0  0  0  0  0  0
    5.9664  -15.5312   25.5625 N   0  0  0  0  0  0  0  0  0  0  0  0
    6.2597  -14.2355   25.8105 C   0  0  0  0  0  0  0  0  0  0  0  0
    5.5940  -13.0432   25.5620 C   0  0  0  0  0  0  0  0  0  0  0  0
    6.1364  -11.8377   25.9586 C   0  0  0  0  0  0  0  0  0  0  0  0
    7.3419  -11.8004   26.6046 C   0  0  0  0  0  0  0  0  0  0  0  0
    8.0041  -12.9803   26.8513 C   0  0  0  0  0  0  0  0  0  0  0  0
    7.4681  -14.2020   26.4557 C   0  0  0  0  0  0  0  0  0  0  0  0
   10.1184  -18.1826   26.6169 C   0  0  0  0  0  0  0  0  0  0  0  0
    9.6329  -19.0877   25.6620 O   0  0  0  0  0  0  0  0  0  0  0  0
   10.5699  -18.6426   27.6905 O   0  0  0  0  0  0  0  0  0  0  0  0
  1  2  1  0
  3  2  1  0
  4  5  1  0
  4  3  1  0
  5  6  1  1
  5  1  1  0
  6  7  2  0
  8  9  1  0
  9 19  2  0
  9 10  1  0
 10 11  2  0
 11 12  1  0
 12 13  1  0
 14 13  1  1
 15 14  1  0
 15  6  1  0
 16 14  1  0
 16 17  2  0
 18 12  2  0
 19 18  1  0
 20 16  1  0
 21 20  1  0
 21 32  1  0
 21 22  1  1
 23 22  1  0
 24 23  2  0
 25 26  1  0
 25 24  1  0
 26 31  2  0
 27 26  1  0
 27 28  2  0
 28 29  1  0
 29 30  2  0
 31 23  1  0
 31 30  1  0
 32 33  1  0
 34 32  2  0
M  END
$$$$
