PYW.pdb
     RDKit          3D

 34 37  0  0  1  0  0  0  0  0999 V2000
    6.4801  -18.1890   21.7658 N   0  0  0  0  0  0  0  0  0  0  0  0
    5.3271  -17.8159   20.9828 C   0  0  0  0  0  0  0  0  0  0  0  0
    5.8170  -17.4396   19.6111 C   0  0  0  0  0  0  0  0  0  0  0  0
    6.9990  -18.4040   19.4622 C   0  0  0  0  0  0  0  0  0  0  0  0
    7.5456  -18.5400   20.8725 C   0  0  1  0  0  0  0  0  0  0  0  0
    8.6847  -17.6019   21.0442 C   0  0  0  0  0  0  0  0  0  0  0  0
    9.7426  -17.7888   20.3909 O   0  0  0  0  0  0  0  0  0  0  0  0
    7.5771  -13.2361   16.5526 O   0  0  0  0  0  0  0  0  0  0  0  0
    8.0319  -13.4632   17.8673 C   0  0  0  0  0  0  0  0  0  0  0  0
    9.3480  -13.7388   18.1292 C   0  0  0  0  0  0  0  0  0  0  0  0
    9.7941  -13.9628   19.4345 C   0  0  0  0  0  0  0  0  0  0  0  0
    8.9256  -13.9142   20.5003 C   0  0  0  0  0  0  0  0  0  0  0  0
    9.4027  -14.1492   21.8522 C   0  0  0  0  0  0  0  0  0  0  0  0
    9.7377  -15.5900   22.1486 C   0  0  2  0  0  0  0  0  0  0  0  0
    8.6531  -16.4877   21.9155 N   0  0  0  0  0  0  0  0  0  0  0  0
   10.2981  -15.7394   23.4929 C   0  0  0  0  0  0  0  0  0  0  0  0
   11.4573  -15.2486   23.7208 O   0  0  0  0  0  0  0  0  0  0  0  0
    7.6120  -13.6368   20.2150 C   0  0  0  0  0  0  0  0  0  0  0  0
    7.1532  -13.4127   18.9346 C   0  0  0  0  0  0  0  0  0  0  0  0
    9.6191  -16.3974   24.5439 N   0  0  0  0  0  0  0  0  0  0  0  0
   10.2564  -16.5720   25.8614 C   0  0  1  0  0  0  0  0  0  0  0  0
    9.7713  -15.4595   26.7036 C   0  0  0  0  0  0  0  0  0  0  0  0
    8.3732  -15.0689   26.4573 C   0  0  0  0  0  0  0  0  0  0  0  0
    7.3332  -15.9274   26.0598 C   0  0  0  0  0  0  0  0  0  0  0  0
    6.2030  -15.2296   25.8883 N   0  0  0  0  0  0  0  0  0  0  0  0
    6.4432  -13.9272   26.1574 C   0  0  0  0  0  0  0  0  0  0  0  0
    5.6454  -12.7915   26.1589 C   0  0  0  0  0  0  0  0  0  0  0  0
    6.1692  -11.5632   26.5080 C   0  0  0  0  0  0  0  0  0  0  0  0
    7.4866  -11.4470   26.8585 C   0  0  0  0  0  0  0  0  0  0  0  0
    8.2796  -12.5707   26.8570 C   0  0  0  0  0  0  0  0  0  0  0  0
    7.7635  -13.8146   26.5063 C   0  0  0  0  0  0  0  0  0  0  0  0
    9.9787  -17.8882   26.4224 C   0  0  0  0  0  0  0  0  0  0  0  0
    9.1810  -18.7611   25.6685 O   0  0  0  0  0  0  0  0  0  0  0  0
   10.4057  -18.2867   27.5302 O   0  0  0  0  0  0  0  0  0  0  0  0
  1  2  1  0
  3  2  1  0
  4  5  1  0
  4  3  1  0
  5  6  1  6
  5  1  1  0
  6  7  2  0
  8  9  1  0
  9 19  2  0
  9 10  1  0
 10 11  2  0
 11 12  1  0
 12 13  1  0
 14 13  1  1
 15 14  1  0
 15  6  1  0
 16 14  1  0
 16 17  2  0
 18 12  2  0
 19 18  1  0
 20 16  1  0
 21 20  1  0
 21 32  1  0
 21 22  1  1
 23 22  1  0
 24 23  2  0
 25 26  1  0
 25 24  1  0
 26 31  2  0
 27 26  1  0
 27 28  2  0
 28 29  1  0
 29 30  2  0
 31 23  1  0
 31 30  1  0
 32 33  1  0
 34 32  2  0
M  END
$$$$
