TGL.pdb
     RDKit          3D

 20 19  0  0  1  0  0  0  0  0999 V2000
   10.1385  -18.7228   17.6030 C   0  0  0  0  0  0  0  0  0  0  0  0
    9.2709  -17.7109   18.3045 C   0  0  1  0  0  0  0  0  0  0  0  0
    7.9273  -18.0712   18.2300 O   0  0  0  0  0  0  0  0  0  0  0  0
    9.6714  -17.5992   19.7610 C   0  0  2  0  0  0  0  0  0  0  0  0
    9.3963  -18.7886   20.5026 N   0  0  0  0  0  0  0  0  0  0  0  0
    8.9974  -16.4552   20.3947 C   0  0  0  0  0  0  0  0  0  0  0  0
    9.2464  -15.2931   20.0271 O   0  0  0  0  0  0  0  0  0  0  0  0
    8.0636  -16.6844   21.4257 N   0  0  0  0  0  0  0  0  0  0  0  0
    7.2968  -15.6150   22.0229 C   0  0  0  0  0  0  0  0  0  0  0  0
    8.0334  -15.1845   23.2625 C   0  0  0  0  0  0  0  0  0  0  0  0
    9.3089  -15.1265   23.2717 O   0  0  0  0  0  0  0  0  0  0  0  0
    5.3872  -11.7747   26.6727 C   0  0  0  0  0  0  0  0  0  0  0  0
    6.4826  -12.3372   25.7183 C   0  0  1  0  0  0  0  0  0  0  0  0
    7.4550  -11.1888   25.4733 C   0  0  0  0  0  0  0  0  0  0  0  0
    7.1368  -13.4937   26.3828 C   0  0  0  0  0  0  0  0  0  0  0  0
    8.1297  -14.2902   25.6120 C   0  0  2  0  0  0  0  0  0  0  0  0
    7.3433  -14.8346   24.4432 N   0  0  0  0  0  0  0  0  0  0  0  0
    8.8392  -15.3811   26.2411 C   0  0  0  0  0  0  0  0  0  0  0  0
    9.7784  -15.0864   27.0749 O   0  0  0  0  0  0  0  0  0  0  0  0
    8.6449  -16.7359   26.0798 O   0  0  0  0  0  0  0  0  0  0  0  0
  2  1  1  1
  2  4  1  0
  3  2  1  0
  4  5  1  1
  6  4  1  0
  6  7  2  0
  8  6  1  0
  9  8  1  0
  9 10  1  0
 10 11  2  0
 10 17  1  0
 13 15  1  0
 13 14  1  1
 13 12  1  0
 16 15  1  1
 16 18  1  0
 17 16  1  0
 18 19  2  0
 18 20  1  0
M  END
$$$$
