TGL.pdb
     RDKit          3D

 20 19  0  0  1  0  0  0  0  0999 V2000
    7.6587  -12.0937   18.6242 C   0  0  0  0  0  0  0  0  0  0  0  0
    7.9178  -13.4324   19.2640 C   0  0  1  0  0  0  0  0  0  0  0  0
    8.1687  -14.4047   18.2985 O   0  0  0  0  0  0  0  0  0  0  0  0
    9.1084  -13.3444   20.1962 C   0  0  2  0  0  0  0  0  0  0  0  0
   10.3100  -12.9648   19.5235 N   0  0  0  0  0  0  0  0  0  0  0  0
    9.3149  -14.6248   20.8910 C   0  0  0  0  0  0  0  0  0  0  0  0
   10.3762  -15.2573   20.7464 O   0  0  0  0  0  0  0  0  0  0  0  0
    8.2985  -15.1330   21.7254 N   0  0  0  0  0  0  0  0  0  0  0  0
    8.4315  -16.3915   22.4231 C   0  0  0  0  0  0  0  0  0  0  0  0
    8.9642  -16.0795   23.7955 C   0  0  0  0  0  0  0  0  0  0  0  0
   10.1185  -16.4924   24.1525 O   0  0  0  0  0  0  0  0  0  0  0  0
    5.7832  -12.9824   26.0130 C   0  0  0  0  0  0  0  0  0  0  0  0
    7.3406  -13.0102   26.0458 C   0  0  1  0  0  0  0  0  0  0  0  0
    7.7677  -11.7323   26.7593 C   0  0  0  0  0  0  0  0  0  0  0  0
    7.7741  -14.2304   26.7741 C   0  0  0  0  0  0  0  0  0  0  0  0
    8.7527  -15.1407   26.1200 C   0  0  2  0  0  0  0  0  0  0  0  0
    8.2110  -15.3273   24.7226 N   0  0  0  0  0  0  0  0  0  0  0  0
    9.0332  -16.4411   26.6853 C   0  0  0  0  0  0  0  0  0  0  0  0
    9.9375  -16.5160   27.6022 O   0  0  0  0  0  0  0  0  0  0  0  0
    8.4483  -17.6515   26.3820 O   0  0  0  0  0  0  0  0  0  0  0  0
  2  1  1  6
  2  4  1  0
  3  2  1  0
  4  5  1  6
  6  4  1  0
  6  7  2  0
  8  6  1  0
  9  8  1  0
  9 10  1  0
 10 11  2  0
 10 17  1  0
 13 15  1  0
 13 14  1  1
 13 12  1  0
 16 15  1  1
 16 18  1  0
 17 16  1  0
 18 19  2  0
 18 20  1  0
M  END
$$$$
