TGL.pdb
     RDKit          3D

 20 19  0  0  1  0  0  0  0  0999 V2000
    6.7671  -14.2007   18.0076 C   0  0  0  0  0  0  0  0  0  0  0  0
    8.0273  -14.3461   18.8196 C   0  0  1  0  0  0  0  0  0  0  0  0
    8.4110  -13.1233   19.3654 O   0  0  0  0  0  0  0  0  0  0  0  0
    7.8145  -15.3416   19.9411 C   0  0  2  0  0  0  0  0  0  0  0  0
    6.7965  -14.9337   20.8563 N   0  0  0  0  0  0  0  0  0  0  0  0
    9.0709  -15.5724   20.6710 C   0  0  0  0  0  0  0  0  0  0  0  0
   10.0310  -16.1334   20.1132 O   0  0  0  0  0  0  0  0  0  0  0  0
    9.1812  -15.1524   22.0122 N   0  0  0  0  0  0  0  0  0  0  0  0
   10.4082  -15.2871   22.7637 C   0  0  0  0  0  0  0  0  0  0  0  0
   10.0288  -15.3450   24.2187 C   0  0  0  0  0  0  0  0  0  0  0  0
   10.9289  -15.4222   25.1211 O   0  0  0  0  0  0  0  0  0  0  0  0
    5.8836  -12.4744   26.0954 C   0  0  0  0  0  0  0  0  0  0  0  0
    7.2881  -13.1317   25.9447 C   0  0  1  0  0  0  0  0  0  0  0  0
    8.2084  -12.3771   26.8978 C   0  0  0  0  0  0  0  0  0  0  0  0
    7.1745  -14.5704   26.2968 C   0  0  0  0  0  0  0  0  0  0  0  0
    8.3593  -15.4485   26.0979 C   0  0  2  0  0  0  0  0  0  0  0  0
    8.6780  -15.3160   24.6276 N   0  0  0  0  0  0  0  0  0  0  0  0
    8.2934  -16.8530   26.4327 C   0  0  0  0  0  0  0  0  0  0  0  0
    8.1984  -17.1704   27.6794 O   0  0  0  0  0  0  0  0  0  0  0  0
    8.3092  -17.9380   25.5832 O   0  0  0  0  0  0  0  0  0  0  0  0
  2  1  1  1
  2  4  1  0
  3  2  1  0
  4  5  1  1
  6  4  1  0
  6  7  2  0
  8  6  1  0
  9  8  1  0
  9 10  1  0
 10 11  2  0
 10 17  1  0
 13 15  1  0
 13 14  1  1
 13 12  1  0
 16 15  1  6
 16 18  1  0
 17 16  1  0
 18 19  2  0
 18 20  1  0
M  END
$$$$
