TGL.pdb
     RDKit          3D

 20 19  0  0  1  0  0  0  0  0999 V2000
    6.0277  -19.5146   19.5672 C   0  0  0  0  0  0  0  0  0  0  0  0
    7.3370  -18.9188   20.0138 C   0  0  1  0  0  0  0  0  0  0  0  0
    7.9973  -18.3131   18.9471 O   0  0  0  0  0  0  0  0  0  0  0  0
    7.0993  -17.8867   21.0966 C   0  0  2  0  0  0  0  0  0  0  0  0
    6.3780  -16.7474   20.6253 N   0  0  0  0  0  0  0  0  0  0  0  0
    8.3761  -17.4537   21.6854 C   0  0  0  0  0  0  0  0  0  0  0  0
    9.0203  -18.2171   22.4270 O   0  0  0  0  0  0  0  0  0  0  0  0
    8.8678  -16.1629   21.4033 N   0  0  0  0  0  0  0  0  0  0  0  0
   10.1749  -15.7243   21.8365 C   0  0  0  0  0  0  0  0  0  0  0  0
   10.0382  -15.2817   23.2682 C   0  0  0  0  0  0  0  0  0  0  0  0
   11.0617  -14.9002   23.9296 O   0  0  0  0  0  0  0  0  0  0  0  0
    8.0556  -11.9876   26.7901 C   0  0  0  0  0  0  0  0  0  0  0  0
    7.0921  -13.1935   26.5790 C   0  0  1  0  0  0  0  0  0  0  0  0
    5.6896  -12.6006   26.4994 C   0  0  0  0  0  0  0  0  0  0  0  0
    7.4780  -13.8902   25.3249 C   0  0  0  0  0  0  0  0  0  0  0  0
    8.7001  -14.7392   25.3285 C   0  0  2  0  0  0  0  0  0  0  0  0
    8.7855  -15.2745   23.9188 N   0  0  0  0  0  0  0  0  0  0  0  0
    8.8200  -15.8449   26.2517 C   0  0  0  0  0  0  0  0  0  0  0  0
    8.1850  -16.9326   25.9731 O   0  0  0  0  0  0  0  0  0  0  0  0
    9.5461  -15.9097   27.4212 O   0  0  0  0  0  0  0  0  0  0  0  0
  2  1  1  6
  2  4  1  0
  3  2  1  0
  4  5  1  6
  6  4  1  0
  6  7  2  0
  8  6  1  0
  9  8  1  0
  9 10  1  0
 10 11  2  0
 10 17  1  0
 13 15  1  0
 13 14  1  6
 13 12  1  0
 16 15  1  6
 16 18  1  0
 17 16  1  0
 18 19  2  0
 18 20  1  0
M  END
$$$$
