TGL.pdb
     RDKit          3D

 20 19  0  0  1  0  0  0  0  0999 V2000
   11.0035  -19.7400   18.4874 C   0  0  0  0  0  0  0  0  0  0  0  0
   10.0305  -18.6288   18.7829 C   0  0  1  0  0  0  0  0  0  0  0  0
    8.7179  -19.0522   18.5872 O   0  0  0  0  0  0  0  0  0  0  0  0
   10.1896  -18.1619   20.2150 C   0  0  2  0  0  0  0  0  0  0  0  0
    9.8181  -19.1605   21.1664 N   0  0  0  0  0  0  0  0  0  0  0  0
    9.4040  -16.9402   20.4492 C   0  0  0  0  0  0  0  0  0  0  0  0
    9.6554  -15.8975   19.8190 O   0  0  0  0  0  0  0  0  0  0  0  0
    8.3599  -16.9578   21.3963 N   0  0  0  0  0  0  0  0  0  0  0  0
    7.5311  -15.8018   21.6516 C   0  0  0  0  0  0  0  0  0  0  0  0
    8.0865  -15.1239   22.8749 C   0  0  0  0  0  0  0  0  0  0  0  0
    9.3046  -14.7425   22.9084 O   0  0  0  0  0  0  0  0  0  0  0  0
    8.0548  -11.4201   26.4731 C   0  0  0  0  0  0  0  0  0  0  0  0
    7.0559  -12.5193   26.9434 C   0  0  1  0  0  0  0  0  0  0  0  0
    5.8087  -11.7788   27.4135 C   0  0  0  0  0  0  0  0  0  0  0  0
    6.7738  -13.4204   25.7965 C   0  0  0  0  0  0  0  0  0  0  0  0
    7.8984  -14.1950   25.2054 C   0  0  2  0  0  0  0  0  0  0  0  0
    7.2851  -14.8907   24.0134 N   0  0  0  0  0  0  0  0  0  0  0  0
    8.6088  -15.1733   25.9975 C   0  0  0  0  0  0  0  0  0  0  0  0
    9.4488  -14.7409   26.8759 O   0  0  0  0  0  0  0  0  0  0  0  0
    8.5086  -16.5471   25.9543 O   0  0  0  0  0  0  0  0  0  0  0  0
  2  1  1  1
  2  4  1  0
  3  2  1  0
  4  5  1  1
  6  4  1  0
  6  7  2  0
  8  6  1  0
  9  8  1  0
  9 10  1  0
 10 11  2  0
 10 17  1  0
 13 15  1  0
 13 14  1  6
 13 12  1  0
 16 15  1  1
 16 18  1  0
 17 16  1  0
 18 19  2  0
 18 20  1  0
M  END
$$$$
