TGL.pdb
     RDKit          3D

 20 19  0  0  1  0  0  0  0  0999 V2000
    5.3984  -20.4456   20.5835 C   0  0  0  0  0  0  0  0  0  0  0  0
    6.5880  -19.5248   20.5081 C   0  0  1  0  0  0  0  0  0  0  0  0
    6.4796  -18.6606   19.4209 O   0  0  0  0  0  0  0  0  0  0  0  0
    6.6977  -18.7075   21.7786 C   0  0  2  0  0  0  0  0  0  0  0  0
    5.5577  -17.8761   22.0010 N   0  0  0  0  0  0  0  0  0  0  0  0
    7.9147  -17.8811   21.7565 C   0  0  0  0  0  0  0  0  0  0  0  0
    9.0363  -18.4115   21.6662 O   0  0  0  0  0  0  0  0  0  0  0  0
    7.8022  -16.4782   21.8387 N   0  0  0  0  0  0  0  0  0  0  0  0
    8.9588  -15.6121   21.8614 C   0  0  0  0  0  0  0  0  0  0  0  0
    9.2094  -15.2504   23.3004 C   0  0  0  0  0  0  0  0  0  0  0  0
   10.2779  -14.6387   23.6388 O   0  0  0  0  0  0  0  0  0  0  0  0
    5.5887  -12.7191   26.0685 C   0  0  0  0  0  0  0  0  0  0  0  0
    7.0292  -13.1186   25.6296 C   0  0  1  0  0  0  0  0  0  0  0  0
    7.9528  -12.0468   26.1978 C   0  0  0  0  0  0  0  0  0  0  0  0
    7.3311  -14.4663   26.1770 C   0  0  0  0  0  0  0  0  0  0  0  0
    8.5737  -15.1539   25.7327 C   0  0  2  0  0  0  0  0  0  0  0  0
    8.2792  -15.5733   24.3119 N   0  0  0  0  0  0  0  0  0  0  0  0
    9.0759  -16.2984   26.4587 C   0  0  0  0  0  0  0  0  0  0  0  0
    8.9578  -17.4590   25.9082 O   0  0  0  0  0  0  0  0  0  0  0  0
    9.6910  -16.3286   27.6916 O   0  0  0  0  0  0  0  0  0  0  0  0
  2  1  1  1
  2  4  1  0
  3  2  1  0
  4  5  1  6
  6  4  1  0
  6  7  2  0
  8  6  1  0
  9  8  1  0
  9 10  1  0
 10 11  2  0
 10 17  1  0
 13 15  1  0
 13 14  1  1
 13 12  1  0
 16 15  1  1
 16 18  1  0
 17 16  1  0
 18 19  2  0
 18 20  1  0
M  END
$$$$
