TGL.pdb
     RDKit          3D

 20 19  0  0  1  0  0  0  0  0999 V2000
   11.1404  -19.9028   19.6180 C   0  0  0  0  0  0  0  0  0  0  0  0
   10.0734  -19.2719   20.4737 C   0  0  1  0  0  0  0  0  0  0  0  0
   10.5348  -19.0651   21.7718 O   0  0  0  0  0  0  0  0  0  0  0  0
    9.6483  -17.9431   19.8840 C   0  0  2  0  0  0  0  0  0  0  0  0
   10.7062  -16.9835   19.8643 N   0  0  0  0  0  0  0  0  0  0  0  0
    8.4989  -17.3958   20.6216 C   0  0  0  0  0  0  0  0  0  0  0  0
    7.4194  -18.0130   20.6564 O   0  0  0  0  0  0  0  0  0  0  0  0
    8.6284  -16.1623   21.2917 N   0  0  0  0  0  0  0  0  0  0  0  0
    7.6033  -15.6530   22.1739 C   0  0  0  0  0  0  0  0  0  0  0  0
    8.2779  -15.2911   23.4695 C   0  0  0  0  0  0  0  0  0  0  0  0
    9.5513  -15.2344   23.5439 O   0  0  0  0  0  0  0  0  0  0  0  0
    5.6072  -11.7693   26.7275 C   0  0  0  0  0  0  0  0  0  0  0  0
    6.6361  -12.4757   25.7950 C   0  0  1  0  0  0  0  0  0  0  0  0
    7.6785  -11.4195   25.4448 C   0  0  0  0  0  0  0  0  0  0  0  0
    7.2265  -13.6238   26.5300 C   0  0  0  0  0  0  0  0  0  0  0  0
    8.2486  -14.4597   25.8438 C   0  0  2  0  0  0  0  0  0  0  0  0
    7.5305  -15.0057   24.6325 N   0  0  0  0  0  0  0  0  0  0  0  0
    8.8835  -15.5563   26.5390 C   0  0  0  0  0  0  0  0  0  0  0  0
    8.4034  -16.7402   26.3606 O   0  0  0  0  0  0  0  0  0  0  0  0
    9.9696  -15.5195   27.3866 O   0  0  0  0  0  0  0  0  0  0  0  0
  2  1  1  6
  2  4  1  0
  3  2  1  0
  4  5  1  1
  6  4  1  0
  6  7  2  0
  8  6  1  0
  9  8  1  0
  9 10  1  0
 10 11  2  0
 10 17  1  0
 13 15  1  0
 13 14  1  1
 13 12  1  0
 16 15  1  1
 16 18  1  0
 17 16  1  0
 18 19  2  0
 18 20  1  0
M  END
$$$$
