TGL.pdb
     RDKit          3D

 20 19  0  0  1  0  0  0  0  0999 V2000
    6.0047  -17.9975   18.7738 C   0  0  0  0  0  0  0  0  0  0  0  0
    7.3289  -17.4049   19.1787 C   0  0  1  0  0  0  0  0  0  0  0  0
    7.2781  -16.0130   19.1572 O   0  0  0  0  0  0  0  0  0  0  0  0
    7.7020  -17.8632   20.5733 C   0  0  2  0  0  0  0  0  0  0  0  0
    6.7125  -17.5293   21.5479 N   0  0  0  0  0  0  0  0  0  0  0  0
    8.9994  -17.2959   20.9727 C   0  0  0  0  0  0  0  0  0  0  0  0
   10.0307  -17.5668   20.3320 O   0  0  0  0  0  0  0  0  0  0  0  0
    9.0676  -16.4397   22.0905 N   0  0  0  0  0  0  0  0  0  0  0  0
   10.3001  -15.8084   22.5039 C   0  0  0  0  0  0  0  0  0  0  0  0
   10.1258  -15.4033   23.9427 C   0  0  0  0  0  0  0  0  0  0  0  0
   11.1026  -14.9099   24.6005 O   0  0  0  0  0  0  0  0  0  0  0  0
    5.7292  -12.9086   25.7980 C   0  0  0  0  0  0  0  0  0  0  0  0
    7.2385  -13.2636   25.6450 C   0  0  1  0  0  0  0  0  0  0  0  0
    8.0034  -12.1670   26.3777 C   0  0  0  0  0  0  0  0  0  0  0  0
    7.4695  -14.6037   26.2430 C   0  0  0  0  0  0  0  0  0  0  0  0
    8.8060  -15.2368   26.0781 C   0  0  2  0  0  0  0  0  0  0  0  0
    8.8878  -15.5549   24.6039 N   0  0  0  0  0  0  0  0  0  0  0  0
    9.1508  -16.4236   26.8277 C   0  0  0  0  0  0  0  0  0  0  0  0
    9.3062  -16.3058   28.1028 O   0  0  0  0  0  0  0  0  0  0  0  0
    9.3351  -17.7076   26.3622 O   0  0  0  0  0  0  0  0  0  0  0  0
  2  1  1  1
  2  4  1  0
  3  2  1  0
  4  5  1  1
  6  4  1  0
  6  7  2  0
  8  6  1  0
  9  8  1  0
  9 10  1  0
 10 11  2  0
 10 17  1  0
 13 15  1  0
 13 14  1  1
 13 12  1  0
 16 15  1  1
 16 18  1  0
 17 16  1  0
 18 19  2  0
 18 20  1  0
M  END
$$$$
