TGL.pdb
     RDKit          3D

 20 19  0  0  1  0  0  0  0  0999 V2000
   10.3822  -13.0746   20.5777 C   0  0  0  0  0  0  0  0  0  0  0  0
    9.4016  -12.8517   19.4563 C   0  0  1  0  0  0  0  0  0  0  0  0
   10.0315  -12.2857   18.3502 O   0  0  0  0  0  0  0  0  0  0  0  0
    8.7700  -14.1656   19.0454 C   0  0  2  0  0  0  0  0  0  0  0  0
    7.9549  -14.0459   17.8785 N   0  0  0  0  0  0  0  0  0  0  0  0
    7.9727  -14.7220   20.1497 C   0  0  0  0  0  0  0  0  0  0  0  0
    6.8224  -14.3033   20.3710 O   0  0  0  0  0  0  0  0  0  0  0  0
    8.5221  -15.7370   20.9592 N   0  0  0  0  0  0  0  0  0  0  0  0
    7.8114  -16.2915   22.0887 C   0  0  0  0  0  0  0  0  0  0  0  0
    8.4085  -15.6800   23.3273 C   0  0  0  0  0  0  0  0  0  0  0  0
    9.6620  -15.4473   23.3962 O   0  0  0  0  0  0  0  0  0  0  0  0
    5.5760  -12.2088   26.6618 C   0  0  0  0  0  0  0  0  0  0  0  0
    6.7158  -12.7816   25.7673 C   0  0  1  0  0  0  0  0  0  0  0  0
    7.7983  -11.7085   25.7294 C   0  0  0  0  0  0  0  0  0  0  0  0
    7.2014  -14.0464   26.3767 C   0  0  0  0  0  0  0  0  0  0  0  0
    8.2770  -14.8049   25.6824 C   0  0  2  0  0  0  0  0  0  0  0  0
    7.6083  -15.3476   24.4418 N   0  0  0  0  0  0  0  0  0  0  0  0
    8.9577  -15.8891   26.3535 C   0  0  0  0  0  0  0  0  0  0  0  0
    8.5280  -17.0879   26.1481 O   0  0  0  0  0  0  0  0  0  0  0  0
   10.0411  -15.8255   27.2029 O   0  0  0  0  0  0  0  0  0  0  0  0
  2  1  1  1
  2  4  1  0
  3  2  1  0
  4  5  1  6
  6  4  1  0
  6  7  2  0
  8  6  1  0
  9  8  1  0
  9 10  1  0
 10 11  2  0
 10 17  1  0
 13 15  1  0
 13 14  1  1
 13 12  1  0
 16 15  1  1
 16 18  1  0
 17 16  1  0
 18 19  2  0
 18 20  1  0
M  END
$$$$
