TGL.pdb
     RDKit          3D

 20 19  0  0  1  0  0  0  0  0999 V2000
    8.9860  -12.6484   20.3334 C   0  0  0  0  0  0  0  0  0  0  0  0
    8.1133  -13.2667   19.2729 C   0  0  1  0  0  0  0  0  0  0  0  0
    8.4107  -12.7431   18.0167 O   0  0  0  0  0  0  0  0  0  0  0  0
    8.3130  -14.7678   19.2414 C   0  0  2  0  0  0  0  0  0  0  0  0
    7.6119  -15.3961   18.1671 N   0  0  0  0  0  0  0  0  0  0  0  0
    7.9008  -15.3697   20.5190 C   0  0  0  0  0  0  0  0  0  0  0  0
    6.7046  -15.3682   20.8606 O   0  0  0  0  0  0  0  0  0  0  0  0
    8.8734  -15.9508   21.3579 N   0  0  0  0  0  0  0  0  0  0  0  0
    8.5234  -16.6638   22.5652 C   0  0  0  0  0  0  0  0  0  0  0  0
    8.9399  -15.7983   23.7236 C   0  0  0  0  0  0  0  0  0  0  0  0
   10.1495  -15.4056   23.8379 O   0  0  0  0  0  0  0  0  0  0  0  0
    5.5407  -12.4241   26.6166 C   0  0  0  0  0  0  0  0  0  0  0  0
    6.8028  -12.9236   25.8519 C   0  0  1  0  0  0  0  0  0  0  0  0
    7.7728  -11.7474   25.8305 C   0  0  0  0  0  0  0  0  0  0  0  0
    7.3586  -14.0955   26.5762 C   0  0  0  0  0  0  0  0  0  0  0  0
    8.5348  -14.7992   25.9967 C   0  0  2  0  0  0  0  0  0  0  0  0
    8.0144  -15.3972   24.7112 N   0  0  0  0  0  0  0  0  0  0  0  0
    9.2119  -15.8323   26.7473 C   0  0  0  0  0  0  0  0  0  0  0  0
    9.7729  -15.4980   27.8597 O   0  0  0  0  0  0  0  0  0  0  0  0
    9.3416  -17.1695   26.4398 O   0  0  0  0  0  0  0  0  0  0  0  0
  2  1  1  1
  2  4  1  0
  3  2  1  0
  4  5  1  6
  6  4  1  0
  6  7  2  0
  8  6  1  0
  9  8  1  0
  9 10  1  0
 10 11  2  0
 10 17  1  0
 13 15  1  0
 13 14  1  1
 13 12  1  0
 16 15  1  1
 16 18  1  0
 17 16  1  0
 18 19  2  0
 18 20  1  0
M  END
$$$$
