TGL.pdb
     RDKit          3D

 20 19  0  0  1  0  0  0  0  0999 V2000
    4.4410  -20.4566   21.4957 C   0  0  0  0  0  0  0  0  0  0  0  0
    5.7198  -19.6765   21.3385 C   0  0  1  0  0  0  0  0  0  0  0  0
    5.7086  -18.9360   20.1586 O   0  0  0  0  0  0  0  0  0  0  0  0
    5.9047  -18.7346   22.5101 C   0  0  2  0  0  0  0  0  0  0  0  0
    4.8445  -17.7846   22.6281 N   0  0  0  0  0  0  0  0  0  0  0  0
    7.1912  -18.0283   22.4058 C   0  0  0  0  0  0  0  0  0  0  0  0
    8.2630  -18.6564   22.4695 O   0  0  0  0  0  0  0  0  0  0  0  0
    7.2023  -16.6293   22.2324 N   0  0  0  0  0  0  0  0  0  0  0  0
    8.4255  -15.8879   22.0256 C   0  0  0  0  0  0  0  0  0  0  0  0
    8.8512  -15.3583   23.3683 C   0  0  0  0  0  0  0  0  0  0  0  0
   10.0015  -14.8254   23.5202 O   0  0  0  0  0  0  0  0  0  0  0  0
    7.1772  -12.5032   24.6774 C   0  0  0  0  0  0  0  0  0  0  0  0
    7.2020  -12.7761   26.2111 C   0  0  1  0  0  0  0  0  0  0  0  0
    5.8829  -12.2378   26.7540 C   0  0  0  0  0  0  0  0  0  0  0  0
    7.3413  -14.2394   26.4263 C   0  0  0  0  0  0  0  0  0  0  0  0
    8.5083  -14.9402   25.8253 C   0  0  2  0  0  0  0  0  0  0  0  0
    7.9996  -15.4336   24.4916 N   0  0  0  0  0  0  0  0  0  0  0  0
    9.1358  -16.0427   26.5181 C   0  0  0  0  0  0  0  0  0  0  0  0
    9.7567  -15.7859   27.6192 O   0  0  0  0  0  0  0  0  0  0  0  0
    9.1598  -17.3745   26.1646 O   0  0  0  0  0  0  0  0  0  0  0  0
  2  1  1  1
  2  4  1  0
  3  2  1  0
  4  5  1  6
  6  4  1  0
  6  7  2  0
  8  6  1  0
  9  8  1  0
  9 10  1  0
 10 11  2  0
 10 17  1  0
 13 15  1  0
 13 14  1  6
 13 12  1  0
 16 15  1  1
 16 18  1  0
 17 16  1  0
 18 19  2  0
 18 20  1  0
M  END
$$$$
