TGL.pdb
     RDKit          3D

 20 19  0  0  1  0  0  0  0  0999 V2000
    7.7027  -12.4732   19.1396 C   0  0  0  0  0  0  0  0  0  0  0  0
    7.8925  -13.8618   18.5880 C   0  0  1  0  0  0  0  0  0  0  0  0
    8.5419  -13.8231   17.3562 O   0  0  0  0  0  0  0  0  0  0  0  0
    8.7095  -14.6992   19.5501 C   0  0  2  0  0  0  0  0  0  0  0  0
    8.9588  -16.0178   19.0607 N   0  0  0  0  0  0  0  0  0  0  0  0
    8.0439  -14.7763   20.8599 C   0  0  0  0  0  0  0  0  0  0  0  0
    7.7249  -13.7389   21.4678 O   0  0  0  0  0  0  0  0  0  0  0  0
    7.7684  -16.0383   21.4247 N   0  0  0  0  0  0  0  0  0  0  0  0
    6.9841  -16.1891   22.6291 C   0  0  0  0  0  0  0  0  0  0  0  0
    7.8289  -15.6893   23.7697 C   0  0  0  0  0  0  0  0  0  0  0  0
    9.0910  -15.5544   23.6315 O   0  0  0  0  0  0  0  0  0  0  0  0
    5.8161  -11.9186   27.0001 C   0  0  0  0  0  0  0  0  0  0  0  0
    6.7806  -12.7158   26.0720 C   0  0  1  0  0  0  0  0  0  0  0  0
    7.8578  -11.7275   25.6387 C   0  0  0  0  0  0  0  0  0  0  0  0
    7.3422  -13.8543   26.8437 C   0  0  0  0  0  0  0  0  0  0  0  0
    8.1601  -14.8682   26.1246 C   0  0  2  0  0  0  0  0  0  0  0  0
    7.2572  -15.3570   25.0169 N   0  0  0  0  0  0  0  0  0  0  0  0
    8.6905  -16.0135   26.8291 C   0  0  0  0  0  0  0  0  0  0  0  0
    8.0987  -17.1478   26.6646 O   0  0  0  0  0  0  0  0  0  0  0  0
    9.7788  -16.0721   27.6725 O   0  0  0  0  0  0  0  0  0  0  0  0
  2  1  1  1
  2  4  1  0
  3  2  1  0
  4  5  1  6
  6  4  1  0
  6  7  2  0
  8  6  1  0
  9  8  1  0
  9 10  1  0
 10 11  2  0
 10 17  1  0
 13 15  1  0
 13 14  1  1
 13 12  1  0
 16 15  1  1
 16 18  1  0
 17 16  1  0
 18 19  2  0
 18 20  1  0
M  END
$$$$
