TGL.pdb
     RDKit          3D

 20 19  0  0  1  0  0  0  0  0999 V2000
    5.8193  -19.4170   20.7616 C   0  0  0  0  0  0  0  0  0  0  0  0
    6.3501  -18.1197   21.3128 C   0  0  1  0  0  0  0  0  0  0  0  0
    6.6686  -18.2465   22.6630 O   0  0  0  0  0  0  0  0  0  0  0  0
    7.5893  -17.6965   20.5516 C   0  0  2  0  0  0  0  0  0  0  0  0
    8.6537  -18.6431   20.6585 N   0  0  0  0  0  0  0  0  0  0  0  0
    8.0526  -16.3784   21.0127 C   0  0  0  0  0  0  0  0  0  0  0  0
    7.3259  -15.3761   20.8914 O   0  0  0  0  0  0  0  0  0  0  0  0
    9.3305  -16.2572   21.5955 N   0  0  0  0  0  0  0  0  0  0  0  0
    9.8660  -14.9842   22.0211 C   0  0  0  0  0  0  0  0  0  0  0  0
    9.7783  -14.9501   23.5230 C   0  0  0  0  0  0  0  0  0  0  0  0
   10.8385  -14.9253   24.2342 O   0  0  0  0  0  0  0  0  0  0  0  0
    8.2406  -12.0157   25.6477 C   0  0  0  0  0  0  0  0  0  0  0  0
    7.2871  -12.8476   26.5565 C   0  0  1  0  0  0  0  0  0  0  0  0
    5.9308  -12.1545   26.4866 C   0  0  0  0  0  0  0  0  0  0  0  0
    7.2338  -14.2375   26.0348 C   0  0  0  0  0  0  0  0  0  0  0  0
    8.5115  -14.9211   25.6964 C   0  0  2  0  0  0  0  0  0  0  0  0
    8.5323  -14.9445   24.1864 N   0  0  0  0  0  0  0  0  0  0  0  0
    8.7787  -16.2553   26.1839 C   0  0  0  0  0  0  0  0  0  0  0  0
    8.9682  -16.4060   27.4510 O   0  0  0  0  0  0  0  0  0  0  0  0
    8.8544  -17.4302   25.4676 O   0  0  0  0  0  0  0  0  0  0  0  0
  2  1  1  6
  2  4  1  0
  3  2  1  0
  4  5  1  1
  6  4  1  0
  6  7  2  0
  8  6  1  0
  9  8  1  0
  9 10  1  0
 10 11  2  0
 10 17  1  0
 13 15  1  0
 13 14  1  6
 13 12  1  0
 16 15  1  6
 16 18  1  0
 17 16  1  0
 18 19  2  0
 18 20  1  0
M  END
$$$$
