TGL.pdb
     RDKit          3D

 20 19  0  0  1  0  0  0  0  0999 V2000
    8.6796  -12.6031   20.3425 C   0  0  0  0  0  0  0  0  0  0  0  0
    8.0453  -13.2235   19.1254 C   0  0  1  0  0  0  0  0  0  0  0  0
    8.5281  -12.6351   17.9586 O   0  0  0  0  0  0  0  0  0  0  0  0
    8.3354  -14.7095   19.0848 C   0  0  2  0  0  0  0  0  0  0  0  0
    7.8766  -15.3295   17.8825 N   0  0  0  0  0  0  0  0  0  0  0  0
    7.7367  -15.3836   20.2474 C   0  0  0  0  0  0  0  0  0  0  0  0
    6.5125  -15.6005   20.2899 O   0  0  0  0  0  0  0  0  0  0  0  0
    8.5619  -15.7842   21.3179 N   0  0  0  0  0  0  0  0  0  0  0  0
    8.0424  -16.4803   22.4730 C   0  0  0  0  0  0  0  0  0  0  0  0
    8.5898  -15.7836   23.6893 C   0  0  0  0  0  0  0  0  0  0  0  0
    9.8286  -15.4831   23.7621 O   0  0  0  0  0  0  0  0  0  0  0  0
    5.7809  -12.1556   26.6732 C   0  0  0  0  0  0  0  0  0  0  0  0
    6.9541  -12.8340   25.9047 C   0  0  1  0  0  0  0  0  0  0  0  0
    8.0690  -11.7959   25.8407 C   0  0  0  0  0  0  0  0  0  0  0  0
    7.3639  -14.0513   26.6512 C   0  0  0  0  0  0  0  0  0  0  0  0
    8.3950  -14.9412   26.0519 C   0  0  2  0  0  0  0  0  0  0  0  0
    7.7580  -15.4437   24.7781 N   0  0  0  0  0  0  0  0  0  0  0  0
    8.9043  -16.0731   26.7927 C   0  0  0  0  0  0  0  0  0  0  0  0
    9.7778  -15.8452   27.7141 O   0  0  0  0  0  0  0  0  0  0  0  0
    8.5737  -17.4042   26.6580 O   0  0  0  0  0  0  0  0  0  0  0  0
  2  1  1  1
  2  4  1  0
  3  2  1  0
  4  5  1  6
  6  4  1  0
  6  7  2  0
  8  6  1  0
  9  8  1  0
  9 10  1  0
 10 11  2  0
 10 17  1  0
 13 15  1  0
 13 14  1  1
 13 12  1  0
 16 15  1  1
 16 18  1  0
 17 16  1  0
 18 19  2  0
 18 20  1  0
M  END
$$$$
