QTA.pdb
     RDKit          3D

 22 21  0  0  1  0  0  0  0  0999 V2000
    8.5401  -12.5532   17.7374 N   0  0  0  0  0  0  0  0  0  0  0  0
    7.7281  -13.7310   17.8462 C   0  0  0  0  0  0  0  0  0  0  0  0
    7.3894  -14.2856   16.7863 O   0  0  0  0  0  0  0  0  0  0  0  0
    7.3038  -14.2786   19.1354 C   0  0  0  0  0  0  0  0  0  0  0  0
    7.7040  -13.4980   20.3325 C   0  0  0  0  0  0  0  0  0  0  0  0
    8.6840  -14.2268   21.2034 C   0  0  2  0  0  0  0  0  0  0  0  0
    9.0163  -15.5386   20.6256 N   0  0  0  0  0  0  0  0  0  0  0  0
    8.0914  -14.4547   22.5508 C   0  0  0  0  0  0  0  0  0  0  0  0
    7.2951  -13.6398   23.0826 O   0  0  0  0  0  0  0  0  0  0  0  0
    6.4048  -17.6450   23.6796 C   0  0  0  0  0  0  0  0  0  0  0  0
    7.5422  -17.3285   24.6076 C   0  0  1  0  0  0  0  0  0  0  0  0
    8.6709  -17.9754   24.0383 O   0  0  0  0  0  0  0  0  0  0  0  0
    7.9247  -15.8627   24.6357 C   0  0  2  0  0  0  0  0  0  0  0  0
    8.4222  -15.6107   23.2628 N   0  0  0  0  0  0  0  0  0  0  0  0
    9.0608  -15.5552   25.5183 C   0  0  0  0  0  0  0  0  0  0  0  0
   10.2721  -15.7980   25.1829 O   0  0  0  0  0  0  0  0  0  0  0  0
    9.3650  -13.4151   28.5852 C   0  0  0  0  0  0  0  0  0  0  0  0
    9.8362  -14.5512   27.7215 C   0  0  2  0  0  0  0  0  0  0  0  0
    8.8311  -14.9700   26.7849 N   0  0  0  0  0  0  0  0  0  0  0  0
   10.3962  -15.6871   28.5125 C   0  0  0  0  0  0  0  0  0  0  0  0
    9.8224  -16.9279   28.4099 O   0  0  0  0  0  0  0  0  0  0  0  0
   11.3749  -15.5015   29.2529 O   0  0  0  0  0  0  0  0  0  0  0  0
  1  2  1  0
  2  4  1  0
  3  2  2  0
  4  5  1  0
  5  6  1  0
  6  8  1  0
  6  7  1  6
  8  9  2  0
 11 10  1  6
 11 12  1  0
 11 13  1  0
 13 15  1  0
 13 14  1  6
 14  8  1  0
 15 19  1  0
 15 16  2  0
 18 17  1  1
 18 20  1  0
 19 18  1  0
 20 22  2  0
 20 21  1  0
M  END
$$$$
