QTA.pdb
     RDKit          3D

 22 21  0  0  1  0  0  0  0  0999 V2000
   11.8248  -19.6109   23.4999 N   0  0  0  0  0  0  0  0  0  0  0  0
   12.5281  -19.3901   22.2690 C   0  0  0  0  0  0  0  0  0  0  0  0
   13.7013  -19.7969   22.2060 O   0  0  0  0  0  0  0  0  0  0  0  0
   11.9156  -18.7197   21.1214 C   0  0  0  0  0  0  0  0  0  0  0  0
   10.4772  -18.3821   21.2618 C   0  0  0  0  0  0  0  0  0  0  0  0
   10.0028  -17.4074   20.2250 C   0  0  2  0  0  0  0  0  0  0  0  0
   10.9616  -17.3260   19.1119 N   0  0  0  0  0  0  0  0  0  0  0  0
    9.8793  -16.0501   20.8258 C   0  0  0  0  0  0  0  0  0  0  0  0
   10.8580  -15.2674   20.9280 O   0  0  0  0  0  0  0  0  0  0  0  0
    7.5174  -13.2825   19.7167 C   0  0  0  0  0  0  0  0  0  0  0  0
    7.2234  -13.7447   21.1149 C   0  0  1  0  0  0  0  0  0  0  0  0
    6.3966  -14.8884   20.9569 O   0  0  0  0  0  0  0  0  0  0  0  0
    8.4372  -14.2598   21.8614 C   0  0  2  0  0  0  0  0  0  0  0  0
    8.6378  -15.6155   21.2978 N   0  0  0  0  0  0  0  0  0  0  0  0
    8.2126  -14.4713   23.2999 C   0  0  0  0  0  0  0  0  0  0  0  0
    7.9335  -13.5090   24.0967 O   0  0  0  0  0  0  0  0  0  0  0  0
    6.9103  -16.7436   25.5945 C   0  0  0  0  0  0  0  0  0  0  0  0
    8.2295  -16.1196   25.2354 C   0  0  2  0  0  0  0  0  0  0  0  0
    8.3017  -15.7737   23.8432 N   0  0  0  0  0  0  0  0  0  0  0  0
    9.3975  -16.9318   25.6888 C   0  0  0  0  0  0  0  0  0  0  0  0
    9.5483  -17.2100   27.0227 O   0  0  0  0  0  0  0  0  0  0  0  0
   10.2194  -17.3498   24.8581 O   0  0  0  0  0  0  0  0  0  0  0  0
  1  2  1  0
  2  4  1  0
  3  2  2  0
  4  5  1  0
  5  6  1  0
  6  8  1  0
  6  7  1  6
  8  9  2  0
 11 10  1  6
 11 12  1  0
 11 13  1  0
 13 15  1  0
 13 14  1  6
 14  8  1  0
 15 19  1  0
 15 16  2  0
 18 17  1  6
 18 20  1  0
 19 18  1  0
 20 22  2  0
 20 21  1  0
M  END
$$$$
