QTA.pdb
     RDKit          3D

 22 21  0  0  1  0  0  0  0  0999 V2000
   10.3286  -16.6592   18.0154 N   0  0  0  0  0  0  0  0  0  0  0  0
   10.8480  -17.9818   18.2142 C   0  0  0  0  0  0  0  0  0  0  0  0
   10.6126  -18.8219   17.3284 O   0  0  0  0  0  0  0  0  0  0  0  0
   11.6251  -18.3531   19.3973 C   0  0  0  0  0  0  0  0  0  0  0  0
   11.9574  -17.2446   20.3265 C   0  0  0  0  0  0  0  0  0  0  0  0
   11.8077  -17.6278   21.7690 C   0  0  2  0  0  0  0  0  0  0  0  0
   10.8256  -18.7132   21.9185 N   0  0  0  0  0  0  0  0  0  0  0  0
   11.3244  -16.4588   22.5554 C   0  0  0  0  0  0  0  0  0  0  0  0
   11.8010  -15.3046   22.4080 O   0  0  0  0  0  0  0  0  0  0  0  0
    7.7140  -15.4474   22.6717 C   0  0  0  0  0  0  0  0  0  0  0  0
    8.2153  -15.7142   24.0619 C   0  0  1  0  0  0  0  0  0  0  0  0
    8.0399  -17.1103   24.2534 O   0  0  0  0  0  0  0  0  0  0  0  0
    9.7052  -15.4968   24.2317 C   0  0  2  0  0  0  0  0  0  0  0  0
   10.3049  -16.6340   23.4949 N   0  0  0  0  0  0  0  0  0  0  0  0
   10.1796  -15.6433   25.6165 C   0  0  0  0  0  0  0  0  0  0  0  0
   10.8023  -16.6870   26.0188 O   0  0  0  0  0  0  0  0  0  0  0  0
    9.9565  -13.3410   28.6354 C   0  0  0  0  0  0  0  0  0  0  0  0
   10.4045  -14.5819   27.9157 C   0  0  2  0  0  0  0  0  0  0  0  0
    9.9524  -14.6082   26.5527 N   0  0  0  0  0  0  0  0  0  0  0  0
   10.0721  -15.8343   28.6576 C   0  0  0  0  0  0  0  0  0  0  0  0
   10.8077  -16.1795   29.7618 O   0  0  0  0  0  0  0  0  0  0  0  0
    9.1341  -16.5502   28.2726 O   0  0  0  0  0  0  0  0  0  0  0  0
  1  2  1  0
  2  4  1  0
  3  2  2  0
  4  5  1  0
  5  6  1  0
  6  8  1  0
  6  7  1  6
  8  9  2  0
 11 10  1  6
 11 12  1  0
 11 13  1  0
 13 15  1  0
 13 14  1  6
 14  8  1  0
 15 19  1  0
 15 16  2  0
 18 17  1  1
 18 20  1  0
 19 18  1  0
 20 22  2  0
 20 21  1  0
M  END
$$$$
