QTA.pdb
     RDKit          3D

 22 21  0  0  1  0  0  0  0  0999 V2000
   15.6178  -13.8316   17.1624 N   0  0  0  0  0  0  0  0  0  0  0  0
   14.5837  -14.5262   16.4506 C   0  0  0  0  0  0  0  0  0  0  0  0
   14.7041  -14.6105   15.2160 O   0  0  0  0  0  0  0  0  0  0  0  0
   13.4275  -15.1204   17.1228 C   0  0  0  0  0  0  0  0  0  0  0  0
   13.4168  -15.0170   18.6032 C   0  0  0  0  0  0  0  0  0  0  0  0
   12.2727  -15.7561   19.2314 C   0  0  2  0  0  0  0  0  0  0  0  0
   11.3676  -16.2856   18.1992 N   0  0  0  0  0  0  0  0  0  0  0  0
   11.4900  -14.8331   20.0997 C   0  0  0  0  0  0  0  0  0  0  0  0
   12.0361  -13.9461   20.8040 O   0  0  0  0  0  0  0  0  0  0  0  0
    8.3961  -12.7847   19.0532 C   0  0  0  0  0  0  0  0  0  0  0  0
    8.0760  -13.7411   20.1658 C   0  0  1  0  0  0  0  0  0  0  0  0
    7.7365  -14.9579   19.5171 O   0  0  0  0  0  0  0  0  0  0  0  0
    9.2661  -14.0979   21.0330 C   0  0  2  0  0  0  0  0  0  0  0  0
   10.0977  -14.9436   20.1447 N   0  0  0  0  0  0  0  0  0  0  0  0
    8.9366  -14.9557   22.1819 C   0  0  0  0  0  0  0  0  0  0  0  0
    9.1235  -16.2220   22.1651 O   0  0  0  0  0  0  0  0  0  0  0  0
    7.4868  -14.1673   25.6083 C   0  0  0  0  0  0  0  0  0  0  0  0
    7.9783  -15.0946   24.5326 C   0  0  2  0  0  0  0  0  0  0  0  0
    8.3947  -14.3837   23.3560 N   0  0  0  0  0  0  0  0  0  0  0  0
    7.0148  -16.1946   24.2307 C   0  0  0  0  0  0  0  0  0  0  0  0
    6.8776  -17.2327   25.1155 O   0  0  0  0  0  0  0  0  0  0  0  0
    6.3456  -16.1606   23.1859 O   0  0  0  0  0  0  0  0  0  0  0  0
  1  2  1  0
  2  4  1  0
  3  2  2  0
  4  5  1  0
  5  6  1  0
  6  8  1  0
  6  7  1  6
  8  9  2  0
 11 10  1  6
 11 12  1  0
 11 13  1  0
 13 15  1  0
 13 14  1  6
 14  8  1  0
 15 19  1  0
 15 16  2  0
 18 17  1  1
 18 20  1  0
 19 18  1  0
 20 22  2  0
 20 21  1  0
M  END
$$$$
