QTA.pdb
     RDKit          3D

 22 21  0  0  1  0  0  0  0  0999 V2000
   14.0480  -17.6596   22.8797 N   0  0  0  0  0  0  0  0  0  0  0  0
   14.1878  -18.0265   21.4998 C   0  0  0  0  0  0  0  0  0  0  0  0
   15.1152  -18.8027   21.2111 O   0  0  0  0  0  0  0  0  0  0  0  0
   13.2916  -17.5255   20.4570 C   0  0  0  0  0  0  0  0  0  0  0  0
   12.2092  -16.6195   20.9154 C   0  0  0  0  0  0  0  0  0  0  0  0
   10.8543  -17.2619   20.8748 C   0  0  2  0  0  0  0  0  0  0  0  0
   10.3444  -17.3112   19.4955 N   0  0  0  0  0  0  0  0  0  0  0  0
    9.8940  -16.4692   21.6920 C   0  0  0  0  0  0  0  0  0  0  0  0
    9.0422  -15.7026   21.1747 O   0  0  0  0  0  0  0  0  0  0  0  0
    7.1554  -17.4651   22.9909 C   0  0  0  0  0  0  0  0  0  0  0  0
    7.9130  -17.0263   24.2110 C   0  0  1  0  0  0  0  0  0  0  0  0
    8.7112  -18.1449   24.5690 O   0  0  0  0  0  0  0  0  0  0  0  0
    8.9143  -15.9196   23.9493 C   0  0  2  0  0  0  0  0  0  0  0  0
    9.9276  -16.5698   23.0855 N   0  0  0  0  0  0  0  0  0  0  0  0
    9.6522  -15.4823   25.1446 C   0  0  0  0  0  0  0  0  0  0  0  0
   10.7662  -16.0094   25.4909 O   0  0  0  0  0  0  0  0  0  0  0  0
    9.0790  -12.6591   27.6119 C   0  0  0  0  0  0  0  0  0  0  0  0
    9.7063  -13.9528   27.1747 C   0  0  2  0  0  0  0  0  0  0  0  0
    9.1330  -14.4449   25.9531 N   0  0  0  0  0  0  0  0  0  0  0  0
    9.7278  -14.9815   28.2567 C   0  0  0  0  0  0  0  0  0  0  0  0
    9.0654  -16.1676   28.0729 O   0  0  0  0  0  0  0  0  0  0  0  0
   10.3447  -14.7576   29.3102 O   0  0  0  0  0  0  0  0  0  0  0  0
  1  2  1  0
  2  4  1  0
  3  2  2  0
  4  5  1  0
  5  6  1  0
  6  8  1  0
  6  7  1  6
  8  9  2  0
 11 10  1  6
 11 12  1  0
 11 13  1  0
 13 15  1  0
 13 14  1  6
 14  8  1  0
 15 19  1  0
 15 16  2  0
 18 17  1  1
 18 20  1  0
 19 18  1  0
 20 22  2  0
 20 21  1  0
M  END
$$$$
