QTA.pdb
     RDKit          3D

 22 21  0  0  1  0  0  0  0  0999 V2000
   13.3315  -14.6591   20.9524 N   0  0  0  0  0  0  0  0  0  0  0  0
   12.8846  -14.3283   19.6297 C   0  0  0  0  0  0  0  0  0  0  0  0
   13.7212  -14.4051   18.7133 O   0  0  0  0  0  0  0  0  0  0  0  0
   11.5097  -13.9171   19.3430 C   0  0  0  0  0  0  0  0  0  0  0  0
   10.6101  -13.8046   20.5180 C   0  0  0  0  0  0  0  0  0  0  0  0
    9.3720  -14.6412   20.3871 C   0  0  2  0  0  0  0  0  0  0  0  0
    8.4821  -14.0926   19.3517 N   0  0  0  0  0  0  0  0  0  0  0  0
    8.6274  -14.6478   21.6770 C   0  0  0  0  0  0  0  0  0  0  0  0
    7.7354  -13.8027   21.9439 O   0  0  0  0  0  0  0  0  0  0  0  0
    8.7552  -18.1587   24.0728 C   0  0  0  0  0  0  0  0  0  0  0  0
    7.6801  -17.1158   23.9656 C   0  0  1  0  0  0  0  0  0  0  0  0
    6.9656  -17.1984   25.1900 O   0  0  0  0  0  0  0  0  0  0  0  0
    8.2025  -15.6939   23.9314 C   0  0  2  0  0  0  0  0  0  0  0  0
    8.9185  -15.6216   22.6361 N   0  0  0  0  0  0  0  0  0  0  0  0
    9.2227  -15.4042   24.9510 C   0  0  0  0  0  0  0  0  0  0  0  0
   10.4514  -15.7305   24.8003 O   0  0  0  0  0  0  0  0  0  0  0  0
    9.2702  -13.1907   27.9804 C   0  0  0  0  0  0  0  0  0  0  0  0
    9.7329  -14.4108   27.2349 C   0  0  2  0  0  0  0  0  0  0  0  0
    8.8571  -14.7423   26.1458 N   0  0  0  0  0  0  0  0  0  0  0  0
   10.0002  -15.5727   28.1338 C   0  0  0  0  0  0  0  0  0  0  0  0
   11.0128  -15.4940   29.0546 O   0  0  0  0  0  0  0  0  0  0  0  0
    9.3051  -16.5969   28.0432 O   0  0  0  0  0  0  0  0  0  0  0  0
  1  2  1  0
  2  4  1  0
  3  2  2  0
  4  5  1  0
  5  6  1  0
  6  8  1  0
  6  7  1  6
  8  9  2  0
 11 10  1  1
 11 12  1  0
 11 13  1  0
 13 15  1  0
 13 14  1  6
 14  8  1  0
 15 19  1  0
 15 16  2  0
 18 17  1  1
 18 20  1  0
 19 18  1  0
 20 22  2  0
 20 21  1  0
M  END
$$$$
