QTA.pdb
     RDKit          3D

 22 21  0  0  1  0  0  0  0  0999 V2000
   13.1725  -15.0777   18.5385 N   0  0  0  0  0  0  0  0  0  0  0  0
   13.4664  -14.4686   19.8039 C   0  0  0  0  0  0  0  0  0  0  0  0
   14.6567  -14.4540   20.1628 O   0  0  0  0  0  0  0  0  0  0  0  0
   12.4306  -13.8811   20.6546 C   0  0  0  0  0  0  0  0  0  0  0  0
   11.0337  -14.0509   20.1830 C   0  0  0  0  0  0  0  0  0  0  0  0
   10.4193  -15.3434   20.6323 C   0  0  2  0  0  0  0  0  0  0  0  0
    9.6292  -15.9471   19.5477 N   0  0  0  0  0  0  0  0  0  0  0  0
    9.5068  -15.0965   21.7834 C   0  0  0  0  0  0  0  0  0  0  0  0
    8.5132  -14.3302   21.7026 O   0  0  0  0  0  0  0  0  0  0  0  0
    8.8658  -18.1042   24.3858 C   0  0  0  0  0  0  0  0  0  0  0  0
    8.0419  -16.8704   24.1533 C   0  0  1  0  0  0  0  0  0  0  0  0
    7.1996  -16.7719   25.2923 O   0  0  0  0  0  0  0  0  0  0  0  0
    8.8421  -15.5839   24.1662 C   0  0  2  0  0  0  0  0  0  0  0  0
    9.7497  -15.7316   23.0042 N   0  0  0  0  0  0  0  0  0  0  0  0
    9.7295  -15.4401   25.3308 C   0  0  0  0  0  0  0  0  0  0  0  0
   10.8646  -16.0278   25.4018 O   0  0  0  0  0  0  0  0  0  0  0  0
    9.4883  -13.3411   28.4848 C   0  0  0  0  0  0  0  0  0  0  0  0
   10.0533  -14.4582   27.6534 C   0  0  2  0  0  0  0  0  0  0  0  0
    9.3366  -14.6291   26.4204 N   0  0  0  0  0  0  0  0  0  0  0  0
   10.1985  -15.7330   28.4171 C   0  0  0  0  0  0  0  0  0  0  0  0
   11.1783  -15.8404   29.3699 O   0  0  0  0  0  0  0  0  0  0  0  0
    9.4327  -16.6822   28.1868 O   0  0  0  0  0  0  0  0  0  0  0  0
  1  2  1  0
  2  4  1  0
  3  2  2  0
  4  5  1  0
  5  6  1  0
  6  8  1  0
  6  7  1  6
  8  9  2  0
 11 10  1  1
 11 12  1  0
 11 13  1  0
 13 15  1  0
 13 14  1  6
 14  8  1  0
 15 19  1  0
 15 16  2  0
 18 17  1  1
 18 20  1  0
 19 18  1  0
 20 22  2  0
 20 21  1  0
M  END
$$$$
