QTA.pdb
     RDKit          3D

 22 21  0  0  1  0  0  0  0  0999 V2000
   12.5764  -19.5001   21.5761 N   0  0  0  0  0  0  0  0  0  0  0  0
   13.0008  -18.9666   20.3136 C   0  0  0  0  0  0  0  0  0  0  0  0
   14.2250  -18.8489   20.1310 O   0  0  0  0  0  0  0  0  0  0  0  0
   12.0562  -18.5714   19.2681 C   0  0  0  0  0  0  0  0  0  0  0  0
   10.6228  -18.8151   19.5661 C   0  0  0  0  0  0  0  0  0  0  0  0
    9.7227  -17.7505   19.0127 C   0  0  2  0  0  0  0  0  0  0  0  0
   10.2219  -17.2724   17.7138 N   0  0  0  0  0  0  0  0  0  0  0  0
    9.6801  -16.5894   19.9446 C   0  0  0  0  0  0  0  0  0  0  0  0
   10.5656  -15.6968   19.9490 O   0  0  0  0  0  0  0  0  0  0  0  0
    6.6647  -14.3906   20.1886 C   0  0  0  0  0  0  0  0  0  0  0  0
    7.0020  -14.9201   21.5527 C   0  0  1  0  0  0  0  0  0  0  0  0
    6.3142  -16.1589   21.6457 O   0  0  0  0  0  0  0  0  0  0  0  0
    8.4616  -15.2876   21.7273 C   0  0  2  0  0  0  0  0  0  0  0  0
    8.6247  -16.4730   20.8531 N   0  0  0  0  0  0  0  0  0  0  0  0
    8.8054  -15.7568   23.0786 C   0  0  0  0  0  0  0  0  0  0  0  0
    9.0680  -16.9843   23.3297 O   0  0  0  0  0  0  0  0  0  0  0  0
    9.0116  -13.9547   26.4192 C   0  0  0  0  0  0  0  0  0  0  0  0
    9.1867  -15.1430   25.5161 C   0  0  2  0  0  0  0  0  0  0  0  0
    8.8548  -14.8381   24.1523 N   0  0  0  0  0  0  0  0  0  0  0  0
    8.4880  -16.3624   26.0205 C   0  0  0  0  0  0  0  0  0  0  0  0
    9.1120  -17.1655   26.9398 O   0  0  0  0  0  0  0  0  0  0  0  0
    7.3505  -16.6383   25.6076 O   0  0  0  0  0  0  0  0  0  0  0  0
  1  2  1  0
  2  4  1  0
  3  2  2  0
  4  5  1  0
  5  6  1  0
  6  8  1  0
  6  7  1  6
  8  9  2  0
 11 10  1  6
 11 12  1  0
 11 13  1  0
 13 15  1  0
 13 14  1  6
 14  8  1  0
 15 19  1  0
 15 16  2  0
 18 17  1  1
 18 20  1  0
 19 18  1  0
 20 22  2  0
 20 21  1  0
M  END
$$$$
