QTA.pdb
     RDKit          3D

 22 21  0  0  1  0  0  0  0  0999 V2000
    4.9595  -19.1301   15.9262 N   0  0  0  0  0  0  0  0  0  0  0  0
    5.9974  -19.4363   16.8682 C   0  0  0  0  0  0  0  0  0  0  0  0
    5.6433  -19.7876   18.0071 O   0  0  0  0  0  0  0  0  0  0  0  0
    7.4186  -19.3488   16.5301 C   0  0  0  0  0  0  0  0  0  0  0  0
    8.2582  -18.5594   17.4652 C   0  0  0  0  0  0  0  0  0  0  0  0
    8.1971  -17.0842   17.2006 C   0  0  2  0  0  0  0  0  0  0  0  0
    8.8182  -16.7630   15.9059 N   0  0  0  0  0  0  0  0  0  0  0  0
    8.9397  -16.3488   18.2618 C   0  0  0  0  0  0  0  0  0  0  0  0
   10.1624  -16.0736   18.1606 O   0  0  0  0  0  0  0  0  0  0  0  0
    7.4582  -13.1726   19.8313 C   0  0  0  0  0  0  0  0  0  0  0  0
    7.8417  -14.1616   20.8942 C   0  0  1  0  0  0  0  0  0  0  0  0
    6.6909  -14.9745   21.0713 O   0  0  0  0  0  0  0  0  0  0  0  0
    8.9250  -15.1324   20.4704 C   0  0  2  0  0  0  0  0  0  0  0  0
    8.2679  -15.9428   19.4180 N   0  0  0  0  0  0  0  0  0  0  0  0
    9.3095  -16.0962   21.5133 C   0  0  0  0  0  0  0  0  0  0  0  0
    8.7276  -17.2288   21.6452 O   0  0  0  0  0  0  0  0  0  0  0  0
   12.3468  -16.7857   23.3981 C   0  0  0  0  0  0  0  0  0  0  0  0
   10.8538  -16.6260   23.4621 C   0  0  2  0  0  0  0  0  0  0  0  0
   10.3557  -15.7828   22.4114 N   0  0  0  0  0  0  0  0  0  0  0  0
   10.3727  -16.2091   24.8128 C   0  0  0  0  0  0  0  0  0  0  0  0
   10.6287  -17.0089   25.8963 O   0  0  0  0  0  0  0  0  0  0  0  0
    9.7489  -15.1443   24.9452 O   0  0  0  0  0  0  0  0  0  0  0  0
  1  2  1  0
  2  4  1  0
  3  2  2  0
  4  5  1  0
  5  6  1  0
  6  8  1  0
  6  7  1  6
  8  9  2  0
 11 10  1  6
 11 12  1  0
 11 13  1  0
 13 15  1  0
 13 14  1  6
 14  8  1  0
 15 19  1  0
 15 16  2  0
 18 17  1  1
 18 20  1  0
 19 18  1  0
 20 22  2  0
 20 21  1  0
M  END
$$$$
