QTA.pdb
     RDKit          3D

 22 21  0  0  1  0  0  0  0  0999 V2000
   15.9669  -15.4196   23.3492 N   0  0  0  0  0  0  0  0  0  0  0  0
   15.9241  -15.6669   21.9366 C   0  0  0  0  0  0  0  0  0  0  0  0
   17.0080  -15.8778   21.3653 O   0  0  0  0  0  0  0  0  0  0  0  0
   14.6736  -15.6778   21.1766 C   0  0  0  0  0  0  0  0  0  0  0  0
   14.1896  -17.0135   20.7472 C   0  0  0  0  0  0  0  0  0  0  0  0
   12.9926  -16.9384   19.8463 C   0  0  2  0  0  0  0  0  0  0  0  0
   13.2825  -16.1092   18.6660 N   0  0  0  0  0  0  0  0  0  0  0  0
   11.8500  -16.3190   20.5740 C   0  0  0  0  0  0  0  0  0  0  0  0
   11.5969  -15.0892   20.5079 O   0  0  0  0  0  0  0  0  0  0  0  0
    8.3912  -17.9540   20.3887 C   0  0  0  0  0  0  0  0  0  0  0  0
    8.7909  -17.7196   21.8170 C   0  0  1  0  0  0  0  0  0  0  0  0
    9.5042  -18.8879   22.1948 O   0  0  0  0  0  0  0  0  0  0  0  0
    9.7894  -16.5948   22.0006 C   0  0  2  0  0  0  0  0  0  0  0  0
   11.0198  -17.1197   21.3629 N   0  0  0  0  0  0  0  0  0  0  0  0
   10.1603  -16.3436   23.4019 C   0  0  0  0  0  0  0  0  0  0  0  0
   11.2230  -16.8291   23.9252 O   0  0  0  0  0  0  0  0  0  0  0  0
    8.5845  -14.1963   26.1099 C   0  0  0  0  0  0  0  0  0  0  0  0
    9.5346  -15.2474   25.6087 C   0  0  2  0  0  0  0  0  0  0  0  0
    9.3303  -15.5403   24.2175 N   0  0  0  0  0  0  0  0  0  0  0  0
    9.5443  -16.4736   26.4606 C   0  0  0  0  0  0  0  0  0  0  0  0
   10.1137  -16.4246   27.7067 O   0  0  0  0  0  0  0  0  0  0  0  0
    9.0366  -17.5242   26.0375 O   0  0  0  0  0  0  0  0  0  0  0  0
  1  2  1  0
  2  4  1  0
  3  2  2  0
  4  5  1  0
  5  6  1  0
  6  8  1  0
  6  7  1  6
  8  9  2  0
 11 10  1  6
 11 12  1  0
 11 13  1  0
 13 15  1  0
 13 14  1  6
 14  8  1  0
 15 19  1  0
 15 16  2  0
 18 17  1  1
 18 20  1  0
 19 18  1  0
 20 22  2  0
 20 21  1  0
M  END
$$$$
