QTA.pdb
     RDKit          3D

 22 21  0  0  1  0  0  0  0  0999 V2000
    5.4947  -22.0023   22.2939 N   0  0  0  0  0  0  0  0  0  0  0  0
    4.1761  -21.6688   22.7503 C   0  0  0  0  0  0  0  0  0  0  0  0
    3.3374  -22.5861   22.7785 O   0  0  0  0  0  0  0  0  0  0  0  0
    3.8071  -20.3167   23.1716 C   0  0  0  0  0  0  0  0  0  0  0  0
    4.9251  -19.3474   23.2856 C   0  0  0  0  0  0  0  0  0  0  0  0
    4.7011  -18.1012   22.4813 C   0  0  2  0  0  0  0  0  0  0  0  0
    3.6659  -18.3222   21.4593 N   0  0  0  0  0  0  0  0  0  0  0  0
    5.9600  -17.7156   21.7848 C   0  0  0  0  0  0  0  0  0  0  0  0
    6.2806  -18.1862   20.6638 O   0  0  0  0  0  0  0  0  0  0  0  0
    6.6430  -14.3624   20.9073 C   0  0  0  0  0  0  0  0  0  0  0  0
    7.8542  -14.8047   21.6769 C   0  0  1  0  0  0  0  0  0  0  0  0
    7.5781  -14.4583   23.0261 O   0  0  0  0  0  0  0  0  0  0  0  0
    8.0497  -16.3069   21.7079 C   0  0  2  0  0  0  0  0  0  0  0  0
    6.8270  -16.7989   22.3854 N   0  0  0  0  0  0  0  0  0  0  0  0
    9.1650  -16.7500   22.5589 C   0  0  0  0  0  0  0  0  0  0  0  0
    9.1034  -16.7192   23.8372 O   0  0  0  0  0  0  0  0  0  0  0  0
   12.5653  -18.2300   21.7164 C   0  0  0  0  0  0  0  0  0  0  0  0
   11.4983  -17.7543   22.6618 C   0  0  2  0  0  0  0  0  0  0  0  0
   10.3552  -17.2315   21.9666 N   0  0  0  0  0  0  0  0  0  0  0  0
   12.0199  -16.8167   23.7002 C   0  0  0  0  0  0  0  0  0  0  0  0
   12.5804  -17.3222   24.8447 O   0  0  0  0  0  0  0  0  0  0  0  0
   11.9449  -15.5910   23.5199 O   0  0  0  0  0  0  0  0  0  0  0  0
  1  2  1  0
  2  4  1  0
  3  2  2  0
  4  5  1  0
  5  6  1  0
  6  8  1  0
  6  7  1  6
  8  9  2  0
 11 10  1  6
 11 12  1  0
 11 13  1  0
 13 15  1  0
 13 14  1  1
 14  8  1  0
 15 19  1  0
 15 16  2  0
 18 17  1  6
 18 20  1  0
 19 18  1  0
 20 22  2  0
 20 21  1  0
M  END
$$$$
