KRR.pdb
     RDKit          3D

 32 31  0  0  1  0  0  0  0  0999 V2000
   28.6791  -21.9609  -17.9433 N   0  0  0  0  0  0  0  0  0  0  0  0
   28.0727  -20.9393  -17.1127 C   0  0  1  0  0  0  0  0  0  0  0  0
   27.4272  -19.8543  -17.9504 C   0  0  0  0  0  0  0  0  0  0  0  0
   28.4501  -19.1038  -18.7702 C   0  0  0  0  0  0  0  0  0  0  0  0
   27.8626  -17.9935  -19.5688 C   0  0  0  0  0  0  0  0  0  0  0  0
   28.8726  -17.2697  -20.4223 C   0  0  0  0  0  0  0  0  0  0  0  0
   28.2943  -16.1609  -21.1451 N   0  0  0  0  0  0  0  0  0  0  0  0
   27.1188  -21.5499  -16.1501 C   0  0  0  0  0  0  0  0  0  0  0  0
   26.2526  -22.3782  -16.6040 O   0  0  0  0  0  0  0  0  0  0  0  0
   25.5104  -19.4562   -8.7346 N   0  0  0  0  0  0  0  0  0  0  0  0
   24.7190  -20.6280   -8.5382 C   0  0  0  0  0  0  0  0  0  0  0  0
   23.6647  -20.5044   -7.7984 N   0  0  0  0  0  0  0  0  0  0  0  0
   25.0500  -21.8807   -9.1111 N   0  0  0  0  0  0  0  0  0  0  0  0
   26.1854  -21.9408  -10.0035 C   0  0  0  0  0  0  0  0  0  0  0  0
   25.7708  -22.2637  -11.4421 C   0  0  0  0  0  0  0  0  0  0  0  0
   26.6605  -21.5331  -12.4083 C   0  0  0  0  0  0  0  0  0  0  0  0
   26.2189  -21.7895  -13.8105 C   0  0  2  0  0  0  0  0  0  0  0  0
   27.1609  -21.2334  -14.7738 N   0  0  0  0  0  0  0  0  0  0  0  0
   24.8739  -21.3521  -14.1658 C   0  0  0  0  0  0  0  0  0  0  0  0
   24.5509  -20.1777  -14.4870 O   0  0  0  0  0  0  0  0  0  0  0  0
   23.0933  -21.3575   -7.5437 N   0  0  0  0  0  0  0  0  0  0  0  0
   18.1287  -25.8002  -17.3686 C   0  0  0  0  0  0  0  0  0  0  0  0
   19.3082  -25.1575  -17.8394 N   0  0  0  0  0  0  0  0  0  0  0  0
   19.7981  -25.4992  -18.9701 N   0  0  0  0  0  0  0  0  0  0  0  0
   19.9309  -24.1404  -17.0544 C   0  0  0  0  0  0  0  0  0  0  0  0
   19.3596  -23.7494  -15.7870 C   0  0  0  0  0  0  0  0  0  0  0  0
   20.1947  -22.5425  -15.2909 C   0  0  0  0  0  0  0  0  0  0  0  0
   21.5737  -23.0038  -14.9076 C   0  0  2  0  0  0  0  0  0  0  0  0
   22.4059  -21.8737  -14.4415 N   0  0  0  0  0  0  0  0  0  0  0  0
   23.7837  -22.2802  -14.1713 C   0  0  0  0  0  0  0  0  0  0  0  0
   21.8510  -21.1458  -13.2846 O   0  0  0  0  0  0  0  0  0  0  0  0
   20.7678  -20.2695  -13.4846 O   0  0  0  0  0  0  0  0  0  0  0  0
  2  1  1  6
  3  2  1  0
  4  3  1  0
  5  4  1  0
  6  7  1  0
  6  5  1  0
  8  9  2  0
  8  2  1  0
 11 10  1  0
 12 11  2  0
 13 11  1  0
 14 13  1  0
 15 14  1  0
 15 16  1  0
 17 16  1  1
 17 18  1  0
 18  8  1  0
 19 17  1  0
 19 20  2  0
 22 21  1  0
 23 22  2  0
 24 22  1  0
 25 24  1  0
 26 27  1  0
 26 25  1  0
 28 27  1  6
 29 28  1  0
 29 19  1  0
 30 28  1  0
 31 30  1  0
 32 30  2  0
M  END
$$$$
