KRR.pdb
     RDKit          3D

 32 31  0  0  1  0  0  0  0  0999 V2000
   26.7824  -27.3859  -17.1132 N   0  0  0  0  0  0  0  0  0  0  0  0
   26.4355  -26.0682  -17.6079 C   0  0  1  0  0  0  0  0  0  0  0  0
   25.4612  -26.1490  -18.7655 C   0  0  0  0  0  0  0  0  0  0  0  0
   24.0412  -26.3309  -18.2839 C   0  0  0  0  0  0  0  0  0  0  0  0
   23.0530  -26.4287  -19.3927 C   0  0  0  0  0  0  0  0  0  0  0  0
   21.6310  -26.5813  -18.9163 C   0  0  0  0  0  0  0  0  0  0  0  0
   20.6961  -26.7439  -20.0054 N   0  0  0  0  0  0  0  0  0  0  0  0
   25.9268  -25.2147  -16.5024 C   0  0  0  0  0  0  0  0  0  0  0  0
   25.6110  -25.7839  -15.3985 O   0  0  0  0  0  0  0  0  0  0  0  0
   27.0994  -17.5149  -14.4385 N   0  0  0  0  0  0  0  0  0  0  0  0
   27.8072  -18.6902  -14.0439 C   0  0  0  0  0  0  0  0  0  0  0  0
   28.3304  -18.6880  -12.8605 N   0  0  0  0  0  0  0  0  0  0  0  0
   27.9489  -19.8188  -14.8884 N   0  0  0  0  0  0  0  0  0  0  0  0
   27.3770  -19.7513  -16.2141 C   0  0  0  0  0  0  0  0  0  0  0  0
   26.3457  -20.8580  -16.4536 C   0  0  0  0  0  0  0  0  0  0  0  0
   26.4007  -21.8606  -15.3352 C   0  0  0  0  0  0  0  0  0  0  0  0
   25.3957  -22.9403  -15.5610 C   0  0  2  0  0  0  0  0  0  0  0  0
   25.7946  -23.8164  -16.6555 N   0  0  0  0  0  0  0  0  0  0  0  0
   24.0167  -22.5190  -15.7784 C   0  0  0  0  0  0  0  0  0  0  0  0
   23.5346  -22.1441  -16.8801 O   0  0  0  0  0  0  0  0  0  0  0  0
   28.9368  -19.4967  -12.5480 N   0  0  0  0  0  0  0  0  0  0  0  0
   16.4239  -23.5883  -13.9842 C   0  0  0  0  0  0  0  0  0  0  0  0
   17.4024  -24.3700  -13.3078 N   0  0  0  0  0  0  0  0  0  0  0  0
   17.3003  -25.6447  -13.3167 N   0  0  0  0  0  0  0  0  0  0  0  0
   18.4859  -23.7319  -12.6316 C   0  0  0  0  0  0  0  0  0  0  0  0
   18.5988  -22.2922  -12.6381 C   0  0  0  0  0  0  0  0  0  0  0  0
   19.4426  -21.9309  -13.8862 C   0  0  0  0  0  0  0  0  0  0  0  0
   20.8630  -22.3824  -13.6857 C   0  0  2  0  0  0  0  0  0  0  0  0
   21.7044  -22.0361  -14.8514 N   0  0  0  0  0  0  0  0  0  0  0  0
   23.0798  -22.5058  -14.6958 C   0  0  0  0  0  0  0  0  0  0  0  0
   21.6898  -20.6049  -15.2088 O   0  0  0  0  0  0  0  0  0  0  0  0
   22.5013  -19.7118  -14.4843 O   0  0  0  0  0  0  0  0  0  0  0  0
  2  1  1  1
  3  2  1  0
  4  3  1  0
  5  4  1  0
  6  7  1  0
  6  5  1  0
  8  9  2  0
  8  2  1  0
 11 10  1  0
 12 11  2  0
 13 11  1  0
 14 13  1  0
 15 14  1  0
 15 16  1  0
 17 16  1  6
 17 18  1  0
 18  8  1  0
 19 17  1  0
 19 20  2  0
 22 21  1  0
 23 22  2  0
 24 22  1  0
 25 24  1  0
 26 27  1  0
 26 25  1  0
 28 27  1  6
 29 28  1  0
 29 19  1  0
 30 28  1  0
 31 30  1  0
 32 30  2  0
M  END
$$$$
