KRR.pdb
     RDKit          3D

 32 31  0  0  1  0  0  0  0  0999 V2000
   26.1318  -12.4501  -16.5397 N   0  0  0  0  0  0  0  0  0  0  0  0
   25.6099  -13.3579  -15.5373 C   0  0  1  0  0  0  0  0  0  0  0  0
   24.2466  -12.9166  -15.0452 C   0  0  0  0  0  0  0  0  0  0  0  0
   23.9813  -11.4660  -15.3726 C   0  0  0  0  0  0  0  0  0  0  0  0
   22.6949  -10.9643  -14.8167 C   0  0  0  0  0  0  0  0  0  0  0  0
   22.3266   -9.5873  -15.3073 C   0  0  0  0  0  0  0  0  0  0  0  0
   21.0056   -9.1835  -14.8851 N   0  0  0  0  0  0  0  0  0  0  0  0
   25.5981  -14.7518  -16.0533 C   0  0  0  0  0  0  0  0  0  0  0  0
   25.3570  -14.9307  -17.2992 O   0  0  0  0  0  0  0  0  0  0  0  0
   27.7283  -23.1816  -15.3622 N   0  0  0  0  0  0  0  0  0  0  0  0
   28.5596  -22.2742  -16.0859 C   0  0  0  0  0  0  0  0  0  0  0  0
   29.2512  -22.7666  -17.0622 N   0  0  0  0  0  0  0  0  0  0  0  0
   28.6453  -20.8958  -15.7701 N   0  0  0  0  0  0  0  0  0  0  0  0
   27.7361  -20.3684  -14.7781 C   0  0  0  0  0  0  0  0  0  0  0  0
   26.6293  -19.5162  -15.4063 C   0  0  0  0  0  0  0  0  0  0  0  0
   26.8619  -18.0641  -15.0959 C   0  0  0  0  0  0  0  0  0  0  0  0
   25.7568  -17.2336  -15.6578 C   0  0  2  0  0  0  0  0  0  0  0  0
   25.8467  -15.8519  -15.2024 N   0  0  0  0  0  0  0  0  0  0  0  0
   24.3973  -17.7117  -15.4349 C   0  0  0  0  0  0  0  0  0  0  0  0
   23.6840  -17.4384  -14.4333 O   0  0  0  0  0  0  0  0  0  0  0  0
   29.9726  -22.1694  -17.5544 N   0  0  0  0  0  0  0  0  0  0  0  0
   17.2615  -17.8124  -12.9670 C   0  0  0  0  0  0  0  0  0  0  0  0
   17.3658  -18.9424  -13.8264 N   0  0  0  0  0  0  0  0  0  0  0  0
   16.7681  -20.0274  -13.5086 N   0  0  0  0  0  0  0  0  0  0  0  0
   18.1279  -18.8576  -15.0306 C   0  0  0  0  0  0  0  0  0  0  0  0
   19.5174  -18.4666  -14.9846 C   0  0  0  0  0  0  0  0  0  0  0  0
   19.9942  -18.3930  -16.4568 C   0  0  0  0  0  0  0  0  0  0  0  0
   21.4145  -17.9012  -16.5055 C   0  0  1  0  0  0  0  0  0  0  0  0
   22.3707  -19.0008  -16.2538 N   0  0  0  0  0  0  0  0  0  0  0  0
   23.7590  -18.5646  -16.3915 C   0  0  0  0  0  0  0  0  0  0  0  0
   22.1322  -20.2117  -17.0618 O   0  0  0  0  0  0  0  0  0  0  0  0
   21.3151  -21.2315  -16.5392 O   0  0  0  0  0  0  0  0  0  0  0  0
  2  1  1  6
  3  2  1  0
  4  3  1  0
  5  4  1  0
  6  7  1  0
  6  5  1  0
  8  9  2  0
  8  2  1  0
 11 10  1  0
 12 11  2  0
 13 11  1  0
 14 13  1  0
 15 14  1  0
 15 16  1  0
 17 16  1  1
 17 18  1  0
 18  8  1  0
 19 17  1  0
 19 20  2  0
 22 21  1  0
 23 22  2  0
 24 22  1  0
 25 24  1  0
 26 27  1  0
 26 25  1  0
 28 27  1  1
 29 28  1  0
 29 19  1  0
 30 28  1  0
 31 30  1  0
 32 30  2  0
M  END
$$$$
