KRR.pdb
     RDKit          3D

 32 31  0  0  1  0  0  0  0  0999 V2000
   23.1032  -19.9887   -9.1763 N   0  0  0  0  0  0  0  0  0  0  0  0
   23.8283  -20.9052  -10.0339 C   0  0  1  0  0  0  0  0  0  0  0  0
   22.9150  -21.5460  -11.0590 C   0  0  0  0  0  0  0  0  0  0  0  0
   22.2640  -20.5111  -11.9460 C   0  0  0  0  0  0  0  0  0  0  0  0
   20.8356  -20.8067  -12.2425 C   0  0  0  0  0  0  0  0  0  0  0  0
   20.1801  -19.7734  -13.1229 C   0  0  0  0  0  0  0  0  0  0  0  0
   18.7698  -20.0213  -13.3127 N   0  0  0  0  0  0  0  0  0  0  0  0
   24.9887  -20.2215  -10.6628 C   0  0  0  0  0  0  0  0  0  0  0  0
   25.4214  -19.1454  -10.1180 O   0  0  0  0  0  0  0  0  0  0  0  0
   32.8283  -21.4248   -8.9462 N   0  0  0  0  0  0  0  0  0  0  0  0
   32.3176  -22.3075   -9.9452 C   0  0  0  0  0  0  0  0  0  0  0  0
   33.1858  -22.9668  -10.6421 N   0  0  0  0  0  0  0  0  0  0  0  0
   30.9312  -22.4713  -10.1863 N   0  0  0  0  0  0  0  0  0  0  0  0
   30.0472  -21.3836   -9.8333 C   0  0  0  0  0  0  0  0  0  0  0  0
   29.2680  -20.8590  -11.0430 C   0  0  0  0  0  0  0  0  0  0  0  0
   27.8094  -21.1907  -10.8963 C   0  0  0  0  0  0  0  0  0  0  0  0
   27.0398  -20.6557  -12.0575 C   0  0  2  0  0  0  0  0  0  0  0  0
   25.6032  -20.7379  -11.8256 N   0  0  0  0  0  0  0  0  0  0  0  0
   27.3363  -21.2324  -13.3636 C   0  0  0  0  0  0  0  0  0  0  0  0
   27.2193  -22.4496  -13.6659 O   0  0  0  0  0  0  0  0  0  0  0  0
   32.8625  -23.6407  -11.3909 N   0  0  0  0  0  0  0  0  0  0  0  0
   20.5943  -19.4867  -16.6913 C   0  0  0  0  0  0  0  0  0  0  0  0
   21.2951  -20.7257  -16.6875 N   0  0  0  0  0  0  0  0  0  0  0  0
   20.6344  -21.8180  -16.6117 N   0  0  0  0  0  0  0  0  0  0  0  0
   22.7202  -20.7420  -16.7713 C   0  0  0  0  0  0  0  0  0  0  0  0
   23.4703  -19.5164  -16.6269 C   0  0  0  0  0  0  0  0  0  0  0  0
   24.9562  -19.8901  -16.8553 C   0  0  0  0  0  0  0  0  0  0  0  0
   25.6614  -19.9963  -15.5312 C   0  0  1  0  0  0  0  0  0  0  0  0
   27.0969  -20.3019  -15.7122 N   0  0  0  0  0  0  0  0  0  0  0  0
   27.8020  -20.4061  -14.4361 C   0  0  0  0  0  0  0  0  0  0  0  0
   27.8070  -19.3763  -16.6151 O   0  0  0  0  0  0  0  0  0  0  0  0
   27.8614  -19.6710  -17.9903 O   0  0  0  0  0  0  0  0  0  0  0  0
  2  1  1  6
  3  2  1  0
  4  3  1  0
  5  4  1  0
  6  7  1  0
  6  5  1  0
  8  9  2  0
  8  2  1  0
 11 10  1  0
 12 11  2  0
 13 11  1  0
 14 13  1  0
 15 14  1  0
 15 16  1  0
 17 16  1  1
 17 18  1  0
 18  8  1  0
 19 17  1  0
 19 20  2  0
 22 21  1  0
 23 22  2  0
 24 22  1  0
 25 24  1  0
 26 27  1  0
 26 25  1  0
 28 27  1  1
 29 28  1  0
 29 19  1  0
 30 28  1  0
 31 30  1  0
 32 30  2  0
M  END
$$$$
