KRR.pdb
     RDKit          3D

 32 31  0  0  1  0  0  0  0  0999 V2000
   18.3091  -24.6780   -8.1616 N   0  0  0  0  0  0  0  0  0  0  0  0
   16.9635  -24.9200   -7.6796 C   0  0  1  0  0  0  0  0  0  0  0  0
   16.7427  -26.3852   -7.3633 C   0  0  0  0  0  0  0  0  0  0  0  0
   16.8482  -27.2424   -8.6025 C   0  0  0  0  0  0  0  0  0  0  0  0
   15.5416  -27.4534   -9.2836 C   0  0  0  0  0  0  0  0  0  0  0  0
   15.3987  -28.8242   -9.8942 C   0  0  0  0  0  0  0  0  0  0  0  0
   14.1404  -28.9959  -10.5825 N   0  0  0  0  0  0  0  0  0  0  0  0
   16.6606  -24.0416   -6.5193 C   0  0  0  0  0  0  0  0  0  0  0  0
   17.6035  -23.7976   -5.6865 O   0  0  0  0  0  0  0  0  0  0  0  0
   10.2930  -18.9586   -7.6563 N   0  0  0  0  0  0  0  0  0  0  0  0
   11.1320  -19.8364   -8.4070 C   0  0  0  0  0  0  0  0  0  0  0  0
   11.0740  -19.7402   -9.6960 N   0  0  0  0  0  0  0  0  0  0  0  0
   11.9943  -20.7800   -7.7965 N   0  0  0  0  0  0  0  0  0  0  0  0
   11.7097  -21.1804   -6.4371 C   0  0  0  0  0  0  0  0  0  0  0  0
   12.7268  -22.1977   -5.9113 C   0  0  0  0  0  0  0  0  0  0  0  0
   14.0597  -21.5328   -5.7104 C   0  0  0  0  0  0  0  0  0  0  0  0
   15.0747  -22.5351   -5.2720 C   0  0  2  0  0  0  0  0  0  0  0  0
   15.3746  -23.4866   -6.3345 N   0  0  0  0  0  0  0  0  0  0  0  0
   14.7815  -23.2755   -4.0504 C   0  0  0  0  0  0  0  0  0  0  0  0
   14.5469  -24.5114   -3.9862 O   0  0  0  0  0  0  0  0  0  0  0  0
   11.6679  -20.3726  -10.3016 N   0  0  0  0  0  0  0  0  0  0  0  0
   16.9327  -21.4898    4.2657 C   0  0  0  0  0  0  0  0  0  0  0  0
   16.5804  -22.4404    3.2666 N   0  0  0  0  0  0  0  0  0  0  0  0
   16.9620  -23.6542    3.3955 N   0  0  0  0  0  0  0  0  0  0  0  0
   15.8060  -22.0376    2.1368 C   0  0  0  0  0  0  0  0  0  0  0  0
   14.3773  -22.2477    2.1235 C   0  0  0  0  0  0  0  0  0  0  0  0
   14.0831  -23.1369    0.8896 C   0  0  0  0  0  0  0  0  0  0  0  0
   14.5308  -22.4322   -0.3612 C   0  0  2  0  0  0  0  0  0  0  0  0
   14.3023  -23.2696   -1.5585 N   0  0  0  0  0  0  0  0  0  0  0  0
   14.7409  -22.6066   -2.7851 C   0  0  0  0  0  0  0  0  0  0  0  0
   12.9171  -23.7549   -1.7064 O   0  0  0  0  0  0  0  0  0  0  0  0
   12.6218  -25.0898   -1.3720 O   0  0  0  0  0  0  0  0  0  0  0  0
  2  1  1  1
  3  2  1  0
  4  3  1  0
  5  4  1  0
  6  7  1  0
  6  5  1  0
  8  9  2  0
  8  2  1  0
 11 10  1  0
 12 11  2  0
 13 11  1  0
 14 13  1  0
 15 14  1  0
 15 16  1  0
 17 16  1  6
 17 18  1  0
 18  8  1  0
 19 17  1  0
 19 20  2  0
 22 21  1  0
 23 22  2  0
 24 22  1  0
 25 24  1  0
 26 27  1  0
 26 25  1  0
 28 27  1  1
 29 28  1  0
 29 19  1  0
 30 28  1  0
 31 30  1  0
 32 30  2  0
M  END
$$$$
