KRR.pdb
     RDKit          3D

 32 31  0  0  1  0  0  0  0  0999 V2000
   27.9814  -23.7326  -17.6673 N   0  0  0  0  0  0  0  0  0  0  0  0
   27.2922  -22.4678  -17.5041 C   0  0  1  0  0  0  0  0  0  0  0  0
   26.8055  -21.9258  -18.8326 C   0  0  0  0  0  0  0  0  0  0  0  0
   27.9529  -21.4473  -19.6905 C   0  0  0  0  0  0  0  0  0  0  0  0
   28.3401  -20.0358  -19.4195 C   0  0  0  0  0  0  0  0  0  0  0  0
   29.4245  -19.5258  -20.3339 C   0  0  0  0  0  0  0  0  0  0  0  0
   29.8691  -18.1979  -19.9796 N   0  0  0  0  0  0  0  0  0  0  0  0
   26.1926  -22.5987  -16.5125 C   0  0  0  0  0  0  0  0  0  0  0  0
   25.8979  -23.7726  -16.0914 O   0  0  0  0  0  0  0  0  0  0  0  0
   23.9617  -21.1550   -8.9588 N   0  0  0  0  0  0  0  0  0  0  0  0
   25.2342  -21.0216   -9.5919 C   0  0  0  0  0  0  0  0  0  0  0  0
   26.2632  -21.4445   -8.9313 N   0  0  0  0  0  0  0  0  0  0  0  0
   25.3930  -20.4542  -10.8803 N   0  0  0  0  0  0  0  0  0  0  0  0
   24.2188  -19.9323  -11.5421 C   0  0  0  0  0  0  0  0  0  0  0  0
   23.8123  -20.7828  -12.7493 C   0  0  0  0  0  0  0  0  0  0  0  0
   24.8786  -20.7152  -13.8063 C   0  0  0  0  0  0  0  0  0  0  0  0
   24.4910  -21.5466  -14.9833 C   0  0  2  0  0  0  0  0  0  0  0  0
   25.4899  -21.4670  -16.0417 N   0  0  0  0  0  0  0  0  0  0  0  0
   23.1763  -21.2940  -15.5614 C   0  0  0  0  0  0  0  0  0  0  0  0
   22.8318  -20.2368  -16.1534 O   0  0  0  0  0  0  0  0  0  0  0  0
   27.2350  -21.3281   -9.3329 N   0  0  0  0  0  0  0  0  0  0  0  0
   15.8566  -20.5997  -12.5613 C   0  0  0  0  0  0  0  0  0  0  0  0
   16.7552  -21.6853  -12.7618 N   0  0  0  0  0  0  0  0  0  0  0  0
   16.7520  -22.6610  -11.9351 N   0  0  0  0  0  0  0  0  0  0  0  0
   17.6454  -21.6807  -13.8779 C   0  0  0  0  0  0  0  0  0  0  0  0
   17.6044  -20.6000  -14.8351 C   0  0  0  0  0  0  0  0  0  0  0  0
   18.6459  -20.9506  -15.9270 C   0  0  0  0  0  0  0  0  0  0  0  0
   19.9966  -21.1456  -15.2951 C   0  0  1  0  0  0  0  0  0  0  0  0
   20.8227  -22.0894  -16.0784 N   0  0  0  0  0  0  0  0  0  0  0  0
   22.1451  -22.2844  -15.4868 C   0  0  0  0  0  0  0  0  0  0  0  0
   20.9471  -21.7477  -17.5081 O   0  0  0  0  0  0  0  0  0  0  0  0
   21.7204  -20.6316  -17.8787 O   0  0  0  0  0  0  0  0  0  0  0  0
  2  1  1  6
  3  2  1  0
  4  3  1  0
  5  4  1  0
  6  7  1  0
  6  5  1  0
  8  9  2  0
  8  2  1  0
 11 10  1  0
 12 11  2  0
 13 11  1  0
 14 13  1  0
 15 14  1  0
 15 16  1  0
 17 16  1  1
 17 18  1  0
 18  8  1  0
 19 17  1  0
 19 20  2  0
 22 21  1  0
 23 22  2  0
 24 22  1  0
 25 24  1  0
 26 27  1  0
 26 25  1  0
 28 27  1  1
 29 28  1  0
 29 19  1  0
 30 28  1  0
 31 30  1  0
 32 30  2  0
M  END
$$$$
