KRR.pdb
     RDKit          3D

 32 31  0  0  1  0  0  0  0  0999 V2000
   15.0664  -28.7751  -11.3360 N   0  0  0  0  0  0  0  0  0  0  0  0
   14.7140  -27.5239  -10.6944 C   0  0  1  0  0  0  0  0  0  0  0  0
   13.3048  -27.5629  -10.1391 C   0  0  0  0  0  0  0  0  0  0  0  0
   12.2733  -27.4112  -11.2322 C   0  0  0  0  0  0  0  0  0  0  0  0
   11.8881  -25.9955  -11.4836 C   0  0  0  0  0  0  0  0  0  0  0  0
   10.7417  -25.8494  -12.4515 C   0  0  0  0  0  0  0  0  0  0  0  0
   10.3676  -24.4704  -12.6634 N   0  0  0  0  0  0  0  0  0  0  0  0
   15.7182  -27.1701   -9.6572 C   0  0  0  0  0  0  0  0  0  0  0  0
   16.1907  -28.1135   -8.9299 O   0  0  0  0  0  0  0  0  0  0  0  0
   18.3064  -23.4638  -12.8404 N   0  0  0  0  0  0  0  0  0  0  0  0
   19.6981  -23.2915  -12.5731 C   0  0  0  0  0  0  0  0  0  0  0  0
   20.5107  -23.4753  -13.5631 N   0  0  0  0  0  0  0  0  0  0  0  0
   20.1946  -22.9397  -11.2938 N   0  0  0  0  0  0  0  0  0  0  0  0
   19.2569  -22.8737  -10.1959 C   0  0  0  0  0  0  0  0  0  0  0  0
   18.6246  -24.2360   -9.8957 C   0  0  0  0  0  0  0  0  0  0  0  0
   17.7036  -24.1243   -8.7132 C   0  0  0  0  0  0  0  0  0  0  0  0
   17.0762  -25.4466   -8.4219 C   0  0  2  0  0  0  0  0  0  0  0  0
   16.1459  -25.8361   -9.4741 N   0  0  0  0  0  0  0  0  0  0  0  0
   16.4095  -25.5874   -7.1327 C   0  0  0  0  0  0  0  0  0  0  0  0
   15.2262  -25.2354   -6.8823 O   0  0  0  0  0  0  0  0  0  0  0  0
   21.5558  -23.4212  -13.4076 N   0  0  0  0  0  0  0  0  0  0  0  0
   19.2783  -30.4126   -0.8846 C   0  0  0  0  0  0  0  0  0  0  0  0
   19.6431  -29.2591   -1.6347 N   0  0  0  0  0  0  0  0  0  0  0  0
   20.8808  -28.9698   -1.7750 N   0  0  0  0  0  0  0  0  0  0  0  0
   18.6333  -28.4402   -2.2245 C   0  0  0  0  0  0  0  0  0  0  0  0
   17.6360  -27.8061   -1.3945 C   0  0  0  0  0  0  0  0  0  0  0  0
   16.7495  -26.9675   -2.3489 C   0  0  0  0  0  0  0  0  0  0  0  0
   17.3254  -27.0032   -3.7377 C   0  0  1  0  0  0  0  0  0  0  0  0
   16.5451  -26.1534   -4.6628 N   0  0  0  0  0  0  0  0  0  0  0  0
   17.0960  -26.1644   -6.0166 C   0  0  0  0  0  0  0  0  0  0  0  0
   16.3536  -24.7659   -4.1996 O   0  0  0  0  0  0  0  0  0  0  0  0
   15.2575  -24.4687   -3.3681 O   0  0  0  0  0  0  0  0  0  0  0  0
  2  1  1  1
  3  2  1  0
  4  3  1  0
  5  4  1  0
  6  7  1  0
  6  5  1  0
  8  9  2  0
  8  2  1  0
 11 10  1  0
 12 11  2  0
 13 11  1  0
 14 13  1  0
 15 14  1  0
 15 16  1  0
 17 16  1  6
 17 18  1  0
 18  8  1  0
 19 17  1  0
 19 20  2  0
 22 21  1  0
 23 22  2  0
 24 22  1  0
 25 24  1  0
 26 27  1  0
 26 25  1  0
 28 27  1  6
 29 28  1  0
 29 19  1  0
 30 28  1  0
 31 30  1  0
 32 30  2  0
M  END
$$$$
