KRR.pdb
     RDKit          3D

 32 31  0  0  1  0  0  0  0  0999 V2000
   22.2492  -16.1066  -19.7747 N   0  0  0  0  0  0  0  0  0  0  0  0
   22.7136  -16.0819  -18.4017 C   0  0  1  0  0  0  0  0  0  0  0  0
   21.6424  -15.5653  -17.4630 C   0  0  0  0  0  0  0  0  0  0  0  0
   21.3099  -14.1187  -17.7429 C   0  0  0  0  0  0  0  0  0  0  0  0
   21.1535  -13.3024  -16.5080 C   0  0  0  0  0  0  0  0  0  0  0  0
   20.7514  -11.8753  -16.7800 C   0  0  0  0  0  0  0  0  0  0  0  0
   20.6111  -11.0989  -15.5701 N   0  0  0  0  0  0  0  0  0  0  0  0
   23.2174  -17.4210  -17.9986 C   0  0  0  0  0  0  0  0  0  0  0  0
   22.4983  -18.4442  -18.2783 O   0  0  0  0  0  0  0  0  0  0  0  0
   29.1808  -23.0579  -16.1475 N   0  0  0  0  0  0  0  0  0  0  0  0
   29.2280  -22.2883  -17.3489 C   0  0  0  0  0  0  0  0  0  0  0  0
   29.5704  -22.9118  -18.4296 N   0  0  0  0  0  0  0  0  0  0  0  0
   28.9230  -20.9053  -17.3851 N   0  0  0  0  0  0  0  0  0  0  0  0
   28.3869  -20.2964  -16.1889 C   0  0  0  0  0  0  0  0  0  0  0  0
   26.8568  -20.2326  -16.2110 C   0  0  0  0  0  0  0  0  0  0  0  0
   26.4067  -18.9246  -16.7988 C   0  0  0  0  0  0  0  0  0  0  0  0
   24.9163  -18.8510  -16.8113 C   0  0  2  0  0  0  0  0  0  0  0  0
   24.4524  -17.5698  -17.3288 N   0  0  0  0  0  0  0  0  0  0  0  0
   24.2348  -19.1203  -15.5506 C   0  0  0  0  0  0  0  0  0  0  0  0
   24.1025  -18.2996  -14.6042 O   0  0  0  0  0  0  0  0  0  0  0  0
   29.6763  -22.3792  -19.3376 N   0  0  0  0  0  0  0  0  0  0  0  0
   25.7750  -20.3246   -8.0546 C   0  0  0  0  0  0  0  0  0  0  0  0
   24.6711  -21.2137   -8.1851 N   0  0  0  0  0  0  0  0  0  0  0  0
   24.3128  -21.9180   -7.1796 N   0  0  0  0  0  0  0  0  0  0  0  0
   23.9732  -21.3108   -9.4267 C   0  0  0  0  0  0  0  0  0  0  0  0
   24.0495  -20.2363  -10.3886 C   0  0  0  0  0  0  0  0  0  0  0  0
   23.1434  -20.6529  -11.5741 C   0  0  0  0  0  0  0  0  0  0  0  0
   23.8665  -20.4178  -12.8716 C   0  0  1  0  0  0  0  0  0  0  0  0
   23.0049  -20.7374  -14.0302 N   0  0  0  0  0  0  0  0  0  0  0  0
   23.6445  -20.4006  -15.3006 C   0  0  0  0  0  0  0  0  0  0  0  0
   21.6542  -20.1478  -13.9652 O   0  0  0  0  0  0  0  0  0  0  0  0
   20.6271  -20.8629  -13.3211 O   0  0  0  0  0  0  0  0  0  0  0  0
  2  1  1  6
  3  2  1  0
  4  3  1  0
  5  4  1  0
  6  7  1  0
  6  5  1  0
  8  9  2  0
  8  2  1  0
 11 10  1  0
 12 11  2  0
 13 11  1  0
 14 13  1  0
 15 14  1  0
 15 16  1  0
 17 16  1  1
 17 18  1  0
 18  8  1  0
 19 17  1  0
 19 20  2  0
 22 21  1  0
 23 22  2  0
 24 22  1  0
 25 24  1  0
 26 27  1  0
 26 25  1  0
 28 27  1  6
 29 28  1  0
 29 19  1  0
 30 28  1  0
 31 30  1  0
 32 30  2  0
M  END
$$$$
