KRR.pdb
     RDKit          3D

 32 31  0  0  1  0  0  0  0  0999 V2000
   30.3223  -24.6499  -16.9236 N   0  0  0  0  0  0  0  0  0  0  0  0
   29.5057  -23.4755  -17.1588 C   0  0  1  0  0  0  0  0  0  0  0  0
   29.5404  -23.0582  -18.6149 C   0  0  0  0  0  0  0  0  0  0  0  0
   30.9547  -22.8268  -19.0922 C   0  0  0  0  0  0  0  0  0  0  0  0
   31.0760  -21.6826  -20.0366 C   0  0  0  0  0  0  0  0  0  0  0  0
   32.4653  -21.5123  -20.5963 C   0  0  0  0  0  0  0  0  0  0  0  0
   32.5703  -20.3766  -21.4827 N   0  0  0  0  0  0  0  0  0  0  0  0
   28.1199  -23.6991  -16.6700 C   0  0  0  0  0  0  0  0  0  0  0  0
   27.9016  -24.7172  -15.9231 O   0  0  0  0  0  0  0  0  0  0  0  0
   25.9142  -21.2336  -10.2070 N   0  0  0  0  0  0  0  0  0  0  0  0
   24.6037  -21.1375  -10.7650 C   0  0  0  0  0  0  0  0  0  0  0  0
   23.7370  -20.4394  -10.1050 N   0  0  0  0  0  0  0  0  0  0  0  0
   24.2403  -21.7687  -11.9801 N   0  0  0  0  0  0  0  0  0  0  0  0
   25.2981  -22.2702  -12.8279 C   0  0  0  0  0  0  0  0  0  0  0  0
   25.7313  -21.2422  -13.8774 C   0  0  0  0  0  0  0  0  0  0  0  0
   26.7505  -21.8499  -14.7999 C   0  0  0  0  0  0  0  0  0  0  0  0
   26.0894  -22.3490  -16.0412 C   0  0  2  0  0  0  0  0  0  0  0  0
   27.0695  -22.8184  -17.0126 N   0  0  0  0  0  0  0  0  0  0  0  0
   25.1703  -21.4347  -16.7088 C   0  0  0  0  0  0  0  0  0  0  0  0
   25.3254  -20.1884  -16.8067 O   0  0  0  0  0  0  0  0  0  0  0  0
   22.7433  -20.3568  -10.4587 N   0  0  0  0  0  0  0  0  0  0  0  0
   16.8475  -21.4807  -15.0748 C   0  0  0  0  0  0  0  0  0  0  0  0
   17.5805  -22.6360  -15.4670 N   0  0  0  0  0  0  0  0  0  0  0  0
   16.9483  -23.6663  -15.8845 N   0  0  0  0  0  0  0  0  0  0  0  0
   19.0065  -22.6370  -15.3963 C   0  0  0  0  0  0  0  0  0  0  0  0
   19.7089  -21.4843  -14.8831 C   0  0  0  0  0  0  0  0  0  0  0  0
   20.5633  -20.9418  -16.0561 C   0  0  0  0  0  0  0  0  0  0  0  0
   21.8498  -21.7153  -16.1461 C   0  0  1  0  0  0  0  0  0  0  0  0
   22.7004  -21.2132  -17.2467 N   0  0  0  0  0  0  0  0  0  0  0  0
   23.9747  -21.9249  -17.3253 C   0  0  0  0  0  0  0  0  0  0  0  0
   22.9287  -19.7560  -17.2233 O   0  0  0  0  0  0  0  0  0  0  0  0
   22.3628  -18.9596  -18.2365 O   0  0  0  0  0  0  0  0  0  0  0  0
  2  1  1  6
  3  2  1  0
  4  3  1  0
  5  4  1  0
  6  7  1  0
  6  5  1  0
  8  9  2  0
  8  2  1  0
 11 10  1  0
 12 11  2  0
 13 11  1  0
 14 13  1  0
 15 14  1  0
 15 16  1  0
 17 16  1  1
 17 18  1  0
 18  8  1  0
 19 17  1  0
 19 20  2  0
 22 21  1  0
 23 22  2  0
 24 22  1  0
 25 24  1  0
 26 27  1  0
 26 25  1  0
 28 27  1  6
 29 28  1  0
 29 19  1  0
 30 28  1  0
 31 30  1  0
 32 30  2  0
M  END
$$$$
