KRR.pdb
     RDKit          3D

 32 31  0  0  1  0  0  0  0  0999 V2000
   17.3566  -22.1626  -11.1235 N   0  0  0  0  0  0  0  0  0  0  0  0
   18.5218  -22.8564  -11.6357 C   0  0  1  0  0  0  0  0  0  0  0  0
   18.1292  -24.0115  -12.5343 C   0  0  0  0  0  0  0  0  0  0  0  0
   17.4242  -25.1010  -11.7612 C   0  0  0  0  0  0  0  0  0  0  0  0
   18.3597  -26.0416  -11.0862 C   0  0  0  0  0  0  0  0  0  0  0  0
   18.0319  -27.4923  -11.3320 C   0  0  0  0  0  0  0  0  0  0  0  0
   18.9256  -28.3881  -10.6355 N   0  0  0  0  0  0  0  0  0  0  0  0
   19.4391  -21.9028  -12.3130 C   0  0  0  0  0  0  0  0  0  0  0  0
   18.9856  -20.7432  -12.6162 O   0  0  0  0  0  0  0  0  0  0  0  0
   25.2950  -23.9973  -14.0437 N   0  0  0  0  0  0  0  0  0  0  0  0
   25.9647  -22.7504  -14.2300 C   0  0  0  0  0  0  0  0  0  0  0  0
   26.5966  -22.5873  -15.3472 N   0  0  0  0  0  0  0  0  0  0  0  0
   25.9574  -21.7237  -13.2539 N   0  0  0  0  0  0  0  0  0  0  0  0
   25.2283  -21.9572  -12.0279 C   0  0  0  0  0  0  0  0  0  0  0  0
   23.8168  -21.3647  -12.0755 C   0  0  0  0  0  0  0  0  0  0  0  0
   23.0855  -21.8788  -13.2837 C   0  0  0  0  0  0  0  0  0  0  0  0
   21.6886  -21.3541  -13.3026 C   0  0  2  0  0  0  0  0  0  0  0  0
   20.7733  -22.2561  -12.6148 N   0  0  0  0  0  0  0  0  0  0  0  0
   21.1282  -21.0255  -14.6081 C   0  0  0  0  0  0  0  0  0  0  0  0
   20.5503  -21.8377  -15.3782 O   0  0  0  0  0  0  0  0  0  0  0  0
   27.2032  -21.7329  -15.4929 N   0  0  0  0  0  0  0  0  0  0  0  0
   20.2472  -13.1853  -18.8104 C   0  0  0  0  0  0  0  0  0  0  0  0
   21.0257  -14.2405  -19.3641 N   0  0  0  0  0  0  0  0  0  0  0  0
   21.9070  -13.9693  -20.2502 N   0  0  0  0  0  0  0  0  0  0  0  0
   20.8225  -15.5847  -18.9280 C   0  0  0  0  0  0  0  0  0  0  0  0
   19.8227  -15.8807  -17.9288 C   0  0  0  0  0  0  0  0  0  0  0  0
   19.8038  -17.4226  -17.7804 C   0  0  0  0  0  0  0  0  0  0  0  0
   20.5995  -17.8251  -16.5695 C   0  0  2  0  0  0  0  0  0  0  0  0
   20.5753  -19.2909  -16.3759 N   0  0  0  0  0  0  0  0  0  0  0  0
   21.2053  -19.6901  -15.1188 C   0  0  0  0  0  0  0  0  0  0  0  0
   21.1404  -20.0626  -17.4991 O   0  0  0  0  0  0  0  0  0  0  0  0
   20.2745  -20.5549  -18.4935 O   0  0  0  0  0  0  0  0  0  0  0  0
  2  1  1  6
  3  2  1  0
  4  3  1  0
  5  4  1  0
  6  7  1  0
  6  5  1  0
  8  9  2  0
  8  2  1  0
 11 10  1  0
 12 11  2  0
 13 11  1  0
 14 13  1  0
 15 14  1  0
 15 16  1  0
 17 16  1  6
 17 18  1  0
 18  8  1  0
 19 17  1  0
 19 20  2  0
 22 21  1  0
 23 22  2  0
 24 22  1  0
 25 24  1  0
 26 27  1  0
 26 25  1  0
 28 27  1  1
 29 28  1  0
 29 19  1  0
 30 28  1  0
 31 30  1  0
 32 30  2  0
M  END
$$$$
