KRR.pdb
     RDKit          3D

 32 31  0  0  1  0  0  0  0  0999 V2000
   13.3372  -13.7593    4.8378 N   0  0  0  0  0  0  0  0  0  0  0  0
   14.5465  -14.5529    4.7419 C   0  0  1  0  0  0  0  0  0  0  0  0
   15.6562  -13.9787    5.5988 C   0  0  0  0  0  0  0  0  0  0  0  0
   16.2415  -12.7290    4.9845 C   0  0  0  0  0  0  0  0  0  0  0  0
   17.6523  -12.8979    4.5411 C   0  0  0  0  0  0  0  0  0  0  0  0
   18.2127  -11.6816    3.8490 C   0  0  0  0  0  0  0  0  0  0  0  0
   19.5795  -11.8680    3.4209 N   0  0  0  0  0  0  0  0  0  0  0  0
   14.2626  -15.9752    5.0671 C   0  0  0  0  0  0  0  0  0  0  0  0
   13.5083  -16.2241    6.0728 O   0  0  0  0  0  0  0  0  0  0  0  0
   16.1579  -23.6827    1.3891 N   0  0  0  0  0  0  0  0  0  0  0  0
   14.9345  -23.1278    1.8722 C   0  0  0  0  0  0  0  0  0  0  0  0
   13.8390  -23.6199    1.3908 N   0  0  0  0  0  0  0  0  0  0  0  0
   14.8920  -22.0852    2.8303 N   0  0  0  0  0  0  0  0  0  0  0  0
   16.1318  -21.6894    3.4590 C   0  0  0  0  0  0  0  0  0  0  0  0
   15.9187  -20.6085    4.5230 C   0  0  0  0  0  0  0  0  0  0  0  0
   15.3952  -19.3541    3.8816 C   0  0  0  0  0  0  0  0  0  0  0  0
   15.3175  -18.2546    4.8876 C   0  0  2  0  0  0  0  0  0  0  0  0
   14.8026  -17.0271    4.2938 N   0  0  0  0  0  0  0  0  0  0  0  0
   16.5417  -17.9436    5.6164 C   0  0  0  0  0  0  0  0  0  0  0  0
   17.5308  -17.3210    5.1467 O   0  0  0  0  0  0  0  0  0  0  0  0
   12.9044  -23.2241    1.6894 N   0  0  0  0  0  0  0  0  0  0  0  0
   20.4101  -11.9878    9.2770 C   0  0  0  0  0  0  0  0  0  0  0  0
   21.1922  -13.1342    9.5936 N   0  0  0  0  0  0  0  0  0  0  0  0
   22.4203  -12.9839    9.9169 N   0  0  0  0  0  0  0  0  0  0  0  0
   20.6049  -14.4348    9.5523 C   0  0  0  0  0  0  0  0  0  0  0  0
   19.5098  -14.7089    8.6515 C   0  0  0  0  0  0  0  0  0  0  0  0
   19.0659  -16.1644    8.9418 C   0  0  0  0  0  0  0  0  0  0  0  0
   17.8954  -16.5212    8.0676 C   0  0  1  0  0  0  0  0  0  0  0  0
   17.8624  -17.9719    7.7830 N   0  0  0  0  0  0  0  0  0  0  0  0
   16.7002  -18.3486    6.9805 C   0  0  0  0  0  0  0  0  0  0  0  0
   17.9575  -18.8292    8.9797 O   0  0  0  0  0  0  0  0  0  0  0  0
   16.9513  -19.7843    9.2173 O   0  0  0  0  0  0  0  0  0  0  0  0
  2  1  1  1
  3  2  1  0
  4  3  1  0
  5  4  1  0
  6  7  1  0
  6  5  1  0
  8  9  2  0
  8  2  1  0
 11 10  1  0
 12 11  2  0
 13 11  1  0
 14 13  1  0
 15 14  1  0
 15 16  1  0
 17 16  1  6
 17 18  1  0
 18  8  1  0
 19 17  1  0
 19 20  2  0
 22 21  1  0
 23 22  2  0
 24 22  1  0
 25 24  1  0
 26 27  1  0
 26 25  1  0
 28 27  1  6
 29 28  1  0
 29 19  1  0
 30 28  1  0
 31 30  1  0
 32 30  2  0
M  END
$$$$
