KRR.pdb
     RDKit          3D

 32 31  0  0  1  0  0  0  0  0999 V2000
   27.5218  -22.7561  -15.9511 N   0  0  0  0  0  0  0  0  0  0  0  0
   26.1172  -23.1114  -15.9980 C   0  0  1  0  0  0  0  0  0  0  0  0
   25.8955  -24.5528  -15.5869 C   0  0  0  0  0  0  0  0  0  0  0  0
   26.4324  -25.5137  -16.6214 C   0  0  0  0  0  0  0  0  0  0  0  0
   25.4326  -25.8733  -17.6638 C   0  0  0  0  0  0  0  0  0  0  0  0
   25.9560  -26.8520  -18.6838 C   0  0  0  0  0  0  0  0  0  0  0  0
   27.3249  -27.2373  -18.4307 N   0  0  0  0  0  0  0  0  0  0  0  0
   25.3132  -22.1634  -15.1830 C   0  0  0  0  0  0  0  0  0  0  0  0
   25.7169  -21.8972  -13.9962 O   0  0  0  0  0  0  0  0  0  0  0  0
   26.1546  -14.9965  -17.3175 N   0  0  0  0  0  0  0  0  0  0  0  0
   25.3057  -15.1929  -16.1867 C   0  0  0  0  0  0  0  0  0  0  0  0
   24.8621  -14.1302  -15.5969 N   0  0  0  0  0  0  0  0  0  0  0  0
   24.9518  -16.4787  -15.7087 N   0  0  0  0  0  0  0  0  0  0  0  0
   25.5116  -17.6304  -16.3791 C   0  0  0  0  0  0  0  0  0  0  0  0
   25.2082  -18.9341  -15.6346 C   0  0  0  0  0  0  0  0  0  0  0  0
   23.7242  -19.1689  -15.5960 C   0  0  0  0  0  0  0  0  0  0  0  0
   23.4290  -20.5034  -14.9969 C   0  0  2  0  0  0  0  0  0  0  0  0
   24.1390  -21.5676  -15.6952 N   0  0  0  0  0  0  0  0  0  0  0  0
   22.0237  -20.8756  -14.8827 C   0  0  0  0  0  0  0  0  0  0  0  0
   21.2903  -21.2528  -15.8349 O   0  0  0  0  0  0  0  0  0  0  0  0
   24.1769  -14.2160  -14.7954 N   0  0  0  0  0  0  0  0  0  0  0  0
   16.6996  -25.2031   -9.7176 C   0  0  0  0  0  0  0  0  0  0  0  0
   17.8658  -24.6582   -9.1098 N   0  0  0  0  0  0  0  0  0  0  0  0
   18.0780  -24.8655   -7.8659 N   0  0  0  0  0  0  0  0  0  0  0  0
   18.7865  -23.8924   -9.8870 C   0  0  0  0  0  0  0  0  0  0  0  0
   18.5605  -23.7014  -11.3005 C   0  0  0  0  0  0  0  0  0  0  0  0
   19.8509  -23.0522  -11.8603 C   0  0  0  0  0  0  0  0  0  0  0  0
   19.6287  -21.5793  -12.0670 C   0  0  2  0  0  0  0  0  0  0  0  0
   19.9485  -21.1791  -13.4542 N   0  0  0  0  0  0  0  0  0  0  0  0
   21.3593  -20.8325  -13.6151 C   0  0  0  0  0  0  0  0  0  0  0  0
   19.0929  -20.1033  -13.9899 O   0  0  0  0  0  0  0  0  0  0  0  0
   17.7676  -20.4034  -14.3564 O   0  0  0  0  0  0  0  0  0  0  0  0
  2  1  1  1
  3  2  1  0
  4  3  1  0
  5  4  1  0
  6  7  1  0
  6  5  1  0
  8  9  2  0
  8  2  1  0
 11 10  1  0
 12 11  2  0
 13 11  1  0
 14 13  1  0
 15 14  1  0
 15 16  1  0
 17 16  1  6
 17 18  1  0
 18  8  1  0
 19 17  1  0
 19 20  2  0
 22 21  1  0
 23 22  2  0
 24 22  1  0
 25 24  1  0
 26 27  1  0
 26 25  1  0
 28 27  1  6
 29 28  1  0
 29 19  1  0
 30 28  1  0
 31 30  1  0
 32 30  2  0
M  END
$$$$
