KRR.pdb
     RDKit          3D

 32 31  0  0  1  0  0  0  0  0999 V2000
   26.6334  -21.0484  -10.0413 N   0  0  0  0  0  0  0  0  0  0  0  0
   25.2696  -21.2025  -10.5080 C   0  0  1  0  0  0  0  0  0  0  0  0
   24.2791  -20.5903   -9.5386 C   0  0  0  0  0  0  0  0  0  0  0  0
   24.0014  -21.5110   -8.3737 C   0  0  0  0  0  0  0  0  0  0  0  0
   23.0118  -20.9566   -7.4100 C   0  0  0  0  0  0  0  0  0  0  0  0
   22.8212  -21.8156   -6.1860 C   0  0  0  0  0  0  0  0  0  0  0  0
   21.8879  -21.2408   -5.2453 N   0  0  0  0  0  0  0  0  0  0  0  0
   25.1249  -20.6543  -11.8821 C   0  0  0  0  0  0  0  0  0  0  0  0
   25.6067  -19.4909  -12.1202 O   0  0  0  0  0  0  0  0  0  0  0  0
   26.0334  -25.1428  -15.4347 N   0  0  0  0  0  0  0  0  0  0  0  0
   27.1185  -24.5752  -16.1685 C   0  0  0  0  0  0  0  0  0  0  0  0
   27.5191  -25.2229  -17.2145 N   0  0  0  0  0  0  0  0  0  0  0  0
   27.7480  -23.3637  -15.7906 N   0  0  0  0  0  0  0  0  0  0  0  0
   27.1619  -22.1231  -16.2452 C   0  0  0  0  0  0  0  0  0  0  0  0
   26.4190  -21.3919  -15.1231 C   0  0  0  0  0  0  0  0  0  0  0  0
   24.9360  -21.5730  -15.2873 C   0  0  0  0  0  0  0  0  0  0  0  0
   24.2047  -20.8302  -14.2194 C   0  0  2  0  0  0  0  0  0  0  0  0
   24.4787  -21.3889  -12.9014 N   0  0  0  0  0  0  0  0  0  0  0  0
   22.7614  -20.6995  -14.3810 C   0  0  0  0  0  0  0  0  0  0  0  0
   21.8975  -21.4336  -13.8319 O   0  0  0  0  0  0  0  0  0  0  0  0
   28.3184  -24.8466  -17.7966 N   0  0  0  0  0  0  0  0  0  0  0  0
   17.8963  -13.9109  -16.7730 C   0  0  0  0  0  0  0  0  0  0  0  0
   18.5608  -14.4040  -15.6148 N   0  0  0  0  0  0  0  0  0  0  0  0
   18.8711  -13.5911  -14.6777 N   0  0  0  0  0  0  0  0  0  0  0  0
   18.8715  -15.7932  -15.5050 C   0  0  0  0  0  0  0  0  0  0  0  0
   18.5091  -16.7044  -16.5652 C   0  0  0  0  0  0  0  0  0  0  0  0
   18.8834  -18.1214  -16.0634 C   0  0  0  0  0  0  0  0  0  0  0  0
   20.3691  -18.2064  -15.8467 C   0  0  2  0  0  0  0  0  0  0  0  0
   20.7840  -19.5871  -15.5175 N   0  0  0  0  0  0  0  0  0  0  0  0
   22.2117  -19.6753  -15.2170 C   0  0  0  0  0  0  0  0  0  0  0  0
   20.4112  -20.5925  -16.5305 O   0  0  0  0  0  0  0  0  0  0  0  0
   19.2090  -21.3074  -16.3731 O   0  0  0  0  0  0  0  0  0  0  0  0
  2  1  1  1
  3  2  1  0
  4  3  1  0
  5  4  1  0
  6  7  1  0
  6  5  1  0
  8  9  2  0
  8  2  1  0
 11 10  1  0
 12 11  2  0
 13 11  1  0
 14 13  1  0
 15 14  1  0
 15 16  1  0
 17 16  1  6
 17 18  1  0
 18  8  1  0
 19 17  1  0
 19 20  2  0
 22 21  1  0
 23 22  2  0
 24 22  1  0
 25 24  1  0
 26 27  1  0
 26 25  1  0
 28 27  1  1
 29 28  1  0
 29 19  1  0
 30 28  1  0
 31 30  1  0
 32 30  2  0
M  END
$$$$
