KRR.pdb
     RDKit          3D

 32 31  0  0  1  0  0  0  0  0999 V2000
   26.7145  -26.0569  -17.1497 N   0  0  0  0  0  0  0  0  0  0  0  0
   27.8729  -25.1936  -17.0308 C   0  0  1  0  0  0  0  0  0  0  0  0
   28.7222  -25.2289  -18.2851 C   0  0  0  0  0  0  0  0  0  0  0  0
   29.1611  -26.6353  -18.6185 C   0  0  0  0  0  0  0  0  0  0  0  0
   30.3445  -27.0826  -17.8342 C   0  0  0  0  0  0  0  0  0  0  0  0
   30.8192  -28.4653  -18.2019 C   0  0  0  0  0  0  0  0  0  0  0  0
   31.9116  -28.9155  -17.3709 N   0  0  0  0  0  0  0  0  0  0  0  0
   27.4579  -23.8125  -16.6706 C   0  0  0  0  0  0  0  0  0  0  0  0
   28.3544  -22.8969  -16.6631 O   0  0  0  0  0  0  0  0  0  0  0  0
   22.4118  -17.4179  -19.3582 N   0  0  0  0  0  0  0  0  0  0  0  0
   22.1998  -17.4751  -17.9476 C   0  0  0  0  0  0  0  0  0  0  0  0
   21.1827  -16.8246  -17.4823 N   0  0  0  0  0  0  0  0  0  0  0  0
   23.0485  -18.1990  -17.0743 N   0  0  0  0  0  0  0  0  0  0  0  0
   23.5103  -19.5007  -17.5002 C   0  0  0  0  0  0  0  0  0  0  0  0
   24.4159  -20.1606  -16.4560 C   0  0  0  0  0  0  0  0  0  0  0  0
   24.8885  -21.4961  -16.9581 C   0  0  0  0  0  0  0  0  0  0  0  0
   25.6934  -22.1861  -15.9078 C   0  0  2  0  0  0  0  0  0  0  0  0
   26.1162  -23.5099  -16.3473 N   0  0  0  0  0  0  0  0  0  0  0  0
   25.0866  -22.3036  -14.5870 C   0  0  0  0  0  0  0  0  0  0  0  0
   24.0966  -23.0283  -14.3021 O   0  0  0  0  0  0  0  0  0  0  0  0
   21.0061  -16.7929  -16.4397 N   0  0  0  0  0  0  0  0  0  0  0  0
   25.4956  -21.1262   -6.7319 C   0  0  0  0  0  0  0  0  0  0  0  0
   26.7355  -20.7468   -7.3192 N   0  0  0  0  0  0  0  0  0  0  0  0
   27.8278  -21.0662   -6.7359 N   0  0  0  0  0  0  0  0  0  0  0  0
   26.7527  -20.0209   -8.5485 C   0  0  0  0  0  0  0  0  0  0  0  0
   25.5459  -19.4001   -9.0422 C   0  0  0  0  0  0  0  0  0  0  0  0
   24.8636  -20.4487   -9.9558 C   0  0  0  0  0  0  0  0  0  0  0  0
   25.5818  -20.5150  -11.2754 C   0  0  2  0  0  0  0  0  0  0  0  0
   24.8615  -21.3805  -12.2340 N   0  0  0  0  0  0  0  0  0  0  0  0
   25.6077  -21.5637  -13.4775 C   0  0  0  0  0  0  0  0  0  0  0  0
   23.4809  -20.9497  -12.5245 O   0  0  0  0  0  0  0  0  0  0  0  0
   22.4235  -21.4908  -11.7694 O   0  0  0  0  0  0  0  0  0  0  0  0
  2  1  1  6
  3  2  1  0
  4  3  1  0
  5  4  1  0
  6  7  1  0
  6  5  1  0
  8  9  2  0
  8  2  1  0
 11 10  1  0
 12 11  2  0
 13 11  1  0
 14 13  1  0
 15 14  1  0
 15 16  1  0
 17 16  1  6
 17 18  1  0
 18  8  1  0
 19 17  1  0
 19 20  2  0
 22 21  1  0
 23 22  2  0
 24 22  1  0
 25 24  1  0
 26 27  1  0
 26 25  1  0
 28 27  1  1
 29 28  1  0
 29 19  1  0
 30 28  1  0
 31 30  1  0
 32 30  2  0
M  END
$$$$
