KRR.pdb
     RDKit          3D

 32 31  0  0  1  0  0  0  0  0999 V2000
   29.9371  -23.8625  -19.0524 N   0  0  0  0  0  0  0  0  0  0  0  0
   29.6365  -23.9128  -17.6352 C   0  0  1  0  0  0  0  0  0  0  0  0
   30.8946  -24.0757  -16.8068 C   0  0  0  0  0  0  0  0  0  0  0  0
   31.7503  -25.2120  -17.3149 C   0  0  0  0  0  0  0  0  0  0  0  0
   33.0651  -25.3114  -16.6242 C   0  0  0  0  0  0  0  0  0  0  0  0
   33.9632  -26.3784  -17.1962 C   0  0  0  0  0  0  0  0  0  0  0  0
   35.2773  -26.3769  -16.5963 N   0  0  0  0  0  0  0  0  0  0  0  0
   28.8449  -22.7221  -17.2287 C   0  0  0  0  0  0  0  0  0  0  0  0
   29.3916  -21.5686  -17.3407 O   0  0  0  0  0  0  0  0  0  0  0  0
   22.7433  -23.7915  -18.9585 N   0  0  0  0  0  0  0  0  0  0  0  0
   22.1905  -22.4879  -18.7764 C   0  0  0  0  0  0  0  0  0  0  0  0
   20.9210  -22.4196  -18.5361 N   0  0  0  0  0  0  0  0  0  0  0  0
   22.9703  -21.3077  -18.8529 N   0  0  0  0  0  0  0  0  0  0  0  0
   24.3725  -21.4399  -19.1777 C   0  0  0  0  0  0  0  0  0  0  0  0
   25.1652  -22.1044  -18.0482 C   0  0  0  0  0  0  0  0  0  0  0  0
   25.9646  -21.0705  -17.3059 C   0  0  0  0  0  0  0  0  0  0  0  0
   26.7658  -21.7166  -16.2253 C   0  0  2  0  0  0  0  0  0  0  0  0
   27.5275  -22.8501  -16.7346 N   0  0  0  0  0  0  0  0  0  0  0  0
   26.0402  -22.1388  -15.0329 C   0  0  0  0  0  0  0  0  0  0  0  0
   25.2784  -23.1392  -14.9598 O   0  0  0  0  0  0  0  0  0  0  0  0
   20.4486  -21.4770  -18.4475 N   0  0  0  0  0  0  0  0  0  0  0  0
   23.3512  -21.1334   -7.5791 C   0  0  0  0  0  0  0  0  0  0  0  0
   24.7625  -20.9589   -7.5164 N   0  0  0  0  0  0  0  0  0  0  0  0
   25.4149  -21.4797   -6.5477 N   0  0  0  0  0  0  0  0  0  0  0  0
   25.4370  -20.2123   -8.5293 C   0  0  0  0  0  0  0  0  0  0  0  0
   24.6799  -19.4760   -9.5143 C   0  0  0  0  0  0  0  0  0  0  0  0
   24.3374  -20.4852  -10.6386 C   0  0  0  0  0  0  0  0  0  0  0  0
   25.4354  -20.4913  -11.6660 C   0  0  2  0  0  0  0  0  0  0  0  0
   25.0784  -21.3358  -12.8263 N   0  0  0  0  0  0  0  0  0  0  0  0
   26.1571  -21.4028  -13.8104 C   0  0  0  0  0  0  0  0  0  0  0  0
   23.8100  -20.9647  -13.4818 O   0  0  0  0  0  0  0  0  0  0  0  0
   22.6309  -21.6436  -13.1216 O   0  0  0  0  0  0  0  0  0  0  0  0
  2  1  1  6
  3  2  1  0
  4  3  1  0
  5  4  1  0
  6  7  1  0
  6  5  1  0
  8  9  2  0
  8  2  1  0
 11 10  1  0
 12 11  2  0
 13 11  1  0
 14 13  1  0
 15 14  1  0
 15 16  1  0
 17 16  1  6
 17 18  1  0
 18  8  1  0
 19 17  1  0
 19 20  2  0
 22 21  1  0
 23 22  2  0
 24 22  1  0
 25 24  1  0
 26 27  1  0
 26 25  1  0
 28 27  1  1
 29 28  1  0
 29 19  1  0
 30 28  1  0
 31 30  1  0
 32 30  2  0
M  END
$$$$
