IYY.pdb
     RDKit          3D

 33 34  0  0  1  0  0  0  0  0999 V2000
   10.0798  -20.9326   17.6793 C   0  0  0  0  0  0  0  0  0  0  0  0
   10.0407  -19.4320   17.5611 C   0  0  0  0  0  0  0  0  0  0  0  0
    9.9347  -18.7379   18.8902 C   0  0  2  0  0  0  0  0  0  0  0  0
    8.8183  -19.2464   19.7406 C   0  0  0  0  0  0  0  0  0  0  0  0
    9.9110  -17.2384   18.7616 C   0  0  2  0  0  0  0  0  0  0  0  0
   11.0437  -16.7193   18.0502 N   0  0  0  0  0  0  0  0  0  0  0  0
    9.8350  -16.6094   20.1125 C   0  0  0  0  0  0  0  0  0  0  0  0
   10.8644  -16.4515   20.8240 O   0  0  0  0  0  0  0  0  0  0  0  0
    7.0044  -12.4313   27.3341 O   0  0  0  0  0  0  0  0  0  0  0  0
    7.0769  -13.0098   26.0526 C   0  0  0  0  0  0  0  0  0  0  0  0
    6.6110  -14.2792   25.8079 C   0  0  0  0  0  0  0  0  0  0  0  0
    6.6718  -14.8592   24.5710 C   0  0  0  0  0  0  0  0  0  0  0  0
    7.2276  -14.1421   23.5068 C   0  0  0  0  0  0  0  0  0  0  0  0
    7.3164  -14.7341   22.1732 C   0  0  0  0  0  0  0  0  0  0  0  0
    8.5925  -15.4896   21.9610 C   0  0  2  0  0  0  0  0  0  0  0  0
    8.5984  -16.1615   20.6550 N   0  0  0  0  0  0  0  0  0  0  0  0
    8.9437  -16.4701   22.9737 C   0  0  0  0  0  0  0  0  0  0  0  0
    8.2261  -17.4814   23.1474 O   0  0  0  0  0  0  0  0  0  0  0  0
    7.6995  -12.8711   23.7300 C   0  0  0  0  0  0  0  0  0  0  0  0
    7.6188  -12.3235   24.9932 C   0  0  0  0  0  0  0  0  0  0  0  0
   10.8805  -13.1576   29.7071 O   0  0  0  0  0  0  0  0  0  0  0  0
   10.5322  -14.1274   28.7679 C   0  0  0  0  0  0  0  0  0  0  0  0
   11.3183  -14.3246   27.6609 C   0  0  0  0  0  0  0  0  0  0  0  0
   10.9624  -15.2999   26.7222 C   0  0  0  0  0  0  0  0  0  0  0  0
    9.8388  -16.0657   26.8875 C   0  0  0  0  0  0  0  0  0  0  0  0
    9.4597  -17.0840   25.9105 C   0  0  0  0  0  0  0  0  0  0  0  0
   10.4893  -17.2333   24.8113 C   0  0  2  0  0  0  0  0  0  0  0  0
   10.0908  -16.3011   23.7729 N   0  0  0  0  0  0  0  0  0  0  0  0
   10.5748  -18.5896   24.2537 C   0  0  0  0  0  0  0  0  0  0  0  0
   11.3573  -19.5769   24.8345 O   0  0  0  0  0  0  0  0  0  0  0  0
    9.0621  -15.8600   27.9962 C   0  0  0  0  0  0  0  0  0  0  0  0
    9.3955  -14.8932   28.9472 C   0  0  0  0  0  0  0  0  0  0  0  0
    9.9318  -18.9090   23.2131 O   0  0  0  0  0  0  0  0  0  0  0  0
  2  1  1  0
  3  2  1  0
  3  4  1  6
  5  3  1  0
  5  6  1  1
  7  5  1  0
  8  7  2  0
  9 10  1  0
 10 11  2  0
 10 20  1  0
 11 12  1  0
 12 13  2  0
 13 14  1  0
 15 14  1  1
 15 16  1  0
 16  7  1  0
 17 15  1  0
 17 28  1  0
 18 17  2  0
 19 13  1  0
 20 19  2  0
 21 22  1  0
 22 32  2  0
 23 24  2  0
 23 22  1  0
 24 25  1  0
 25 26  1  0
 25 31  2  0
 27 29  1  0
 27 28  1  0
 27 26  1  1
 29 30  1  0
 32 31  1  0
 33 29  2  0
M  END
$$$$
