IYY.pdb
     RDKit          3D

 33 34  0  0  1  0  0  0  0  0999 V2000
    7.4070  -13.6367   15.5378 C   0  0  0  0  0  0  0  0  0  0  0  0
    8.3282  -14.5449   16.3085 C   0  0  0  0  0  0  0  0  0  0  0  0
    8.3167  -14.2795   17.7880 C   0  0  2  0  0  0  0  0  0  0  0  0
    8.7761  -12.9064   18.1507 C   0  0  0  0  0  0  0  0  0  0  0  0
    9.0352  -15.3433   18.5740 C   0  0  2  0  0  0  0  0  0  0  0  0
    8.4408  -16.6415   18.4332 N   0  0  0  0  0  0  0  0  0  0  0  0
    9.0856  -14.9678   20.0172 C   0  0  0  0  0  0  0  0  0  0  0  0
    9.8642  -14.0685   20.4367 O   0  0  0  0  0  0  0  0  0  0  0  0
    6.7912  -13.2454   28.2944 O   0  0  0  0  0  0  0  0  0  0  0  0
    6.8245  -13.6227   26.9384 C   0  0  0  0  0  0  0  0  0  0  0  0
    7.1771  -12.7337   25.9516 C   0  0  0  0  0  0  0  0  0  0  0  0
    7.2160  -13.0800   24.6294 C   0  0  0  0  0  0  0  0  0  0  0  0
    6.8860  -14.3866   24.2553 C   0  0  0  0  0  0  0  0  0  0  0  0
    6.9087  -14.7891   22.8503 C   0  0  0  0  0  0  0  0  0  0  0  0
    8.2849  -15.1376   22.3719 C   0  0  2  0  0  0  0  0  0  0  0  0
    8.2579  -15.6082   20.9809 N   0  0  0  0  0  0  0  0  0  0  0  0
    9.0213  -16.1089   23.1621 C   0  0  0  0  0  0  0  0  0  0  0  0
    8.4894  -17.1975   23.4780 O   0  0  0  0  0  0  0  0  0  0  0  0
    6.5305  -15.2912   25.2265 C   0  0  0  0  0  0  0  0  0  0  0  0
    6.5043  -14.9005   26.5488 C   0  0  0  0  0  0  0  0  0  0  0  0
   10.7813  -15.6616   31.3094 O   0  0  0  0  0  0  0  0  0  0  0  0
   10.6514  -15.4725   29.9342 C   0  0  0  0  0  0  0  0  0  0  0  0
   11.7701  -15.3710   29.1465 C   0  0  0  0  0  0  0  0  0  0  0  0
   11.6320  -15.1812   27.7667 C   0  0  0  0  0  0  0  0  0  0  0  0
   10.3956  -15.0942   27.1838 C   0  0  0  0  0  0  0  0  0  0  0  0
   10.2437  -14.8936   25.7443 C   0  0  0  0  0  0  0  0  0  0  0  0
   10.8019  -16.0503   24.9437 C   0  0  2  0  0  0  0  0  0  0  0  0
   10.3386  -15.8445   23.5839 N   0  0  0  0  0  0  0  0  0  0  0  0
   10.3687  -17.3704   25.4206 C   0  0  0  0  0  0  0  0  0  0  0  0
    9.0384  -17.7629   25.3947 O   0  0  0  0  0  0  0  0  0  0  0  0
    9.2863  -15.1970   27.9799 C   0  0  0  0  0  0  0  0  0  0  0  0
    9.3974  -15.3865   29.3590 C   0  0  0  0  0  0  0  0  0  0  0  0
   11.2015  -18.2049   25.8770 O   0  0  0  0  0  0  0  0  0  0  0  0
  2  1  1  0
  3  2  1  0
  3  4  1  6
  5  3  1  0
  5  6  1  1
  7  5  1  0
  8  7  2  0
  9 10  1  0
 10 11  2  0
 10 20  1  0
 11 12  1  0
 12 13  2  0
 13 14  1  0
 15 14  1  1
 15 16  1  0
 16  7  1  0
 17 15  1  0
 17 28  1  0
 18 17  2  0
 19 13  1  0
 20 19  2  0
 21 22  1  0
 22 32  2  0
 23 24  2  0
 23 22  1  0
 24 25  1  0
 25 26  1  0
 25 31  2  0
 27 29  1  0
 27 28  1  0
 27 26  1  1
 29 30  1  0
 32 31  1  0
 33 29  2  0
M  END
$$$$
