IYY.pdb
     RDKit          3D

 33 34  0  0  1  0  0  0  0  0999 V2000
    7.9589  -12.7098   18.5733 C   0  0  0  0  0  0  0  0  0  0  0  0
    7.5344  -14.1455   18.7340 C   0  0  0  0  0  0  0  0  0  0  0  0
    7.3909  -14.5612   20.1714 C   0  0  2  0  0  0  0  0  0  0  0  0
    8.5915  -14.2538   21.0033 C   0  0  0  0  0  0  0  0  0  0  0  0
    6.9499  -15.9926   20.3204 C   0  0  2  0  0  0  0  0  0  0  0  0
    5.7302  -16.2787   19.6210 N   0  0  0  0  0  0  0  0  0  0  0  0
    6.7923  -16.3325   21.7646 C   0  0  0  0  0  0  0  0  0  0  0  0
    5.7224  -16.0870   22.3857 O   0  0  0  0  0  0  0  0  0  0  0  0
    7.6736  -19.7554   29.8036 O   0  0  0  0  0  0  0  0  0  0  0  0
    7.7561  -19.4722   28.4270 C   0  0  0  0  0  0  0  0  0  0  0  0
    6.6400  -19.1651   27.6865 C   0  0  0  0  0  0  0  0  0  0  0  0
    6.6985  -18.8870   26.3489 C   0  0  0  0  0  0  0  0  0  0  0  0
    7.9366  -18.9132   25.6992 C   0  0  0  0  0  0  0  0  0  0  0  0
    8.0351  -18.6292   24.2687 C   0  0  0  0  0  0  0  0  0  0  0  0
    7.6455  -17.2226   23.9313 C   0  0  2  0  0  0  0  0  0  0  0  0
    7.8420  -16.9476   22.5020 N   0  0  0  0  0  0  0  0  0  0  0  0
    8.2989  -16.1680   24.6870 C   0  0  0  0  0  0  0  0  0  0  0  0
    7.6455  -15.1723   25.0738 O   0  0  0  0  0  0  0  0  0  0  0  0
    9.0651  -19.2181   26.4212 C   0  0  0  0  0  0  0  0  0  0  0  0
    8.9617  -19.4923   27.7689 C   0  0  0  0  0  0  0  0  0  0  0  0
    5.4767  -11.2904   26.8094 O   0  0  0  0  0  0  0  0  0  0  0  0
    6.5099  -12.2249   26.8662 C   0  0  0  0  0  0  0  0  0  0  0  0
    7.3897  -12.3400   25.8198 C   0  0  0  0  0  0  0  0  0  0  0  0
    8.4244  -13.2803   25.8838 C   0  0  0  0  0  0  0  0  0  0  0  0
    8.5771  -14.0925   26.9762 C   0  0  0  0  0  0  0  0  0  0  0  0
    9.6534  -15.0783   27.0489 C   0  0  0  0  0  0  0  0  0  0  0  0
   10.3869  -15.2221   25.7329 C   0  0  2  0  0  0  0  0  0  0  0  0
    9.6706  -16.2468   24.9959 N   0  0  0  0  0  0  0  0  0  0  0  0
   11.7972  -15.6079   25.8746 C   0  0  0  0  0  0  0  0  0  0  0  0
   12.7854  -14.6857   26.1865 O   0  0  0  0  0  0  0  0  0  0  0  0
    7.6930  -13.9686   28.0144 C   0  0  0  0  0  0  0  0  0  0  0  0
    6.6523  -13.0382   27.9748 C   0  0  0  0  0  0  0  0  0  0  0  0
   12.1648  -16.8070   25.7152 O   0  0  0  0  0  0  0  0  0  0  0  0
  2  1  1  0
  3  2  1  0
  3  4  1  1
  5  3  1  0
  5  6  1  6
  7  5  1  0
  8  7  2  0
  9 10  1  0
 10 11  2  0
 10 20  1  0
 11 12  1  0
 12 13  2  0
 13 14  1  0
 15 14  1  1
 15 16  1  0
 16  7  1  0
 17 15  1  0
 17 28  1  0
 18 17  2  0
 19 13  1  0
 20 19  2  0
 21 22  1  0
 22 32  2  0
 23 24  2  0
 23 22  1  0
 24 25  1  0
 25 26  1  0
 25 31  2  0
 27 29  1  0
 27 28  1  0
 27 26  1  1
 29 30  1  0
 32 31  1  0
 33 29  2  0
M  END
$$$$
