IYY.pdb
     RDKit          3D

 33 34  0  0  1  0  0  0  0  0999 V2000
    7.7016  -12.3600   19.3554 C   0  0  0  0  0  0  0  0  0  0  0  0
    7.3741  -13.8284   19.4152 C   0  0  0  0  0  0  0  0  0  0  0  0
    7.3925  -14.3807   20.8131 C   0  0  2  0  0  0  0  0  0  0  0  0
    8.6658  -14.1104   21.5438 C   0  0  0  0  0  0  0  0  0  0  0  0
    7.0056  -15.8342   20.8681 C   0  0  2  0  0  0  0  0  0  0  0  0
    5.7279  -16.0968   20.2703 N   0  0  0  0  0  0  0  0  0  0  0  0
    7.0062  -16.3115   22.2818 C   0  0  0  0  0  0  0  0  0  0  0  0
    6.0099  -16.1380   23.0356 O   0  0  0  0  0  0  0  0  0  0  0  0
    8.7148  -20.4700   29.8128 O   0  0  0  0  0  0  0  0  0  0  0  0
    8.5683  -20.0638   28.4728 C   0  0  0  0  0  0  0  0  0  0  0  0
    7.3631  -19.6231   27.9812 C   0  0  0  0  0  0  0  0  0  0  0  0
    7.1998  -19.2241   26.6836 C   0  0  0  0  0  0  0  0  0  0  0  0
    8.2946  -19.2617   25.8142 C   0  0  0  0  0  0  0  0  0  0  0  0
    8.1541  -18.8506   24.4186 C   0  0  0  0  0  0  0  0  0  0  0  0
    8.1049  -17.3619   24.2577 C   0  0  2  0  0  0  0  0  0  0  0  0
    8.1302  -16.9822   22.8391 N   0  0  0  0  0  0  0  0  0  0  0  0
    9.1314  -16.5992   24.9467 C   0  0  0  0  0  0  0  0  0  0  0  0
   10.3373  -16.9149   24.8281 O   0  0  0  0  0  0  0  0  0  0  0  0
    9.5088  -19.6992   26.2856 C   0  0  0  0  0  0  0  0  0  0  0  0
    9.6303  -20.0927   27.6018 C   0  0  0  0  0  0  0  0  0  0  0  0
    5.4539  -10.2496   25.5499 O   0  0  0  0  0  0  0  0  0  0  0  0
    6.2979  -11.2211   26.0863 C   0  0  0  0  0  0  0  0  0  0  0  0
    6.0000  -11.7975   27.2952 C   0  0  0  0  0  0  0  0  0  0  0  0
    6.8519  -12.7721   27.8276 C   0  0  0  0  0  0  0  0  0  0  0  0
    7.9832  -13.1641   27.1623 C   0  0  0  0  0  0  0  0  0  0  0  0
    8.8786  -14.1792   27.7131 C   0  0  0  0  0  0  0  0  0  0  0  0
    9.7260  -14.8349   26.6442 C   0  0  2  0  0  0  0  0  0  0  0  0
    8.7900  -15.4980   25.7552 N   0  0  0  0  0  0  0  0  0  0  0  0
   10.6925  -15.8112   27.1642 C   0  0  0  0  0  0  0  0  0  0  0  0
   10.3412  -17.1272   27.4273 O   0  0  0  0  0  0  0  0  0  0  0  0
    8.2702  -12.5820   25.9566 C   0  0  0  0  0  0  0  0  0  0  0  0
    7.4363  -11.6074   25.4041 C   0  0  0  0  0  0  0  0  0  0  0  0
   11.8918  -15.4836   27.3934 O   0  0  0  0  0  0  0  0  0  0  0  0
  2  1  1  0
  3  2  1  0
  3  4  1  6
  5  3  1  0
  5  6  1  1
  7  5  1  0
  8  7  2  0
  9 10  1  0
 10 11  2  0
 10 20  1  0
 11 12  1  0
 12 13  2  0
 13 14  1  0
 15 14  1  6
 15 16  1  0
 16  7  1  0
 17 15  1  0
 17 28  1  0
 18 17  2  0
 19 13  1  0
 20 19  2  0
 21 22  1  0
 22 32  2  0
 23 24  2  0
 23 22  1  0
 24 25  1  0
 25 26  1  0
 25 31  2  0
 27 29  1  0
 27 28  1  0
 27 26  1  1
 29 30  1  0
 32 31  1  0
 33 29  2  0
M  END
$$$$
