IYY.pdb
     RDKit          3D

 33 34  0  0  1  0  0  0  0  0999 V2000
    8.0722  -19.3657   17.0816 C   0  0  0  0  0  0  0  0  0  0  0  0
    8.2558  -19.5306   18.5670 C   0  0  0  0  0  0  0  0  0  0  0  0
    8.7905  -18.2954   19.2362 C   0  0  2  0  0  0  0  0  0  0  0  0
   10.0480  -17.7801   18.6187 C   0  0  0  0  0  0  0  0  0  0  0  0
    8.9146  -18.4512   20.7282 C   0  0  2  0  0  0  0  0  0  0  0  0
    7.6805  -18.8256   21.3569 N   0  0  0  0  0  0  0  0  0  0  0  0
    9.4239  -17.1867   21.3348 C   0  0  0  0  0  0  0  0  0  0  0  0
   10.5465  -16.7087   21.0151 O   0  0  0  0  0  0  0  0  0  0  0  0
    7.2403  -13.3340   17.0174 O   0  0  0  0  0  0  0  0  0  0  0  0
    7.4885  -13.5115   18.3918 C   0  0  0  0  0  0  0  0  0  0  0  0
    8.5080  -12.8483   19.0313 C   0  0  0  0  0  0  0  0  0  0  0  0
    8.7657  -13.0064   20.3649 C   0  0  0  0  0  0  0  0  0  0  0  0
    7.9672  -13.8740   21.1168 C   0  0  0  0  0  0  0  0  0  0  0  0
    8.2193  -14.0736   22.5427 C   0  0  0  0  0  0  0  0  0  0  0  0
    9.1826  -15.1899   22.8077 C   0  0  2  0  0  0  0  0  0  0  0  0
    8.6651  -16.4670   22.2992 N   0  0  0  0  0  0  0  0  0  0  0  0
    9.5868  -15.3857   24.1892 C   0  0  0  0  0  0  0  0  0  0  0  0
   10.4629  -14.6509   24.6995 O   0  0  0  0  0  0  0  0  0  0  0  0
    6.9424  -14.5471   20.4967 C   0  0  0  0  0  0  0  0  0  0  0  0
    6.7167  -14.3587   19.1492 C   0  0  0  0  0  0  0  0  0  0  0  0
    6.1665  -11.1656   27.2581 O   0  0  0  0  0  0  0  0  0  0  0  0
    6.6224  -12.4826   27.2219 C   0  0  0  0  0  0  0  0  0  0  0  0
    5.8592  -13.4574   26.6305 C   0  0  0  0  0  0  0  0  0  0  0  0
    6.3234  -14.7774   26.5980 C   0  0  0  0  0  0  0  0  0  0  0  0
    7.5309  -15.1175   27.1478 C   0  0  0  0  0  0  0  0  0  0  0  0
    8.0208  -16.4940   27.1198 C   0  0  0  0  0  0  0  0  0  0  0  0
    9.3298  -16.6199   26.3706 C   0  0  2  0  0  0  0  0  0  0  0  0
    9.0037  -16.3992   24.9738 N   0  0  0  0  0  0  0  0  0  0  0  0
    9.9837  -17.9259   26.5267 C   0  0  0  0  0  0  0  0  0  0  0  0
   10.2566  -18.7473   25.4427 O   0  0  0  0  0  0  0  0  0  0  0  0
    8.2839  -14.1363   27.7352 C   0  0  0  0  0  0  0  0  0  0  0  0
    7.8431  -12.8120   27.7806 C   0  0  0  0  0  0  0  0  0  0  0  0
   10.3244  -18.3530   27.6669 O   0  0  0  0  0  0  0  0  0  0  0  0
  2  1  1  0
  3  2  1  0
  3  4  1  6
  5  3  1  0
  5  6  1  1
  7  5  1  0
  8  7  2  0
  9 10  1  0
 10 11  2  0
 10 20  1  0
 11 12  1  0
 12 13  2  0
 13 14  1  0
 15 14  1  1
 15 16  1  0
 16  7  1  0
 17 15  1  0
 17 28  1  0
 18 17  2  0
 19 13  1  0
 20 19  2  0
 21 22  1  0
 22 32  2  0
 23 24  2  0
 23 22  1  0
 24 25  1  0
 25 26  1  0
 25 31  2  0
 27 29  1  0
 27 28  1  0
 27 26  1  1
 29 30  1  0
 32 31  1  0
 33 29  2  0
M  END
$$$$
