IYY.pdb
     RDKit          3D

 33 34  0  0  1  0  0  0  0  0999 V2000
    6.9764  -12.0521   18.5881 C   0  0  0  0  0  0  0  0  0  0  0  0
    7.8761  -13.1310   18.0462 C   0  0  0  0  0  0  0  0  0  0  0  0
    8.4924  -13.9811   19.1218 C   0  0  2  0  0  0  0  0  0  0  0  0
    9.1850  -13.1910   20.1821 C   0  0  0  0  0  0  0  0  0  0  0  0
    9.3663  -15.0744   18.5682 C   0  0  2  0  0  0  0  0  0  0  0  0
    8.7058  -15.8698   17.5734 N   0  0  0  0  0  0  0  0  0  0  0  0
    9.8505  -15.9524   19.6732 C   0  0  0  0  0  0  0  0  0  0  0  0
    9.1363  -16.8839   20.1348 O   0  0  0  0  0  0  0  0  0  0  0  0
   15.9538  -13.7319   17.8094 O   0  0  0  0  0  0  0  0  0  0  0  0
   15.2074  -14.5605   18.6686 C   0  0  0  0  0  0  0  0  0  0  0  0
   14.4287  -15.5843   18.1853 C   0  0  0  0  0  0  0  0  0  0  0  0
   13.6965  -16.4004   19.0025 C   0  0  0  0  0  0  0  0  0  0  0  0
   13.7341  -16.1942   20.3852 C   0  0  0  0  0  0  0  0  0  0  0  0
   12.9575  -17.0421   21.2877 C   0  0  0  0  0  0  0  0  0  0  0  0
   11.5270  -16.6107   21.3968 C   0  0  2  0  0  0  0  0  0  0  0  0
   11.1377  -15.7759   20.2528 N   0  0  0  0  0  0  0  0  0  0  0  0
   11.1494  -15.9124   22.6133 C   0  0  0  0  0  0  0  0  0  0  0  0
   11.6617  -14.8035   22.8882 O   0  0  0  0  0  0  0  0  0  0  0  0
   14.5065  -15.1758   20.8893 C   0  0  0  0  0  0  0  0  0  0  0  0
   15.2298  -14.3758   20.0297 C   0  0  0  0  0  0  0  0  0  0  0  0
    6.1635  -11.6156   27.9943 O   0  0  0  0  0  0  0  0  0  0  0  0
    6.7398  -12.4363   27.0257 C   0  0  0  0  0  0  0  0  0  0  0  0
    6.1682  -13.6461   26.7225 C   0  0  0  0  0  0  0  0  0  0  0  0
    6.7523  -14.4647   25.7490 C   0  0  0  0  0  0  0  0  0  0  0  0
    7.8895  -14.0801   25.0894 C   0  0  0  0  0  0  0  0  0  0  0  0
    8.5064  -14.9306   24.0737 C   0  0  0  0  0  0  0  0  0  0  0  0
    9.6501  -15.7499   24.6317 C   0  0  2  0  0  0  0  0  0  0  0  0
   10.2060  -16.4674   23.4993 N   0  0  0  0  0  0  0  0  0  0  0  0
    9.2483  -16.7036   25.6741 C   0  0  0  0  0  0  0  0  0  0  0  0
    9.3728  -16.4141   27.0251 O   0  0  0  0  0  0  0  0  0  0  0  0
    8.4510  -12.8707   25.4004 C   0  0  0  0  0  0  0  0  0  0  0  0
    7.8875  -12.0358   26.3677 C   0  0  0  0  0  0  0  0  0  0  0  0
    8.7699  -17.8348   25.3742 O   0  0  0  0  0  0  0  0  0  0  0  0
  2  1  1  0
  3  2  1  0
  3  4  1  1
  5  3  1  0
  5  6  1  6
  7  5  1  0
  8  7  2  0
  9 10  1  0
 10 11  2  0
 10 20  1  0
 11 12  1  0
 12 13  2  0
 13 14  1  0
 15 14  1  1
 15 16  1  0
 16  7  1  0
 17 15  1  0
 17 28  1  0
 18 17  2  0
 19 13  1  0
 20 19  2  0
 21 22  1  0
 22 32  2  0
 23 24  2  0
 23 22  1  0
 24 25  1  0
 25 26  1  0
 25 31  2  0
 27 29  1  0
 27 28  1  0
 27 26  1  6
 29 30  1  0
 32 31  1  0
 33 29  2  0
M  END
$$$$
