IYY.pdb
     RDKit          3D

 33 34  0  0  1  0  0  0  0  0999 V2000
   11.0132  -21.1856   20.0366 C   0  0  0  0  0  0  0  0  0  0  0  0
   10.7309  -19.7745   19.5935 C   0  0  0  0  0  0  0  0  0  0  0  0
   10.5802  -18.8147   20.7405 C   0  0  2  0  0  0  0  0  0  0  0  0
    9.6335  -19.2880   21.7930 C   0  0  0  0  0  0  0  0  0  0  0  0
   10.2693  -17.4134   20.2876 C   0  0  2  0  0  0  0  0  0  0  0  0
   11.2693  -16.8727   19.4122 N   0  0  0  0  0  0  0  0  0  0  0  0
   10.0996  -16.5187   21.4696 C   0  0  0  0  0  0  0  0  0  0  0  0
   11.0922  -16.0050   22.0542 O   0  0  0  0  0  0  0  0  0  0  0  0
    6.6387  -11.3137   27.6756 O   0  0  0  0  0  0  0  0  0  0  0  0
    6.8318  -12.1090   26.5301 C   0  0  0  0  0  0  0  0  0  0  0  0
    6.3341  -13.3873   26.4482 C   0  0  0  0  0  0  0  0  0  0  0  0
    6.5103  -14.1758   25.3450 C   0  0  0  0  0  0  0  0  0  0  0  0
    7.2230  -13.6724   24.2521 C   0  0  0  0  0  0  0  0  0  0  0  0
    7.4377  -14.4905   23.0600 C   0  0  0  0  0  0  0  0  0  0  0  0
    8.7025  -15.2905   23.1292 C   0  0  2  0  0  0  0  0  0  0  0  0
    8.8115  -16.2074   21.9870 N   0  0  0  0  0  0  0  0  0  0  0  0
    8.9220  -16.0559   24.3441 C   0  0  0  0  0  0  0  0  0  0  0  0
    8.2255  -17.0681   24.5857 O   0  0  0  0  0  0  0  0  0  0  0  0
    7.7293  -12.3965   24.3135 C   0  0  0  0  0  0  0  0  0  0  0  0
    7.5286  -11.6346   25.4454 C   0  0  0  0  0  0  0  0  0  0  0  0
   12.6458  -21.2363   23.1519 O   0  0  0  0  0  0  0  0  0  0  0  0
   12.4024  -20.1308   23.9658 C   0  0  0  0  0  0  0  0  0  0  0  0
   11.9781  -20.3099   25.2582 C   0  0  0  0  0  0  0  0  0  0  0  0
   11.7358  -19.1954   26.0694 C   0  0  0  0  0  0  0  0  0  0  0  0
   11.9147  -17.9225   25.5964 C   0  0  0  0  0  0  0  0  0  0  0  0
   11.6613  -16.7541   26.4368 C   0  0  0  0  0  0  0  0  0  0  0  0
   10.1912  -16.3986   26.4935 C   0  0  2  0  0  0  0  0  0  0  0  0
    9.9162  -15.6751   25.2658 N   0  0  0  0  0  0  0  0  0  0  0  0
    9.8213  -15.5715   27.6497 C   0  0  0  0  0  0  0  0  0  0  0  0
    9.8885  -16.0507   28.9498 O   0  0  0  0  0  0  0  0  0  0  0  0
   12.3385  -17.7560   24.3051 C   0  0  0  0  0  0  0  0  0  0  0  0
   12.5871  -18.8516   23.4756 C   0  0  0  0  0  0  0  0  0  0  0  0
    9.4236  -14.3809   27.4997 O   0  0  0  0  0  0  0  0  0  0  0  0
  2  1  1  0
  3  2  1  0
  3  4  1  1
  5  3  1  0
  5  6  1  6
  7  5  1  0
  8  7  2  0
  9 10  1  0
 10 11  2  0
 10 20  1  0
 11 12  1  0
 12 13  2  0
 13 14  1  0
 15 14  1  1
 15 16  1  0
 16  7  1  0
 17 15  1  0
 17 28  1  0
 18 17  2  0
 19 13  1  0
 20 19  2  0
 21 22  1  0
 22 32  2  0
 23 24  2  0
 23 22  1  0
 24 25  1  0
 25 26  1  0
 25 31  2  0
 27 29  1  0
 27 28  1  0
 27 26  1  1
 29 30  1  0
 32 31  1  0
 33 29  2  0
M  END
$$$$
