IYY.pdb
     RDKit          3D

 33 34  0  0  1  0  0  0  0  0999 V2000
   11.5929  -20.4271   17.7900 C   0  0  0  0  0  0  0  0  0  0  0  0
   10.5503  -19.3486   17.6603 C   0  0  0  0  0  0  0  0  0  0  0  0
   10.5215  -18.4112   18.8350 C   0  0  2  0  0  0  0  0  0  0  0  0
   10.4743  -19.1094   20.1535 C   0  0  0  0  0  0  0  0  0  0  0  0
    9.4515  -17.3597   18.7123 C   0  0  2  0  0  0  0  0  0  0  0  0
    9.5788  -16.5671   17.5231 N   0  0  0  0  0  0  0  0  0  0  0  0
    9.4657  -16.4719   19.9114 C   0  0  0  0  0  0  0  0  0  0  0  0
   10.3996  -15.6474   20.1090 O   0  0  0  0  0  0  0  0  0  0  0  0
    6.8768  -12.0843   27.1279 O   0  0  0  0  0  0  0  0  0  0  0  0
    6.9301  -12.8269   25.9330 C   0  0  0  0  0  0  0  0  0  0  0  0
    7.4048  -12.2797   24.7653 C   0  0  0  0  0  0  0  0  0  0  0  0
    7.4651  -12.9836   23.5945 C   0  0  0  0  0  0  0  0  0  0  0  0
    7.0295  -14.3124   23.5730 C   0  0  0  0  0  0  0  0  0  0  0  0
    7.0718  -15.0920   22.3372 C   0  0  0  0  0  0  0  0  0  0  0  0
    8.4523  -15.5674   22.0018 C   0  0  2  0  0  0  0  0  0  0  0  0
    8.4269  -16.5179   20.8823 N   0  0  0  0  0  0  0  0  0  0  0  0
    9.2146  -16.1659   23.0838 C   0  0  0  0  0  0  0  0  0  0  0  0
    9.0017  -17.3521   23.4237 O   0  0  0  0  0  0  0  0  0  0  0  0
    6.5511  -14.8787   24.7298 C   0  0  0  0  0  0  0  0  0  0  0  0
    6.5074  -14.1333   25.8893 C   0  0  0  0  0  0  0  0  0  0  0  0
   10.9868  -15.9822   31.3250 O   0  0  0  0  0  0  0  0  0  0  0  0
   11.0123  -15.6669   29.9671 C   0  0  0  0  0  0  0  0  0  0  0  0
   11.8372  -16.3591   29.1171 C   0  0  0  0  0  0  0  0  0  0  0  0
   11.8575  -16.0372   27.7551 C   0  0  0  0  0  0  0  0  0  0  0  0
   11.0659  -15.0393   27.2512 C   0  0  0  0  0  0  0  0  0  0  0  0
   11.0836  -14.6960   25.8309 C   0  0  0  0  0  0  0  0  0  0  0  0
   10.8913  -15.9093   24.9469 C   0  0  2  0  0  0  0  0  0  0  0  0
   10.2007  -15.4267   23.7652 N   0  0  0  0  0  0  0  0  0  0  0  0
   10.1114  -16.9857   25.5720 C   0  0  0  0  0  0  0  0  0  0  0  0
    8.7449  -16.8772   25.7849 O   0  0  0  0  0  0  0  0  0  0  0  0
   10.2467  -14.3555   28.1090 C   0  0  0  0  0  0  0  0  0  0  0  0
   10.2081  -14.6576   29.4720 C   0  0  0  0  0  0  0  0  0  0  0  0
   10.6635  -18.0609   25.9426 O   0  0  0  0  0  0  0  0  0  0  0  0
  2  1  1  0
  3  2  1  0
  3  4  1  1
  5  3  1  0
  5  6  1  6
  7  5  1  0
  8  7  2  0
  9 10  1  0
 10 11  2  0
 10 20  1  0
 11 12  1  0
 12 13  2  0
 13 14  1  0
 15 14  1  1
 15 16  1  0
 16  7  1  0
 17 15  1  0
 17 28  1  0
 18 17  2  0
 19 13  1  0
 20 19  2  0
 21 22  1  0
 22 32  2  0
 23 24  2  0
 23 22  1  0
 24 25  1  0
 25 26  1  0
 25 31  2  0
 27 29  1  0
 27 28  1  0
 27 26  1  1
 29 30  1  0
 32 31  1  0
 33 29  2  0
M  END
$$$$
