IYY.pdb
     RDKit          3D

 33 34  0  0  1  0  0  0  0  0999 V2000
    8.3374  -24.0969   19.7641 C   0  0  0  0  0  0  0  0  0  0  0  0
    8.2374  -23.2142   20.9798 C   0  0  0  0  0  0  0  0  0  0  0  0
    8.6370  -21.7905   20.7099 C   0  0  2  0  0  0  0  0  0  0  0  0
   10.0014  -21.6563   20.1196 C   0  0  0  0  0  0  0  0  0  0  0  0
    8.4473  -20.8975   21.9067 C   0  0  2  0  0  0  0  0  0  0  0  0
    7.1340  -20.9958   22.4763 N   0  0  0  0  0  0  0  0  0  0  0  0
    8.7300  -19.4796   21.5380 C   0  0  0  0  0  0  0  0  0  0  0  0
    9.8045  -19.1500   20.9655 O   0  0  0  0  0  0  0  0  0  0  0  0
    8.3502  -11.0193   19.4176 O   0  0  0  0  0  0  0  0  0  0  0  0
    8.0361  -12.3548   19.7338 C   0  0  0  0  0  0  0  0  0  0  0  0
    7.5623  -12.7091   20.9741 C   0  0  0  0  0  0  0  0  0  0  0  0
    7.2512  -13.9999   21.3013 C   0  0  0  0  0  0  0  0  0  0  0  0
    7.4179  -15.0063   20.3447 C   0  0  0  0  0  0  0  0  0  0  0  0
    7.1034  -16.3980   20.6627 C   0  0  0  0  0  0  0  0  0  0  0  0
    8.1616  -17.0527   21.4967 C   0  0  2  0  0  0  0  0  0  0  0  0
    7.8000  -18.4398   21.8167 N   0  0  0  0  0  0  0  0  0  0  0  0
    8.5200  -16.3834   22.7352 C   0  0  0  0  0  0  0  0  0  0  0  0
    7.6276  -15.9321   23.4887 O   0  0  0  0  0  0  0  0  0  0  0  0
    7.8906  -14.6734   19.0982 C   0  0  0  0  0  0  0  0  0  0  0  0
    8.1922  -13.3590   18.8095 C   0  0  0  0  0  0  0  0  0  0  0  0
   10.5234  -14.4548   30.6240 O   0  0  0  0  0  0  0  0  0  0  0  0
   10.2010  -14.8520   29.3270 C   0  0  0  0  0  0  0  0  0  0  0  0
   10.4270  -16.1455   28.9290 C   0  0  0  0  0  0  0  0  0  0  0  0
   10.1009  -16.5370   27.6255 C   0  0  0  0  0  0  0  0  0  0  0  0
    9.5578  -15.6500   26.7342 C   0  0  0  0  0  0  0  0  0  0  0  0
    9.2171  -16.0510   25.3709 C   0  0  0  0  0  0  0  0  0  0  0  0
   10.2930  -15.6698   24.3770 C   0  0  2  0  0  0  0  0  0  0  0  0
    9.8695  -16.2315   23.1076 N   0  0  0  0  0  0  0  0  0  0  0  0
   11.6291  -16.1738   24.7210 C   0  0  0  0  0  0  0  0  0  0  0  0
   12.5391  -15.4156   25.4432 O   0  0  0  0  0  0  0  0  0  0  0  0
    9.3367  -14.3619   27.1426 C   0  0  0  0  0  0  0  0  0  0  0  0
    9.6534  -13.9464   28.4377 C   0  0  0  0  0  0  0  0  0  0  0  0
   12.0019  -17.3289   24.3671 O   0  0  0  0  0  0  0  0  0  0  0  0
  2  1  1  0
  3  2  1  0
  3  4  1  1
  5  3  1  0
  5  6  1  6
  7  5  1  0
  8  7  2  0
  9 10  1  0
 10 11  2  0
 10 20  1  0
 11 12  1  0
 12 13  2  0
 13 14  1  0
 15 14  1  1
 15 16  1  0
 16  7  1  0
 17 15  1  0
 17 28  1  0
 18 17  2  0
 19 13  1  0
 20 19  2  0
 21 22  1  0
 22 32  2  0
 23 24  2  0
 23 22  1  0
 24 25  1  0
 25 26  1  0
 25 31  2  0
 27 29  1  0
 27 28  1  0
 27 26  1  1
 29 30  1  0
 32 31  1  0
 33 29  2  0
M  END
$$$$
