IYY.pdb
     RDKit          3D

 33 34  0  0  1  0  0  0  0  0999 V2000
    7.8648  -23.2116   25.8736 C   0  0  0  0  0  0  0  0  0  0  0  0
    6.9645  -22.5222   24.8830 C   0  0  0  0  0  0  0  0  0  0  0  0
    7.5024  -21.1975   24.4190 C   0  0  2  0  0  0  0  0  0  0  0  0
    7.9185  -20.2991   25.5360 C   0  0  0  0  0  0  0  0  0  0  0  0
    6.5834  -20.5059   23.4481 C   0  0  2  0  0  0  0  0  0  0  0  0
    6.2167  -21.3350   22.3360 N   0  0  0  0  0  0  0  0  0  0  0  0
    7.2155  -19.2492   22.9507 C   0  0  0  0  0  0  0  0  0  0  0  0
    8.2355  -19.2742   22.2091 O   0  0  0  0  0  0  0  0  0  0  0  0
    8.3219  -11.5285   19.2098 O   0  0  0  0  0  0  0  0  0  0  0  0
    7.8110  -12.5688   20.0090 C   0  0  0  0  0  0  0  0  0  0  0  0
    7.6676  -12.4290   21.3685 C   0  0  0  0  0  0  0  0  0  0  0  0
    7.1736  -13.4266   22.1624 C   0  0  0  0  0  0  0  0  0  0  0  0
    6.7966  -14.6405   21.5791 C   0  0  0  0  0  0  0  0  0  0  0  0
    6.2725  -15.7316   22.3986 C   0  0  0  0  0  0  0  0  0  0  0  0
    7.3074  -16.7698   22.7075 C   0  0  2  0  0  0  0  0  0  0  0  0
    6.6946  -17.9700   23.2917 N   0  0  0  0  0  0  0  0  0  0  0  0
    8.4036  -16.3593   23.5677 C   0  0  0  0  0  0  0  0  0  0  0  0
    9.4037  -15.7830   23.0824 O   0  0  0  0  0  0  0  0  0  0  0  0
    6.9320  -14.8012   20.2213 C   0  0  0  0  0  0  0  0  0  0  0  0
    7.4347  -13.7692   19.4570 C   0  0  0  0  0  0  0  0  0  0  0  0
    6.0532  -10.7249   25.6001 O   0  0  0  0  0  0  0  0  0  0  0  0
    6.6885  -11.9138   25.9561 C   0  0  0  0  0  0  0  0  0  0  0  0
    5.9453  -13.0346   26.2280 C   0  0  0  0  0  0  0  0  0  0  0  0
    6.5900  -14.2246   26.5847 C   0  0  0  0  0  0  0  0  0  0  0  0
    7.9555  -14.2931   26.6684 C   0  0  0  0  0  0  0  0  0  0  0  0
    8.6353  -15.5313   27.0426 C   0  0  0  0  0  0  0  0  0  0  0  0
    9.3826  -16.1474   25.8796 C   0  0  2  0  0  0  0  0  0  0  0  0
    8.3607  -16.6010   24.9543 N   0  0  0  0  0  0  0  0  0  0  0  0
   10.2469  -17.2743   26.2550 C   0  0  0  0  0  0  0  0  0  0  0  0
   11.3419  -17.1159   27.0918 O   0  0  0  0  0  0  0  0  0  0  0  0
    8.6867  -13.1683   26.3947 C   0  0  0  0  0  0  0  0  0  0  0  0
    8.0674  -11.9689   26.0366 C   0  0  0  0  0  0  0  0  0  0  0  0
   10.0215  -18.4412   25.8240 O   0  0  0  0  0  0  0  0  0  0  0  0
  2  1  1  0
  3  2  1  0
  3  4  1  1
  5  3  1  0
  5  6  1  6
  7  5  1  0
  8  7  2  0
  9 10  1  0
 10 11  2  0
 10 20  1  0
 11 12  1  0
 12 13  2  0
 13 14  1  0
 15 14  1  1
 15 16  1  0
 16  7  1  0
 17 15  1  0
 17 28  1  0
 18 17  2  0
 19 13  1  0
 20 19  2  0
 21 22  1  0
 22 32  2  0
 23 24  2  0
 23 22  1  0
 24 25  1  0
 25 26  1  0
 25 31  2  0
 27 29  1  0
 27 28  1  0
 27 26  1  1
 29 30  1  0
 32 31  1  0
 33 29  2  0
M  END
$$$$
