IYY.pdb
     RDKit          3D

 33 34  0  0  1  0  0  0  0  0999 V2000
    4.9029  -11.3066   27.2669 C   0  0  0  0  0  0  0  0  0  0  0  0
    6.0452  -11.4694   26.2996 C   0  0  0  0  0  0  0  0  0  0  0  0
    6.5824  -12.8724   26.2513 C   0  0  2  0  0  0  0  0  0  0  0  0
    6.7951  -13.4758   27.5999 C   0  0  0  0  0  0  0  0  0  0  0  0
    7.8006  -12.9977   25.3762 C   0  0  2  0  0  0  0  0  0  0  0  0
    7.7432  -12.1601   24.2127 N   0  0  0  0  0  0  0  0  0  0  0  0
    7.9908  -14.4188   24.9631 C   0  0  0  0  0  0  0  0  0  0  0  0
    7.9061  -15.3632   25.7949 O   0  0  0  0  0  0  0  0  0  0  0  0
    8.6064  -12.3324   18.1813 O   0  0  0  0  0  0  0  0  0  0  0  0
    8.4334  -13.3707   19.1163 C   0  0  0  0  0  0  0  0  0  0  0  0
    7.3771  -13.3802   19.9952 C   0  0  0  0  0  0  0  0  0  0  0  0
    7.1909  -14.3788   20.9105 C   0  0  0  0  0  0  0  0  0  0  0  0
    8.1045  -15.4363   20.9632 C   0  0  0  0  0  0  0  0  0  0  0  0
    7.9411  -16.5163   21.9346 C   0  0  0  0  0  0  0  0  0  0  0  0
    8.5155  -16.1777   23.2761 C   0  0  2  0  0  0  0  0  0  0  0  0
    8.2757  -14.7686   23.6138 N   0  0  0  0  0  0  0  0  0  0  0  0
    9.9293  -16.4522   23.4661 C   0  0  0  0  0  0  0  0  0  0  0  0
   10.7901  -15.6505   23.0369 O   0  0  0  0  0  0  0  0  0  0  0  0
    9.1680  -15.4461   20.0933 C   0  0  0  0  0  0  0  0  0  0  0  0
    9.3186  -14.4189   19.1854 C   0  0  0  0  0  0  0  0  0  0  0  0
   10.5324  -14.1056   29.4031 O   0  0  0  0  0  0  0  0  0  0  0  0
   10.8401  -15.1492   28.5312 C   0  0  0  0  0  0  0  0  0  0  0  0
   11.4757  -14.8871   27.3440 C   0  0  0  0  0  0  0  0  0  0  0  0
   11.7814  -15.9398   26.4737 C   0  0  0  0  0  0  0  0  0  0  0  0
   11.4568  -17.2335   26.7852 C   0  0  0  0  0  0  0  0  0  0  0  0
   11.7705  -18.3373   25.8804 C   0  0  0  0  0  0  0  0  0  0  0  0
   11.7438  -17.9116   24.4283 C   0  0  2  0  0  0  0  0  0  0  0  0
   10.3537  -17.6179   24.1324 N   0  0  0  0  0  0  0  0  0  0  0  0
   12.2437  -18.9323   23.4977 C   0  0  0  0  0  0  0  0  0  0  0  0
   11.4201  -19.5454   22.5649 O   0  0  0  0  0  0  0  0  0  0  0  0
   10.8227  -17.4830   27.9728 C   0  0  0  0  0  0  0  0  0  0  0  0
   10.5067  -16.4503   28.8582 C   0  0  0  0  0  0  0  0  0  0  0  0
   13.4554  -19.2928   23.5141 O   0  0  0  0  0  0  0  0  0  0  0  0
  2  1  1  0
  3  2  1  0
  3  4  1  1
  5  3  1  0
  5  6  1  6
  7  5  1  0
  8  7  2  0
  9 10  1  0
 10 11  2  0
 10 20  1  0
 11 12  1  0
 12 13  2  0
 13 14  1  0
 15 14  1  6
 15 16  1  0
 16  7  1  0
 17 15  1  0
 17 28  1  0
 18 17  2  0
 19 13  1  0
 20 19  2  0
 21 22  1  0
 22 32  2  0
 23 24  2  0
 23 22  1  0
 24 25  1  0
 25 26  1  0
 25 31  2  0
 27 29  1  0
 27 28  1  0
 27 26  1  1
 29 30  1  0
 32 31  1  0
 33 29  2  0
M  END
$$$$
