AAY.pdb
     RDKit          3D

 23 23  0  0  1  0  0  0  0  0999 V2000
    7.4804  -17.7386   15.6975 C   0  0  0  0  0  0  0  0  0  0  0  0
    8.8507  -17.8999   16.2911 C   0  0  2  0  0  0  0  0  0  0  0  0
    9.4520  -19.1416   15.9014 N   0  0  0  0  0  0  0  0  0  0  0  0
    8.8381  -17.7258   17.7756 C   0  0  0  0  0  0  0  0  0  0  0  0
    8.4291  -16.6585   18.3169 O   0  0  0  0  0  0  0  0  0  0  0  0
    9.2477  -19.9922   20.7688 C   0  0  0  0  0  0  0  0  0  0  0  0
    9.1268  -18.6585   20.0729 C   0  0  2  0  0  0  0  0  0  0  0  0
    9.2840  -18.7475   18.6572 N   0  0  0  0  0  0  0  0  0  0  0  0
   10.0370  -17.6677   20.7017 C   0  0  0  0  0  0  0  0  0  0  0  0
   11.1814  -17.4664   20.2321 O   0  0  0  0  0  0  0  0  0  0  0  0
    7.3950  -12.7363   17.6617 O   0  0  0  0  0  0  0  0  0  0  0  0
    7.8766  -13.2200   18.8691 C   0  0  0  0  0  0  0  0  0  0  0  0
    7.0677  -13.8186   19.8139 C   0  0  0  0  0  0  0  0  0  0  0  0
    7.5430  -14.3007   21.0151 C   0  0  0  0  0  0  0  0  0  0  0  0
    8.8862  -14.1887   21.3041 C   0  0  0  0  0  0  0  0  0  0  0  0
    9.3869  -14.6986   22.5871 C   0  0  0  0  0  0  0  0  0  0  0  0
   10.3668  -15.8624   22.4325 C   0  0  2  0  0  0  0  0  0  0  0  0
    9.5993  -16.9465   21.8445 N   0  0  0  0  0  0  0  0  0  0  0  0
   10.9876  -16.2543   23.7080 C   0  0  0  0  0  0  0  0  0  0  0  0
   10.5335  -17.1931   24.4066 O   0  0  0  0  0  0  0  0  0  0  0  0
    9.7003  -13.5927   20.3672 C   0  0  0  0  0  0  0  0  0  0  0  0
    9.2225  -13.1115   19.1667 C   0  0  0  0  0  0  0  0  0  0  0  0
   12.1180  -15.5934   24.2004 O   0  0  0  0  0  0  0  0  0  0  0  0
  2  1  1  1
  3  2  1  0
  4  2  1  0
  5  4  2  0
  7  6  1  1
  7  9  1  0
  7  8  1  0
  8  4  1  0
  9 18  1  0
 10  9  2  0
 12 22  2  0
 12 11  1  0
 13 12  1  0
 14 15  1  0
 14 13  2  0
 15 21  2  0
 16 15  1  0
 17 19  1  0
 17 16  1  1
 18 17  1  0
 19 20  2  0
 19 23  1  0
 21 22  1  0
M  END
$$$$
