AAY.pdb
     RDKit          3D

 23 23  0  0  1  0  0  0  0  0999 V2000
    7.3061  -12.7638   18.8852 C   0  0  0  0  0  0  0  0  0  0  0  0
    8.5908  -13.3514   19.3956 C   0  0  2  0  0  0  0  0  0  0  0  0
    9.3819  -13.8960   18.3313 N   0  0  0  0  0  0  0  0  0  0  0  0
    8.3530  -14.3490   20.4831 C   0  0  0  0  0  0  0  0  0  0  0  0
    7.6494  -14.0729   21.4971 O   0  0  0  0  0  0  0  0  0  0  0  0
    9.0208  -18.0400   21.0064 C   0  0  0  0  0  0  0  0  0  0  0  0
    8.6024  -16.6498   21.4186 C   0  0  2  0  0  0  0  0  0  0  0  0
    8.9033  -15.6586   20.4368 N   0  0  0  0  0  0  0  0  0  0  0  0
    9.1475  -16.3274   22.7619 C   0  0  0  0  0  0  0  0  0  0  0  0
   10.2683  -15.7791   22.8796 O   0  0  0  0  0  0  0  0  0  0  0  0
    6.5854  -10.4901   26.4324 O   0  0  0  0  0  0  0  0  0  0  0  0
    6.8393  -11.8509   26.3459 C   0  0  0  0  0  0  0  0  0  0  0  0
    8.0984  -12.3659   26.1120 C   0  0  0  0  0  0  0  0  0  0  0  0
    8.3544  -13.7181   26.0254 C   0  0  0  0  0  0  0  0  0  0  0  0
    7.3170  -14.6132   26.1770 C   0  0  0  0  0  0  0  0  0  0  0  0
    7.5936  -16.0522   26.0785 C   0  0  0  0  0  0  0  0  0  0  0  0
    8.8496  -16.3707   25.2665 C   0  0  2  0  0  0  0  0  0  0  0  0
    8.3859  -16.6463   23.9178 N   0  0  0  0  0  0  0  0  0  0  0  0
    9.6171  -17.4946   25.8266 C   0  0  0  0  0  0  0  0  0  0  0  0
    9.5171  -18.6597   25.3702 O   0  0  0  0  0  0  0  0  0  0  0  0
    6.0577  -14.1079   26.4106 C   0  0  0  0  0  0  0  0  0  0  0  0
    5.8044  -12.7554   26.4967 C   0  0  0  0  0  0  0  0  0  0  0  0
   10.4971  -17.3122   26.8987 O   0  0  0  0  0  0  0  0  0  0  0  0
  2  1  1  6
  3  2  1  0
  4  2  1  0
  5  4  2  0
  7  6  1  6
  7  9  1  0
  7  8  1  0
  8  4  1  0
  9 18  1  0
 10  9  2  0
 12 22  2  0
 12 11  1  0
 13 12  1  0
 14 15  1  0
 14 13  2  0
 15 21  2  0
 16 15  1  0
 17 19  1  0
 17 16  1  1
 18 17  1  0
 19 20  2  0
 19 23  1  0
 21 22  1  0
M  END
$$$$
