AAY.pdb
     RDKit          3D

 23 23  0  0  1  0  0  0  0  0999 V2000
    8.1772  -19.0040   18.6402 C   0  0  0  0  0  0  0  0  0  0  0  0
    7.9435  -18.5757   20.0608 C   0  0  2  0  0  0  0  0  0  0  0  0
    6.5912  -18.8184   20.4698 N   0  0  0  0  0  0  0  0  0  0  0  0
    8.3505  -17.1554   20.2880 C   0  0  0  0  0  0  0  0  0  0  0  0
    9.5493  -16.7767   20.1501 O   0  0  0  0  0  0  0  0  0  0  0  0
    6.5878  -13.8516   20.7908 C   0  0  0  0  0  0  0  0  0  0  0  0
    7.7761  -14.7820   20.8053 C   0  0  2  0  0  0  0  0  0  0  0  0
    7.4150  -16.1561   20.6702 N   0  0  0  0  0  0  0  0  0  0  0  0
    8.6228  -14.5137   21.9956 C   0  0  0  0  0  0  0  0  0  0  0  0
    9.1243  -13.3797   22.1778 O   0  0  0  0  0  0  0  0  0  0  0  0
   11.1355  -14.6198   30.3283 O   0  0  0  0  0  0  0  0  0  0  0  0
   10.5304  -14.7359   29.0857 C   0  0  0  0  0  0  0  0  0  0  0  0
   10.1225  -15.9453   28.5598 C   0  0  0  0  0  0  0  0  0  0  0  0
    9.5206  -16.0644   27.3250 C   0  0  0  0  0  0  0  0  0  0  0  0
    9.3077  -14.9341   26.5653 C   0  0  0  0  0  0  0  0  0  0  0  0
    8.6712  -15.0666   25.2483 C   0  0  0  0  0  0  0  0  0  0  0  0
    9.6645  -15.3723   24.1265 C   0  0  2  0  0  0  0  0  0  0  0  0
    8.8614  -15.5564   22.9303 N   0  0  0  0  0  0  0  0  0  0  0  0
   10.5019  -16.5476   24.4153 C   0  0  0  0  0  0  0  0  0  0  0  0
   11.6938  -16.4369   24.7933 O   0  0  0  0  0  0  0  0  0  0  0  0
    9.7117  -13.7236   27.0822 C   0  0  0  0  0  0  0  0  0  0  0  0
   10.3133  -13.6071   28.3174 C   0  0  0  0  0  0  0  0  0  0  0  0
   10.0028  -17.8475   24.2802 O   0  0  0  0  0  0  0  0  0  0  0  0
  2  1  1  6
  3  2  1  0
  4  2  1  0
  5  4  2  0
  7  6  1  1
  7  9  1  0
  7  8  1  0
  8  4  1  0
  9 18  1  0
 10  9  2  0
 12 22  2  0
 12 11  1  0
 13 12  1  0
 14 15  1  0
 14 13  2  0
 15 21  2  0
 16 15  1  0
 17 19  1  0
 17 16  1  1
 18 17  1  0
 19 20  2  0
 19 23  1  0
 21 22  1  0
M  END
$$$$
