AAY.pdb
     RDKit          3D

 23 23  0  0  1  0  0  0  0  0999 V2000
    6.2107  -18.0085   21.0997 C   0  0  0  0  0  0  0  0  0  0  0  0
    6.6318  -17.3492   19.8175 C   0  0  2  0  0  0  0  0  0  0  0  0
    7.0612  -18.3113   18.8453 N   0  0  0  0  0  0  0  0  0  0  0  0
    7.6605  -16.2896   20.0482 C   0  0  0  0  0  0  0  0  0  0  0  0
    8.8985  -16.5467   20.0203 O   0  0  0  0  0  0  0  0  0  0  0  0
    7.8267  -12.5467   20.1953 C   0  0  0  0  0  0  0  0  0  0  0  0
    8.2762  -13.9322   20.5906 C   0  0  2  0  0  0  0  0  0  0  0  0
    7.3042  -14.9390   20.3109 N   0  0  0  0  0  0  0  0  0  0  0  0
    8.7357  -13.9386   22.0029 C   0  0  0  0  0  0  0  0  0  0  0  0
    8.6234  -12.9127   22.7139 O   0  0  0  0  0  0  0  0  0  0  0  0
    6.1754  -11.0914   27.5555 O   0  0  0  0  0  0  0  0  0  0  0  0
    6.5814  -12.1636   26.7750 C   0  0  0  0  0  0  0  0  0  0  0  0
    5.9551  -12.5127   25.5954 C   0  0  0  0  0  0  0  0  0  0  0  0
    6.3561  -13.5779   24.8170 C   0  0  0  0  0  0  0  0  0  0  0  0
    7.4308  -14.3418   25.2190 C   0  0  0  0  0  0  0  0  0  0  0  0
    7.8508  -15.4786   24.3895 C   0  0  0  0  0  0  0  0  0  0  0  0
    9.3192  -15.4081   23.9685 C   0  0  2  0  0  0  0  0  0  0  0  0
    9.3062  -15.1214   22.5446 N   0  0  0  0  0  0  0  0  0  0  0  0
   10.0572  -16.6437   24.2759 C   0  0  0  0  0  0  0  0  0  0  0  0
   10.5474  -16.8592   25.4113 O   0  0  0  0  0  0  0  0  0  0  0  0
    8.0612  -14.0005   26.3946 C   0  0  0  0  0  0  0  0  0  0  0  0
    7.6584  -12.9349   27.1712 C   0  0  0  0  0  0  0  0  0  0  0  0
   10.2457  -17.6381   23.3101 O   0  0  0  0  0  0  0  0  0  0  0  0
  2  1  1  1
  3  2  1  0
  4  2  1  0
  5  4  2  0
  7  6  1  1
  7  9  1  0
  7  8  1  0
  8  4  1  0
  9 18  1  0
 10  9  2  0
 12 22  2  0
 12 11  1  0
 13 12  1  0
 14 15  1  0
 14 13  2  0
 15 21  2  0
 16 15  1  0
 17 19  1  0
 17 16  1  6
 18 17  1  0
 19 20  2  0
 19 23  1  0
 21 22  1  0
M  END
$$$$
