AAY.pdb
     RDKit          3D

 23 23  0  0  1  0  0  0  0  0999 V2000
    6.3256  -19.0485   22.3090 C   0  0  0  0  0  0  0  0  0  0  0  0
    6.4507  -18.3329   20.9943 C   0  0  2  0  0  0  0  0  0  0  0  0
    6.7076  -19.2454   19.9189 N   0  0  0  0  0  0  0  0  0  0  0  0
    7.4646  -17.2362   21.0518 C   0  0  0  0  0  0  0  0  0  0  0  0
    8.7029  -17.4685   20.9413 O   0  0  0  0  0  0  0  0  0  0  0  0
    7.4354  -13.4551   21.0611 C   0  0  0  0  0  0  0  0  0  0  0  0
    8.0512  -14.8188   21.2583 C   0  0  2  0  0  0  0  0  0  0  0  0
    7.0933  -15.8764   21.2335 N   0  0  0  0  0  0  0  0  0  0  0  0
    8.9003  -14.8266   22.4768 C   0  0  0  0  0  0  0  0  0  0  0  0
    9.9136  -14.0930   22.5517 O   0  0  0  0  0  0  0  0  0  0  0  0
    6.0709  -10.6188   26.8622 O   0  0  0  0  0  0  0  0  0  0  0  0
    6.6237  -11.8704   26.6351 C   0  0  0  0  0  0  0  0  0  0  0  0
    7.9802  -12.1157   26.7063 C   0  0  0  0  0  0  0  0  0  0  0  0
    8.5332  -13.3586   26.4811 C   0  0  0  0  0  0  0  0  0  0  0  0
    7.7089  -14.4184   26.1690 C   0  0  0  0  0  0  0  0  0  0  0  0
    8.3030  -15.7391   25.9246 C   0  0  0  0  0  0  0  0  0  0  0  0
    9.3277  -15.7387   24.7895 C   0  0  2  0  0  0  0  0  0  0  0  0
    8.5539  -15.6754   23.5618 N   0  0  0  0  0  0  0  0  0  0  0  0
   10.2126  -16.9141   24.8241 C   0  0  0  0  0  0  0  0  0  0  0  0
   10.0937  -17.8590   24.0063 O   0  0  0  0  0  0  0  0  0  0  0  0
    6.3543  -14.1824   26.0957 C   0  0  0  0  0  0  0  0  0  0  0  0
    5.8039  -12.9386   26.3213 C   0  0  0  0  0  0  0  0  0  0  0  0
   11.2313  -17.0302   25.7759 O   0  0  0  0  0  0  0  0  0  0  0  0
  2  1  1  1
  3  2  1  0
  4  2  1  0
  5  4  2  0
  7  6  1  1
  7  9  1  0
  7  8  1  0
  8  4  1  0
  9 18  1  0
 10  9  2  0
 12 22  2  0
 12 11  1  0
 13 12  1  0
 14 15  1  0
 14 13  2  0
 15 21  2  0
 16 15  1  0
 17 19  1  0
 17 16  1  1
 18 17  1  0
 19 20  2  0
 19 23  1  0
 21 22  1  0
M  END
$$$$
