AAY.pdb
     RDKit          3D

 23 23  0  0  1  0  0  0  0  0999 V2000
    7.4630  -12.5439   18.9181 C   0  0  0  0  0  0  0  0  0  0  0  0
    8.4053  -13.7135   18.9259 C   0  0  2  0  0  0  0  0  0  0  0  0
    8.2084  -14.5578   17.7843 N   0  0  0  0  0  0  0  0  0  0  0  0
    8.3314  -14.4792   20.2076 C   0  0  0  0  0  0  0  0  0  0  0  0
    8.5336  -13.9250   21.3263 O   0  0  0  0  0  0  0  0  0  0  0  0
    7.6148  -18.0615   21.2508 C   0  0  0  0  0  0  0  0  0  0  0  0
    7.8761  -16.5899   21.4600 C   0  0  2  0  0  0  0  0  0  0  0  0
    8.0308  -15.8679   20.2386 N   0  0  0  0  0  0  0  0  0  0  0  0
    9.0096  -16.3989   22.4003 C   0  0  0  0  0  0  0  0  0  0  0  0
   10.1850  -16.3188   21.9731 O   0  0  0  0  0  0  0  0  0  0  0  0
    5.3662  -11.8136   26.7506 O   0  0  0  0  0  0  0  0  0  0  0  0
    6.4894  -12.4759   26.2779 C   0  0  0  0  0  0  0  0  0  0  0  0
    7.5063  -12.9118   27.1033 C   0  0  0  0  0  0  0  0  0  0  0  0
    8.6242  -13.5706   26.6367 C   0  0  0  0  0  0  0  0  0  0  0  0
    8.7501  -13.8145   25.2858 C   0  0  0  0  0  0  0  0  0  0  0  0
    9.9452  -14.5115   24.7930 C   0  0  0  0  0  0  0  0  0  0  0  0
    9.7900  -16.0327   24.7710 C   0  0  2  0  0  0  0  0  0  0  0  0
    8.7508  -16.3073   23.7941 N   0  0  0  0  0  0  0  0  0  0  0  0
    9.4644  -16.5886   26.0942 C   0  0  0  0  0  0  0  0  0  0  0  0
   10.2729  -16.5377   27.0531 O   0  0  0  0  0  0  0  0  0  0  0  0
    7.7403  -13.3828   24.4553 C   0  0  0  0  0  0  0  0  0  0  0  0
    6.6234  -12.7244   24.9244 C   0  0  0  0  0  0  0  0  0  0  0  0
    8.2317  -17.2018   26.3425 O   0  0  0  0  0  0  0  0  0  0  0  0
  2  1  1  1
  3  2  1  0
  4  2  1  0
  5  4  2  0
  7  6  1  6
  7  9  1  0
  7  8  1  0
  8  4  1  0
  9 18  1  0
 10  9  2  0
 12 22  2  0
 12 11  1  0
 13 12  1  0
 14 15  1  0
 14 13  2  0
 15 21  2  0
 16 15  1  0
 17 19  1  0
 17 16  1  1
 18 17  1  0
 19 20  2  0
 19 23  1  0
 21 22  1  0
M  END
$$$$
