AAY.pdb
     RDKit          3D

 23 23  0  0  1  0  0  0  0  0999 V2000
    6.9503  -13.0451   19.4610 C   0  0  0  0  0  0  0  0  0  0  0  0
    8.3217  -13.3339   20.0013 C   0  0  2  0  0  0  0  0  0  0  0  0
    9.2428  -13.6650   18.9540 N   0  0  0  0  0  0  0  0  0  0  0  0
    8.2902  -14.3788   21.0698 C   0  0  0  0  0  0  0  0  0  0  0  0
    7.5044  -14.2970   22.0574 O   0  0  0  0  0  0  0  0  0  0  0  0
    9.7311  -17.8391   21.5548 C   0  0  0  0  0  0  0  0  0  0  0  0
    9.0549  -16.5653   21.9998 C   0  0  2  0  0  0  0  0  0  0  0  0
    9.1393  -15.5179   21.0341 N   0  0  0  0  0  0  0  0  0  0  0  0
    9.5483  -16.1649   23.3421 C   0  0  0  0  0  0  0  0  0  0  0  0
   10.5254  -15.3884   23.4560 O   0  0  0  0  0  0  0  0  0  0  0  0
    6.0950  -10.8134   26.0847 O   0  0  0  0  0  0  0  0  0  0  0  0
    6.5736  -12.1082   26.2199 C   0  0  0  0  0  0  0  0  0  0  0  0
    5.8329  -13.2216   25.8776 C   0  0  0  0  0  0  0  0  0  0  0  0
    6.3057  -14.5101   26.0107 C   0  0  0  0  0  0  0  0  0  0  0  0
    7.5751  -14.7162   26.5069 C   0  0  0  0  0  0  0  0  0  0  0  0
    8.0721  -16.0905   26.6519 C   0  0  0  0  0  0  0  0  0  0  0  0
    9.3455  -16.3592   25.8490 C   0  0  2  0  0  0  0  0  0  0  0  0
    8.9018  -16.6707   24.5015 N   0  0  0  0  0  0  0  0  0  0  0  0
   10.1616  -17.4400   26.4250 C   0  0  0  0  0  0  0  0  0  0  0  0
   10.7149  -17.3288   27.5463 O   0  0  0  0  0  0  0  0  0  0  0  0
    8.3207  -13.6110   26.8509 C   0  0  0  0  0  0  0  0  0  0  0  0
    7.8458  -12.3236   26.7168 C   0  0  0  0  0  0  0  0  0  0  0  0
   10.3574  -18.6460   25.7436 O   0  0  0  0  0  0  0  0  0  0  0  0
  2  1  1  6
  3  2  1  0
  4  2  1  0
  5  4  2  0
  7  6  1  6
  7  9  1  0
  7  8  1  0
  8  4  1  0
  9 18  1  0
 10  9  2  0
 12 22  2  0
 12 11  1  0
 13 12  1  0
 14 15  1  0
 14 13  2  0
 15 21  2  0
 16 15  1  0
 17 19  1  0
 17 16  1  1
 18 17  1  0
 19 20  2  0
 19 23  1  0
 21 22  1  0
M  END
$$$$
