AAY.pdb
     RDKit          3D

 23 23  0  0  1  0  0  0  0  0999 V2000
    8.7615  -12.2898   18.7382 C   0  0  0  0  0  0  0  0  0  0  0  0
    7.9638  -13.5480   18.5468 C   0  0  2  0  0  0  0  0  0  0  0  0
    6.5953  -13.2624   18.2293 N   0  0  0  0  0  0  0  0  0  0  0  0
    8.0861  -14.4681   19.7184 C   0  0  0  0  0  0  0  0  0  0  0  0
    7.3491  -14.3473   20.7391 O   0  0  0  0  0  0  0  0  0  0  0  0
    9.7101  -17.7840   20.4233 C   0  0  0  0  0  0  0  0  0  0  0  0
    9.1018  -16.4623   20.8241 C   0  0  2  0  0  0  0  0  0  0  0  0
    9.0348  -15.5260   19.7491 N   0  0  0  0  0  0  0  0  0  0  0  0
    9.7890  -15.9251   22.0261 C   0  0  0  0  0  0  0  0  0  0  0  0
   10.8279  -15.2339   21.9102 O   0  0  0  0  0  0  0  0  0  0  0  0
   10.8303  -14.5735   30.7825 O   0  0  0  0  0  0  0  0  0  0  0  0
   10.3447  -14.8648   29.5164 C   0  0  0  0  0  0  0  0  0  0  0  0
    9.8935  -13.8946   28.6442 C   0  0  0  0  0  0  0  0  0  0  0  0
    9.4101  -14.1807   27.3849 C   0  0  0  0  0  0  0  0  0  0  0  0
    9.3676  -15.4910   26.9590 C   0  0  0  0  0  0  0  0  0  0  0  0
    8.8469  -15.7912   25.6190 C   0  0  0  0  0  0  0  0  0  0  0  0
    9.9325  -15.8191   24.5424 C   0  0  2  0  0  0  0  0  0  0  0  0
    9.2578  -16.2017   23.3142 N   0  0  0  0  0  0  0  0  0  0  0  0
   11.0363  -16.7344   24.8737 C   0  0  0  0  0  0  0  0  0  0  0  0
   12.1641  -16.3131   25.2291 O   0  0  0  0  0  0  0  0  0  0  0  0
    9.8156  -16.4651   27.8229 C   0  0  0  0  0  0  0  0  0  0  0  0
   10.2986  -16.1765   29.0816 C   0  0  0  0  0  0  0  0  0  0  0  0
   10.8756  -18.1225   24.8067 O   0  0  0  0  0  0  0  0  0  0  0  0
  2  1  1  1
  3  2  1  0
  4  2  1  0
  5  4  2  0
  7  6  1  6
  7  9  1  0
  7  8  1  0
  8  4  1  0
  9 18  1  0
 10  9  2  0
 12 22  2  0
 12 11  1  0
 13 12  1  0
 14 15  1  0
 14 13  2  0
 15 21  2  0
 16 15  1  0
 17 19  1  0
 17 16  1  1
 18 17  1  0
 19 20  2  0
 19 23  1  0
 21 22  1  0
M  END
$$$$
