AAY.pdb
     RDKit          3D

 23 23  0  0  1  0  0  0  0  0999 V2000
    9.6877  -13.9437   18.4993 C   0  0  0  0  0  0  0  0  0  0  0  0
    8.1969  -13.8721   18.6679 C   0  0  2  0  0  0  0  0  0  0  0  0
    7.6883  -12.5768   18.3238 N   0  0  0  0  0  0  0  0  0  0  0  0
    7.7708  -14.2951   20.0368 C   0  0  0  0  0  0  0  0  0  0  0  0
    7.9380  -13.5506   21.0454 O   0  0  0  0  0  0  0  0  0  0  0  0
    5.9458  -17.2486   21.5715 C   0  0  0  0  0  0  0  0  0  0  0  0
    6.7301  -15.9593   21.5790 C   0  0  2  0  0  0  0  0  0  0  0  0
    7.1561  -15.5535   20.2788 N   0  0  0  0  0  0  0  0  0  0  0  0
    7.8421  -16.0413   22.5601 C   0  0  0  0  0  0  0  0  0  0  0  0
    9.0243  -15.8305   22.2018 O   0  0  0  0  0  0  0  0  0  0  0  0
    5.5467  -11.2162   27.2587 O   0  0  0  0  0  0  0  0  0  0  0  0
    6.4279  -12.1388   26.7146 C   0  0  0  0  0  0  0  0  0  0  0  0
    7.2409  -12.9450   27.4855 C   0  0  0  0  0  0  0  0  0  0  0  0
    8.1180  -13.8632   26.9479 C   0  0  0  0  0  0  0  0  0  0  0  0
    8.2010  -13.9968   25.5784 C   0  0  0  0  0  0  0  0  0  0  0  0
    9.1405  -14.9722   25.0103 C   0  0  0  0  0  0  0  0  0  0  0  0
    8.5732  -16.3909   24.9489 C   0  0  2  0  0  0  0  0  0  0  0  0
    7.5547  -16.3621   23.9137 N   0  0  0  0  0  0  0  0  0  0  0  0
    8.0337  -16.8423   26.2416 C   0  0  0  0  0  0  0  0  0  0  0  0
    6.7997  -16.9521   26.4440 O   0  0  0  0  0  0  0  0  0  0  0  0
    7.3935  -13.1963   24.8019 C   0  0  0  0  0  0  0  0  0  0  0  0
    6.5173  -12.2789   25.3419 C   0  0  0  0  0  0  0  0  0  0  0  0
    8.8778  -17.1707   27.3077 O   0  0  0  0  0  0  0  0  0  0  0  0
  2  1  1  1
  3  2  1  0
  4  2  1  0
  5  4  2  0
  7  6  1  6
  7  9  1  0
  7  8  1  0
  8  4  1  0
  9 18  1  0
 10  9  2  0
 12 22  2  0
 12 11  1  0
 13 12  1  0
 14 15  1  0
 14 13  2  0
 15 21  2  0
 16 15  1  0
 17 19  1  0
 17 16  1  1
 18 17  1  0
 19 20  2  0
 19 23  1  0
 21 22  1  0
M  END
$$$$
