AAY.pdb
     RDKit          3D

 23 23  0  0  1  0  0  0  0  0999 V2000
    5.5400  -18.0858   21.9177 C   0  0  0  0  0  0  0  0  0  0  0  0
    5.8260  -17.5524   20.5430 C   0  0  2  0  0  0  0  0  0  0  0  0
    5.9450  -18.6085   19.5810 N   0  0  0  0  0  0  0  0  0  0  0  0
    7.0174  -16.6496   20.5331 C   0  0  0  0  0  0  0  0  0  0  0  0
    8.1815  -17.0868   20.3025 O   0  0  0  0  0  0  0  0  0  0  0  0
    7.6690  -12.9321   20.5951 C   0  0  0  0  0  0  0  0  0  0  0  0
    8.0382  -14.3845   20.7741 C   0  0  2  0  0  0  0  0  0  0  0  0
    6.9070  -15.2546   20.7817 N   0  0  0  0  0  0  0  0  0  0  0  0
    8.9108  -14.5487   21.9646 C   0  0  0  0  0  0  0  0  0  0  0  0
   10.0460  -14.0190   22.0001 O   0  0  0  0  0  0  0  0  0  0  0  0
    6.1877  -10.4905   26.8665 O   0  0  0  0  0  0  0  0  0  0  0  0
    6.6905  -11.7340   26.5136 C   0  0  0  0  0  0  0  0  0  0  0  0
    8.0412  -11.9891   26.3877 C   0  0  0  0  0  0  0  0  0  0  0  0
    8.5445  -13.2241   26.0372 C   0  0  0  0  0  0  0  0  0  0  0  0
    7.6736  -14.2652   25.7971 C   0  0  0  0  0  0  0  0  0  0  0  0
    8.2141  -15.5773   25.4186 C   0  0  0  0  0  0  0  0  0  0  0  0
    9.2292  -15.5049   24.2771 C   0  0  2  0  0  0  0  0  0  0  0  0
    8.4473  -15.3141   23.0679 N   0  0  0  0  0  0  0  0  0  0  0  0
   10.0819  -16.7018   24.1999 C   0  0  0  0  0  0  0  0  0  0  0  0
    9.9553  -17.5491   23.2823 O   0  0  0  0  0  0  0  0  0  0  0  0
    6.3245  -14.0194   25.9202 C   0  0  0  0  0  0  0  0  0  0  0  0
    5.8237  -12.7836   26.2710 C   0  0  0  0  0  0  0  0  0  0  0  0
   11.0770  -16.9491   25.1516 O   0  0  0  0  0  0  0  0  0  0  0  0
  2  1  1  1
  3  2  1  0
  4  2  1  0
  5  4  2  0
  7  6  1  1
  7  9  1  0
  7  8  1  0
  8  4  1  0
  9 18  1  0
 10  9  2  0
 12 22  2  0
 12 11  1  0
 13 12  1  0
 14 15  1  0
 14 13  2  0
 15 21  2  0
 16 15  1  0
 17 19  1  0
 17 16  1  1
 18 17  1  0
 19 20  2  0
 19 23  1  0
 21 22  1  0
M  END
$$$$
