LLN.pdb
     RDKit          3D

 25 24  0  0  1  0  0  0  0  0999 V2000
   15.9398  -12.8451  -17.6021 C   0  0  0  0  0  0  0  0  0  0  0  0
   16.8356  -13.5615  -16.6198 C   0  0  2  0  0  0  0  0  0  0  0  0
   15.9689  -14.4340  -15.7319 C   0  0  0  0  0  0  0  0  0  0  0  0
   17.6507  -12.5844  -15.8183 C   0  0  0  0  0  0  0  0  0  0  0  0
   18.4082  -11.7079  -16.8137 C   0  0  2  0  0  0  0  0  0  0  0  0
   19.4004  -12.4987  -17.4627 N   0  0  0  0  0  0  0  0  0  0  0  0
   18.9666  -10.5050  -16.1180 C   0  0  0  0  0  0  0  0  0  0  0  0
   18.1710   -9.8638  -15.3872 O   0  0  0  0  0  0  0  0  0  0  0  0
   22.2512   -9.7294  -13.0692 C   0  0  0  0  0  0  0  0  0  0  0  0
   22.7424  -10.2196  -14.4425 C   0  0  2  0  0  0  0  0  0  0  0  0
   24.1904  -10.5050  -14.3383 C   0  0  0  0  0  0  0  0  0  0  0  0
   22.3379   -9.2519  -15.4731 C   0  0  0  0  0  0  0  0  0  0  0  0
   20.9116   -8.9561  -15.6808 C   0  0  2  0  0  0  0  0  0  0  0  0
   20.3223  -10.1550  -16.3086 N   0  0  0  0  0  0  0  0  0  0  0  0
   20.5808   -7.8245  -16.5750 C   0  0  0  0  0  0  0  0  0  0  0  0
   20.9303   -7.8077  -17.8175 O   0  0  0  0  0  0  0  0  0  0  0  0
   17.6438   -7.1282  -18.2645 N   0  0  0  0  0  0  0  0  0  0  0  0
   17.2313   -5.9245  -17.6125 C   0  0  0  0  0  0  0  0  0  0  0  0
   15.9885   -5.6547  -17.6147 O   0  0  0  0  0  0  0  0  0  0  0  0
   18.2043   -5.0279  -16.9584 C   0  0  0  0  0  0  0  0  0  0  0  0
   19.6370   -5.5539  -17.1131 C   0  0  2  0  0  0  0  0  0  0  0  0
   19.8611   -6.6577  -16.1892 N   0  0  0  0  0  0  0  0  0  0  0  0
   20.5882   -4.4596  -16.8908 C   0  0  0  0  0  0  0  0  0  0  0  0
   21.5073   -4.4396  -15.8242 O   0  0  0  0  0  0  0  0  0  0  0  0
   20.6051   -3.4834  -17.6730 O   0  0  0  0  0  0  0  0  0  0  0  0
  2  1  1  6
  2  3  1  0
  4  2  1  0
  4  5  1  0
  5  7  1  0
  5  6  1  1
  7  8  2  0
 10  9  1  1
 10 12  1  0
 11 10  1  0
 13 12  1  6
 14 13  1  0
 14  7  1  0
 15 16  2  0
 15 13  1  0
 17 18  1  0
 18 19  2  0
 18 20  1  0
 21 20  1  1
 21 23  1  0
 21 22  1  0
 22 15  1  0
 23 24  1  0
 25 23  2  0
M  END
$$$$
