LLN.pdb
     RDKit          3D

 25 24  0  0  1  0  0  0  0  0999 V2000
   15.6741  -12.9426  -15.7364 C   0  0  0  0  0  0  0  0  0  0  0  0
   15.0852  -13.3297  -14.4008 C   0  0  2  0  0  0  0  0  0  0  0  0
   13.9993  -14.3615  -14.6391 C   0  0  0  0  0  0  0  0  0  0  0  0
   14.5601  -12.1244  -13.6709 C   0  0  0  0  0  0  0  0  0  0  0  0
   15.7368  -11.1712  -13.4720 C   0  0  2  0  0  0  0  0  0  0  0  0
   16.6707  -11.7714  -12.5782 N   0  0  0  0  0  0  0  0  0  0  0  0
   15.2434   -9.8353  -13.0089 C   0  0  0  0  0  0  0  0  0  0  0  0
   14.3227   -9.3150  -13.6869 O   0  0  0  0  0  0  0  0  0  0  0  0
   15.4219   -7.0295   -7.6534 C   0  0  0  0  0  0  0  0  0  0  0  0
   15.1260   -6.7502   -9.1373 C   0  0  2  0  0  0  0  0  0  0  0  0
   13.7587   -6.1937   -9.2370 C   0  0  0  0  0  0  0  0  0  0  0  0
   15.3976   -7.9648   -9.9204 C   0  0  0  0  0  0  0  0  0  0  0  0
   15.3979   -7.9039  -11.3905 C   0  0  2  0  0  0  0  0  0  0  0  0
   15.8178   -9.2371  -11.8647 N   0  0  0  0  0  0  0  0  0  0  0  0
   16.3210   -6.9371  -12.0251 C   0  0  0  0  0  0  0  0  0  0  0  0
   17.6029   -7.0799  -11.9766 O   0  0  0  0  0  0  0  0  0  0  0  0
   17.6933   -3.4457  -16.6221 N   0  0  0  0  0  0  0  0  0  0  0  0
   17.9997   -4.1078  -15.3925 C   0  0  0  0  0  0  0  0  0  0  0  0
   19.1033   -3.8172  -14.8311 O   0  0  0  0  0  0  0  0  0  0  0  0
   17.0746   -5.0885  -14.7918 C   0  0  0  0  0  0  0  0  0  0  0  0
   16.8973   -4.8378  -13.2887 C   0  0  2  0  0  0  0  0  0  0  0  0
   15.9230   -5.7732  -12.7428 N   0  0  0  0  0  0  0  0  0  0  0  0
   16.4939   -3.4449  -13.0678 C   0  0  0  0  0  0  0  0  0  0  0  0
   17.4111   -2.3809  -12.9715 O   0  0  0  0  0  0  0  0  0  0  0  0
   15.2807   -3.1604  -12.9558 O   0  0  0  0  0  0  0  0  0  0  0  0
  2  1  1  6
  2  3  1  0
  4  2  1  0
  4  5  1  0
  5  7  1  0
  5  6  1  1
  7  8  2  0
 10  9  1  1
 10 12  1  0
 11 10  1  0
 13 12  1  1
 14 13  1  0
 14  7  1  0
 15 16  2  0
 15 13  1  0
 17 18  1  0
 18 19  2  0
 18 20  1  0
 21 20  1  6
 21 23  1  0
 21 22  1  0
 22 15  1  0
 23 24  1  0
 25 23  2  0
M  END
$$$$
