LLN.pdb
     RDKit          3D

 25 24  0  0  1  0  0  0  0  0999 V2000
   27.1679  -18.0018  -18.1338 C   0  0  0  0  0  0  0  0  0  0  0  0
   28.1256  -18.3072  -17.0068 C   0  0  2  0  0  0  0  0  0  0  0  0
   29.4752  -18.6515  -17.6073 C   0  0  0  0  0  0  0  0  0  0  0  0
   27.6018  -19.4164  -16.1369 C   0  0  0  0  0  0  0  0  0  0  0  0
   26.2025  -19.0077  -15.6810 C   0  0  2  0  0  0  0  0  0  0  0  0
   26.2911  -17.7781  -14.9660 N   0  0  0  0  0  0  0  0  0  0  0  0
   25.5768  -20.1137  -14.8886 C   0  0  0  0  0  0  0  0  0  0  0  0
   25.6043  -21.2570  -15.4083 O   0  0  0  0  0  0  0  0  0  0  0  0
   26.6114  -21.8645  -11.0767 C   0  0  0  0  0  0  0  0  0  0  0  0
   25.9610  -20.4863  -10.8647 C   0  0  2  0  0  0  0  0  0  0  0  0
   26.0991  -20.1271   -9.4361 C   0  0  0  0  0  0  0  0  0  0  0  0
   24.5936  -20.5099  -11.4050 C   0  0  0  0  0  0  0  0  0  0  0  0
   24.3675  -20.8828  -12.8103 C   0  0  2  0  0  0  0  0  0  0  0  0
   25.0004  -19.8308  -13.6297 N   0  0  0  0  0  0  0  0  0  0  0  0
   22.9629  -20.9654  -13.2684 C   0  0  0  0  0  0  0  0  0  0  0  0
   22.2175  -19.9183  -13.3863 O   0  0  0  0  0  0  0  0  0  0  0  0
   18.9856  -23.3012  -16.8251 N   0  0  0  0  0  0  0  0  0  0  0  0
   19.2733  -23.4892  -15.4373 C   0  0  0  0  0  0  0  0  0  0  0  0
   18.2889  -23.6939  -14.6585 O   0  0  0  0  0  0  0  0  0  0  0  0
   20.6563  -23.4515  -14.9231 C   0  0  0  0  0  0  0  0  0  0  0  0
   20.9269  -22.1549  -14.1494 C   0  0  2  0  0  0  0  0  0  0  0  0
   22.2857  -22.1667  -13.6242 N   0  0  0  0  0  0  0  0  0  0  0  0
   19.9341  -22.0052  -13.0800 C   0  0  0  0  0  0  0  0  0  0  0  0
   18.7305  -21.2917  -13.2376 O   0  0  0  0  0  0  0  0  0  0  0  0
   20.1421  -22.5275  -11.9624 O   0  0  0  0  0  0  0  0  0  0  0  0
  2  1  1  6
  2  3  1  0
  4  2  1  0
  4  5  1  0
  5  7  1  0
  5  6  1  1
  7  8  2  0
 10  9  1  1
 10 12  1  0
 11 10  1  0
 13 12  1  1
 14 13  1  0
 14  7  1  0
 15 16  2  0
 15 13  1  0
 17 18  1  0
 18 19  2  0
 18 20  1  0
 21 20  1  1
 21 23  1  0
 21 22  1  0
 22 15  1  0
 23 24  1  0
 25 23  2  0
M  END
$$$$
