LLN.pdb
     RDKit          3D

 25 24  0  0  1  0  0  0  0  0999 V2000
   27.1217  -12.3067  -14.9793 C   0  0  0  0  0  0  0  0  0  0  0  0
   27.0409  -11.9023  -16.4321 C   0  0  2  0  0  0  0  0  0  0  0  0
   28.3240  -11.1816  -16.7991 C   0  0  0  0  0  0  0  0  0  0  0  0
   25.8284  -11.0511  -16.6904 C   0  0  0  0  0  0  0  0  0  0  0  0
   24.6039  -11.8960  -16.3450 C   0  0  2  0  0  0  0  0  0  0  0  0
   24.6285  -13.0860  -17.1289 N   0  0  0  0  0  0  0  0  0  0  0  0
   23.3552  -11.0894  -16.5261 C   0  0  0  0  0  0  0  0  0  0  0  0
   23.1480  -10.6332  -17.6781 O   0  0  0  0  0  0  0  0  0  0  0  0
   18.9956  -11.5326  -17.0121 C   0  0  0  0  0  0  0  0  0  0  0  0
   19.6063  -12.0594  -15.7018 C   0  0  2  0  0  0  0  0  0  0  0  0
   18.5773  -12.8620  -15.0045 C   0  0  0  0  0  0  0  0  0  0  0  0
   20.1796  -10.9333  -14.9498 C   0  0  0  0  0  0  0  0  0  0  0  0
   21.2397  -10.1120  -15.5552 C   0  0  2  0  0  0  0  0  0  0  0  0
   22.4917  -10.8831  -15.4267 N   0  0  0  0  0  0  0  0  0  0  0  0
   21.5080   -8.7946  -14.9371 C   0  0  0  0  0  0  0  0  0  0  0  0
   22.0754   -8.6815  -13.7833 O   0  0  0  0  0  0  0  0  0  0  0  0
   23.4300   -3.1055  -15.6571 N   0  0  0  0  0  0  0  0  0  0  0  0
   22.7487   -4.1622  -14.9763 C   0  0  0  0  0  0  0  0  0  0  0  0
   22.3933   -3.9495  -13.7739 O   0  0  0  0  0  0  0  0  0  0  0  0
   22.4635   -5.4501  -15.6384 C   0  0  0  0  0  0  0  0  0  0  0  0
   21.4578   -6.2802  -14.8305 C   0  0  2  0  0  0  0  0  0  0  0  0
   21.1862   -7.5351  -15.5188 N   0  0  0  0  0  0  0  0  0  0  0  0
   20.2329   -5.5005  -14.6221 C   0  0  0  0  0  0  0  0  0  0  0  0
   19.9993   -4.7213  -13.4727 O   0  0  0  0  0  0  0  0  0  0  0  0
   19.3351   -5.5105  -15.4932 O   0  0  0  0  0  0  0  0  0  0  0  0
  2  1  1  1
  2  3  1  0
  4  2  1  0
  4  5  1  0
  5  7  1  0
  5  6  1  6
  7  8  2  0
 10  9  1  6
 10 12  1  0
 11 10  1  0
 13 12  1  1
 14 13  1  0
 14  7  1  0
 15 16  2  0
 15 13  1  0
 17 18  1  0
 18 19  2  0
 18 20  1  0
 21 20  1  6
 21 23  1  0
 21 22  1  0
 22 15  1  0
 23 24  1  0
 25 23  2  0
M  END
$$$$
