LLN.pdb
     RDKit          3D

 25 24  0  0  1  0  0  0  0  0999 V2000
   14.6852  -19.7076    3.6986 C   0  0  0  0  0  0  0  0  0  0  0  0
   15.6581  -19.5796    2.5508 C   0  0  2  0  0  0  0  0  0  0  0  0
   15.8923  -20.9600    1.9674 C   0  0  0  0  0  0  0  0  0  0  0  0
   16.9419  -18.9372    2.9985 C   0  0  0  0  0  0  0  0  0  0  0  0
   16.6012  -17.5183    3.4498 C   0  0  2  0  0  0  0  0  0  0  0  0
   16.1350  -16.7763    2.3259 N   0  0  0  0  0  0  0  0  0  0  0  0
   17.7842  -16.8960    4.1251 C   0  0  0  0  0  0  0  0  0  0  0  0
   18.8688  -16.9282    3.4921 O   0  0  0  0  0  0  0  0  0  0  0  0
   19.8069  -13.0552    4.9597 C   0  0  0  0  0  0  0  0  0  0  0  0
   18.3513  -13.2324    5.4261 C   0  0  2  0  0  0  0  0  0  0  0  0
   17.8350  -11.9079    5.8362 C   0  0  0  0  0  0  0  0  0  0  0  0
   18.2949  -14.2992    6.4365 C   0  0  0  0  0  0  0  0  0  0  0  0
   18.7555  -15.6548    6.0972 C   0  0  2  0  0  0  0  0  0  0  0  0
   17.6327  -16.3177    5.4056 N   0  0  0  0  0  0  0  0  0  0  0  0
   19.1223  -16.5436    7.2220 C   0  0  0  0  0  0  0  0  0  0  0  0
   18.2330  -17.0999    7.9742 O   0  0  0  0  0  0  0  0  0  0  0  0
   20.1029  -21.1626    9.6569 N   0  0  0  0  0  0  0  0  0  0  0  0
   19.7467  -20.1011    8.7676 C   0  0  0  0  0  0  0  0  0  0  0  0
   18.5082  -19.9128    8.5483 O   0  0  0  0  0  0  0  0  0  0  0  0
   20.7711  -19.2521    8.1287 C   0  0  0  0  0  0  0  0  0  0  0  0
   20.7293  -17.8207    8.6788 C   0  0  2  0  0  0  0  0  0  0  0  0
   20.4531  -16.8834    7.5984 N   0  0  0  0  0  0  0  0  0  0  0  0
   21.9976  -17.5155    9.3497 C   0  0  0  0  0  0  0  0  0  0  0  0
   22.2029  -17.6930   10.7314 O   0  0  0  0  0  0  0  0  0  0  0  0
   22.9611  -17.0745    8.6847 O   0  0  0  0  0  0  0  0  0  0  0  0
  2  1  1  1
  2  3  1  0
  4  2  1  0
  4  5  1  0
  5  7  1  0
  5  6  1  6
  7  8  2  0
 10  9  1  1
 10 12  1  0
 11 10  1  0
 13 12  1  1
 14 13  1  0
 14  7  1  0
 15 16  2  0
 15 13  1  0
 17 18  1  0
 18 19  2  0
 18 20  1  0
 21 20  1  6
 21 23  1  0
 21 22  1  0
 22 15  1  0
 23 24  1  0
 25 23  2  0
M  END
$$$$
