LLN.pdb
     RDKit          3D

 25 24  0  0  1  0  0  0  0  0999 V2000
   24.4213  -21.0986   -8.9455 C   0  0  0  0  0  0  0  0  0  0  0  0
   25.8038  -20.9328   -9.5299 C   0  0  2  0  0  0  0  0  0  0  0  0
   26.7195  -20.3982   -8.4453 C   0  0  0  0  0  0  0  0  0  0  0  0
   25.7782  -20.0318  -10.7336 C   0  0  0  0  0  0  0  0  0  0  0  0
   24.9445  -20.7342  -11.8034 C   0  0  2  0  0  0  0  0  0  0  0  0
   25.5679  -21.9723  -12.1347 N   0  0  0  0  0  0  0  0  0  0  0  0
   24.7530  -19.8298  -12.9816 C   0  0  0  0  0  0  0  0  0  0  0  0
   24.2180  -18.7172  -12.7496 O   0  0  0  0  0  0  0  0  0  0  0  0
   28.4562  -18.7750  -16.9764 C   0  0  0  0  0  0  0  0  0  0  0  0
   27.1662  -18.3618  -16.2466 C   0  0  2  0  0  0  0  0  0  0  0  0
   27.5421  -17.7988  -14.9309 C   0  0  0  0  0  0  0  0  0  0  0  0
   26.2353  -19.4999  -16.2303 C   0  0  0  0  0  0  0  0  0  0  0  0
   24.9844  -19.4123  -15.4606 C   0  0  2  0  0  0  0  0  0  0  0  0
   25.1697  -20.2552  -14.2632 N   0  0  0  0  0  0  0  0  0  0  0  0
   23.7527  -19.9035  -16.1173 C   0  0  0  0  0  0  0  0  0  0  0  0
   23.4244  -19.5465  -17.3134 O   0  0  0  0  0  0  0  0  0  0  0  0
   21.0374  -22.3295  -18.7063 N   0  0  0  0  0  0  0  0  0  0  0  0
   21.1427  -23.2142  -17.5882 C   0  0  0  0  0  0  0  0  0  0  0  0
   20.9527  -24.4533  -17.8031 O   0  0  0  0  0  0  0  0  0  0  0  0
   21.4621  -22.7159  -16.2362 C   0  0  0  0  0  0  0  0  0  0  0  0
   21.5901  -21.1873  -16.2225 C   0  0  2  0  0  0  0  0  0  0  0  0
   22.8129  -20.7995  -15.5322 N   0  0  0  0  0  0  0  0  0  0  0  0
   20.4026  -20.6010  -15.5917 C   0  0  0  0  0  0  0  0  0  0  0  0
   19.2717  -20.1788  -16.3166 O   0  0  0  0  0  0  0  0  0  0  0  0
   20.3666  -20.4577  -14.3494 O   0  0  0  0  0  0  0  0  0  0  0  0
  2  1  1  1
  2  3  1  0
  4  2  1  0
  4  5  1  0
  5  7  1  0
  5  6  1  6
  7  8  2  0
 10  9  1  1
 10 12  1  0
 11 10  1  0
 13 12  1  6
 14 13  1  0
 14  7  1  0
 15 16  2  0
 15 13  1  0
 17 18  1  0
 18 19  2  0
 18 20  1  0
 21 20  1  1
 21 23  1  0
 21 22  1  0
 22 15  1  0
 23 24  1  0
 25 23  2  0
M  END
$$$$
