LLN.pdb
     RDKit          3D

 25 24  0  0  1  0  0  0  0  0999 V2000
   27.3916  -18.3592  -17.9647 C   0  0  0  0  0  0  0  0  0  0  0  0
   28.1219  -17.9620  -16.7040 C   0  0  2  0  0  0  0  0  0  0  0  0
   29.5561  -17.6288  -17.0681 C   0  0  0  0  0  0  0  0  0  0  0  0
   28.0467  -19.0503  -15.6690 C   0  0  0  0  0  0  0  0  0  0  0  0
   26.5664  -19.3129  -15.3995 C   0  0  2  0  0  0  0  0  0  0  0  0
   25.9018  -18.0651  -15.2196 N   0  0  0  0  0  0  0  0  0  0  0  0
   26.4131  -20.2425  -14.2354 C   0  0  0  0  0  0  0  0  0  0  0  0
   26.9733  -21.3621  -14.3380 O   0  0  0  0  0  0  0  0  0  0  0  0
   26.0463  -19.6073   -8.3958 C   0  0  0  0  0  0  0  0  0  0  0  0
   25.8228  -20.6968   -9.4591 C   0  0  2  0  0  0  0  0  0  0  0  0
   26.6553  -21.8665   -9.1013 C   0  0  0  0  0  0  0  0  0  0  0  0
   26.0420  -20.1204  -10.7939 C   0  0  0  0  0  0  0  0  0  0  0  0
   25.4126  -20.7388  -11.9713 C   0  0  2  0  0  0  0  0  0  0  0  0
   25.6675  -19.8316  -13.1074 N   0  0  0  0  0  0  0  0  0  0  0  0
   23.9464  -20.9340  -11.9277 C   0  0  0  0  0  0  0  0  0  0  0  0
   23.1953  -20.3019  -11.0897 O   0  0  0  0  0  0  0  0  0  0  0  0
   20.4152  -19.5967  -15.9801 N   0  0  0  0  0  0  0  0  0  0  0  0
   20.7128  -19.6663  -14.5834 C   0  0  0  0  0  0  0  0  0  0  0  0
   19.7953  -19.3231  -13.7723 O   0  0  0  0  0  0  0  0  0  0  0  0
   22.0297  -20.1206  -14.0959 C   0  0  0  0  0  0  0  0  0  0  0  0
   21.9114  -21.4390  -13.3205 C   0  0  2  0  0  0  0  0  0  0  0  0
   23.2102  -21.8104  -12.7752 N   0  0  0  0  0  0  0  0  0  0  0  0
   21.3762  -22.4812  -14.2031 C   0  0  0  0  0  0  0  0  0  0  0  0
   20.0114  -22.8233  -14.2556 O   0  0  0  0  0  0  0  0  0  0  0  0
   22.1492  -23.1129  -14.9573 O   0  0  0  0  0  0  0  0  0  0  0  0
  2  1  1  6
  2  3  1  0
  4  2  1  0
  4  5  1  0
  5  7  1  0
  5  6  1  1
  7  8  2  0
 10  9  1  1
 10 12  1  0
 11 10  1  0
 13 12  1  1
 14 13  1  0
 14  7  1  0
 15 16  2  0
 15 13  1  0
 17 18  1  0
 18 19  2  0
 18 20  1  0
 21 20  1  6
 21 23  1  0
 21 22  1  0
 22 15  1  0
 23 24  1  0
 25 23  2  0
M  END
$$$$
