LLN.pdb
     RDKit          3D

 25 24  0  0  1  0  0  0  0  0999 V2000
   27.1179  -17.8835  -17.3504 C   0  0  0  0  0  0  0  0  0  0  0  0
   27.8963  -17.5726  -16.0942 C   0  0  2  0  0  0  0  0  0  0  0  0
   29.2724  -17.0770  -16.4958 C   0  0  0  0  0  0  0  0  0  0  0  0
   27.9761  -18.7755  -15.1953 C   0  0  0  0  0  0  0  0  0  0  0  0
   26.5446  -19.1480  -14.8145 C   0  0  2  0  0  0  0  0  0  0  0  0
   25.8105  -17.9541  -14.5559 N   0  0  0  0  0  0  0  0  0  0  0  0
   26.5517  -20.1042  -13.6620 C   0  0  0  0  0  0  0  0  0  0  0  0
   27.1403  -21.1982  -13.8484 O   0  0  0  0  0  0  0  0  0  0  0  0
   25.8121  -19.6396   -7.7198 C   0  0  0  0  0  0  0  0  0  0  0  0
   26.2491  -20.6269   -8.8161 C   0  0  2  0  0  0  0  0  0  0  0  0
   27.5445  -21.2177   -8.4135 C   0  0  0  0  0  0  0  0  0  0  0  0
   26.2161  -19.9465  -10.1192 C   0  0  0  0  0  0  0  0  0  0  0  0
   25.8042  -20.6870  -11.3221 C   0  0  2  0  0  0  0  0  0  0  0  0
   25.9153  -19.7445  -12.4526 N   0  0  0  0  0  0  0  0  0  0  0  0
   24.4170  -21.2008  -11.3556 C   0  0  0  0  0  0  0  0  0  0  0  0
   24.0103  -22.1292  -10.5565 O   0  0  0  0  0  0  0  0  0  0  0  0
   19.3364  -22.0409  -10.5419 N   0  0  0  0  0  0  0  0  0  0  0  0
   19.7342  -21.0064  -11.4452 C   0  0  0  0  0  0  0  0  0  0  0  0
   18.8593  -20.5739  -12.2607 O   0  0  0  0  0  0  0  0  0  0  0  0
   21.1036  -20.4560  -11.4346 C   0  0  0  0  0  0  0  0  0  0  0  0
   22.0646  -21.3394  -12.2405 C   0  0  2  0  0  0  0  0  0  0  0  0
   23.3965  -20.7494  -12.2406 N   0  0  0  0  0  0  0  0  0  0  0  0
   21.5480  -21.5110  -13.6026 C   0  0  0  0  0  0  0  0  0  0  0  0
   20.6120  -22.5023  -13.9547 O   0  0  0  0  0  0  0  0  0  0  0  0
   21.9419  -20.7523  -14.5160 O   0  0  0  0  0  0  0  0  0  0  0  0
  2  1  1  6
  2  3  1  0
  4  2  1  0
  4  5  1  0
  5  7  1  0
  5  6  1  1
  7  8  2  0
 10  9  1  1
 10 12  1  0
 11 10  1  0
 13 12  1  1
 14 13  1  0
 14  7  1  0
 15 16  2  0
 15 13  1  0
 17 18  1  0
 18 19  2  0
 18 20  1  0
 21 20  1  1
 21 23  1  0
 21 22  1  0
 22 15  1  0
 23 24  1  0
 25 23  2  0
M  END
$$$$
