LLN.pdb
     RDKit          3D

 25 24  0  0  1  0  0  0  0  0999 V2000
   19.2820  -14.5793  -18.9120 C   0  0  0  0  0  0  0  0  0  0  0  0
   20.3423  -14.9548  -17.9044 C   0  0  2  0  0  0  0  0  0  0  0  0
   19.8725  -16.1863  -17.1537 C   0  0  0  0  0  0  0  0  0  0  0  0
   20.6339  -13.8104  -16.9734 C   0  0  0  0  0  0  0  0  0  0  0  0
   21.0851  -12.6332  -17.8356 C   0  0  2  0  0  0  0  0  0  0  0  0
   22.2329  -13.0235  -18.5850 N   0  0  0  0  0  0  0  0  0  0  0  0
   21.3155  -11.4270  -16.9784 C   0  0  0  0  0  0  0  0  0  0  0  0
   20.3832  -11.1109  -16.1981 O   0  0  0  0  0  0  0  0  0  0  0  0
   24.3441  -10.5252  -13.8675 C   0  0  0  0  0  0  0  0  0  0  0  0
   24.9475  -10.5047  -15.2828 C   0  0  2  0  0  0  0  0  0  0  0  0
   26.4164  -10.3822  -15.1550 C   0  0  0  0  0  0  0  0  0  0  0  0
   24.2709   -9.4715  -16.0808 C   0  0  0  0  0  0  0  0  0  0  0  0
   22.8116   -9.5241  -16.2616 C   0  0  2  0  0  0  0  0  0  0  0  0
   22.5342  -10.7192  -17.0822 N   0  0  0  0  0  0  0  0  0  0  0  0
   22.1784   -8.3891  -16.9690 C   0  0  0  0  0  0  0  0  0  0  0  0
   22.4325   -8.1249  -18.2066 O   0  0  0  0  0  0  0  0  0  0  0  0
   20.3688   -7.7333  -19.5136 N   0  0  0  0  0  0  0  0  0  0  0  0
   19.1955   -7.2885  -18.8283 C   0  0  0  0  0  0  0  0  0  0  0  0
   18.0725   -7.5312  -19.3737 O   0  0  0  0  0  0  0  0  0  0  0  0
   19.2776   -6.5780  -17.5373 C   0  0  0  0  0  0  0  0  0  0  0  0
   20.7358   -6.3325  -17.1291 C   0  0  2  0  0  0  0  0  0  0  0  0
   21.2435   -7.4824  -16.3926 N   0  0  0  0  0  0  0  0  0  0  0  0
   20.8232   -5.1007  -16.3376 C   0  0  0  0  0  0  0  0  0  0  0  0
   21.1724   -5.0818  -14.9736 O   0  0  0  0  0  0  0  0  0  0  0  0
   20.5806   -3.9980  -16.8767 O   0  0  0  0  0  0  0  0  0  0  0  0
  2  1  1  6
  2  3  1  0
  4  2  1  0
  4  5  1  0
  5  7  1  0
  5  6  1  1
  7  8  2  0
 10  9  1  1
 10 12  1  0
 11 10  1  0
 13 12  1  6
 14 13  1  0
 14  7  1  0
 15 16  2  0
 15 13  1  0
 17 18  1  0
 18 19  2  0
 18 20  1  0
 21 20  1  1
 21 23  1  0
 21 22  1  0
 22 15  1  0
 23 24  1  0
 25 23  2  0
M  END
$$$$
