LLN.pdb
     RDKit          3D

 25 24  0  0  1  0  0  0  0  0999 V2000
   23.0604  -26.2070  -19.1824 C   0  0  0  0  0  0  0  0  0  0  0  0
   24.3346  -25.9872  -18.4021 C   0  0  2  0  0  0  0  0  0  0  0  0
   25.2245  -27.2010  -18.5896 C   0  0  0  0  0  0  0  0  0  0  0  0
   24.0421  -25.7279  -16.9500 C   0  0  0  0  0  0  0  0  0  0  0  0
   25.2209  -24.9354  -16.3885 C   0  0  2  0  0  0  0  0  0  0  0  0
   26.2670  -25.8422  -16.0499 N   0  0  0  0  0  0  0  0  0  0  0  0
   24.7701  -24.0898  -15.2377 C   0  0  0  0  0  0  0  0  0  0  0  0
   24.0723  -24.6626  -14.3642 O   0  0  0  0  0  0  0  0  0  0  0  0
   27.2195  -21.8172  -12.2801 C   0  0  0  0  0  0  0  0  0  0  0  0
   27.1706  -21.1389  -13.6603 C   0  0  2  0  0  0  0  0  0  0  0  0
   28.1384  -20.0197  -13.6575 C   0  0  0  0  0  0  0  0  0  0  0  0
   25.7766  -20.7987  -13.9817 C   0  0  0  0  0  0  0  0  0  0  0  0
   24.7609  -21.8609  -14.0522 C   0  0  2  0  0  0  0  0  0  0  0  0
   25.1381  -22.7264  -15.1868 N   0  0  0  0  0  0  0  0  0  0  0  0
   23.3644  -21.4427  -14.3063 C   0  0  0  0  0  0  0  0  0  0  0  0
   23.0122  -20.8593  -15.4025 O   0  0  0  0  0  0  0  0  0  0  0  0
   17.5124  -22.4258  -13.4768 N   0  0  0  0  0  0  0  0  0  0  0  0
   18.5342  -21.4946  -13.1120 C   0  0  0  0  0  0  0  0  0  0  0  0
   18.2064  -20.2683  -13.0324 O   0  0  0  0  0  0  0  0  0  0  0  0
   19.9158  -21.9333  -12.8345 C   0  0  0  0  0  0  0  0  0  0  0  0
   20.9204  -21.2186  -13.7473 C   0  0  2  0  0  0  0  0  0  0  0  0
   22.2764  -21.6272  -13.4060 N   0  0  0  0  0  0  0  0  0  0  0  0
   20.7457  -19.7671  -13.6279 C   0  0  0  0  0  0  0  0  0  0  0  0
   19.9494  -19.0098  -14.5083 O   0  0  0  0  0  0  0  0  0  0  0  0
   21.3215  -19.1463  -12.7069 O   0  0  0  0  0  0  0  0  0  0  0  0
  2  1  1  6
  2  3  1  0
  4  2  1  0
  4  5  1  0
  5  7  1  0
  5  6  1  1
  7  8  2  0
 10  9  1  1
 10 12  1  0
 11 10  1  0
 13 12  1  6
 14 13  1  0
 14  7  1  0
 15 16  2  0
 15 13  1  0
 17 18  1  0
 18 19  2  0
 18 20  1  0
 21 20  1  1
 21 23  1  0
 21 22  1  0
 22 15  1  0
 23 24  1  0
 25 23  2  0
M  END
$$$$
