LLN.pdb
     RDKit          3D

 25 24  0  0  1  0  0  0  0  0999 V2000
   16.4138  -12.5968  -15.7850 C   0  0  0  0  0  0  0  0  0  0  0  0
   17.5628  -13.5701  -15.6714 C   0  0  2  0  0  0  0  0  0  0  0  0
   17.0432  -14.8513  -15.0476 C   0  0  0  0  0  0  0  0  0  0  0  0
   18.6949  -12.9807  -14.8762 C   0  0  0  0  0  0  0  0  0  0  0  0
   19.1904  -11.7545  -15.6402 C   0  0  2  0  0  0  0  0  0  0  0  0
   19.5274  -12.1441  -16.9691 N   0  0  0  0  0  0  0  0  0  0  0  0
   20.3245  -11.1128  -14.9021 C   0  0  0  0  0  0  0  0  0  0  0  0
   20.0841  -10.7367  -13.7279 O   0  0  0  0  0  0  0  0  0  0  0  0
   25.5043   -9.1703  -15.4294 C   0  0  0  0  0  0  0  0  0  0  0  0
   25.2490  -10.5744  -14.8542 C   0  0  2  0  0  0  0  0  0  0  0  0
   26.3989  -11.4342  -15.2117 C   0  0  0  0  0  0  0  0  0  0  0  0
   23.9233  -11.0397  -15.2879 C   0  0  0  0  0  0  0  0  0  0  0  0
   22.7171  -10.3081  -14.8697 C   0  0  2  0  0  0  0  0  0  0  0  0
   21.5767  -10.9631  -15.5398 N   0  0  0  0  0  0  0  0  0  0  0  0
   22.6362   -8.8765  -15.2353 C   0  0  0  0  0  0  0  0  0  0  0  0
   23.2672   -7.9638  -14.5759 O   0  0  0  0  0  0  0  0  0  0  0  0
   22.0976   -4.2916  -17.5337 N   0  0  0  0  0  0  0  0  0  0  0  0
   22.3045   -5.3211  -18.5039 C   0  0  0  0  0  0  0  0  0  0  0  0
   22.5484   -4.9585  -19.6983 O   0  0  0  0  0  0  0  0  0  0  0  0
   22.2420   -6.7500  -18.1394 C   0  0  0  0  0  0  0  0  0  0  0  0
   21.9032   -6.9309  -16.6542 C   0  0  2  0  0  0  0  0  0  0  0  0
   21.8807   -8.3489  -16.3212 N   0  0  0  0  0  0  0  0  0  0  0  0
   20.6190   -6.2853  -16.3616 C   0  0  0  0  0  0  0  0  0  0  0  0
   19.5162   -6.9705  -15.8166 O   0  0  0  0  0  0  0  0  0  0  0  0
   20.4691   -5.0660  -16.5984 O   0  0  0  0  0  0  0  0  0  0  0  0
  2  1  1  1
  2  3  1  0
  4  2  1  0
  4  5  1  0
  5  7  1  0
  5  6  1  6
  7  8  2  0
 10  9  1  6
 10 12  1  0
 11 10  1  0
 13 12  1  6
 14 13  1  0
 14  7  1  0
 15 16  2  0
 15 13  1  0
 17 18  1  0
 18 19  2  0
 18 20  1  0
 21 20  1  6
 21 23  1  0
 21 22  1  0
 22 15  1  0
 23 24  1  0
 25 23  2  0
M  END
$$$$
