LLN.pdb
     RDKit          3D

 25 24  0  0  1  0  0  0  0  0999 V2000
   26.3126  -17.9925  -18.6862 C   0  0  0  0  0  0  0  0  0  0  0  0
   27.3682  -18.7352  -17.9022 C   0  0  2  0  0  0  0  0  0  0  0  0
   28.3643  -19.3248  -18.8824 C   0  0  0  0  0  0  0  0  0  0  0  0
   26.7505  -19.7925  -17.0294 C   0  0  0  0  0  0  0  0  0  0  0  0
   25.7027  -19.1015  -16.1590 C   0  0  2  0  0  0  0  0  0  0  0  0
   26.3374  -18.0756  -15.4002 N   0  0  0  0  0  0  0  0  0  0  0  0
   24.9888  -20.1116  -15.3148 C   0  0  0  0  0  0  0  0  0  0  0  0
   24.7420  -21.2175  -15.8571 O   0  0  0  0  0  0  0  0  0  0  0  0
   25.9502  -22.2730  -11.6930 C   0  0  0  0  0  0  0  0  0  0  0  0
   25.6607  -20.8019  -11.3470 C   0  0  2  0  0  0  0  0  0  0  0  0
   25.9952  -20.5901   -9.9214 C   0  0  0  0  0  0  0  0  0  0  0  0
   24.2867  -20.4720  -11.7536 C   0  0  0  0  0  0  0  0  0  0  0  0
   23.8555  -20.7107  -13.1399 C   0  0  2  0  0  0  0  0  0  0  0  0
   24.6349  -19.7859  -13.9860 N   0  0  0  0  0  0  0  0  0  0  0  0
   22.4336  -20.4525  -13.4579 C   0  0  0  0  0  0  0  0  0  0  0  0
   21.8431  -19.3564  -13.1173 O   0  0  0  0  0  0  0  0  0  0  0  0
   18.8352  -20.3614  -17.9361 N   0  0  0  0  0  0  0  0  0  0  0  0
   19.2306  -20.2602  -16.5658 C   0  0  0  0  0  0  0  0  0  0  0  0
   19.0732  -19.1354  -15.9934 O   0  0  0  0  0  0  0  0  0  0  0  0
   19.7969  -21.4125  -15.8380 C   0  0  0  0  0  0  0  0  0  0  0  0
   20.1726  -21.0323  -14.4001 C   0  0  2  0  0  0  0  0  0  0  0  0
   21.5734  -21.3483  -14.1549 N   0  0  0  0  0  0  0  0  0  0  0  0
   19.2875  -21.7294  -13.4608 C   0  0  0  0  0  0  0  0  0  0  0  0
   19.6131  -22.9614  -12.8618 O   0  0  0  0  0  0  0  0  0  0  0  0
   18.1823  -21.2264  -13.1596 O   0  0  0  0  0  0  0  0  0  0  0  0
  2  1  1  6
  2  3  1  0
  4  2  1  0
  4  5  1  0
  5  7  1  0
  5  6  1  1
  7  8  2  0
 10  9  1  1
 10 12  1  0
 11 10  1  0
 13 12  1  1
 14 13  1  0
 14  7  1  0
 15 16  2  0
 15 13  1  0
 17 18  1  0
 18 19  2  0
 18 20  1  0
 21 20  1  6
 21 23  1  0
 21 22  1  0
 22 15  1  0
 23 24  1  0
 25 23  2  0
M  END
$$$$
