LLN.pdb
     RDKit          3D

 25 24  0  0  1  0  0  0  0  0999 V2000
   16.2189  -19.9311    2.5236 C   0  0  0  0  0  0  0  0  0  0  0  0
   16.5034  -18.6152    1.8395 C   0  0  2  0  0  0  0  0  0  0  0  0
   17.0475  -18.9055    0.4537 C   0  0  0  0  0  0  0  0  0  0  0  0
   17.4552  -17.7788    2.6494 C   0  0  0  0  0  0  0  0  0  0  0  0
   16.8141  -17.5676    4.0196 C   0  0  2  0  0  0  0  0  0  0  0  0
   15.5749  -16.8847    3.8487 N   0  0  0  0  0  0  0  0  0  0  0  0
   17.7669  -16.8541    4.9282 C   0  0  0  0  0  0  0  0  0  0  0  0
   18.8504  -17.4410    5.1724 O   0  0  0  0  0  0  0  0  0  0  0  0
   20.0326  -13.4073    4.1369 C   0  0  0  0  0  0  0  0  0  0  0  0
   18.5601  -13.0537    4.4091 C   0  0  2  0  0  0  0  0  0  0  0  0
   18.3444  -11.6446    4.0125 C   0  0  0  0  0  0  0  0  0  0  0  0
   18.2295  -13.4009    5.7992 C   0  0  0  0  0  0  0  0  0  0  0  0
   18.3626  -14.7926    6.2581 C   0  0  2  0  0  0  0  0  0  0  0  0
   17.4157  -15.5907    5.4550 N   0  0  0  0  0  0  0  0  0  0  0  0
   18.0308  -15.0706    7.6731 C   0  0  0  0  0  0  0  0  0  0  0  0
   18.6374  -14.4811    8.6481 O   0  0  0  0  0  0  0  0  0  0  0  0
   14.1874  -17.3970   11.6441 N   0  0  0  0  0  0  0  0  0  0  0  0
   15.0641  -16.3227   11.2957 C   0  0  0  0  0  0  0  0  0  0  0  0
   15.5971  -15.6705   12.2486 O   0  0  0  0  0  0  0  0  0  0  0  0
   15.3458  -15.9811    9.8878 C   0  0  0  0  0  0  0  0  0  0  0  0
   16.8132  -16.2525    9.5323 C   0  0  2  0  0  0  0  0  0  0  0  0
   17.0364  -15.9883    8.1172 N   0  0  0  0  0  0  0  0  0  0  0  0
   17.1566  -17.6340    9.8863 C   0  0  0  0  0  0  0  0  0  0  0  0
   17.5191  -18.6077    8.9360 O   0  0  0  0  0  0  0  0  0  0  0  0
   17.1343  -17.9914   11.0850 O   0  0  0  0  0  0  0  0  0  0  0  0
  2  1  1  1
  2  3  1  0
  4  2  1  0
  4  5  1  0
  5  7  1  0
  5  6  1  6
  7  8  2  0
 10  9  1  1
 10 12  1  0
 11 10  1  0
 13 12  1  6
 14 13  1  0
 14  7  1  0
 15 16  2  0
 15 13  1  0
 17 18  1  0
 18 19  2  0
 18 20  1  0
 21 20  1  6
 21 23  1  0
 21 22  1  0
 22 15  1  0
 23 24  1  0
 25 23  2  0
M  END
$$$$
