LLN.pdb
     RDKit          3D

 25 24  0  0  1  0  0  0  0  0999 V2000
   27.1473  -17.5376  -18.4189 C   0  0  0  0  0  0  0  0  0  0  0  0
   27.7996  -17.1116  -17.1252 C   0  0  2  0  0  0  0  0  0  0  0  0
   29.2564  -16.7965  -17.4065 C   0  0  0  0  0  0  0  0  0  0  0  0
   27.6512  -18.1719  -16.0693 C   0  0  0  0  0  0  0  0  0  0  0  0
   26.1820  -18.5894  -16.0547 C   0  0  2  0  0  0  0  0  0  0  0  0
   25.3891  -17.4727  -15.6605 N   0  0  0  0  0  0  0  0  0  0  0  0
   25.9976  -19.7897  -15.1784 C   0  0  0  0  0  0  0  0  0  0  0  0
   26.5136  -20.8609  -15.5837 O   0  0  0  0  0  0  0  0  0  0  0  0
   25.3979  -20.3842   -9.2807 C   0  0  0  0  0  0  0  0  0  0  0  0
   25.6350  -21.1012  -10.6213 C   0  0  2  0  0  0  0  0  0  0  0  0
   27.0787  -21.4061  -10.7309 C   0  0  0  0  0  0  0  0  0  0  0  0
   25.0504  -20.3001  -11.7069 C   0  0  0  0  0  0  0  0  0  0  0  0
   25.0439  -20.8236  -13.0820 C   0  0  2  0  0  0  0  0  0  0  0  0
   25.2732  -19.6680  -13.9711 N   0  0  0  0  0  0  0  0  0  0  0  0
   23.7946  -21.4597  -13.5556 C   0  0  0  0  0  0  0  0  0  0  0  0
   23.4368  -22.6385  -13.1704 O   0  0  0  0  0  0  0  0  0  0  0  0
   19.0306  -19.3370  -13.0436 N   0  0  0  0  0  0  0  0  0  0  0  0
   19.9933  -20.3405  -13.3758 C   0  0  0  0  0  0  0  0  0  0  0  0
   20.4328  -21.0658  -12.4280 O   0  0  0  0  0  0  0  0  0  0  0  0
   20.4602  -20.5340  -14.7625 C   0  0  0  0  0  0  0  0  0  0  0  0
   21.6217  -21.5344  -14.8239 C   0  0  2  0  0  0  0  0  0  0  0  0
   22.8662  -20.8702  -14.4605 N   0  0  0  0  0  0  0  0  0  0  0  0
   21.6930  -22.1218  -16.1661 C   0  0  0  0  0  0  0  0  0  0  0  0
   20.6792  -22.9346  -16.7085 O   0  0  0  0  0  0  0  0  0  0  0  0
   22.6932  -21.9058  -16.8858 O   0  0  0  0  0  0  0  0  0  0  0  0
  2  1  1  6
  2  3  1  0
  4  2  1  0
  4  5  1  0
  5  7  1  0
  5  6  1  1
  7  8  2  0
 10  9  1  1
 10 12  1  0
 11 10  1  0
 13 12  1  1
 14 13  1  0
 14  7  1  0
 15 16  2  0
 15 13  1  0
 17 18  1  0
 18 19  2  0
 18 20  1  0
 21 20  1  6
 21 23  1  0
 21 22  1  0
 22 15  1  0
 23 24  1  0
 25 23  2  0
M  END
$$$$
