LLN.pdb
     RDKit          3D

 25 24  0  0  1  0  0  0  0  0999 V2000
   18.0013  -14.0982  -18.2521 C   0  0  0  0  0  0  0  0  0  0  0  0
   19.4298  -14.5202  -18.0033 C   0  0  2  0  0  0  0  0  0  0  0  0
   19.4488  -16.0161  -17.7531 C   0  0  0  0  0  0  0  0  0  0  0  0
   20.0286  -13.7542  -16.8561 C   0  0  0  0  0  0  0  0  0  0  0  0
   19.9043  -12.2697  -17.1931 C   0  0  2  0  0  0  0  0  0  0  0  0
   20.5571  -12.0225  -18.4356 N   0  0  0  0  0  0  0  0  0  0  0  0
   20.4367  -11.4405  -16.0654 C   0  0  0  0  0  0  0  0  0  0  0  0
   19.8605  -11.5708  -14.9567 O   0  0  0  0  0  0  0  0  0  0  0  0
   23.9726  -11.8285  -13.8666 C   0  0  0  0  0  0  0  0  0  0  0  0
   24.2437  -11.2450  -15.2643 C   0  0  2  0  0  0  0  0  0  0  0  0
   25.7024  -11.2921  -15.5075 C   0  0  0  0  0  0  0  0  0  0  0  0
   23.6044   -9.9250  -15.3684 C   0  0  0  0  0  0  0  0  0  0  0  0
   22.1484   -9.8005  -15.1970 C   0  0  2  0  0  0  0  0  0  0  0  0
   21.5302  -10.5744  -16.2914 N   0  0  0  0  0  0  0  0  0  0  0  0
   21.5728   -8.4402  -15.2853 C   0  0  0  0  0  0  0  0  0  0  0  0
   21.8598   -7.5176  -14.4295 O   0  0  0  0  0  0  0  0  0  0  0  0
   21.1678   -5.6283  -19.9744 N   0  0  0  0  0  0  0  0  0  0  0  0
   21.1298   -5.7488  -18.5503 C   0  0  0  0  0  0  0  0  0  0  0  0
   22.1683   -5.3969  -17.9058 O   0  0  0  0  0  0  0  0  0  0  0  0
   19.9347   -6.2579  -17.8497 C   0  0  0  0  0  0  0  0  0  0  0  0
   20.2513   -6.6041  -16.3891 C   0  0  2  0  0  0  0  0  0  0  0  0
   20.6655   -7.9972  -16.2897 N   0  0  0  0  0  0  0  0  0  0  0  0
   19.0781   -6.3267  -15.5536 C   0  0  0  0  0  0  0  0  0  0  0  0
   18.8480   -5.0839  -14.9330 O   0  0  0  0  0  0  0  0  0  0  0  0
   18.2237   -7.2213  -15.3667 O   0  0  0  0  0  0  0  0  0  0  0  0
  2  1  1  1
  2  3  1  0
  4  2  1  0
  4  5  1  0
  5  7  1  0
  5  6  1  6
  7  8  2  0
 10  9  1  1
 10 12  1  0
 11 10  1  0
 13 12  1  6
 14 13  1  0
 14  7  1  0
 15 16  2  0
 15 13  1  0
 17 18  1  0
 18 19  2  0
 18 20  1  0
 21 20  1  6
 21 23  1  0
 21 22  1  0
 22 15  1  0
 23 24  1  0
 25 23  2  0
M  END
$$$$
