LLN.pdb
     RDKit          3D

 25 24  0  0  1  0  0  0  0  0999 V2000
   27.1241  -18.4263  -16.8527 C   0  0  0  0  0  0  0  0  0  0  0  0
   27.9970  -18.0055  -15.6944 C   0  0  2  0  0  0  0  0  0  0  0  0
   29.4067  -17.7924  -16.2119 C   0  0  0  0  0  0  0  0  0  0  0  0
   27.9559  -19.0231  -14.5880 C   0  0  0  0  0  0  0  0  0  0  0  0
   26.4856  -19.2572  -14.2469 C   0  0  2  0  0  0  0  0  0  0  0  0
   25.9112  -18.0271  -13.8133 N   0  0  0  0  0  0  0  0  0  0  0  0
   26.3607  -20.3599  -13.2413 C   0  0  0  0  0  0  0  0  0  0  0  0
   26.7726  -21.4912  -13.5999 O   0  0  0  0  0  0  0  0  0  0  0  0
   28.0515  -21.1267   -9.4303 C   0  0  0  0  0  0  0  0  0  0  0  0
   26.9448  -20.0590   -9.3788 C   0  0  2  0  0  0  0  0  0  0  0  0
   27.0389  -19.3611   -8.0776 C   0  0  0  0  0  0  0  0  0  0  0  0
   25.6531  -20.6873   -9.6933 C   0  0  0  0  0  0  0  0  0  0  0  0
   25.3853  -21.1685  -11.0577 C   0  0  2  0  0  0  0  0  0  0  0  0
   25.8018  -20.0874  -11.9723 N   0  0  0  0  0  0  0  0  0  0  0  0
   23.9786  -21.4727  -11.4015 C   0  0  0  0  0  0  0  0  0  0  0  0
   23.0545  -21.5488  -10.5036 O   0  0  0  0  0  0  0  0  0  0  0  0
   19.3609  -21.6014  -13.6820 N   0  0  0  0  0  0  0  0  0  0  0  0
   19.9534  -20.4780  -13.0255 C   0  0  0  0  0  0  0  0  0  0  0  0
   19.1914  -19.5022  -12.7342 O   0  0  0  0  0  0  0  0  0  0  0  0
   21.3911  -20.4471  -12.6933 C   0  0  0  0  0  0  0  0  0  0  0  0
   22.0625  -21.7914  -13.0024 C   0  0  2  0  0  0  0  0  0  0  0  0
   23.4888  -21.7090  -12.7178 N   0  0  0  0  0  0  0  0  0  0  0  0
   21.8092  -22.1566  -14.4003 C   0  0  0  0  0  0  0  0  0  0  0  0
   22.8276  -22.2688  -15.3662 O   0  0  0  0  0  0  0  0  0  0  0  0
   20.6392  -22.3851  -14.7799 O   0  0  0  0  0  0  0  0  0  0  0  0
  2  1  1  6
  2  3  1  0
  4  2  1  0
  4  5  1  0
  5  7  1  0
  5  6  1  1
  7  8  2  0
 10  9  1  1
 10 12  1  0
 11 10  1  0
 13 12  1  1
 14 13  1  0
 14  7  1  0
 15 16  2  0
 15 13  1  0
 17 18  1  0
 18 19  2  0
 18 20  1  0
 21 20  1  6
 21 23  1  0
 21 22  1  0
 22 15  1  0
 23 24  1  0
 25 23  2  0
M  END
$$$$
