HHV.pdb
     RDKit          3D

 28 29  0  0  1  0  0  0  0  0999 V2000
   26.2354  -33.3733  -12.9571 N   0  0  0  0  0  0  0  0  0  0  0  0
   25.7996  -34.3098  -11.9524 C   0  0  1  0  0  0  0  0  0  0  0  0
   26.5040  -35.6436  -12.0590 C   0  0  0  0  0  0  0  0  0  0  0  0
   26.1082  -36.2444  -13.3561 C   0  0  0  0  0  0  0  0  0  0  0  0
   24.9074  -36.8438  -13.6281 C   0  0  0  0  0  0  0  0  0  0  0  0
   24.8735  -37.2798  -14.8902 N   0  0  0  0  0  0  0  0  0  0  0  0
   26.0591  -36.9570  -15.4269 C   0  0  0  0  0  0  0  0  0  0  0  0
   26.8202  -36.3270  -14.5059 N   0  0  0  0  0  0  0  0  0  0  0  0
   25.8990  -33.7281  -10.5878 C   0  0  0  0  0  0  0  0  0  0  0  0
   26.8932  -33.0182  -10.2910 O   0  0  0  0  0  0  0  0  0  0  0  0
   24.8946  -33.9585   -9.6147 N   0  0  0  0  0  0  0  0  0  0  0  0
   24.9516  -33.2289   -8.3301 C   0  0  1  0  0  0  0  0  0  0  0  0
   23.5778  -32.7497   -7.9800 C   0  0  0  0  0  0  0  0  0  0  0  0
   23.1231  -31.5225   -8.6358 C   0  0  0  0  0  0  0  0  0  0  0  0
   23.9124  -30.7683   -9.5121 C   0  0  0  0  0  0  0  0  0  0  0  0
   23.2139  -29.7102   -9.9418 N   0  0  0  0  0  0  0  0  0  0  0  0
   22.0033  -29.7602   -9.3707 C   0  0  0  0  0  0  0  0  0  0  0  0
   21.9582  -30.8543   -8.5865 N   0  0  0  0  0  0  0  0  0  0  0  0
   25.6019  -34.0647   -7.3102 C   0  0  0  0  0  0  0  0  0  0  0  0
   25.2007  -35.2729   -7.0991 O   0  0  0  0  0  0  0  0  0  0  0  0
   29.3428  -33.9728   -6.8444 C   0  0  0  0  0  0  0  0  0  0  0  0
   28.7748  -34.0762   -5.4682 C   0  0  1  0  0  0  0  0  0  0  0  0
   28.8349  -32.7715   -4.7437 C   0  0  0  0  0  0  0  0  0  0  0  0
   27.3371  -34.5715   -5.5678 C   0  0  2  0  0  0  0  0  0  0  0  0
   26.6844  -33.6696   -6.4914 N   0  0  0  0  0  0  0  0  0  0  0  0
   26.7298  -34.6284   -4.2342 C   0  0  0  0  0  0  0  0  0  0  0  0
   26.9146  -35.5424   -3.4097 O   0  0  0  0  0  0  0  0  0  0  0  0
   25.8842  -33.5518   -3.9038 O   0  0  0  0  0  0  0  0  0  0  0  0
  2  9  1  0
  2  1  1  6
  3  2  1  0
  4  3  1  0
  5  4  2  0
  6  7  1  0
  6  5  1  0
  7  8  2  0
  8  4  1  0
  9 11  1  0
 10  9  2  0
 11 12  1  0
 12 13  1  1
 13 14  1  0
 14 18  1  0
 15 14  2  0
 15 16  1  0
 16 17  1  0
 18 17  2  0
 19 12  1  0
 19 20  2  0
 22 21  1  6
 22 24  1  0
 23 22  1  0
 24 26  1  0
 24 25  1  6
 25 19  1  0
 26 28  1  0
 27 26  2  0
M  END
$$$$
