HHV.pdb
     RDKit          3D

 28 29  0  0  1  0  0  0  0  0999 V2000
   27.3556  -17.7432  -19.0617 N   0  0  0  0  0  0  0  0  0  0  0  0
   27.7000  -17.9608  -17.6795 C   0  0  1  0  0  0  0  0  0  0  0  0
   28.7341  -16.9779  -17.1783 C   0  0  0  0  0  0  0  0  0  0  0  0
   29.9645  -17.1918  -17.9786 C   0  0  0  0  0  0  0  0  0  0  0  0
   30.1465  -18.1667  -18.9229 C   0  0  0  0  0  0  0  0  0  0  0  0
   31.3676  -18.0827  -19.4578 N   0  0  0  0  0  0  0  0  0  0  0  0
   31.9685  -17.0486  -18.8516 C   0  0  0  0  0  0  0  0  0  0  0  0
   31.1274  -16.4973  -17.9498 N   0  0  0  0  0  0  0  0  0  0  0  0
   26.4899  -17.9937  -16.8167 C   0  0  0  0  0  0  0  0  0  0  0  0
   25.9918  -16.9127  -16.4116 O   0  0  0  0  0  0  0  0  0  0  0  0
   25.8864  -19.2202  -16.4417 N   0  0  0  0  0  0  0  0  0  0  0  0
   24.6859  -19.2013  -15.5790 C   0  0  1  0  0  0  0  0  0  0  0  0
   23.4642  -19.2048  -16.4433 C   0  0  0  0  0  0  0  0  0  0  0  0
   22.1735  -19.2720  -15.7560 C   0  0  0  0  0  0  0  0  0  0  0  0
   21.3684  -20.4167  -15.7195 C   0  0  0  0  0  0  0  0  0  0  0  0
   20.2589  -20.1584  -15.0163 N   0  0  0  0  0  0  0  0  0  0  0  0
   20.3252  -18.8867  -14.6006 C   0  0  0  0  0  0  0  0  0  0  0  0
   21.4809  -18.3617  -15.0507 N   0  0  0  0  0  0  0  0  0  0  0  0
   24.7607  -20.2924  -14.5964 C   0  0  0  0  0  0  0  0  0  0  0  0
   25.0101  -21.5005  -14.9755 O   0  0  0  0  0  0  0  0  0  0  0  0
   26.6788  -21.0879  -11.8179 C   0  0  0  0  0  0  0  0  0  0  0  0
   25.3189  -21.2019  -11.2137 C   0  0  1  0  0  0  0  0  0  0  0  0
   25.0212  -20.0599  -10.2982 C   0  0  0  0  0  0  0  0  0  0  0  0
   24.2895  -21.2760  -12.3349 C   0  0  2  0  0  0  0  0  0  0  0  0
   24.5845  -20.1553  -13.2005 N   0  0  0  0  0  0  0  0  0  0  0  0
   22.9340  -21.2784  -11.7756 C   0  0  0  0  0  0  0  0  0  0  0  0
   22.1557  -20.3073  -11.7994 O   0  0  0  0  0  0  0  0  0  0  0  0
   22.5238  -22.4861  -11.1785 O   0  0  0  0  0  0  0  0  0  0  0  0
  2  9  1  0
  2  1  1  6
  3  2  1  0
  4  3  1  0
  5  4  2  0
  6  7  1  0
  6  5  1  0
  7  8  2  0
  8  4  1  0
  9 11  1  0
 10  9  2  0
 11 12  1  0
 12 13  1  6
 13 14  1  0
 14 18  1  0
 15 14  2  0
 15 16  1  0
 16 17  1  0
 18 17  2  0
 19 12  1  0
 19 20  2  0
 22 21  1  6
 22 24  1  0
 23 22  1  0
 24 26  1  0
 24 25  1  6
 25 19  1  0
 26 28  1  0
 27 26  2  0
M  END
$$$$
