HHV.pdb
     RDKit          3D

 28 29  0  0  1  0  0  0  0  0999 V2000
   16.5659  -19.0179    2.6087 N   0  0  0  0  0  0  0  0  0  0  0  0
   16.4044  -18.8502    4.0307 C   0  0  1  0  0  0  0  0  0  0  0  0
   16.4139  -20.1669    4.7743 C   0  0  0  0  0  0  0  0  0  0  0  0
   15.2284  -20.9339    4.3200 C   0  0  0  0  0  0  0  0  0  0  0  0
   15.2434  -21.9896    3.4479 C   0  0  0  0  0  0  0  0  0  0  0  0
   14.0071  -22.4549    3.2499 N   0  0  0  0  0  0  0  0  0  0  0  0
   13.1984  -21.6922    3.9996 C   0  0  0  0  0  0  0  0  0  0  0  0
   13.9270  -20.7632    4.6558 N   0  0  0  0  0  0  0  0  0  0  0  0
   17.3942  -17.8864    4.5800 C   0  0  0  0  0  0  0  0  0  0  0  0
   18.6218  -18.1037    4.4183 O   0  0  0  0  0  0  0  0  0  0  0  0
   16.9806  -16.7270    5.2827 N   0  0  0  0  0  0  0  0  0  0  0  0
   18.0010  -15.7755    5.7717 C   0  0  1  0  0  0  0  0  0  0  0  0
   17.3811  -14.4197    5.9018 C   0  0  0  0  0  0  0  0  0  0  0  0
   18.2687  -13.3273    6.3041 C   0  0  0  0  0  0  0  0  0  0  0  0
   19.1537  -12.6809    5.4332 C   0  0  0  0  0  0  0  0  0  0  0  0
   19.8216  -11.7319    6.1006 N   0  0  0  0  0  0  0  0  0  0  0  0
   19.3948  -11.7478    7.3703 C   0  0  0  0  0  0  0  0  0  0  0  0
   18.4604  -12.7112    7.4829 N   0  0  0  0  0  0  0  0  0  0  0  0
   18.6248  -16.2987    6.9960 C   0  0  0  0  0  0  0  0  0  0  0  0
   17.9328  -16.9825    7.8439 O   0  0  0  0  0  0  0  0  0  0  0  0
   22.6753  -15.6607    7.9701 C   0  0  0  0  0  0  0  0  0  0  0  0
   22.0025  -16.9615    8.2575 C   0  0  1  0  0  0  0  0  0  0  0  0
   22.6621  -17.6907    9.3817 C   0  0  0  0  0  0  0  0  0  0  0  0
   20.5361  -16.6947    8.5752 C   0  0  2  0  0  0  0  0  0  0  0  0
   19.9788  -16.1301    7.3656 N   0  0  0  0  0  0  0  0  0  0  0  0
   20.4246  -15.8376    9.7597 C   0  0  0  0  0  0  0  0  0  0  0  0
   20.2989  -14.5996    9.7295 O   0  0  0  0  0  0  0  0  0  0  0  0
   20.4674  -16.5039   10.9997 O   0  0  0  0  0  0  0  0  0  0  0  0
  2  9  1  0
  2  1  1  6
  3  2  1  0
  4  3  1  0
  5  4  2  0
  6  7  1  0
  6  5  1  0
  7  8  2  0
  8  4  1  0
  9 11  1  0
 10  9  2  0
 11 12  1  0
 12 13  1  1
 13 14  1  0
 14 18  1  0
 15 14  2  0
 15 16  1  0
 16 17  1  0
 18 17  2  0
 19 12  1  0
 19 20  2  0
 22 21  1  1
 22 24  1  0
 23 22  1  0
 24 26  1  0
 24 25  1  6
 25 19  1  0
 26 28  1  0
 27 26  2  0
M  END
$$$$
