HHV.pdb
     RDKit          3D

 28 29  0  0  1  0  0  0  0  0999 V2000
   20.8214  -15.1667  -18.1980 N   0  0  0  0  0  0  0  0  0  0  0  0
   20.3820  -13.8034  -18.3551 C   0  0  1  0  0  0  0  0  0  0  0  0
   18.8759  -13.6726  -18.3223 C   0  0  0  0  0  0  0  0  0  0  0  0
   18.3494  -14.3829  -19.5133 C   0  0  0  0  0  0  0  0  0  0  0  0
   17.3554  -15.3249  -19.5097 C   0  0  0  0  0  0  0  0  0  0  0  0
   17.1207  -15.7670  -20.7481 N   0  0  0  0  0  0  0  0  0  0  0  0
   17.9694  -15.1037  -21.5466 C   0  0  0  0  0  0  0  0  0  0  0  0
   18.7227  -14.2587  -20.8097 N   0  0  0  0  0  0  0  0  0  0  0  0
   21.0467  -12.9022  -17.3773 C   0  0  0  0  0  0  0  0  0  0  0  0
   20.8000  -13.0330  -16.1514 O   0  0  0  0  0  0  0  0  0  0  0  0
   21.9533  -11.8980  -17.8001 N   0  0  0  0  0  0  0  0  0  0  0  0
   22.5984  -11.0340  -16.7887 C   0  0  1  0  0  0  0  0  0  0  0  0
   24.0712  -10.9924  -17.0507 C   0  0  0  0  0  0  0  0  0  0  0  0
   24.8379  -12.1838  -16.6829 C   0  0  0  0  0  0  0  0  0  0  0  0
   24.2782  -13.3147  -16.0766 C   0  0  0  0  0  0  0  0  0  0  0  0
   25.2348  -14.2277  -15.8684 N   0  0  0  0  0  0  0  0  0  0  0  0
   26.3892  -13.7208  -16.3208 C   0  0  0  0  0  0  0  0  0  0  0  0
   26.1402  -12.4904  -16.8091 N   0  0  0  0  0  0  0  0  0  0  0  0
   21.9316   -9.7241  -16.7533 C   0  0  0  0  0  0  0  0  0  0  0  0
   21.9587   -8.9464  -17.7827 O   0  0  0  0  0  0  0  0  0  0  0  0
   18.6157   -8.9065  -16.6108 C   0  0  0  0  0  0  0  0  0  0  0  0
   19.1342   -8.0962  -15.4698 C   0  0  1  0  0  0  0  0  0  0  0  0
   18.8671   -8.7539  -14.1557 C   0  0  0  0  0  0  0  0  0  0  0  0
   20.6288   -7.8732  -15.6668 C   0  0  2  0  0  0  0  0  0  0  0  0
   21.2181   -9.1942  -15.6540 N   0  0  0  0  0  0  0  0  0  0  0  0
   21.1427   -6.9628  -14.6385 C   0  0  0  0  0  0  0  0  0  0  0  0
   20.9327   -5.7363  -14.6087 O   0  0  0  0  0  0  0  0  0  0  0  0
   21.9248   -7.5609  -13.6315 O   0  0  0  0  0  0  0  0  0  0  0  0
  2  9  1  0
  2  1  1  1
  3  2  1  0
  4  3  1  0
  5  4  2  0
  6  7  1  0
  6  5  1  0
  7  8  2  0
  8  4  1  0
  9 11  1  0
 10  9  2  0
 11 12  1  0
 12 13  1  6
 13 14  1  0
 14 18  1  0
 15 14  2  0
 15 16  1  0
 16 17  1  0
 18 17  2  0
 19 12  1  0
 19 20  2  0
 22 21  1  6
 22 24  1  0
 23 22  1  0
 24 26  1  0
 24 25  1  1
 25 19  1  0
 26 28  1  0
 27 26  2  0
M  END
$$$$
