HHV.pdb
     RDKit          3D

 28 29  0  0  1  0  0  0  0  0999 V2000
   20.0939  -22.6565  -14.3767 N   0  0  0  0  0  0  0  0  0  0  0  0
   20.6463  -21.5049  -13.7094 C   0  0  1  0  0  0  0  0  0  0  0  0
   21.4651  -21.8769  -12.4938 C   0  0  0  0  0  0  0  0  0  0  0  0
   20.5630  -22.5984  -11.5632 C   0  0  0  0  0  0  0  0  0  0  0  0
   19.5309  -22.0422  -10.8556 C   0  0  0  0  0  0  0  0  0  0  0  0
   18.9180  -22.9665  -10.1112 N   0  0  0  0  0  0  0  0  0  0  0  0
   19.5622  -24.1190  -10.3447 C   0  0  0  0  0  0  0  0  0  0  0  0
   20.5648  -23.9105  -11.2256 N   0  0  0  0  0  0  0  0  0  0  0  0
   21.4016  -20.6401  -14.6537 C   0  0  0  0  0  0  0  0  0  0  0  0
   22.3716  -21.1232  -15.2911 O   0  0  0  0  0  0  0  0  0  0  0  0
   21.0495  -19.2812  -14.8495 N   0  0  0  0  0  0  0  0  0  0  0  0
   21.7588  -18.4915  -15.8786 C   0  0  1  0  0  0  0  0  0  0  0  0
   20.7561  -17.7226  -16.6803 C   0  0  0  0  0  0  0  0  0  0  0  0
   21.2854  -16.8329  -17.7153 C   0  0  0  0  0  0  0  0  0  0  0  0
   22.6513  -16.6419  -17.9553 C   0  0  0  0  0  0  0  0  0  0  0  0
   22.8094  -15.7728  -18.9611 N   0  0  0  0  0  0  0  0  0  0  0  0
   21.5910  -15.3998  -19.3744 C   0  0  0  0  0  0  0  0  0  0  0  0
   20.6804  -16.0431  -18.6187 N   0  0  0  0  0  0  0  0  0  0  0  0
   22.8106  -17.6806  -15.2479 C   0  0  0  0  0  0  0  0  0  0  0  0
   22.5728  -17.0297  -14.1593 O   0  0  0  0  0  0  0  0  0  0  0  0
   26.1044  -18.6333  -14.0603 C   0  0  0  0  0  0  0  0  0  0  0  0
   26.3704  -17.4828  -14.9729 C   0  0  1  0  0  0  0  0  0  0  0  0
   26.8421  -17.9369  -16.3153 C   0  0  0  0  0  0  0  0  0  0  0  0
   25.0975  -16.6548  -15.1008 C   0  0  2  0  0  0  0  0  0  0  0  0
   24.1320  -17.5309  -15.7273 N   0  0  0  0  0  0  0  0  0  0  0  0
   25.3725  -15.4180  -15.8389 C   0  0  0  0  0  0  0  0  0  0  0  0
   25.0736  -15.2228  -17.0314 O   0  0  0  0  0  0  0  0  0  0  0  0
   26.0225  -14.4045  -15.1083 O   0  0  0  0  0  0  0  0  0  0  0  0
  2  9  1  0
  2  1  1  6
  3  2  1  0
  4  3  1  0
  5  4  2  0
  6  7  1  0
  6  5  1  0
  7  8  2  0
  8  4  1  0
  9 11  1  0
 10  9  2  0
 11 12  1  0
 12 13  1  1
 13 14  1  0
 14 18  1  0
 15 14  2  0
 15 16  1  0
 16 17  1  0
 18 17  2  0
 19 12  1  0
 19 20  2  0
 22 21  1  1
 22 24  1  0
 23 22  1  0
 24 26  1  0
 24 25  1  6
 25 19  1  0
 26 28  1  0
 27 26  2  0
M  END
$$$$
