HHV.pdb
     RDKit          3D

 28 29  0  0  1  0  0  0  0  0999 V2000
   23.5962  -16.1357  -20.4241 N   0  0  0  0  0  0  0  0  0  0  0  0
   22.4892  -15.9783  -19.5152 C   0  0  1  0  0  0  0  0  0  0  0  0
   21.1636  -15.8553  -20.2324 C   0  0  0  0  0  0  0  0  0  0  0  0
   21.1508  -14.5327  -20.9037 C   0  0  0  0  0  0  0  0  0  0  0  0
   20.1865  -13.5710  -20.7604 C   0  0  0  0  0  0  0  0  0  0  0  0
   20.4761  -12.4990  -21.5028 N   0  0  0  0  0  0  0  0  0  0  0  0
   21.6316  -12.7778  -22.1233 C   0  0  0  0  0  0  0  0  0  0  0  0
   22.0537  -14.0109  -21.7686 N   0  0  0  0  0  0  0  0  0  0  0  0
   22.4748  -17.0505  -18.4855 C   0  0  0  0  0  0  0  0  0  0  0  0
   22.3978  -18.2520  -18.8474 O   0  0  0  0  0  0  0  0  0  0  0  0
   22.5462  -16.7445  -17.1034 N   0  0  0  0  0  0  0  0  0  0  0  0
   22.5212  -17.8455  -16.1169 C   0  0  1  0  0  0  0  0  0  0  0  0
   23.7171  -17.7284  -15.2250 C   0  0  0  0  0  0  0  0  0  0  0  0
   25.0243  -17.9455  -15.8470 C   0  0  0  0  0  0  0  0  0  0  0  0
   25.2031  -18.2359  -17.2048 C   0  0  0  0  0  0  0  0  0  0  0  0
   26.5093  -18.3781  -17.4614 N   0  0  0  0  0  0  0  0  0  0  0  0
   27.1743  -18.1886  -16.3142 C   0  0  0  0  0  0  0  0  0  0  0  0
   26.2721  -17.9289  -15.3484 N   0  0  0  0  0  0  0  0  0  0  0  0
   21.2240  -17.8659  -15.4251 C   0  0  0  0  0  0  0  0  0  0  0  0
   20.7933  -16.8177  -14.8078 O   0  0  0  0  0  0  0  0  0  0  0  0
   18.1341  -18.5736  -16.9696 C   0  0  0  0  0  0  0  0  0  0  0  0
   18.0580  -19.4298  -15.7496 C   0  0  1  0  0  0  0  0  0  0  0  0
   18.3326  -20.8645  -16.0608 C   0  0  0  0  0  0  0  0  0  0  0  0
   19.0492  -18.9028  -14.7189 C   0  0  2  0  0  0  0  0  0  0  0  0
   20.3429  -18.9696  -15.3625 N   0  0  0  0  0  0  0  0  0  0  0  0
   18.9423  -19.6739  -13.4763 C   0  0  0  0  0  0  0  0  0  0  0  0
   19.7745  -20.5153  -13.0903 O   0  0  0  0  0  0  0  0  0  0  0  0
   17.8010  -19.4125  -12.6936 O   0  0  0  0  0  0  0  0  0  0  0  0
  2  9  1  0
  2  1  1  6
  3  2  1  0
  4  3  1  0
  5  4  2  0
  6  7  1  0
  6  5  1  0
  7  8  2  0
  8  4  1  0
  9 11  1  0
 10  9  2  0
 11 12  1  0
 12 13  1  1
 13 14  1  0
 14 18  1  0
 15 14  2  0
 15 16  1  0
 16 17  1  0
 18 17  2  0
 19 12  1  0
 19 20  2  0
 22 21  1  6
 22 24  1  0
 23 22  1  0
 24 26  1  0
 24 25  1  6
 25 19  1  0
 26 28  1  0
 27 26  2  0
M  END
$$$$
