HHV.pdb
     RDKit          3D

 28 29  0  0  1  0  0  0  0  0999 V2000
   16.3648  -12.0500  -16.7643 N   0  0  0  0  0  0  0  0  0  0  0  0
   17.2303  -11.6822  -15.6724 C   0  0  1  0  0  0  0  0  0  0  0  0
   18.4948  -12.5104  -15.6310 C   0  0  0  0  0  0  0  0  0  0  0  0
   18.0875  -13.9192  -15.4085 C   0  0  0  0  0  0  0  0  0  0  0  0
   17.3286  -14.3784  -14.3651 C   0  0  0  0  0  0  0  0  0  0  0  0
   17.1439  -15.6978  -14.4617 N   0  0  0  0  0  0  0  0  0  0  0  0
   17.7882  -16.0830  -15.5726 C   0  0  0  0  0  0  0  0  0  0  0  0
   18.3667  -15.0123  -16.1587 N   0  0  0  0  0  0  0  0  0  0  0  0
   17.5130  -10.2227  -15.6710 C   0  0  0  0  0  0  0  0  0  0  0  0
   17.9492   -9.6780  -16.7167 O   0  0  0  0  0  0  0  0  0  0  0  0
   17.3003   -9.4330  -14.5133 N   0  0  0  0  0  0  0  0  0  0  0  0
   17.5706   -7.9806  -14.5692 C   0  0  1  0  0  0  0  0  0  0  0  0
   16.4261   -7.2470  -13.9436 C   0  0  0  0  0  0  0  0  0  0  0  0
   15.2056   -7.1290  -14.7431 C   0  0  0  0  0  0  0  0  0  0  0  0
   15.0973   -7.5638  -16.0694 C   0  0  0  0  0  0  0  0  0  0  0  0
   13.8611   -7.3166  -16.5194 N   0  0  0  0  0  0  0  0  0  0  0  0
   13.1727   -6.7378  -15.5267 C   0  0  0  0  0  0  0  0  0  0  0  0
   13.9903   -6.6292  -14.4619 N   0  0  0  0  0  0  0  0  0  0  0  0
   18.8901   -7.6960  -13.9864 C   0  0  0  0  0  0  0  0  0  0  0  0
   19.1337   -7.9711  -12.7493 O   0  0  0  0  0  0  0  0  0  0  0  0
   22.0974   -8.9696  -15.0248 C   0  0  0  0  0  0  0  0  0  0  0  0
   22.3006   -7.4918  -14.9795 C   0  0  1  0  0  0  0  0  0  0  0  0
   22.2081   -6.8771  -16.3375 C   0  0  0  0  0  0  0  0  0  0  0  0
   21.2651   -6.8837  -14.0412 C   0  0  2  0  0  0  0  0  0  0  0  0
   19.9866   -7.1262  -14.6728 N   0  0  0  0  0  0  0  0  0  0  0  0
   21.5714   -5.4701  -13.8002 C   0  0  0  0  0  0  0  0  0  0  0  0
   22.5076   -5.0586  -13.0905 O   0  0  0  0  0  0  0  0  0  0  0  0
   20.7206   -4.5456  -14.4365 O   0  0  0  0  0  0  0  0  0  0  0  0
  2  9  1  0
  2  1  1  6
  3  2  1  0
  4  3  1  0
  5  4  2  0
  6  7  1  0
  6  5  1  0
  7  8  2  0
  8  4  1  0
  9 11  1  0
 10  9  2  0
 11 12  1  0
 12 13  1  1
 13 14  1  0
 14 18  1  0
 15 14  2  0
 15 16  1  0
 16 17  1  0
 18 17  2  0
 19 12  1  0
 19 20  2  0
 22 21  1  6
 22 24  1  0
 23 22  1  0
 24 26  1  0
 24 25  1  6
 25 19  1  0
 26 28  1  0
 27 26  2  0
M  END
$$$$
