HHV.pdb
     RDKit          3D

 28 29  0  0  1  0  0  0  0  0999 V2000
   20.0734  -15.0687  -17.8029 N   0  0  0  0  0  0  0  0  0  0  0  0
   19.2422  -13.8972  -17.6895 C   0  0  1  0  0  0  0  0  0  0  0  0
   18.2731  -13.9841  -16.5320 C   0  0  0  0  0  0  0  0  0  0  0  0
   17.3422  -15.1014  -16.8242 C   0  0  0  0  0  0  0  0  0  0  0  0
   17.3693  -15.8957  -17.9394 C   0  0  0  0  0  0  0  0  0  0  0  0
   16.3937  -16.8069  -17.8928 N   0  0  0  0  0  0  0  0  0  0  0  0
   15.7403  -16.5932  -16.7416 C   0  0  0  0  0  0  0  0  0  0  0  0
   16.3059  -15.5594  -16.0814 N   0  0  0  0  0  0  0  0  0  0  0  0
   20.0572  -12.6545  -17.6491 C   0  0  0  0  0  0  0  0  0  0  0  0
   21.0923  -12.6187  -16.9364 O   0  0  0  0  0  0  0  0  0  0  0  0
   19.6900  -11.5089  -18.3986 N   0  0  0  0  0  0  0  0  0  0  0  0
   20.5498  -10.3071  -18.3503 C   0  0  1  0  0  0  0  0  0  0  0  0
   20.2724   -9.4602  -19.5524 C   0  0  0  0  0  0  0  0  0  0  0  0
   21.0429   -8.2217  -19.6756 C   0  0  0  0  0  0  0  0  0  0  0  0
   22.3854   -8.1746  -20.0697 C   0  0  0  0  0  0  0  0  0  0  0  0
   22.8006   -6.9021  -20.0846 N   0  0  0  0  0  0  0  0  0  0  0  0
   21.7699   -6.1313  -19.7133 C   0  0  0  0  0  0  0  0  0  0  0  0
   20.7166   -6.9345  -19.4692 N   0  0  0  0  0  0  0  0  0  0  0  0
   20.3870   -9.6292  -17.0558 C   0  0  0  0  0  0  0  0  0  0  0  0
   19.2342   -9.5882  -16.4774 O   0  0  0  0  0  0  0  0  0  0  0  0
   21.5834  -10.2671  -13.8232 C   0  0  0  0  0  0  0  0  0  0  0  0
   22.0490   -8.8686  -14.0574 C   0  0  1  0  0  0  0  0  0  0  0  0
   23.4847   -8.8232  -14.4665 C   0  0  0  0  0  0  0  0  0  0  0  0
   21.1650   -8.2299  -15.1218 C   0  0  2  0  0  0  0  0  0  0  0  0
   21.4148   -8.9844  -16.3304 N   0  0  0  0  0  0  0  0  0  0  0  0
   21.4542   -6.7960  -15.2235 C   0  0  0  0  0  0  0  0  0  0  0  0
   22.1367   -6.2727  -16.1234 O   0  0  0  0  0  0  0  0  0  0  0  0
   20.9008   -5.9897  -14.2101 O   0  0  0  0  0  0  0  0  0  0  0  0
  2  9  1  0
  2  1  1  1
  3  2  1  0
  4  3  1  0
  5  4  2  0
  6  7  1  0
  6  5  1  0
  7  8  2  0
  8  4  1  0
  9 11  1  0
 10  9  2  0
 11 12  1  0
 12 13  1  6
 13 14  1  0
 14 18  1  0
 15 14  2  0
 15 16  1  0
 16 17  1  0
 18 17  2  0
 19 12  1  0
 19 20  2  0
 22 21  1  6
 22 24  1  0
 23 22  1  0
 24 26  1  0
 24 25  1  6
 25 19  1  0
 26 28  1  0
 27 26  2  0
M  END
$$$$
