HHV.pdb
     RDKit          3D

 28 29  0  0  1  0  0  0  0  0999 V2000
   28.1240  -21.9449  -17.5281 N   0  0  0  0  0  0  0  0  0  0  0  0
   27.2525  -22.4470  -16.4963 C   0  0  1  0  0  0  0  0  0  0  0  0
   27.7491  -23.7442  -15.8987 C   0  0  0  0  0  0  0  0  0  0  0  0
   27.0206  -24.8446  -16.5759 C   0  0  0  0  0  0  0  0  0  0  0  0
   27.2187  -25.2623  -17.8649 C   0  0  0  0  0  0  0  0  0  0  0  0
   26.3996  -26.2742  -18.1635 N   0  0  0  0  0  0  0  0  0  0  0  0
   25.6745  -26.5038  -17.0592 C   0  0  0  0  0  0  0  0  0  0  0  0
   26.0411  -25.6422  -16.0858 N   0  0  0  0  0  0  0  0  0  0  0  0
   26.9870  -21.4150  -15.4596 C   0  0  0  0  0  0  0  0  0  0  0  0
   27.9185  -20.6539  -15.0942 O   0  0  0  0  0  0  0  0  0  0  0  0
   25.7037  -21.2723  -14.8749 N   0  0  0  0  0  0  0  0  0  0  0  0
   25.4867  -20.2253  -13.8539 C   0  0  1  0  0  0  0  0  0  0  0  0
   24.5866  -19.1718  -14.4193 C   0  0  0  0  0  0  0  0  0  0  0  0
   25.2244  -18.1180  -15.2102 C   0  0  0  0  0  0  0  0  0  0  0  0
   26.6050  -18.0325  -15.4260 C   0  0  0  0  0  0  0  0  0  0  0  0
   26.8715  -16.9628  -16.1854 N   0  0  0  0  0  0  0  0  0  0  0  0
   25.7085  -16.3592  -16.4639 C   0  0  0  0  0  0  0  0  0  0  0  0
   24.7232  -17.0618  -15.8727 N   0  0  0  0  0  0  0  0  0  0  0  0
   25.0224  -20.8389  -12.6011 C   0  0  0  0  0  0  0  0  0  0  0  0
   24.1522  -21.7917  -12.6206 O   0  0  0  0  0  0  0  0  0  0  0  0
   27.2302  -20.8420   -9.3772 C   0  0  0  0  0  0  0  0  0  0  0  0
   25.8112  -20.6207   -8.9712 C   0  0  1  0  0  0  0  0  0  0  0  0
   25.5492  -19.1913   -8.6265 C   0  0  0  0  0  0  0  0  0  0  0  0
   24.9007  -21.0773  -10.1047 C   0  0  2  0  0  0  0  0  0  0  0  0
   25.4529  -20.4833  -11.3024 N   0  0  0  0  0  0  0  0  0  0  0  0
   23.5123  -20.7022   -9.8185 C   0  0  0  0  0  0  0  0  0  0  0  0
   22.8892  -19.7946  -10.3994 O   0  0  0  0  0  0  0  0  0  0  0  0
   22.8763  -21.4478   -8.8071 O   0  0  0  0  0  0  0  0  0  0  0  0
  2  9  1  0
  2  1  1  6
  3  2  1  0
  4  3  1  0
  5  4  2  0
  6  7  1  0
  6  5  1  0
  7  8  2  0
  8  4  1  0
  9 11  1  0
 10  9  2  0
 11 12  1  0
 12 13  1  6
 13 14  1  0
 14 18  1  0
 15 14  2  0
 15 16  1  0
 16 17  1  0
 18 17  2  0
 19 12  1  0
 19 20  2  0
 22 21  1  6
 22 24  1  0
 23 22  1  0
 24 26  1  0
 24 25  1  6
 25 19  1  0
 26 28  1  0
 27 26  2  0
M  END
$$$$
