HHV.pdb
     RDKit          3D

 28 29  0  0  1  0  0  0  0  0999 V2000
   19.0488  -12.3458  -16.4521 N   0  0  0  0  0  0  0  0  0  0  0  0
   18.8540  -10.9521  -16.7619 C   0  0  1  0  0  0  0  0  0  0  0  0
   17.3997  -10.6072  -16.9911 C   0  0  0  0  0  0  0  0  0  0  0  0
   16.9541  -11.3642  -18.1864 C   0  0  0  0  0  0  0  0  0  0  0  0
   16.5804  -10.8196  -19.3860 C   0  0  0  0  0  0  0  0  0  0  0  0
   16.2349  -11.7771  -20.2509 N   0  0  0  0  0  0  0  0  0  0  0  0
   16.3887  -12.9391  -19.6000 C   0  0  0  0  0  0  0  0  0  0  0  0
   16.8255  -12.7037  -18.3437 N   0  0  0  0  0  0  0  0  0  0  0  0
   19.4864  -10.0751  -15.7416 C   0  0  0  0  0  0  0  0  0  0  0  0
   19.0784  -10.1181  -14.5532 O   0  0  0  0  0  0  0  0  0  0  0  0
   20.5407   -9.1912  -16.0825 N   0  0  0  0  0  0  0  0  0  0  0  0
   21.1554   -8.3580  -15.0272 C   0  0  1  0  0  0  0  0  0  0  0  0
   22.4272   -9.0039  -14.5748 C   0  0  0  0  0  0  0  0  0  0  0  0
   23.3788   -9.3843  -15.6200 C   0  0  0  0  0  0  0  0  0  0  0  0
   23.1532   -9.1903  -16.9880 C   0  0  0  0  0  0  0  0  0  0  0  0
   24.2060   -9.6409  -17.6812 N   0  0  0  0  0  0  0  0  0  0  0  0
   25.0994  -10.1175  -16.8041 C   0  0  0  0  0  0  0  0  0  0  0  0
   24.5926   -9.9587  -15.5664 N   0  0  0  0  0  0  0  0  0  0  0  0
   21.2909   -6.9728  -15.5010 C   0  0  0  0  0  0  0  0  0  0  0  0
   21.5696   -6.7267  -16.7368 O   0  0  0  0  0  0  0  0  0  0  0  0
   19.0193   -4.4696  -15.9669 C   0  0  0  0  0  0  0  0  0  0  0  0
   20.0100   -3.7725  -15.0951 C   0  0  1  0  0  0  0  0  0  0  0  0
   19.5643   -3.7336  -13.6701 C   0  0  0  0  0  0  0  0  0  0  0  0
   21.3546   -4.4787  -15.2201 C   0  0  2  0  0  0  0  0  0  0  0  0
   21.1353   -5.8134  -14.7074 N   0  0  0  0  0  0  0  0  0  0  0  0
   22.3920   -3.7156  -14.5190 C   0  0  0  0  0  0  0  0  0  0  0  0
   22.7967   -3.9613  -13.3677 O   0  0  0  0  0  0  0  0  0  0  0  0
   22.9431   -2.6359  -15.2360 O   0  0  0  0  0  0  0  0  0  0  0  0
  2  9  1  0
  2  1  1  1
  3  2  1  0
  4  3  1  0
  5  4  2  0
  6  7  1  0
  6  5  1  0
  7  8  2  0
  8  4  1  0
  9 11  1  0
 10  9  2  0
 11 12  1  0
 12 13  1  6
 13 14  1  0
 14 18  1  0
 15 14  2  0
 15 16  1  0
 16 17  1  0
 18 17  2  0
 19 12  1  0
 19 20  2  0
 22 21  1  6
 22 24  1  0
 23 22  1  0
 24 26  1  0
 24 25  1  1
 25 19  1  0
 26 28  1  0
 27 26  2  0
M  END
$$$$
