HHV.pdb
     RDKit          3D

 28 29  0  0  1  0  0  0  0  0999 V2000
   17.1548  -11.7504  -14.2521 N   0  0  0  0  0  0  0  0  0  0  0  0
   16.1459  -10.7902  -13.8825 C   0  0  1  0  0  0  0  0  0  0  0  0
   14.8526  -11.4449  -13.4523 C   0  0  0  0  0  0  0  0  0  0  0  0
   14.1681  -11.9110  -14.6830 C   0  0  0  0  0  0  0  0  0  0  0  0
   14.7318  -12.6676  -15.6754 C   0  0  0  0  0  0  0  0  0  0  0  0
   13.8437  -12.9141  -16.6422 N   0  0  0  0  0  0  0  0  0  0  0  0
   12.7068  -12.3116  -16.2649 C   0  0  0  0  0  0  0  0  0  0  0  0
   12.8891  -11.6977  -15.0756 N   0  0  0  0  0  0  0  0  0  0  0  0
   16.6553   -9.8300  -12.8683 C   0  0  0  0  0  0  0  0  0  0  0  0
   17.1698  -10.2680  -11.8081 O   0  0  0  0  0  0  0  0  0  0  0  0
   16.5723   -8.4300  -13.0733 N   0  0  0  0  0  0  0  0  0  0  0  0
   17.2387   -7.5187  -12.1187 C   0  0  1  0  0  0  0  0  0  0  0  0
   18.3352   -6.7871  -12.8271 C   0  0  0  0  0  0  0  0  0  0  0  0
   19.4477   -7.5959  -13.3283 C   0  0  0  0  0  0  0  0  0  0  0  0
   20.5280   -8.0095  -12.5400 C   0  0  0  0  0  0  0  0  0  0  0  0
   21.3734   -8.7308  -13.2864 N   0  0  0  0  0  0  0  0  0  0  0  0
   20.8719   -8.7937  -14.5269 C   0  0  0  0  0  0  0  0  0  0  0  0
   19.7129   -8.1078  -14.5422 N   0  0  0  0  0  0  0  0  0  0  0  0
   16.2378   -6.6642  -11.4632 C   0  0  0  0  0  0  0  0  0  0  0  0
   15.4049   -5.9726  -12.1655 O   0  0  0  0  0  0  0  0  0  0  0  0
   14.0785   -7.7659   -8.6550 C   0  0  0  0  0  0  0  0  0  0  0  0
   14.5732   -6.4188   -8.2451 C   0  0  1  0  0  0  0  0  0  0  0  0
   15.6685   -6.5139   -7.2342 C   0  0  0  0  0  0  0  0  0  0  0  0
   15.0487   -5.6733   -9.4863 C   0  0  2  0  0  0  0  0  0  0  0  0
   16.0742   -6.5119  -10.0673 N   0  0  0  0  0  0  0  0  0  0  0  0
   15.4929   -4.3235   -9.1245 C   0  0  0  0  0  0  0  0  0  0  0  0
   16.6827   -3.9667   -9.0435 O   0  0  0  0  0  0  0  0  0  0  0  0
   14.4672   -3.3959   -8.8579 O   0  0  0  0  0  0  0  0  0  0  0  0
  2  9  1  0
  2  1  1  1
  3  2  1  0
  4  3  1  0
  5  4  2  0
  6  7  1  0
  6  5  1  0
  7  8  2  0
  8  4  1  0
  9 11  1  0
 10  9  2  0
 11 12  1  0
 12 13  1  6
 13 14  1  0
 14 18  1  0
 15 14  2  0
 15 16  1  0
 16 17  1  0
 18 17  2  0
 19 12  1  0
 19 20  2  0
 22 21  1  6
 22 24  1  0
 23 22  1  0
 24 26  1  0
 24 25  1  1
 25 19  1  0
 26 28  1  0
 27 26  2  0
M  END
$$$$
