HHV.pdb
     RDKit          3D

 28 29  0  0  1  0  0  0  0  0999 V2000
   19.4965  -12.9200  -16.6548 N   0  0  0  0  0  0  0  0  0  0  0  0
   19.0952  -11.5362  -16.6775 C   0  0  1  0  0  0  0  0  0  0  0  0
   17.7093  -11.3255  -16.1105 C   0  0  0  0  0  0  0  0  0  0  0  0
   16.7605  -12.0412  -16.9980 C   0  0  0  0  0  0  0  0  0  0  0  0
   16.3822  -11.6440  -18.2527 C   0  0  0  0  0  0  0  0  0  0  0  0
   15.5153  -12.5123  -18.7806 N   0  0  0  0  0  0  0  0  0  0  0  0
   15.3392  -13.4691  -17.8579 C   0  0  0  0  0  0  0  0  0  0  0  0
   16.0900  -13.1960  -16.7688 N   0  0  0  0  0  0  0  0  0  0  0  0
   20.1086  -10.6658  -16.0252 C   0  0  0  0  0  0  0  0  0  0  0  0
   20.3868  -10.8453  -14.8124 O   0  0  0  0  0  0  0  0  0  0  0  0
   20.7675   -9.6372  -16.7441 N   0  0  0  0  0  0  0  0  0  0  0  0
   21.8955   -8.9211  -16.1112 C   0  0  1  0  0  0  0  0  0  0  0  0
   23.0742   -8.9564  -17.0325 C   0  0  0  0  0  0  0  0  0  0  0  0
   23.7734  -10.2365  -17.1558 C   0  0  0  0  0  0  0  0  0  0  0  0
   24.5161  -10.8218  -16.1236 C   0  0  0  0  0  0  0  0  0  0  0  0
   25.0293  -11.9832  -16.5476 N   0  0  0  0  0  0  0  0  0  0  0  0
   24.6409  -12.1627  -17.8169 C   0  0  0  0  0  0  0  0  0  0  0  0
   23.8856  -11.1063  -18.1741 N   0  0  0  0  0  0  0  0  0  0  0  0
   21.4642   -7.5776  -15.6977 C   0  0  0  0  0  0  0  0  0  0  0  0
   20.8291   -6.8110  -16.5189 O   0  0  0  0  0  0  0  0  0  0  0  0
   19.5148   -6.8476  -12.6471 C   0  0  0  0  0  0  0  0  0  0  0  0
   20.6348   -5.8614  -12.6361 C   0  0  1  0  0  0  0  0  0  0  0  0
   21.7316   -6.2777  -11.7118 C   0  0  0  0  0  0  0  0  0  0  0  0
   21.1600   -5.7011  -14.0577 C   0  0  2  0  0  0  0  0  0  0  0  0
   21.6761   -7.0017  -14.4242 N   0  0  0  0  0  0  0  0  0  0  0  0
   22.1426   -4.6140  -14.1127 C   0  0  0  0  0  0  0  0  0  0  0  0
   23.3756   -4.7752  -14.1691 O   0  0  0  0  0  0  0  0  0  0  0  0
   21.6099   -3.3104  -14.0985 O   0  0  0  0  0  0  0  0  0  0  0  0
  2  9  1  0
  2  1  1  1
  3  2  1  0
  4  3  1  0
  5  4  2  0
  6  7  1  0
  6  5  1  0
  7  8  2  0
  8  4  1  0
  9 11  1  0
 10  9  2  0
 11 12  1  0
 12 13  1  6
 13 14  1  0
 14 18  1  0
 15 14  2  0
 15 16  1  0
 16 17  1  0
 18 17  2  0
 19 12  1  0
 19 20  2  0
 22 21  1  6
 22 24  1  0
 23 22  1  0
 24 26  1  0
 24 25  1  1
 25 19  1  0
 26 28  1  0
 27 26  2  0
M  END
$$$$
