DAF.pdb
     RDKit          3D

 25 25  0  0  1  0  0  0  0  0999 V2000
    9.8452  -13.2137   19.4232 N   0  0  0  0  0  0  0  0  0  0  0  0
    8.4884  -12.9362   19.8484 C   0  0  1  0  0  0  0  0  0  0  0  0
    7.6474  -12.8305   18.5948 C   0  0  0  0  0  0  0  0  0  0  0  0
    8.1483  -13.8615   17.6473 C   0  0  0  0  0  0  0  0  0  0  0  0
    9.0559  -14.6907   17.9547 O   0  0  0  0  0  0  0  0  0  0  0  0
    8.0475  -14.0417   20.7244 C   0  0  0  0  0  0  0  0  0  0  0  0
    6.9043  -14.0147   21.2304 O   0  0  0  0  0  0  0  0  0  0  0  0
    7.6448  -13.9801   16.3493 O   0  0  0  0  0  0  0  0  0  0  0  0
    9.0480  -17.5739   21.4536 C   0  0  0  0  0  0  0  0  0  0  0  0
    8.5023  -16.2161   21.9155 C   0  0  2  0  0  0  0  0  0  0  0  0
    8.8754  -15.1645   21.0310 N   0  0  0  0  0  0  0  0  0  0  0  0
    8.9665  -15.9697   23.3197 C   0  0  0  0  0  0  0  0  0  0  0  0
   10.0544  -15.3837   23.5402 O   0  0  0  0  0  0  0  0  0  0  0  0
    8.2037  -16.3842   24.4411 N   0  0  0  0  0  0  0  0  0  0  0  0
    8.6069  -16.1445   25.8125 C   0  0  1  0  0  0  0  0  0  0  0  0
    7.4580  -15.6775   26.6635 C   0  0  0  0  0  0  0  0  0  0  0  0
    7.2829  -14.2221   26.4909 C   0  0  0  0  0  0  0  0  0  0  0  0
    8.3143  -13.3319   26.5932 C   0  0  0  0  0  0  0  0  0  0  0  0
    8.1596  -11.9516   26.4366 C   0  0  0  0  0  0  0  0  0  0  0  0
    6.8732  -11.5143   26.1644 C   0  0  0  0  0  0  0  0  0  0  0  0
    5.8368  -12.4059   26.0612 C   0  0  0  0  0  0  0  0  0  0  0  0
    6.0082  -13.7608   26.2185 C   0  0  0  0  0  0  0  0  0  0  0  0
    9.1493  -17.4112   26.3538 C   0  0  0  0  0  0  0  0  0  0  0  0
    8.9255  -18.5210   25.8027 O   0  0  0  0  0  0  0  0  0  0  0  0
    9.9331  -17.4387   27.4977 O   0  0  0  0  0  0  0  0  0  0  0  0
  2  1  1  6
  2  6  1  0
  3  2  1  0
  3  4  1  0
  4  8  1  0
  5  4  2  0
  6  7  2  0
 10  9  1  6
 10 12  1  0
 11 10  1  0
 11  6  1  0
 12 13  2  0
 12 14  1  0
 14 15  1  0
 15 23  1  0
 15 16  1  1
 17 16  1  0
 17 22  2  0
 18 17  1  0
 19 18  2  0
 19 20  1  0
 20 21  2  0
 21 22  1  0
 23 24  2  0
 23 25  1  0
M  END
$$$$
