DAF.pdb
     RDKit          3D

 25 25  0  0  1  0  0  0  0  0999 V2000
    8.8798  -15.2059   18.9969 N   0  0  0  0  0  0  0  0  0  0  0  0
    8.3000  -14.1727   19.8305 C   0  0  1  0  0  0  0  0  0  0  0  0
    7.2025  -13.5178   19.0202 C   0  0  0  0  0  0  0  0  0  0  0  0
    7.7091  -13.3874   17.6280 C   0  0  0  0  0  0  0  0  0  0  0  0
    8.2265  -12.3188   17.1850 O   0  0  0  0  0  0  0  0  0  0  0  0
    7.7817  -14.8114   21.0582 C   0  0  0  0  0  0  0  0  0  0  0  0
    7.2273  -14.1129   21.9348 O   0  0  0  0  0  0  0  0  0  0  0  0
    7.6451  -14.4437   16.7157 O   0  0  0  0  0  0  0  0  0  0  0  0
    7.1758  -18.3935   22.1797 C   0  0  0  0  0  0  0  0  0  0  0  0
    7.2798  -16.8798   22.4086 C   0  0  2  0  0  0  0  0  0  0  0  0
    7.8821  -16.2151   21.3028 N   0  0  0  0  0  0  0  0  0  0  0  0
    8.0238  -16.6424   23.6886 C   0  0  0  0  0  0  0  0  0  0  0  0
    9.2718  -16.5086   23.6877 O   0  0  0  0  0  0  0  0  0  0  0  0
    7.3545  -16.5605   24.9362 N   0  0  0  0  0  0  0  0  0  0  0  0
    8.0367  -16.3251   26.1932 C   0  0  1  0  0  0  0  0  0  0  0  0
    7.1891  -15.5383   27.1549 C   0  0  0  0  0  0  0  0  0  0  0  0
    7.2086  -14.1136   26.7695 C   0  0  0  0  0  0  0  0  0  0  0  0
    8.3636  -13.3985   26.6243 C   0  0  0  0  0  0  0  0  0  0  0  0
    8.3941  -12.0481   26.2646 C   0  0  0  0  0  0  0  0  0  0  0  0
    7.1618  -11.4500   26.0557 C   0  0  0  0  0  0  0  0  0  0  0  0
    6.0016  -12.1658   26.2008 C   0  0  0  0  0  0  0  0  0  0  0  0
    5.9912  -13.4939   26.5554 C   0  0  0  0  0  0  0  0  0  0  0  0
    8.3711  -17.6420   26.7813 C   0  0  0  0  0  0  0  0  0  0  0  0
    7.8009  -18.7014   26.4101 O   0  0  0  0  0  0  0  0  0  0  0  0
    9.3317  -17.7746   27.7729 O   0  0  0  0  0  0  0  0  0  0  0  0
  2  1  1  6
  2  6  1  0
  3  2  1  0
  3  4  1  0
  4  8  1  0
  5  4  2  0
  6  7  2  0
 10  9  1  6
 10 12  1  0
 11 10  1  0
 11  6  1  0
 12 13  2  0
 12 14  1  0
 14 15  1  0
 15 23  1  0
 15 16  1  1
 17 16  1  0
 17 22  2  0
 18 17  1  0
 19 18  2  0
 19 20  1  0
 20 21  2  0
 21 22  1  0
 23 24  2  0
 23 25  1  0
M  END
$$$$
