DAF.pdb
     RDKit          3D

 25 25  0  0  1  0  0  0  0  0999 V2000
   11.2009  -17.4331   18.8751 N   0  0  0  0  0  0  0  0  0  0  0  0
   11.3603  -18.1014   20.1506 C   0  0  1  0  0  0  0  0  0  0  0  0
   12.8270  -18.0134   20.5130 C   0  0  0  0  0  0  0  0  0  0  0  0
   13.5626  -18.8900   19.5631 C   0  0  0  0  0  0  0  0  0  0  0  0
   13.1337  -20.0288   19.2098 O   0  0  0  0  0  0  0  0  0  0  0  0
   10.4998  -17.4165   21.1376 C   0  0  0  0  0  0  0  0  0  0  0  0
   10.5437  -16.1711   21.2412 O   0  0  0  0  0  0  0  0  0  0  0  0
   14.7818  -18.5083   18.9973 O   0  0  0  0  0  0  0  0  0  0  0  0
    7.5624  -18.3627   23.3402 C   0  0  0  0  0  0  0  0  0  0  0  0
    8.7653  -17.4869   22.9652 C   0  0  2  0  0  0  0  0  0  0  0  0
    9.6003  -18.1162   21.9988 N   0  0  0  0  0  0  0  0  0  0  0  0
    9.5096  -17.1388   24.2194 C   0  0  0  0  0  0  0  0  0  0  0  0
   10.4678  -17.8480   24.6123 O   0  0  0  0  0  0  0  0  0  0  0  0
    9.1643  -16.0078   25.0021 N   0  0  0  0  0  0  0  0  0  0  0  0
    9.8658  -15.6320   26.2136 C   0  0  1  0  0  0  0  0  0  0  0  0
   10.0147  -14.1406   26.3382 C   0  0  0  0  0  0  0  0  0  0  0  0
    8.6935  -13.5030   26.1751 C   0  0  0  0  0  0  0  0  0  0  0  0
    7.9962  -12.9602   27.2171 C   0  0  0  0  0  0  0  0  0  0  0  0
    6.7426  -12.3584   27.0754 C   0  0  0  0  0  0  0  0  0  0  0  0
    6.2240  -12.3368   25.7906 C   0  0  0  0  0  0  0  0  0  0  0  0
    6.9221  -12.8808   24.7436 C   0  0  0  0  0  0  0  0  0  0  0  0
    8.1545  -13.4689   24.9022 C   0  0  0  0  0  0  0  0  0  0  0  0
    9.0965  -16.1570   27.3645 C   0  0  0  0  0  0  0  0  0  0  0  0
    7.9323  -16.6183   27.2328 O   0  0  0  0  0  0  0  0  0  0  0  0
    9.6212  -16.1669   28.6483 O   0  0  0  0  0  0  0  0  0  0  0  0
  2  1  1  6
  2  6  1  0
  3  2  1  0
  3  4  1  0
  4  8  1  0
  5  4  2  0
  6  7  2  0
 10  9  1  1
 10 12  1  0
 11 10  1  0
 11  6  1  0
 12 13  2  0
 12 14  1  0
 14 15  1  0
 15 23  1  0
 15 16  1  1
 17 16  1  0
 17 22  2  0
 18 17  1  0
 19 18  2  0
 19 20  1  0
 20 21  2  0
 21 22  1  0
 23 24  2  0
 23 25  1  0
M  END
$$$$
