DAF.pdb
     RDKit          3D

 25 25  0  0  1  0  0  0  0  0999 V2000
   11.2260  -16.9454   18.8074 N   0  0  0  0  0  0  0  0  0  0  0  0
    9.9223  -17.3525   19.2907 C   0  0  1  0  0  0  0  0  0  0  0  0
   10.0546  -18.7853   19.7593 C   0  0  0  0  0  0  0  0  0  0  0  0
   10.2137  -19.6272   18.5437 C   0  0  0  0  0  0  0  0  0  0  0  0
   11.1386  -20.4847   18.4210 O   0  0  0  0  0  0  0  0  0  0  0  0
    9.5346  -16.4405   20.3869 C   0  0  0  0  0  0  0  0  0  0  0  0
   10.4058  -16.0106   21.1742 O   0  0  0  0  0  0  0  0  0  0  0  0
    9.3460  -19.5235   17.4535 O   0  0  0  0  0  0  0  0  0  0  0  0
    6.2907  -14.8301   21.6058 C   0  0  0  0  0  0  0  0  0  0  0  0
    7.7536  -15.2746   21.7368 C   0  0  2  0  0  0  0  0  0  0  0  0
    8.1882  -16.0142   20.6003 N   0  0  0  0  0  0  0  0  0  0  0  0
    7.9027  -16.0504   23.0111 C   0  0  0  0  0  0  0  0  0  0  0  0
    7.9143  -17.3054   22.9983 O   0  0  0  0  0  0  0  0  0  0  0  0
    8.0348  -15.4043   24.2666 N   0  0  0  0  0  0  0  0  0  0  0  0
    8.2622  -16.1149   25.5093 C   0  0  1  0  0  0  0  0  0  0  0  0
    8.7915  -15.2091   26.5870 C   0  0  0  0  0  0  0  0  0  0  0  0
    7.9656  -13.9873   26.6466 C   0  0  0  0  0  0  0  0  0  0  0  0
    6.5996  -14.0127   26.6487 C   0  0  0  0  0  0  0  0  0  0  0  0
    5.8073  -12.8623   26.7000 C   0  0  0  0  0  0  0  0  0  0  0  0
    6.4917  -11.6585   26.7503 C   0  0  0  0  0  0  0  0  0  0  0  0
    7.8624  -11.6308   26.7485 C   0  0  0  0  0  0  0  0  0  0  0  0
    8.6253  -12.7732   26.6975 C   0  0  0  0  0  0  0  0  0  0  0  0
    6.9731  -16.7037   25.9375 C   0  0  0  0  0  0  0  0  0  0  0  0
    6.8948  -17.5003   26.9095 O   0  0  0  0  0  0  0  0  0  0  0  0
    5.7844  -16.4064   25.2877 O   0  0  0  0  0  0  0  0  0  0  0  0
  2  1  1  1
  2  6  1  0
  3  2  1  0
  3  4  1  0
  4  8  1  0
  5  4  2  0
  6  7  2  0
 10  9  1  6
 10 12  1  0
 11 10  1  0
 11  6  1  0
 12 13  2  0
 12 14  1  0
 14 15  1  0
 15 23  1  0
 15 16  1  1
 17 16  1  0
 17 22  2  0
 18 17  1  0
 19 18  2  0
 19 20  1  0
 20 21  2  0
 21 22  1  0
 23 24  2  0
 23 25  1  0
M  END
$$$$
