DAF.pdb
     RDKit          3D

 25 25  0  0  1  0  0  0  0  0999 V2000
    7.3248  -19.6148   20.2000 N   0  0  0  0  0  0  0  0  0  0  0  0
    6.7905  -18.7347   21.2192 C   0  0  1  0  0  0  0  0  0  0  0  0
    6.7474  -19.5281   22.5071 C   0  0  0  0  0  0  0  0  0  0  0  0
    5.3278  -19.9076   22.7364 C   0  0  0  0  0  0  0  0  0  0  0  0
    4.4507  -19.8618   21.8229 O   0  0  0  0  0  0  0  0  0  0  0  0
    7.6777  -17.5571   21.3189 C   0  0  0  0  0  0  0  0  0  0  0  0
    8.8951  -17.7154   21.5571 O   0  0  0  0  0  0  0  0  0  0  0  0
    4.8704  -20.3415   23.9832 O   0  0  0  0  0  0  0  0  0  0  0  0
    7.3344  -13.8026   20.7492 C   0  0  0  0  0  0  0  0  0  0  0  0
    8.0291  -15.0613   21.2855 C   0  0  2  0  0  0  0  0  0  0  0  0
    7.2091  -16.2179   21.1541 N   0  0  0  0  0  0  0  0  0  0  0  0
    8.4359  -14.8111   22.7068 C   0  0  0  0  0  0  0  0  0  0  0  0
    7.7622  -14.0467   23.4398 O   0  0  0  0  0  0  0  0  0  0  0  0
    9.5844  -15.4211   23.2723 N   0  0  0  0  0  0  0  0  0  0  0  0
   10.0788  -15.1136   24.5997 C   0  0  1  0  0  0  0  0  0  0  0  0
    9.0033  -15.2385   25.6438 C   0  0  0  0  0  0  0  0  0  0  0  0
    9.5518  -14.8505   26.9580 C   0  0  0  0  0  0  0  0  0  0  0  0
   10.0225  -15.7579   27.8644 C   0  0  0  0  0  0  0  0  0  0  0  0
   10.5395  -15.4027   29.1135 C   0  0  0  0  0  0  0  0  0  0  0  0
   10.5532  -14.0468   29.3989 C   0  0  0  0  0  0  0  0  0  0  0  0
   10.0815  -13.1345   28.4907 C   0  0  0  0  0  0  0  0  0  0  0  0
    9.5763  -13.5028   27.2664 C   0  0  0  0  0  0  0  0  0  0  0  0
   11.1822  -16.0533   24.9016 C   0  0  0  0  0  0  0  0  0  0  0  0
   12.3063  -15.6535   25.3043 O   0  0  0  0  0  0  0  0  0  0  0  0
   11.0325  -17.4244   24.7556 O   0  0  0  0  0  0  0  0  0  0  0  0
  2  1  1  6
  2  6  1  0
  3  2  1  0
  3  4  1  0
  4  8  1  0
  5  4  2  0
  6  7  2  0
 10  9  1  1
 10 12  1  0
 11 10  1  0
 11  6  1  0
 12 13  2  0
 12 14  1  0
 14 15  1  0
 15 23  1  0
 15 16  1  1
 17 16  1  0
 17 22  2  0
 18 17  1  0
 19 18  2  0
 19 20  1  0
 20 21  2  0
 21 22  1  0
 23 24  2  0
 23 25  1  0
M  END
$$$$
