DAF.pdb
     RDKit          3D

 25 25  0  0  1  0  0  0  0  0999 V2000
    8.8913  -18.5475   19.8668 N   0  0  0  0  0  0  0  0  0  0  0  0
   10.1717  -17.8908   20.0349 C   0  0  1  0  0  0  0  0  0  0  0  0
   10.7411  -17.6758   18.6494 C   0  0  0  0  0  0  0  0  0  0  0  0
   11.0101  -19.0216   18.0765 C   0  0  0  0  0  0  0  0  0  0  0  0
   11.7666  -19.8673   18.6407 O   0  0  0  0  0  0  0  0  0  0  0  0
    9.9432  -16.6168   20.7481 C   0  0  0  0  0  0  0  0  0  0  0  0
   10.9162  -15.8924   21.0521 O   0  0  0  0  0  0  0  0  0  0  0  0
   10.4405  -19.4395   16.8710 O   0  0  0  0  0  0  0  0  0  0  0  0
    6.8877  -14.6638   21.9556 C   0  0  0  0  0  0  0  0  0  0  0  0
    8.3900  -14.9444   21.8176 C   0  0  2  0  0  0  0  0  0  0  0  0
    8.6418  -16.1581   21.1170 N   0  0  0  0  0  0  0  0  0  0  0  0
    9.0023  -14.9403   23.1862 C   0  0  0  0  0  0  0  0  0  0  0  0
   10.1114  -14.3887   23.3891 O   0  0  0  0  0  0  0  0  0  0  0  0
    8.3600  -15.5523   24.2926 N   0  0  0  0  0  0  0  0  0  0  0  0
    8.9212  -15.5735   25.6289 C   0  0  1  0  0  0  0  0  0  0  0  0
    7.8641  -15.4075   26.6859 C   0  0  0  0  0  0  0  0  0  0  0  0
    7.2984  -14.0469   26.6008 C   0  0  0  0  0  0  0  0  0  0  0  0
    6.0405  -13.7927   26.1323 C   0  0  0  0  0  0  0  0  0  0  0  0
    5.4961  -12.5084   26.0426 C   0  0  0  0  0  0  0  0  0  0  0  0
    6.3159  -11.4735   26.4635 C   0  0  0  0  0  0  0  0  0  0  0  0
    7.5785  -11.7263   26.9341 C   0  0  0  0  0  0  0  0  0  0  0  0
    8.0972  -12.9969   27.0150 C   0  0  0  0  0  0  0  0  0  0  0  0
    9.6121  -16.8703   25.8101 C   0  0  0  0  0  0  0  0  0  0  0  0
   10.2591  -17.1399   26.8561 O   0  0  0  0  0  0  0  0  0  0  0  0
    9.5812  -17.8553   24.8341 O   0  0  0  0  0  0  0  0  0  0  0  0
  2  1  1  6
  2  6  1  0
  3  2  1  0
  3  4  1  0
  4  8  1  0
  5  4  2  0
  6  7  2  0
 10  9  1  1
 10 12  1  0
 11 10  1  0
 11  6  1  0
 12 13  2  0
 12 14  1  0
 14 15  1  0
 15 23  1  0
 15 16  1  1
 17 16  1  0
 17 22  2  0
 18 17  1  0
 19 18  2  0
 19 20  1  0
 20 21  2  0
 21 22  1  0
 23 24  2  0
 23 25  1  0
M  END
$$$$
