DAF.pdb
     RDKit          3D

 25 25  0  0  1  0  0  0  0  0999 V2000
    8.0122  -16.1420   18.3163 N   0  0  0  0  0  0  0  0  0  0  0  0
    8.3385  -14.9126   19.0097 C   0  0  1  0  0  0  0  0  0  0  0  0
    7.4825  -13.8234   18.4005 C   0  0  0  0  0  0  0  0  0  0  0  0
    7.7522  -13.8256   16.9380 C   0  0  0  0  0  0  0  0  0  0  0  0
    7.8429  -14.8924   16.2601 O   0  0  0  0  0  0  0  0  0  0  0  0
    8.0541  -15.1075   20.4467 C   0  0  0  0  0  0  0  0  0  0  0  0
    8.3123  -14.1934   21.2602 O   0  0  0  0  0  0  0  0  0  0  0  0
    7.9236  -12.6419   16.2158 O   0  0  0  0  0  0  0  0  0  0  0  0
    6.4610  -17.8619   22.5657 C   0  0  0  0  0  0  0  0  0  0  0  0
    7.1280  -16.4998   22.3328 C   0  0  2  0  0  0  0  0  0  0  0  0
    7.4877  -16.3105   20.9681 N   0  0  0  0  0  0  0  0  0  0  0  0
    8.3063  -16.3836   23.2527 C   0  0  0  0  0  0  0  0  0  0  0  0
    9.4355  -16.8047   22.9020 O   0  0  0  0  0  0  0  0  0  0  0  0
    8.1926  -15.8003   24.5403 N   0  0  0  0  0  0  0  0  0  0  0  0
    9.2964  -15.7109   25.4756 C   0  0  1  0  0  0  0  0  0  0  0  0
    9.6581  -14.2841   25.7847 C   0  0  0  0  0  0  0  0  0  0  0  0
    8.4262  -13.5140   26.0457 C   0  0  0  0  0  0  0  0  0  0  0  0
    7.5716  -13.1204   25.0551 C   0  0  0  0  0  0  0  0  0  0  0  0
    6.4051  -12.3869   25.2898 C   0  0  0  0  0  0  0  0  0  0  0  0
    6.1474  -12.0679   26.6134 C   0  0  0  0  0  0  0  0  0  0  0  0
    7.0036  -12.4620   27.6089 C   0  0  0  0  0  0  0  0  0  0  0  0
    8.1469  -13.1832   27.3589 C   0  0  0  0  0  0  0  0  0  0  0  0
    8.8946  -16.4069   26.7190 C   0  0  0  0  0  0  0  0  0  0  0  0
    7.7322  -16.8628   26.8814 O   0  0  0  0  0  0  0  0  0  0  0  0
    9.7810  -16.5920   27.7696 O   0  0  0  0  0  0  0  0  0  0  0  0
  2  1  1  6
  2  6  1  0
  3  2  1  0
  3  4  1  0
  4  8  1  0
  5  4  2  0
  6  7  2  0
 10  9  1  6
 10 12  1  0
 11 10  1  0
 11  6  1  0
 12 13  2  0
 12 14  1  0
 14 15  1  0
 15 23  1  0
 15 16  1  1
 17 16  1  0
 17 22  2  0
 18 17  1  0
 19 18  2  0
 19 20  1  0
 20 21  2  0
 21 22  1  0
 23 24  2  0
 23 25  1  0
M  END
$$$$
