DAF.pdb
     RDKit          3D

 25 25  0  0  1  0  0  0  0  0999 V2000
    7.1520  -15.6854   18.4295 N   0  0  0  0  0  0  0  0  0  0  0  0
    8.1342  -15.2232   19.3889 C   0  0  1  0  0  0  0  0  0  0  0  0
    8.0703  -13.7113   19.3905 C   0  0  0  0  0  0  0  0  0  0  0  0
    8.6830  -13.2492   18.1166 C   0  0  0  0  0  0  0  0  0  0  0  0
    8.0250  -12.6381   17.2224 O   0  0  0  0  0  0  0  0  0  0  0  0
    7.7928  -15.7974   20.7071 C   0  0  0  0  0  0  0  0  0  0  0  0
    6.6401  -15.6496   21.1689 O   0  0  0  0  0  0  0  0  0  0  0  0
   10.0328  -13.4621   17.8251 O   0  0  0  0  0  0  0  0  0  0  0  0
    8.8396  -18.6409   22.7401 C   0  0  0  0  0  0  0  0  0  0  0  0
    8.4087  -17.1682   22.7307 C   0  0  2  0  0  0  0  0  0  0  0  0
    8.7295  -16.5284   21.4998 N   0  0  0  0  0  0  0  0  0  0  0  0
    9.0341  -16.4822   23.9081 C   0  0  0  0  0  0  0  0  0  0  0  0
   10.1866  -15.9920   23.8249 O   0  0  0  0  0  0  0  0  0  0  0  0
    8.3561  -16.3615   25.1478 N   0  0  0  0  0  0  0  0  0  0  0  0
    8.9079  -15.6674   26.2944 C   0  0  1  0  0  0  0  0  0  0  0  0
    7.8332  -15.0833   27.1696 C   0  0  0  0  0  0  0  0  0  0  0  0
    7.3424  -13.8281   26.5679 C   0  0  0  0  0  0  0  0  0  0  0  0
    8.1762  -12.8580   26.0879 C   0  0  0  0  0  0  0  0  0  0  0  0
    7.7231  -11.6636   25.5206 C   0  0  0  0  0  0  0  0  0  0  0  0
    6.3477  -11.5039   25.4656 C   0  0  0  0  0  0  0  0  0  0  0  0
    5.5093  -12.4762   25.9464 C   0  0  0  0  0  0  0  0  0  0  0  0
    5.9734  -13.6451   26.5014 C   0  0  0  0  0  0  0  0  0  0  0  0
    9.7123  -16.6394   27.0690 C   0  0  0  0  0  0  0  0  0  0  0  0
   10.4039  -16.2905   28.0617 O   0  0  0  0  0  0  0  0  0  0  0  0
    9.7441  -17.9861   26.7391 O   0  0  0  0  0  0  0  0  0  0  0  0
  2  1  1  6
  2  6  1  0
  3  2  1  0
  3  4  1  0
  4  8  1  0
  5  4  2  0
  6  7  2  0
 10  9  1  6
 10 12  1  0
 11 10  1  0
 11  6  1  0
 12 13  2  0
 12 14  1  0
 14 15  1  0
 15 23  1  0
 15 16  1  1
 17 16  1  0
 17 22  2  0
 18 17  1  0
 19 18  2  0
 19 20  1  0
 20 21  2  0
 21 22  1  0
 23 24  2  0
 23 25  1  0
M  END
$$$$
