QGE.pdb
     RDKit          3D

 23 22  0  0  1  0  0  0  0  0999 V2000
    7.8635  -12.1560   18.6110 N   0  0  0  0  0  0  0  0  0  0  0  0
    7.5705  -13.4288   18.0284 C   0  0  0  0  0  0  0  0  0  0  0  0
    7.8625  -13.4926   16.7852 O   0  0  0  0  0  0  0  0  0  0  0  0
    6.9919  -14.5362   18.7847 C   0  0  0  0  0  0  0  0  0  0  0  0
    7.8892  -15.6998   19.0522 C   0  0  0  0  0  0  0  0  0  0  0  0
    8.0165  -16.1023   20.4909 C   0  0  2  0  0  0  0  0  0  0  0  0
    6.9556  -16.9530   20.9580 N   0  0  0  0  0  0  0  0  0  0  0  0
    8.2052  -14.9748   21.3904 C   0  0  0  0  0  0  0  0  0  0  0  0
    9.1831  -14.1900   21.1389 O   0  0  0  0  0  0  0  0  0  0  0  0
    7.3761  -14.7257   22.4886 N   0  0  0  0  0  0  0  0  0  0  0  0
    7.3678  -15.6053   23.6407 C   0  0  0  0  0  0  0  0  0  0  0  0
    8.6900  -15.4267   24.3411 C   0  0  0  0  0  0  0  0  0  0  0  0
    8.8331  -14.5988   25.2784 O   0  0  0  0  0  0  0  0  0  0  0  0
    9.8031  -16.1981   23.9486 N   0  0  0  0  0  0  0  0  0  0  0  0
   11.0429  -16.2110   24.7686 C   0  0  1  0  0  0  0  0  0  0  0  0
   10.5856  -16.6870   26.1012 C   0  0  0  0  0  0  0  0  0  0  0  0
   10.3938  -18.1280   26.3322 C   0  0  0  0  0  0  0  0  0  0  0  0
   10.6411  -18.6069   27.6884 C   0  0  0  0  0  0  0  0  0  0  0  0
    9.7113  -18.7455   28.5089 O   0  0  0  0  0  0  0  0  0  0  0  0
   12.0430  -16.9613   24.0377 C   0  0  0  0  0  0  0  0  0  0  0  0
   13.3767  -16.9007   24.3943 O   0  0  0  0  0  0  0  0  0  0  0  0
   11.9484  -18.9100   28.0540 O   0  0  0  0  0  0  0  0  0  0  0  0
   11.7277  -17.6849   23.0635 O   0  0  0  0  0  0  0  0  0  0  0  0
  1  2  1  0
  2  3  2  0
  4  2  1  0
  4  5  1  0
  6  5  1  0
  6  8  1  0
  6  7  1  1
  8 10  1  0
  9  8  2  0
 10 11  1  0
 12 11  1  0
 12 13  2  0
 14 12  1  0
 15 14  1  0
 15 20  1  0
 15 16  1  1
 17 18  1  0
 17 16  1  0
 18 22  1  0
 18 19  2  0
 20 23  2  0
 20 21  1  0
M  END
$$$$
