QGE.pdb
     RDKit          3D

 23 22  0  0  1  0  0  0  0  0999 V2000
    7.2732  -12.3331   18.0685 N   0  0  0  0  0  0  0  0  0  0  0  0
    7.4807  -13.4836   17.2448 C   0  0  0  0  0  0  0  0  0  0  0  0
    6.8422  -13.4324   16.1382 O   0  0  0  0  0  0  0  0  0  0  0  0
    8.3344  -14.6012   17.6390 C   0  0  0  0  0  0  0  0  0  0  0  0
    9.1108  -14.4317   18.9035 C   0  0  0  0  0  0  0  0  0  0  0  0
    8.9559  -15.5310   19.9112 C   0  0  2  0  0  0  0  0  0  0  0  0
    8.0441  -16.5685   19.5118 N   0  0  0  0  0  0  0  0  0  0  0  0
    8.6337  -15.0488   21.2453 C   0  0  0  0  0  0  0  0  0  0  0  0
    9.4047  -14.1571   21.7412 O   0  0  0  0  0  0  0  0  0  0  0  0
    7.5396  -15.5126   21.9823 N   0  0  0  0  0  0  0  0  0  0  0  0
    7.2698  -15.0219   23.3193 C   0  0  0  0  0  0  0  0  0  0  0  0
    7.7636  -16.0709   24.2817 C   0  0  0  0  0  0  0  0  0  0  0  0
    7.0617  -17.0710   24.5843 O   0  0  0  0  0  0  0  0  0  0  0  0
    9.0405  -15.9433   24.8660 N   0  0  0  0  0  0  0  0  0  0  0  0
    9.7323  -17.1269   25.4406 C   0  0  1  0  0  0  0  0  0  0  0  0
   10.9114  -17.3174   24.5545 C   0  0  0  0  0  0  0  0  0  0  0  0
   12.2436  -17.5135   25.1489 C   0  0  0  0  0  0  0  0  0  0  0  0
   13.3462  -17.7244   24.2164 C   0  0  0  0  0  0  0  0  0  0  0  0
   13.1628  -17.7265   22.9822 O   0  0  0  0  0  0  0  0  0  0  0  0
    9.9240  -16.8778   26.8544 C   0  0  0  0  0  0  0  0  0  0  0  0
   10.3234  -17.8906   27.7055 O   0  0  0  0  0  0  0  0  0  0  0  0
   14.6210  -17.9253   24.7351 O   0  0  0  0  0  0  0  0  0  0  0  0
    9.7334  -15.7396   27.3444 O   0  0  0  0  0  0  0  0  0  0  0  0
  1  2  1  0
  2  3  2  0
  4  2  1  0
  4  5  1  0
  6  5  1  0
  6  8  1  0
  6  7  1  6
  8 10  1  0
  9  8  2  0
 10 11  1  0
 12 11  1  0
 12 13  2  0
 14 12  1  0
 15 14  1  0
 15 20  1  0
 15 16  1  6
 17 18  1  0
 17 16  1  0
 18 22  1  0
 18 19  2  0
 20 23  2  0
 20 21  1  0
M  END
$$$$
