QGE.pdb
     RDKit          3D

 23 22  0  0  1  0  0  0  0  0999 V2000
   13.0985  -19.8837   13.2466 N   0  0  0  0  0  0  0  0  0  0  0  0
   12.3820  -20.3592   14.3893 C   0  0  0  0  0  0  0  0  0  0  0  0
   11.4163  -21.1414   14.0884 O   0  0  0  0  0  0  0  0  0  0  0  0
   12.7240  -19.9802   15.7577 C   0  0  0  0  0  0  0  0  0  0  0  0
   13.8402  -19.0008   15.9176 C   0  0  0  0  0  0  0  0  0  0  0  0
   14.8095  -19.2979   17.0222 C   0  0  2  0  0  0  0  0  0  0  0  0
   14.4640  -20.4485   17.8121 N   0  0  0  0  0  0  0  0  0  0  0  0
   15.0804  -18.1511   17.8752 C   0  0  0  0  0  0  0  0  0  0  0  0
   15.5520  -17.1060   17.3089 O   0  0  0  0  0  0  0  0  0  0  0  0
   14.8476  -18.1520   19.2540 N   0  0  0  0  0  0  0  0  0  0  0  0
   15.0983  -16.9742   20.0609 C   0  0  0  0  0  0  0  0  0  0  0  0
   15.9645  -17.4070   21.2154 C   0  0  0  0  0  0  0  0  0  0  0  0
   16.1131  -18.6220   21.5090 O   0  0  0  0  0  0  0  0  0  0  0  0
   16.6311  -16.4398   21.9953 N   0  0  0  0  0  0  0  0  0  0  0  0
   17.4713  -16.8471   23.1518 C   0  0  1  0  0  0  0  0  0  0  0  0
   18.4271  -15.7195   23.3146 C   0  0  0  0  0  0  0  0  0  0  0  0
   19.3190  -15.3558   22.2015 C   0  0  0  0  0  0  0  0  0  0  0  0
   20.2149  -14.2266   22.4295 C   0  0  0  0  0  0  0  0  0  0  0  0
   20.2412  -13.6278   23.5239 O   0  0  0  0  0  0  0  0  0  0  0  0
   16.5799  -17.2008   24.2371 C   0  0  0  0  0  0  0  0  0  0  0  0
   15.2421  -16.8566   24.1973 O   0  0  0  0  0  0  0  0  0  0  0  0
   21.0495  -13.8253   21.3918 O   0  0  0  0  0  0  0  0  0  0  0  0
   16.9957  -17.8273   25.2404 O   0  0  0  0  0  0  0  0  0  0  0  0
  1  2  1  0
  2  3  2  0
  4  2  1  0
  4  5  1  0
  6  5  1  0
  6  8  1  0
  6  7  1  1
  8 10  1  0
  9  8  2  0
 10 11  1  0
 12 11  1  0
 12 13  2  0
 14 12  1  0
 15 14  1  0
 15 20  1  0
 15 16  1  1
 17 18  1  0
 17 16  1  0
 18 22  1  0
 18 19  2  0
 20 23  2  0
 20 21  1  0
M  END
$$$$
