QGE.pdb
     RDKit          3D

 23 22  0  0  1  0  0  0  0  0999 V2000
    9.3006  -16.7140   15.5142 N   0  0  0  0  0  0  0  0  0  0  0  0
    8.4830  -17.8736   15.3350 C   0  0  0  0  0  0  0  0  0  0  0  0
    8.7267  -18.4979   14.2461 O   0  0  0  0  0  0  0  0  0  0  0  0
    7.4715  -18.2916   16.3022 C   0  0  0  0  0  0  0  0  0  0  0  0
    7.3025  -17.4232   17.5054 C   0  0  0  0  0  0  0  0  0  0  0  0
    7.9657  -17.9144   18.7573 C   0  0  2  0  0  0  0  0  0  0  0  0
    7.0488  -18.3713   19.7662 N   0  0  0  0  0  0  0  0  0  0  0  0
    8.9151  -16.9651   19.3172 C   0  0  0  0  0  0  0  0  0  0  0  0
    9.9257  -16.6615   18.5947 O   0  0  0  0  0  0  0  0  0  0  0  0
    8.7636  -16.3881   20.5818 N   0  0  0  0  0  0  0  0  0  0  0  0
    9.7455  -15.4614   21.1093 C   0  0  0  0  0  0  0  0  0  0  0  0
   10.8121  -16.2854   21.7830 C   0  0  0  0  0  0  0  0  0  0  0  0
   10.5850  -17.4565   22.1849 O   0  0  0  0  0  0  0  0  0  0  0  0
   12.1005  -15.7459   21.9751 N   0  0  0  0  0  0  0  0  0  0  0  0
   13.1704  -16.5511   22.6207 C   0  0  1  0  0  0  0  0  0  0  0  0
   14.4202  -16.0686   21.9752 C   0  0  0  0  0  0  0  0  0  0  0  0
   14.3975  -14.8284   21.1828 C   0  0  0  0  0  0  0  0  0  0  0  0
   15.6641  -14.4144   20.5879 C   0  0  0  0  0  0  0  0  0  0  0  0
   15.7476  -14.1130   19.3799 O   0  0  0  0  0  0  0  0  0  0  0  0
   13.0044  -16.4297   24.0543 C   0  0  0  0  0  0  0  0  0  0  0  0
   12.0166  -15.6244   24.5886 O   0  0  0  0  0  0  0  0  0  0  0  0
   16.7905  -14.3613   21.4021 O   0  0  0  0  0  0  0  0  0  0  0  0
   13.7502  -17.0500   24.8487 O   0  0  0  0  0  0  0  0  0  0  0  0
  1  2  1  0
  2  3  2  0
  4  2  1  0
  4  5  1  0
  6  5  1  0
  6  8  1  0
  6  7  1  1
  8 10  1  0
  9  8  2  0
 10 11  1  0
 12 11  1  0
 12 13  2  0
 14 12  1  0
 15 14  1  0
 15 20  1  0
 15 16  1  1
 17 18  1  0
 17 16  1  0
 18 22  1  0
 18 19  2  0
 20 23  2  0
 20 21  1  0
M  END
$$$$
