QGE.pdb
     RDKit          3D

 23 22  0  0  1  0  0  0  0  0999 V2000
    3.5235  -19.7032   19.3283 N   0  0  0  0  0  0  0  0  0  0  0  0
    2.6738  -19.3132   20.4104 C   0  0  0  0  0  0  0  0  0  0  0  0
    1.6962  -20.1158   20.5974 O   0  0  0  0  0  0  0  0  0  0  0  0
    2.9055  -18.1146   21.2123 C   0  0  0  0  0  0  0  0  0  0  0  0
    4.0276  -17.2300   20.7777 C   0  0  0  0  0  0  0  0  0  0  0  0
    5.3859  -17.6087   21.2874 C   0  0  2  0  0  0  0  0  0  0  0  0
    5.7141  -18.9969   21.1066 N   0  0  0  0  0  0  0  0  0  0  0  0
    5.6196  -17.2001   22.6638 C   0  0  0  0  0  0  0  0  0  0  0  0
    5.3549  -15.9846   22.9604 O   0  0  0  0  0  0  0  0  0  0  0  0
    6.1081  -18.0670   23.6462 N   0  0  0  0  0  0  0  0  0  0  0  0
    6.2661  -17.6350   25.0207 C   0  0  0  0  0  0  0  0  0  0  0  0
    7.7349  -17.7251   25.3450 C   0  0  0  0  0  0  0  0  0  0  0  0
    8.5866  -18.0248   24.4679 O   0  0  0  0  0  0  0  0  0  0  0  0
    8.1818  -17.4705   26.6578 N   0  0  0  0  0  0  0  0  0  0  0  0
    9.6320  -17.4968   26.9829 C   0  0  1  0  0  0  0  0  0  0  0  0
    9.8606  -16.2163   27.7035 C   0  0  0  0  0  0  0  0  0  0  0  0
    9.4337  -14.9492   27.0880 C   0  0  0  0  0  0  0  0  0  0  0  0
    9.6697  -13.7373   27.8659 C   0  0  0  0  0  0  0  0  0  0  0  0
   10.2016  -13.7817   28.9939 O   0  0  0  0  0  0  0  0  0  0  0  0
    9.9098  -18.7562   27.6420 C   0  0  0  0  0  0  0  0  0  0  0  0
   11.2093  -19.1863   27.8318 O   0  0  0  0  0  0  0  0  0  0  0  0
    9.2863  -12.5167   27.3203 O   0  0  0  0  0  0  0  0  0  0  0  0
    8.9816  -19.4895   28.0576 O   0  0  0  0  0  0  0  0  0  0  0  0
  1  2  1  0
  2  3  2  0
  4  2  1  0
  4  5  1  0
  6  5  1  0
  6  8  1  0
  6  7  1  1
  8 10  1  0
  9  8  2  0
 10 11  1  0
 12 11  1  0
 12 13  2  0
 14 12  1  0
 15 14  1  0
 15 20  1  0
 15 16  1  1
 17 18  1  0
 17 16  1  0
 18 22  1  0
 18 19  2  0
 20 23  2  0
 20 21  1  0
M  END
$$$$
