QGE.pdb
     RDKit          3D

 23 22  0  0  1  0  0  0  0  0999 V2000
    6.6665  -12.5996   19.0930 N   0  0  0  0  0  0  0  0  0  0  0  0
    7.8255  -12.7257   19.9213 C   0  0  0  0  0  0  0  0  0  0  0  0
    7.8487  -11.8866   20.8858 O   0  0  0  0  0  0  0  0  0  0  0  0
    8.8735  -13.7137   19.6788 C   0  0  0  0  0  0  0  0  0  0  0  0
    8.6199  -14.6977   18.5844 C   0  0  0  0  0  0  0  0  0  0  0  0
    9.6420  -15.7853   18.4413 C   0  0  2  0  0  0  0  0  0  0  0  0
    9.9137  -16.4988   19.6596 N   0  0  0  0  0  0  0  0  0  0  0  0
   10.8791  -15.3358   17.8219 C   0  0  0  0  0  0  0  0  0  0  0  0
   10.7984  -14.8816   16.6291 O   0  0  0  0  0  0  0  0  0  0  0  0
   12.1181  -15.3803   18.4686 N   0  0  0  0  0  0  0  0  0  0  0  0
   12.9949  -14.2264   18.4966 C   0  0  0  0  0  0  0  0  0  0  0  0
   13.8296  -14.3373   19.7461 C   0  0  0  0  0  0  0  0  0  0  0  0
   14.7883  -13.5529   19.9705 O   0  0  0  0  0  0  0  0  0  0  0  0
   13.5428  -15.3386   20.6965 N   0  0  0  0  0  0  0  0  0  0  0  0
   14.2935  -15.4043   21.9778 C   0  0  1  0  0  0  0  0  0  0  0  0
   13.2416  -15.6650   22.9961 C   0  0  0  0  0  0  0  0  0  0  0  0
   12.4931  -16.9319   22.9604 C   0  0  0  0  0  0  0  0  0  0  0  0
   11.5874  -17.1829   24.0769 C   0  0  0  0  0  0  0  0  0  0  0  0
   11.5999  -16.4661   25.0982 O   0  0  0  0  0  0  0  0  0  0  0  0
   15.3779  -16.3481   21.8014 C   0  0  0  0  0  0  0  0  0  0  0  0
   16.3206  -16.5392   22.7936 O   0  0  0  0  0  0  0  0  0  0  0  0
   10.6991  -18.2488   23.9804 O   0  0  0  0  0  0  0  0  0  0  0  0
   15.4914  -17.0162   20.7465 O   0  0  0  0  0  0  0  0  0  0  0  0
  1  2  1  0
  2  3  2  0
  4  2  1  0
  4  5  1  0
  6  5  1  0
  6  8  1  0
  6  7  1  1
  8 10  1  0
  9  8  2  0
 10 11  1  0
 12 11  1  0
 12 13  2  0
 14 12  1  0
 15 14  1  0
 15 20  1  0
 15 16  1  1
 17 18  1  0
 17 16  1  0
 18 22  1  0
 18 19  2  0
 20 23  2  0
 20 21  1  0
M  END
$$$$
