QGE.pdb
     RDKit          3D

 23 22  0  0  1  0  0  0  0  0999 V2000
    9.2414  -12.5591   16.9536 N   0  0  0  0  0  0  0  0  0  0  0  0
    7.9678  -13.1851   16.7766 C   0  0  0  0  0  0  0  0  0  0  0  0
    7.8807  -13.8500   15.6879 O   0  0  0  0  0  0  0  0  0  0  0  0
    6.8813  -13.0670   17.7454 C   0  0  0  0  0  0  0  0  0  0  0  0
    7.1654  -13.5584   19.1269 C   0  0  0  0  0  0  0  0  0  0  0  0
    8.1202  -14.7107   19.2211 C   0  0  2  0  0  0  0  0  0  0  0  0
    7.7765  -15.8272   18.3829 N   0  0  0  0  0  0  0  0  0  0  0  0
    8.3623  -15.1484   20.5871 C   0  0  0  0  0  0  0  0  0  0  0  0
    8.6384  -14.2420   21.4459 O   0  0  0  0  0  0  0  0  0  0  0  0
    8.3032  -16.4884   20.9822 N   0  0  0  0  0  0  0  0  0  0  0  0
    8.3774  -16.8654   22.3799 C   0  0  0  0  0  0  0  0  0  0  0  0
    9.7999  -16.6395   22.8224 C   0  0  0  0  0  0  0  0  0  0  0  0
   10.5978  -15.9396   22.1456 O   0  0  0  0  0  0  0  0  0  0  0  0
   10.2636  -17.2192   24.0212 N   0  0  0  0  0  0  0  0  0  0  0  0
   11.5642  -16.8046   24.6096 C   0  0  1  0  0  0  0  0  0  0  0  0
   11.3000  -16.7692   26.0727 C   0  0  0  0  0  0  0  0  0  0  0  0
   11.3559  -18.0165   26.8521 C   0  0  0  0  0  0  0  0  0  0  0  0
   11.2183  -17.8850   28.2990 C   0  0  0  0  0  0  0  0  0  0  0  0
   11.8340  -17.0044   28.9335 O   0  0  0  0  0  0  0  0  0  0  0  0
   12.5844  -17.6862   24.0810 C   0  0  0  0  0  0  0  0  0  0  0  0
   13.9241  -17.3629   24.1833 O   0  0  0  0  0  0  0  0  0  0  0  0
   10.3779  -18.7699   28.9660 O   0  0  0  0  0  0  0  0  0  0  0  0
   12.2816  -18.7644   23.5172 O   0  0  0  0  0  0  0  0  0  0  0  0
  1  2  1  0
  2  3  2  0
  4  2  1  0
  4  5  1  0
  6  5  1  0
  6  8  1  0
  6  7  1  6
  8 10  1  0
  9  8  2  0
 10 11  1  0
 12 11  1  0
 12 13  2  0
 14 12  1  0
 15 14  1  0
 15 20  1  0
 15 16  1  1
 17 18  1  0
 17 16  1  0
 18 22  1  0
 18 19  2  0
 20 23  2  0
 20 21  1  0
M  END
$$$$
