QGE.pdb
     RDKit          3D

 23 22  0  0  1  0  0  0  0  0999 V2000
    8.0942  -12.3035   18.2250 N   0  0  0  0  0  0  0  0  0  0  0  0
    8.0833  -13.5268   17.4841 C   0  0  0  0  0  0  0  0  0  0  0  0
    8.9535  -13.5559   16.5478 O   0  0  0  0  0  0  0  0  0  0  0  0
    7.1639  -14.6242   17.7731 C   0  0  0  0  0  0  0  0  0  0  0  0
    6.7991  -14.8265   19.2072 C   0  0  0  0  0  0  0  0  0  0  0  0
    7.9424  -14.7970   20.1768 C   0  0  2  0  0  0  0  0  0  0  0  0
    9.1162  -15.4910   19.7209 N   0  0  0  0  0  0  0  0  0  0  0  0
    7.5745  -15.2330   21.5150 C   0  0  0  0  0  0  0  0  0  0  0  0
    6.3283  -15.2348   21.8019 O   0  0  0  0  0  0  0  0  0  0  0  0
    8.5106  -15.6404   22.4706 N   0  0  0  0  0  0  0  0  0  0  0  0
    8.0971  -16.0999   23.7817 C   0  0  0  0  0  0  0  0  0  0  0  0
    9.3465  -16.5008   24.5225 C   0  0  0  0  0  0  0  0  0  0  0  0
   10.4832  -16.4261   23.9871 O   0  0  0  0  0  0  0  0  0  0  0  0
    9.2567  -16.9731   25.8480 N   0  0  0  0  0  0  0  0  0  0  0  0
   10.4845  -17.2293   26.6457 C   0  0  1  0  0  0  0  0  0  0  0  0
   10.3831  -16.2695   27.7771 C   0  0  0  0  0  0  0  0  0  0  0  0
    9.9144  -14.8969   27.5264 C   0  0  0  0  0  0  0  0  0  0  0  0
    9.8792  -14.0020   28.6786 C   0  0  0  0  0  0  0  0  0  0  0  0
   10.1860  -14.3999   29.8208 O   0  0  0  0  0  0  0  0  0  0  0  0
   10.5462  -18.6522   26.9089 C   0  0  0  0  0  0  0  0  0  0  0  0
   11.7287  -19.2508   27.3001 O   0  0  0  0  0  0  0  0  0  0  0  0
    9.4927  -12.6811   28.4778 O   0  0  0  0  0  0  0  0  0  0  0  0
    9.5314  -19.3787   26.7894 O   0  0  0  0  0  0  0  0  0  0  0  0
  1  2  1  0
  2  3  2  0
  4  2  1  0
  4  5  1  0
  6  5  1  0
  6  8  1  0
  6  7  1  6
  8 10  1  0
  9  8  2  0
 10 11  1  0
 12 11  1  0
 12 13  2  0
 14 12  1  0
 15 14  1  0
 15 20  1  0
 15 16  1  1
 17 18  1  0
 17 16  1  0
 18 22  1  0
 18 19  2  0
 20 23  2  0
 20 21  1  0
M  END
$$$$
