QGE.pdb
     RDKit          3D

 23 22  0  0  1  0  0  0  0  0999 V2000
   -4.6225  -18.1290   20.5940 N   0  0  0  0  0  0  0  0  0  0  0  0
   -3.8426  -19.3160   20.7609 C   0  0  0  0  0  0  0  0  0  0  0  0
   -3.4229  -19.8022   19.6553 O   0  0  0  0  0  0  0  0  0  0  0  0
   -3.5630  -19.9077   22.0667 C   0  0  0  0  0  0  0  0  0  0  0  0
   -4.1651  -19.2235   23.2498 C   0  0  0  0  0  0  0  0  0  0  0  0
   -3.9401  -19.8959   24.5709 C   0  0  2  0  0  0  0  0  0  0  0  0
   -2.9186  -20.9074   24.5478 N   0  0  0  0  0  0  0  0  0  0  0  0
   -5.1610  -20.4117   25.1705 C   0  0  0  0  0  0  0  0  0  0  0  0
   -6.1401  -19.5969   25.2841 O   0  0  0  0  0  0  0  0  0  0  0  0
   -5.2973  -21.7313   25.6125 N   0  0  0  0  0  0  0  0  0  0  0  0
   -6.5271  -22.1985   26.2209 C   0  0  0  0  0  0  0  0  0  0  0  0
   -6.3529  -22.0815   27.7131 C   0  0  0  0  0  0  0  0  0  0  0  0
   -5.3307  -21.5476   28.2177 O   0  0  0  0  0  0  0  0  0  0  0  0
   -7.3499  -22.5771   28.5782 N   0  0  0  0  0  0  0  0  0  0  0  0
   -7.1746  -22.5109   30.0528 C   0  0  1  0  0  0  0  0  0  0  0  0
   -8.5657  -22.4936   30.5782 C   0  0  0  0  0  0  0  0  0  0  0  0
   -9.3881  -23.7118   30.4989 C   0  0  0  0  0  0  0  0  0  0  0  0
  -10.7386  -23.6203   31.0442 C   0  0  0  0  0  0  0  0  0  0  0  0
  -11.1423  -22.5847   31.6113 O   0  0  0  0  0  0  0  0  0  0  0  0
   -6.2715  -23.5769   30.4343 C   0  0  0  0  0  0  0  0  0  0  0  0
   -5.9622  -24.5946   29.5520 O   0  0  0  0  0  0  0  0  0  0  0  0
  -11.5780  -24.7222   30.9187 O   0  0  0  0  0  0  0  0  0  0  0  0
   -5.7465  -23.6064   31.5725 O   0  0  0  0  0  0  0  0  0  0  0  0
  1  2  1  0
  2  3  2  0
  4  2  1  0
  4  5  1  0
  6  5  1  0
  6  8  1  0
  6  7  1  6
  8 10  1  0
  9  8  2  0
 10 11  1  0
 12 11  1  0
 12 13  2  0
 14 12  1  0
 15 14  1  0
 15 20  1  0
 15 16  1  1
 17 18  1  0
 17 16  1  0
 18 22  1  0
 18 19  2  0
 20 23  2  0
 20 21  1  0
M  END
$$$$
