QGE.pdb
     RDKit          3D

 23 22  0  0  1  0  0  0  0  0999 V2000
    7.9249  -12.0395   20.3407 N   0  0  0  0  0  0  0  0  0  0  0  0
    8.2066  -13.0428   19.3613 C   0  0  0  0  0  0  0  0  0  0  0  0
    9.1700  -12.7285   18.5815 O   0  0  0  0  0  0  0  0  0  0  0  0
    7.4605  -14.2948   19.2668 C   0  0  0  0  0  0  0  0  0  0  0  0
    8.2515  -15.5173   18.9346 C   0  0  0  0  0  0  0  0  0  0  0  0
    7.8502  -16.7659   19.6613 C   0  0  2  0  0  0  0  0  0  0  0  0
    6.7657  -17.4806   19.0445 N   0  0  0  0  0  0  0  0  0  0  0  0
    7.5855  -16.5500   21.0753 C   0  0  0  0  0  0  0  0  0  0  0  0
    6.6569  -15.7219   21.3713 O   0  0  0  0  0  0  0  0  0  0  0  0
    8.2905  -17.1999   22.0930 N   0  0  0  0  0  0  0  0  0  0  0  0
    7.9161  -17.0467   23.4849 C   0  0  0  0  0  0  0  0  0  0  0  0
    9.1925  -16.8869   24.2697 C   0  0  0  0  0  0  0  0  0  0  0  0
   10.3136  -16.8282   23.7003 O   0  0  0  0  0  0  0  0  0  0  0  0
    9.1466  -16.7995   25.6762 N   0  0  0  0  0  0  0  0  0  0  0  0
   10.3993  -16.7026   26.4705 C   0  0  1  0  0  0  0  0  0  0  0  0
   10.1135  -15.6301   27.4602 C   0  0  0  0  0  0  0  0  0  0  0  0
    9.5022  -14.3691   27.0097 C   0  0  0  0  0  0  0  0  0  0  0  0
    9.2286  -13.3747   28.0422 C   0  0  0  0  0  0  0  0  0  0  0  0
    9.6103  -13.5372   29.2191 O   0  0  0  0  0  0  0  0  0  0  0  0
   10.7323  -18.0363   26.9265 C   0  0  0  0  0  0  0  0  0  0  0  0
   11.9894  -18.3228   27.4240 O   0  0  0  0  0  0  0  0  0  0  0  0
    8.5261  -12.2285   27.6861 O   0  0  0  0  0  0  0  0  0  0  0  0
    9.8919  -18.9657   26.8830 O   0  0  0  0  0  0  0  0  0  0  0  0
  1  2  1  0
  2  3  2  0
  4  2  1  0
  4  5  1  0
  6  5  1  0
  6  8  1  0
  6  7  1  6
  8 10  1  0
  9  8  2  0
 10 11  1  0
 12 11  1  0
 12 13  2  0
 14 12  1  0
 15 14  1  0
 15 20  1  0
 15 16  1  1
 17 18  1  0
 17 16  1  0
 18 22  1  0
 18 19  2  0
 20 23  2  0
 20 21  1  0
M  END
$$$$
