QGE.pdb
     RDKit          3D

 23 22  0  0  1  0  0  0  0  0999 V2000
    0.4329  -20.5753   19.8875 N   0  0  0  0  0  0  0  0  0  0  0  0
   -0.2718  -20.6401   21.1302 C   0  0  0  0  0  0  0  0  0  0  0  0
   -1.2296  -21.4871   21.1222 O   0  0  0  0  0  0  0  0  0  0  0  0
    0.0728  -19.8145   22.2847 C   0  0  0  0  0  0  0  0  0  0  0  0
    1.2364  -18.8928   22.1200 C   0  0  0  0  0  0  0  0  0  0  0  0
    2.5875  -19.5415   22.1603 C   0  0  2  0  0  0  0  0  0  0  0  0
    2.7951  -20.3938   23.2995 N   0  0  0  0  0  0  0  0  0  0  0  0
    3.6848  -18.5971   22.0180 C   0  0  0  0  0  0  0  0  0  0  0  0
    3.6994  -17.8809   20.9586 O   0  0  0  0  0  0  0  0  0  0  0  0
    4.6945  -18.4486   22.9739 N   0  0  0  0  0  0  0  0  0  0  0  0
    5.7347  -17.4507   22.8217 C   0  0  0  0  0  0  0  0  0  0  0  0
    6.5851  -17.5073   24.0644 C   0  0  0  0  0  0  0  0  0  0  0  0
    6.1455  -17.1299   25.1820 O   0  0  0  0  0  0  0  0  0  0  0  0
    7.9070  -17.9921   23.9901 N   0  0  0  0  0  0  0  0  0  0  0  0
    8.7755  -18.0120   25.1963 C   0  0  1  0  0  0  0  0  0  0  0  0
    8.0111  -18.8309   26.1743 C   0  0  0  0  0  0  0  0  0  0  0  0
    8.1200  -20.2983   26.1364 C   0  0  0  0  0  0  0  0  0  0  0  0
    7.5303  -21.0226   27.2578 C   0  0  0  0  0  0  0  0  0  0  0  0
    7.1791  -20.4332   28.3001 O   0  0  0  0  0  0  0  0  0  0  0  0
   10.0963  -18.4334   24.7773 C   0  0  0  0  0  0  0  0  0  0  0  0
   11.1704  -18.3674   25.6443 O   0  0  0  0  0  0  0  0  0  0  0  0
    7.3647  -22.3986   27.1419 O   0  0  0  0  0  0  0  0  0  0  0  0
   10.3017  -18.8687   23.6196 O   0  0  0  0  0  0  0  0  0  0  0  0
  1  2  1  0
  2  3  2  0
  4  2  1  0
  4  5  1  0
  6  5  1  0
  6  8  1  0
  6  7  1  1
  8 10  1  0
  9  8  2  0
 10 11  1  0
 12 11  1  0
 12 13  2  0
 14 12  1  0
 15 14  1  0
 15 20  1  0
 15 16  1  1
 17 18  1  0
 17 16  1  0
 18 22  1  0
 18 19  2  0
 20 23  2  0
 20 21  1  0
M  END
$$$$
