QGE.pdb
     RDKit          3D

 23 22  0  0  1  0  0  0  0  0999 V2000
    5.5864  -12.3289   26.3611 N   0  0  0  0  0  0  0  0  0  0  0  0
    6.8123  -13.0512   26.5057 C   0  0  0  0  0  0  0  0  0  0  0  0
    7.5334  -12.6301   27.4740 O   0  0  0  0  0  0  0  0  0  0  0  0
    7.1946  -14.1541   25.6279 C   0  0  0  0  0  0  0  0  0  0  0  0
    6.1956  -14.5587   24.5941 C   0  0  0  0  0  0  0  0  0  0  0  0
    6.5764  -15.7396   23.7523 C   0  0  2  0  0  0  0  0  0  0  0  0
    6.5972  -16.9870   24.4671 N   0  0  0  0  0  0  0  0  0  0  0  0
    7.8169  -15.5474   23.0173 C   0  0  0  0  0  0  0  0  0  0  0  0
    7.9308  -14.4653   22.3453 O   0  0  0  0  0  0  0  0  0  0  0  0
    8.8602  -16.4784   23.0218 N   0  0  0  0  0  0  0  0  0  0  0  0
   10.1514  -16.1652   22.4422 C   0  0  0  0  0  0  0  0  0  0  0  0
   11.1846  -16.4039   23.5128 C   0  0  0  0  0  0  0  0  0  0  0  0
   12.4033  -16.1539   23.3205 O   0  0  0  0  0  0  0  0  0  0  0  0
   10.7929  -16.9193   24.7653 N   0  0  0  0  0  0  0  0  0  0  0  0
   11.8067  -17.2323   25.8064 C   0  0  1  0  0  0  0  0  0  0  0  0
   11.2437  -16.6335   27.0457 C   0  0  0  0  0  0  0  0  0  0  0  0
   11.0841  -15.1733   27.1403 C   0  0  0  0  0  0  0  0  0  0  0  0
   10.4735  -14.6646   28.3642 C   0  0  0  0  0  0  0  0  0  0  0  0
   10.2434  -15.4129   29.3359 O   0  0  0  0  0  0  0  0  0  0  0  0
   12.0700  -18.6552   25.7467 C   0  0  0  0  0  0  0  0  0  0  0  0
   13.0641  -19.2259   26.5185 O   0  0  0  0  0  0  0  0  0  0  0  0
   10.1488  -13.3138   28.4286 O   0  0  0  0  0  0  0  0  0  0  0  0
   11.4052  -19.4071   24.9951 O   0  0  0  0  0  0  0  0  0  0  0  0
  1  2  1  0
  2  3  2  0
  4  2  1  0
  4  5  1  0
  6  5  1  0
  6  8  1  0
  6  7  1  1
  8 10  1  0
  9  8  2  0
 10 11  1  0
 12 11  1  0
 12 13  2  0
 14 12  1  0
 15 14  1  0
 15 20  1  0
 15 16  1  1
 17 18  1  0
 17 16  1  0
 18 22  1  0
 18 19  2  0
 20 23  2  0
 20 21  1  0
M  END
$$$$
