QGE.pdb
     RDKit          3D

 23 22  0  0  1  0  0  0  0  0999 V2000
    7.2685  -14.8377   16.2168 N   0  0  0  0  0  0  0  0  0  0  0  0
    7.9114  -13.9253   17.1109 C   0  0  0  0  0  0  0  0  0  0  0  0
    9.1718  -13.8333   16.9159 O   0  0  0  0  0  0  0  0  0  0  0  0
    7.1926  -13.1816   18.1421 C   0  0  0  0  0  0  0  0  0  0  0  0
    7.7928  -13.1914   19.5097 C   0  0  0  0  0  0  0  0  0  0  0  0
    8.0043  -14.5468   20.1147 C   0  0  2  0  0  0  0  0  0  0  0  0
    6.7894  -15.2752   20.3612 N   0  0  0  0  0  0  0  0  0  0  0  0
    8.8398  -14.5226   21.3053 C   0  0  0  0  0  0  0  0  0  0  0  0
   10.0298  -14.0744   21.1693 O   0  0  0  0  0  0  0  0  0  0  0  0
    8.3981  -14.9586   22.5583 N   0  0  0  0  0  0  0  0  0  0  0  0
    9.2560  -14.8912   23.7247 C   0  0  0  0  0  0  0  0  0  0  0  0
    9.9095  -16.2412   23.8698 C   0  0  0  0  0  0  0  0  0  0  0  0
    9.4620  -17.2575   23.2769 O   0  0  0  0  0  0  0  0  0  0  0  0
   11.0502  -16.3859   24.6857 N   0  0  0  0  0  0  0  0  0  0  0  0
   11.7210  -17.7053   24.8231 C   0  0  1  0  0  0  0  0  0  0  0  0
   13.0979  -17.4613   24.3170 C   0  0  0  0  0  0  0  0  0  0  0  0
   13.4682  -16.1210   23.8343 C   0  0  0  0  0  0  0  0  0  0  0  0
   14.8258  -15.9676   23.3213 C   0  0  0  0  0  0  0  0  0  0  0  0
   15.8207  -16.1135   24.0603 O   0  0  0  0  0  0  0  0  0  0  0  0
   11.5213  -18.1580   26.1842 C   0  0  0  0  0  0  0  0  0  0  0  0
   10.9179  -17.3419   27.1221 O   0  0  0  0  0  0  0  0  0  0  0  0
   14.9925  -15.6520   21.9771 O   0  0  0  0  0  0  0  0  0  0  0  0
   11.8893  -19.2997   26.5489 O   0  0  0  0  0  0  0  0  0  0  0  0
  1  2  1  0
  2  3  2  0
  4  2  1  0
  4  5  1  0
  6  5  1  0
  6  8  1  0
  6  7  1  1
  8 10  1  0
  9  8  2  0
 10 11  1  0
 12 11  1  0
 12 13  2  0
 14 12  1  0
 15 14  1  0
 15 20  1  0
 15 16  1  1
 17 18  1  0
 17 16  1  0
 18 22  1  0
 18 19  2  0
 20 23  2  0
 20 21  1  0
M  END
$$$$
