QGE.pdb
     RDKit          3D

 23 22  0  0  1  0  0  0  0  0999 V2000
    7.6762  -12.7835   16.9530 N   0  0  0  0  0  0  0  0  0  0  0  0
    7.6883  -14.0434   16.2765 C   0  0  0  0  0  0  0  0  0  0  0  0
    7.8797  -13.9367   15.0168 O   0  0  0  0  0  0  0  0  0  0  0  0
    7.4960  -15.3178   16.9637 C   0  0  0  0  0  0  0  0  0  0  0  0
    8.6923  -16.2060   17.0654 C   0  0  0  0  0  0  0  0  0  0  0  0
    8.8380  -16.9509   18.3585 C   0  0  2  0  0  0  0  0  0  0  0  0
    7.6018  -17.1439   19.0668 N   0  0  0  0  0  0  0  0  0  0  0  0
    9.8515  -16.3876   19.2371 C   0  0  0  0  0  0  0  0  0  0  0  0
   11.0332  -16.2749   18.7614 O   0  0  0  0  0  0  0  0  0  0  0  0
    9.5846  -15.9752   20.5463 N   0  0  0  0  0  0  0  0  0  0  0  0
   10.5739  -15.2585   21.3265 C   0  0  0  0  0  0  0  0  0  0  0  0
   11.3151  -16.2827   22.1464 C   0  0  0  0  0  0  0  0  0  0  0  0
   11.0037  -17.5020   22.1166 O   0  0  0  0  0  0  0  0  0  0  0  0
   12.3855  -15.8814   22.9717 N   0  0  0  0  0  0  0  0  0  0  0  0
   13.1666  -16.8853   23.7410 C   0  0  1  0  0  0  0  0  0  0  0  0
   14.5466  -16.3314   23.7543 C   0  0  0  0  0  0  0  0  0  0  0  0
   15.6666  -17.1578   23.2755 C   0  0  0  0  0  0  0  0  0  0  0  0
   16.9942  -16.5557   23.3448 C   0  0  0  0  0  0  0  0  0  0  0  0
   17.1578  -15.3866   23.7492 O   0  0  0  0  0  0  0  0  0  0  0  0
   12.4699  -17.1188   24.9890 C   0  0  0  0  0  0  0  0  0  0  0  0
   12.5581  -18.3381   25.6335 O   0  0  0  0  0  0  0  0  0  0  0  0
   18.0872  -17.3182   22.9470 O   0  0  0  0  0  0  0  0  0  0  0  0
   11.7691  -16.2239   25.5181 O   0  0  0  0  0  0  0  0  0  0  0  0
  1  2  1  0
  2  3  2  0
  4  2  1  0
  4  5  1  0
  6  5  1  0
  6  8  1  0
  6  7  1  1
  8 10  1  0
  9  8  2  0
 10 11  1  0
 12 11  1  0
 12 13  2  0
 14 12  1  0
 15 14  1  0
 15 20  1  0
 15 16  1  1
 17 18  1  0
 17 16  1  0
 18 22  1  0
 18 19  2  0
 20 23  2  0
 20 21  1  0
M  END
$$$$
