IFN.pdb
     RDKit          3D

 28 28  0  0  1  0  0  0  0  0999 V2000
    7.8748  -12.8003   17.3183 C   0  0  0  0  0  0  0  0  0  0  0  0
    7.9376  -14.0569   18.1609 C   0  0  0  0  0  0  0  0  0  0  0  0
    8.9345  -13.8231   19.2501 C   0  0  2  0  0  0  0  0  0  0  0  0
   10.2369  -13.3953   18.6125 C   0  0  0  0  0  0  0  0  0  0  0  0
    9.1723  -15.0068   20.1507 C   0  0  2  0  0  0  0  0  0  0  0  0
    8.0145  -15.8720   20.0538 N   0  0  0  0  0  0  0  0  0  0  0  0
    9.3989  -14.6517   21.5483 C   0  0  0  0  0  0  0  0  0  0  0  0
   10.4906  -14.2201   22.0043 O   0  0  0  0  0  0  0  0  0  0  0  0
    8.3359  -14.7924   22.4748 N   0  0  0  0  0  0  0  0  0  0  0  0
    8.3990  -14.3269   23.8520 C   0  0  1  0  0  0  0  0  0  0  0  0
    7.0373  -13.8329   24.2661 C   0  0  0  0  0  0  0  0  0  0  0  0
    6.9990  -13.1763   25.5722 C   0  0  0  0  0  0  0  0  0  0  0  0
    7.5963  -11.9526   25.8184 C   0  0  0  0  0  0  0  0  0  0  0  0
    7.5664  -11.3127   27.0254 C   0  0  0  0  0  0  0  0  0  0  0  0
    6.8935  -11.9228   28.0852 C   0  0  0  0  0  0  0  0  0  0  0  0
    6.2996  -13.1363   27.8452 C   0  0  0  0  0  0  0  0  0  0  0  0
    6.3355  -13.7689   26.6312 C   0  0  0  0  0  0  0  0  0  0  0  0
    8.8542  -15.4446   24.7071 C   0  0  0  0  0  0  0  0  0  0  0  0
    8.7852  -15.3827   25.9691 O   0  0  0  0  0  0  0  0  0  0  0  0
   10.5721  -20.1653   26.3209 N   0  0  0  0  0  0  0  0  0  0  0  0
   10.0903  -20.2274   24.9888 C   0  0  0  0  0  0  0  0  0  0  0  0
   10.0378  -21.3408   24.4258 O   0  0  0  0  0  0  0  0  0  0  0  0
    9.6653  -19.0172   24.2921 C   0  0  0  0  0  0  0  0  0  0  0  0
    9.8545  -17.7352   25.0332 C   0  0  2  0  0  0  0  0  0  0  0  0
    9.3951  -16.6525   24.1820 N   0  0  0  0  0  0  0  0  0  0  0  0
   11.2374  -17.5107   25.5030 C   0  0  0  0  0  0  0  0  0  0  0  0
   12.0668  -16.9379   24.7591 O   0  0  0  0  0  0  0  0  0  0  0  0
   11.6983  -17.9059   26.7595 O   0  0  0  0  0  0  0  0  0  0  0  0
  2  3  1  0
  2  1  1  0
  3  5  1  0
  3  4  1  6
  5  6  1  1
  7  8  2  0
  7  5  1  0
  9  7  1  0
 10  9  1  0
 10 11  1  1
 11 12  1  0
 12 13  2  0
 12 17  1  0
 13 14  1  0
 14 15  2  0
 16 15  1  0
 17 16  2  0
 18 10  1  0
 19 18  2  0
 20 21  1  0
 21 22  2  0
 21 23  1  0
 24 23  1  6
 24 26  1  0
 24 25  1  0
 25 18  1  0
 26 28  1  0
 27 26  2  0
M  END
$$$$
