IFN.pdb
     RDKit          3D

 28 28  0  0  1  0  0  0  0  0999 V2000
   10.6226  -20.4195   19.4113 C   0  0  0  0  0  0  0  0  0  0  0  0
    9.7226  -19.2225   19.1871 C   0  0  0  0  0  0  0  0  0  0  0  0
    9.9083  -18.2929   20.3430 C   0  0  2  0  0  0  0  0  0  0  0  0
    9.5948  -19.0517   21.6126 C   0  0  0  0  0  0  0  0  0  0  0  0
    9.0782  -17.0376   20.2811 C   0  0  2  0  0  0  0  0  0  0  0  0
    9.3752  -16.3761   19.0269 N   0  0  0  0  0  0  0  0  0  0  0  0
    9.3168  -16.1145   21.3864 C   0  0  0  0  0  0  0  0  0  0  0  0
   10.3832  -15.4656   21.5533 O   0  0  0  0  0  0  0  0  0  0  0  0
    8.2967  -15.9169   22.3500 N   0  0  0  0  0  0  0  0  0  0  0  0
    8.4493  -15.0720   23.5248 C   0  0  1  0  0  0  0  0  0  0  0  0
    7.1075  -14.4927   23.8905 C   0  0  0  0  0  0  0  0  0  0  0  0
    7.1061  -13.6796   25.1060 C   0  0  0  0  0  0  0  0  0  0  0  0
    7.7359  -12.4504   25.1914 C   0  0  0  0  0  0  0  0  0  0  0  0
    7.7410  -11.6664   26.3105 C   0  0  0  0  0  0  0  0  0  0  0  0
    7.0714  -12.1243   27.4463 C   0  0  0  0  0  0  0  0  0  0  0  0
    6.4453  -13.3425   27.3659 C   0  0  0  0  0  0  0  0  0  0  0  0
    6.4463  -14.1204   26.2388 C   0  0  0  0  0  0  0  0  0  0  0  0
    9.0054  -15.8897   24.6246 C   0  0  0  0  0  0  0  0  0  0  0  0
    8.4148  -16.9287   25.0407 O   0  0  0  0  0  0  0  0  0  0  0  0
   13.3316  -15.7346   24.0695 N   0  0  0  0  0  0  0  0  0  0  0  0
   12.7577  -16.7397   24.8885 C   0  0  0  0  0  0  0  0  0  0  0  0
   12.6975  -17.9059   24.4461 O   0  0  0  0  0  0  0  0  0  0  0  0
   12.2493  -16.4181   26.2184 C   0  0  0  0  0  0  0  0  0  0  0  0
   10.7636  -16.3873   26.3610 C   0  0  2  0  0  0  0  0  0  0  0  0
   10.2260  -15.5732   25.2859 N   0  0  0  0  0  0  0  0  0  0  0  0
   10.2960  -15.9226   27.6835 C   0  0  0  0  0  0  0  0  0  0  0  0
    9.3074  -16.4683   28.2260 O   0  0  0  0  0  0  0  0  0  0  0  0
   10.8997  -14.8837   28.3932 O   0  0  0  0  0  0  0  0  0  0  0  0
  2  3  1  0
  2  1  1  0
  3  5  1  0
  3  4  1  1
  5  6  1  6
  7  8  2  0
  7  5  1  0
  9  7  1  0
 10  9  1  0
 10 11  1  1
 11 12  1  0
 12 13  2  0
 12 17  1  0
 13 14  1  0
 14 15  2  0
 16 15  1  0
 17 16  2  0
 18 10  1  0
 19 18  2  0
 20 21  1  0
 21 22  2  0
 21 23  1  0
 24 23  1  1
 24 26  1  0
 24 25  1  0
 25 18  1  0
 26 28  1  0
 27 26  2  0
M  END
$$$$
