IFN.pdb
     RDKit          3D

 28 28  0  0  1  0  0  0  0  0999 V2000
    8.0427  -11.7885   19.6985 C   0  0  0  0  0  0  0  0  0  0  0  0
    7.6281  -13.0272   20.4646 C   0  0  0  0  0  0  0  0  0  0  0  0
    8.6901  -14.0603   20.2650 C   0  0  2  0  0  0  0  0  0  0  0  0
    8.6662  -14.4860   18.8145 C   0  0  0  0  0  0  0  0  0  0  0  0
    8.5664  -15.2701   21.1536 C   0  0  2  0  0  0  0  0  0  0  0  0
    7.3822  -15.9969   20.7438 N   0  0  0  0  0  0  0  0  0  0  0  0
    8.4753  -14.9537   22.5757 C   0  0  0  0  0  0  0  0  0  0  0  0
    8.1153  -13.8373   23.0341 O   0  0  0  0  0  0  0  0  0  0  0  0
    8.8082  -15.9516   23.5252 N   0  0  0  0  0  0  0  0  0  0  0  0
    8.5994  -15.8042   24.9576 C   0  0  1  0  0  0  0  0  0  0  0  0
    7.2014  -15.2976   25.2003 C   0  0  0  0  0  0  0  0  0  0  0  0
    7.1309  -13.9436   25.7483 C   0  0  0  0  0  0  0  0  0  0  0  0
    5.9734  -13.1854   25.7374 C   0  0  0  0  0  0  0  0  0  0  0  0
    5.8776  -11.9231   26.2518 C   0  0  0  0  0  0  0  0  0  0  0  0
    7.0135  -11.3515   26.8273 C   0  0  0  0  0  0  0  0  0  0  0  0
    8.1633  -12.1000   26.8404 C   0  0  0  0  0  0  0  0  0  0  0  0
    8.2483  -13.3648   26.3221 C   0  0  0  0  0  0  0  0  0  0  0  0
    8.8212  -17.1159   25.6039 C   0  0  0  0  0  0  0  0  0  0  0  0
    8.5557  -17.3044   26.8267 O   0  0  0  0  0  0  0  0  0  0  0  0
   12.4395  -19.4934   22.7433 N   0  0  0  0  0  0  0  0  0  0  0  0
   12.1656  -18.1031   22.7929 C   0  0  0  0  0  0  0  0  0  0  0  0
   12.6199  -17.3740   21.8866 O   0  0  0  0  0  0  0  0  0  0  0  0
   11.3704  -17.5377   23.8785 C   0  0  0  0  0  0  0  0  0  0  0  0
   10.7651  -18.5196   24.8261 C   0  0  2  0  0  0  0  0  0  0  0  0
    9.3420  -18.2446   24.9094 N   0  0  0  0  0  0  0  0  0  0  0  0
   11.3971  -18.5345   26.1617 C   0  0  0  0  0  0  0  0  0  0  0  0
   12.5584  -18.0888   26.3105 O   0  0  0  0  0  0  0  0  0  0  0  0
   10.7689  -19.0271   27.3063 O   0  0  0  0  0  0  0  0  0  0  0  0
  2  3  1  0
  2  1  1  0
  3  5  1  0
  3  4  1  6
  5  6  1  6
  7  8  2  0
  7  5  1  0
  9  7  1  0
 10  9  1  0
 10 11  1  6
 11 12  1  0
 12 13  2  0
 12 17  1  0
 13 14  1  0
 14 15  2  0
 16 15  1  0
 17 16  2  0
 18 10  1  0
 19 18  2  0
 20 21  1  0
 21 22  2  0
 21 23  1  0
 24 23  1  6
 24 26  1  0
 24 25  1  0
 25 18  1  0
 26 28  1  0
 27 26  2  0
M  END
$$$$
