IFN.pdb
     RDKit          3D

 28 28  0  0  1  0  0  0  0  0999 V2000
    7.4408  -12.6643   17.2612 C   0  0  0  0  0  0  0  0  0  0  0  0
    7.4986  -13.9753   18.0169 C   0  0  0  0  0  0  0  0  0  0  0  0
    8.2843  -13.7435   19.2674 C   0  0  2  0  0  0  0  0  0  0  0  0
    9.6496  -13.2249   18.8763 C   0  0  0  0  0  0  0  0  0  0  0  0
    8.4326  -14.9540   20.1513 C   0  0  2  0  0  0  0  0  0  0  0  0
    7.1690  -15.6623   20.1417 N   0  0  0  0  0  0  0  0  0  0  0  0
    8.8043  -14.6405   21.5277 C   0  0  0  0  0  0  0  0  0  0  0  0
    9.8907  -14.1004   21.8655 O   0  0  0  0  0  0  0  0  0  0  0  0
    7.9002  -14.9542   22.5728 N   0  0  0  0  0  0  0  0  0  0  0  0
    8.1967  -14.7547   23.9833 C   0  0  1  0  0  0  0  0  0  0  0  0
    6.9318  -14.3590   24.6998 C   0  0  0  0  0  0  0  0  0  0  0  0
    7.1393  -13.7784   26.0258 C   0  0  0  0  0  0  0  0  0  0  0  0
    7.6332  -14.5022   27.0968 C   0  0  0  0  0  0  0  0  0  0  0  0
    7.8464  -13.9819   28.3422 C   0  0  0  0  0  0  0  0  0  0  0  0
    7.5507  -12.6353   28.5599 C   0  0  0  0  0  0  0  0  0  0  0  0
    7.0610  -11.9138   27.5005 C   0  0  0  0  0  0  0  0  0  0  0  0
    6.8513  -12.4453   26.2559 C   0  0  0  0  0  0  0  0  0  0  0  0
    8.7599  -16.0089   24.5287 C   0  0  0  0  0  0  0  0  0  0  0  0
    8.1050  -17.0915   24.5096 O   0  0  0  0  0  0  0  0  0  0  0  0
   13.7936  -16.3783   25.2980 N   0  0  0  0  0  0  0  0  0  0  0  0
   12.7231  -16.6346   24.4043 C   0  0  0  0  0  0  0  0  0  0  0  0
   12.6216  -15.9293   23.3788 O   0  0  0  0  0  0  0  0  0  0  0  0
   11.7621  -17.6989   24.6771 C   0  0  0  0  0  0  0  0  0  0  0  0
   10.6263  -17.3400   25.5768 C   0  0  2  0  0  0  0  0  0  0  0  0
   10.0588  -16.0892   25.1064 N   0  0  0  0  0  0  0  0  0  0  0  0
   10.9912  -17.2698   27.0071 C   0  0  0  0  0  0  0  0  0  0  0  0
   11.5104  -18.2608   27.5707 O   0  0  0  0  0  0  0  0  0  0  0  0
   10.7905  -16.1386   27.7992 O   0  0  0  0  0  0  0  0  0  0  0  0
  2  3  1  0
  2  1  1  0
  3  5  1  0
  3  4  1  6
  5  6  1  1
  7  8  2  0
  7  5  1  0
  9  7  1  0
 10  9  1  0
 10 11  1  1
 11 12  1  0
 12 13  2  0
 12 17  1  0
 13 14  1  0
 14 15  2  0
 16 15  1  0
 17 16  2  0
 18 10  1  0
 19 18  2  0
 20 21  1  0
 21 22  2  0
 21 23  1  0
 24 23  1  6
 24 26  1  0
 24 25  1  0
 25 18  1  0
 26 28  1  0
 27 26  2  0
M  END
$$$$
