IFN.pdb
     RDKit          3D

 28 28  0  0  1  0  0  0  0  0999 V2000
   10.7986  -20.6805   19.7921 C   0  0  0  0  0  0  0  0  0  0  0  0
   10.1597  -19.3558   19.4315 C   0  0  0  0  0  0  0  0  0  0  0  0
   10.2105  -18.4829   20.6441 C   0  0  2  0  0  0  0  0  0  0  0  0
    9.5173  -19.2078   21.7754 C   0  0  0  0  0  0  0  0  0  0  0  0
    9.6002  -17.1179   20.4633 C   0  0  2  0  0  0  0  0  0  0  0  0
   10.2369  -16.5002   19.3181 N   0  0  0  0  0  0  0  0  0  0  0  0
    9.7409  -16.2473   21.6266 C   0  0  0  0  0  0  0  0  0  0  0  0
   10.8406  -15.8152   22.0624 O   0  0  0  0  0  0  0  0  0  0  0  0
    8.5781  -15.8464   22.3305 N   0  0  0  0  0  0  0  0  0  0  0  0
    8.6040  -15.0140   23.5236 C   0  0  1  0  0  0  0  0  0  0  0  0
    7.2880  -14.2911   23.6465 C   0  0  0  0  0  0  0  0  0  0  0  0
    7.1281  -13.5231   24.8807 C   0  0  0  0  0  0  0  0  0  0  0  0
    6.1837  -13.8322   25.8438 C   0  0  0  0  0  0  0  0  0  0  0  0
    6.0205  -13.1382   27.0096 C   0  0  0  0  0  0  0  0  0  0  0  0
    6.8537  -12.0458   27.2556 C   0  0  0  0  0  0  0  0  0  0  0  0
    7.7917  -11.7361   26.3032 C   0  0  0  0  0  0  0  0  0  0  0  0
    7.9470  -12.4386   25.1380 C   0  0  0  0  0  0  0  0  0  0  0  0
    8.8601  -15.8784   24.6961 C   0  0  0  0  0  0  0  0  0  0  0  0
    8.1154  -16.8654   24.9658 O   0  0  0  0  0  0  0  0  0  0  0  0
   11.4231  -19.1551   27.7679 N   0  0  0  0  0  0  0  0  0  0  0  0
   12.2225  -18.0862   27.2893 C   0  0  0  0  0  0  0  0  0  0  0  0
   13.3992  -17.9938   27.6969 O   0  0  0  0  0  0  0  0  0  0  0  0
   11.6818  -17.1167   26.3415 C   0  0  0  0  0  0  0  0  0  0  0  0
   10.3012  -16.6247   26.6249 C   0  0  2  0  0  0  0  0  0  0  0  0
    9.9451  -15.6670   25.5935 N   0  0  0  0  0  0  0  0  0  0  0  0
   10.1312  -16.0572   27.9787 C   0  0  0  0  0  0  0  0  0  0  0  0
   10.0434  -16.8174   28.9705 O   0  0  0  0  0  0  0  0  0  0  0  0
   10.0593  -14.6877   28.2369 O   0  0  0  0  0  0  0  0  0  0  0  0
  2  3  1  0
  2  1  1  0
  3  5  1  0
  3  4  1  1
  5  6  1  6
  7  8  2  0
  7  5  1  0
  9  7  1  0
 10  9  1  0
 10 11  1  1
 11 12  1  0
 12 13  2  0
 12 17  1  0
 13 14  1  0
 14 15  2  0
 16 15  1  0
 17 16  2  0
 18 10  1  0
 19 18  2  0
 20 21  1  0
 21 22  2  0
 21 23  1  0
 24 23  1  6
 24 26  1  0
 24 25  1  0
 25 18  1  0
 26 28  1  0
 27 26  2  0
M  END
$$$$
