IFN.pdb
     RDKit          3D

 28 28  0  0  1  0  0  0  0  0999 V2000
    7.9252  -15.2901   16.7237 C   0  0  0  0  0  0  0  0  0  0  0  0
    7.6379  -14.1989   17.7336 C   0  0  0  0  0  0  0  0  0  0  0  0
    8.1385  -14.6674   19.0620 C   0  0  2  0  0  0  0  0  0  0  0  0
    7.5751  -16.0469   19.3177 C   0  0  0  0  0  0  0  0  0  0  0  0
    7.8060  -13.7588   20.2163 C   0  0  2  0  0  0  0  0  0  0  0  0
    8.2101  -12.4169   19.8496 N   0  0  0  0  0  0  0  0  0  0  0  0
    8.4500  -14.1352   21.4710 C   0  0  0  0  0  0  0  0  0  0  0  0
    9.6703  -13.9557   21.7257 O   0  0  0  0  0  0  0  0  0  0  0  0
    7.6730  -14.7447   22.4874 N   0  0  0  0  0  0  0  0  0  0  0  0
    8.2038  -15.1329   23.7853 C   0  0  1  0  0  0  0  0  0  0  0  0
    7.1256  -14.9708   24.8251 C   0  0  0  0  0  0  0  0  0  0  0  0
    7.0206  -13.6255   25.3887 C   0  0  0  0  0  0  0  0  0  0  0  0
    5.9548  -12.7814   25.1310 C   0  0  0  0  0  0  0  0  0  0  0  0
    5.8269  -11.5250   25.6527 C   0  0  0  0  0  0  0  0  0  0  0  0
    6.8292  -11.0519   26.5011 C   0  0  0  0  0  0  0  0  0  0  0  0
    7.8877  -11.8859   26.7595 C   0  0  0  0  0  0  0  0  0  0  0  0
    8.0059  -13.1438   26.2313 C   0  0  0  0  0  0  0  0  0  0  0  0
    8.6726  -16.5333   23.7033 C   0  0  0  0  0  0  0  0  0  0  0  0
    8.4010  -17.2647   22.7069 O   0  0  0  0  0  0  0  0  0  0  0  0
   12.9148  -19.3334   23.4859 N   0  0  0  0  0  0  0  0  0  0  0  0
   12.6501  -18.0227   23.0143 C   0  0  0  0  0  0  0  0  0  0  0  0
   13.4515  -17.5070   22.2074 O   0  0  0  0  0  0  0  0  0  0  0  0
   11.4674  -17.2936   23.4619 C   0  0  0  0  0  0  0  0  0  0  0  0
   10.5821  -18.0118   24.4257 C   0  0  2  0  0  0  0  0  0  0  0  0
    9.4507  -17.1518   24.7227 N   0  0  0  0  0  0  0  0  0  0  0  0
   11.2684  -18.4553   25.6570 C   0  0  0  0  0  0  0  0  0  0  0  0
   11.5288  -17.6288   26.5617 O   0  0  0  0  0  0  0  0  0  0  0  0
   11.6594  -19.7746   25.8889 O   0  0  0  0  0  0  0  0  0  0  0  0
  2  3  1  0
  2  1  1  0
  3  5  1  0
  3  4  1  1
  5  6  1  6
  7  8  2  0
  7  5  1  0
  9  7  1  0
 10  9  1  0
 10 11  1  1
 11 12  1  0
 12 13  2  0
 12 17  1  0
 13 14  1  0
 14 15  2  0
 16 15  1  0
 17 16  2  0
 18 10  1  0
 19 18  2  0
 20 21  1  0
 21 22  2  0
 21 23  1  0
 24 23  1  6
 24 26  1  0
 24 25  1  0
 25 18  1  0
 26 28  1  0
 27 26  2  0
M  END
$$$$
