IFN.pdb
     RDKit          3D

 28 28  0  0  1  0  0  0  0  0999 V2000
    8.8252  -20.4387   18.6244 C   0  0  0  0  0  0  0  0  0  0  0  0
    8.0026  -19.1688   18.5637 C   0  0  0  0  0  0  0  0  0  0  0  0
    8.4417  -18.2899   19.6905 C   0  0  2  0  0  0  0  0  0  0  0  0
    8.3183  -19.0758   20.9762 C   0  0  0  0  0  0  0  0  0  0  0  0
    7.6838  -16.9939   19.8103 C   0  0  2  0  0  0  0  0  0  0  0  0
    7.7330  -16.3355   18.5208 N   0  0  0  0  0  0  0  0  0  0  0  0
    8.2053  -16.0953   20.8356 C   0  0  0  0  0  0  0  0  0  0  0  0
    9.2934  -15.4677   20.7445 O   0  0  0  0  0  0  0  0  0  0  0  0
    7.4569  -15.8979   22.0227 N   0  0  0  0  0  0  0  0  0  0  0  0
    7.8962  -15.0524   23.1223 C   0  0  1  0  0  0  0  0  0  0  0  0
    6.6867  -14.5213   23.8468 C   0  0  0  0  0  0  0  0  0  0  0  0
    6.9899  -13.7206   25.0323 C   0  0  0  0  0  0  0  0  0  0  0  0
    6.8874  -12.3408   25.0564 C   0  0  0  0  0  0  0  0  0  0  0  0
    7.1542  -11.5701   26.1528 C   0  0  0  0  0  0  0  0  0  0  0  0
    7.5567  -12.2040   27.3293 C   0  0  0  0  0  0  0  0  0  0  0  0
    7.6593  -13.5721   27.3098 C   0  0  0  0  0  0  0  0  0  0  0  0
    7.3893  -14.3352   26.2052 C   0  0  0  0  0  0  0  0  0  0  0  0
    8.7572  -15.8541   24.0187 C   0  0  0  0  0  0  0  0  0  0  0  0
    8.3973  -16.9925   24.4380 O   0  0  0  0  0  0  0  0  0  0  0  0
   14.3261  -17.0989   23.5343 N   0  0  0  0  0  0  0  0  0  0  0  0
   13.4735  -16.8087   24.6294 C   0  0  0  0  0  0  0  0  0  0  0  0
   13.6857  -17.3830   25.7178 O   0  0  0  0  0  0  0  0  0  0  0  0
   12.3732  -15.8601   24.4873 C   0  0  0  0  0  0  0  0  0  0  0  0
   11.0413  -16.3252   24.9752 C   0  0  2  0  0  0  0  0  0  0  0  0
   10.0334  -15.4112   24.4690 N   0  0  0  0  0  0  0  0  0  0  0  0
   10.9565  -16.4723   26.4432 C   0  0  0  0  0  0  0  0  0  0  0  0
   11.6103  -17.3708   27.0218 O   0  0  0  0  0  0  0  0  0  0  0  0
   10.1726  -15.6525   27.2560 O   0  0  0  0  0  0  0  0  0  0  0  0
  2  3  1  0
  2  1  1  0
  3  5  1  0
  3  4  1  1
  5  6  1  6
  7  8  2  0
  7  5  1  0
  9  7  1  0
 10  9  1  0
 10 11  1  1
 11 12  1  0
 12 13  2  0
 12 17  1  0
 13 14  1  0
 14 15  2  0
 16 15  1  0
 17 16  2  0
 18 10  1  0
 19 18  2  0
 20 21  1  0
 21 22  2  0
 21 23  1  0
 24 23  1  1
 24 26  1  0
 24 25  1  0
 25 18  1  0
 26 28  1  0
 27 26  2  0
M  END
$$$$
