IFN.pdb
     RDKit          3D

 28 28  0  0  1  0  0  0  0  0999 V2000
    8.9480  -19.5417   17.7655 C   0  0  0  0  0  0  0  0  0  0  0  0
    8.2747  -18.1853   17.7736 C   0  0  0  0  0  0  0  0  0  0  0  0
    8.6377  -17.5065   19.0551 C   0  0  2  0  0  0  0  0  0  0  0  0
    8.3244  -18.4509   20.1934 C   0  0  0  0  0  0  0  0  0  0  0  0
    7.9510  -16.1858   19.2845 C   0  0  2  0  0  0  0  0  0  0  0  0
    8.1849  -15.3604   18.1172 N   0  0  0  0  0  0  0  0  0  0  0  0
    8.4070  -15.4805   20.4784 C   0  0  0  0  0  0  0  0  0  0  0  0
    9.5611  -14.9969   20.6213 O   0  0  0  0  0  0  0  0  0  0  0  0
    7.5112  -15.3149   21.5639 N   0  0  0  0  0  0  0  0  0  0  0  0
    7.8784  -14.6883   22.8247 C   0  0  1  0  0  0  0  0  0  0  0  0
    6.6507  -14.0699   23.4414 C   0  0  0  0  0  0  0  0  0  0  0  0
    6.8681  -13.4649   24.7549 C   0  0  0  0  0  0  0  0  0  0  0  0
    6.5571  -14.1062   25.9410 C   0  0  0  0  0  0  0  0  0  0  0  0
    6.7597  -13.5683   27.1807 C   0  0  0  0  0  0  0  0  0  0  0  0
    7.3153  -12.2910   27.2688 C   0  0  0  0  0  0  0  0  0  0  0  0
    7.6254  -11.6516   26.0950 C   0  0  0  0  0  0  0  0  0  0  0  0
    7.4183  -12.2001   24.8574 C   0  0  0  0  0  0  0  0  0  0  0  0
    8.4701  -15.7167   23.7077 C   0  0  0  0  0  0  0  0  0  0  0  0
    7.8917  -16.8229   23.9152 O   0  0  0  0  0  0  0  0  0  0  0  0
   11.0932  -18.1224   22.8574 N   0  0  0  0  0  0  0  0  0  0  0  0
   11.9844  -17.2080   23.4740 C   0  0  0  0  0  0  0  0  0  0  0  0
   12.9871  -16.8298   22.8330 O   0  0  0  0  0  0  0  0  0  0  0  0
   11.7347  -16.7201   24.8268 C   0  0  0  0  0  0  0  0  0  0  0  0
   10.3007  -16.5723   25.2146 C   0  0  2  0  0  0  0  0  0  0  0  0
    9.7135  -15.5407   24.3788 N   0  0  0  0  0  0  0  0  0  0  0  0
   10.0918  -16.2953   26.6510 C   0  0  0  0  0  0  0  0  0  0  0  0
   10.4391  -17.1393   27.5091 O   0  0  0  0  0  0  0  0  0  0  0  0
    9.5153  -15.1195   27.1334 O   0  0  0  0  0  0  0  0  0  0  0  0
  2  3  1  0
  2  1  1  0
  3  5  1  0
  3  4  1  1
  5  6  1  6
  7  8  2  0
  7  5  1  0
  9  7  1  0
 10  9  1  0
 10 11  1  1
 11 12  1  0
 12 13  2  0
 12 17  1  0
 13 14  1  0
 14 15  2  0
 16 15  1  0
 17 16  2  0
 18 10  1  0
 19 18  2  0
 20 21  1  0
 21 22  2  0
 21 23  1  0
 24 23  1  1
 24 26  1  0
 24 25  1  0
 25 18  1  0
 26 28  1  0
 27 26  2  0
M  END
$$$$
