IFN.pdb
     RDKit          3D

 28 28  0  0  1  0  0  0  0  0999 V2000
    7.4166  -12.2290   18.3879 C   0  0  0  0  0  0  0  0  0  0  0  0
    7.4016  -13.3532   19.4023 C   0  0  0  0  0  0  0  0  0  0  0  0
    8.4341  -14.3517   18.9878 C   0  0  2  0  0  0  0  0  0  0  0  0
    8.0714  -14.8602   17.6109 C   0  0  0  0  0  0  0  0  0  0  0  0
    8.6020  -15.5128   19.9323 C   0  0  2  0  0  0  0  0  0  0  0  0
    7.3523  -16.2453   19.9544 N   0  0  0  0  0  0  0  0  0  0  0  0
    8.9615  -15.1229   21.2923 C   0  0  0  0  0  0  0  0  0  0  0  0
   10.0980  -14.7016   21.6343 O   0  0  0  0  0  0  0  0  0  0  0  0
    7.9850  -15.2148   22.3151 N   0  0  0  0  0  0  0  0  0  0  0  0
    8.2325  -14.8508   23.7020 C   0  0  1  0  0  0  0  0  0  0  0  0
    6.9280  -14.4625   24.3480 C   0  0  0  0  0  0  0  0  0  0  0  0
    7.0593  -13.8793   25.6826 C   0  0  0  0  0  0  0  0  0  0  0  0
    7.0190  -14.6335   26.8421 C   0  0  0  0  0  0  0  0  0  0  0  0
    7.1496  -14.1155   28.0998 C   0  0  0  0  0  0  0  0  0  0  0  0
    7.3360  -12.7390   28.2362 C   0  0  0  0  0  0  0  0  0  0  0  0
    7.3769  -11.9875   27.0889 C   0  0  0  0  0  0  0  0  0  0  0  0
    7.2451  -12.5170   25.8329 C   0  0  0  0  0  0  0  0  0  0  0  0
    8.8561  -16.0032   24.3878 C   0  0  0  0  0  0  0  0  0  0  0  0
    8.4025  -17.1771   24.2547 O   0  0  0  0  0  0  0  0  0  0  0  0
   13.1912  -19.2428   24.8847 N   0  0  0  0  0  0  0  0  0  0  0  0
   12.9842  -18.0682   25.6515 C   0  0  0  0  0  0  0  0  0  0  0  0
   13.5884  -17.9523   26.7381 O   0  0  0  0  0  0  0  0  0  0  0  0
   12.0854  -17.0188   25.1807 C   0  0  0  0  0  0  0  0  0  0  0  0
   10.7075  -17.0314   25.7550 C   0  0  2  0  0  0  0  0  0  0  0  0
    9.9938  -15.8791   25.2350 N   0  0  0  0  0  0  0  0  0  0  0  0
   10.6720  -17.0745   27.2317 C   0  0  0  0  0  0  0  0  0  0  0  0
   10.4321  -16.0319   27.8835 O   0  0  0  0  0  0  0  0  0  0  0  0
   10.8946  -18.2346   27.9745 O   0  0  0  0  0  0  0  0  0  0  0  0
  2  3  1  0
  2  1  1  0
  3  5  1  0
  3  4  1  6
  5  6  1  1
  7  8  2  0
  7  5  1  0
  9  7  1  0
 10  9  1  0
 10 11  1  1
 11 12  1  0
 12 13  2  0
 12 17  1  0
 13 14  1  0
 14 15  2  0
 16 15  1  0
 17 16  2  0
 18 10  1  0
 19 18  2  0
 20 21  1  0
 21 22  2  0
 21 23  1  0
 24 23  1  1
 24 26  1  0
 24 25  1  0
 25 18  1  0
 26 28  1  0
 27 26  2  0
M  END
$$$$
