IFN.pdb
     RDKit          3D

 28 28  0  0  1  0  0  0  0  0999 V2000
    7.3061  -12.8547   17.6461 C   0  0  0  0  0  0  0  0  0  0  0  0
    7.7611  -14.2205   18.1161 C   0  0  0  0  0  0  0  0  0  0  0  0
    8.2828  -14.0700   19.5089 C   0  0  2  0  0  0  0  0  0  0  0  0
    9.4521  -13.1123   19.4729 C   0  0  0  0  0  0  0  0  0  0  0  0
    8.6994  -15.3588   20.1678 C   0  0  2  0  0  0  0  0  0  0  0  0
    7.6159  -16.3063   20.0037 N   0  0  0  0  0  0  0  0  0  0  0  0
    9.0167  -15.2234   21.5862 C   0  0  0  0  0  0  0  0  0  0  0  0
   10.1414  -14.8750   22.0331 O   0  0  0  0  0  0  0  0  0  0  0  0
    8.0098  -15.4959   22.5454 N   0  0  0  0  0  0  0  0  0  0  0  0
    8.1551  -15.2236   23.9674 C   0  0  1  0  0  0  0  0  0  0  0  0
    6.8402  -14.7259   24.5088 C   0  0  0  0  0  0  0  0  0  0  0  0
    6.9575  -13.7709   25.6101 C   0  0  0  0  0  0  0  0  0  0  0  0
    5.8701  -13.1093   26.1530 C   0  0  0  0  0  0  0  0  0  0  0  0
    5.9505  -12.2210   27.1882 C   0  0  0  0  0  0  0  0  0  0  0  0
    7.2043  -11.9559   27.7413 C   0  0  0  0  0  0  0  0  0  0  0  0
    8.2851  -12.6100   27.2060 C   0  0  0  0  0  0  0  0  0  0  0  0
    8.1933  -13.4989   26.1683 C   0  0  0  0  0  0  0  0  0  0  0  0
    8.5852  -16.4665   24.6438 C   0  0  0  0  0  0  0  0  0  0  0  0
    7.9062  -17.5315   24.5655 O   0  0  0  0  0  0  0  0  0  0  0  0
   11.7986  -20.6549   25.0589 N   0  0  0  0  0  0  0  0  0  0  0  0
   12.2090  -19.3785   25.5200 C   0  0  0  0  0  0  0  0  0  0  0  0
   13.1938  -19.3099   26.2848 O   0  0  0  0  0  0  0  0  0  0  0  0
   11.4965  -18.1725   25.1095 C   0  0  0  0  0  0  0  0  0  0  0  0
   10.2907  -17.8188   25.9153 C   0  0  2  0  0  0  0  0  0  0  0  0
    9.7751  -16.5549   25.4209 N   0  0  0  0  0  0  0  0  0  0  0  0
   10.5325  -17.7769   27.3725 C   0  0  0  0  0  0  0  0  0  0  0  0
   10.9554  -16.7261   27.9077 O   0  0  0  0  0  0  0  0  0  0  0  0
   10.3152  -18.8629   28.2215 O   0  0  0  0  0  0  0  0  0  0  0  0
  2  3  1  0
  2  1  1  0
  3  5  1  0
  3  4  1  6
  5  6  1  1
  7  8  2  0
  7  5  1  0
  9  7  1  0
 10  9  1  0
 10 11  1  1
 11 12  1  0
 12 13  2  0
 12 17  1  0
 13 14  1  0
 14 15  2  0
 16 15  1  0
 17 16  2  0
 18 10  1  0
 19 18  2  0
 20 21  1  0
 21 22  2  0
 21 23  1  0
 24 23  1  6
 24 26  1  0
 24 25  1  0
 25 18  1  0
 26 28  1  0
 27 26  2  0
M  END
$$$$
