IFN.pdb
     RDKit          3D

 28 28  0  0  1  0  0  0  0  0999 V2000
    6.5891  -12.2546   18.6682 C   0  0  0  0  0  0  0  0  0  0  0  0
    6.8647  -13.6907   19.0614 C   0  0  0  0  0  0  0  0  0  0  0  0
    7.7660  -13.6693   20.2539 C   0  0  2  0  0  0  0  0  0  0  0  0
    9.0154  -12.9015   19.8860 C   0  0  0  0  0  0  0  0  0  0  0  0
    8.1404  -15.0282   20.7847 C   0  0  2  0  0  0  0  0  0  0  0  0
    6.9124  -15.7410   21.0723 N   0  0  0  0  0  0  0  0  0  0  0  0
    8.9716  -14.9874   21.9840 C   0  0  0  0  0  0  0  0  0  0  0  0
   10.2085  -14.7505   21.9840 O   0  0  0  0  0  0  0  0  0  0  0  0
    8.3716  -15.2266   23.2453 N   0  0  0  0  0  0  0  0  0  0  0  0
    9.0894  -15.1465   24.5084 C   0  0  1  0  0  0  0  0  0  0  0  0
    8.1291  -14.7340   25.5935 C   0  0  0  0  0  0  0  0  0  0  0  0
    8.7368  -14.5666   26.9131 C   0  0  0  0  0  0  0  0  0  0  0  0
    9.1295  -15.6330   27.7028 C   0  0  0  0  0  0  0  0  0  0  0  0
    9.7088  -15.5044   28.9337 C   0  0  0  0  0  0  0  0  0  0  0  0
    9.9230  -14.2204   29.4371 C   0  0  0  0  0  0  0  0  0  0  0  0
    9.5353  -13.1602   28.6571 C   0  0  0  0  0  0  0  0  0  0  0  0
    8.9555  -13.3003   27.4244 C   0  0  0  0  0  0  0  0  0  0  0  0
    9.6941  -16.4662   24.7916 C   0  0  0  0  0  0  0  0  0  0  0  0
    8.9857  -17.5092   24.8993 O   0  0  0  0  0  0  0  0  0  0  0  0
   13.3042  -16.7759   22.3218 N   0  0  0  0  0  0  0  0  0  0  0  0
   13.4377  -17.1869   23.6722 C   0  0  0  0  0  0  0  0  0  0  0  0
   14.2474  -16.5784   24.4026 O   0  0  0  0  0  0  0  0  0  0  0  0
   12.6461  -18.2957   24.1962 C   0  0  0  0  0  0  0  0  0  0  0  0
   11.6722  -17.9522   25.2742 C   0  0  2  0  0  0  0  0  0  0  0  0
   11.0948  -16.6573   24.9617 N   0  0  0  0  0  0  0  0  0  0  0  0
   12.2475  -17.9790   26.6351 C   0  0  0  0  0  0  0  0  0  0  0  0
   12.3671  -16.9154   27.2860 O   0  0  0  0  0  0  0  0  0  0  0  0
   12.6809  -19.1460   27.2658 O   0  0  0  0  0  0  0  0  0  0  0  0
  2  3  1  0
  2  1  1  0
  3  5  1  0
  3  4  1  6
  5  6  1  1
  7  8  2  0
  7  5  1  0
  9  7  1  0
 10  9  1  0
 10 11  1  1
 11 12  1  0
 12 13  2  0
 12 17  1  0
 13 14  1  0
 14 15  2  0
 16 15  1  0
 17 16  2  0
 18 10  1  0
 19 18  2  0
 20 21  1  0
 21 22  2  0
 21 23  1  0
 24 23  1  6
 24 26  1  0
 24 25  1  0
 25 18  1  0
 26 28  1  0
 27 26  2  0
M  END
$$$$
