IFN.pdb
     RDKit          3D

 28 28  0  0  1  0  0  0  0  0999 V2000
    8.8975  -18.7022   17.6298 C   0  0  0  0  0  0  0  0  0  0  0  0
    7.6870  -18.2491   18.4189 C   0  0  0  0  0  0  0  0  0  0  0  0
    8.1784  -17.6368   19.6911 C   0  0  2  0  0  0  0  0  0  0  0  0
    7.2727  -18.0916   20.8130 C   0  0  0  0  0  0  0  0  0  0  0  0
    8.2567  -16.1328   19.6769 C   0  0  2  0  0  0  0  0  0  0  0  0
    9.1576  -15.7500   18.6089 N   0  0  0  0  0  0  0  0  0  0  0  0
    8.7178  -15.5517   20.9340 C   0  0  0  0  0  0  0  0  0  0  0  0
    9.9181  -15.5424   21.3151 O   0  0  0  0  0  0  0  0  0  0  0  0
    7.7721  -14.9513   21.8021 N   0  0  0  0  0  0  0  0  0  0  0  0
    8.1041  -14.4261   23.1178 C   0  0  1  0  0  0  0  0  0  0  0  0
    7.0556  -13.4239   23.5253 C   0  0  0  0  0  0  0  0  0  0  0  0
    7.1376  -12.9895   24.9192 C   0  0  0  0  0  0  0  0  0  0  0  0
    8.1226  -12.1371   25.3863 C   0  0  0  0  0  0  0  0  0  0  0  0
    8.2159  -11.7076   26.6801 C   0  0  0  0  0  0  0  0  0  0  0  0
    7.2625  -12.1503   27.5983 C   0  0  0  0  0  0  0  0  0  0  0  0
    6.2838  -12.9954   27.1392 C   0  0  0  0  0  0  0  0  0  0  0  0
    6.1994  -13.4197   25.8398 C   0  0  0  0  0  0  0  0  0  0  0  0
    8.1764  -15.5543   24.0714 C   0  0  0  0  0  0  0  0  0  0  0  0
    7.2732  -16.4393   24.1190 O   0  0  0  0  0  0  0  0  0  0  0  0
   11.9766  -16.9120   24.3858 N   0  0  0  0  0  0  0  0  0  0  0  0
   11.0826  -17.9724   24.0912 C   0  0  0  0  0  0  0  0  0  0  0  0
   11.4473  -18.8514   23.2827 O   0  0  0  0  0  0  0  0  0  0  0  0
    9.7664  -18.0347   24.7192 C   0  0  0  0  0  0  0  0  0  0  0  0
    9.4657  -16.9644   25.7155 C   0  0  2  0  0  0  0  0  0  0  0  0
    9.2496  -15.7248   24.9915 N   0  0  0  0  0  0  0  0  0  0  0  0
   10.4963  -16.8117   26.7635 C   0  0  0  0  0  0  0  0  0  0  0  0
   10.8033  -17.7870   27.4874 O   0  0  0  0  0  0  0  0  0  0  0  0
   11.1733  -15.6167   27.0105 O   0  0  0  0  0  0  0  0  0  0  0  0
  2  3  1  0
  2  1  1  0
  3  5  1  0
  3  4  1  1
  5  6  1  6
  7  8  2  0
  7  5  1  0
  9  7  1  0
 10  9  1  0
 10 11  1  1
 11 12  1  0
 12 13  2  0
 12 17  1  0
 13 14  1  0
 14 15  2  0
 16 15  1  0
 17 16  2  0
 18 10  1  0
 19 18  2  0
 20 21  1  0
 21 22  2  0
 21 23  1  0
 24 23  1  6
 24 26  1  0
 24 25  1  0
 25 18  1  0
 26 28  1  0
 27 26  2  0
M  END
$$$$
