IFN.pdb
     RDKit          3D

 28 28  0  0  1  0  0  0  0  0999 V2000
    8.2322  -20.0881   18.7056 C   0  0  0  0  0  0  0  0  0  0  0  0
    8.2744  -18.5828   18.5465 C   0  0  0  0  0  0  0  0  0  0  0  0
    8.4973  -17.9898   19.9006 C   0  0  2  0  0  0  0  0  0  0  0  0
    7.3355  -18.3838   20.7842 C   0  0  0  0  0  0  0  0  0  0  0  0
    8.6627  -16.4928   19.9129 C   0  0  2  0  0  0  0  0  0  0  0  0
    9.7241  -16.1605   18.9847 N   0  0  0  0  0  0  0  0  0  0  0  0
    8.9762  -15.9423   21.2279 C   0  0  0  0  0  0  0  0  0  0  0  0
   10.0744  -16.1036   21.8229 O   0  0  0  0  0  0  0  0  0  0  0  0
    7.9971  -15.1707   21.9019 N   0  0  0  0  0  0  0  0  0  0  0  0
    8.1887  -14.6045   23.2285 C   0  0  1  0  0  0  0  0  0  0  0  0
    7.1106  -13.5844   23.4873 C   0  0  0  0  0  0  0  0  0  0  0  0
    7.0816  -13.0622   24.8529 C   0  0  0  0  0  0  0  0  0  0  0  0
    8.1258  -12.3428   25.4072 C   0  0  0  0  0  0  0  0  0  0  0  0
    8.1201  -11.8350   26.6757 C   0  0  0  0  0  0  0  0  0  0  0  0
    6.9945  -12.0491   27.4728 C   0  0  0  0  0  0  0  0  0  0  0  0
    5.9567  -12.7617   26.9270 C   0  0  0  0  0  0  0  0  0  0  0  0
    5.9728  -13.2662   25.6539 C   0  0  0  0  0  0  0  0  0  0  0  0
    8.1472  -15.7014   24.2198 C   0  0  0  0  0  0  0  0  0  0  0  0
    7.0791  -16.3360   24.4602 O   0  0  0  0  0  0  0  0  0  0  0  0
   11.8154  -17.2569   24.7662 N   0  0  0  0  0  0  0  0  0  0  0  0
   11.0114  -18.4222   24.6883 C   0  0  0  0  0  0  0  0  0  0  0  0
   11.4729  -19.4261   24.1064 O   0  0  0  0  0  0  0  0  0  0  0  0
    9.6753  -18.4473   25.2753 C   0  0  0  0  0  0  0  0  0  0  0  0
    9.2304  -17.1885   25.9430 C   0  0  2  0  0  0  0  0  0  0  0  0
    9.2871  -16.1171   24.9649 N   0  0  0  0  0  0  0  0  0  0  0  0
    9.9926  -16.8536   27.1639 C   0  0  0  0  0  0  0  0  0  0  0  0
   10.0630  -17.6780   28.1046 O   0  0  0  0  0  0  0  0  0  0  0  0
   10.6614  -15.6426   27.3471 O   0  0  0  0  0  0  0  0  0  0  0  0
  2  3  1  0
  2  1  1  0
  3  5  1  0
  3  4  1  1
  5  6  1  6
  7  8  2  0
  7  5  1  0
  9  7  1  0
 10  9  1  0
 10 11  1  1
 11 12  1  0
 12 13  2  0
 12 17  1  0
 13 14  1  0
 14 15  2  0
 16 15  1  0
 17 16  2  0
 18 10  1  0
 19 18  2  0
 20 21  1  0
 21 22  2  0
 21 23  1  0
 24 23  1  6
 24 26  1  0
 24 25  1  0
 25 18  1  0
 26 28  1  0
 27 26  2  0
M  END
$$$$
