IFN.pdb
     RDKit          3D

 28 28  0  0  1  0  0  0  0  0999 V2000
   10.7398  -20.0940   18.6977 C   0  0  0  0  0  0  0  0  0  0  0  0
    9.7713  -18.9381   18.5599 C   0  0  0  0  0  0  0  0  0  0  0  0
    9.9159  -18.0782   19.7743 C   0  0  2  0  0  0  0  0  0  0  0  0
    9.7326  -18.9520   20.9944 C   0  0  0  0  0  0  0  0  0  0  0  0
    8.9663  -16.9107   19.8358 C   0  0  2  0  0  0  0  0  0  0  0  0
    9.0948  -16.1742   18.5950 N   0  0  0  0  0  0  0  0  0  0  0  0
    9.2040  -16.0126   20.9617 C   0  0  0  0  0  0  0  0  0  0  0  0
   10.2664  -15.3598   21.1385 O   0  0  0  0  0  0  0  0  0  0  0  0
    8.1877  -15.8457   21.9350 N   0  0  0  0  0  0  0  0  0  0  0  0
    8.3396  -15.0265   23.1279 C   0  0  1  0  0  0  0  0  0  0  0  0
    7.0280  -14.3488   23.4284 C   0  0  0  0  0  0  0  0  0  0  0  0
    7.0154  -13.5677   24.6647 C   0  0  0  0  0  0  0  0  0  0  0  0
    6.4137  -14.0102   25.8296 C   0  0  0  0  0  0  0  0  0  0  0  0
    6.3967  -13.3056   27.0003 C   0  0  0  0  0  0  0  0  0  0  0  0
    7.0229  -12.0587   27.0354 C   0  0  0  0  0  0  0  0  0  0  0  0
    7.6210  -11.6164   25.8824 C   0  0  0  0  0  0  0  0  0  0  0  0
    7.6324  -12.3309   24.7142 C   0  0  0  0  0  0  0  0  0  0  0  0
    8.7702  -15.8952   24.2447 C   0  0  0  0  0  0  0  0  0  0  0  0
    8.1019  -16.9143   24.5859 O   0  0  0  0  0  0  0  0  0  0  0  0
   11.2172  -18.3298   24.0074 N   0  0  0  0  0  0  0  0  0  0  0  0
   12.2167  -17.7093   24.7988 C   0  0  0  0  0  0  0  0  0  0  0  0
   13.4141  -17.9665   24.5550 O   0  0  0  0  0  0  0  0  0  0  0  0
   11.8538  -16.7907   25.8735 C   0  0  0  0  0  0  0  0  0  0  0  0
   10.3929  -16.5470   26.0602 C   0  0  2  0  0  0  0  0  0  0  0  0
    9.9485  -15.6528   25.0064 N   0  0  0  0  0  0  0  0  0  0  0  0
   10.0353  -16.0331   27.3988 C   0  0  0  0  0  0  0  0  0  0  0  0
    9.7394  -14.8249   27.5478 O   0  0  0  0  0  0  0  0  0  0  0  0
   10.0035  -16.8269   28.5460 O   0  0  0  0  0  0  0  0  0  0  0  0
  2  3  1  0
  2  1  1  0
  3  5  1  0
  3  4  1  1
  5  6  1  6
  7  8  2  0
  7  5  1  0
  9  7  1  0
 10  9  1  0
 10 11  1  1
 11 12  1  0
 12 13  2  0
 12 17  1  0
 13 14  1  0
 14 15  2  0
 16 15  1  0
 17 16  2  0
 18 10  1  0
 19 18  2  0
 20 21  1  0
 21 22  2  0
 21 23  1  0
 24 23  1  1
 24 26  1  0
 24 25  1  0
 25 18  1  0
 26 28  1  0
 27 26  2  0
M  END
$$$$
