LFC.pdb
     RDKit          3D

 26 26  0  0  1  0  0  0  0  0999 V2000
   27.6430  -18.4478  -18.4911 C   0  0  0  0  0  0  0  0  0  0  0  0
   28.0783  -19.2446  -17.2831 C   0  0  1  0  0  0  0  0  0  0  0  0
   29.0574  -18.4500  -16.4445 C   0  0  0  0  0  0  0  0  0  0  0  0
   26.8997  -19.6757  -16.4291 C   0  0  0  0  0  0  0  0  0  0  0  0
   27.4641  -20.5492  -15.3266 C   0  0  2  0  0  0  0  0  0  0  0  0
   28.0229  -21.7386  -15.9360 N   0  0  0  0  0  0  0  0  0  0  0  0
   26.4647  -20.9363  -14.3357 C   0  0  0  0  0  0  0  0  0  0  0  0
   25.7881  -21.9827  -14.5051 O   0  0  0  0  0  0  0  0  0  0  0  0
   26.1859  -20.1964  -13.1511 N   0  0  0  0  0  0  0  0  0  0  0  0
   25.1359  -20.5562  -12.2301 C   0  0  1  0  0  0  0  0  0  0  0  0
   25.2147  -19.7621  -10.9437 C   0  0  0  0  0  0  0  0  0  0  0  0
   24.1285  -20.1162  -10.0065 C   0  0  0  0  0  0  0  0  0  0  0  0
   24.3828  -21.0154   -8.9951 C   0  0  0  0  0  0  0  0  0  0  0  0
   23.4289  -21.3993   -8.0807 C   0  0  0  0  0  0  0  0  0  0  0  0
   22.1530  -20.8822   -8.1494 C   0  0  0  0  0  0  0  0  0  0  0  0
   21.8737  -19.9804   -9.1528 C   0  0  0  0  0  0  0  0  0  0  0  0
   22.8448  -19.6045  -10.0649 C   0  0  0  0  0  0  0  0  0  0  0  0
   23.8034  -20.2935  -12.8233 C   0  0  0  0  0  0  0  0  0  0  0  0
   23.6062  -19.1916  -13.3848 O   0  0  0  0  0  0  0  0  0  0  0  0
   22.7395  -21.2295  -12.7864 N   0  0  0  0  0  0  0  0  0  0  0  0
   21.4622  -20.8660  -13.3786 C   0  0  1  0  0  0  0  0  0  0  0  0
   21.3393  -21.6430  -14.6944 C   0  0  0  0  0  0  0  0  0  0  0  0
   21.7496  -23.3815  -14.3647 S   0  0  0  0  0  0  0  0  0  0  0  0
   20.3458  -21.3282  -12.5224 C   0  0  0  0  0  0  0  0  0  0  0  0
   19.0284  -21.0195  -12.7889 O   0  0  0  0  0  0  0  0  0  0  0  0
   20.6127  -22.0292  -11.5141 O   0  0  0  0  0  0  0  0  0  0  0  0
  2  1  1  6
  2  4  1  0
  3  2  1  0
  4  5  1  0
  5  6  1  6
  7  9  1  0
  7  5  1  0
  8  7  2  0
 10  9  1  0
 11 12  1  0
 10 11  1  1
 12 13  2  0
 12 17  1  0
 13 14  1  0
 14 15  2  0
 16 15  1  0
 17 16  2  0
 18 20  1  0
 18 10  1  0
 19 18  2  0
 21 20  1  0
 21 24  1  0
 22 23  1  0
 21 22  1  6
 24 25  1  0
 26 24  2  0
M  END
$$$$
