LFC.pdb
     RDKit          3D

 26 26  0  0  1  0  0  0  0  0999 V2000
   26.4226  -22.6178  -20.6087 C   0  0  0  0  0  0  0  0  0  0  0  0
   27.2700  -22.3971  -19.3771 C   0  0  1  0  0  0  0  0  0  0  0  0
   27.7311  -20.9569  -19.2979 C   0  0  0  0  0  0  0  0  0  0  0  0
   26.5346  -22.7736  -18.1036 C   0  0  0  0  0  0  0  0  0  0  0  0
   27.5106  -22.5597  -16.9640 C   0  0  2  0  0  0  0  0  0  0  0  0
   28.4506  -23.6618  -16.9634 N   0  0  0  0  0  0  0  0  0  0  0  0
   26.8586  -22.4782  -15.6607 C   0  0  0  0  0  0  0  0  0  0  0  0
   26.4705  -23.5284  -15.0883 O   0  0  0  0  0  0  0  0  0  0  0  0
   26.6193  -21.2604  -14.9620 N   0  0  0  0  0  0  0  0  0  0  0  0
   25.8814  -21.1978  -13.7243 C   0  0  1  0  0  0  0  0  0  0  0  0
   26.3274  -20.0396  -12.8574 C   0  0  0  0  0  0  0  0  0  0  0  0
   26.2854  -20.3758  -11.4191 C   0  0  0  0  0  0  0  0  0  0  0  0
   25.2232  -19.9384  -10.6597 C   0  0  0  0  0  0  0  0  0  0  0  0
   25.1067  -20.2069   -9.3151 C   0  0  0  0  0  0  0  0  0  0  0  0
   26.0758  -20.9424   -8.6671 C   0  0  0  0  0  0  0  0  0  0  0  0
   27.1487  -21.3914   -9.4055 C   0  0  0  0  0  0  0  0  0  0  0  0
   27.2511  -21.1127  -10.7576 C   0  0  0  0  0  0  0  0  0  0  0  0
   24.4337  -21.0155  -13.9838 C   0  0  0  0  0  0  0  0  0  0  0  0
   24.0829  -20.1904  -14.8581 O   0  0  0  0  0  0  0  0  0  0  0  0
   23.4251  -21.7303  -13.2902 N   0  0  0  0  0  0  0  0  0  0  0  0
   22.0321  -21.3848  -13.5228 C   0  0  1  0  0  0  0  0  0  0  0  0
   21.1854  -22.3184  -12.6500 C   0  0  0  0  0  0  0  0  0  0  0  0
   19.4437  -21.8344  -12.8290 S   0  0  0  0  0  0  0  0  0  0  0  0
   21.7540  -20.0109  -13.0450 C   0  0  0  0  0  0  0  0  0  0  0  0
   22.1527  -19.5613  -11.8038 O   0  0  0  0  0  0  0  0  0  0  0  0
   21.1299  -19.2264  -13.8029 O   0  0  0  0  0  0  0  0  0  0  0  0
  2  1  1  6
  2  4  1  0
  3  2  1  0
  4  5  1  0
  5  6  1  1
  7  9  1  0
  7  5  1  0
  8  7  2  0
 10  9  1  0
 11 12  1  0
 10 11  1  1
 12 13  2  0
 12 17  1  0
 13 14  1  0
 14 15  2  0
 16 15  1  0
 17 16  2  0
 18 20  1  0
 18 10  1  0
 19 18  2  0
 21 20  1  0
 21 24  1  0
 22 23  1  0
 21 22  1  1
 24 25  1  0
 26 24  2  0
M  END
$$$$
