LFC.pdb
     RDKit          3D

 26 26  0  0  1  0  0  0  0  0999 V2000
   26.2727  -19.0351  -18.8805 C   0  0  0  0  0  0  0  0  0  0  0  0
   25.1296  -18.6161  -17.9853 C   0  0  1  0  0  0  0  0  0  0  0  0
   23.8670  -18.4070  -18.7949 C   0  0  0  0  0  0  0  0  0  0  0  0
   24.8719  -19.6238  -16.8797 C   0  0  0  0  0  0  0  0  0  0  0  0
   23.5570  -19.2303  -16.2370 C   0  0  2  0  0  0  0  0  0  0  0  0
   23.7574  -17.9824  -15.5291 N   0  0  0  0  0  0  0  0  0  0  0  0
   23.0499  -20.2372  -15.3098 C   0  0  0  0  0  0  0  0  0  0  0  0
   23.0892  -21.4540  -15.6246 O   0  0  0  0  0  0  0  0  0  0  0  0
   22.4948  -19.9394  -14.0325 N   0  0  0  0  0  0  0  0  0  0  0  0
   22.0446  -20.9579  -13.1158 C   0  0  1  0  0  0  0  0  0  0  0  0
   22.2421  -20.5473  -11.6721 C   0  0  0  0  0  0  0  0  0  0  0  0
   23.6082  -20.8442  -11.1935 C   0  0  0  0  0  0  0  0  0  0  0  0
   23.9712  -20.4590   -9.9223 C   0  0  0  0  0  0  0  0  0  0  0  0
   25.2216  -20.6963   -9.3992 C   0  0  0  0  0  0  0  0  0  0  0  0
   26.1776  -21.3448  -10.1514 C   0  0  0  0  0  0  0  0  0  0  0  0
   25.8385  -21.7402  -11.4268 C   0  0  0  0  0  0  0  0  0  0  0  0
   24.5759  -21.4939  -11.9382 C   0  0  0  0  0  0  0  0  0  0  0  0
   20.5988  -21.2276  -13.2982 C   0  0  0  0  0  0  0  0  0  0  0  0
   19.8108  -20.2553  -13.3432 O   0  0  0  0  0  0  0  0  0  0  0  0
   20.0631  -22.5339  -13.4244 N   0  0  0  0  0  0  0  0  0  0  0  0
   18.6432  -22.6884  -13.6968 C   0  0  1  0  0  0  0  0  0  0  0  0
   18.4796  -23.9744  -14.5150 C   0  0  0  0  0  0  0  0  0  0  0  0
   19.4861  -23.8192  -16.0192 S   0  0  0  0  0  0  0  0  0  0  0  0
   17.8962  -22.9051  -12.4366 C   0  0  0  0  0  0  0  0  0  0  0  0
   16.5196  -22.9745  -12.3918 O   0  0  0  0  0  0  0  0  0  0  0  0
   18.5451  -23.0302  -11.3677 O   0  0  0  0  0  0  0  0  0  0  0  0
  2  1  1  6
  2  4  1  0
  3  2  1  0
  4  5  1  0
  5  6  1  1
  7  9  1  0
  7  5  1  0
  8  7  2  0
 10  9  1  0
 11 12  1  0
 10 11  1  1
 12 13  2  0
 12 17  1  0
 13 14  1  0
 14 15  2  0
 16 15  1  0
 17 16  2  0
 18 20  1  0
 18 10  1  0
 19 18  2  0
 21 20  1  0
 21 24  1  0
 22 23  1  0
 21 22  1  6
 24 25  1  0
 26 24  2  0
M  END
$$$$
