LFC.pdb
     RDKit          3D

 26 26  0  0  1  0  0  0  0  0999 V2000
   20.5342  -33.2438  -17.8404 C   0  0  0  0  0  0  0  0  0  0  0  0
   21.7143  -32.5433  -17.2076 C   0  0  1  0  0  0  0  0  0  0  0  0
   21.2512  -31.3722  -16.3665 C   0  0  0  0  0  0  0  0  0  0  0  0
   22.5511  -33.4861  -16.3620 C   0  0  0  0  0  0  0  0  0  0  0  0
   23.6747  -32.6552  -15.7754 C   0  0  2  0  0  0  0  0  0  0  0  0
   24.8325  -32.7928  -16.6350 N   0  0  0  0  0  0  0  0  0  0  0  0
   24.0302  -33.0523  -14.4166 C   0  0  0  0  0  0  0  0  0  0  0  0
   24.7791  -34.0452  -14.2305 O   0  0  0  0  0  0  0  0  0  0  0  0
   23.5799  -32.3804  -13.2444 N   0  0  0  0  0  0  0  0  0  0  0  0
   23.9360  -32.8029  -11.9121 C   0  0  1  0  0  0  0  0  0  0  0  0
   24.1446  -31.6266  -10.9821 C   0  0  0  0  0  0  0  0  0  0  0  0
   24.5349  -32.0569   -9.6234 C   0  0  0  0  0  0  0  0  0  0  0  0
   25.8435  -32.4116   -9.3831 C   0  0  0  0  0  0  0  0  0  0  0  0
   26.2902  -32.8234   -8.1484 C   0  0  0  0  0  0  0  0  0  0  0  0
   25.4185  -32.8962   -7.0831 C   0  0  0  0  0  0  0  0  0  0  0  0
   24.1035  -32.5464   -7.2984 C   0  0  0  0  0  0  0  0  0  0  0  0
   23.6700  -32.1341   -8.5468 C   0  0  0  0  0  0  0  0  0  0  0  0
   22.8649  -33.6402  -11.3221 C   0  0  0  0  0  0  0  0  0  0  0  0
   21.7145  -33.1555  -11.2222 O   0  0  0  0  0  0  0  0  0  0  0  0
   23.0788  -34.9646  -10.8645 N   0  0  0  0  0  0  0  0  0  0  0  0
   22.0123  -35.6402  -10.1431 C   0  0  1  0  0  0  0  0  0  0  0  0
   21.5588  -36.8194  -11.0116 C   0  0  0  0  0  0  0  0  0  0  0  0
   22.8337  -37.1172  -12.2707 S   0  0  0  0  0  0  0  0  0  0  0  0
   22.5309  -36.2299   -8.8876 C   0  0  0  0  0  0  0  0  0  0  0  0
   23.8697  -36.2149   -8.5575 O   0  0  0  0  0  0  0  0  0  0  0  0
   21.7162  -36.7642   -8.0937 O   0  0  0  0  0  0  0  0  0  0  0  0
  2  1  1  1
  2  4  1  0
  3  2  1  0
  4  5  1  0
  5  6  1  6
  7  9  1  0
  7  5  1  0
  8  7  2  0
 10  9  1  0
 11 12  1  0
 10 11  1  1
 12 13  2  0
 12 17  1  0
 13 14  1  0
 14 15  2  0
 16 15  1  0
 17 16  2  0
 18 20  1  0
 18 10  1  0
 19 18  2  0
 21 20  1  0
 21 24  1  0
 22 23  1  0
 21 22  1  6
 24 25  1  0
 26 24  2  0
M  END
$$$$
