LFC.pdb
     RDKit          3D

 26 26  0  0  1  0  0  0  0  0999 V2000
   15.6112  -12.4570  -18.3478 C   0  0  0  0  0  0  0  0  0  0  0  0
   17.0423  -11.9938  -18.2027 C   0  0  1  0  0  0  0  0  0  0  0  0
   17.4003  -11.0155  -19.3017 C   0  0  0  0  0  0  0  0  0  0  0  0
   17.3032  -11.3638  -16.8466 C   0  0  0  0  0  0  0  0  0  0  0  0
   18.7244  -10.8382  -16.8828 C   0  0  2  0  0  0  0  0  0  0  0  0
   19.6094  -11.9036  -16.4584 N   0  0  0  0  0  0  0  0  0  0  0  0
   18.9247   -9.6724  -16.0277 C   0  0  0  0  0  0  0  0  0  0  0  0
   18.5754   -9.7144  -14.8204 O   0  0  0  0  0  0  0  0  0  0  0  0
   19.5047   -8.4486  -16.4686 N   0  0  0  0  0  0  0  0  0  0  0  0
   19.7078   -7.3177  -15.5968 C   0  0  1  0  0  0  0  0  0  0  0  0
   21.1776   -7.0395  -15.3637 C   0  0  0  0  0  0  0  0  0  0  0  0
   21.8265   -8.1102  -14.5789 C   0  0  0  0  0  0  0  0  0  0  0  0
   21.5662   -8.2037  -13.2299 C   0  0  0  0  0  0  0  0  0  0  0  0
   22.1280   -9.1695  -12.4269 C   0  0  0  0  0  0  0  0  0  0  0  0
   22.9933  -10.1001  -12.9611 C   0  0  0  0  0  0  0  0  0  0  0  0
   23.2697  -10.0274  -14.3088 C   0  0  0  0  0  0  0  0  0  0  0  0
   22.6961   -9.0494  -15.1031 C   0  0  0  0  0  0  0  0  0  0  0  0
   19.1196   -6.0900  -16.1825 C   0  0  0  0  0  0  0  0  0  0  0  0
   19.3875   -5.8085  -17.3730 O   0  0  0  0  0  0  0  0  0  0  0  0
   18.2673   -5.2173  -15.4605 N   0  0  0  0  0  0  0  0  0  0  0  0
   17.7435   -4.0356  -16.1265 C   0  0  1  0  0  0  0  0  0  0  0  0
   16.4480   -3.6491  -15.4036 C   0  0  0  0  0  0  0  0  0  0  0  0
   15.2289   -4.9659  -15.6857 S   0  0  0  0  0  0  0  0  0  0  0  0
   18.6682   -2.8921  -15.9524 C   0  0  0  0  0  0  0  0  0  0  0  0
   18.3921   -1.6325  -16.4413 O   0  0  0  0  0  0  0  0  0  0  0  0
   19.7462   -3.0803  -15.3345 O   0  0  0  0  0  0  0  0  0  0  0  0
  2  1  1  1
  2  4  1  0
  3  2  1  0
  4  5  1  0
  5  6  1  1
  7  9  1  0
  7  5  1  0
  8  7  2  0
 10  9  1  0
 11 12  1  0
 10 11  1  6
 12 13  2  0
 12 17  1  0
 13 14  1  0
 14 15  2  0
 16 15  1  0
 17 16  2  0
 18 20  1  0
 18 10  1  0
 19 18  2  0
 21 20  1  0
 21 24  1  0
 22 23  1  0
 21 22  1  1
 24 25  1  0
 26 24  2  0
M  END
$$$$
