LFC.pdb
     RDKit          3D

 26 26  0  0  1  0  0  0  0  0999 V2000
   31.0884  -23.9221  -19.0065 C   0  0  0  0  0  0  0  0  0  0  0  0
   29.8218  -23.1140  -18.8442 C   0  0  1  0  0  0  0  0  0  0  0  0
   28.8288  -23.4536  -19.9360 C   0  0  0  0  0  0  0  0  0  0  0  0
   29.1826  -23.3222  -17.4832 C   0  0  0  0  0  0  0  0  0  0  0  0
   27.9419  -22.4523  -17.4531 C   0  0  2  0  0  0  0  0  0  0  0  0
   28.3453  -21.0837  -17.7030 N   0  0  0  0  0  0  0  0  0  0  0  0
   27.2254  -22.5221  -16.1833 C   0  0  0  0  0  0  0  0  0  0  0  0
   26.9874  -23.6403  -15.6597 O   0  0  0  0  0  0  0  0  0  0  0  0
   26.7587  -21.3837  -15.4660 N   0  0  0  0  0  0  0  0  0  0  0  0
   26.0322  -21.4827  -14.2239 C   0  0  1  0  0  0  0  0  0  0  0  0
   26.3009  -20.3018  -13.3155 C   0  0  0  0  0  0  0  0  0  0  0  0
   25.6264  -20.4435  -12.0084 C   0  0  0  0  0  0  0  0  0  0  0  0
   26.2978  -21.0502  -10.9704 C   0  0  0  0  0  0  0  0  0  0  0  0
   25.7436  -21.2222   -9.7227 C   0  0  0  0  0  0  0  0  0  0  0  0
   24.4635  -20.7809   -9.4643 C   0  0  0  0  0  0  0  0  0  0  0  0
   23.7711  -20.1705  -10.4870 C   0  0  0  0  0  0  0  0  0  0  0  0
   24.3430  -20.0050  -11.7367 C   0  0  0  0  0  0  0  0  0  0  0  0
   24.5713  -21.5190  -14.4706 C   0  0  0  0  0  0  0  0  0  0  0  0
   24.0845  -20.7116  -15.2949 O   0  0  0  0  0  0  0  0  0  0  0  0
   23.6966  -22.4240  -13.8186 N   0  0  0  0  0  0  0  0  0  0  0  0
   22.2804  -22.3928  -14.1465 C   0  0  1  0  0  0  0  0  0  0  0  0
   21.7471  -23.8196  -13.9729 C   0  0  0  0  0  0  0  0  0  0  0  0
   19.9390  -23.7714  -14.1400 S   0  0  0  0  0  0  0  0  0  0  0  0
   21.5428  -21.5568  -13.1717 C   0  0  0  0  0  0  0  0  0  0  0  0
   20.4814  -20.7546  -13.5345 O   0  0  0  0  0  0  0  0  0  0  0  0
   21.9008  -21.5816  -11.9673 O   0  0  0  0  0  0  0  0  0  0  0  0
  2  1  1  1
  2  4  1  0
  3  2  1  0
  4  5  1  0
  5  6  1  1
  7  9  1  0
  7  5  1  0
  8  7  2  0
 10  9  1  0
 11 12  1  0
 10 11  1  1
 12 13  2  0
 12 17  1  0
 13 14  1  0
 14 15  2  0
 16 15  1  0
 17 16  2  0
 18 20  1  0
 18 10  1  0
 19 18  2  0
 21 20  1  0
 21 24  1  0
 22 23  1  0
 21 22  1  1
 24 25  1  0
 26 24  2  0
M  END
$$$$
