LFC.pdb
     RDKit          3D

 26 26  0  0  1  0  0  0  0  0999 V2000
   22.3800  -20.7791  -14.3037 C   0  0  0  0  0  0  0  0  0  0  0  0
   23.7927  -20.4146  -13.9097 C   0  0  1  0  0  0  0  0  0  0  0  0
   24.0195  -18.9246  -14.0557 C   0  0  0  0  0  0  0  0  0  0  0  0
   24.1199  -20.8494  -12.4926 C   0  0  0  0  0  0  0  0  0  0  0  0
   25.5835  -20.5243  -12.2702 C   0  0  2  0  0  0  0  0  0  0  0  0
   26.3654  -21.3043  -13.2075 N   0  0  0  0  0  0  0  0  0  0  0  0
   26.0320  -20.8087  -10.9106 C   0  0  0  0  0  0  0  0  0  0  0  0
   26.2854  -21.9923  -10.5699 O   0  0  0  0  0  0  0  0  0  0  0  0
   26.2114  -19.8164   -9.9047 N   0  0  0  0  0  0  0  0  0  0  0  0
   26.6527  -20.1261   -8.5670 C   0  0  1  0  0  0  0  0  0  0  0  0
   27.2558  -18.9212   -7.8768 C   0  0  0  0  0  0  0  0  0  0  0  0
   27.8110  -19.2626   -6.5506 C   0  0  0  0  0  0  0  0  0  0  0  0
   28.8393  -20.1748   -6.4695 C   0  0  0  0  0  0  0  0  0  0  0  0
   29.4128  -20.5483   -5.2757 C   0  0  0  0  0  0  0  0  0  0  0  0
   28.9644  -20.0067   -4.0901 C   0  0  0  0  0  0  0  0  0  0  0  0
   27.9362  -19.0915   -4.1451 C   0  0  0  0  0  0  0  0  0  0  0  0
   27.3699  -18.7264   -5.3543 C   0  0  0  0  0  0  0  0  0  0  0  0
   25.5174  -20.5839   -7.7315 C   0  0  0  0  0  0  0  0  0  0  0  0
   24.4702  -19.8973   -7.7188 O   0  0  0  0  0  0  0  0  0  0  0  0
   25.5586  -21.7624   -6.9450 N   0  0  0  0  0  0  0  0  0  0  0  0
   24.3680  -22.1601   -6.2112 C   0  0  1  0  0  0  0  0  0  0  0  0
   24.5981  -23.5955   -5.7246 C   0  0  0  0  0  0  0  0  0  0  0  0
   23.1077  -24.1379   -4.8390 S   0  0  0  0  0  0  0  0  0  0  0  0
   24.2120  -21.3330   -4.9927 C   0  0  0  0  0  0  0  0  0  0  0  0
   25.1632  -20.4205   -4.5876 O   0  0  0  0  0  0  0  0  0  0  0  0
   23.1706  -21.4705   -4.3029 O   0  0  0  0  0  0  0  0  0  0  0  0
  2  1  1  1
  2  4  1  0
  3  2  1  0
  4  5  1  0
  5  6  1  6
  7  9  1  0
  7  5  1  0
  8  7  2  0
 10  9  1  0
 11 12  1  0
 10 11  1  1
 12 13  2  0
 12 17  1  0
 13 14  1  0
 14 15  2  0
 16 15  1  0
 17 16  2  0
 18 20  1  0
 18 10  1  0
 19 18  2  0
 21 20  1  0
 21 24  1  0
 22 23  1  0
 21 22  1  1
 24 25  1  0
 26 24  2  0
M  END
$$$$
