LFC.pdb
     RDKit          3D

 26 26  0  0  1  0  0  0  0  0999 V2000
   17.5675  -13.4772  -20.8205 C   0  0  0  0  0  0  0  0  0  0  0  0
   18.8098  -13.5022  -19.9605 C   0  0  1  0  0  0  0  0  0  0  0  0
   19.9904  -12.9233  -20.7118 C   0  0  0  0  0  0  0  0  0  0  0  0
   18.6141  -12.7552  -18.6537 C   0  0  0  0  0  0  0  0  0  0  0  0
   19.9056  -12.9055  -17.8748 C   0  0  2  0  0  0  0  0  0  0  0  0
   19.9558  -14.2515  -17.3416 N   0  0  0  0  0  0  0  0  0  0  0  0
   20.0287  -11.9464  -16.7814 C   0  0  0  0  0  0  0  0  0  0  0  0
   19.2539  -12.0204  -15.7937 O   0  0  0  0  0  0  0  0  0  0  0  0
   20.9907  -10.8968  -16.7441 N   0  0  0  0  0  0  0  0  0  0  0  0
   20.9612   -9.8399  -15.7632 C   0  0  1  0  0  0  0  0  0  0  0  0
   22.3402   -9.2736  -15.4997 C   0  0  0  0  0  0  0  0  0  0  0  0
   22.3066   -8.1647  -14.5235 C   0  0  0  0  0  0  0  0  0  0  0  0
   22.4886   -6.8745  -14.9688 C   0  0  0  0  0  0  0  0  0  0  0  0
   22.4721   -5.7856  -14.1277 C   0  0  0  0  0  0  0  0  0  0  0  0
   22.2673   -5.9557  -12.7752 C   0  0  0  0  0  0  0  0  0  0  0  0
   22.0827   -7.2375  -12.3051 C   0  0  0  0  0  0  0  0  0  0  0  0
   22.1021   -8.3224  -13.1647 C   0  0  0  0  0  0  0  0  0  0  0  0
   20.1103   -8.7177  -16.2248 C   0  0  0  0  0  0  0  0  0  0  0  0
   20.1950   -8.3567  -17.4210 O   0  0  0  0  0  0  0  0  0  0  0  0
   19.2040   -8.0318  -15.3778 N   0  0  0  0  0  0  0  0  0  0  0  0
   18.4184   -6.9384  -15.9269 C   0  0  1  0  0  0  0  0  0  0  0  0
   16.9570   -7.4011  -15.9482 C   0  0  0  0  0  0  0  0  0  0  0  0
   15.9281   -6.0000  -16.4756 S   0  0  0  0  0  0  0  0  0  0  0  0
   18.4650   -5.7650  -15.0247 C   0  0  0  0  0  0  0  0  0  0  0  0
   18.5753   -4.4724  -15.4925 O   0  0  0  0  0  0  0  0  0  0  0  0
   18.4013   -5.9581  -13.7846 O   0  0  0  0  0  0  0  0  0  0  0  0
  2  1  1  6
  2  4  1  0
  3  2  1  0
  4  5  1  0
  5  6  1  1
  7  9  1  0
  7  5  1  0
  8  7  2  0
 10  9  1  0
 11 12  1  0
 10 11  1  6
 12 13  2  0
 12 17  1  0
 13 14  1  0
 14 15  2  0
 16 15  1  0
 17 16  2  0
 18 20  1  0
 18 10  1  0
 19 18  2  0
 21 20  1  0
 21 24  1  0
 22 23  1  0
 21 22  1  1
 24 25  1  0
 26 24  2  0
M  END
$$$$
