LFC.pdb
     RDKit          3D

 26 26  0  0  1  0  0  0  0  0999 V2000
   26.9016  -21.3414  -18.8000 C   0  0  0  0  0  0  0  0  0  0  0  0
   27.1970  -21.4795  -17.3245 C   0  0  1  0  0  0  0  0  0  0  0  0
   27.9102  -20.2484  -16.8058 C   0  0  0  0  0  0  0  0  0  0  0  0
   25.9391  -21.7272  -16.5116 C   0  0  0  0  0  0  0  0  0  0  0  0
   26.3920  -22.2897  -15.1791 C   0  0  2  0  0  0  0  0  0  0  0  0
   26.6959  -23.6941  -15.3632 N   0  0  0  0  0  0  0  0  0  0  0  0
   25.3905  -22.1445  -14.1273 C   0  0  0  0  0  0  0  0  0  0  0  0
   24.6205  -23.1021  -13.8598 O   0  0  0  0  0  0  0  0  0  0  0  0
   25.2106  -20.9626  -13.3533 N   0  0  0  0  0  0  0  0  0  0  0  0
   24.2335  -20.8571  -12.2976 C   0  0  1  0  0  0  0  0  0  0  0  0
   24.5626  -19.7391  -11.3314 C   0  0  0  0  0  0  0  0  0  0  0  0
   25.5739  -20.1480  -10.3346 C   0  0  0  0  0  0  0  0  0  0  0  0
   25.2784  -20.0328   -8.9946 C   0  0  0  0  0  0  0  0  0  0  0  0
   26.1622  -20.3905   -8.0023 C   0  0  0  0  0  0  0  0  0  0  0  0
   27.4058  -20.8891   -8.3263 C   0  0  0  0  0  0  0  0  0  0  0  0
   27.7251  -21.0138   -9.6607 C   0  0  0  0  0  0  0  0  0  0  0  0
   26.8245  -20.6495  -10.6469 C   0  0  0  0  0  0  0  0  0  0  0  0
   22.8891  -20.5720  -12.8522 C   0  0  0  0  0  0  0  0  0  0  0  0
   22.7139  -19.4978  -13.4717 O   0  0  0  0  0  0  0  0  0  0  0  0
   21.7899  -21.4567  -12.7158 N   0  0  0  0  0  0  0  0  0  0  0  0
   20.5073  -21.0778  -13.2862 C   0  0  1  0  0  0  0  0  0  0  0  0
   19.7157  -22.3712  -13.5115 C   0  0  0  0  0  0  0  0  0  0  0  0
   20.6292  -23.3926  -14.7038 S   0  0  0  0  0  0  0  0  0  0  0  0
   19.7247  -20.2809  -12.3138 C   0  0  0  0  0  0  0  0  0  0  0  0
   20.1937  -19.9793  -11.0525 O   0  0  0  0  0  0  0  0  0  0  0  0
   18.5889  -19.8646  -12.6544 O   0  0  0  0  0  0  0  0  0  0  0  0
  2  1  1  6
  2  4  1  0
  3  2  1  0
  4  5  1  0
  5  6  1  6
  7  9  1  0
  7  5  1  0
  8  7  2  0
 10  9  1  0
 11 12  1  0
 10 11  1  1
 12 13  2  0
 12 17  1  0
 13 14  1  0
 14 15  2  0
 16 15  1  0
 17 16  2  0
 18 20  1  0
 18 10  1  0
 19 18  2  0
 21 20  1  0
 21 24  1  0
 22 23  1  0
 21 22  1  1
 24 25  1  0
 26 24  2  0
M  END
$$$$
