LFC.pdb
     RDKit          3D

 26 26  0  0  1  0  0  0  0  0999 V2000
   18.1627  -10.3025  -14.9533 C   0  0  0  0  0  0  0  0  0  0  0  0
   17.6301  -10.4434  -13.5462 C   0  0  1  0  0  0  0  0  0  0  0  0
   18.7673  -10.5990  -12.5584 C   0  0  0  0  0  0  0  0  0  0  0  0
   16.7573   -9.2676  -13.1461 C   0  0  0  0  0  0  0  0  0  0  0  0
   16.1977   -9.5939  -11.7760 C   0  0  2  0  0  0  0  0  0  0  0  0
   15.2792  -10.7051  -11.9177 N   0  0  0  0  0  0  0  0  0  0  0  0
   15.5040   -8.4677  -11.1587 C   0  0  0  0  0  0  0  0  0  0  0  0
   14.3498   -8.1545  -11.5475 O   0  0  0  0  0  0  0  0  0  0  0  0
   16.0506   -7.6680  -10.1146 N   0  0  0  0  0  0  0  0  0  0  0  0
   15.3690   -6.5216   -9.5656 C   0  0  1  0  0  0  0  0  0  0  0  0
   15.2846   -6.5830   -8.0553 C   0  0  0  0  0  0  0  0  0  0  0  0
   13.9810   -7.1039   -7.5940 C   0  0  0  0  0  0  0  0  0  0  0  0
   13.8054   -8.4651   -7.4814 C   0  0  0  0  0  0  0  0  0  0  0  0
   12.6249   -9.0327   -7.0600 C   0  0  0  0  0  0  0  0  0  0  0  0
   11.5505   -8.2356   -6.7278 C   0  0  0  0  0  0  0  0  0  0  0  0
   11.7014   -6.8702   -6.8323 C   0  0  0  0  0  0  0  0  0  0  0  0
   12.8958   -6.3149   -7.2579 C   0  0  0  0  0  0  0  0  0  0  0  0
   16.0833   -5.2699   -9.9115 C   0  0  0  0  0  0  0  0  0  0  0  0
   17.3356   -5.2752   -9.9042 O   0  0  0  0  0  0  0  0  0  0  0  0
   15.4178   -4.0652  -10.2507 N   0  0  0  0  0  0  0  0  0  0  0  0
   16.1959   -2.9572  -10.7808 C   0  0  1  0  0  0  0  0  0  0  0  0
   16.6880   -3.3776  -12.1706 C   0  0  0  0  0  0  0  0  0  0  0  0
   17.6399   -1.9996  -12.8739 S   0  0  0  0  0  0  0  0  0  0  0  0
   15.3316   -1.7733  -10.9915 C   0  0  0  0  0  0  0  0  0  0  0  0
   15.8359   -0.4935  -11.0896 O   0  0  0  0  0  0  0  0  0  0  0  0
   14.0901   -1.9450  -11.0842 O   0  0  0  0  0  0  0  0  0  0  0  0
  2  1  1  6
  2  4  1  0
  3  2  1  0
  4  5  1  0
  5  6  1  6
  7  9  1  0
  7  5  1  0
  8  7  2  0
 10  9  1  0
 11 12  1  0
 10 11  1  1
 12 13  2  0
 12 17  1  0
 13 14  1  0
 14 15  2  0
 16 15  1  0
 17 16  2  0
 18 20  1  0
 18 10  1  0
 19 18  2  0
 21 20  1  0
 21 24  1  0
 22 23  1  0
 21 22  1  6
 24 25  1  0
 26 24  2  0
M  END
$$$$
