LFC.pdb
     RDKit          3D

 26 26  0  0  1  0  0  0  0  0999 V2000
   28.7958  -18.9299  -17.7241 C   0  0  0  0  0  0  0  0  0  0  0  0
   28.8305  -18.9035  -16.2136 C   0  0  1  0  0  0  0  0  0  0  0  0
   28.3799  -17.5547  -15.6932 C   0  0  0  0  0  0  0  0  0  0  0  0
   27.9785  -20.0019  -15.6040 C   0  0  0  0  0  0  0  0  0  0  0  0
   27.9539  -19.7482  -14.1100 C   0  0  2  0  0  0  0  0  0  0  0  0
   29.2213  -20.1819  -13.5587 N   0  0  0  0  0  0  0  0  0  0  0  0
   26.8660  -20.4442  -13.4298 C   0  0  0  0  0  0  0  0  0  0  0  0
   26.2970  -21.4152  -13.9906 O   0  0  0  0  0  0  0  0  0  0  0  0
   26.3817  -20.0979  -12.1360 N   0  0  0  0  0  0  0  0  0  0  0  0
   25.3221  -20.8199  -11.4756 C   0  0  1  0  0  0  0  0  0  0  0  0
   25.1659  -20.3990  -10.0298 C   0  0  0  0  0  0  0  0  0  0  0  0
   26.4414  -20.4800   -9.2883 C   0  0  0  0  0  0  0  0  0  0  0  0
   27.3539  -21.4533   -9.6292 C   0  0  0  0  0  0  0  0  0  0  0  0
   28.5640  -21.5981   -8.9904 C   0  0  0  0  0  0  0  0  0  0  0  0
   28.9116  -20.7505   -7.9604 C   0  0  0  0  0  0  0  0  0  0  0  0
   28.0151  -19.7682   -7.6006 C   0  0  0  0  0  0  0  0  0  0  0  0
   26.8016  -19.6359   -8.2535 C   0  0  0  0  0  0  0  0  0  0  0  0
   24.0223  -20.5738  -12.1439 C   0  0  0  0  0  0  0  0  0  0  0  0
   23.8749  -19.5117  -12.7907 O   0  0  0  0  0  0  0  0  0  0  0  0
   22.9362  -21.4829  -12.0869 N   0  0  0  0  0  0  0  0  0  0  0  0
   21.7272  -21.1819  -12.8363 C   0  0  1  0  0  0  0  0  0  0  0  0
   21.8070  -21.9648  -14.1520 C   0  0  0  0  0  0  0  0  0  0  0  0
   22.3714  -23.6495  -13.7738 S   0  0  0  0  0  0  0  0  0  0  0  0
   20.5358  -21.6968  -12.1231 C   0  0  0  0  0  0  0  0  0  0  0  0
   19.2505  -21.4876  -12.5770 O   0  0  0  0  0  0  0  0  0  0  0  0
   20.7062  -22.3497  -11.0630 O   0  0  0  0  0  0  0  0  0  0  0  0
  2  1  1  6
  2  4  1  0
  3  2  1  0
  4  5  1  0
  5  6  1  1
  7  9  1  0
  7  5  1  0
  8  7  2  0
 10  9  1  0
 11 12  1  0
 10 11  1  1
 12 13  2  0
 12 17  1  0
 13 14  1  0
 14 15  2  0
 16 15  1  0
 17 16  2  0
 18 20  1  0
 18 10  1  0
 19 18  2  0
 21 20  1  0
 21 24  1  0
 22 23  1  0
 21 22  1  6
 24 25  1  0
 26 24  2  0
M  END
$$$$
