RLM.pdb
     RDKit          3D

 28 27  0  0  1  0  0  0  0  0999 V2000
    7.9322  -14.0697   14.2079 N   0  0  0  0  0  0  0  0  0  0  0  0
    9.0594  -14.1107   15.0702 C   0  0  0  0  0  0  0  0  0  0  0  0
   10.0974  -14.8372   14.7561 N   0  0  0  0  0  0  0  0  0  0  0  0
    9.1538  -13.3987   16.2924 N   0  0  0  0  0  0  0  0  0  0  0  0
    8.0795  -13.2828   17.2553 C   0  0  0  0  0  0  0  0  0  0  0  0
    8.2249  -14.4148   18.2785 C   0  0  0  0  0  0  0  0  0  0  0  0
    9.2373  -14.0438   19.3470 C   0  0  0  0  0  0  0  0  0  0  0  0
    9.3280  -15.2321   20.2773 C   0  0  2  0  0  0  0  0  0  0  0  0
    8.0778  -15.9785   20.0876 N   0  0  0  0  0  0  0  0  0  0  0  0
    9.4799  -14.8488   21.6999 C   0  0  0  0  0  0  0  0  0  0  0  0
   10.5816  -14.3741   22.0896 O   0  0  0  0  0  0  0  0  0  0  0  0
   10.9657  -14.8114   15.3351 C   0  0  0  0  0  0  0  0  0  0  0  0
    5.7251  -13.4138   26.3198 C   0  0  1  0  0  0  0  0  0  0  0  0
    7.2012  -13.5045   25.9082 C   0  0  0  0  0  0  0  0  0  0  0  0
    7.7491  -12.1207   25.9348 C   0  0  0  0  0  0  0  0  0  0  0  0
    7.2178  -14.1738   24.5575 C   0  0  2  0  0  0  0  0  0  0  0  0
    8.5750  -14.5080   24.0403 N   0  0  0  0  0  0  0  0  0  0  0  0
    8.4489  -14.9857   22.6603 C   0  0  0  0  0  0  0  0  0  0  0  0
    9.3752  -15.4483   24.7917 O   0  0  0  0  0  0  0  0  0  0  0  0
    9.5084  -16.6287   24.3674 C   0  0  0  0  0  0  0  0  0  0  0  0
   11.4290  -13.8061   30.3241 S   0  0  0  0  0  0  0  0  0  0  0  0
   11.9276  -15.5238   30.6292 C   0  0  0  0  0  0  0  0  0  0  0  0
   11.6358  -16.5267   29.1160 C   0  0  0  0  0  0  0  0  0  0  0  0
   11.0176  -15.6006   28.1213 C   0  0  1  0  0  0  0  0  0  0  0  0
   10.7352  -16.2154   26.7702 N   0  0  0  0  0  0  0  0  0  0  0  0
   10.0552  -15.1582   26.0095 C   0  0  0  0  0  0  0  0  0  0  0  0
    9.8741  -17.3873   26.9321 O   0  0  0  0  0  0  0  0  0  0  0  0
   10.3067  -18.6907   27.0212 O   0  0  0  0  0  0  0  0  0  0  0  0
  2  1  1  0
  3  2  2  0
  4  2  1  0
  5  4  1  0
  6  5  1  0
  7  6  1  0
  8  7  1  0
  8  9  1  1
 10  8  1  0
 10 11  2  0
 13 15  1  0
 13 12  1  1
 14 13  1  0
 16 15  1  6
 16 17  1  0
 16 18  1  0
 17 10  1  0
 18 19  2  0
 18 25  1  0
 20 21  1  0
 21 22  1  0
 22 23  1  0
 24 23  1  6
 24 26  1  0
 25 24  1  0
 26 28  2  0
 26 27  1  0
M  END
$$$$
