RLM.pdb
     RDKit          3D

 28 27  0  0  1  0  0  0  0  0999 V2000
    9.1750  -13.3528   18.9297 N   0  0  0  0  0  0  0  0  0  0  0  0
    8.2996  -13.3975   17.8127 C   0  0  0  0  0  0  0  0  0  0  0  0
    7.7143  -12.3076   17.3960 N   0  0  0  0  0  0  0  0  0  0  0  0
    7.9977  -14.5753   17.0838 N   0  0  0  0  0  0  0  0  0  0  0  0
    8.4532  -15.9001   17.4471 C   0  0  0  0  0  0  0  0  0  0  0  0
    8.0713  -16.1573   18.9091 C   0  0  0  0  0  0  0  0  0  0  0  0
    9.1421  -15.6242   19.8438 C   0  0  0  0  0  0  0  0  0  0  0  0
    9.2442  -16.6143   20.9817 C   0  0  2  0  0  0  0  0  0  0  0  0
    7.9389  -17.2840   21.0407 N   0  0  0  0  0  0  0  0  0  0  0  0
    9.5475  -15.9769   22.2839 C   0  0  0  0  0  0  0  0  0  0  0  0
   10.6335  -15.3497   22.4180 O   0  0  0  0  0  0  0  0  0  0  0  0
    7.1496  -12.3037   16.5180 C   0  0  0  0  0  0  0  0  0  0  0  0
    8.1944  -12.5958   24.8744 C   0  0  2  0  0  0  0  0  0  0  0  0
    7.1259  -13.6866   24.7163 C   0  0  0  0  0  0  0  0  0  0  0  0
    5.8912  -13.1902   25.3831 C   0  0  0  0  0  0  0  0  0  0  0  0
    7.7162  -14.9390   25.3125 C   0  0  2  0  0  0  0  0  0  0  0  0
    8.9891  -15.3927   24.6838 N   0  0  0  0  0  0  0  0  0  0  0  0
    8.6797  -16.0311   23.4011 C   0  0  0  0  0  0  0  0  0  0  0  0
    9.8500  -16.2667   25.4480 O   0  0  0  0  0  0  0  0  0  0  0  0
   10.3231  -17.3023   24.9052 C   0  0  0  0  0  0  0  0  0  0  0  0
   10.1817  -13.2694   28.5173 S   0  0  0  0  0  0  0  0  0  0  0  0
   11.1109  -14.0538   29.8639 C   0  0  0  0  0  0  0  0  0  0  0  0
   12.0624  -15.4820   29.2039 C   0  0  0  0  0  0  0  0  0  0  0  0
   11.0634  -16.5641   28.9586 C   0  0  2  0  0  0  0  0  0  0  0  0
   11.0109  -17.0703   27.5358 N   0  0  0  0  0  0  0  0  0  0  0  0
   10.2314  -16.0616   26.8052 C   0  0  0  0  0  0  0  0  0  0  0  0
   10.3505  -18.3756   27.5010 O   0  0  0  0  0  0  0  0  0  0  0  0
   10.9035  -19.5625   27.9247 O   0  0  0  0  0  0  0  0  0  0  0  0
  2  1  1  0
  3  2  2  0
  4  2  1  0
  5  4  1  0
  6  5  1  0
  7  6  1  0
  8  7  1  0
  8  9  1  1
 10  8  1  0
 10 11  2  0
 13 15  1  0
 13 12  1  6
 14 13  1  0
 16 15  1  6
 16 17  1  0
 16 18  1  0
 17 10  1  0
 18 19  2  0
 18 25  1  0
 20 21  1  0
 21 22  1  0
 22 23  1  0
 24 23  1  6
 24 26  1  0
 25 24  1  0
 26 28  2  0
 26 27  1  0
M  END
$$$$
