RLM.pdb
     RDKit          3D

 28 27  0  0  1  0  0  0  0  0999 V2000
    7.9912  -14.2589   14.7271 N   0  0  0  0  0  0  0  0  0  0  0  0
    8.0315  -13.8207   16.0769 C   0  0  0  0  0  0  0  0  0  0  0  0
    8.1618  -12.5506   16.3489 N   0  0  0  0  0  0  0  0  0  0  0  0
    7.9376  -14.6835   17.1978 N   0  0  0  0  0  0  0  0  0  0  0  0
    7.8831  -16.1274   17.1149 C   0  0  0  0  0  0  0  0  0  0  0  0
    7.8469  -16.6912   18.5398 C   0  0  0  0  0  0  0  0  0  0  0  0
    9.1105  -16.3200   19.2946 C   0  0  0  0  0  0  0  0  0  0  0  0
    9.0263  -17.0176   20.6332 C   0  0  2  0  0  0  0  0  0  0  0  0
    7.6390  -17.4841   20.7488 N   0  0  0  0  0  0  0  0  0  0  0  0
    9.3618  -16.1338   21.7735 C   0  0  0  0  0  0  0  0  0  0  0  0
   10.5049  -15.6027   21.8182 O   0  0  0  0  0  0  0  0  0  0  0  0
    8.2032  -12.2147   17.3365 C   0  0  0  0  0  0  0  0  0  0  0  0
    6.3708  -12.8785   25.9697 C   0  0  1  0  0  0  0  0  0  0  0  0
    7.7846  -13.2696   25.5170 C   0  0  0  0  0  0  0  0  0  0  0  0
    8.5259  -12.0056   25.2551 C   0  0  0  0  0  0  0  0  0  0  0  0
    7.6062  -14.1672   24.3192 C   0  0  2  0  0  0  0  0  0  0  0  0
    8.8075  -14.9699   23.9531 N   0  0  0  0  0  0  0  0  0  0  0  0
    8.4639  -15.8466   22.8297 C   0  0  0  0  0  0  0  0  0  0  0  0
    9.4388  -15.7574   24.9877 O   0  0  0  0  0  0  0  0  0  0  0  0
    8.8572  -16.7871   25.4263 C   0  0  0  0  0  0  0  0  0  0  0  0
   11.1522  -14.5025   32.0701 S   0  0  0  0  0  0  0  0  0  0  0  0
   10.4302  -14.3155   30.4162 C   0  0  0  0  0  0  0  0  0  0  0  0
   11.1636  -15.5617   29.2805 C   0  0  0  0  0  0  0  0  0  0  0  0
   10.5913  -15.2763   27.9314 C   0  0  2  0  0  0  0  0  0  0  0  0
   11.1305  -16.1415   26.8161 N   0  0  0  0  0  0  0  0  0  0  0  0
   10.7030  -15.4728   25.5796 C   0  0  0  0  0  0  0  0  0  0  0  0
   10.5598  -17.4852   26.9147 O   0  0  0  0  0  0  0  0  0  0  0  0
   11.2775  -18.6487   27.0738 O   0  0  0  0  0  0  0  0  0  0  0  0
  2  1  1  0
  3  2  2  0
  4  2  1  0
  5  4  1  0
  6  5  1  0
  7  6  1  0
  8  7  1  0
  8  9  1  1
 10  8  1  0
 10 11  2  0
 13 15  1  0
 13 12  1  1
 14 13  1  0
 16 15  1  6
 16 17  1  0
 16 18  1  0
 17 10  1  0
 18 19  2  0
 18 25  1  0
 20 21  1  0
 21 22  1  0
 22 23  1  0
 24 23  1  6
 24 26  1  0
 25 24  1  0
 26 28  2  0
 26 27  1  0
M  END
$$$$
