RLM.pdb
     RDKit          3D

 28 27  0  0  1  0  0  0  0  0999 V2000
   10.8799  -19.9622   18.1444 N   0  0  0  0  0  0  0  0  0  0  0  0
   11.8997  -20.2381   19.0929 C   0  0  0  0  0  0  0  0  0  0  0  0
   13.1353  -20.3896   18.6998 N   0  0  0  0  0  0  0  0  0  0  0  0
   11.6773  -20.3671   20.4870 N   0  0  0  0  0  0  0  0  0  0  0  0
   10.3812  -20.2550   21.1212 C   0  0  0  0  0  0  0  0  0  0  0  0
    9.8664  -18.8258   20.9167 C   0  0  0  0  0  0  0  0  0  0  0  0
    8.5472  -18.6234   21.6399 C   0  0  0  0  0  0  0  0  0  0  0  0
    8.0470  -17.2549   21.2364 C   0  0  2  0  0  0  0  0  0  0  0  0
    8.6144  -17.0036   19.9057 N   0  0  0  0  0  0  0  0  0  0  0  0
    8.4572  -16.1842   22.1741 C   0  0  0  0  0  0  0  0  0  0  0  0
    9.6059  -15.6768   22.0560 O   0  0  0  0  0  0  0  0  0  0  0  0
   13.9041  -20.5361   19.3906 C   0  0  0  0  0  0  0  0  0  0  0  0
    5.8111  -12.8536   26.6562 C   0  0  1  0  0  0  0  0  0  0  0  0
    7.0869  -12.9991   25.8149 C   0  0  0  0  0  0  0  0  0  0  0  0
    7.3385  -11.6815   25.1695 C   0  0  0  0  0  0  0  0  0  0  0  0
    6.8316  -14.1399   24.8631 C   0  0  2  0  0  0  0  0  0  0  0  0
    8.0285  -14.6040   24.1059 N   0  0  0  0  0  0  0  0  0  0  0  0
    7.6259  -15.6907   23.2083 C   0  0  0  0  0  0  0  0  0  0  0  0
    9.1884  -15.0228   24.8599 O   0  0  0  0  0  0  0  0  0  0  0  0
   10.0407  -14.1639   25.2162 C   0  0  0  0  0  0  0  0  0  0  0  0
   11.1156  -13.9483   30.5996 S   0  0  0  0  0  0  0  0  0  0  0  0
   10.2148  -13.8501   29.0277 C   0  0  0  0  0  0  0  0  0  0  0  0
   11.1280  -14.7874   27.7361 C   0  0  0  0  0  0  0  0  0  0  0  0
   10.2980  -15.9921   27.4376 C   0  0  2  0  0  0  0  0  0  0  0  0
   10.6132  -16.6721   26.1256 N   0  0  0  0  0  0  0  0  0  0  0  0
    9.4703  -16.3619   25.2559 C   0  0  0  0  0  0  0  0  0  0  0  0
   10.7409  -18.1145   26.3361 O   0  0  0  0  0  0  0  0  0  0  0  0
   11.8684  -18.7589   26.7916 O   0  0  0  0  0  0  0  0  0  0  0  0
  2  1  1  0
  3  2  2  0
  4  2  1  0
  5  4  1  0
  6  5  1  0
  7  6  1  0
  8  7  1  0
  8  9  1  6
 10  8  1  0
 10 11  2  0
 13 15  1  0
 13 12  1  1
 14 13  1  0
 16 15  1  6
 16 17  1  0
 16 18  1  0
 17 10  1  0
 18 19  2  0
 18 25  1  0
 20 21  1  0
 21 22  1  0
 22 23  1  0
 24 23  1  6
 24 26  1  0
 25 24  1  0
 26 28  2  0
 26 27  1  0
M  END
$$$$
