RLM.pdb
     RDKit          3D

 28 27  0  0  1  0  0  0  0  0999 V2000
    6.4533  -19.4696   17.9913 N   0  0  0  0  0  0  0  0  0  0  0  0
    6.5302  -20.8341   18.3763 C   0  0  0  0  0  0  0  0  0  0  0  0
    6.0121  -21.7590   17.6147 N   0  0  0  0  0  0  0  0  0  0  0  0
    7.1486  -21.2923   19.5668 N   0  0  0  0  0  0  0  0  0  0  0  0
    7.6893  -20.4258   20.5922 C   0  0  0  0  0  0  0  0  0  0  0  0
    8.8684  -19.6496   19.9950 C   0  0  0  0  0  0  0  0  0  0  0  0
    9.5541  -18.8141   21.0609 C   0  0  0  0  0  0  0  0  0  0  0  0
    9.1631  -17.3786   20.7924 C   0  0  2  0  0  0  0  0  0  0  0  0
   10.0245  -16.9344   19.6894 N   0  0  0  0  0  0  0  0  0  0  0  0
    9.3456  -16.4949   21.9671 C   0  0  0  0  0  0  0  0  0  0  0  0
   10.4894  -16.0165   22.1988 O   0  0  0  0  0  0  0  0  0  0  0  0
    6.0075  -22.7595   17.9129 C   0  0  0  0  0  0  0  0  0  0  0  0
    5.7157  -13.6110   26.0284 C   0  0  1  0  0  0  0  0  0  0  0  0
    7.1800  -13.8118   25.6136 C   0  0  0  0  0  0  0  0  0  0  0  0
    7.7534  -12.4611   25.3631 C   0  0  0  0  0  0  0  0  0  0  0  0
    7.1532  -14.7279   24.4167 C   0  0  2  0  0  0  0  0  0  0  0  0
    8.4846  -15.2500   23.9972 N   0  0  0  0  0  0  0  0  0  0  0  0
    8.2990  -16.1516   22.8564 C   0  0  0  0  0  0  0  0  0  0  0  0
    9.2984  -15.9118   24.9916 O   0  0  0  0  0  0  0  0  0  0  0  0
    8.9853  -17.0706   25.3793 C   0  0  0  0  0  0  0  0  0  0  0  0
   10.2734  -12.8797   29.6118 S   0  0  0  0  0  0  0  0  0  0  0  0
   11.0931  -14.2748   30.4326 C   0  0  0  0  0  0  0  0  0  0  0  0
   11.3848  -15.6202   29.2139 C   0  0  0  0  0  0  0  0  0  0  0  0
   10.9447  -15.0814   27.8928 C   0  0  1  0  0  0  0  0  0  0  0  0
   11.1203  -16.0293   26.7292 N   0  0  0  0  0  0  0  0  0  0  0  0
   10.4648  -15.3614   25.5965 C   0  0  0  0  0  0  0  0  0  0  0  0
   10.4767  -17.3077   27.0333 O   0  0  0  0  0  0  0  0  0  0  0  0
    9.1319  -17.5741   26.9121 O   0  0  0  0  0  0  0  0  0  0  0  0
  2  1  1  0
  3  2  2  0
  4  2  1  0
  5  4  1  0
  6  5  1  0
  7  6  1  0
  8  7  1  0
  8  9  1  6
 10  8  1  0
 10 11  2  0
 13 15  1  0
 13 12  1  1
 14 13  1  0
 16 15  1  6
 16 17  1  0
 16 18  1  0
 17 10  1  0
 18 19  2  0
 18 25  1  0
 20 21  1  0
 21 22  1  0
 22 23  1  0
 24 23  1  6
 24 26  1  0
 25 24  1  0
 26 28  2  0
 26 27  1  0
M  END
$$$$
