RLM.pdb
     RDKit          3D

 28 27  0  0  1  0  0  0  0  0999 V2000
    9.7907  -18.1798   16.3333 N   0  0  0  0  0  0  0  0  0  0  0  0
    8.6195  -18.9761   16.2328 C   0  0  0  0  0  0  0  0  0  0  0  0
    8.5857  -19.9893   15.4104 N   0  0  0  0  0  0  0  0  0  0  0  0
    7.4373  -18.7524   16.9824 N   0  0  0  0  0  0  0  0  0  0  0  0
    7.2398  -17.6366   17.8828 C   0  0  0  0  0  0  0  0  0  0  0  0
    8.5195  -17.4483   18.7051 C   0  0  0  0  0  0  0  0  0  0  0  0
    8.3685  -16.2882   19.6724 C   0  0  0  0  0  0  0  0  0  0  0  0
    8.6931  -16.8339   21.0444 C   0  0  2  0  0  0  0  0  0  0  0  0
    7.5008  -17.5805   21.4648 N   0  0  0  0  0  0  0  0  0  0  0  0
    9.0054  -15.7765   22.0336 C   0  0  0  0  0  0  0  0  0  0  0  0
   10.0650  -15.1063   21.8964 O   0  0  0  0  0  0  0  0  0  0  0  0
    7.7311  -20.5826   15.3244 C   0  0  0  0  0  0  0  0  0  0  0  0
    6.1060  -12.9621   26.6788 C   0  0  1  0  0  0  0  0  0  0  0  0
    7.4416  -13.0167   25.9240 C   0  0  0  0  0  0  0  0  0  0  0  0
    7.7581  -11.6276   25.4928 C   0  0  0  0  0  0  0  0  0  0  0  0
    7.2481  -14.0065   24.8036 C   0  0  2  0  0  0  0  0  0  0  0  0
    8.5020  -14.4317   24.1195 N   0  0  0  0  0  0  0  0  0  0  0  0
    8.1745  -15.4701   23.1381 C   0  0  0  0  0  0  0  0  0  0  0  0
    9.6008  -14.8898   24.9392 O   0  0  0  0  0  0  0  0  0  0  0  0
   10.3437  -14.0454   25.5103 C   0  0  0  0  0  0  0  0  0  0  0  0
   10.1726  -14.0449   29.0887 S   0  0  0  0  0  0  0  0  0  0  0  0
   11.0440  -15.4649   29.8070 C   0  0  0  0  0  0  0  0  0  0  0  0
   10.7749  -16.9482   28.7543 C   0  0  0  0  0  0  0  0  0  0  0  0
   10.0853  -16.4597   27.5235 C   0  0  1  0  0  0  0  0  0  0  0  0
   10.8699  -16.6333   26.2438 N   0  0  0  0  0  0  0  0  0  0  0  0
    9.9361  -16.2542   25.1746 C   0  0  0  0  0  0  0  0  0  0  0  0
   11.2899  -18.0285   26.1085 O   0  0  0  0  0  0  0  0  0  0  0  0
   12.2789  -18.6402   26.8445 O   0  0  0  0  0  0  0  0  0  0  0  0
  2  1  1  0
  3  2  2  0
  4  2  1  0
  5  4  1  0
  6  5  1  0
  7  6  1  0
  8  7  1  0
  8  9  1  1
 10  8  1  0
 10 11  2  0
 13 15  1  0
 13 12  1  1
 14 13  1  0
 16 15  1  6
 16 17  1  0
 16 18  1  0
 17 10  1  0
 18 19  2  0
 18 25  1  0
 20 21  1  0
 21 22  1  0
 22 23  1  0
 24 23  1  1
 24 26  1  0
 25 24  1  0
 26 28  2  0
 26 27  1  0
M  END
$$$$
