RLM.pdb
     RDKit          3D

 28 27  0  0  1  0  0  0  0  0999 V2000
   13.3744  -20.2974   18.9186 N   0  0  0  0  0  0  0  0  0  0  0  0
   12.3596  -20.6120   17.9768 C   0  0  0  0  0  0  0  0  0  0  0  0
   12.6487  -20.6946   16.7065 N   0  0  0  0  0  0  0  0  0  0  0  0
   11.0047  -20.8537   18.3165 N   0  0  0  0  0  0  0  0  0  0  0  0
   10.2876  -20.1557   19.3621 C   0  0  0  0  0  0  0  0  0  0  0  0
   10.4502  -18.6485   19.1347 C   0  0  0  0  0  0  0  0  0  0  0  0
   10.7116  -17.9342   20.4483 C   0  0  0  0  0  0  0  0  0  0  0  0
    9.3984  -17.3087   20.8606 C   0  0  2  0  0  0  0  0  0  0  0  0
    8.8428  -16.7148   19.6381 N   0  0  0  0  0  0  0  0  0  0  0  0
    9.5498  -16.2706   21.9063 C   0  0  0  0  0  0  0  0  0  0  0  0
   10.6739  -15.7202   22.0614 O   0  0  0  0  0  0  0  0  0  0  0  0
   11.9123  -20.9211   16.0021 C   0  0  0  0  0  0  0  0  0  0  0  0
    5.9383  -13.5261   26.1113 C   0  0  1  0  0  0  0  0  0  0  0  0
    7.3525  -13.5306   25.5141 C   0  0  0  0  0  0  0  0  0  0  0  0
    7.6520  -12.1363   25.0872 C   0  0  0  0  0  0  0  0  0  0  0  0
    7.3339  -14.5501   24.4039 C   0  0  2  0  0  0  0  0  0  0  0  0
    8.6677  -14.8608   23.8160 N   0  0  0  0  0  0  0  0  0  0  0  0
    8.4939  -15.8548   22.7527 C   0  0  0  0  0  0  0  0  0  0  0  0
    9.7157  -15.3043   24.7071 O   0  0  0  0  0  0  0  0  0  0  0  0
   10.8322  -14.7176   24.6933 C   0  0  0  0  0  0  0  0  0  0  0  0
   11.0953  -12.8734   28.6103 S   0  0  0  0  0  0  0  0  0  0  0  0
   10.4803  -14.1808   29.7078 C   0  0  0  0  0  0  0  0  0  0  0  0
   10.0607  -15.6703   28.7149 C   0  0  0  0  0  0  0  0  0  0  0  0
   10.8656  -15.5695   27.4614 C   0  0  1  0  0  0  0  0  0  0  0  0
   10.7215  -16.7407   26.5175 N   0  0  0  0  0  0  0  0  0  0  0  0
    9.6034  -16.3789   25.6356 C   0  0  0  0  0  0  0  0  0  0  0  0
   10.4227  -17.9538   27.2791 O   0  0  0  0  0  0  0  0  0  0  0  0
    9.2209  -18.6244   27.2749 O   0  0  0  0  0  0  0  0  0  0  0  0
  2  1  1  0
  3  2  2  0
  4  2  1  0
  5  4  1  0
  6  5  1  0
  7  6  1  0
  8  7  1  0
  8  9  1  6
 10  8  1  0
 10 11  2  0
 13 15  1  0
 13 12  1  1
 14 13  1  0
 16 15  1  6
 16 17  1  0
 16 18  1  0
 17 10  1  0
 18 19  2  0
 18 25  1  0
 20 21  1  0
 21 22  1  0
 22 23  1  0
 24 23  1  6
 24 26  1  0
 25 24  1  0
 26 28  2  0
 26 27  1  0
M  END
$$$$
