RLM.pdb
     RDKit          3D

 28 27  0  0  1  0  0  0  0  0999 V2000
   10.7831  -21.5925   18.5550 N   0  0  0  0  0  0  0  0  0  0  0  0
    9.6672  -21.4469   17.6894 C   0  0  0  0  0  0  0  0  0  0  0  0
    9.7628  -21.7942   16.4346 N   0  0  0  0  0  0  0  0  0  0  0  0
    8.4078  -20.9357   18.0921 N   0  0  0  0  0  0  0  0  0  0  0  0
    8.1571  -20.2891   19.3624 C   0  0  0  0  0  0  0  0  0  0  0  0
    9.3270  -19.3453   19.6623 C   0  0  0  0  0  0  0  0  0  0  0  0
    9.1776  -18.7289   21.0414 C   0  0  0  0  0  0  0  0  0  0  0  0
    8.5945  -17.3502   20.8298 C   0  0  2  0  0  0  0  0  0  0  0  0
    9.1438  -16.8811   19.5515 N   0  0  0  0  0  0  0  0  0  0  0  0
    8.9400  -16.3986   21.9110 C   0  0  0  0  0  0  0  0  0  0  0  0
   10.1280  -15.9850   22.0033 O   0  0  0  0  0  0  0  0  0  0  0  0
   10.6505  -22.1898   16.0533 C   0  0  0  0  0  0  0  0  0  0  0  0
    5.9530  -13.0098   26.1004 C   0  0  1  0  0  0  0  0  0  0  0  0
    7.3524  -13.3814   25.5904 C   0  0  0  0  0  0  0  0  0  0  0  0
    8.0459  -12.1095   25.2482 C   0  0  0  0  0  0  0  0  0  0  0  0
    7.1386  -14.3252   24.4345 C   0  0  2  0  0  0  0  0  0  0  0  0
    8.3683  -15.0175   23.9551 N   0  0  0  0  0  0  0  0  0  0  0  0
    8.0039  -15.9202   22.8592 C   0  0  0  0  0  0  0  0  0  0  0  0
    9.1574  -15.7468   24.9218 O   0  0  0  0  0  0  0  0  0  0  0  0
    8.7291  -16.8446   25.3718 C   0  0  0  0  0  0  0  0  0  0  0  0
   10.3607  -12.7596   29.4308 S   0  0  0  0  0  0  0  0  0  0  0  0
   11.2975  -14.1116   30.1966 C   0  0  0  0  0  0  0  0  0  0  0  0
   11.3725  -15.5395   29.0408 C   0  0  0  0  0  0  0  0  0  0  0  0
   11.0071  -15.0010   27.6970 C   0  0  1  0  0  0  0  0  0  0  0  0
   11.0404  -16.0135   26.5758 N   0  0  0  0  0  0  0  0  0  0  0  0
   10.4205  -15.3303   25.4322 C   0  0  0  0  0  0  0  0  0  0  0  0
   10.2755  -17.2001   26.9604 O   0  0  0  0  0  0  0  0  0  0  0  0
   10.8117  -18.4221   27.2971 O   0  0  0  0  0  0  0  0  0  0  0  0
  2  1  1  0
  3  2  2  0
  4  2  1  0
  5  4  1  0
  6  5  1  0
  7  6  1  0
  8  7  1  0
  8  9  1  6
 10  8  1  0
 10 11  2  0
 13 15  1  0
 13 12  1  1
 14 13  1  0
 16 15  1  6
 16 17  1  0
 16 18  1  0
 17 10  1  0
 18 19  2  0
 18 25  1  0
 20 21  1  0
 21 22  1  0
 22 23  1  0
 24 23  1  6
 24 26  1  0
 25 24  1  0
 26 28  2  0
 26 27  1  0
M  END
$$$$
