TNK.pdb
     RDKit          3D

 25 24  0  0  1  0  0  0  0  0999 V2000
    7.0979  -12.3041   19.0234 C   0  0  0  0  0  0  0  0  0  0  0  0
    8.3781  -13.0524   19.3029 C   0  0  1  0  0  0  0  0  0  0  0  0
    8.0457  -14.1139   20.1791 O   0  0  0  0  0  0  0  0  0  0  0  0
    9.0062  -13.6213   18.0382 C   0  0  2  0  0  0  0  0  0  0  0  0
    7.9932  -14.5130   17.4456 N   0  0  0  0  0  0  0  0  0  0  0  0
   10.2338  -14.3827   18.3026 C   0  0  0  0  0  0  0  0  0  0  0  0
   10.1774  -15.6622   18.2312 O   0  0  0  0  0  0  0  0  0  0  0  0
   16.2401  -14.0667   18.7823 N   0  0  0  0  0  0  0  0  0  0  0  0
   15.0751  -14.7661   18.4274 C   0  0  0  0  0  0  0  0  0  0  0  0
   15.1659  -16.0408   18.4333 O   0  0  0  0  0  0  0  0  0  0  0  0
   13.8326  -14.1198   18.0717 C   0  0  0  0  0  0  0  0  0  0  0  0
   12.6348  -14.5650   18.8440 C   0  0  2  0  0  0  0  0  0  0  0  0
   11.4623  -13.7520   18.6266 N   0  0  0  0  0  0  0  0  0  0  0  0
   12.9174  -14.6326   20.2941 C   0  0  0  0  0  0  0  0  0  0  0  0
   13.1478  -13.6039   21.0177 O   0  0  0  0  0  0  0  0  0  0  0  0
   12.9571  -15.8761   21.0226 N   0  0  0  0  0  0  0  0  0  0  0  0
   13.2051  -15.9083   22.4606 C   0  0  1  0  0  0  0  0  0  0  0  0
   12.4378  -17.0299   23.1163 C   0  0  0  0  0  0  0  0  0  0  0  0
   12.7377  -17.2099   24.5609 C   0  0  0  0  0  0  0  0  0  0  0  0
   12.1056  -18.4687   25.1093 C   0  0  0  0  0  0  0  0  0  0  0  0
   12.5428  -18.7100   26.5396 C   0  0  0  0  0  0  0  0  0  0  0  0
   12.0337  -19.9639   27.0450 N   0  0  0  0  0  0  0  0  0  0  0  0
   14.6508  -15.9880   22.6850 C   0  0  0  0  0  0  0  0  0  0  0  0
   15.3023  -15.3447   23.7277 O   0  0  0  0  0  0  0  0  0  0  0  0
   15.3660  -16.6671   21.9089 O   0  0  0  0  0  0  0  0  0  0  0  0
  2  1  1  6
  3  2  1  0
  4  2  1  0
  4  5  1  1
  6  4  1  0
  6  7  2  0
  9 11  1  0
  9  8  1  0
 10  9  2  0
 12 13  1  0
 12 11  1  6
 13  6  1  0
 14 12  1  0
 15 14  2  0
 16 14  1  0
 17 18  1  6
 17 16  1  0
 19 20  1  0
 19 18  1  0
 20 21  1  0
 21 22  1  0
 23 24  1  0
 23 17  1  0
 25 23  2  0
M  END
$$$$
