TNK.pdb
     RDKit          3D

 25 24  0  0  1  0  0  0  0  0999 V2000
    6.7295  -12.7598   19.3635 C   0  0  0  0  0  0  0  0  0  0  0  0
    7.4798  -13.7774   20.1872 C   0  0  1  0  0  0  0  0  0  0  0  0
    6.5975  -14.8659   20.3914 O   0  0  0  0  0  0  0  0  0  0  0  0
    8.7392  -14.2737   19.4907 C   0  0  2  0  0  0  0  0  0  0  0  0
    8.2832  -14.9894   18.2855 N   0  0  0  0  0  0  0  0  0  0  0  0
    9.5348  -15.1813   20.3271 C   0  0  0  0  0  0  0  0  0  0  0  0
    9.4915  -16.4364   20.0657 O   0  0  0  0  0  0  0  0  0  0  0  0
   14.2441  -15.7923   24.2722 N   0  0  0  0  0  0  0  0  0  0  0  0
   13.1205  -16.1325   23.5014 C   0  0  0  0  0  0  0  0  0  0  0  0
   12.8027  -17.3703   23.4942 O   0  0  0  0  0  0  0  0  0  0  0  0
   12.3466  -15.1710   22.7500 C   0  0  0  0  0  0  0  0  0  0  0  0
   11.0457  -15.6727   22.2158 C   0  0  2  0  0  0  0  0  0  0  0  0
   10.3401  -14.7156   21.3979 N   0  0  0  0  0  0  0  0  0  0  0  0
   10.1542  -16.1349   23.3016 C   0  0  0  0  0  0  0  0  0  0  0  0
    9.4629  -15.3456   24.0322 O   0  0  0  0  0  0  0  0  0  0  0  0
    9.9868  -17.5283   23.6316 N   0  0  0  0  0  0  0  0  0  0  0  0
    9.1417  -17.9509   24.7441 C   0  0  1  0  0  0  0  0  0  0  0  0
    8.4152  -19.2316   24.4149 C   0  0  0  0  0  0  0  0  0  0  0  0
    7.5527  -19.7421   25.5124 C   0  0  0  0  0  0  0  0  0  0  0  0
    6.8808  -21.0426   25.1351 C   0  0  0  0  0  0  0  0  0  0  0  0
    6.0354  -21.5621   26.2798 C   0  0  0  0  0  0  0  0  0  0  0  0
    5.3415  -22.7763   25.9176 N   0  0  0  0  0  0  0  0  0  0  0  0
    9.9686  -18.0485   25.9498 C   0  0  0  0  0  0  0  0  0  0  0  0
   11.1567  -18.7627   26.0100 O   0  0  0  0  0  0  0  0  0  0  0  0
    9.6090  -17.4656   27.0015 O   0  0  0  0  0  0  0  0  0  0  0  0
  2  1  1  6
  3  2  1  0
  4  2  1  0
  4  5  1  6
  6  4  1  0
  6  7  2  0
  9 11  1  0
  9  8  1  0
 10  9  2  0
 12 13  1  0
 12 11  1  1
 13  6  1  0
 14 12  1  0
 15 14  2  0
 16 14  1  0
 17 18  1  6
 17 16  1  0
 19 20  1  0
 19 18  1  0
 20 21  1  0
 21 22  1  0
 23 24  1  0
 23 17  1  0
 25 23  2  0
M  END
$$$$
