TNK.pdb
     RDKit          3D

 25 24  0  0  1  0  0  0  0  0999 V2000
    4.0302  -19.1979   22.4527 C   0  0  0  0  0  0  0  0  0  0  0  0
    3.5938  -20.4277   21.6951 C   0  0  1  0  0  0  0  0  0  0  0  0
    2.1938  -20.3185   21.5138 O   0  0  0  0  0  0  0  0  0  0  0  0
    4.2701  -20.5429   20.3360 C   0  0  2  0  0  0  0  0  0  0  0  0
    3.7120  -21.7521   19.7043 N   0  0  0  0  0  0  0  0  0  0  0  0
    5.7298  -20.6709   20.4332 C   0  0  0  0  0  0  0  0  0  0  0  0
    6.2220  -21.8410   20.6175 O   0  0  0  0  0  0  0  0  0  0  0  0
    7.6952  -16.9649   19.8852 N   0  0  0  0  0  0  0  0  0  0  0  0
    8.6807  -17.7330   19.2438 C   0  0  0  0  0  0  0  0  0  0  0  0
    9.4230  -17.1071   18.4129 O   0  0  0  0  0  0  0  0  0  0  0  0
    8.8738  -19.1449   19.4826 C   0  0  0  0  0  0  0  0  0  0  0  0
    8.0120  -19.7383   20.5478 C   0  0  2  0  0  0  0  0  0  0  0  0
    6.5977  -19.5540   20.3273 N   0  0  0  0  0  0  0  0  0  0  0  0
    8.3670  -19.2190   21.8862 C   0  0  0  0  0  0  0  0  0  0  0  0
    7.6558  -18.3710   22.5265 O   0  0  0  0  0  0  0  0  0  0  0  0
    9.5566  -19.6289   22.5901 N   0  0  0  0  0  0  0  0  0  0  0  0
    9.5518  -19.8400   24.0344 C   0  0  1  0  0  0  0  0  0  0  0  0
    8.6239  -20.9681   24.4126 C   0  0  0  0  0  0  0  0  0  0  0  0
    8.6358  -21.3075   25.8597 C   0  0  0  0  0  0  0  0  0  0  0  0
    7.6589  -22.4153   26.1809 C   0  0  0  0  0  0  0  0  0  0  0  0
    7.7283  -22.7834   27.6488 C   0  0  0  0  0  0  0  0  0  0  0  0
    6.7591  -23.8001   27.9866 N   0  0  0  0  0  0  0  0  0  0  0  0
   10.9311  -20.0510   24.4816 C   0  0  0  0  0  0  0  0  0  0  0  0
   11.8797  -20.7444   23.7436 O   0  0  0  0  0  0  0  0  0  0  0  0
   11.3050  -19.5918   25.5882 O   0  0  0  0  0  0  0  0  0  0  0  0
  2  1  1  6
  3  2  1  0
  4  2  1  0
  4  5  1  1
  6  4  1  0
  6  7  2  0
  9 11  1  0
  9  8  1  0
 10  9  2  0
 12 13  1  0
 12 11  1  6
 13  6  1  0
 14 12  1  0
 15 14  2  0
 16 14  1  0
 17 18  1  6
 17 16  1  0
 19 20  1  0
 19 18  1  0
 20 21  1  0
 21 22  1  0
 23 24  1  0
 23 17  1  0
 25 23  2  0
M  END
$$$$
