TNK.pdb
     RDKit          3D

 25 24  0  0  1  0  0  0  0  0999 V2000
    9.0372  -12.5097   20.3148 C   0  0  0  0  0  0  0  0  0  0  0  0
    7.9120  -13.2267   19.6100 C   0  0  1  0  0  0  0  0  0  0  0  0
    7.6143  -12.4737   18.4484 O   0  0  0  0  0  0  0  0  0  0  0  0
    8.2895  -14.6455   19.2073 C   0  0  2  0  0  0  0  0  0  0  0  0
    7.1091  -15.2026   18.5227 N   0  0  0  0  0  0  0  0  0  0  0  0
    8.6342  -15.4929   20.3561 C   0  0  0  0  0  0  0  0  0  0  0  0
    7.6755  -15.9868   21.0507 O   0  0  0  0  0  0  0  0  0  0  0  0
   11.3814  -19.5466   20.7013 N   0  0  0  0  0  0  0  0  0  0  0  0
   11.7833  -18.2009   20.6963 C   0  0  0  0  0  0  0  0  0  0  0  0
   12.3616  -17.7952   19.6314 O   0  0  0  0  0  0  0  0  0  0  0  0
   11.5730  -17.3005   21.8068 C   0  0  0  0  0  0  0  0  0  0  0  0
   10.2384  -16.6321   21.8459 C   0  0  2  0  0  0  0  0  0  0  0  0
    9.9772  -15.7788   20.7117 N   0  0  0  0  0  0  0  0  0  0  0  0
   10.0561  -15.8551   23.0910 C   0  0  0  0  0  0  0  0  0  0  0  0
   10.6126  -14.7242   23.3059 O   0  0  0  0  0  0  0  0  0  0  0  0
    9.2269  -16.3107   24.1788 N   0  0  0  0  0  0  0  0  0  0  0  0
    9.1100  -15.5482   25.4179 C   0  0  1  0  0  0  0  0  0  0  0  0
    7.7784  -14.8428   25.4949 C   0  0  0  0  0  0  0  0  0  0  0  0
    7.8654  -13.4225   25.9245 C   0  0  0  0  0  0  0  0  0  0  0  0
    6.4965  -12.7962   26.0613 C   0  0  0  0  0  0  0  0  0  0  0  0
    6.6093  -11.3471   26.4882 C   0  0  0  0  0  0  0  0  0  0  0  0
    5.3104  -10.7244   26.5984 N   0  0  0  0  0  0  0  0  0  0  0  0
    9.3532  -16.4494   26.5474 C   0  0  0  0  0  0  0  0  0  0  0  0
    9.5981  -17.8079   26.4064 O   0  0  0  0  0  0  0  0  0  0  0  0
    9.3458  -15.9980   27.7183 O   0  0  0  0  0  0  0  0  0  0  0  0
  2  1  1  6
  3  2  1  0
  4  2  1  0
  4  5  1  1
  6  4  1  0
  6  7  2  0
  9 11  1  0
  9  8  1  0
 10  9  2  0
 12 13  1  0
 12 11  1  6
 13  6  1  0
 14 12  1  0
 15 14  2  0
 16 14  1  0
 17 18  1  1
 17 16  1  0
 19 20  1  0
 19 18  1  0
 20 21  1  0
 21 22  1  0
 23 24  1  0
 23 17  1  0
 25 23  2  0
M  END
$$$$
