TNK.pdb
     RDKit          3D

 25 24  0  0  1  0  0  0  0  0999 V2000
    7.2415  -15.9449   18.2815 C   0  0  0  0  0  0  0  0  0  0  0  0
    7.8364  -14.6151   17.8883 C   0  0  1  0  0  0  0  0  0  0  0  0
    7.1306  -14.1768   16.7417 O   0  0  0  0  0  0  0  0  0  0  0  0
    7.7056  -13.5720   18.9895 C   0  0  2  0  0  0  0  0  0  0  0  0
    8.2666  -12.3253   18.4385 N   0  0  0  0  0  0  0  0  0  0  0  0
    8.4326  -13.9375   20.2119 C   0  0  0  0  0  0  0  0  0  0  0  0
    9.7057  -13.7805   20.2266 O   0  0  0  0  0  0  0  0  0  0  0  0
    9.5089  -14.8042   25.5598 N   0  0  0  0  0  0  0  0  0  0  0  0
    8.5157  -15.5343   24.8868 C   0  0  0  0  0  0  0  0  0  0  0  0
    8.2865  -16.7089   25.3349 O   0  0  0  0  0  0  0  0  0  0  0  0
    7.7776  -15.0229   23.7547 C   0  0  0  0  0  0  0  0  0  0  0  0
    8.5646  -14.8633   22.4959 C   0  0  2  0  0  0  0  0  0  0  0  0
    7.7760  -14.4485   21.3606 N   0  0  0  0  0  0  0  0  0  0  0  0
    9.2975  -16.1010   22.1525 C   0  0  0  0  0  0  0  0  0  0  0  0
    8.7365  -17.1432   21.6688 O   0  0  0  0  0  0  0  0  0  0  0  0
   10.7209  -16.2393   22.3352 N   0  0  0  0  0  0  0  0  0  0  0  0
   11.4176  -17.4721   21.9813 C   0  0  1  0  0  0  0  0  0  0  0  0
   12.1212  -17.3333   20.6538 C   0  0  0  0  0  0  0  0  0  0  0  0
   12.8728  -18.5447   20.2332 C   0  0  0  0  0  0  0  0  0  0  0  0
   13.4965  -18.3681   18.8677 C   0  0  0  0  0  0  0  0  0  0  0  0
   14.2490  -19.6166   18.4555 C   0  0  0  0  0  0  0  0  0  0  0  0
   14.8680  -19.4589   17.1597 N   0  0  0  0  0  0  0  0  0  0  0  0
   12.3191  -17.8324   23.0788 C   0  0  0  0  0  0  0  0  0  0  0  0
   12.7575  -19.1269   23.3185 O   0  0  0  0  0  0  0  0  0  0  0  0
   12.7344  -16.9440   23.8620 O   0  0  0  0  0  0  0  0  0  0  0  0
  2  1  1  1
  3  2  1  0
  4  2  1  0
  4  5  1  6
  6  4  1  0
  6  7  2  0
  9 11  1  0
  9  8  1  0
 10  9  2  0
 12 13  1  0
 12 11  1  1
 13  6  1  0
 14 12  1  0
 15 14  2  0
 16 14  1  0
 17 18  1  6
 17 16  1  0
 19 20  1  0
 19 18  1  0
 20 21  1  0
 21 22  1  0
 23 24  1  0
 23 17  1  0
 25 23  2  0
M  END
$$$$
