TNK.pdb
     RDKit          3D

 25 24  0  0  1  0  0  0  0  0999 V2000
    7.8202  -12.4229   18.2189 C   0  0  0  0  0  0  0  0  0  0  0  0
    8.4410  -13.2937   19.2834 C   0  0  1  0  0  0  0  0  0  0  0  0
    7.8745  -12.8936   20.5179 O   0  0  0  0  0  0  0  0  0  0  0  0
    8.1633  -14.7735   19.0580 C   0  0  2  0  0  0  0  0  0  0  0  0
    6.6968  -14.9082   18.9965 N   0  0  0  0  0  0  0  0  0  0  0  0
    8.6881  -15.6237   20.1342 C   0  0  0  0  0  0  0  0  0  0  0  0
    7.8797  -15.9952   21.0583 O   0  0  0  0  0  0  0  0  0  0  0  0
   11.3280  -19.0504   22.9575 N   0  0  0  0  0  0  0  0  0  0  0  0
   12.1465  -18.6340   21.8949 C   0  0  0  0  0  0  0  0  0  0  0  0
   13.2419  -19.2760   21.7495 O   0  0  0  0  0  0  0  0  0  0  0  0
   11.8051  -17.5516   21.0005 C   0  0  0  0  0  0  0  0  0  0  0  0
   10.4751  -16.9172   21.2410 C   0  0  2  0  0  0  0  0  0  0  0  0
   10.0428  -16.0420   20.1779 N   0  0  0  0  0  0  0  0  0  0  0  0
   10.4496  -16.1766   22.5209 C   0  0  0  0  0  0  0  0  0  0  0  0
   11.0827  -15.0832   22.7171 O   0  0  0  0  0  0  0  0  0  0  0  0
    9.7012  -16.6285   23.6673 N   0  0  0  0  0  0  0  0  0  0  0  0
    9.5468  -15.7921   24.8535 C   0  0  1  0  0  0  0  0  0  0  0  0
    8.2713  -14.9888   24.7861 C   0  0  0  0  0  0  0  0  0  0  0  0
    8.0732  -14.0631   25.9319 C   0  0  0  0  0  0  0  0  0  0  0  0
    6.8041  -13.2555   25.7837 C   0  0  0  0  0  0  0  0  0  0  0  0
    6.7131  -12.1955   26.8621 C   0  0  0  0  0  0  0  0  0  0  0  0
    5.4861  -11.4397   26.7602 N   0  0  0  0  0  0  0  0  0  0  0  0
    9.6313  -16.6447   26.0421 C   0  0  0  0  0  0  0  0  0  0  0  0
    9.9149  -16.1644   27.3126 O   0  0  0  0  0  0  0  0  0  0  0  0
    9.4420  -17.8809   25.9376 O   0  0  0  0  0  0  0  0  0  0  0  0
  2  1  1  6
  3  2  1  0
  4  2  1  0
  4  5  1  1
  6  4  1  0
  6  7  2  0
  9 11  1  0
  9  8  1  0
 10  9  2  0
 12 13  1  0
 12 11  1  6
 13  6  1  0
 14 12  1  0
 15 14  2  0
 16 14  1  0
 17 18  1  6
 17 16  1  0
 19 20  1  0
 19 18  1  0
 20 21  1  0
 21 22  1  0
 23 24  1  0
 23 17  1  0
 25 23  2  0
M  END
$$$$
