TNK.pdb
     RDKit          3D

 25 24  0  0  1  0  0  0  0  0999 V2000
    7.6607  -17.1860   14.2974 C   0  0  0  0  0  0  0  0  0  0  0  0
    6.2502  -17.4184   13.8145 C   0  0  1  0  0  0  0  0  0  0  0  0
    6.1985  -16.9629   12.4749 O   0  0  0  0  0  0  0  0  0  0  0  0
    5.8547  -18.8878   13.8624 C   0  0  2  0  0  0  0  0  0  0  0  0
    4.4546  -18.9481   13.4057 N   0  0  0  0  0  0  0  0  0  0  0  0
    5.9551  -19.4629   15.2098 C   0  0  0  0  0  0  0  0  0  0  0  0
    5.1124  -19.0749   16.0958 O   0  0  0  0  0  0  0  0  0  0  0  0
    4.6119  -22.9013   18.2831 N   0  0  0  0  0  0  0  0  0  0  0  0
    5.3631  -22.6547   17.1224 C   0  0  0  0  0  0  0  0  0  0  0  0
    4.7324  -22.7623   16.0161 O   0  0  0  0  0  0  0  0  0  0  0  0
    6.7635  -22.2989   17.1380 C   0  0  0  0  0  0  0  0  0  0  0  0
    7.0590  -20.8507   16.9264 C   0  0  2  0  0  0  0  0  0  0  0  0
    6.9409  -20.4233   15.5530 N   0  0  0  0  0  0  0  0  0  0  0  0
    8.4004  -20.4899   17.4340 C   0  0  0  0  0  0  0  0  0  0  0  0
    9.4898  -20.9046   16.9085 O   0  0  0  0  0  0  0  0  0  0  0  0
    8.5960  -19.6311   18.5755 N   0  0  0  0  0  0  0  0  0  0  0  0
    9.8190  -19.6880   19.3701 C   0  0  1  0  0  0  0  0  0  0  0  0
    9.7028  -20.7161   20.4683 C   0  0  0  0  0  0  0  0  0  0  0  0
   10.1320  -20.2301   21.8057 C   0  0  0  0  0  0  0  0  0  0  0  0
   10.0426  -21.3192   22.8501 C   0  0  0  0  0  0  0  0  0  0  0  0
   10.5510  -20.8230   24.1882 C   0  0  0  0  0  0  0  0  0  0  0  0
   10.3603  -21.8093   25.2264 N   0  0  0  0  0  0  0  0  0  0  0  0
   10.9511  -19.9272   18.4712 C   0  0  0  0  0  0  0  0  0  0  0  0
   11.0700  -21.0536   17.6696 O   0  0  0  0  0  0  0  0  0  0  0  0
   11.8798  -19.0861   18.4003 O   0  0  0  0  0  0  0  0  0  0  0  0
  2  1  1  6
  3  2  1  0
  4  2  1  0
  4  5  1  1
  6  4  1  0
  6  7  2  0
  9 11  1  0
  9  8  1  0
 10  9  2  0
 12 13  1  0
 12 11  1  6
 13  6  1  0
 14 12  1  0
 15 14  2  0
 16 14  1  0
 17 18  1  1
 17 16  1  0
 19 20  1  0
 19 18  1  0
 20 21  1  0
 21 22  1  0
 23 24  1  0
 23 17  1  0
 25 23  2  0
M  END
$$$$
