TNK.pdb
     RDKit          3D

 25 24  0  0  1  0  0  0  0  0999 V2000
    9.3880  -12.6139   19.3940 C   0  0  0  0  0  0  0  0  0  0  0  0
    7.9937  -13.0927   19.7161 C   0  0  1  0  0  0  0  0  0  0  0  0
    7.3182  -13.2391   18.4803 O   0  0  0  0  0  0  0  0  0  0  0  0
    7.9929  -14.4257   20.4515 C   0  0  2  0  0  0  0  0  0  0  0  0
    6.5776  -14.8126   20.5923 N   0  0  0  0  0  0  0  0  0  0  0  0
    8.6129  -14.3456   21.7802 C   0  0  0  0  0  0  0  0  0  0  0  0
    9.8752  -14.1262   21.8449 O   0  0  0  0  0  0  0  0  0  0  0  0
    6.0804  -13.6921   26.8385 N   0  0  0  0  0  0  0  0  0  0  0  0
    6.5822  -13.6555   25.5273 C   0  0  0  0  0  0  0  0  0  0  0  0
    5.7188  -13.7941   24.5954 O   0  0  0  0  0  0  0  0  0  0  0  0
    7.9807  -13.4741   25.2122 C   0  0  0  0  0  0  0  0  0  0  0  0
    8.5522  -14.4577   24.2450 C   0  0  2  0  0  0  0  0  0  0  0  0
    7.8657  -14.4983   22.9762 N   0  0  0  0  0  0  0  0  0  0  0  0
    8.5961  -15.8205   24.8178 C   0  0  0  0  0  0  0  0  0  0  0  0
    7.8386  -16.7746   24.4297 O   0  0  0  0  0  0  0  0  0  0  0  0
    9.5058  -16.1930   25.8724 N   0  0  0  0  0  0  0  0  0  0  0  0
   10.1073  -17.5219   25.9248 C   0  0  1  0  0  0  0  0  0  0  0  0
   10.8570  -17.8264   24.6513 C   0  0  0  0  0  0  0  0  0  0  0  0
   11.5411  -19.1460   24.6479 C   0  0  0  0  0  0  0  0  0  0  0  0
   12.3060  -19.3745   23.3643 C   0  0  0  0  0  0  0  0  0  0  0  0
   13.0122  -20.7144   23.3913 C   0  0  0  0  0  0  0  0  0  0  0  0
   13.9053  -20.8656   22.2659 N   0  0  0  0  0  0  0  0  0  0  0  0
   10.9445  -17.6103   27.1240 C   0  0  0  0  0  0  0  0  0  0  0  0
   11.2064  -18.7983   27.7914 O   0  0  0  0  0  0  0  0  0  0  0  0
   11.4670  -16.5722   27.5978 O   0  0  0  0  0  0  0  0  0  0  0  0
  2  1  1  6
  3  2  1  0
  4  2  1  0
  4  5  1  1
  6  4  1  0
  6  7  2  0
  9 11  1  0
  9  8  1  0
 10  9  2  0
 12 13  1  0
 12 11  1  1
 13  6  1  0
 14 12  1  0
 15 14  2  0
 16 14  1  0
 17 18  1  6
 17 16  1  0
 19 20  1  0
 19 18  1  0
 20 21  1  0
 21 22  1  0
 23 24  1  0
 23 17  1  0
 25 23  2  0
M  END
$$$$
