TNK.pdb
     RDKit          3D

 25 24  0  0  1  0  0  0  0  0999 V2000
    7.7293  -18.1476   15.2529 C   0  0  0  0  0  0  0  0  0  0  0  0
    7.3895  -17.8943   16.7011 C   0  0  1  0  0  0  0  0  0  0  0  0
    6.0977  -18.4329   16.9161 O   0  0  0  0  0  0  0  0  0  0  0  0
    8.3759  -18.5560   17.6533 C   0  0  2  0  0  0  0  0  0  0  0  0
    8.3317  -19.9975   17.3489 N   0  0  0  0  0  0  0  0  0  0  0  0
    8.0363  -18.3436   19.0661 C   0  0  0  0  0  0  0  0  0  0  0  0
    8.1144  -17.1513   19.5329 O   0  0  0  0  0  0  0  0  0  0  0  0
    6.6804  -21.0320   24.3789 N   0  0  0  0  0  0  0  0  0  0  0  0
    6.4701  -20.0042   23.4452 C   0  0  0  0  0  0  0  0  0  0  0  0
    6.1397  -18.8689   23.9301 O   0  0  0  0  0  0  0  0  0  0  0  0
    6.6091  -20.1811   22.0179 C   0  0  0  0  0  0  0  0  0  0  0  0
    7.4212  -19.1408   21.3194 C   0  0  2  0  0  0  0  0  0  0  0  0
    7.6272  -19.4036   19.9154 N   0  0  0  0  0  0  0  0  0  0  0  0
    8.7323  -18.9443   21.9747 C   0  0  0  0  0  0  0  0  0  0  0  0
    9.6741  -19.8085   21.9441 O   0  0  0  0  0  0  0  0  0  0  0  0
    9.0638  -17.7496   22.7106 N   0  0  0  0  0  0  0  0  0  0  0  0
   10.4479  -17.3166   22.8756 C   0  0  1  0  0  0  0  0  0  0  0  0
   10.6783  -15.9796   22.2153 C   0  0  0  0  0  0  0  0  0  0  0  0
   12.0515  -15.4400   22.3951 C   0  0  0  0  0  0  0  0  0  0  0  0
   12.9224  -15.7187   21.1915 C   0  0  0  0  0  0  0  0  0  0  0  0
   14.3101  -15.1437   21.3881 C   0  0  0  0  0  0  0  0  0  0  0  0
   15.1907  -15.5005   20.2999 N   0  0  0  0  0  0  0  0  0  0  0  0
   10.7726  -17.3196   24.3044 C   0  0  0  0  0  0  0  0  0  0  0  0
    9.8161  -17.3618   25.3088 O   0  0  0  0  0  0  0  0  0  0  0  0
   11.9721  -17.2825   24.6715 O   0  0  0  0  0  0  0  0  0  0  0  0
  2  1  1  6
  3  2  1  0
  4  2  1  0
  4  5  1  6
  6  4  1  0
  6  7  2  0
  9 11  1  0
  9  8  1  0
 10  9  2  0
 12 13  1  0
 12 11  1  1
 13  6  1  0
 14 12  1  0
 15 14  2  0
 16 14  1  0
 17 18  1  1
 17 16  1  0
 19 20  1  0
 19 18  1  0
 20 21  1  0
 21 22  1  0
 23 24  1  0
 23 17  1  0
 25 23  2  0
M  END
$$$$
