TNK.pdb
     RDKit          3D

 25 24  0  0  1  0  0  0  0  0999 V2000
    7.6015  -11.7473   19.2559 C   0  0  0  0  0  0  0  0  0  0  0  0
    8.1739  -12.9985   19.8754 C   0  0  1  0  0  0  0  0  0  0  0  0
    7.0898  -13.6939   20.4636 O   0  0  0  0  0  0  0  0  0  0  0  0
    8.8514  -13.8967   18.8497 C   0  0  2  0  0  0  0  0  0  0  0  0
    7.7887  -14.3364   17.9280 N   0  0  0  0  0  0  0  0  0  0  0  0
    9.4922  -15.0717   19.4540 C   0  0  0  0  0  0  0  0  0  0  0  0
    8.9427  -16.2170   19.2761 O   0  0  0  0  0  0  0  0  0  0  0  0
   13.3831  -18.6638   20.5096 N   0  0  0  0  0  0  0  0  0  0  0  0
   13.4487  -17.3819   21.0794 C   0  0  0  0  0  0  0  0  0  0  0  0
   14.1433  -17.2807   22.1473 O   0  0  0  0  0  0  0  0  0  0  0  0
   12.7858  -16.2253   20.5219 C   0  0  0  0  0  0  0  0  0  0  0  0
   11.3045  -16.1852   20.7058 C   0  0  2  0  0  0  0  0  0  0  0  0
   10.6858  -14.9774   20.2146 N   0  0  0  0  0  0  0  0  0  0  0  0
   10.9272  -16.3834   22.1220 C   0  0  0  0  0  0  0  0  0  0  0  0
   11.1712  -15.5318   23.0440 O   0  0  0  0  0  0  0  0  0  0  0  0
   10.2448  -17.5648   22.5880 N   0  0  0  0  0  0  0  0  0  0  0  0
    9.8036  -17.6925   23.9734 C   0  0  1  0  0  0  0  0  0  0  0  0
    8.7341  -18.7486   24.1049 C   0  0  0  0  0  0  0  0  0  0  0  0
    7.5617  -18.5424   23.2148 C   0  0  0  0  0  0  0  0  0  0  0  0
    6.6812  -19.7697   23.1587 C   0  0  0  0  0  0  0  0  0  0  0  0
    5.5209  -19.5551   22.2087 C   0  0  0  0  0  0  0  0  0  0  0  0
    4.7722  -20.7734   22.0028 N   0  0  0  0  0  0  0  0  0  0  0  0
   10.9747  -17.9472   24.8164 C   0  0  0  0  0  0  0  0  0  0  0  0
   12.0405  -18.7466   24.4286 O   0  0  0  0  0  0  0  0  0  0  0  0
   11.0469  -17.4282   25.9569 O   0  0  0  0  0  0  0  0  0  0  0  0
  2  1  1  6
  3  2  1  0
  4  2  1  0
  4  5  1  6
  6  4  1  0
  6  7  2  0
  9 11  1  0
  9  8  1  0
 10  9  2  0
 12 13  1  0
 12 11  1  1
 13  6  1  0
 14 12  1  0
 15 14  2  0
 16 14  1  0
 17 18  1  6
 17 16  1  0
 19 20  1  0
 19 18  1  0
 20 21  1  0
 21 22  1  0
 23 24  1  0
 23 17  1  0
 25 23  2  0
M  END
$$$$
