TNK.pdb
     RDKit          3D

 25 24  0  0  1  0  0  0  0  0999 V2000
   12.3154  -18.7736   14.4003 C   0  0  0  0  0  0  0  0  0  0  0  0
   12.6313  -18.0786   15.7019 C   0  0  1  0  0  0  0  0  0  0  0  0
   13.8838  -17.4412   15.5291 O   0  0  0  0  0  0  0  0  0  0  0  0
   11.5839  -17.0383   16.0739 C   0  0  2  0  0  0  0  0  0  0  0  0
   11.6132  -16.0286   15.0006 N   0  0  0  0  0  0  0  0  0  0  0  0
   11.8554  -16.3900   17.3633 C   0  0  0  0  0  0  0  0  0  0  0  0
   12.2828  -15.1806   17.3524 O   0  0  0  0  0  0  0  0  0  0  0  0
   12.4327  -15.1604   22.3974 N   0  0  0  0  0  0  0  0  0  0  0  0
   11.4016  -16.0999   22.2342 C   0  0  0  0  0  0  0  0  0  0  0  0
   10.6662  -16.3050   23.2589 O   0  0  0  0  0  0  0  0  0  0  0  0
   11.1563  -16.8101   20.9999 C   0  0  0  0  0  0  0  0  0  0  0  0
   11.9642  -16.3572   19.8287 C   0  0  2  0  0  0  0  0  0  0  0  0
   11.6581  -17.0527   18.6018 N   0  0  0  0  0  0  0  0  0  0  0  0
   13.4150  -16.4600   20.0968 C   0  0  0  0  0  0  0  0  0  0  0  0
   14.0791  -17.5468   19.9834 O   0  0  0  0  0  0  0  0  0  0  0  0
   14.2119  -15.3327   20.5123 N   0  0  0  0  0  0  0  0  0  0  0  0
   15.6422  -15.4659   20.7716 C   0  0  1  0  0  0  0  0  0  0  0  0
   16.4044  -14.2894   20.2136 C   0  0  0  0  0  0  0  0  0  0  0  0
   16.4921  -14.2687   18.7300 C   0  0  0  0  0  0  0  0  0  0  0  0
   17.1791  -13.0189   18.2291 C   0  0  0  0  0  0  0  0  0  0  0  0
   17.1821  -12.9780   16.7148 C   0  0  0  0  0  0  0  0  0  0  0  0
   17.5956  -11.6851   16.2203 N   0  0  0  0  0  0  0  0  0  0  0  0
   15.8418  -15.6543   22.2109 C   0  0  0  0  0  0  0  0  0  0  0  0
   14.8139  -15.6030   23.1416 O   0  0  0  0  0  0  0  0  0  0  0  0
   16.9937  -15.8756   22.6571 O   0  0  0  0  0  0  0  0  0  0  0  0
  2  1  1  6
  3  2  1  0
  4  2  1  0
  4  5  1  6
  6  4  1  0
  6  7  2  0
  9 11  1  0
  9  8  1  0
 10  9  2  0
 12 13  1  0
 12 11  1  1
 13  6  1  0
 14 12  1  0
 15 14  2  0
 16 14  1  0
 17 18  1  1
 17 16  1  0
 19 20  1  0
 19 18  1  0
 20 21  1  0
 21 22  1  0
 23 24  1  0
 23 17  1  0
 25 23  2  0
M  END
$$$$
