TNK.pdb
     RDKit          3D

 25 24  0  0  1  0  0  0  0  0999 V2000
    5.7146  -19.0790   19.7766 C   0  0  0  0  0  0  0  0  0  0  0  0
    6.4262  -19.4749   18.5062 C   0  0  1  0  0  0  0  0  0  0  0  0
    5.5042  -20.2305   17.7420 O   0  0  0  0  0  0  0  0  0  0  0  0
    6.8827  -18.2693   17.6964 C   0  0  2  0  0  0  0  0  0  0  0  0
    7.5172  -18.8112   16.4813 N   0  0  0  0  0  0  0  0  0  0  0  0
    7.8461  -17.4281   18.4180 C   0  0  0  0  0  0  0  0  0  0  0  0
    9.0296  -17.8876   18.6017 O   0  0  0  0  0  0  0  0  0  0  0  0
    7.0773  -12.3583   18.1626 N   0  0  0  0  0  0  0  0  0  0  0  0
    8.1163  -13.2442   18.4912 C   0  0  0  0  0  0  0  0  0  0  0  0
    9.0079  -13.4167   17.5920 O   0  0  0  0  0  0  0  0  0  0  0  0
    8.2058  -13.9359   19.7567 C   0  0  0  0  0  0  0  0  0  0  0  0
    8.4881  -15.3994   19.6684 C   0  0  2  0  0  0  0  0  0  0  0  0
    7.5106  -16.1396   18.9071 N   0  0  0  0  0  0  0  0  0  0  0  0
    8.6229  -16.0088   21.0092 C   0  0  0  0  0  0  0  0  0  0  0  0
    7.6832  -16.0238   21.8762 O   0  0  0  0  0  0  0  0  0  0  0  0
    9.8370  -16.6443   21.4572 N   0  0  0  0  0  0  0  0  0  0  0  0
    9.9233  -17.2833   22.7667 C   0  0  1  0  0  0  0  0  0  0  0  0
   10.5390  -18.6565   22.6584 C   0  0  0  0  0  0  0  0  0  0  0  0
   10.7602  -19.3297   23.9650 C   0  0  0  0  0  0  0  0  0  0  0  0
   11.5302  -20.6204   23.8044 C   0  0  0  0  0  0  0  0  0  0  0  0
   11.7294  -21.2972   25.1450 C   0  0  0  0  0  0  0  0  0  0  0  0
   12.4494  -22.5422   25.0083 N   0  0  0  0  0  0  0  0  0  0  0  0
   10.6506  -16.3933   23.6753 C   0  0  0  0  0  0  0  0  0  0  0  0
   10.4676  -16.3843   25.0507 O   0  0  0  0  0  0  0  0  0  0  0  0
   11.4915  -15.5834   23.2147 O   0  0  0  0  0  0  0  0  0  0  0  0
  2  1  1  1
  3  2  1  0
  4  2  1  0
  4  5  1  6
  6  4  1  0
  6  7  2  0
  9 11  1  0
  9  8  1  0
 10  9  2  0
 12 13  1  0
 12 11  1  1
 13  6  1  0
 14 12  1  0
 15 14  2  0
 16 14  1  0
 17 18  1  6
 17 16  1  0
 19 20  1  0
 19 18  1  0
 20 21  1  0
 21 22  1  0
 23 24  1  0
 23 17  1  0
 25 23  2  0
M  END
$$$$
