TNK.pdb
     RDKit          3D

 25 24  0  0  1  0  0  0  0  0999 V2000
    7.5331  -12.1108   18.6131 C   0  0  0  0  0  0  0  0  0  0  0  0
    8.5563  -13.0623   19.1829 C   0  0  1  0  0  0  0  0  0  0  0  0
    7.8364  -14.0758   19.8607 O   0  0  0  0  0  0  0  0  0  0  0  0
    9.4239  -13.6962   18.1044 C   0  0  2  0  0  0  0  0  0  0  0  0
    8.5071  -14.4654   17.2438 N   0  0  0  0  0  0  0  0  0  0  0  0
   10.4502  -14.5932   18.6507 C   0  0  0  0  0  0  0  0  0  0  0  0
   10.2589  -15.8580   18.5556 O   0  0  0  0  0  0  0  0  0  0  0  0
   15.1386  -15.7022   17.6041 N   0  0  0  0  0  0  0  0  0  0  0  0
   14.5703  -14.5612   18.1938 C   0  0  0  0  0  0  0  0  0  0  0  0
   14.5416  -13.5119   17.4650 O   0  0  0  0  0  0  0  0  0  0  0  0
   14.0403  -14.5369   19.5379 C   0  0  0  0  0  0  0  0  0  0  0  0
   12.6446  -15.0462   19.6856 C   0  0  2  0  0  0  0  0  0  0  0  0
   11.6311  -14.1073   19.2683 N   0  0  0  0  0  0  0  0  0  0  0  0
   12.3670  -15.4764   21.0731 C   0  0  0  0  0  0  0  0  0  0  0  0
   12.0913  -14.6654   22.0224 O   0  0  0  0  0  0  0  0  0  0  0  0
   12.3833  -16.8602   21.4774 N   0  0  0  0  0  0  0  0  0  0  0  0
   12.0128  -17.2622   22.8307 C   0  0  1  0  0  0  0  0  0  0  0  0
   10.9928  -18.3737   22.8042 C   0  0  0  0  0  0  0  0  0  0  0  0
    9.5856  -17.9067   22.6994 C   0  0  0  0  0  0  0  0  0  0  0  0
    8.6100  -19.0602   22.7474 C   0  0  0  0  0  0  0  0  0  0  0  0
    7.1971  -18.5798   22.4867 C   0  0  0  0  0  0  0  0  0  0  0  0
    6.2478  -19.6670   22.5475 N   0  0  0  0  0  0  0  0  0  0  0  0
   13.2312  -17.6127   23.5654 C   0  0  0  0  0  0  0  0  0  0  0  0
   14.1960  -18.4840   23.0805 O   0  0  0  0  0  0  0  0  0  0  0  0
   13.4419  -17.1141   24.6977 O   0  0  0  0  0  0  0  0  0  0  0  0
  2  1  1  6
  3  2  1  0
  4  2  1  0
  4  5  1  6
  6  4  1  0
  6  7  2  0
  9 11  1  0
  9  8  1  0
 10  9  2  0
 12 13  1  0
 12 11  1  1
 13  6  1  0
 14 12  1  0
 15 14  2  0
 16 14  1  0
 17 18  1  6
 17 16  1  0
 19 20  1  0
 19 18  1  0
 20 21  1  0
 21 22  1  0
 23 24  1  0
 23 17  1  0
 25 23  2  0
M  END
$$$$
