VCG.pdb
     RDKit          3D

 18 17  0  0  1  0  0  0  0  0999 V2000
   27.7781  -11.1859  -17.0890 C   0  0  0  0  0  0  0  0  0  0  0  0
   26.4781  -10.7940  -16.3869 C   0  0  1  0  0  0  0  0  0  0  0  0
   26.7823   -9.7194  -15.3919 C   0  0  0  0  0  0  0  0  0  0  0  0
   25.4982  -10.3486  -17.4462 C   0  0  2  0  0  0  0  0  0  0  0  0
   25.9071   -9.1611  -18.1263 N   0  0  0  0  0  0  0  0  0  0  0  0
   24.1778  -10.0963  -16.7978 C   0  0  0  0  0  0  0  0  0  0  0  0
   23.5317  -11.0034  -16.2122 O   0  0  0  0  0  0  0  0  0  0  0  0
   23.5886   -8.8007  -16.8165 N   0  0  0  0  0  0  0  0  0  0  0  0
   22.2554   -8.5923  -16.2896 C   0  0  1  0  0  0  0  0  0  0  0  0
   22.2231   -8.9552  -14.8315 C   0  0  0  0  0  0  0  0  0  0  0  0
   20.6576   -8.6405  -14.0395 S   0  0  0  0  0  0  0  0  0  0  0  0
   21.8196   -7.2370  -16.5810 C   0  0  0  0  0  0  0  0  0  0  0  0
   22.4706   -6.1900  -16.3393 O   0  0  0  0  0  0  0  0  0  0  0  0
   20.5378   -7.0387  -17.1994 N   0  0  0  0  0  0  0  0  0  0  0  0
   20.0393   -5.7048  -17.4524 C   0  0  0  0  0  0  0  0  0  0  0  0
   19.2929   -5.1652  -16.2872 C   0  0  0  0  0  0  0  0  0  0  0  0
   19.6393   -3.9667  -15.7000 O   0  0  0  0  0  0  0  0  0  0  0  0
   18.3246   -5.8215  -15.8315 O   0  0  0  0  0  0  0  0  0  0  0  0
  2  1  1  6
  2  3  1  0
  4  5  1  1
  4  2  1  0
  6  4  1  0
  7  6  2  0
  8  6  1  0
  9  8  1  0
  9 12  1  0
  9 10  1  1
 11 10  1  0
 12 14  1  0
 13 12  2  0
 14 15  1  0
 15 16  1  0
 16 17  1  0
 18 16  2  0
M  END
$$$$
