VCG.pdb
     RDKit          3D

 18 17  0  0  1  0  0  0  0  0999 V2000
   21.5931  -14.9821  -18.4157 C   0  0  0  0  0  0  0  0  0  0  0  0
   21.4230  -16.2599  -17.5941 C   0  0  1  0  0  0  0  0  0  0  0  0
   20.9471  -17.3481  -18.5034 C   0  0  0  0  0  0  0  0  0  0  0  0
   22.7527  -16.5755  -16.9518 C   0  0  2  0  0  0  0  0  0  0  0  0
   22.7437  -17.7973  -16.2124 N   0  0  0  0  0  0  0  0  0  0  0  0
   23.1114  -15.4606  -16.0265 C   0  0  0  0  0  0  0  0  0  0  0  0
   22.5540  -15.3084  -14.9089 O   0  0  0  0  0  0  0  0  0  0  0  0
   24.1127  -14.5116  -16.3771 N   0  0  0  0  0  0  0  0  0  0  0  0
   24.5033  -13.4764  -15.4420 C   0  0  1  0  0  0  0  0  0  0  0  0
   25.9473  -13.6518  -15.0643 C   0  0  0  0  0  0  0  0  0  0  0  0
   26.3328  -15.2585  -14.3956 S   0  0  0  0  0  0  0  0  0  0  0  0
   24.1809  -12.1712  -15.9934 C   0  0  0  0  0  0  0  0  0  0  0  0
   24.5110  -11.7545  -17.1317 O   0  0  0  0  0  0  0  0  0  0  0  0
   23.4194  -11.2502  -15.1953 N   0  0  0  0  0  0  0  0  0  0  0  0
   23.1701   -9.9032  -15.6593 C   0  0  0  0  0  0  0  0  0  0  0  0
   22.4339   -9.1000  -14.6498 C   0  0  0  0  0  0  0  0  0  0  0  0
   22.3204   -7.7303  -14.7601 O   0  0  0  0  0  0  0  0  0  0  0  0
   21.9050   -9.6892  -13.6756 O   0  0  0  0  0  0  0  0  0  0  0  0
  2  1  1  6
  2  3  1  0
  4  5  1  1
  4  2  1  0
  6  4  1  0
  7  6  2  0
  8  6  1  0
  9  8  1  0
  9 12  1  0
  9 10  1  6
 11 10  1  0
 12 14  1  0
 13 12  2  0
 14 15  1  0
 15 16  1  0
 16 17  1  0
 18 16  2  0
M  END
$$$$
