VCG.pdb
     RDKit          3D

 18 17  0  0  1  0  0  0  0  0999 V2000
   21.0822  -15.2479  -19.1230 C   0  0  0  0  0  0  0  0  0  0  0  0
   20.2199  -14.0714  -18.6658 C   0  0  1  0  0  0  0  0  0  0  0  0
   19.3097  -14.5456  -17.5777 C   0  0  0  0  0  0  0  0  0  0  0  0
   21.1470  -12.9690  -18.2125 C   0  0  2  0  0  0  0  0  0  0  0  0
   21.9451  -13.3338  -17.0857 N   0  0  0  0  0  0  0  0  0  0  0  0
   20.3270  -11.7757  -17.8500 C   0  0  0  0  0  0  0  0  0  0  0  0
   19.5611  -11.2108  -18.6730 O   0  0  0  0  0  0  0  0  0  0  0  0
   20.3799  -11.2216  -16.5400 N   0  0  0  0  0  0  0  0  0  0  0  0
   19.6362  -10.0203  -16.2200 C   0  0  1  0  0  0  0  0  0  0  0  0
   18.6737  -10.3020  -15.1006 C   0  0  0  0  0  0  0  0  0  0  0  0
   17.3382  -11.3940  -15.5490 S   0  0  0  0  0  0  0  0  0  0  0  0
   20.5585   -8.9282  -15.9586 C   0  0  0  0  0  0  0  0  0  0  0  0
   21.5744   -8.9873  -15.2219 O   0  0  0  0  0  0  0  0  0  0  0  0
   20.3191   -7.6547  -16.5799 N   0  0  0  0  0  0  0  0  0  0  0  0
   21.2188   -6.5445  -16.3571 C   0  0  0  0  0  0  0  0  0  0  0  0
   21.0427   -5.9553  -15.0050 C   0  0  0  0  0  0  0  0  0  0  0  0
   20.1732   -6.5036  -14.0861 O   0  0  0  0  0  0  0  0  0  0  0  0
   21.7049   -4.9336  -14.6987 O   0  0  0  0  0  0  0  0  0  0  0  0
  2  1  1  1
  2  3  1  0
  4  5  1  1
  4  2  1  0
  6  4  1  0
  7  6  2  0
  8  6  1  0
  9  8  1  0
  9 12  1  0
  9 10  1  1
 11 10  1  0
 12 14  1  0
 13 12  2  0
 14 15  1  0
 15 16  1  0
 16 17  1  0
 18 16  2  0
M  END
$$$$
