VCG.pdb
     RDKit          3D

 18 17  0  0  1  0  0  0  0  0999 V2000
   22.7257   -8.8879  -19.6854 C   0  0  0  0  0  0  0  0  0  0  0  0
   21.9136  -10.1657  -19.8956 C   0  0  1  0  0  0  0  0  0  0  0  0
   22.2850  -10.7506  -21.2212 C   0  0  0  0  0  0  0  0  0  0  0  0
   22.2105  -11.0955  -18.7433 C   0  0  2  0  0  0  0  0  0  0  0  0
   21.5308  -12.3477  -18.8421 N   0  0  0  0  0  0  0  0  0  0  0  0
   21.7981  -10.4276  -17.4738 C   0  0  0  0  0  0  0  0  0  0  0  0
   20.5905  -10.2786  -17.1538 O   0  0  0  0  0  0  0  0  0  0  0  0
   22.7688   -9.9256  -16.5618 N   0  0  0  0  0  0  0  0  0  0  0  0
   22.3569   -9.2287  -15.3605 C   0  0  1  0  0  0  0  0  0  0  0  0
   22.9758   -9.8822  -14.1568 C   0  0  0  0  0  0  0  0  0  0  0  0
   22.1616  -11.3835  -13.6468 S   0  0  0  0  0  0  0  0  0  0  0  0
   22.6495   -7.8114  -15.4915 C   0  0  0  0  0  0  0  0  0  0  0  0
   23.7086   -7.3217  -15.9573 O   0  0  0  0  0  0  0  0  0  0  0  0
   21.6649   -6.8574  -15.0609 N   0  0  0  0  0  0  0  0  0  0  0  0
   21.8783   -5.4398  -15.2521 C   0  0  0  0  0  0  0  0  0  0  0  0
   20.7415   -4.6365  -14.7338 C   0  0  0  0  0  0  0  0  0  0  0  0
   20.8464   -3.2747  -14.5453 O   0  0  0  0  0  0  0  0  0  0  0  0
   19.6625   -5.2184  -14.4632 O   0  0  0  0  0  0  0  0  0  0  0  0
  2  1  1  1
  2  3  1  0
  4  5  1  6
  4  2  1  0
  6  4  1  0
  7  6  2  0
  8  6  1  0
  9  8  1  0
  9 12  1  0
  9 10  1  1
 11 10  1  0
 12 14  1  0
 13 12  2  0
 14 15  1  0
 15 16  1  0
 16 17  1  0
 18 16  2  0
M  END
$$$$
