VCG.pdb
     RDKit          3D

 18 17  0  0  1  0  0  0  0  0999 V2000
   23.4069  -13.1656  -20.9302 C   0  0  0  0  0  0  0  0  0  0  0  0
   24.1060  -12.3139  -19.8707 C   0  0  1  0  0  0  0  0  0  0  0  0
   24.4352  -10.9847  -20.4727 C   0  0  0  0  0  0  0  0  0  0  0  0
   23.1798  -12.2037  -18.6831 C   0  0  2  0  0  0  0  0  0  0  0  0
   21.9191  -11.6156  -19.0063 N   0  0  0  0  0  0  0  0  0  0  0  0
   23.8420  -11.3684  -17.6383 C   0  0  0  0  0  0  0  0  0  0  0  0
   24.8792  -11.7450  -17.0338 O   0  0  0  0  0  0  0  0  0  0  0  0
   23.3188  -10.0943  -17.2793 N   0  0  0  0  0  0  0  0  0  0  0  0
   23.9981   -9.2705  -16.3004 C   0  0  1  0  0  0  0  0  0  0  0  0
   25.4132   -9.0212  -16.7407 C   0  0  0  0  0  0  0  0  0  0  0  0
   26.6435   -9.5516  -15.5649 S   0  0  0  0  0  0  0  0  0  0  0  0
   23.2249   -8.0653  -16.0531 C   0  0  0  0  0  0  0  0  0  0  0  0
   22.9221   -7.1996  -16.9118 O   0  0  0  0  0  0  0  0  0  0  0  0
   22.7482   -7.8081  -14.7220 N   0  0  0  0  0  0  0  0  0  0  0  0
   21.9132   -6.6599  -14.4464 C   0  0  0  0  0  0  0  0  0  0  0  0
   22.7109   -5.4118  -14.3375 C   0  0  0  0  0  0  0  0  0  0  0  0
   22.1147   -4.1929  -14.0926 O   0  0  0  0  0  0  0  0  0  0  0  0
   23.9574   -5.4759  -14.4729 O   0  0  0  0  0  0  0  0  0  0  0  0
  2  1  1  6
  2  3  1  0
  4  5  1  6
  4  2  1  0
  6  4  1  0
  7  6  2  0
  8  6  1  0
  9  8  1  0
  9 12  1  0
  9 10  1  6
 11 10  1  0
 12 14  1  0
 13 12  2  0
 14 15  1  0
 15 16  1  0
 16 17  1  0
 18 16  2  0
M  END
$$$$
