VCG.pdb
     RDKit          3D

 18 17  0  0  1  0  0  0  0  0999 V2000
   17.3240  -12.7906  -15.9836 C   0  0  0  0  0  0  0  0  0  0  0  0
   17.7808  -14.2415  -15.8318 C   0  0  1  0  0  0  0  0  0  0  0  0
   16.6811  -15.1368  -16.3074 C   0  0  0  0  0  0  0  0  0  0  0  0
   19.0547  -14.4092  -16.6252 C   0  0  2  0  0  0  0  0  0  0  0  0
   19.5230  -15.7581  -16.6578 N   0  0  0  0  0  0  0  0  0  0  0  0
   20.1127  -13.5515  -16.0146 C   0  0  0  0  0  0  0  0  0  0  0  0
   21.0624  -14.0309  -15.3429 O   0  0  0  0  0  0  0  0  0  0  0  0
   20.0887  -12.1369  -16.1704 N   0  0  0  0  0  0  0  0  0  0  0  0
   21.2134  -11.3313  -15.7408 C   0  0  1  0  0  0  0  0  0  0  0  0
   22.4779  -11.8503  -16.3657 C   0  0  0  0  0  0  0  0  0  0  0  0
   23.6386  -12.5315  -15.1970 S   0  0  0  0  0  0  0  0  0  0  0  0
   20.9425   -9.9291  -16.0090 C   0  0  0  0  0  0  0  0  0  0  0  0
   20.5108   -9.4600  -17.0916 O   0  0  0  0  0  0  0  0  0  0  0  0
   21.1773   -8.9662  -14.9684 N   0  0  0  0  0  0  0  0  0  0  0  0
   20.9340   -7.5590  -15.1970 C   0  0  0  0  0  0  0  0  0  0  0  0
   21.3513   -6.7319  -14.0360 C   0  0  0  0  0  0  0  0  0  0  0  0
   21.3136   -5.3543  -14.0802 O   0  0  0  0  0  0  0  0  0  0  0  0
   21.7466   -7.3079  -12.9929 O   0  0  0  0  0  0  0  0  0  0  0  0
  2  1  1  6
  2  3  1  0
  4  5  1  1
  4  2  1  0
  6  4  1  0
  7  6  2  0
  8  6  1  0
  9  8  1  0
  9 12  1  0
  9 10  1  6
 11 10  1  0
 12 14  1  0
 13 12  2  0
 14 15  1  0
 15 16  1  0
 16 17  1  0
 18 16  2  0
M  END
$$$$
