VCG.pdb
     RDKit          3D

 18 17  0  0  1  0  0  0  0  0999 V2000
   25.4279  -12.7622  -16.0292 C   0  0  0  0  0  0  0  0  0  0  0  0
   24.5658  -11.5132  -16.2122 C   0  0  1  0  0  0  0  0  0  0  0  0
   24.9115  -10.8871  -17.5259 C   0  0  0  0  0  0  0  0  0  0  0  0
   23.1184  -11.9359  -16.1297 C   0  0  2  0  0  0  0  0  0  0  0  0
   22.7142  -12.7713  -17.2152 N   0  0  0  0  0  0  0  0  0  0  0  0
   22.2642  -10.7120  -16.1259 C   0  0  0  0  0  0  0  0  0  0  0  0
   21.9908  -10.0793  -17.1785 O   0  0  0  0  0  0  0  0  0  0  0  0
   21.7170  -10.2048  -14.9137 N   0  0  0  0  0  0  0  0  0  0  0  0
   20.8860   -9.0182  -14.9227 C   0  0  1  0  0  0  0  0  0  0  0  0
   19.4963   -9.3681  -14.4701 C   0  0  0  0  0  0  0  0  0  0  0  0
   18.7806  -10.7558  -15.3300 S   0  0  0  0  0  0  0  0  0  0  0  0
   21.5236   -7.9677  -14.1471 C   0  0  0  0  0  0  0  0  0  0  0  0
   22.2255   -8.1387  -13.1192 O   0  0  0  0  0  0  0  0  0  0  0  0
   21.3588   -6.6019  -14.5624 N   0  0  0  0  0  0  0  0  0  0  0  0
   21.8773   -5.5183  -13.7570 C   0  0  0  0  0  0  0  0  0  0  0  0
   21.6926   -4.2019  -14.4197 C   0  0  0  0  0  0  0  0  0  0  0  0
   21.9876   -3.0204  -13.7730 O   0  0  0  0  0  0  0  0  0  0  0  0
   21.2571   -4.1722  -15.5967 O   0  0  0  0  0  0  0  0  0  0  0  0
  2  1  1  6
  2  3  1  0
  4  5  1  6
  4  2  1  0
  6  4  1  0
  7  6  2  0
  8  6  1  0
  9  8  1  0
  9 12  1  0
  9 10  1  1
 11 10  1  0
 12 14  1  0
 13 12  2  0
 14 15  1  0
 15 16  1  0
 16 17  1  0
 18 16  2  0
M  END
$$$$
