VCG.pdb
     RDKit          3D

 18 17  0  0  1  0  0  0  0  0999 V2000
   21.1962  -10.6675  -18.4504 C   0  0  0  0  0  0  0  0  0  0  0  0
   20.7021   -9.5150  -17.5763 C   0  0  1  0  0  0  0  0  0  0  0  0
   19.7671   -8.6735  -18.3856 C   0  0  0  0  0  0  0  0  0  0  0  0
   20.0427  -10.1118  -16.3559 C   0  0  2  0  0  0  0  0  0  0  0  0
   18.8713  -10.8688  -16.6636 N   0  0  0  0  0  0  0  0  0  0  0  0
   19.6653   -9.0047  -15.4287 C   0  0  0  0  0  0  0  0  0  0  0  0
   18.5564   -8.4149  -15.5017 O   0  0  0  0  0  0  0  0  0  0  0  0
   20.5581   -8.5659  -14.4107 N   0  0  0  0  0  0  0  0  0  0  0  0
   20.2000   -7.4601  -13.5461 C   0  0  1  0  0  0  0  0  0  0  0  0
   20.0262   -7.9529  -12.1369 C   0  0  0  0  0  0  0  0  0  0  0  0
   18.5782   -8.9639  -11.8948 S   0  0  0  0  0  0  0  0  0  0  0  0
   21.1713   -6.3893  -13.6924 C   0  0  0  0  0  0  0  0  0  0  0  0
   22.4199   -6.5286  -13.7025 O   0  0  0  0  0  0  0  0  0  0  0  0
   20.6990   -5.0402  -13.8407 N   0  0  0  0  0  0  0  0  0  0  0  0
   21.6254   -3.9573  -14.0871 C   0  0  0  0  0  0  0  0  0  0  0  0
   20.9224   -2.6619  -14.2716 C   0  0  0  0  0  0  0  0  0  0  0  0
   21.5888   -1.4587  -14.1752 O   0  0  0  0  0  0  0  0  0  0  0  0
   19.6921   -2.6707  -14.5210 O   0  0  0  0  0  0  0  0  0  0  0  0
  2  1  1  6
  2  3  1  0
  4  5  1  6
  4  2  1  0
  6  4  1  0
  7  6  2  0
  8  6  1  0
  9  8  1  0
  9 12  1  0
  9 10  1  1
 11 10  1  0
 12 14  1  0
 13 12  2  0
 14 15  1  0
 15 16  1  0
 16 17  1  0
 18 16  2  0
M  END
$$$$
