VCG.pdb
     RDKit          3D

 18 17  0  0  1  0  0  0  0  0999 V2000
   18.6521   -9.9326  -19.1916 C   0  0  0  0  0  0  0  0  0  0  0  0
   18.5977   -9.0430  -17.9498 C   0  0  1  0  0  0  0  0  0  0  0  0
   17.1699   -8.9096  -17.5245 C   0  0  0  0  0  0  0  0  0  0  0  0
   19.4659   -9.6776  -16.8896 C   0  0  2  0  0  0  0  0  0  0  0  0
   19.0088  -10.9697  -16.4883 N   0  0  0  0  0  0  0  0  0  0  0  0
   19.4855   -8.7856  -15.6931 C   0  0  0  0  0  0  0  0  0  0  0  0
   18.6462   -8.8910  -14.7618 O   0  0  0  0  0  0  0  0  0  0  0  0
   20.4689   -7.7656  -15.5563 N   0  0  0  0  0  0  0  0  0  0  0  0
   20.3872   -6.8069  -14.4734 C   0  0  1  0  0  0  0  0  0  0  0  0
   21.0294   -7.3776  -13.2403 C   0  0  0  0  0  0  0  0  0  0  0  0
   22.5492   -8.2549  -13.5532 S   0  0  0  0  0  0  0  0  0  0  0  0
   20.9393   -5.5335  -14.9037 C   0  0  0  0  0  0  0  0  0  0  0  0
   21.8720   -5.3813  -15.7316 O   0  0  0  0  0  0  0  0  0  0  0  0
   20.3960   -4.3214  -14.3555 N   0  0  0  0  0  0  0  0  0  0  0  0
   20.9467   -3.0349  -14.7205 C   0  0  0  0  0  0  0  0  0  0  0  0
   20.2297   -1.9188  -14.0524 C   0  0  0  0  0  0  0  0  0  0  0  0
   20.7018   -0.6243  -14.1031 O   0  0  0  0  0  0  0  0  0  0  0  0
   19.1692   -2.1677  -13.4284 O   0  0  0  0  0  0  0  0  0  0  0  0
  2  1  1  6
  2  3  1  0
  4  5  1  1
  4  2  1  0
  6  4  1  0
  7  6  2  0
  8  6  1  0
  9  8  1  0
  9 12  1  0
  9 10  1  1
 11 10  1  0
 12 14  1  0
 13 12  2  0
 14 15  1  0
 15 16  1  0
 16 17  1  0
 18 16  2  0
M  END
$$$$
