VCG.pdb
     RDKit          3D

 18 17  0  0  1  0  0  0  0  0999 V2000
   19.9931  -12.7995  -19.6169 C   0  0  0  0  0  0  0  0  0  0  0  0
   20.5948  -12.0950  -18.4011 C   0  0  1  0  0  0  0  0  0  0  0  0
   19.5468  -12.0076  -17.3374 C   0  0  0  0  0  0  0  0  0  0  0  0
   21.8061  -12.8836  -17.9639 C   0  0  2  0  0  0  0  0  0  0  0  0
   21.4833  -14.1897  -17.4845 N   0  0  0  0  0  0  0  0  0  0  0  0
   22.4958  -12.1324  -16.8741 C   0  0  0  0  0  0  0  0  0  0  0  0
   22.2862  -12.3701  -15.6565 O   0  0  0  0  0  0  0  0  0  0  0  0
   23.4316  -11.1025  -17.1736 N   0  0  0  0  0  0  0  0  0  0  0  0
   24.1679  -10.4475  -16.1118 C   0  0  1  0  0  0  0  0  0  0  0  0
   25.6405  -10.5014  -16.4069 C   0  0  0  0  0  0  0  0  0  0  0  0
   26.6483   -9.6105  -15.2374 S   0  0  0  0  0  0  0  0  0  0  0  0
   23.6449   -9.1072  -15.9076 C   0  0  0  0  0  0  0  0  0  0  0  0
   24.0352   -8.2935  -15.0335 O   0  0  0  0  0  0  0  0  0  0  0  0
   22.5885   -8.6375  -16.7611 N   0  0  0  0  0  0  0  0  0  0  0  0
   22.0812   -7.2892  -16.6331 C   0  0  0  0  0  0  0  0  0  0  0  0
   21.0147   -7.1971  -15.6035 C   0  0  0  0  0  0  0  0  0  0  0  0
   20.3513   -6.0141  -15.3548 O   0  0  0  0  0  0  0  0  0  0  0  0
   20.7154   -8.2250  -14.9478 O   0  0  0  0  0  0  0  0  0  0  0  0
  2  1  1  6
  2  3  1  0
  4  5  1  1
  4  2  1  0
  6  4  1  0
  7  6  2  0
  8  6  1  0
  9  8  1  0
  9 12  1  0
  9 10  1  6
 11 10  1  0
 12 14  1  0
 13 12  2  0
 14 15  1  0
 15 16  1  0
 16 17  1  0
 18 16  2  0
M  END
$$$$
