VCG.pdb
     RDKit          3D

 18 17  0  0  1  0  0  0  0  0999 V2000
   15.3739  -10.8585  -12.0969 C   0  0  0  0  0  0  0  0  0  0  0  0
   14.0063  -11.2383  -11.5294 C   0  0  1  0  0  0  0  0  0  0  0  0
   13.8194  -12.7136  -11.6903 C   0  0  0  0  0  0  0  0  0  0  0  0
   13.9683  -10.7990  -10.0851 C   0  0  2  0  0  0  0  0  0  0  0  0
   12.7378  -11.1164   -9.4333 N   0  0  0  0  0  0  0  0  0  0  0  0
   14.1694   -9.3211  -10.0311 C   0  0  0  0  0  0  0  0  0  0  0  0
   13.3276   -8.5104  -10.4972 O   0  0  0  0  0  0  0  0  0  0  0  0
   15.3383   -8.7622   -9.4418 N   0  0  0  0  0  0  0  0  0  0  0  0
   15.5390   -7.3276   -9.4259 C   0  0  1  0  0  0  0  0  0  0  0  0
   15.3660   -6.8061   -8.0270 C   0  0  0  0  0  0  0  0  0  0  0  0
   13.7342   -7.0577   -7.3551 S   0  0  0  0  0  0  0  0  0  0  0  0
   16.8192   -7.0052  -10.0330 C   0  0  0  0  0  0  0  0  0  0  0  0
   17.9243   -7.5209   -9.7308 O   0  0  0  0  0  0  0  0  0  0  0  0
   16.8635   -6.0148  -11.0733 N   0  0  0  0  0  0  0  0  0  0  0  0
   18.1231   -5.6253  -11.6678 C   0  0  0  0  0  0  0  0  0  0  0  0
   17.9329   -4.6523  -12.7738 C   0  0  0  0  0  0  0  0  0  0  0  0
   19.0032   -4.0253  -13.3759 O   0  0  0  0  0  0  0  0  0  0  0  0
   16.7669   -4.3999  -13.1646 O   0  0  0  0  0  0  0  0  0  0  0  0
  2  1  1  1
  2  3  1  0
  4  5  1  6
  4  2  1  0
  6  4  1  0
  7  6  2  0
  8  6  1  0
  9  8  1  0
  9 12  1  0
  9 10  1  1
 11 10  1  0
 12 14  1  0
 13 12  2  0
 14 15  1  0
 15 16  1  0
 16 17  1  0
 18 16  2  0
M  END
$$$$
