RAM.pdb
     RDKit          3D

 25 24  0  0  1  0  0  0  0  0999 V2000
   31.4793  -21.9202  -12.0914 N   0  0  0  0  0  0  0  0  0  0  0  0
   30.1159  -21.8995  -11.6817 C   0  0  0  0  0  0  0  0  0  0  0  0
   29.8337  -21.7045  -10.4433 N   0  0  0  0  0  0  0  0  0  0  0  0
   29.0804  -22.0914  -12.6329 N   0  0  0  0  0  0  0  0  0  0  0  0
   29.4135  -22.2467  -14.0313 C   0  0  0  0  0  0  0  0  0  0  0  0
   29.4962  -20.8518  -14.6361 C   0  0  0  0  0  0  0  0  0  0  0  0
   28.0820  -20.3304  -14.6764 C   0  0  0  0  0  0  0  0  0  0  0  0
   27.9312  -19.1905  -15.6886 C   0  0  2  0  0  0  0  0  0  0  0  0
   28.7642  -18.0981  -15.2191 N   0  0  0  0  0  0  0  0  0  0  0  0
   26.4869  -18.8279  -15.6442 C   0  0  0  0  0  0  0  0  0  0  0  0
   26.0963  -18.1567  -14.6546 O   0  0  0  0  0  0  0  0  0  0  0  0
   28.8741  -21.6969  -10.0551 C   0  0  0  0  0  0  0  0  0  0  0  0
   23.5401  -19.5995  -17.8040 C   0  0  1  0  0  0  0  0  0  0  0  0
   24.1083  -19.1401  -16.4517 N   0  0  0  0  0  0  0  0  0  0  0  0
   25.5476  -19.1828  -16.6234 C   0  0  0  0  0  0  0  0  0  0  0  0
   23.6468  -20.0168  -15.3622 O   0  0  0  0  0  0  0  0  0  0  0  0
   24.1476  -21.1568  -15.1963 C   0  0  0  0  0  0  0  0  0  0  0  0
   25.1113  -19.9255   -9.2269 S   0  0  0  0  0  0  0  0  0  0  0  0
   23.3318  -19.5920   -9.3551 C   0  0  0  0  0  0  0  0  0  0  0  0
   22.6009  -20.4130  -10.7747 C   0  0  0  0  0  0  0  0  0  0  0  0
   22.8558  -19.7059  -12.0828 C   0  0  1  0  0  0  0  0  0  0  0  0
   22.3097  -20.4614  -13.2715 N   0  0  0  0  0  0  0  0  0  0  0  0
   22.6241  -19.6328  -14.4466 C   0  0  0  0  0  0  0  0  0  0  0  0
   20.8872  -20.7762  -13.1994 O   0  0  0  0  0  0  0  0  0  0  0  0
   20.3720  -21.9191  -12.6138 O   0  0  0  0  0  0  0  0  0  0  0  0
  1  2  1  0
  2  3  2  0
  4  2  1  0
  5  4  1  0
  6  5  1  0
  7  6  1  0
  7  8  1  0
  8  9  1  1
  8 10  1  0
 10 11  2  0
 13 12  1  6
 14 10  1  0
 14 13  1  0
 15 13  1  0
 15 16  2  0
 17 18  1  0
 19 20  1  0
 19 18  1  0
 21 20  1  6
 21 23  1  0
 21 22  1  0
 22 15  1  0
 23 24  1  0
 25 23  2  0
M  END
$$$$
