RAM.pdb
     RDKit          3D

 25 24  0  0  1  0  0  0  0  0999 V2000
   21.3030  -20.4839   -8.5755 N   0  0  0  0  0  0  0  0  0  0  0  0
   22.0401  -21.6438   -8.2033 C   0  0  0  0  0  0  0  0  0  0  0  0
   21.5265  -22.4748   -7.3684 N   0  0  0  0  0  0  0  0  0  0  0  0
   23.3281  -21.8788   -8.7508 N   0  0  0  0  0  0  0  0  0  0  0  0
   23.8843  -20.9399   -9.6992 C   0  0  0  0  0  0  0  0  0  0  0  0
   25.2064  -21.5167  -10.1871 C   0  0  0  0  0  0  0  0  0  0  0  0
   25.8170  -20.4642  -11.0775 C   0  0  0  0  0  0  0  0  0  0  0  0
   25.1327  -20.4199  -12.4473 C   0  0  2  0  0  0  0  0  0  0  0  0
   25.1453  -21.7751  -12.9678 N   0  0  0  0  0  0  0  0  0  0  0  0
   25.9832  -19.5155  -13.2709 C   0  0  0  0  0  0  0  0  0  0  0  0
   26.1769  -18.3538  -12.8290 O   0  0  0  0  0  0  0  0  0  0  0  0
   21.9848  -23.3482   -7.0540 C   0  0  0  0  0  0  0  0  0  0  0  0
   27.9856  -19.8891  -16.3902 C   0  0  2  0  0  0  0  0  0  0  0  0
   27.3153  -18.9731  -15.3538 N   0  0  0  0  0  0  0  0  0  0  0  0
   26.5739  -19.8730  -14.4917 C   0  0  0  0  0  0  0  0  0  0  0  0
   26.4463  -17.9825  -16.0113 O   0  0  0  0  0  0  0  0  0  0  0  0
   25.8342  -18.2650  -17.0712 C   0  0  0  0  0  0  0  0  0  0  0  0
   28.3263  -12.6330  -17.9883 S   0  0  0  0  0  0  0  0  0  0  0  0
   28.3933  -12.8373  -16.1861 C   0  0  0  0  0  0  0  0  0  0  0  0
   27.1530  -13.9961  -15.6007 C   0  0  0  0  0  0  0  0  0  0  0  0
   26.3407  -14.6254  -16.7053 C   0  0  2  0  0  0  0  0  0  0  0  0
   25.4012  -15.6962  -16.2024 N   0  0  0  0  0  0  0  0  0  0  0  0
   26.2499  -16.6685  -15.4951 C   0  0  0  0  0  0  0  0  0  0  0  0
   24.5914  -16.3371  -17.2327 O   0  0  0  0  0  0  0  0  0  0  0  0
   23.4722  -17.1086  -16.9748 O   0  0  0  0  0  0  0  0  0  0  0  0
  1  2  1  0
  2  3  2  0
  4  2  1  0
  5  4  1  0
  6  5  1  0
  7  6  1  0
  7  8  1  0
  8  9  1  6
  8 10  1  0
 10 11  2  0
 13 12  1  1
 14 10  1  0
 14 13  1  0
 15 13  1  0
 15 16  2  0
 17 18  1  0
 19 20  1  0
 19 18  1  0
 21 20  1  1
 21 23  1  0
 21 22  1  0
 22 15  1  0
 23 24  1  0
 25 23  2  0
M  END
$$$$
