RAM.pdb
     RDKit          3D

 25 24  0  0  1  0  0  0  0  0999 V2000
   21.0538  -29.0699  -13.7885 N   0  0  0  0  0  0  0  0  0  0  0  0
   21.5090  -29.2286  -12.4488 C   0  0  0  0  0  0  0  0  0  0  0  0
   21.8233  -30.4005  -12.0255 N   0  0  0  0  0  0  0  0  0  0  0  0
   21.6148  -28.1027  -11.5914 N   0  0  0  0  0  0  0  0  0  0  0  0
   21.4148  -26.7746  -12.1268 C   0  0  0  0  0  0  0  0  0  0  0  0
   22.4715  -26.5539  -13.2007 C   0  0  0  0  0  0  0  0  0  0  0  0
   22.2124  -25.1796  -13.7642 C   0  0  0  0  0  0  0  0  0  0  0  0
   23.2271  -24.8176  -14.8532 C   0  0  2  0  0  0  0  0  0  0  0  0
   24.5332  -24.7931  -14.2200 N   0  0  0  0  0  0  0  0  0  0  0  0
   22.8239  -23.4600  -15.3159 C   0  0  0  0  0  0  0  0  0  0  0  0
   23.1399  -22.4888  -14.5814 O   0  0  0  0  0  0  0  0  0  0  0  0
   22.1498  -30.6087  -11.0655 C   0  0  0  0  0  0  0  0  0  0  0  0
   21.1550  -22.0939  -18.3566 C   0  0  1  0  0  0  0  0  0  0  0  0
   21.6124  -21.9029  -16.9016 N   0  0  0  0  0  0  0  0  0  0  0  0
   22.1237  -23.1999  -16.5030 C   0  0  0  0  0  0  0  0  0  0  0  0
   20.4948  -21.4552  -16.0534 O   0  0  0  0  0  0  0  0  0  0  0  0
   19.9132  -22.2551  -15.2789 C   0  0  0  0  0  0  0  0  0  0  0  0
   20.3876  -18.8257   -9.4987 S   0  0  0  0  0  0  0  0  0  0  0  0
   21.0998  -19.2958  -11.1005 C   0  0  0  0  0  0  0  0  0  0  0  0
   19.8938  -19.1793  -12.4255 C   0  0  0  0  0  0  0  0  0  0  0  0
   20.4060  -19.6690  -13.7574 C   0  0  2  0  0  0  0  0  0  0  0  0
   19.3860  -19.5293  -14.8629 N   0  0  0  0  0  0  0  0  0  0  0  0
   20.0145  -20.1133  -16.0587 C   0  0  0  0  0  0  0  0  0  0  0  0
   18.9264  -18.1665  -15.1070 O   0  0  0  0  0  0  0  0  0  0  0  0
   17.7962  -17.6120  -14.5328 O   0  0  0  0  0  0  0  0  0  0  0  0
  1  2  1  0
  2  3  2  0
  4  2  1  0
  5  4  1  0
  6  5  1  0
  7  6  1  0
  7  8  1  0
  8  9  1  1
  8 10  1  0
 10 11  2  0
 13 12  1  6
 14 10  1  0
 14 13  1  0
 15 13  1  0
 15 16  2  0
 17 18  1  0
 19 20  1  0
 19 18  1  0
 21 20  1  1
 21 23  1  0
 21 22  1  0
 22 15  1  0
 23 24  1  0
 25 23  2  0
M  END
$$$$
