RAM.pdb
     RDKit          3D

 25 24  0  0  1  0  0  0  0  0999 V2000
   17.9918  -21.2017  -10.7959 N   0  0  0  0  0  0  0  0  0  0  0  0
   16.9052  -21.7289  -11.5500 C   0  0  0  0  0  0  0  0  0  0  0  0
   15.9752  -22.3773  -10.9449 N   0  0  0  0  0  0  0  0  0  0  0  0
   16.8508  -21.5381  -12.9551 N   0  0  0  0  0  0  0  0  0  0  0  0
   18.0694  -21.5886  -13.7315 C   0  0  0  0  0  0  0  0  0  0  0  0
   19.2304  -21.3815  -12.7683 C   0  0  0  0  0  0  0  0  0  0  0  0
   20.1979  -20.4643  -13.4728 C   0  0  0  0  0  0  0  0  0  0  0  0
   21.3764  -21.2403  -14.0689 C   0  0  2  0  0  0  0  0  0  0  0  0
   21.3015  -22.5904  -13.5406 N   0  0  0  0  0  0  0  0  0  0  0  0
   22.5903  -20.5319  -13.5746 C   0  0  0  0  0  0  0  0  0  0  0  0
   22.7770  -19.3595  -13.9907 O   0  0  0  0  0  0  0  0  0  0  0  0
   15.1440  -22.7814  -11.4111 C   0  0  0  0  0  0  0  0  0  0  0  0
   25.3513  -21.3367  -11.2031 C   0  0  2  0  0  0  0  0  0  0  0  0
   24.8314  -20.5215  -12.3979 N   0  0  0  0  0  0  0  0  0  0  0  0
   23.5257  -21.0825  -12.6863 C   0  0  0  0  0  0  0  0  0  0  0  0
   25.7511  -20.6223  -13.5436 O   0  0  0  0  0  0  0  0  0  0  0  0
   25.7078  -21.6090  -14.3199 C   0  0  0  0  0  0  0  0  0  0  0  0
   29.8812  -22.8329  -10.4850 S   0  0  0  0  0  0  0  0  0  0  0  0
   30.7443  -21.3828  -11.1531 C   0  0  0  0  0  0  0  0  0  0  0  0
   30.0882  -20.8951  -12.7516 C   0  0  0  0  0  0  0  0  0  0  0  0
   28.6625  -20.4046  -12.6987 C   0  0  1  0  0  0  0  0  0  0  0  0
   28.1374  -19.9876  -14.0524 N   0  0  0  0  0  0  0  0  0  0  0  0
   26.7272  -19.6258  -13.8367 C   0  0  0  0  0  0  0  0  0  0  0  0
   28.2819  -20.9891  -15.1032 O   0  0  0  0  0  0  0  0  0  0  0  0
   27.3670  -21.9977  -15.3479 O   0  0  0  0  0  0  0  0  0  0  0  0
  1  2  1  0
  2  3  2  0
  4  2  1  0
  5  4  1  0
  6  5  1  0
  7  6  1  0
  7  8  1  0
  8  9  1  1
  8 10  1  0
 10 11  2  0
 13 12  1  1
 14 10  1  0
 14 13  1  0
 15 13  1  0
 15 16  2  0
 17 18  1  0
 19 20  1  0
 19 18  1  0
 21 20  1  1
 21 23  1  0
 21 22  1  0
 22 15  1  0
 23 24  1  0
 25 23  2  0
M  END
$$$$
