RAM.pdb
     RDKit          3D

 25 24  0  0  1  0  0  0  0  0999 V2000
   31.5273  -24.5517  -15.3913 N   0  0  0  0  0  0  0  0  0  0  0  0
   30.8791  -24.4469  -16.6546 C   0  0  0  0  0  0  0  0  0  0  0  0
   31.5901  -24.3589  -17.7214 N   0  0  0  0  0  0  0  0  0  0  0  0
   29.4622  -24.4410  -16.7330 N   0  0  0  0  0  0  0  0  0  0  0  0
   28.7092  -23.4504  -15.9969 C   0  0  0  0  0  0  0  0  0  0  0  0
   29.4587  -22.1302  -16.1149 C   0  0  0  0  0  0  0  0  0  0  0  0
   28.7034  -21.1442  -15.2600 C   0  0  0  0  0  0  0  0  0  0  0  0
   27.1909  -21.3735  -15.3396 C   0  0  2  0  0  0  0  0  0  0  0  0
   26.7444  -20.8025  -16.5974 N   0  0  0  0  0  0  0  0  0  0  0  0
   26.6294  -20.6294  -14.1774 C   0  0  0  0  0  0  0  0  0  0  0  0
   27.1984  -19.5538  -13.8586 O   0  0  0  0  0  0  0  0  0  0  0  0
   31.2070  -24.3654  -18.6831 C   0  0  0  0  0  0  0  0  0  0  0  0
   23.4948  -20.5310  -12.3192 C   0  0  1  0  0  0  0  0  0  0  0  0
   25.0225  -20.3837  -12.2370 N   0  0  0  0  0  0  0  0  0  0  0  0
   25.5209  -21.0470  -13.4263 C   0  0  0  0  0  0  0  0  0  0  0  0
   25.5432  -20.9864  -10.9983 O   0  0  0  0  0  0  0  0  0  0  0  0
   25.5748  -22.2337  -10.8524 C   0  0  0  0  0  0  0  0  0  0  0  0
   30.1721  -19.6233   -6.2427 S   0  0  0  0  0  0  0  0  0  0  0  0
   28.5367  -19.3642   -5.4994 C   0  0  0  0  0  0  0  0  0  0  0  0
   27.2587  -20.2808   -6.3656 C   0  0  0  0  0  0  0  0  0  0  0  0
   27.1403  -19.9242   -7.8267 C   0  0  1  0  0  0  0  0  0  0  0  0
   26.1223  -20.7706   -8.5541 N   0  0  0  0  0  0  0  0  0  0  0  0
   26.0342  -20.2069   -9.9107 C   0  0  0  0  0  0  0  0  0  0  0  0
   24.8130  -20.8430   -7.9148 O   0  0  0  0  0  0  0  0  0  0  0  0
   24.4862  -21.7361   -6.9099 O   0  0  0  0  0  0  0  0  0  0  0  0
  1  2  1  0
  2  3  2  0
  4  2  1  0
  5  4  1  0
  6  5  1  0
  7  6  1  0
  7  8  1  0
  8  9  1  6
  8 10  1  0
 10 11  2  0
 13 12  1  6
 14 10  1  0
 14 13  1  0
 15 13  1  0
 15 16  2  0
 17 18  1  0
 19 20  1  0
 19 18  1  0
 21 20  1  6
 21 23  1  0
 21 22  1  0
 22 15  1  0
 23 24  1  0
 25 23  2  0
M  END
$$$$
