RAM.pdb
     RDKit          3D

 25 24  0  0  1  0  0  0  0  0999 V2000
   24.7174  -30.8829  -16.7574 N   0  0  0  0  0  0  0  0  0  0  0  0
   23.4034  -30.9095  -16.2098 C   0  0  0  0  0  0  0  0  0  0  0  0
   23.0749  -31.8582  -15.4077 N   0  0  0  0  0  0  0  0  0  0  0  0
   22.4678  -29.8971  -16.5466 N   0  0  0  0  0  0  0  0  0  0  0  0
   22.8933  -28.7645  -17.3381 C   0  0  0  0  0  0  0  0  0  0  0  0
   23.5000  -27.7454  -16.3832 C   0  0  0  0  0  0  0  0  0  0  0  0
   22.3495  -26.9141  -15.8747 C   0  0  0  0  0  0  0  0  0  0  0  0
   22.4121  -25.4800  -16.4095 C   0  0  2  0  0  0  0  0  0  0  0  0
   23.6809  -24.9240  -15.9751 N   0  0  0  0  0  0  0  0  0  0  0  0
   21.2653  -24.7807  -15.7648 C   0  0  0  0  0  0  0  0  0  0  0  0
   21.3661  -24.5308  -14.5360 O   0  0  0  0  0  0  0  0  0  0  0  0
   22.1157  -32.0207  -15.0540 C   0  0  0  0  0  0  0  0  0  0  0  0
   18.1504  -23.1583  -16.9786 C   0  0  1  0  0  0  0  0  0  0  0  0
   18.9559  -23.7455  -15.8087 N   0  0  0  0  0  0  0  0  0  0  0  0
   20.0961  -24.3885  -16.4326 C   0  0  0  0  0  0  0  0  0  0  0  0
   18.1377  -24.6885  -15.0276 O   0  0  0  0  0  0  0  0  0  0  0  0
   18.0044  -25.8827  -15.3940 C   0  0  0  0  0  0  0  0  0  0  0  0
   19.3704  -27.7294  -10.0488 S   0  0  0  0  0  0  0  0  0  0  0  0
   17.7156  -27.1631   -9.5639 C   0  0  0  0  0  0  0  0  0  0  0  0
   16.7442  -26.6507  -10.9843 C   0  0  0  0  0  0  0  0  0  0  0  0
   17.4291  -25.6215  -11.8488 C   0  0  2  0  0  0  0  0  0  0  0  0
   16.6378  -25.2807  -13.0897 N   0  0  0  0  0  0  0  0  0  0  0  0
   17.4606  -24.3117  -13.8313 C   0  0  0  0  0  0  0  0  0  0  0  0
   15.2948  -24.7681  -12.8411 O   0  0  0  0  0  0  0  0  0  0  0  0
   14.1638  -25.5602  -12.7522 O   0  0  0  0  0  0  0  0  0  0  0  0
  1  2  1  0
  2  3  2  0
  4  2  1  0
  5  4  1  0
  6  5  1  0
  7  6  1  0
  7  8  1  0
  8  9  1  1
  8 10  1  0
 10 11  2  0
 13 12  1  1
 14 10  1  0
 14 13  1  0
 15 13  1  0
 15 16  2  0
 17 18  1  0
 19 20  1  0
 19 18  1  0
 21 20  1  6
 21 23  1  0
 21 22  1  0
 22 15  1  0
 23 24  1  0
 25 23  2  0
M  END
$$$$
