RAM.pdb
     RDKit          3D

 25 24  0  0  1  0  0  0  0  0999 V2000
   27.0925  -24.4100  -15.6485 N   0  0  0  0  0  0  0  0  0  0  0  0
   28.0277  -23.3683  -15.9082 C   0  0  0  0  0  0  0  0  0  0  0  0
   29.2083  -23.6697  -16.3164 N   0  0  0  0  0  0  0  0  0  0  0  0
   27.6576  -22.0115  -15.7188 N   0  0  0  0  0  0  0  0  0  0  0  0
   26.3483  -21.6938  -15.1942 C   0  0  0  0  0  0  0  0  0  0  0  0
   26.2897  -20.1843  -15.0028 C   0  0  0  0  0  0  0  0  0  0  0  0
   24.8857  -19.8760  -14.5476 C   0  0  0  0  0  0  0  0  0  0  0  0
   24.2851  -21.0376  -13.7497 C   0  0  2  0  0  0  0  0  0  0  0  0
   24.3488  -22.2109  -14.6022 N   0  0  0  0  0  0  0  0  0  0  0  0
   22.8750  -20.6337  -13.4886 C   0  0  0  0  0  0  0  0  0  0  0  0
   22.6932  -19.6673  -12.7042 O   0  0  0  0  0  0  0  0  0  0  0  0
   29.9566  -22.9799  -16.5061 C   0  0  0  0  0  0  0  0  0  0  0  0
   19.6848  -20.5151  -14.9357 C   0  0  1  0  0  0  0  0  0  0  0  0
   20.3783  -21.0146  -13.6582 N   0  0  0  0  0  0  0  0  0  0  0  0
   21.7522  -21.2549  -14.0549 C   0  0  0  0  0  0  0  0  0  0  0  0
   19.7222  -22.2284  -13.1437 O   0  0  0  0  0  0  0  0  0  0  0  0
   20.0663  -23.3672  -13.5471 C   0  0  0  0  0  0  0  0  0  0  0  0
   19.6920  -24.3267   -7.5299 S   0  0  0  0  0  0  0  0  0  0  0  0
   18.0866  -25.0600   -7.9532 C   0  0  0  0  0  0  0  0  0  0  0  0
   17.6748  -24.8086   -9.6827 C   0  0  0  0  0  0  0  0  0  0  0  0
   18.3131  -23.5824  -10.2867 C   0  0  1  0  0  0  0  0  0  0  0  0
   17.9871  -23.4156  -11.7523 N   0  0  0  0  0  0  0  0  0  0  0  0
   18.6774  -22.1865  -12.1750 C   0  0  0  0  0  0  0  0  0  0  0  0
   16.5627  -23.3677  -12.0638 O   0  0  0  0  0  0  0  0  0  0  0  0
   15.7728  -24.4853  -12.2672 O   0  0  0  0  0  0  0  0  0  0  0  0
  1  2  1  0
  2  3  2  0
  4  2  1  0
  5  4  1  0
  6  5  1  0
  7  6  1  0
  7  8  1  0
  8  9  1  6
  8 10  1  0
 10 11  2  0
 13 12  1  1
 14 10  1  0
 14 13  1  0
 15 13  1  0
 15 16  2  0
 17 18  1  0
 19 20  1  0
 19 18  1  0
 21 20  1  6
 21 23  1  0
 21 22  1  0
 22 15  1  0
 23 24  1  0
 25 23  2  0
M  END
$$$$
