RAM.pdb
     RDKit          3D

 25 24  0  0  1  0  0  0  0  0999 V2000
   27.6770  -22.8084  -16.8458 N   0  0  0  0  0  0  0  0  0  0  0  0
   26.6444  -22.5384  -17.7882 C   0  0  0  0  0  0  0  0  0  0  0  0
   26.2896  -23.4573  -18.6135 N   0  0  0  0  0  0  0  0  0  0  0  0
   26.0140  -21.2674  -17.8137 N   0  0  0  0  0  0  0  0  0  0  0  0
   25.9677  -20.4676  -16.6101 C   0  0  0  0  0  0  0  0  0  0  0  0
   24.5567  -20.5744  -16.0478 C   0  0  0  0  0  0  0  0  0  0  0  0
   24.4728  -19.5584  -14.9369 C   0  0  0  0  0  0  0  0  0  0  0  0
   24.8703  -20.1656  -13.5879 C   0  0  2  0  0  0  0  0  0  0  0  0
   25.8343  -21.2147  -13.8665 N   0  0  0  0  0  0  0  0  0  0  0  0
   23.6061  -20.7254  -13.0327 C   0  0  0  0  0  0  0  0  0  0  0  0
   23.2807  -21.8818  -13.4060 O   0  0  0  0  0  0  0  0  0  0  0  0
   25.5995  -23.3272  -19.3741 C   0  0  0  0  0  0  0  0  0  0  0  0
   21.1939  -19.6293  -10.4166 C   0  0  1  0  0  0  0  0  0  0  0  0
   21.5616  -20.6057  -11.5452 N   0  0  0  0  0  0  0  0  0  0  0  0
   22.7671  -20.0532  -12.1320 C   0  0  0  0  0  0  0  0  0  0  0  0
   20.4640  -20.7198  -12.5204 O   0  0  0  0  0  0  0  0  0  0  0  0
   20.3496  -19.8952  -13.4612 C   0  0  0  0  0  0  0  0  0  0  0  0
   17.5659  -26.3681  -15.2743 S   0  0  0  0  0  0  0  0  0  0  0  0
   16.3459  -25.2931  -14.4678 C   0  0  0  0  0  0  0  0  0  0  0  0
   16.8781  -23.5784  -14.4495 C   0  0  0  0  0  0  0  0  0  0  0  0
   18.0172  -23.3064  -13.4985 C   0  0  1  0  0  0  0  0  0  0  0  0
   18.4223  -21.8513  -13.4729 N   0  0  0  0  0  0  0  0  0  0  0  0
   19.4838  -21.7528  -12.4583 C   0  0  0  0  0  0  0  0  0  0  0  0
   17.3355  -20.9149  -13.2082 O   0  0  0  0  0  0  0  0  0  0  0  0
   16.4857  -20.4146  -14.1788 O   0  0  0  0  0  0  0  0  0  0  0  0
  1  2  1  0
  2  3  2  0
  4  2  1  0
  5  4  1  0
  6  5  1  0
  7  6  1  0
  7  8  1  0
  8  9  1  6
  8 10  1  0
 10 11  2  0
 13 12  1  1
 14 10  1  0
 14 13  1  0
 15 13  1  0
 15 16  2  0
 17 18  1  0
 19 20  1  0
 19 18  1  0
 21 20  1  6
 21 23  1  0
 21 22  1  0
 22 15  1  0
 23 24  1  0
 25 23  2  0
M  END
$$$$
