RAM.pdb
     RDKit          3D

 25 24  0  0  1  0  0  0  0  0999 V2000
   19.6861  -20.9026  -13.0468 N   0  0  0  0  0  0  0  0  0  0  0  0
   19.9057  -22.1167  -13.7575 C   0  0  0  0  0  0  0  0  0  0  0  0
   20.7925  -22.1502  -14.6870 N   0  0  0  0  0  0  0  0  0  0  0  0
   19.1529  -23.2771  -13.4404 N   0  0  0  0  0  0  0  0  0  0  0  0
   18.1735  -23.2262  -12.3781 C   0  0  0  0  0  0  0  0  0  0  0  0
   18.9349  -23.1703  -11.0606 C   0  0  0  0  0  0  0  0  0  0  0  0
   18.0783  -23.8946  -10.0531 C   0  0  0  0  0  0  0  0  0  0  0  0
   18.7961  -25.1219   -9.4831 C   0  0  2  0  0  0  0  0  0  0  0  0
   18.7619  -26.1451  -10.5125 N   0  0  0  0  0  0  0  0  0  0  0  0
   17.9887  -25.5206   -8.2962 C   0  0  0  0  0  0  0  0  0  0  0  0
   16.8349  -25.9716   -8.5152 O   0  0  0  0  0  0  0  0  0  0  0  0
   21.0187  -22.9883  -15.2509 C   0  0  0  0  0  0  0  0  0  0  0  0
   18.6097  -25.7905   -4.6370 C   0  0  1  0  0  0  0  0  0  0  0  0
   17.6091  -25.6838   -5.7989 N   0  0  0  0  0  0  0  0  0  0  0  0
   18.4280  -25.4261   -6.9676 C   0  0  0  0  0  0  0  0  0  0  0  0
   16.6293  -24.6123   -5.5526 O   0  0  0  0  0  0  0  0  0  0  0  0
   16.8972  -23.4174   -5.8327 C   0  0  0  0  0  0  0  0  0  0  0  0
   10.8557  -24.6280   -8.7724 S   0  0  0  0  0  0  0  0  0  0  0  0
   11.1389  -24.7674   -6.9851 C   0  0  0  0  0  0  0  0  0  0  0  0
   12.7928  -24.2374   -6.5295 C   0  0  0  0  0  0  0  0  0  0  0  0
   13.0462  -24.2498   -5.0424 C   0  0  2  0  0  0  0  0  0  0  0  0
   14.4258  -23.7520   -4.6805 N   0  0  0  0  0  0  0  0  0  0  0  0
   15.3422  -24.8605   -4.9930 C   0  0  0  0  0  0  0  0  0  0  0  0
   14.5751  -23.3024   -3.3008 O   0  0  0  0  0  0  0  0  0  0  0  0
   14.0275  -22.1349   -2.7994 O   0  0  0  0  0  0  0  0  0  0  0  0
  1  2  1  0
  2  3  2  0
  4  2  1  0
  5  4  1  0
  6  5  1  0
  7  6  1  0
  7  8  1  0
  8  9  1  6
  8 10  1  0
 10 11  2  0
 13 12  1  6
 14 10  1  0
 14 13  1  0
 15 13  1  0
 15 16  2  0
 17 18  1  0
 19 20  1  0
 19 18  1  0
 21 20  1  6
 21 23  1  0
 21 22  1  0
 22 15  1  0
 23 24  1  0
 25 23  2  0
M  END
$$$$
