RAM.pdb
     RDKit          3D

 25 24  0  0  1  0  0  0  0  0999 V2000
   19.4645  -19.5811  -17.1496 N   0  0  0  0  0  0  0  0  0  0  0  0
   19.8616  -18.2792  -16.7317 C   0  0  0  0  0  0  0  0  0  0  0  0
   19.8658  -17.3183  -17.5849 N   0  0  0  0  0  0  0  0  0  0  0  0
   20.2473  -18.0469  -15.3859 N   0  0  0  0  0  0  0  0  0  0  0  0
   20.2246  -19.1374  -14.4368 C   0  0  0  0  0  0  0  0  0  0  0  0
   20.7264  -18.5922  -13.1066 C   0  0  0  0  0  0  0  0  0  0  0  0
   20.6506  -19.7392  -12.1308 C   0  0  0  0  0  0  0  0  0  0  0  0
   22.0451  -20.2032  -11.6987 C   0  0  2  0  0  0  0  0  0  0  0  0
   22.6581  -20.8284  -12.8567 N   0  0  0  0  0  0  0  0  0  0  0  0
   21.7995  -21.1949  -10.6144 C   0  0  0  0  0  0  0  0  0  0  0  0
   21.3373  -22.3136  -10.9570 O   0  0  0  0  0  0  0  0  0  0  0  0
   20.1651  -16.3498  -17.3751 C   0  0  0  0  0  0  0  0  0  0  0  0
   22.3087  -21.2185   -6.9161 C   0  0  1  0  0  0  0  0  0  0  0  0
   21.7831  -21.9075   -8.1856 N   0  0  0  0  0  0  0  0  0  0  0  0
   22.0479  -20.9631   -9.2536 C   0  0  0  0  0  0  0  0  0  0  0  0
   20.3503  -22.2231   -8.0579 O   0  0  0  0  0  0  0  0  0  0  0  0
   19.4742  -21.3755   -8.3610 C   0  0  0  0  0  0  0  0  0  0  0  0
   16.7348  -26.1220  -11.0694 S   0  0  0  0  0  0  0  0  0  0  0  0
   16.0453  -26.3874   -9.4117 C   0  0  0  0  0  0  0  0  0  0  0  0
   16.5610  -25.1074   -8.2630 C   0  0  0  0  0  0  0  0  0  0  0  0
   18.0286  -24.7688   -8.3502 C   0  0  2  0  0  0  0  0  0  0  0  0
   18.4458  -23.7159   -7.3506 N   0  0  0  0  0  0  0  0  0  0  0  0
   19.8791  -23.4852   -7.5922 C   0  0  0  0  0  0  0  0  0  0  0  0
   18.1821  -24.0532   -5.9560 O   0  0  0  0  0  0  0  0  0  0  0  0
   16.9496  -23.9170   -5.3422 O   0  0  0  0  0  0  0  0  0  0  0  0
  1  2  1  0
  2  3  2  0
  4  2  1  0
  5  4  1  0
  6  5  1  0
  7  6  1  0
  7  8  1  0
  8  9  1  6
  8 10  1  0
 10 11  2  0
 13 12  1  6
 14 10  1  0
 14 13  1  0
 15 13  1  0
 15 16  2  0
 17 18  1  0
 19 20  1  0
 19 18  1  0
 21 20  1  6
 21 23  1  0
 21 22  1  0
 22 15  1  0
 23 24  1  0
 25 23  2  0
M  END
$$$$
