RAM.pdb
     RDKit          3D

 25 24  0  0  1  0  0  0  0  0999 V2000
   16.1209  -15.6210  -12.9913 N   0  0  0  0  0  0  0  0  0  0  0  0
   14.7306  -15.3298  -13.0879 C   0  0  0  0  0  0  0  0  0  0  0  0
   14.0131  -15.9628  -13.9457 N   0  0  0  0  0  0  0  0  0  0  0  0
   14.1447  -14.3509  -12.2439 N   0  0  0  0  0  0  0  0  0  0  0  0
   14.5080  -12.9604  -12.4017 C   0  0  0  0  0  0  0  0  0  0  0  0
   14.3656  -12.2963  -11.0389 C   0  0  0  0  0  0  0  0  0  0  0  0
   14.6834  -10.8377  -11.2508 C   0  0  0  0  0  0  0  0  0  0  0  0
   14.4462  -10.0195   -9.9777 C   0  0  2  0  0  0  0  0  0  0  0  0
   13.0135  -10.0119   -9.7432 N   0  0  0  0  0  0  0  0  0  0  0  0
   14.9493   -8.6548  -10.3005 C   0  0  0  0  0  0  0  0  0  0  0  0
   14.6622   -8.1934  -11.4351 O   0  0  0  0  0  0  0  0  0  0  0  0
   12.9960  -15.8216  -14.0769 C   0  0  0  0  0  0  0  0  0  0  0  0
   16.1562   -5.7666   -8.4266 C   0  0  2  0  0  0  0  0  0  0  0  0
   16.2407   -6.5494   -9.7466 N   0  0  0  0  0  0  0  0  0  0  0  0
   15.7126   -7.8624   -9.4307 C   0  0  0  0  0  0  0  0  0  0  0  0
   17.6282   -6.6056  -10.2370 O   0  0  0  0  0  0  0  0  0  0  0  0
   18.4238   -7.4839   -9.8204 C   0  0  0  0  0  0  0  0  0  0  0  0
   21.7759  -10.2821  -12.9496 S   0  0  0  0  0  0  0  0  0  0  0  0
   20.8021   -9.1195  -13.9467 C   0  0  0  0  0  0  0  0  0  0  0  0
   20.7506   -7.4857  -13.2038 C   0  0  0  0  0  0  0  0  0  0  0  0
   19.4783   -7.2044  -12.4435 C   0  0  1  0  0  0  0  0  0  0  0  0
   19.4909   -5.8564  -11.7617 N   0  0  0  0  0  0  0  0  0  0  0  0
   18.1431   -5.6853  -11.1959 C   0  0  0  0  0  0  0  0  0  0  0  0
   19.8609   -4.7365  -12.6202 O   0  0  0  0  0  0  0  0  0  0  0  0
   21.1620   -4.3184  -12.8363 O   0  0  0  0  0  0  0  0  0  0  0  0
  1  2  1  0
  2  3  2  0
  4  2  1  0
  5  4  1  0
  6  5  1  0
  7  6  1  0
  7  8  1  0
  8  9  1  6
  8 10  1  0
 10 11  2  0
 13 12  1  6
 14 10  1  0
 14 13  1  0
 15 13  1  0
 15 16  2  0
 17 18  1  0
 19 20  1  0
 19 18  1  0
 21 20  1  1
 21 23  1  0
 21 22  1  0
 22 15  1  0
 23 24  1  0
 25 23  2  0
M  END
$$$$
