RAM.pdb
     RDKit          3D

 25 24  0  0  1  0  0  0  0  0999 V2000
   21.9586  -22.9419  -14.1387 N   0  0  0  0  0  0  0  0  0  0  0  0
   21.4499  -24.2716  -14.1612 C   0  0  0  0  0  0  0  0  0  0  0  0
   20.1799  -24.4605  -14.1076 N   0  0  0  0  0  0  0  0  0  0  0  0
   22.3377  -25.3756  -14.2432 N   0  0  0  0  0  0  0  0  0  0  0  0
   23.7434  -25.1461  -14.4919 C   0  0  0  0  0  0  0  0  0  0  0  0
   23.9760  -25.3283  -15.9856 C   0  0  0  0  0  0  0  0  0  0  0  0
   24.4894  -24.0041  -16.4920 C   0  0  0  0  0  0  0  0  0  0  0  0
   26.0013  -24.0428  -16.7354 C   0  0  2  0  0  0  0  0  0  0  0  0
   26.4082  -25.4327  -16.6350 N   0  0  0  0  0  0  0  0  0  0  0  0
   26.5871  -23.2263  -15.6355 C   0  0  0  0  0  0  0  0  0  0  0  0
   27.1401  -23.8497  -14.6931 O   0  0  0  0  0  0  0  0  0  0  0  0
   19.7259  -25.3908  -14.0951 C   0  0  0  0  0  0  0  0  0  0  0  0
   26.9824  -19.5712  -15.0013 C   0  0  1  0  0  0  0  0  0  0  0  0
   27.0884  -21.0203  -14.5000 N   0  0  0  0  0  0  0  0  0  0  0  0
   26.5613  -21.8249  -15.5851 C   0  0  0  0  0  0  0  0  0  0  0  0
   26.3325  -21.2006  -13.2490 O   0  0  0  0  0  0  0  0  0  0  0  0
   25.0878  -21.3695  -13.2668 C   0  0  0  0  0  0  0  0  0  0  0  0
   26.7143  -20.3558   -5.3252 S   0  0  0  0  0  0  0  0  0  0  0  0
   27.5698  -20.3982   -6.9254 C   0  0  0  0  0  0  0  0  0  0  0  0
   26.4365  -20.7298   -8.2780 C   0  0  0  0  0  0  0  0  0  0  0  0
   27.1085  -20.8162   -9.6259 C   0  0  1  0  0  0  0  0  0  0  0  0
   26.1497  -21.1812  -10.7346 N   0  0  0  0  0  0  0  0  0  0  0  0
   26.9546  -21.1955  -11.9666 C   0  0  0  0  0  0  0  0  0  0  0  0
   24.9905  -20.3043  -10.8586 O   0  0  0  0  0  0  0  0  0  0  0  0
   23.7213  -20.6242  -10.4099 O   0  0  0  0  0  0  0  0  0  0  0  0
  1  2  1  0
  2  3  2  0
  4  2  1  0
  5  4  1  0
  6  5  1  0
  7  6  1  0
  7  8  1  0
  8  9  1  1
  8 10  1  0
 10 11  2  0
 13 12  1  6
 14 10  1  0
 14 13  1  0
 15 13  1  0
 15 16  2  0
 17 18  1  0
 19 20  1  0
 19 18  1  0
 21 20  1  1
 21 23  1  0
 21 22  1  0
 22 15  1  0
 23 24  1  0
 25 23  2  0
M  END
$$$$
