RAM.pdb
     RDKit          3D

 25 24  0  0  1  0  0  0  0  0999 V2000
   25.8057  -20.9990  -11.6115 N   0  0  0  0  0  0  0  0  0  0  0  0
   24.8124  -21.5575  -12.4651 C   0  0  0  0  0  0  0  0  0  0  0  0
   23.5717  -21.3286  -12.2208 N   0  0  0  0  0  0  0  0  0  0  0  0
   25.1906  -22.3576  -13.5744 N   0  0  0  0  0  0  0  0  0  0  0  0
   26.4270  -22.0777  -14.2697 C   0  0  0  0  0  0  0  0  0  0  0  0
   26.0924  -21.1647  -15.4415 C   0  0  0  0  0  0  0  0  0  0  0  0
   27.3976  -20.8974  -16.1475 C   0  0  0  0  0  0  0  0  0  0  0  0
   28.0425  -19.5949  -15.6636 C   0  0  2  0  0  0  0  0  0  0  0  0
   28.1607  -19.6949  -14.2201 N   0  0  0  0  0  0  0  0  0  0  0  0
   27.0835  -18.5243  -16.0556 C   0  0  0  0  0  0  0  0  0  0  0  0
   26.2640  -18.1428  -15.1806 O   0  0  0  0  0  0  0  0  0  0  0  0
   22.7849  -21.7188  -12.7689 C   0  0  0  0  0  0  0  0  0  0  0  0
   26.9511  -15.9854  -18.6768 C   0  0  1  0  0  0  0  0  0  0  0  0
   26.1367  -16.8522  -17.7033 N   0  0  0  0  0  0  0  0  0  0  0  0
   27.0373  -17.9228  -17.3217 C   0  0  0  0  0  0  0  0  0  0  0  0
   24.9096  -17.3530  -18.3453 O   0  0  0  0  0  0  0  0  0  0  0  0
   24.9436  -18.3460  -19.1139 C   0  0  0  0  0  0  0  0  0  0  0  0
   21.4562  -18.7403  -14.2781 S   0  0  0  0  0  0  0  0  0  0  0  0
   21.9158  -17.5327  -15.5527 C   0  0  0  0  0  0  0  0  0  0  0  0
   20.8857  -17.6835  -17.0155 C   0  0  0  0  0  0  0  0  0  0  0  0
   21.2570  -16.7263  -18.1209 C   0  0  2  0  0  0  0  0  0  0  0  0
   22.4588  -17.1857  -18.9125 N   0  0  0  0  0  0  0  0  0  0  0  0
   23.6331  -16.7539  -18.1374 C   0  0  0  0  0  0  0  0  0  0  0  0
   22.5122  -16.6999  -20.2869 O   0  0  0  0  0  0  0  0  0  0  0  0
   21.9395  -17.3510  -21.3651 O   0  0  0  0  0  0  0  0  0  0  0  0
  1  2  1  0
  2  3  2  0
  4  2  1  0
  5  4  1  0
  6  5  1  0
  7  6  1  0
  7  8  1  0
  8  9  1  1
  8 10  1  0
 10 11  2  0
 13 12  1  1
 14 10  1  0
 14 13  1  0
 15 13  1  0
 15 16  2  0
 17 18  1  0
 19 20  1  0
 19 18  1  0
 21 20  1  1
 21 23  1  0
 21 22  1  0
 22 15  1  0
 23 24  1  0
 25 23  2  0
M  END
$$$$
