RAM.pdb
     RDKit          3D

 25 24  0  0  1  0  0  0  0  0999 V2000
   24.7692  -24.8793  -14.7780 N   0  0  0  0  0  0  0  0  0  0  0  0
   24.7375  -24.2171  -16.0381 C   0  0  0  0  0  0  0  0  0  0  0  0
   23.6547  -24.2325  -16.7301 N   0  0  0  0  0  0  0  0  0  0  0  0
   25.8904  -23.5466  -16.5227 N   0  0  0  0  0  0  0  0  0  0  0  0
   27.0135  -23.3254  -15.6395 C   0  0  0  0  0  0  0  0  0  0  0  0
   27.5085  -21.9058  -15.8810 C   0  0  0  0  0  0  0  0  0  0  0  0
   27.1998  -21.1368  -14.6213 C   0  0  0  0  0  0  0  0  0  0  0  0
   25.8296  -20.4562  -14.6992 C   0  0  2  0  0  0  0  0  0  0  0  0
   25.9771  -19.3136  -15.5826 N   0  0  0  0  0  0  0  0  0  0  0  0
   25.5356  -20.0270  -13.3032 C   0  0  0  0  0  0  0  0  0  0  0  0
   26.2169  -19.0752  -12.8424 O   0  0  0  0  0  0  0  0  0  0  0  0
   23.5456  -23.7855  -17.6574 C   0  0  0  0  0  0  0  0  0  0  0  0
   22.8332  -20.6192  -10.8637 C   0  0  1  0  0  0  0  0  0  0  0  0
   24.3037  -20.2407  -11.1023 N   0  0  0  0  0  0  0  0  0  0  0  0
   24.5598  -20.6094  -12.4811 C   0  0  0  0  0  0  0  0  0  0  0  0
   25.1880  -20.9460  -10.1592 O   0  0  0  0  0  0  0  0  0  0  0  0
   25.3898  -22.1812  -10.2660 C   0  0  0  0  0  0  0  0  0  0  0  0
   29.3697  -18.2322   -5.9170 S   0  0  0  0  0  0  0  0  0  0  0  0
   28.6879  -19.5425   -4.8621 C   0  0  0  0  0  0  0  0  0  0  0  0
   27.5838  -20.6251   -5.7745 C   0  0  0  0  0  0  0  0  0  0  0  0
   27.1173  -20.0489   -7.0884 C   0  0  1  0  0  0  0  0  0  0  0  0
   26.2882  -21.0229   -7.8921 N   0  0  0  0  0  0  0  0  0  0  0  0
   25.8564  -20.2832   -9.0889 C   0  0  0  0  0  0  0  0  0  0  0  0
   25.1551  -21.6012   -7.1783 O   0  0  0  0  0  0  0  0  0  0  0  0
   25.2175  -22.7642   -6.4314 O   0  0  0  0  0  0  0  0  0  0  0  0
  1  2  1  0
  2  3  2  0
  4  2  1  0
  5  4  1  0
  6  5  1  0
  7  6  1  0
  7  8  1  0
  8  9  1  6
  8 10  1  0
 10 11  2  0
 13 12  1  6
 14 10  1  0
 14 13  1  0
 15 13  1  0
 15 16  2  0
 17 18  1  0
 19 20  1  0
 19 18  1  0
 21 20  1  6
 21 23  1  0
 21 22  1  0
 22 15  1  0
 23 24  1  0
 25 23  2  0
M  END
$$$$
