RAM.pdb
     RDKit          3D

 25 24  0  0  1  0  0  0  0  0999 V2000
   20.5527  -20.1785  -16.8143 N   0  0  0  0  0  0  0  0  0  0  0  0
   20.1351  -18.9361  -16.2580 C   0  0  0  0  0  0  0  0  0  0  0  0
   19.0763  -18.3673  -16.7126 N   0  0  0  0  0  0  0  0  0  0  0  0
   20.8811  -18.3344  -15.2115 N   0  0  0  0  0  0  0  0  0  0  0  0
   22.1679  -18.8817  -14.8441 C   0  0  0  0  0  0  0  0  0  0  0  0
   21.9106  -20.0768  -13.9363 C   0  0  0  0  0  0  0  0  0  0  0  0
   23.1528  -20.2379  -13.0971 C   0  0  0  0  0  0  0  0  0  0  0  0
   24.1559  -21.1912  -13.7540 C   0  0  2  0  0  0  0  0  0  0  0  0
   23.3995  -22.3356  -14.2292 N   0  0  0  0  0  0  0  0  0  0  0  0
   25.0907  -21.5765  -12.6598 C   0  0  0  0  0  0  0  0  0  0  0  0
   24.6490  -22.3598  -11.7801 O   0  0  0  0  0  0  0  0  0  0  0  0
   18.7169  -17.4526  -16.3873 C   0  0  0  0  0  0  0  0  0  0  0  0
   28.6501  -20.7960  -11.8494 C   0  0  1  0  0  0  0  0  0  0  0  0
   27.3051  -21.4197  -11.4437 N   0  0  0  0  0  0  0  0  0  0  0  0
   26.4148  -21.1271  -12.5502 C   0  0  0  0  0  0  0  0  0  0  0  0
   26.8250  -20.8532  -10.1719 O   0  0  0  0  0  0  0  0  0  0  0  0
   25.9336  -19.9683  -10.1565 C   0  0  0  0  0  0  0  0  0  0  0  0
   29.7326  -19.8574   -3.3637 S   0  0  0  0  0  0  0  0  0  0  0  0
   28.6034  -21.1591   -3.9334 C   0  0  0  0  0  0  0  0  0  0  0  0
   27.5024  -20.5683   -5.2227 C   0  0  0  0  0  0  0  0  0  0  0  0
   27.7338  -21.2192   -6.5640 C   0  0  1  0  0  0  0  0  0  0  0  0
   26.9057  -20.5993   -7.6649 N   0  0  0  0  0  0  0  0  0  0  0  0
   27.3319  -21.2666   -8.9055 C   0  0  0  0  0  0  0  0  0  0  0  0
   27.0105  -19.1481   -7.7705 O   0  0  0  0  0  0  0  0  0  0  0  0
   26.1227  -18.2596   -7.1902 O   0  0  0  0  0  0  0  0  0  0  0  0
  1  2  1  0
  2  3  2  0
  4  2  1  0
  5  4  1  0
  6  5  1  0
  7  6  1  0
  7  8  1  0
  8  9  1  1
  8 10  1  0
 10 11  2  0
 13 12  1  6
 14 10  1  0
 14 13  1  0
 15 13  1  0
 15 16  2  0
 17 18  1  0
 19 20  1  0
 19 18  1  0
 21 20  1  1
 21 23  1  0
 21 22  1  0
 22 15  1  0
 23 24  1  0
 25 23  2  0
M  END
$$$$
