NYD.pdb
     RDKit          3D

 29 29  0  0  1  0  0  0  0  0999 V2000
   11.2742  -17.7052   16.7506 N   0  0  0  0  0  0  0  0  0  0  0  0
   10.2379  -17.7883   17.7473 C   0  0  0  0  0  0  0  0  0  0  0  0
    9.3004  -18.5995   17.5989 O   0  0  0  0  0  0  0  0  0  0  0  0
   10.3312  -16.9094   18.9007 C   0  0  0  0  0  0  0  0  0  0  0  0
   10.4980  -17.6187   20.2273 C   0  0  2  0  0  0  0  0  0  0  0  0
    9.2709  -18.4752   20.2912 N   0  0  0  0  0  0  0  0  0  0  0  0
   10.3080  -16.6262   21.3097 C   0  0  0  0  0  0  0  0  0  0  0  0
   11.2411  -15.7607   21.4818 O   0  0  0  0  0  0  0  0  0  0  0  0
    7.2662  -12.8580   17.6005 O   0  0  0  0  0  0  0  0  0  0  0  0
    7.3701  -13.3542   18.8935 C   0  0  0  0  0  0  0  0  0  0  0  0
    6.6964  -14.4771   19.3276 C   0  0  0  0  0  0  0  0  0  0  0  0
    6.8520  -14.9175   20.6483 C   0  0  0  0  0  0  0  0  0  0  0  0
    7.6747  -14.2372   21.5207 C   0  0  0  0  0  0  0  0  0  0  0  0
    7.8303  -14.6987   22.8922 C   0  0  0  0  0  0  0  0  0  0  0  0
    9.1171  -15.4516   23.1733 C   0  0  2  0  0  0  0  0  0  0  0  0
    9.1951  -16.5288   22.1752 N   0  0  0  0  0  0  0  0  0  0  0  0
    9.1790  -15.9443   24.5612 C   0  0  0  0  0  0  0  0  0  0  0  0
    8.1024  -15.9776   25.2085 O   0  0  0  0  0  0  0  0  0  0  0  0
    8.3349  -13.1236   21.0689 C   0  0  0  0  0  0  0  0  0  0  0  0
    8.2021  -12.6598   19.7636 C   0  0  0  0  0  0  0  0  0  0  0  0
   10.3348  -16.3833   25.2327 N   0  0  0  0  0  0  0  0  0  0  0  0
   10.3781  -17.5681   26.0815 C   0  0  1  0  0  0  0  0  0  0  0  0
   10.0719  -18.8055   25.3025 C   0  0  0  0  0  0  0  0  0  0  0  0
   10.1963  -19.9959   26.1606 C   0  0  0  0  0  0  0  0  0  0  0  0
    9.2469  -20.4824   26.8205 O   0  0  0  0  0  0  0  0  0  0  0  0
   11.7243  -17.6433   26.6629 C   0  0  0  0  0  0  0  0  0  0  0  0
   11.8979  -18.0718   27.8238 O   0  0  0  0  0  0  0  0  0  0  0  0
   11.4294  -20.6226   26.2515 O   0  0  0  0  0  0  0  0  0  0  0  0
   12.8209  -17.2425   25.9344 O   0  0  0  0  0  0  0  0  0  0  0  0
  1  2  1  0
  2  3  2  0
  4  2  1  0
  4  5  1  0
  5  6  1  1
  5  7  1  0
  7  8  2  0
  9 10  1  0
 10 20  2  0
 10 11  1  0
 11 12  2  0
 12 13  1  0
 13 14  1  0
 15 14  1  1
 16  7  1  0
 16 15  1  0
 17 21  1  0
 17 15  1  0
 18 17  2  0
 19 13  2  0
 20 19  1  0
 22 26  1  0
 22 23  1  6
 22 21  1  0
 23 24  1  0
 24 28  1  0
 24 25  2  0
 26 29  1  0
 27 26  2  0
M  END
$$$$
