NYD.pdb
     RDKit          3D

 29 29  0  0  1  0  0  0  0  0999 V2000
   12.2602  -18.6355   18.8283 N   0  0  0  0  0  0  0  0  0  0  0  0
   11.6250  -17.3824   18.5111 C   0  0  0  0  0  0  0  0  0  0  0  0
   11.4583  -17.0581   17.3170 O   0  0  0  0  0  0  0  0  0  0  0  0
   11.1991  -16.5372   19.6137 C   0  0  0  0  0  0  0  0  0  0  0  0
   10.7397  -17.2856   20.8465 C   0  0  2  0  0  0  0  0  0  0  0  0
    9.3884  -17.7845   20.4356 N   0  0  0  0  0  0  0  0  0  0  0  0
   10.4560  -16.2952   21.9102 C   0  0  0  0  0  0  0  0  0  0  0  0
   11.4646  -15.7238   22.4629 O   0  0  0  0  0  0  0  0  0  0  0  0
    6.2492  -11.3080   27.9740 O   0  0  0  0  0  0  0  0  0  0  0  0
    6.6237  -12.0446   26.8578 C   0  0  0  0  0  0  0  0  0  0  0  0
    7.4000  -11.5307   25.8398 C   0  0  0  0  0  0  0  0  0  0  0  0
    7.7374  -12.3362   24.7444 C   0  0  0  0  0  0  0  0  0  0  0  0
    7.2995  -13.6417   24.6744 C   0  0  0  0  0  0  0  0  0  0  0  0
    7.6516  -14.4726   23.5325 C   0  0  0  0  0  0  0  0  0  0  0  0
    9.0502  -15.0594   23.5736 C   0  0  2  0  0  0  0  0  0  0  0  0
    9.1806  -15.9070   22.3789 N   0  0  0  0  0  0  0  0  0  0  0  0
    9.3092  -15.7867   24.8291 C   0  0  0  0  0  0  0  0  0  0  0  0
    9.3395  -15.1124   25.8892 O   0  0  0  0  0  0  0  0  0  0  0  0
    6.5289  -14.1325   25.6968 C   0  0  0  0  0  0  0  0  0  0  0  0
    6.1760  -13.3590   26.7985 C   0  0  0  0  0  0  0  0  0  0  0  0
    9.5265  -17.1713   24.9538 N   0  0  0  0  0  0  0  0  0  0  0  0
    9.7840  -17.8400   26.2236 C   0  0  1  0  0  0  0  0  0  0  0  0
    8.8089  -18.9462   26.4623 C   0  0  0  0  0  0  0  0  0  0  0  0
    8.7677  -19.2943   27.8927 C   0  0  0  0  0  0  0  0  0  0  0  0
    9.5790  -18.8531   28.7416 O   0  0  0  0  0  0  0  0  0  0  0  0
   11.1557  -18.3617   26.1754 C   0  0  0  0  0  0  0  0  0  0  0  0
   11.9232  -18.2380   27.1537 O   0  0  0  0  0  0  0  0  0  0  0  0
    7.7793  -20.1585   28.3372 O   0  0  0  0  0  0  0  0  0  0  0  0
   11.6189  -18.9993   25.0471 O   0  0  0  0  0  0  0  0  0  0  0  0
  1  2  1  0
  2  3  2  0
  4  2  1  0
  4  5  1  0
  5  6  1  6
  5  7  1  0
  7  8  2  0
  9 10  1  0
 10 20  2  0
 10 11  1  0
 11 12  2  0
 12 13  1  0
 13 14  1  0
 15 14  1  1
 16  7  1  0
 16 15  1  0
 17 21  1  0
 17 15  1  0
 18 17  2  0
 19 13  2  0
 20 19  1  0
 22 26  1  0
 22 23  1  6
 22 21  1  0
 23 24  1  0
 24 28  1  0
 24 25  2  0
 26 29  1  0
 27 26  2  0
M  END
$$$$
