NYD.pdb
     RDKit          3D

 29 29  0  0  1  0  0  0  0  0999 V2000
   12.0187  -18.9878   18.6899 N   0  0  0  0  0  0  0  0  0  0  0  0
   11.8969  -17.5641   18.5096 C   0  0  0  0  0  0  0  0  0  0  0  0
   12.2438  -17.0456   17.4280 O   0  0  0  0  0  0  0  0  0  0  0  0
   11.3667  -16.7814   19.6131 C   0  0  0  0  0  0  0  0  0  0  0  0
   11.0943  -17.5689   20.8765 C   0  0  2  0  0  0  0  0  0  0  0  0
    9.8461  -18.3191   20.5257 N   0  0  0  0  0  0  0  0  0  0  0  0
   10.6668  -16.6201   21.9300 C   0  0  0  0  0  0  0  0  0  0  0  0
   11.5651  -15.8430   22.4184 O   0  0  0  0  0  0  0  0  0  0  0  0
    7.5017  -13.0615   17.8204 O   0  0  0  0  0  0  0  0  0  0  0  0
    7.6072  -13.4452   19.1510 C   0  0  0  0  0  0  0  0  0  0  0  0
    8.2902  -12.7092   20.0970 C   0  0  0  0  0  0  0  0  0  0  0  0
    8.3528  -13.1612   21.4216 C   0  0  0  0  0  0  0  0  0  0  0  0
    7.7362  -14.3382   21.7893 C   0  0  0  0  0  0  0  0  0  0  0  0
    7.8068  -14.8035   23.1665 C   0  0  0  0  0  0  0  0  0  0  0  0
    9.0924  -15.5193   23.5363 C   0  0  2  0  0  0  0  0  0  0  0  0
    9.3618  -16.4765   22.4529 N   0  0  0  0  0  0  0  0  0  0  0  0
    9.0101  -16.1563   24.8630 C   0  0  0  0  0  0  0  0  0  0  0  0
    7.8632  -16.3414   25.3423 O   0  0  0  0  0  0  0  0  0  0  0  0
    7.0628  -15.0544   20.8334 C   0  0  0  0  0  0  0  0  0  0  0  0
    6.9817  -14.6334   19.5095 C   0  0  0  0  0  0  0  0  0  0  0  0
   10.0992  -16.5791   25.6470 N   0  0  0  0  0  0  0  0  0  0  0  0
   10.0218  -17.6543   26.6288 C   0  0  1  0  0  0  0  0  0  0  0  0
    9.6337  -18.9472   25.9887 C   0  0  0  0  0  0  0  0  0  0  0  0
    9.7111  -20.0468   26.9653 C   0  0  0  0  0  0  0  0  0  0  0  0
    9.8431  -19.8746   28.2007 O   0  0  0  0  0  0  0  0  0  0  0  0
   11.3417  -17.7670   27.2622 C   0  0  0  0  0  0  0  0  0  0  0  0
   11.4496  -17.8921   28.5008 O   0  0  0  0  0  0  0  0  0  0  0  0
    9.6347  -21.3514   26.5030 O   0  0  0  0  0  0  0  0  0  0  0  0
   12.4857  -17.7379   26.4978 O   0  0  0  0  0  0  0  0  0  0  0  0
  1  2  1  0
  2  3  2  0
  4  2  1  0
  4  5  1  0
  5  6  1  6
  5  7  1  0
  7  8  2  0
  9 10  1  0
 10 20  2  0
 10 11  1  0
 11 12  2  0
 12 13  1  0
 13 14  1  0
 15 14  1  6
 16  7  1  0
 16 15  1  0
 17 21  1  0
 17 15  1  0
 18 17  2  0
 19 13  2  0
 20 19  1  0
 22 26  1  0
 22 23  1  6
 22 21  1  0
 23 24  1  0
 24 28  1  0
 24 25  2  0
 26 29  1  0
 27 26  2  0
M  END
$$$$
