NYD.pdb
     RDKit          3D

 29 29  0  0  1  0  0  0  0  0999 V2000
   10.9963  -18.8510   18.1898 N   0  0  0  0  0  0  0  0  0  0  0  0
   10.8686  -17.4412   17.9244 C   0  0  0  0  0  0  0  0  0  0  0  0
   11.1091  -17.0027   16.7804 O   0  0  0  0  0  0  0  0  0  0  0  0
   10.4584  -16.5774   19.0185 C   0  0  0  0  0  0  0  0  0  0  0  0
   10.2771  -17.2789   20.3474 C   0  0  2  0  0  0  0  0  0  0  0  0
    8.9589  -17.9679   20.1707 N   0  0  0  0  0  0  0  0  0  0  0  0
   10.0170  -16.2513   21.3814 C   0  0  0  0  0  0  0  0  0  0  0  0
   10.9922  -15.4777   21.6972 O   0  0  0  0  0  0  0  0  0  0  0  0
    6.2688  -11.5647   27.9435 O   0  0  0  0  0  0  0  0  0  0  0  0
    6.5003  -12.3891   26.8500 C   0  0  0  0  0  0  0  0  0  0  0  0
    6.1461  -13.7220   26.8211 C   0  0  0  0  0  0  0  0  0  0  0  0
    6.4125  -14.4906   25.6805 C   0  0  0  0  0  0  0  0  0  0  0  0
    7.0271  -13.9252   24.5835 C   0  0  0  0  0  0  0  0  0  0  0  0
    7.3031  -14.7297   23.4024 C   0  0  0  0  0  0  0  0  0  0  0  0
    8.7475  -15.1677   23.2482 C   0  0  2  0  0  0  0  0  0  0  0  0
    8.7959  -16.0288   22.0571 N   0  0  0  0  0  0  0  0  0  0  0  0
    9.2581  -15.8305   24.4616 C   0  0  0  0  0  0  0  0  0  0  0  0
    9.3381  -15.1365   25.5062 O   0  0  0  0  0  0  0  0  0  0  0  0
    7.3709  -12.5988   24.6332 C   0  0  0  0  0  0  0  0  0  0  0  0
    7.1205  -11.8078   25.7505 C   0  0  0  0  0  0  0  0  0  0  0  0
    9.6660  -17.1734   24.5616 N   0  0  0  0  0  0  0  0  0  0  0  0
   10.1762  -17.7762   25.7873 C   0  0  1  0  0  0  0  0  0  0  0  0
    9.4335  -19.0270   26.1272 C   0  0  0  0  0  0  0  0  0  0  0  0
    8.6635  -18.8451   27.3693 C   0  0  0  0  0  0  0  0  0  0  0  0
    8.7940  -17.8585   28.1328 O   0  0  0  0  0  0  0  0  0  0  0  0
   11.6009  -18.0622   25.5765 C   0  0  0  0  0  0  0  0  0  0  0  0
   12.3356  -18.3959   26.5306 O   0  0  0  0  0  0  0  0  0  0  0  0
    7.7382  -19.8143   27.7244 O   0  0  0  0  0  0  0  0  0  0  0  0
   12.1514  -17.9681   24.3186 O   0  0  0  0  0  0  0  0  0  0  0  0
  1  2  1  0
  2  3  2  0
  4  2  1  0
  4  5  1  0
  5  6  1  6
  5  7  1  0
  7  8  2  0
  9 10  1  0
 10 20  2  0
 10 11  1  0
 11 12  2  0
 12 13  1  0
 13 14  1  0
 15 14  1  1
 16  7  1  0
 16 15  1  0
 17 21  1  0
 17 15  1  0
 18 17  2  0
 19 13  2  0
 20 19  1  0
 22 26  1  0
 22 23  1  6
 22 21  1  0
 23 24  1  0
 24 28  1  0
 24 25  2  0
 26 29  1  0
 27 26  2  0
M  END
$$$$
