NYD.pdb
     RDKit          3D

 29 29  0  0  1  0  0  0  0  0999 V2000
   11.0135  -19.2410   18.4328 N   0  0  0  0  0  0  0  0  0  0  0  0
   11.4013  -17.8755   18.1889 C   0  0  0  0  0  0  0  0  0  0  0  0
   11.9173  -17.5649   17.0952 O   0  0  0  0  0  0  0  0  0  0  0  0
   11.1706  -16.9039   19.2445 C   0  0  0  0  0  0  0  0  0  0  0  0
   10.7556  -17.4972   20.5736 C   0  0  2  0  0  0  0  0  0  0  0  0
    9.4098  -18.0763   20.2618 N   0  0  0  0  0  0  0  0  0  0  0  0
   10.4675  -16.3844   21.5072 C   0  0  0  0  0  0  0  0  0  0  0  0
   11.4697  -15.7079   21.9397 O   0  0  0  0  0  0  0  0  0  0  0  0
    6.2790  -11.3266   27.5175 O   0  0  0  0  0  0  0  0  0  0  0  0
    6.5824  -12.2007   26.4817 C   0  0  0  0  0  0  0  0  0  0  0  0
    6.3005  -13.5504   26.5259 C   0  0  0  0  0  0  0  0  0  0  0  0
    6.6370  -14.3697   25.4405 C   0  0  0  0  0  0  0  0  0  0  0  0
    7.2488  -13.8378   24.3253 C   0  0  0  0  0  0  0  0  0  0  0  0
    7.5978  -14.6948   23.2019 C   0  0  0  0  0  0  0  0  0  0  0  0
    9.0691  -15.0508   23.0999 C   0  0  2  0  0  0  0  0  0  0  0  0
    9.1938  -15.9837   21.9699 N   0  0  0  0  0  0  0  0  0  0  0  0
    9.5954  -15.5993   24.3627 C   0  0  0  0  0  0  0  0  0  0  0  0
    9.3926  -14.9326   25.4085 O   0  0  0  0  0  0  0  0  0  0  0  0
    7.5201  -12.4940   24.3021 C   0  0  0  0  0  0  0  0  0  0  0  0
    7.1991  -11.6528   25.3632 C   0  0  0  0  0  0  0  0  0  0  0  0
   10.3063  -16.8047   24.5088 N   0  0  0  0  0  0  0  0  0  0  0  0
   10.7673  -17.3231   25.7913 C   0  0  1  0  0  0  0  0  0  0  0  0
    9.6198  -17.6310   26.6967 C   0  0  0  0  0  0  0  0  0  0  0  0
   10.1040  -18.2192   27.9570 C   0  0  0  0  0  0  0  0  0  0  0  0
    9.3912  -18.9105   28.7234 O   0  0  0  0  0  0  0  0  0  0  0  0
   11.5506  -18.5350   25.5194 C   0  0  0  0  0  0  0  0  0  0  0  0
   12.7843  -18.5583   25.7165 O   0  0  0  0  0  0  0  0  0  0  0  0
   11.4222  -18.0024   28.3272 O   0  0  0  0  0  0  0  0  0  0  0  0
   10.9350  -19.6697   25.0425 O   0  0  0  0  0  0  0  0  0  0  0  0
  1  2  1  0
  2  3  2  0
  4  2  1  0
  4  5  1  0
  5  6  1  6
  5  7  1  0
  7  8  2  0
  9 10  1  0
 10 20  2  0
 10 11  1  0
 11 12  2  0
 12 13  1  0
 13 14  1  0
 15 14  1  1
 16  7  1  0
 16 15  1  0
 17 21  1  0
 17 15  1  0
 18 17  2  0
 19 13  2  0
 20 19  1  0
 22 26  1  0
 22 23  1  1
 22 21  1  0
 23 24  1  0
 24 28  1  0
 24 25  2  0
 26 29  1  0
 27 26  2  0
M  END
$$$$
