NYD.pdb
     RDKit          3D

 29 29  0  0  1  0  0  0  0  0999 V2000
    8.3062  -16.7728   15.6092 N   0  0  0  0  0  0  0  0  0  0  0  0
    9.5036  -17.0308   16.3669 C   0  0  0  0  0  0  0  0  0  0  0  0
   10.3672  -17.8098   15.9128 O   0  0  0  0  0  0  0  0  0  0  0  0
    9.6556  -16.3615   17.6476 C   0  0  0  0  0  0  0  0  0  0  0  0
    9.6124  -17.2776   18.8517 C   0  0  2  0  0  0  0  0  0  0  0  0
    8.2355  -17.8606   18.7636 N   0  0  0  0  0  0  0  0  0  0  0  0
    9.5768  -16.4379   20.0709 C   0  0  0  0  0  0  0  0  0  0  0  0
   10.6903  -15.9395   20.4720 O   0  0  0  0  0  0  0  0  0  0  0  0
    6.8029  -12.5004   27.5604 O   0  0  0  0  0  0  0  0  0  0  0  0
    6.8867  -13.1184   26.3195 C   0  0  0  0  0  0  0  0  0  0  0  0
    6.4823  -14.4180   26.0946 C   0  0  0  0  0  0  0  0  0  0  0  0
    6.5979  -14.9733   24.8136 C   0  0  0  0  0  0  0  0  0  0  0  0
    7.1135  -14.2307   23.7727 C   0  0  0  0  0  0  0  0  0  0  0  0
    7.2330  -14.8142   22.4448 C   0  0  0  0  0  0  0  0  0  0  0  0
    8.5739  -15.4581   22.1457 C   0  0  2  0  0  0  0  0  0  0  0  0
    8.4346  -16.1215   20.8406 N   0  0  0  0  0  0  0  0  0  0  0  0
    8.9993  -16.3757   23.2179 C   0  0  0  0  0  0  0  0  0  0  0  0
    8.3800  -17.4641   23.3233 O   0  0  0  0  0  0  0  0  0  0  0  0
    7.5096  -12.9411   24.0181 C   0  0  0  0  0  0  0  0  0  0  0  0
    7.4083  -12.3598   25.2784 C   0  0  0  0  0  0  0  0  0  0  0  0
   10.0386  -16.1475   24.1385 N   0  0  0  0  0  0  0  0  0  0  0  0
   10.5297  -17.1541   25.0720 C   0  0  1  0  0  0  0  0  0  0  0  0
   12.0165  -17.2808   25.0013 C   0  0  0  0  0  0  0  0  0  0  0  0
   12.4963  -18.2550   25.9961 C   0  0  0  0  0  0  0  0  0  0  0  0
   12.0474  -19.4213   26.1032 O   0  0  0  0  0  0  0  0  0  0  0  0
   10.1092  -16.7470   26.4187 C   0  0  0  0  0  0  0  0  0  0  0  0
    9.8825  -15.5471   26.6840 O   0  0  0  0  0  0  0  0  0  0  0  0
   13.5020  -17.8710   26.8694 O   0  0  0  0  0  0  0  0  0  0  0  0
    9.9560  -17.6853   27.4139 O   0  0  0  0  0  0  0  0  0  0  0  0
  1  2  1  0
  2  3  2  0
  4  2  1  0
  4  5  1  0
  5  6  1  6
  5  7  1  0
  7  8  2  0
  9 10  1  0
 10 20  2  0
 10 11  1  0
 11 12  2  0
 12 13  1  0
 13 14  1  0
 15 14  1  1
 16  7  1  0
 16 15  1  0
 17 21  1  0
 17 15  1  0
 18 17  2  0
 19 13  2  0
 20 19  1  0
 22 26  1  0
 22 23  1  1
 22 21  1  0
 23 24  1  0
 24 28  1  0
 24 25  2  0
 26 29  1  0
 27 26  2  0
M  END
$$$$
