NYD.pdb
     RDKit          3D

 29 29  0  0  1  0  0  0  0  0999 V2000
    7.8692  -15.1601   17.9279 N   0  0  0  0  0  0  0  0  0  0  0  0
    7.8488  -13.8915   18.6095 C   0  0  0  0  0  0  0  0  0  0  0  0
    7.4931  -12.8646   17.9948 O   0  0  0  0  0  0  0  0  0  0  0  0
    8.2499  -13.8629   20.0058 C   0  0  0  0  0  0  0  0  0  0  0  0
    8.6778  -15.2002   20.5709 C   0  0  2  0  0  0  0  0  0  0  0  0
    7.3858  -15.9563   20.6228 N   0  0  0  0  0  0  0  0  0  0  0  0
    9.0451  -15.0058   21.9922 C   0  0  0  0  0  0  0  0  0  0  0  0
   10.1114  -14.3324   22.2351 O   0  0  0  0  0  0  0  0  0  0  0  0
    5.7367  -10.2327   26.6101 O   0  0  0  0  0  0  0  0  0  0  0  0
    6.1800  -11.5190   26.3313 C   0  0  0  0  0  0  0  0  0  0  0  0
    5.3751  -12.6344   26.4373 C   0  0  0  0  0  0  0  0  0  0  0  0
    5.8942  -13.9008   26.1385 C   0  0  0  0  0  0  0  0  0  0  0  0
    7.2058  -14.0430   25.7382 C   0  0  0  0  0  0  0  0  0  0  0  0
    7.7396  -15.3617   25.4314 C   0  0  0  0  0  0  0  0  0  0  0  0
    8.9099  -15.3710   24.4658 C   0  0  2  0  0  0  0  0  0  0  0  0
    8.3351  -15.4832   23.1169 N   0  0  0  0  0  0  0  0  0  0  0  0
    9.8740  -16.4425   24.7741 C   0  0  0  0  0  0  0  0  0  0  0  0
   10.3277  -16.4891   25.9451 O   0  0  0  0  0  0  0  0  0  0  0  0
    7.9885  -12.9215   25.6395 C   0  0  0  0  0  0  0  0  0  0  0  0
    7.5039  -11.6495   25.9290 C   0  0  0  0  0  0  0  0  0  0  0  0
   10.3364  -17.4230   23.8770 N   0  0  0  0  0  0  0  0  0  0  0  0
   11.3041  -18.4542   24.2320 C   0  0  1  0  0  0  0  0  0  0  0  0
   12.6809  -18.0833   23.7865 C   0  0  0  0  0  0  0  0  0  0  0  0
   13.6568  -19.0849   24.2483 C   0  0  0  0  0  0  0  0  0  0  0  0
   13.3863  -20.2987   24.4123 O   0  0  0  0  0  0  0  0  0  0  0  0
   11.2589  -18.6159   25.6908 C   0  0  0  0  0  0  0  0  0  0  0  0
   10.9320  -19.7069   26.2048 O   0  0  0  0  0  0  0  0  0  0  0  0
   14.9522  -18.6730   24.5202 O   0  0  0  0  0  0  0  0  0  0  0  0
   11.5789  -17.5637   26.5182 O   0  0  0  0  0  0  0  0  0  0  0  0
  1  2  1  0
  2  3  2  0
  4  2  1  0
  4  5  1  0
  5  6  1  1
  5  7  1  0
  7  8  2  0
  9 10  1  0
 10 20  2  0
 10 11  1  0
 11 12  2  0
 12 13  1  0
 13 14  1  0
 15 14  1  1
 16  7  1  0
 16 15  1  0
 17 21  1  0
 17 15  1  0
 18 17  2  0
 19 13  2  0
 20 19  1  0
 22 26  1  0
 22 23  1  1
 22 21  1  0
 23 24  1  0
 24 28  1  0
 24 25  2  0
 26 29  1  0
 27 26  2  0
M  END
$$$$
