NYD.pdb
     RDKit          3D

 29 29  0  0  1  0  0  0  0  0999 V2000
    9.7615  -17.5274   17.1136 N   0  0  0  0  0  0  0  0  0  0  0  0
   10.7956  -17.6655   18.1065 C   0  0  0  0  0  0  0  0  0  0  0  0
   11.7433  -18.4536   17.9073 O   0  0  0  0  0  0  0  0  0  0  0  0
   10.6882  -16.8676   19.3162 C   0  0  0  0  0  0  0  0  0  0  0  0
   10.9378  -17.6269   20.6015 C   0  0  2  0  0  0  0  0  0  0  0  0
    9.7608  -18.5514   20.6633 N   0  0  0  0  0  0  0  0  0  0  0  0
   10.7323  -16.6970   21.7355 C   0  0  0  0  0  0  0  0  0  0  0  0
   11.7443  -16.0036   22.1156 O   0  0  0  0  0  0  0  0  0  0  0  0
    6.6634  -13.2357   18.2207 O   0  0  0  0  0  0  0  0  0  0  0  0
    7.0519  -13.5817   19.5085 C   0  0  0  0  0  0  0  0  0  0  0  0
    7.9072  -12.8135   20.2710 C   0  0  0  0  0  0  0  0  0  0  0  0
    8.2535  -13.2284   21.5635 C   0  0  0  0  0  0  0  0  0  0  0  0
    7.7457  -14.4007   22.0819 C   0  0  0  0  0  0  0  0  0  0  0  0
    8.1112  -14.8272   23.4245 C   0  0  0  0  0  0  0  0  0  0  0  0
    9.4638  -15.5054   23.5360 C   0  0  2  0  0  0  0  0  0  0  0  0
    9.5274  -16.4881   22.4438 N   0  0  0  0  0  0  0  0  0  0  0  0
    9.6751  -16.1049   24.8658 C   0  0  0  0  0  0  0  0  0  0  0  0
    9.5184  -15.3590   25.8649 O   0  0  0  0  0  0  0  0  0  0  0  0
    6.8974  -15.1492   21.3071 C   0  0  0  0  0  0  0  0  0  0  0  0
    6.5337  -14.7655   20.0199 C   0  0  0  0  0  0  0  0  0  0  0  0
   10.0371  -17.4399   25.1236 N   0  0  0  0  0  0  0  0  0  0  0  0
   10.2930  -17.9666   26.4590 C   0  0  1  0  0  0  0  0  0  0  0  0
    9.6109  -19.2797   26.6647 C   0  0  0  0  0  0  0  0  0  0  0  0
   10.0144  -19.8715   27.9514 C   0  0  0  0  0  0  0  0  0  0  0  0
   10.0681  -19.2300   29.0280 O   0  0  0  0  0  0  0  0  0  0  0  0
   11.7471  -18.1115   26.6031 C   0  0  0  0  0  0  0  0  0  0  0  0
   12.4828  -18.2220   25.5991 O   0  0  0  0  0  0  0  0  0  0  0  0
   10.3566  -21.2144   27.9860 O   0  0  0  0  0  0  0  0  0  0  0  0
   12.3250  -18.1262   27.8521 O   0  0  0  0  0  0  0  0  0  0  0  0
  1  2  1  0
  2  3  2  0
  4  2  1  0
  4  5  1  0
  5  6  1  1
  5  7  1  0
  7  8  2  0
  9 10  1  0
 10 20  2  0
 10 11  1  0
 11 12  2  0
 12 13  1  0
 13 14  1  0
 15 14  1  1
 16  7  1  0
 16 15  1  0
 17 21  1  0
 17 15  1  0
 18 17  2  0
 19 13  2  0
 20 19  1  0
 22 26  1  0
 22 23  1  6
 22 21  1  0
 23 24  1  0
 24 28  1  0
 24 25  2  0
 26 29  1  0
 27 26  2  0
M  END
$$$$
