NYD.pdb
     RDKit          3D

 29 29  0  0  1  0  0  0  0  0999 V2000
    8.8810  -16.9573   16.6128 N   0  0  0  0  0  0  0  0  0  0  0  0
    9.9805  -17.2706   17.4888 C   0  0  0  0  0  0  0  0  0  0  0  0
   10.7165  -18.2463   17.2332 O   0  0  0  0  0  0  0  0  0  0  0  0
   10.1876  -16.4229   18.6506 C   0  0  0  0  0  0  0  0  0  0  0  0
   10.1145  -17.1405   19.9812 C   0  0  2  0  0  0  0  0  0  0  0  0
    8.7895  -17.8344   19.9005 N   0  0  0  0  0  0  0  0  0  0  0  0
    9.9320  -16.1262   21.0445 C   0  0  0  0  0  0  0  0  0  0  0  0
   10.9175  -15.3360   21.2760 O   0  0  0  0  0  0  0  0  0  0  0  0
    6.4491  -11.3894   27.7473 O   0  0  0  0  0  0  0  0  0  0  0  0
    6.6944  -12.1487   26.6105 C   0  0  0  0  0  0  0  0  0  0  0  0
    7.3945  -11.6726   25.5213 C   0  0  0  0  0  0  0  0  0  0  0  0
    7.6022  -12.4991   24.4094 C   0  0  0  0  0  0  0  0  0  0  0  0
    7.1121  -13.7877   24.3938 C   0  0  0  0  0  0  0  0  0  0  0  0
    7.3294  -14.6405   23.2346 C   0  0  0  0  0  0  0  0  0  0  0  0
    8.7814  -14.9728   22.9462 C   0  0  2  0  0  0  0  0  0  0  0  0
    8.7748  -15.9330   21.8324 N   0  0  0  0  0  0  0  0  0  0  0  0
    9.4819  -15.4782   24.1406 C   0  0  0  0  0  0  0  0  0  0  0  0
    9.3406  -14.8300   25.2079 O   0  0  0  0  0  0  0  0  0  0  0  0
    6.4190  -14.2408   25.4866 C   0  0  0  0  0  0  0  0  0  0  0  0
    6.1952  -13.4457   26.6065 C   0  0  0  0  0  0  0  0  0  0  0  0
   10.2974  -16.6233   24.1991 N   0  0  0  0  0  0  0  0  0  0  0  0
   10.7746  -17.2155   25.4431 C   0  0  1  0  0  0  0  0  0  0  0  0
    9.6420  -17.7376   26.2655 C   0  0  0  0  0  0  0  0  0  0  0  0
   10.1488  -18.3634   27.4984 C   0  0  0  0  0  0  0  0  0  0  0  0
   11.2914  -18.1502   27.9701 O   0  0  0  0  0  0  0  0  0  0  0  0
   11.6980  -18.3003   25.0876 C   0  0  0  0  0  0  0  0  0  0  0  0
   11.3940  -19.1402   24.2136 O   0  0  0  0  0  0  0  0  0  0  0  0
    9.3237  -19.2404   28.1851 O   0  0  0  0  0  0  0  0  0  0  0  0
   12.9191  -18.4085   25.7132 O   0  0  0  0  0  0  0  0  0  0  0  0
  1  2  1  0
  2  3  2  0
  4  2  1  0
  4  5  1  0
  5  6  1  6
  5  7  1  0
  7  8  2  0
  9 10  1  0
 10 20  2  0
 10 11  1  0
 11 12  2  0
 12 13  1  0
 13 14  1  0
 15 14  1  1
 16  7  1  0
 16 15  1  0
 17 21  1  0
 17 15  1  0
 18 17  2  0
 19 13  2  0
 20 19  1  0
 22 26  1  0
 22 23  1  6
 22 21  1  0
 23 24  1  0
 24 28  1  0
 24 25  2  0
 26 29  1  0
 27 26  2  0
M  END
$$$$
