NYD.pdb
     RDKit          3D

 29 29  0  0  1  0  0  0  0  0999 V2000
   11.0295  -17.1616   16.5107 N   0  0  0  0  0  0  0  0  0  0  0  0
    9.8643  -17.2714   17.3501 C   0  0  0  0  0  0  0  0  0  0  0  0
    8.9634  -18.0839   17.0549 O   0  0  0  0  0  0  0  0  0  0  0  0
    9.7880  -16.4172   18.5232 C   0  0  0  0  0  0  0  0  0  0  0  0
   10.1228  -17.1027   19.8304 C   0  0  2  0  0  0  0  0  0  0  0  0
    8.9734  -18.0478   20.0022 N   0  0  0  0  0  0  0  0  0  0  0  0
    9.9546  -16.1195   20.9248 C   0  0  0  0  0  0  0  0  0  0  0  0
   10.9477  -15.3443   21.1740 O   0  0  0  0  0  0  0  0  0  0  0  0
    6.4828  -11.6510   27.8156 O   0  0  0  0  0  0  0  0  0  0  0  0
    6.7162  -12.3363   26.6303 C   0  0  0  0  0  0  0  0  0  0  0  0
    7.1305  -11.7170   25.4693 C   0  0  0  0  0  0  0  0  0  0  0  0
    7.3457  -12.4762   24.3117 C   0  0  0  0  0  0  0  0  0  0  0  0
    7.1468  -13.8404   24.3223 C   0  0  0  0  0  0  0  0  0  0  0  0
    7.3700  -14.6230   23.1158 C   0  0  0  0  0  0  0  0  0  0  0  0
    8.8167  -14.9966   22.8523 C   0  0  2  0  0  0  0  0  0  0  0  0
    8.8035  -15.9410   21.7250 N   0  0  0  0  0  0  0  0  0  0  0  0
    9.4763  -15.5397   24.0533 C   0  0  0  0  0  0  0  0  0  0  0  0
    9.5455  -14.7909   25.0602 O   0  0  0  0  0  0  0  0  0  0  0  0
    6.7348  -14.4358   25.4868 C   0  0  0  0  0  0  0  0  0  0  0  0
    6.5120  -13.7108   26.6535 C   0  0  0  0  0  0  0  0  0  0  0  0
   10.0381  -16.8235   24.1799 N   0  0  0  0  0  0  0  0  0  0  0  0
   10.7364  -17.2884   25.3725 C   0  0  1  0  0  0  0  0  0  0  0  0
    9.8660  -18.1772   26.1995 C   0  0  0  0  0  0  0  0  0  0  0  0
   10.6096  -18.6825   27.3659 C   0  0  0  0  0  0  0  0  0  0  0  0
   11.4445  -18.0023   28.0091 O   0  0  0  0  0  0  0  0  0  0  0  0
   11.9356  -18.0089   24.9268 C   0  0  0  0  0  0  0  0  0  0  0  0
   12.1057  -18.2855   23.7201 O   0  0  0  0  0  0  0  0  0  0  0  0
   10.3811  -19.9837   27.7858 O   0  0  0  0  0  0  0  0  0  0  0  0
   12.8962  -18.3913   25.8353 O   0  0  0  0  0  0  0  0  0  0  0  0
  1  2  1  0
  2  3  2  0
  4  2  1  0
  4  5  1  0
  5  6  1  1
  5  7  1  0
  7  8  2  0
  9 10  1  0
 10 20  2  0
 10 11  1  0
 11 12  2  0
 12 13  1  0
 13 14  1  0
 15 14  1  1
 16  7  1  0
 16 15  1  0
 17 21  1  0
 17 15  1  0
 18 17  2  0
 19 13  2  0
 20 19  1  0
 22 26  1  0
 22 23  1  6
 22 21  1  0
 23 24  1  0
 24 28  1  0
 24 25  2  0
 26 29  1  0
 27 26  2  0
M  END
$$$$
