NYD.pdb
     RDKit          3D

 29 29  0  0  1  0  0  0  0  0999 V2000
    7.5840  -19.8646   20.7596 N   0  0  0  0  0  0  0  0  0  0  0  0
    9.0007  -19.8804   20.5005 C   0  0  0  0  0  0  0  0  0  0  0  0
    9.4784  -20.7352   19.7259 O   0  0  0  0  0  0  0  0  0  0  0  0
    9.8247  -18.8838   21.1632 C   0  0  0  0  0  0  0  0  0  0  0  0
    9.7356  -17.4926   20.5738 C   0  0  2  0  0  0  0  0  0  0  0  0
   11.1117  -17.2894   20.0181 N   0  0  0  0  0  0  0  0  0  0  0  0
    9.6446  -16.5226   21.6889 C   0  0  0  0  0  0  0  0  0  0  0  0
   10.7016  -16.3406   22.3951 O   0  0  0  0  0  0  0  0  0  0  0  0
    6.4931  -10.6404   27.5981 O   0  0  0  0  0  0  0  0  0  0  0  0
    6.7271  -11.4478   26.4925 C   0  0  0  0  0  0  0  0  0  0  0  0
    7.6671  -11.1520   25.5272 C   0  0  0  0  0  0  0  0  0  0  0  0
    7.8464  -12.0163   24.4393 C   0  0  0  0  0  0  0  0  0  0  0  0
    7.0899  -13.1632   24.3245 C   0  0  0  0  0  0  0  0  0  0  0  0
    7.2795  -14.0559   23.1908 C   0  0  0  0  0  0  0  0  0  0  0  0
    8.5371  -14.9029   23.2448 C   0  0  2  0  0  0  0  0  0  0  0  0
    8.5080  -15.7667   22.0550 N   0  0  0  0  0  0  0  0  0  0  0  0
    8.6419  -15.6593   24.5056 C   0  0  0  0  0  0  0  0  0  0  0  0
    8.9202  -15.0099   25.5448 O   0  0  0  0  0  0  0  0  0  0  0  0
    6.1612  -13.4382   25.2950 C   0  0  0  0  0  0  0  0  0  0  0  0
    5.9583  -12.6009   26.3878 C   0  0  0  0  0  0  0  0  0  0  0  0
    8.4585  -17.0462   24.6563 N   0  0  0  0  0  0  0  0  0  0  0  0
    8.5018  -17.7343   25.9410 C   0  0  1  0  0  0  0  0  0  0  0  0
    7.8810  -19.0901   25.8520 C   0  0  0  0  0  0  0  0  0  0  0  0
    8.0134  -19.8004   27.1352 C   0  0  0  0  0  0  0  0  0  0  0  0
    8.9333  -19.5848   27.9602 O   0  0  0  0  0  0  0  0  0  0  0  0
    9.9119  -17.8366   26.3375 C   0  0  0  0  0  0  0  0  0  0  0  0
   10.2507  -17.7246   27.5351 O   0  0  0  0  0  0  0  0  0  0  0  0
    7.0723  -20.7650   27.4600 O   0  0  0  0  0  0  0  0  0  0  0  0
   10.8867  -18.0601   25.3920 O   0  0  0  0  0  0  0  0  0  0  0  0
  1  2  1  0
  2  3  2  0
  4  2  1  0
  4  5  1  0
  5  6  1  1
  5  7  1  0
  7  8  2  0
  9 10  1  0
 10 20  2  0
 10 11  1  0
 11 12  2  0
 12 13  1  0
 13 14  1  0
 15 14  1  1
 16  7  1  0
 16 15  1  0
 17 21  1  0
 17 15  1  0
 18 17  2  0
 19 13  2  0
 20 19  1  0
 22 26  1  0
 22 23  1  6
 22 21  1  0
 23 24  1  0
 24 28  1  0
 24 25  2  0
 26 29  1  0
 27 26  2  0
M  END
$$$$
