CWA.pdb
     RDKit          3D

 26 27  0  0  1  0  0  0  0  0999 V2000
   30.0332  -30.1417  -17.9066 N   0  0  0  0  0  0  0  0  0  0  0  0
   29.4707  -31.4199  -17.5648 C   0  0  1  0  0  0  0  0  0  0  0  0
   30.5024  -32.2721  -16.8500 C   0  0  0  0  0  0  0  0  0  0  0  0
   29.7700  -33.8878  -16.5246 S   0  0  0  0  0  0  0  0  0  0  0  0
   28.2394  -31.2772  -16.7379 C   0  0  0  0  0  0  0  0  0  0  0  0
   28.2977  -30.5209  -15.7360 O   0  0  0  0  0  0  0  0  0  0  0  0
   27.0407  -31.9556  -17.0478 N   0  0  0  0  0  0  0  0  0  0  0  0
   25.8381  -31.8844  -16.1769 C   0  0  1  0  0  0  0  0  0  0  0  0
   24.6971  -31.9030  -17.1204 C   0  0  0  0  0  0  0  0  0  0  0  0
   24.3174  -30.6773  -17.8017 C   0  0  0  0  0  0  0  0  0  0  0  0
   24.9306  -29.9993  -18.8401 C   0  0  0  0  0  0  0  0  0  0  0  0
   24.2003  -28.9073  -19.1038 N   0  0  0  0  0  0  0  0  0  0  0  0
   23.1424  -28.8313  -18.2971 C   0  0  0  0  0  0  0  0  0  0  0  0
   22.0836  -27.9256  -18.1743 C   0  0  0  0  0  0  0  0  0  0  0  0
   21.0773  -28.0953  -17.2464 C   0  0  0  0  0  0  0  0  0  0  0  0
   21.1348  -29.1916  -16.4280 C   0  0  0  0  0  0  0  0  0  0  0  0
   22.1763  -30.0790  -16.5505 C   0  0  0  0  0  0  0  0  0  0  0  0
   23.1965  -29.9189  -17.4821 C   0  0  0  0  0  0  0  0  0  0  0  0
   25.8963  -33.0109  -15.2580 C   0  0  0  0  0  0  0  0  0  0  0  0
   26.2619  -34.1432  -15.6598 O   0  0  0  0  0  0  0  0  0  0  0  0
   25.2382  -33.5671  -11.5344 C   0  0  0  0  0  0  0  0  0  0  0  0
   25.5896  -34.0348  -12.9565 C   0  0  2  0  0  0  0  0  0  0  0  0
   25.5636  -32.9283  -13.8660 N   0  0  0  0  0  0  0  0  0  0  0  0
   24.6631  -35.1240  -13.2605 C   0  0  0  0  0  0  0  0  0  0  0  0
   24.9797  -36.3936  -12.7450 O   0  0  0  0  0  0  0  0  0  0  0  0
   23.6372  -34.9588  -13.9411 O   0  0  0  0  0  0  0  0  0  0  0  0
  2  5  1  0
  2  1  1  1
  3  2  1  0
  4  3  1  0
  5  6  2  0
  7  8  1  0
  7  5  1  0
  8  9  1  6
 10  9  1  0
 11 10  2  0
 12 13  1  0
 12 11  1  0
 13 18  2  0
 14 13  1  0
 14 15  2  0
 15 16  1  0
 16 17  2  0
 18 10  1  0
 18 17  1  0
 19 20  2  0
 19  8  1  0
 22 21  1  1
 22 23  1  0
 23 19  1  0
 24 22  1  0
 24 25  1  0
 26 24  2  0
M  END
$$$$
