CWA.pdb
     RDKit          3D

 26 27  0  0  1  0  0  0  0  0999 V2000
   13.3242  -10.7127  -15.1615 N   0  0  0  0  0  0  0  0  0  0  0  0
   13.5271   -9.3312  -15.5038 C   0  0  1  0  0  0  0  0  0  0  0  0
   12.2242   -8.7107  -15.9720 C   0  0  0  0  0  0  0  0  0  0  0  0
   11.9218   -9.2482  -17.6669 S   0  0  0  0  0  0  0  0  0  0  0  0
   14.1003   -8.5594  -14.3654 C   0  0  0  0  0  0  0  0  0  0  0  0
   13.4342   -8.5148  -13.3008 O   0  0  0  0  0  0  0  0  0  0  0  0
   15.3427   -7.8948  -14.4552 N   0  0  0  0  0  0  0  0  0  0  0  0
   15.9039   -7.1017  -13.3302 C   0  0  1  0  0  0  0  0  0  0  0  0
   17.0955   -7.8664  -12.8972 C   0  0  0  0  0  0  0  0  0  0  0  0
   17.9463   -7.3256  -11.8510 C   0  0  0  0  0  0  0  0  0  0  0  0
   17.6918   -7.1073  -10.5088 C   0  0  0  0  0  0  0  0  0  0  0  0
   18.7935   -6.5729   -9.9648 N   0  0  0  0  0  0  0  0  0  0  0  0
   19.7564   -6.4290  -10.8746 C   0  0  0  0  0  0  0  0  0  0  0  0
   21.0705   -5.9525  -10.8241 C   0  0  0  0  0  0  0  0  0  0  0  0
   21.8863   -5.9321  -11.9361 C   0  0  0  0  0  0  0  0  0  0  0  0
   21.3748   -6.3969  -13.1181 C   0  0  0  0  0  0  0  0  0  0  0  0
   20.0836   -6.8636  -13.1648 C   0  0  0  0  0  0  0  0  0  0  0  0
   19.2515   -6.8894  -12.0507 C   0  0  0  0  0  0  0  0  0  0  0  0
   16.1791   -5.7643  -13.8326 C   0  0  0  0  0  0  0  0  0  0  0  0
   16.7542   -5.6041  -14.9375 O   0  0  0  0  0  0  0  0  0  0  0  0
   15.2941   -2.1895  -12.9094 C   0  0  0  0  0  0  0  0  0  0  0  0
   16.2130   -3.2426  -13.5507 C   0  0  2  0  0  0  0  0  0  0  0  0
   15.8236   -4.5593  -13.1421 N   0  0  0  0  0  0  0  0  0  0  0  0
   17.5772   -2.8505  -13.2008 C   0  0  0  0  0  0  0  0  0  0  0  0
   17.9910   -1.5640  -13.5901 O   0  0  0  0  0  0  0  0  0  0  0  0
   18.3529   -3.6028  -12.5882 O   0  0  0  0  0  0  0  0  0  0  0  0
  2  5  1  0
  2  1  1  1
  3  2  1  0
  4  3  1  0
  5  6  2  0
  7  8  1  0
  7  5  1  0
  8  9  1  6
 10  9  1  0
 11 10  2  0
 12 13  1  0
 12 11  1  0
 13 18  2  0
 14 13  1  0
 14 15  2  0
 15 16  1  0
 16 17  2  0
 18 10  1  0
 18 17  1  0
 19 20  2  0
 19  8  1  0
 22 21  1  1
 22 23  1  0
 23 19  1  0
 24 22  1  0
 24 25  1  0
 26 24  2  0
M  END
$$$$
