CWA.pdb
     RDKit          3D

 26 27  0  0  1  0  0  0  0  0999 V2000
   28.4191  -21.5091  -15.2916 N   0  0  0  0  0  0  0  0  0  0  0  0
   28.0753  -20.4459  -14.3869 C   0  0  1  0  0  0  0  0  0  0  0  0
   27.2856  -19.3739  -15.1142 C   0  0  0  0  0  0  0  0  0  0  0  0
   27.0246  -17.9982  -13.9774 S   0  0  0  0  0  0  0  0  0  0  0  0
   27.3184  -20.9495  -13.2063 C   0  0  0  0  0  0  0  0  0  0  0  0
   26.3752  -21.7515  -13.4208 O   0  0  0  0  0  0  0  0  0  0  0  0
   27.6303  -20.5550  -11.8871 N   0  0  0  0  0  0  0  0  0  0  0  0
   26.8640  -21.0404  -10.7093 C   0  0  1  0  0  0  0  0  0  0  0  0
   27.6540  -20.5868   -9.5421 C   0  0  0  0  0  0  0  0  0  0  0  0
   27.0917  -20.7170   -8.2087 C   0  0  0  0  0  0  0  0  0  0  0  0
   25.8848  -21.2483   -7.7903 C   0  0  0  0  0  0  0  0  0  0  0  0
   25.8213  -21.1206   -6.4580 N   0  0  0  0  0  0  0  0  0  0  0  0
   26.9188  -20.5360   -5.9791 C   0  0  0  0  0  0  0  0  0  0  0  0
   27.3507  -20.1974   -4.6926 C   0  0  0  0  0  0  0  0  0  0  0  0
   28.5744  -19.6040   -4.4623 C   0  0  0  0  0  0  0  0  0  0  0  0
   29.3775  -19.3458   -5.5408 C   0  0  0  0  0  0  0  0  0  0  0  0
   28.9504  -19.6790   -6.8032 C   0  0  0  0  0  0  0  0  0  0  0  0
   27.7191  -20.2776   -7.0481 C   0  0  0  0  0  0  0  0  0  0  0  0
   25.5232  -20.4830  -10.8001 C   0  0  0  0  0  0  0  0  0  0  0  0
   25.3522  -19.2848  -11.1353 O   0  0  0  0  0  0  0  0  0  0  0  0
   22.7879  -19.4043  -10.0188 C   0  0  0  0  0  0  0  0  0  0  0  0
   22.9986  -20.7361  -10.7580 C   0  0  2  0  0  0  0  0  0  0  0  0
   24.3262  -21.2258  -10.5346 N   0  0  0  0  0  0  0  0  0  0  0  0
   22.6466  -20.4798  -12.1536 C   0  0  0  0  0  0  0  0  0  0  0  0
   21.9557  -21.4979  -12.8347 O   0  0  0  0  0  0  0  0  0  0  0  0
   22.9347  -19.4189  -12.7318 O   0  0  0  0  0  0  0  0  0  0  0  0
  2  5  1  0
  2  1  1  6
  3  2  1  0
  4  3  1  0
  5  6  2  0
  7  8  1  0
  7  5  1  0
  8  9  1  1
 10  9  1  0
 11 10  2  0
 12 13  1  0
 12 11  1  0
 13 18  2  0
 14 13  1  0
 14 15  2  0
 15 16  1  0
 16 17  2  0
 18 10  1  0
 18 17  1  0
 19 20  2  0
 19  8  1  0
 22 21  1  1
 22 23  1  0
 23 19  1  0
 24 22  1  0
 24 25  1  0
 26 24  2  0
M  END
$$$$
