CWA.pdb
     RDKit          3D

 26 27  0  0  1  0  0  0  0  0999 V2000
   24.3509  -18.9626  -16.3068 N   0  0  0  0  0  0  0  0  0  0  0  0
   23.5753  -20.1497  -16.0699 C   0  0  1  0  0  0  0  0  0  0  0  0
   24.4768  -21.3697  -16.0525 C   0  0  0  0  0  0  0  0  0  0  0  0
   25.6753  -21.1652  -14.7203 S   0  0  0  0  0  0  0  0  0  0  0  0
   22.7925  -20.0537  -14.8056 C   0  0  0  0  0  0  0  0  0  0  0  0
   23.1324  -19.1712  -13.9783 O   0  0  0  0  0  0  0  0  0  0  0  0
   21.7061  -20.9106  -14.5251 N   0  0  0  0  0  0  0  0  0  0  0  0
   20.7714  -20.6667  -13.3952 C   0  0  1  0  0  0  0  0  0  0  0  0
   19.7957  -19.6884  -13.9273 C   0  0  0  0  0  0  0  0  0  0  0  0
   19.8403  -18.3134  -13.4603 C   0  0  0  0  0  0  0  0  0  0  0  0
   19.9039  -17.8020  -12.1764 C   0  0  0  0  0  0  0  0  0  0  0  0
   19.9054  -16.4652  -12.2678 N   0  0  0  0  0  0  0  0  0  0  0  0
   19.8470  -16.0712  -13.5395 C   0  0  0  0  0  0  0  0  0  0  0  0
   19.8427  -14.8199  -14.1644 C   0  0  0  0  0  0  0  0  0  0  0  0
   19.7985  -14.6856  -15.5365 C   0  0  0  0  0  0  0  0  0  0  0  0
   19.7575  -15.8257  -16.2936 C   0  0  0  0  0  0  0  0  0  0  0  0
   19.7613  -17.0533  -15.6770 C   0  0  0  0  0  0  0  0  0  0  0  0
   19.8058  -17.2016  -14.2948 C   0  0  0  0  0  0  0  0  0  0  0  0
   20.2079  -21.9512  -13.0088 C   0  0  0  0  0  0  0  0  0  0  0  0
   20.0803  -22.8715  -13.8537 O   0  0  0  0  0  0  0  0  0  0  0  0
   18.9101  -23.5317   -9.7798 C   0  0  0  0  0  0  0  0  0  0  0  0
   19.2044  -23.5244  -11.2891 C   0  0  2  0  0  0  0  0  0  0  0  0
   19.7746  -22.2697  -11.6799 N   0  0  0  0  0  0  0  0  0  0  0  0
   17.9463  -23.8777  -11.9444 C   0  0  0  0  0  0  0  0  0  0  0  0
   17.5641  -25.2306  -11.9047 O   0  0  0  0  0  0  0  0  0  0  0  0
   17.2315  -23.0382  -12.5164 O   0  0  0  0  0  0  0  0  0  0  0  0
  2  5  1  0
  2  1  1  1
  3  2  1  0
  4  3  1  0
  5  6  2  0
  7  8  1  0
  7  5  1  0
  8  9  1  6
 10  9  1  0
 11 10  2  0
 12 13  1  0
 12 11  1  0
 13 18  2  0
 14 13  1  0
 14 15  2  0
 15 16  1  0
 16 17  2  0
 18 10  1  0
 18 17  1  0
 19 20  2  0
 19  8  1  0
 22 21  1  1
 22 23  1  0
 23 19  1  0
 24 22  1  0
 24 25  1  0
 26 24  2  0
M  END
$$$$
