CWA.pdb
     RDKit          3D

 26 27  0  0  1  0  0  0  0  0999 V2000
   28.8776  -21.8958  -15.0600 N   0  0  0  0  0  0  0  0  0  0  0  0
   28.2240  -20.7602  -14.4684 C   0  0  1  0  0  0  0  0  0  0  0  0
   27.6201  -19.8820  -15.5482 C   0  0  0  0  0  0  0  0  0  0  0  0
   26.9280  -18.4152  -14.7591 S   0  0  0  0  0  0  0  0  0  0  0  0
   27.1862  -21.1732  -13.4822 C   0  0  0  0  0  0  0  0  0  0  0  0
   26.5251  -22.2112  -13.7359 O   0  0  0  0  0  0  0  0  0  0  0  0
   26.9365  -20.4422  -12.3004 N   0  0  0  0  0  0  0  0  0  0  0  0
   25.9127  -20.8609  -11.3072 C   0  0  1  0  0  0  0  0  0  0  0  0
   26.3390  -20.2177  -10.0436 C   0  0  0  0  0  0  0  0  0  0  0  0
   27.5455  -20.6822   -9.3807 C   0  0  0  0  0  0  0  0  0  0  0  0
   28.5549  -21.5142   -9.8312 C   0  0  0  0  0  0  0  0  0  0  0  0
   29.4424  -21.6562   -8.8375 N   0  0  0  0  0  0  0  0  0  0  0  0
   29.0722  -20.9637   -7.7609 C   0  0  0  0  0  0  0  0  0  0  0  0
   29.6396  -20.7633   -6.4982 C   0  0  0  0  0  0  0  0  0  0  0  0
   29.0476  -19.9582   -5.5476 C   0  0  0  0  0  0  0  0  0  0  0  0
   27.8666  -19.3444   -5.8692 C   0  0  0  0  0  0  0  0  0  0  0  0
   27.3114  -19.5436   -7.1099 C   0  0  0  0  0  0  0  0  0  0  0  0
   27.8987  -20.3528   -8.0767 C   0  0  0  0  0  0  0  0  0  0  0  0
   24.6159  -20.4334  -11.8093 C   0  0  0  0  0  0  0  0  0  0  0  0
   24.5112  -19.3865  -12.4950 O   0  0  0  0  0  0  0  0  0  0  0  0
   22.0145  -21.3319  -13.5863 C   0  0  0  0  0  0  0  0  0  0  0  0
   22.1270  -20.7918  -12.1509 C   0  0  2  0  0  0  0  0  0  0  0  0
   23.3932  -21.1467  -11.5825 N   0  0  0  0  0  0  0  0  0  0  0  0
   20.9526  -21.2948  -11.4403 C   0  0  0  0  0  0  0  0  0  0  0  0
   19.6956  -20.8607  -11.8978 O   0  0  0  0  0  0  0  0  0  0  0  0
   21.0373  -22.0706  -10.4739 O   0  0  0  0  0  0  0  0  0  0  0  0
  2  5  1  0
  2  1  1  6
  3  2  1  0
  4  3  1  0
  5  6  2  0
  7  8  1  0
  7  5  1  0
  8  9  1  1
 10  9  1  0
 11 10  2  0
 12 13  1  0
 12 11  1  0
 13 18  2  0
 14 13  1  0
 14 15  2  0
 15 16  1  0
 16 17  2  0
 18 10  1  0
 18 17  1  0
 19 20  2  0
 19  8  1  0
 22 21  1  6
 22 23  1  0
 23 19  1  0
 24 22  1  0
 24 25  1  0
 26 24  2  0
M  END
$$$$
