CWA.pdb
     RDKit          3D

 26 27  0  0  1  0  0  0  0  0999 V2000
   28.9388  -24.3559  -16.6565 N   0  0  0  0  0  0  0  0  0  0  0  0
   28.1929  -23.3569  -17.3725 C   0  0  1  0  0  0  0  0  0  0  0  0
   27.0593  -24.0037  -18.1459 C   0  0  0  0  0  0  0  0  0  0  0  0
   27.6746  -24.4452  -19.7829 S   0  0  0  0  0  0  0  0  0  0  0  0
   27.6739  -22.2979  -16.4618 C   0  0  0  0  0  0  0  0  0  0  0  0
   27.5183  -22.5985  -15.2517 O   0  0  0  0  0  0  0  0  0  0  0  0
   27.3615  -20.9988  -16.9176 N   0  0  0  0  0  0  0  0  0  0  0  0
   26.8672  -19.9333  -16.0064 C   0  0  1  0  0  0  0  0  0  0  0  0
   27.4644  -18.6868  -16.5372 C   0  0  0  0  0  0  0  0  0  0  0  0
   27.0519  -17.4085  -15.9834 C   0  0  0  0  0  0  0  0  0  0  0  0
   26.6720  -17.0666  -14.6978 C   0  0  0  0  0  0  0  0  0  0  0  0
   26.3648  -15.7624  -14.6949 N   0  0  0  0  0  0  0  0  0  0  0  0
   26.5224  -15.2297  -15.9061 C   0  0  0  0  0  0  0  0  0  0  0  0
   26.3608  -13.9402  -16.4233 C   0  0  0  0  0  0  0  0  0  0  0  0
   26.6205  -13.6423  -17.7448 C   0  0  0  0  0  0  0  0  0  0  0  0
   27.0489  -14.6551  -18.5606 C   0  0  0  0  0  0  0  0  0  0  0  0
   27.2061  -15.9206  -18.0498 C   0  0  0  0  0  0  0  0  0  0  0  0
   26.9477  -16.2333  -16.7195 C   0  0  0  0  0  0  0  0  0  0  0  0
   25.4132  -19.9783  -16.0292 C   0  0  0  0  0  0  0  0  0  0  0  0
   24.7994  -20.2164  -17.0987 O   0  0  0  0  0  0  0  0  0  0  0  0
   22.5959  -19.6228  -13.4740 C   0  0  0  0  0  0  0  0  0  0  0  0
   23.1559  -19.6980  -14.9043 C   0  0  2  0  0  0  0  0  0  0  0  0
   24.5862  -19.7724  -14.8764 N   0  0  0  0  0  0  0  0  0  0  0  0
   22.5971  -18.5487  -15.6143 C   0  0  0  0  0  0  0  0  0  0  0  0
   21.2061  -18.5413  -15.8213 O   0  0  0  0  0  0  0  0  0  0  0  0
   23.2997  -17.6104  -16.0252 O   0  0  0  0  0  0  0  0  0  0  0  0
  2  5  1  0
  2  1  1  1
  3  2  1  0
  4  3  1  0
  5  6  2  0
  7  8  1  0
  7  5  1  0
  8  9  1  6
 10  9  1  0
 11 10  2  0
 12 13  1  0
 12 11  1  0
 13 18  2  0
 14 13  1  0
 14 15  2  0
 15 16  1  0
 16 17  2  0
 18 10  1  0
 18 17  1  0
 19 20  2  0
 19  8  1  0
 22 21  1  1
 22 23  1  0
 23 19  1  0
 24 22  1  0
 24 25  1  0
 26 24  2  0
M  END
$$$$
