CWA.pdb
     RDKit          3D

 26 27  0  0  1  0  0  0  0  0999 V2000
   27.8699  -22.2924  -19.9704 N   0  0  0  0  0  0  0  0  0  0  0  0
   26.5514  -21.7206  -20.0112 C   0  0  1  0  0  0  0  0  0  0  0  0
   25.5167  -22.8058  -20.2422 C   0  0  0  0  0  0  0  0  0  0  0  0
   25.6375  -23.3422  -21.9600 S   0  0  0  0  0  0  0  0  0  0  0  0
   26.2443  -20.9538  -18.7711 C   0  0  0  0  0  0  0  0  0  0  0  0
   26.3385  -21.5611  -17.6751 O   0  0  0  0  0  0  0  0  0  0  0  0
   25.8598  -19.5956  -18.8007 N   0  0  0  0  0  0  0  0  0  0  0  0
   25.6548  -18.7996  -17.5622 C   0  0  1  0  0  0  0  0  0  0  0  0
   26.2355  -17.4739  -17.8746 C   0  0  0  0  0  0  0  0  0  0  0  0
   26.1023  -16.3941  -16.9117 C   0  0  0  0  0  0  0  0  0  0  0  0
   26.3732  -16.3610  -15.5554 C   0  0  0  0  0  0  0  0  0  0  0  0
   26.0686  -15.1357  -15.1069 N   0  0  0  0  0  0  0  0  0  0  0  0
   25.6137  -14.3632  -16.0929 C   0  0  0  0  0  0  0  0  0  0  0  0
   25.1890  -13.0323  -16.1605 C   0  0  0  0  0  0  0  0  0  0  0  0
   24.7776  -12.4531  -17.3428 C   0  0  0  0  0  0  0  0  0  0  0  0
   24.7923  -13.2222  -18.4755 C   0  0  0  0  0  0  0  0  0  0  0  0
   25.2094  -14.5292  -18.4058 C   0  0  0  0  0  0  0  0  0  0  0  0
   25.6266  -15.1244  -17.2200 C   0  0  0  0  0  0  0  0  0  0  0  0
   24.2283  -18.7954  -17.2761 C   0  0  0  0  0  0  0  0  0  0  0  0
   23.3921  -18.6753  -18.2054 O   0  0  0  0  0  0  0  0  0  0  0  0
   22.0623  -18.2652  -14.2556 C   0  0  0  0  0  0  0  0  0  0  0  0
   22.2755  -18.8616  -15.6569 C   0  0  2  0  0  0  0  0  0  0  0  0
   23.6736  -18.9322  -15.9613 N   0  0  0  0  0  0  0  0  0  0  0  0
   21.4718  -18.0462  -16.5660 C   0  0  0  0  0  0  0  0  0  0  0  0
   21.5949  -16.6501  -16.4487 O   0  0  0  0  0  0  0  0  0  0  0  0
   20.7082  -18.5420  -17.4109 O   0  0  0  0  0  0  0  0  0  0  0  0
  2  5  1  0
  2  1  1  1
  3  2  1  0
  4  3  1  0
  5  6  2  0
  7  8  1  0
  7  5  1  0
  8  9  1  6
 10  9  1  0
 11 10  2  0
 12 13  1  0
 12 11  1  0
 13 18  2  0
 14 13  1  0
 14 15  2  0
 15 16  1  0
 16 17  2  0
 18 10  1  0
 18 17  1  0
 19 20  2  0
 19  8  1  0
 22 21  1  1
 22 23  1  0
 23 19  1  0
 24 22  1  0
 24 25  1  0
 26 24  2  0
M  END
$$$$
