CWA.pdb
     RDKit          3D

 26 27  0  0  1  0  0  0  0  0999 V2000
   26.1817  -20.1983   -7.5002 N   0  0  0  0  0  0  0  0  0  0  0  0
   25.3964  -20.8757   -8.4959 C   0  0  1  0  0  0  0  0  0  0  0  0
   23.9741  -21.0638   -8.0027 C   0  0  0  0  0  0  0  0  0  0  0  0
   24.0160  -22.1524   -6.5653 S   0  0  0  0  0  0  0  0  0  0  0  0
   25.4123  -20.1510   -9.7977 C   0  0  0  0  0  0  0  0  0  0  0  0
   25.1113  -18.9310   -9.7863 O   0  0  0  0  0  0  0  0  0  0  0  0
   25.7492  -20.7889  -11.0113 N   0  0  0  0  0  0  0  0  0  0  0  0
   25.7644  -20.0684  -12.3114 C   0  0  1  0  0  0  0  0  0  0  0  0
   27.0344  -20.4837  -12.9492 C   0  0  0  0  0  0  0  0  0  0  0  0
   27.3644  -19.9800  -14.2715 C   0  0  0  0  0  0  0  0  0  0  0  0
   27.4975  -18.6820  -14.7312 C   0  0  0  0  0  0  0  0  0  0  0  0
   27.7949  -18.7386  -16.0365 N   0  0  0  0  0  0  0  0  0  0  0  0
   27.8649  -20.0006  -16.4584 C   0  0  0  0  0  0  0  0  0  0  0  0
   28.1547  -20.5927  -17.6920 C   0  0  0  0  0  0  0  0  0  0  0  0
   28.1848  -21.9615  -17.8594 C   0  0  0  0  0  0  0  0  0  0  0  0
   27.9191  -22.7488  -16.7711 C   0  0  0  0  0  0  0  0  0  0  0  0
   27.6342  -22.1644  -15.5610 C   0  0  0  0  0  0  0  0  0  0  0  0
   27.6010  -20.7859  -15.3797 C   0  0  0  0  0  0  0  0  0  0  0  0
   24.5596  -20.4457  -13.0345 C   0  0  0  0  0  0  0  0  0  0  0  0
   24.1363  -21.6274  -12.9955 O   0  0  0  0  0  0  0  0  0  0  0  0
   22.0071  -18.6667  -15.2550 C   0  0  0  0  0  0  0  0  0  0  0  0
   22.6182  -19.9039  -14.5763 C   0  0  2  0  0  0  0  0  0  0  0  0
   23.7754  -19.5353  -13.8165 N   0  0  0  0  0  0  0  0  0  0  0  0
   22.8475  -20.8749  -15.6449 C   0  0  0  0  0  0  0  0  0  0  0  0
   24.1825  -21.1048  -16.0225 O   0  0  0  0  0  0  0  0  0  0  0  0
   21.9207  -21.4807  -16.2080 O   0  0  0  0  0  0  0  0  0  0  0  0
  2  5  1  0
  2  1  1  1
  3  2  1  0
  4  3  1  0
  5  6  2  0
  7  8  1  0
  7  5  1  0
  8  9  1  6
 10  9  1  0
 11 10  2  0
 12 13  1  0
 12 11  1  0
 13 18  2  0
 14 13  1  0
 14 15  2  0
 15 16  1  0
 16 17  2  0
 18 10  1  0
 18 17  1  0
 19 20  2  0
 19  8  1  0
 22 21  1  6
 22 23  1  0
 23 19  1  0
 24 22  1  0
 24 25  1  0
 26 24  2  0
M  END
$$$$
