CWA.pdb
     RDKit          3D

 26 27  0  0  1  0  0  0  0  0999 V2000
   30.7524  -21.3687  -10.8375 N   0  0  0  0  0  0  0  0  0  0  0  0
   29.6263  -20.5830  -11.2635 C   0  0  1  0  0  0  0  0  0  0  0  0
   29.5203  -20.5968  -12.7768 C   0  0  0  0  0  0  0  0  0  0  0  0
   28.1301  -19.5511  -13.2533 S   0  0  0  0  0  0  0  0  0  0  0  0
   28.3574  -21.0552  -10.6411 C   0  0  0  0  0  0  0  0  0  0  0  0
   28.2037  -22.2949  -10.5058 O   0  0  0  0  0  0  0  0  0  0  0  0
   27.3510  -20.1628  -10.2119 N   0  0  0  0  0  0  0  0  0  0  0  0
   26.0568  -20.6331   -9.6518 C   0  0  1  0  0  0  0  0  0  0  0  0
   25.7877  -19.7145   -8.5221 C   0  0  0  0  0  0  0  0  0  0  0  0
   26.8629  -19.3837   -7.6026 C   0  0  0  0  0  0  0  0  0  0  0  0
   27.7250  -18.3020   -7.5799 C   0  0  0  0  0  0  0  0  0  0  0  0
   28.5546  -18.4615   -6.5399 N   0  0  0  0  0  0  0  0  0  0  0  0
   28.2847  -19.5867   -5.8790 C   0  0  0  0  0  0  0  0  0  0  0  0
   28.8262  -20.1926   -4.7406 C   0  0  0  0  0  0  0  0  0  0  0  0
   28.3338  -21.3784   -4.2365 C   0  0  0  0  0  0  0  0  0  0  0  0
   27.2812  -21.9658   -4.8858 C   0  0  0  0  0  0  0  0  0  0  0  0
   26.7518  -21.3686   -6.0040 C   0  0  0  0  0  0  0  0  0  0  0  0
   27.2393  -20.1733   -6.5217 C   0  0  0  0  0  0  0  0  0  0  0  0
   25.0756  -20.5936  -10.7252 C   0  0  0  0  0  0  0  0  0  0  0  0
   25.0501  -19.6302  -11.5306 O   0  0  0  0  0  0  0  0  0  0  0  0
   22.4948  -22.9494  -12.2216 C   0  0  0  0  0  0  0  0  0  0  0  0
   23.0705  -21.5491  -11.9524 C   0  0  2  0  0  0  0  0  0  0  0  0
   24.0964  -21.6152  -10.9547 N   0  0  0  0  0  0  0  0  0  0  0  0
   21.9254  -20.7012  -11.6253 C   0  0  0  0  0  0  0  0  0  0  0  0
   21.9438  -20.0588  -10.3744 O   0  0  0  0  0  0  0  0  0  0  0  0
   20.9687  -20.5411  -12.4013 O   0  0  0  0  0  0  0  0  0  0  0  0
  2  5  1  0
  2  1  1  6
  3  2  1  0
  4  3  1  0
  5  6  2  0
  7  8  1  0
  7  5  1  0
  8  9  1  1
 10  9  1  0
 11 10  2  0
 12 13  1  0
 12 11  1  0
 13 18  2  0
 14 13  1  0
 14 15  2  0
 15 16  1  0
 16 17  2  0
 18 10  1  0
 18 17  1  0
 19 20  2  0
 19  8  1  0
 22 21  1  1
 22 23  1  0
 23 19  1  0
 24 22  1  0
 24 25  1  0
 26 24  2  0
M  END
$$$$
