CWA.pdb
     RDKit          3D

 26 27  0  0  1  0  0  0  0  0999 V2000
   33.6583  -30.9219  -17.3213 N   0  0  0  0  0  0  0  0  0  0  0  0
   32.4972  -31.6689  -17.7223 C   0  0  1  0  0  0  0  0  0  0  0  0
   32.7750  -33.1576  -17.6316 C   0  0  0  0  0  0  0  0  0  0  0  0
   33.9560  -33.5895  -18.9245 S   0  0  0  0  0  0  0  0  0  0  0  0
   31.3005  -31.3050  -16.9124 C   0  0  0  0  0  0  0  0  0  0  0  0
   31.4796  -31.0491  -15.6952 O   0  0  0  0  0  0  0  0  0  0  0  0
   30.0044  -31.2433  -17.4687 N   0  0  0  0  0  0  0  0  0  0  0  0
   28.8130  -30.8548  -16.6691 C   0  0  1  0  0  0  0  0  0  0  0  0
   28.1367  -29.8250  -17.4903 C   0  0  0  0  0  0  0  0  0  0  0  0
   28.4990  -28.4284  -17.3199 C   0  0  0  0  0  0  0  0  0  0  0  0
   29.7365  -27.8106  -17.3523 C   0  0  0  0  0  0  0  0  0  0  0  0
   29.5480  -26.5043  -17.1211 N   0  0  0  0  0  0  0  0  0  0  0  0
   28.2565  -26.2306  -16.9395 C   0  0  0  0  0  0  0  0  0  0  0  0
   27.5435  -25.0528  -16.6933 C   0  0  0  0  0  0  0  0  0  0  0  0
   26.1701  -25.0402  -16.5657 C   0  0  0  0  0  0  0  0  0  0  0  0
   25.5016  -26.2290  -16.6866 C   0  0  0  0  0  0  0  0  0  0  0  0
   26.2048  -27.3842  -16.9278 C   0  0  0  0  0  0  0  0  0  0  0  0
   27.5892  -27.4098  -17.0585 C   0  0  0  0  0  0  0  0  0  0  0  0
   28.0350  -32.0606  -16.4295 C   0  0  0  0  0  0  0  0  0  0  0  0
   27.7552  -32.8374  -17.3758 O   0  0  0  0  0  0  0  0  0  0  0  0
   26.2253  -33.6314  -13.4604 C   0  0  0  0  0  0  0  0  0  0  0  0
   26.7963  -33.6509  -14.8881 C   0  0  2  0  0  0  0  0  0  0  0  0
   27.5468  -32.4572  -15.1413 N   0  0  0  0  0  0  0  0  0  0  0  0
   25.6551  -33.8789  -15.7729 C   0  0  0  0  0  0  0  0  0  0  0  0
   25.4263  -35.2020  -16.1910 O   0  0  0  0  0  0  0  0  0  0  0  0
   24.9085  -32.9611  -16.1512 O   0  0  0  0  0  0  0  0  0  0  0  0
  2  5  1  0
  2  1  1  1
  3  2  1  0
  4  3  1  0
  5  6  2  0
  7  8  1  0
  7  5  1  0
  8  9  1  6
 10  9  1  0
 11 10  2  0
 12 13  1  0
 12 11  1  0
 13 18  2  0
 14 13  1  0
 14 15  2  0
 15 16  1  0
 16 17  2  0
 18 10  1  0
 18 17  1  0
 19 20  2  0
 19  8  1  0
 22 21  1  1
 22 23  1  0
 23 19  1  0
 24 22  1  0
 24 25  1  0
 26 24  2  0
M  END
$$$$
