CWA.pdb
     RDKit          3D

 26 27  0  0  1  0  0  0  0  0999 V2000
   28.5697  -20.9568  -15.2834 N   0  0  0  0  0  0  0  0  0  0  0  0
   28.1717  -19.9649  -14.3218 C   0  0  1  0  0  0  0  0  0  0  0  0
   27.3737  -18.8676  -15.0006 C   0  0  0  0  0  0  0  0  0  0  0  0
   28.0606  -18.6089  -16.6481 S   0  0  0  0  0  0  0  0  0  0  0  0
   27.3962  -20.5646  -13.1997 C   0  0  0  0  0  0  0  0  0  0  0  0
   26.6728  -21.5584  -13.4603 O   0  0  0  0  0  0  0  0  0  0  0  0
   27.4554  -20.0534  -11.8850 N   0  0  0  0  0  0  0  0  0  0  0  0
   26.6746  -20.6434  -10.7660 C   0  0  1  0  0  0  0  0  0  0  0  0
   27.2720  -20.0528   -9.5468 C   0  0  0  0  0  0  0  0  0  0  0  0
   26.7350  -20.4125   -8.2456 C   0  0  0  0  0  0  0  0  0  0  0  0
   25.5617  -21.0621   -7.9059 C   0  0  0  0  0  0  0  0  0  0  0  0
   25.5099  -21.1415   -6.5694 N   0  0  0  0  0  0  0  0  0  0  0  0
   26.5835  -20.5810   -6.0135 C   0  0  0  0  0  0  0  0  0  0  0  0
   27.0153  -20.4201   -4.6929 C   0  0  0  0  0  0  0  0  0  0  0  0
   28.2111  -19.8068   -4.3821 C   0  0  0  0  0  0  0  0  0  0  0  0
   28.9858  -19.3472   -5.4133 C   0  0  0  0  0  0  0  0  0  0  0  0
   28.5587  -19.5062   -6.7092 C   0  0  0  0  0  0  0  0  0  0  0  0
   27.3554  -20.1228   -7.0353 C   0  0  0  0  0  0  0  0  0  0  0  0
   25.2750  -20.3141  -10.9880 C   0  0  0  0  0  0  0  0  0  0  0  0
   24.8990  -19.1162  -11.0187 O   0  0  0  0  0  0  0  0  0  0  0  0
   22.3088  -22.0922  -12.4416 C   0  0  0  0  0  0  0  0  0  0  0  0
   22.8927  -20.9808  -11.5536 C   0  0  2  0  0  0  0  0  0  0  0  0
   24.2443  -21.2893  -11.1927 N   0  0  0  0  0  0  0  0  0  0  0  0
   21.9604  -20.8279  -10.4380 C   0  0  0  0  0  0  0  0  0  0  0  0
   20.6541  -20.4111  -10.7507 O   0  0  0  0  0  0  0  0  0  0  0  0
   22.2852  -21.0501   -9.2599 O   0  0  0  0  0  0  0  0  0  0  0  0
  2  5  1  0
  2  1  1  6
  3  2  1  0
  4  3  1  0
  5  6  2  0
  7  8  1  0
  7  5  1  0
  8  9  1  1
 10  9  1  0
 11 10  2  0
 12 13  1  0
 12 11  1  0
 13 18  2  0
 14 13  1  0
 14 15  2  0
 15 16  1  0
 16 17  2  0
 18 10  1  0
 18 17  1  0
 19 20  2  0
 19  8  1  0
 22 21  1  6
 22 23  1  0
 23 19  1  0
 24 22  1  0
 24 25  1  0
 26 24  2  0
M  END
$$$$
