CWA.pdb
     RDKit          3D

 26 27  0  0  1  0  0  0  0  0999 V2000
   29.2133  -23.0688  -16.6413 N   0  0  0  0  0  0  0  0  0  0  0  0
   28.2630  -21.9949  -16.5378 C   0  0  1  0  0  0  0  0  0  0  0  0
   27.3780  -21.9579  -17.7695 C   0  0  0  0  0  0  0  0  0  0  0  0
   26.2657  -20.5458  -17.6212 S   0  0  0  0  0  0  0  0  0  0  0  0
   27.4406  -22.1036  -15.3000 C   0  0  0  0  0  0  0  0  0  0  0  0
   26.9539  -23.2286  -15.0238 O   0  0  0  0  0  0  0  0  0  0  0  0
   27.2030  -20.9988  -14.4538 N   0  0  0  0  0  0  0  0  0  0  0  0
   26.4169  -21.1135  -13.1974 C   0  0  1  0  0  0  0  0  0  0  0  0
   27.0252  -20.1154  -12.2884 C   0  0  0  0  0  0  0  0  0  0  0  0
   27.9834  -20.5548  -11.2886 C   0  0  0  0  0  0  0  0  0  0  0  0
   29.2629  -21.0611  -11.4315 C   0  0  0  0  0  0  0  0  0  0  0  0
   29.7331  -21.3367  -10.2074 N   0  0  0  0  0  0  0  0  0  0  0  0
   28.8342  -21.0391   -9.2699 C   0  0  0  0  0  0  0  0  0  0  0  0
   28.8329  -21.1151   -7.8732 C   0  0  0  0  0  0  0  0  0  0  0  0
   27.7523  -20.7097   -7.1179 C   0  0  0  0  0  0  0  0  0  0  0  0
   26.6551  -20.2206   -7.7748 C   0  0  0  0  0  0  0  0  0  0  0  0
   26.6591  -20.1477   -9.1466 C   0  0  0  0  0  0  0  0  0  0  0  0
   27.7423  -20.5532   -9.9191 C   0  0  0  0  0  0  0  0  0  0  0  0
   25.0214  -20.8730  -13.5312 C   0  0  0  0  0  0  0  0  0  0  0  0
   24.6955  -19.8865  -14.2368 O   0  0  0  0  0  0  0  0  0  0  0  0
   21.7252  -22.7312  -13.2165 C   0  0  0  0  0  0  0  0  0  0  0  0
   22.5549  -21.4444  -13.3598 C   0  0  2  0  0  0  0  0  0  0  0  0
   23.9394  -21.7132  -13.1086 N   0  0  0  0  0  0  0  0  0  0  0  0
   21.9308  -20.4643  -12.4725 C   0  0  0  0  0  0  0  0  0  0  0  0
   20.6356  -20.0322  -12.8094 O   0  0  0  0  0  0  0  0  0  0  0  0
   22.4998  -20.0196  -11.4619 O   0  0  0  0  0  0  0  0  0  0  0  0
  2  5  1  0
  2  1  1  6
  3  2  1  0
  4  3  1  0
  5  6  2  0
  7  8  1  0
  7  5  1  0
  8  9  1  1
 10  9  1  0
 11 10  2  0
 12 13  1  0
 12 11  1  0
 13 18  2  0
 14 13  1  0
 14 15  2  0
 15 16  1  0
 16 17  2  0
 18 10  1  0
 18 17  1  0
 19 20  2  0
 19  8  1  0
 22 21  1  1
 22 23  1  0
 23 19  1  0
 24 22  1  0
 24 25  1  0
 26 24  2  0
M  END
$$$$
