CWA.pdb
     RDKit          3D

 26 27  0  0  1  0  0  0  0  0999 V2000
   28.7883  -19.3804  -15.8421 N   0  0  0  0  0  0  0  0  0  0  0  0
   28.4668  -19.3456  -14.4412 C   0  0  1  0  0  0  0  0  0  0  0  0
   28.0967  -17.9349  -14.0235 C   0  0  0  0  0  0  0  0  0  0  0  0
   26.6105  -17.4527  -14.9244 S   0  0  0  0  0  0  0  0  0  0  0  0
   27.3742  -20.3004  -14.1023 C   0  0  0  0  0  0  0  0  0  0  0  0
   26.7749  -20.8584  -15.0554 O   0  0  0  0  0  0  0  0  0  0  0  0
   27.0077  -20.5835  -12.7686 N   0  0  0  0  0  0  0  0  0  0  0  0
   25.9703  -21.5914  -12.4254 C   0  0  1  0  0  0  0  0  0  0  0  0
   26.3212  -22.0311  -11.0558 C   0  0  0  0  0  0  0  0  0  0  0  0
   26.2664  -21.0727   -9.9652 C   0  0  0  0  0  0  0  0  0  0  0  0
   25.2928  -20.1494   -9.6282 C   0  0  0  0  0  0  0  0  0  0  0  0
   25.7169  -19.4841   -8.5452 N   0  0  0  0  0  0  0  0  0  0  0  0
   26.9135  -19.9195   -8.1527 C   0  0  0  0  0  0  0  0  0  0  0  0
   27.7655  -19.5831   -7.0956 C   0  0  0  0  0  0  0  0  0  0  0  0
   28.9719  -20.2209   -6.8948 C   0  0  0  0  0  0  0  0  0  0  0  0
   29.3294  -21.2120   -7.7693 C   0  0  0  0  0  0  0  0  0  0  0  0
   28.4908  -21.5397   -8.8069 C   0  0  0  0  0  0  0  0  0  0  0  0
   27.2721  -20.9042   -9.0197 C   0  0  0  0  0  0  0  0  0  0  0  0
   24.6733  -20.9444  -12.5516 C   0  0  0  0  0  0  0  0  0  0  0  0
   24.5185  -19.7510  -12.1922 O   0  0  0  0  0  0  0  0  0  0  0  0
   21.4613  -21.5587  -14.4141 C   0  0  0  0  0  0  0  0  0  0  0  0
   22.2265  -20.9560  -13.2243 C   0  0  2  0  0  0  0  0  0  0  0  0
   23.5065  -21.5841  -13.0849 N   0  0  0  0  0  0  0  0  0  0  0  0
   21.3351  -21.0768  -12.0719 C   0  0  0  0  0  0  0  0  0  0  0  0
   21.6655  -22.0465  -11.1085 O   0  0  0  0  0  0  0  0  0  0  0  0
   20.3263  -20.3662  -11.9296 O   0  0  0  0  0  0  0  0  0  0  0  0
  2  5  1  0
  2  1  1  6
  3  2  1  0
  4  3  1  0
  5  6  2  0
  7  8  1  0
  7  5  1  0
  8  9  1  1
 10  9  1  0
 11 10  2  0
 12 13  1  0
 12 11  1  0
 13 18  2  0
 14 13  1  0
 14 15  2  0
 15 16  1  0
 16 17  2  0
 18 10  1  0
 18 17  1  0
 19 20  2  0
 19  8  1  0
 22 21  1  6
 22 23  1  0
 23 19  1  0
 24 22  1  0
 24 25  1  0
 26 24  2  0
M  END
$$$$
