KDI.pdb
     RDKit          3D

 26 25  0  0  1  0  0  0  0  0999 V2000
    9.5177  -14.4964   18.9142 N   0  0  0  0  0  0  0  0  0  0  0  0
    8.4209  -13.9839   19.6871 C   0  0  1  0  0  0  0  0  0  0  0  0
    7.1301  -13.8306   18.9896 C   0  0  0  0  0  0  0  0  0  0  0  0
    7.2618  -13.2319   17.6340 C   0  0  0  0  0  0  0  0  0  0  0  0
    7.7633  -14.1913   16.5994 C   0  0  0  0  0  0  0  0  0  0  0  0
    7.8517  -13.4880   15.2698 C   0  0  0  0  0  0  0  0  0  0  0  0
    8.2807  -14.4513   14.2789 N   0  0  0  0  0  0  0  0  0  0  0  0
    8.3098  -14.8349   20.9186 C   0  0  0  0  0  0  0  0  0  0  0  0
    7.3477  -14.7168   21.7190 O   0  0  0  0  0  0  0  0  0  0  0  0
    9.3021  -15.8251   21.2377 N   0  0  0  0  0  0  0  0  0  0  0  0
    9.2317  -16.5391   22.4783 C   0  0  1  0  0  0  0  0  0  0  0  0
   10.2330  -17.6731   22.4452 C   0  0  0  0  0  0  0  0  0  0  0  0
   10.3279  -18.3927   23.7407 C   0  0  0  0  0  0  0  0  0  0  0  0
    9.2412  -18.7747   24.2457 O   0  0  0  0  0  0  0  0  0  0  0  0
    9.5842  -15.6910   23.6460 C   0  0  0  0  0  0  0  0  0  0  0  0
   10.6809  -15.0926   23.7784 O   0  0  0  0  0  0  0  0  0  0  0  0
   11.4829  -18.6690   24.4181 O   0  0  0  0  0  0  0  0  0  0  0  0
    6.8734  -11.5989   26.9823 C   0  0  0  0  0  0  0  0  0  0  0  0
    7.9225  -12.6433   26.9710 C   0  0  0  0  0  0  0  0  0  0  0  0
    7.8379  -13.7418   26.0001 C   0  0  2  0  0  0  0  0  0  0  0  0
    6.4407  -14.3720   26.0884 C   0  0  0  0  0  0  0  0  0  0  0  0
    8.8908  -14.7756   25.9154 C   0  0  2  0  0  0  0  0  0  0  0  0
    8.6118  -15.5570   24.6686 N   0  0  0  0  0  0  0  0  0  0  0  0
    9.0541  -15.7180   27.0003 C   0  0  0  0  0  0  0  0  0  0  0  0
    9.7196  -15.4407   28.1625 O   0  0  0  0  0  0  0  0  0  0  0  0
    8.5669  -16.8906   26.9018 O   0  0  0  0  0  0  0  0  0  0  0  0
  2  1  1  6
  3  4  1  0
  3  2  1  0
  5  4  1  0
  5  6  1  0
  7  6  1  0
  8  2  1  0
  8  9  2  0
 10  8  1  0
 11 10  1  0
 11 12  1  6
 13 12  1  0
 14 13  2  0
 15 11  1  0
 16 15  2  0
 17 13  1  0
 19 18  1  0
 20 19  1  0
 20 22  1  0
 20 21  1  1
 22 24  1  0
 22 23  1  6
 23 15  1  0
 24 25  1  0
 26 24  2  0
M  END
$$$$
