KDI.pdb
     RDKit          3D

 26 25  0  0  1  0  0  0  0  0999 V2000
    9.3539  -14.9048   19.0354 N   0  0  0  0  0  0  0  0  0  0  0  0
    8.4417  -14.2450   19.9272 C   0  0  1  0  0  0  0  0  0  0  0  0
    7.0585  -14.0617   19.4480 C   0  0  0  0  0  0  0  0  0  0  0  0
    6.9779  -13.3549   18.1413 C   0  0  0  0  0  0  0  0  0  0  0  0
    7.3741  -14.2038   16.9732 C   0  0  0  0  0  0  0  0  0  0  0  0
    7.2879  -13.3853   15.7112 C   0  0  0  0  0  0  0  0  0  0  0  0
    7.7214  -14.2140   14.6069 N   0  0  0  0  0  0  0  0  0  0  0  0
    8.5025  -14.9695   21.2403 C   0  0  0  0  0  0  0  0  0  0  0  0
    7.6926  -14.7227   22.1695 O   0  0  0  0  0  0  0  0  0  0  0  0
    9.4927  -15.9806   21.4936 N   0  0  0  0  0  0  0  0  0  0  0  0
    9.4932  -16.6898   22.7390 C   0  0  1  0  0  0  0  0  0  0  0  0
   10.5485  -17.7726   22.6824 C   0  0  0  0  0  0  0  0  0  0  0  0
   10.5220  -18.6623   23.8712 C   0  0  0  0  0  0  0  0  0  0  0  0
   10.9985  -19.8156   23.7135 O   0  0  0  0  0  0  0  0  0  0  0  0
    9.8357  -15.8183   23.8923 C   0  0  0  0  0  0  0  0  0  0  0  0
   10.9055  -15.1670   23.9917 O   0  0  0  0  0  0  0  0  0  0  0  0
   10.0292  -18.3342   25.1035 O   0  0  0  0  0  0  0  0  0  0  0  0
    6.8562  -11.6627   26.7984 C   0  0  0  0  0  0  0  0  0  0  0  0
    7.9371  -12.6630   26.9475 C   0  0  0  0  0  0  0  0  0  0  0  0
    7.9787  -13.8218   26.0463 C   0  0  2  0  0  0  0  0  0  0  0  0
    6.6141  -14.5245   26.0828 C   0  0  0  0  0  0  0  0  0  0  0  0
    9.0883  -14.7967   26.0983 C   0  0  2  0  0  0  0  0  0  0  0  0
    8.8858  -15.7245   24.9403 N   0  0  0  0  0  0  0  0  0  0  0  0
    9.2735  -15.6040   27.2841 C   0  0  0  0  0  0  0  0  0  0  0  0
    8.9893  -16.9400   27.3535 O   0  0  0  0  0  0  0  0  0  0  0  0
    9.7218  -15.0721   28.3509 O   0  0  0  0  0  0  0  0  0  0  0  0
  2  1  1  6
  3  4  1  0
  3  2  1  0
  5  4  1  0
  5  6  1  0
  7  6  1  0
  8  2  1  0
  8  9  2  0
 10  8  1  0
 11 10  1  0
 11 12  1  6
 13 12  1  0
 14 13  2  0
 15 11  1  0
 16 15  2  0
 17 13  1  0
 19 18  1  0
 20 19  1  0
 20 22  1  0
 20 21  1  1
 22 24  1  0
 22 23  1  6
 23 15  1  0
 24 25  1  0
 26 24  2  0
M  END
$$$$
