KDI.pdb
     RDKit          3D

 26 25  0  0  1  0  0  0  0  0999 V2000
    9.9603  -16.5599   19.7564 N   0  0  0  0  0  0  0  0  0  0  0  0
    9.5293  -15.3409   20.3816 C   0  0  1  0  0  0  0  0  0  0  0  0
    8.5033  -14.5551   19.6700 C   0  0  0  0  0  0  0  0  0  0  0  0
    8.7830  -14.4022   18.2168 C   0  0  0  0  0  0  0  0  0  0  0  0
    7.7088  -13.6722   17.4715 C   0  0  0  0  0  0  0  0  0  0  0  0
    8.1054  -13.5463   16.0234 C   0  0  0  0  0  0  0  0  0  0  0  0
    7.0125  -12.9210   15.3102 N   0  0  0  0  0  0  0  0  0  0  0  0
    9.1193  -15.6823   21.7846 C   0  0  0  0  0  0  0  0  0  0  0  0
    8.1127  -15.1583   22.3252 O   0  0  0  0  0  0  0  0  0  0  0  0
    9.8624  -16.6267   22.5740 N   0  0  0  0  0  0  0  0  0  0  0  0
    9.4246  -16.9587   23.8976 C   0  0  1  0  0  0  0  0  0  0  0  0
   10.1068  -18.2383   24.3297 C   0  0  0  0  0  0  0  0  0  0  0  0
   10.1883  -19.2419   23.2381 C   0  0  0  0  0  0  0  0  0  0  0  0
    9.1031  -19.7733   22.8890 O   0  0  0  0  0  0  0  0  0  0  0  0
    9.7887  -15.9212   24.8965 C   0  0  0  0  0  0  0  0  0  0  0  0
   10.8653  -15.2736   24.8813 O   0  0  0  0  0  0  0  0  0  0  0  0
   11.3296  -19.6289   22.5925 O   0  0  0  0  0  0  0  0  0  0  0  0
    6.2360  -12.2559   25.9356 C   0  0  0  0  0  0  0  0  0  0  0  0
    7.4445  -13.1060   25.8445 C   0  0  0  0  0  0  0  0  0  0  0  0
    7.9635  -13.7562   27.0546 C   0  0  2  0  0  0  0  0  0  0  0  0
    8.1152  -12.6983   28.1569 C   0  0  0  0  0  0  0  0  0  0  0  0
    9.1378  -14.6521   27.0024 C   0  0  2  0  0  0  0  0  0  0  0  0
    8.8527  -15.6548   25.9272 N   0  0  0  0  0  0  0  0  0  0  0  0
    9.5350  -15.3775   28.1890 C   0  0  0  0  0  0  0  0  0  0  0  0
   10.4223  -14.9035   29.1155 O   0  0  0  0  0  0  0  0  0  0  0  0
    9.0545  -16.5347   28.4166 O   0  0  0  0  0  0  0  0  0  0  0  0
  2  1  1  6
  3  4  1  0
  3  2  1  0
  5  4  1  0
  5  6  1  0
  7  6  1  0
  8  2  1  0
  8  9  2  0
 10  8  1  0
 11 10  1  0
 11 12  1  1
 13 12  1  0
 14 13  2  0
 15 11  1  0
 16 15  2  0
 17 13  1  0
 19 18  1  0
 20 19  1  0
 20 22  1  0
 20 21  1  1
 22 24  1  0
 22 23  1  6
 23 15  1  0
 24 25  1  0
 26 24  2  0
M  END
$$$$
