KDI.pdb
     RDKit          3D

 26 25  0  0  1  0  0  0  0  0999 V2000
   10.5026  -14.5605   19.2061 N   0  0  0  0  0  0  0  0  0  0  0  0
    9.4136  -13.7945   19.7447 C   0  0  1  0  0  0  0  0  0  0  0  0
    8.3400  -13.4143   18.8069 C   0  0  0  0  0  0  0  0  0  0  0  0
    8.4272  -14.1159   17.4979 C   0  0  0  0  0  0  0  0  0  0  0  0
    7.3859  -13.6823   16.5130 C   0  0  0  0  0  0  0  0  0  0  0  0
    7.4870  -14.5343   15.2744 C   0  0  0  0  0  0  0  0  0  0  0  0
    6.3836  -14.1933   14.4024 N   0  0  0  0  0  0  0  0  0  0  0  0
    8.8942  -14.5404   20.9392 C   0  0  0  0  0  0  0  0  0  0  0  0
    7.8601  -14.1708   21.5509 O   0  0  0  0  0  0  0  0  0  0  0  0
    9.5589  -15.7138   21.4376 N   0  0  0  0  0  0  0  0  0  0  0  0
    9.0619  -16.3797   22.6052 C   0  0  1  0  0  0  0  0  0  0  0  0
    9.6384  -17.7779   22.6509 C   0  0  0  0  0  0  0  0  0  0  0  0
    9.2423  -18.6005   21.4796 C   0  0  0  0  0  0  0  0  0  0  0  0
    8.0068  -18.7280   21.2818 O   0  0  0  0  0  0  0  0  0  0  0  0
    9.4718  -15.7064   23.8644 C   0  0  0  0  0  0  0  0  0  0  0  0
   10.6507  -15.3622   24.1295 O   0  0  0  0  0  0  0  0  0  0  0  0
   10.0987  -19.2205   20.6128 O   0  0  0  0  0  0  0  0  0  0  0  0
    6.0156  -12.0109   25.5213 C   0  0  0  0  0  0  0  0  0  0  0  0
    7.1801  -12.8900   25.2713 C   0  0  0  0  0  0  0  0  0  0  0  0
    7.6444  -13.7933   26.3319 C   0  0  2  0  0  0  0  0  0  0  0  0
    7.8516  -12.9798   27.6173 C   0  0  0  0  0  0  0  0  0  0  0  0
    8.7602  -14.7357   26.1050 C   0  0  2  0  0  0  0  0  0  0  0  0
    8.4580  -15.4414   24.8191 N   0  0  0  0  0  0  0  0  0  0  0  0
    9.0586  -15.7410   27.1012 C   0  0  0  0  0  0  0  0  0  0  0  0
    9.9772  -15.5795   28.1014 O   0  0  0  0  0  0  0  0  0  0  0  0
    8.4528  -16.8610   27.0746 O   0  0  0  0  0  0  0  0  0  0  0  0
  2  1  1  6
  3  4  1  0
  3  2  1  0
  5  4  1  0
  5  6  1  0
  7  6  1  0
  8  2  1  0
  8  9  2  0
 10  8  1  0
 11 10  1  0
 11 12  1  1
 13 12  1  0
 14 13  2  0
 15 11  1  0
 16 15  2  0
 17 13  1  0
 19 18  1  0
 20 19  1  0
 20 22  1  0
 20 21  1  1
 22 24  1  0
 22 23  1  6
 23 15  1  0
 24 25  1  0
 26 24  2  0
M  END
$$$$
