KDI.pdb
     RDKit          3D

 26 25  0  0  1  0  0  0  0  0999 V2000
    6.8360  -16.9757   20.6426 N   0  0  0  0  0  0  0  0  0  0  0  0
    8.2432  -16.8564   20.9042 C   0  0  1  0  0  0  0  0  0  0  0  0
    8.9379  -15.7066   20.2945 C   0  0  0  0  0  0  0  0  0  0  0  0
    8.0387  -14.5528   20.0234 C   0  0  0  0  0  0  0  0  0  0  0  0
    8.7123  -13.4198   19.3127 C   0  0  0  0  0  0  0  0  0  0  0  0
    7.7328  -12.2881   19.1400 C   0  0  0  0  0  0  0  0  0  0  0  0
    8.3578  -11.2734   18.3192 N   0  0  0  0  0  0  0  0  0  0  0  0
    8.4242  -16.9121   22.3932 C   0  0  0  0  0  0  0  0  0  0  0  0
    7.4748  -16.6793   23.1836 O   0  0  0  0  0  0  0  0  0  0  0  0
    9.6952  -17.2350   22.9824 N   0  0  0  0  0  0  0  0  0  0  0  0
    9.7948  -17.4687   24.3929 C   0  0  1  0  0  0  0  0  0  0  0  0
   10.9687  -18.3873   24.6528 C   0  0  0  0  0  0  0  0  0  0  0  0
   11.1126  -18.7425   26.0875 C   0  0  0  0  0  0  0  0  0  0  0  0
   12.2475  -18.5543   26.5960 O   0  0  0  0  0  0  0  0  0  0  0  0
   10.0479  -16.2228   25.1615 C   0  0  0  0  0  0  0  0  0  0  0  0
   10.9278  -15.3766   24.8646 O   0  0  0  0  0  0  0  0  0  0  0  0
   10.1268  -19.2498   26.8875 O   0  0  0  0  0  0  0  0  0  0  0  0
    6.0822  -13.1207   26.3894 C   0  0  0  0  0  0  0  0  0  0  0  0
    7.4131  -13.7386   26.1937 C   0  0  0  0  0  0  0  0  0  0  0  0
    8.2115  -14.1210   27.3654 C   0  0  2  0  0  0  0  0  0  0  0  0
    8.3478  -12.9021   28.2889 C   0  0  0  0  0  0  0  0  0  0  0  0
    9.4985  -14.8330   27.2195 C   0  0  2  0  0  0  0  0  0  0  0  0
    9.2378  -15.9863   26.3004 N   0  0  0  0  0  0  0  0  0  0  0  0
   10.1667  -15.3469   28.3948 C   0  0  0  0  0  0  0  0  0  0  0  0
   11.0257  -14.6164   29.1687 O   0  0  0  0  0  0  0  0  0  0  0  0
    9.9726  -16.5514   28.7601 O   0  0  0  0  0  0  0  0  0  0  0  0
  2  1  1  1
  3  4  1  0
  3  2  1  0
  5  4  1  0
  5  6  1  0
  7  6  1  0
  8  2  1  0
  8  9  2  0
 10  8  1  0
 11 10  1  0
 11 12  1  6
 13 12  1  0
 14 13  2  0
 15 11  1  0
 16 15  2  0
 17 13  1  0
 19 18  1  0
 20 19  1  0
 20 22  1  0
 20 21  1  6
 22 24  1  0
 22 23  1  6
 23 15  1  0
 24 25  1  0
 26 24  2  0
M  END
$$$$
