KDI.pdb
     RDKit          3D

 26 25  0  0  1  0  0  0  0  0999 V2000
   10.3534  -14.8947   19.5472 N   0  0  0  0  0  0  0  0  0  0  0  0
    9.1882  -14.2605   20.0976 C   0  0  1  0  0  0  0  0  0  0  0  0
    7.9962  -14.1922   19.2311 C   0  0  0  0  0  0  0  0  0  0  0  0
    8.3041  -14.3999   17.7904 C   0  0  0  0  0  0  0  0  0  0  0  0
    7.2017  -13.9708   16.8723 C   0  0  0  0  0  0  0  0  0  0  0  0
    7.6151  -14.2244   15.4458 C   0  0  0  0  0  0  0  0  0  0  0  0
    6.5437  -13.7795   14.5809 N   0  0  0  0  0  0  0  0  0  0  0  0
    8.9029  -14.9223   21.4143 C   0  0  0  0  0  0  0  0  0  0  0  0
    7.8896  -14.6264   22.0969 O   0  0  0  0  0  0  0  0  0  0  0  0
    9.7787  -15.9266   21.9541 N   0  0  0  0  0  0  0  0  0  0  0  0
    9.4577  -16.5685   23.1945 C   0  0  1  0  0  0  0  0  0  0  0  0
   10.2584  -17.8478   23.3024 C   0  0  0  0  0  0  0  0  0  0  0  0
    9.9939  -18.5856   24.5639 C   0  0  0  0  0  0  0  0  0  0  0  0
   10.9901  -19.1207   25.1145 O   0  0  0  0  0  0  0  0  0  0  0  0
    9.8138  -15.7399   24.3751 C   0  0  0  0  0  0  0  0  0  0  0  0
   10.9445  -15.2248   24.5609 O   0  0  0  0  0  0  0  0  0  0  0  0
    8.7744  -18.7278   25.1653 O   0  0  0  0  0  0  0  0  0  0  0  0
    6.3104  -12.0385   25.5833 C   0  0  0  0  0  0  0  0  0  0  0  0
    7.5071  -12.9037   25.4811 C   0  0  0  0  0  0  0  0  0  0  0  0
    7.8982  -13.7344   26.6272 C   0  0  2  0  0  0  0  0  0  0  0  0
    7.9852  -12.8441   27.8750 C   0  0  0  0  0  0  0  0  0  0  0  0
    9.0448  -14.6636   26.5474 C   0  0  2  0  0  0  0  0  0  0  0  0
    8.8037  -15.5247   25.3461 N   0  0  0  0  0  0  0  0  0  0  0  0
    9.3359  -15.5350   27.6645 C   0  0  0  0  0  0  0  0  0  0  0  0
   10.1259  -15.1841   28.7243 O   0  0  0  0  0  0  0  0  0  0  0  0
    8.8490  -16.7114   27.6961 O   0  0  0  0  0  0  0  0  0  0  0  0
  2  1  1  6
  3  4  1  0
  3  2  1  0
  5  4  1  0
  5  6  1  0
  7  6  1  0
  8  2  1  0
  8  9  2  0
 10  8  1  0
 11 10  1  0
 11 12  1  1
 13 12  1  0
 14 13  2  0
 15 11  1  0
 16 15  2  0
 17 13  1  0
 19 18  1  0
 20 19  1  0
 20 22  1  0
 20 21  1  1
 22 24  1  0
 22 23  1  6
 23 15  1  0
 24 25  1  0
 26 24  2  0
M  END
$$$$
