KDI.pdb
     RDKit          3D

 26 25  0  0  1  0  0  0  0  0999 V2000
    5.8451  -21.7639   25.3213 N   0  0  0  0  0  0  0  0  0  0  0  0
    6.6739  -21.1641   24.3132 C   0  0  1  0  0  0  0  0  0  0  0  0
    6.0765  -20.9950   22.9750 C   0  0  0  0  0  0  0  0  0  0  0  0
    4.6492  -21.4099   22.9116 C   0  0  0  0  0  0  0  0  0  0  0  0
    4.0637  -21.3408   21.5352 C   0  0  0  0  0  0  0  0  0  0  0  0
    4.5784  -22.4965   20.7169 C   0  0  0  0  0  0  0  0  0  0  0  0
    4.0431  -22.3736   19.3781 N   0  0  0  0  0  0  0  0  0  0  0  0
    7.1942  -19.8737   24.8763 C   0  0  0  0  0  0  0  0  0  0  0  0
    6.6614  -19.3255   25.8742 O   0  0  0  0  0  0  0  0  0  0  0  0
    8.3282  -19.2061   24.2972 N   0  0  0  0  0  0  0  0  0  0  0  0
    8.8054  -17.9788   24.8626 C   0  0  1  0  0  0  0  0  0  0  0  0
   10.3167  -17.9638   24.7893 C   0  0  0  0  0  0  0  0  0  0  0  0
   10.9064  -16.7246   25.3566 C   0  0  0  0  0  0  0  0  0  0  0  0
   10.2229  -16.1331   26.2312 O   0  0  0  0  0  0  0  0  0  0  0  0
    8.3291  -16.7842   24.1189 C   0  0  0  0  0  0  0  0  0  0  0  0
    8.2463  -16.7187   22.8670 O   0  0  0  0  0  0  0  0  0  0  0  0
   12.1131  -16.1832   25.0102 O   0  0  0  0  0  0  0  0  0  0  0  0
    6.8681  -11.7619   27.0516 C   0  0  0  0  0  0  0  0  0  0  0  0
    7.5123  -12.5413   25.9704 C   0  0  0  0  0  0  0  0  0  0  0  0
    6.7700  -13.6316   25.3247 C   0  0  2  0  0  0  0  0  0  0  0  0
    6.1677  -14.5310   26.4135 C   0  0  0  0  0  0  0  0  0  0  0  0
    7.3704  -14.4313   24.2365 C   0  0  2  0  0  0  0  0  0  0  0  0
    7.9467  -15.6531   24.8830 N   0  0  0  0  0  0  0  0  0  0  0  0
    8.3980  -13.8455   23.4041 C   0  0  0  0  0  0  0  0  0  0  0  0
    9.7063  -14.2440   23.4075 O   0  0  0  0  0  0  0  0  0  0  0  0
    8.1061  -12.8936   22.6100 O   0  0  0  0  0  0  0  0  0  0  0  0
  2  1  1  1
  3  4  1  0
  3  2  1  0
  5  4  1  0
  5  6  1  0
  7  6  1  0
  8  2  1  0
  8  9  2  0
 10  8  1  0
 11 10  1  0
 11 12  1  6
 13 12  1  0
 14 13  2  0
 15 11  1  0
 16 15  2  0
 17 13  1  0
 19 18  1  0
 20 19  1  0
 20 22  1  0
 20 21  1  1
 22 24  1  0
 22 23  1  1
 23 15  1  0
 24 25  1  0
 26 24  2  0
M  END
$$$$
