KDI.pdb
     RDKit          3D

 26 25  0  0  1  0  0  0  0  0999 V2000
    8.9633  -16.0195   20.0472 N   0  0  0  0  0  0  0  0  0  0  0  0
    8.5132  -14.9708   20.9194 C   0  0  1  0  0  0  0  0  0  0  0  0
    7.1557  -14.4447   20.6814 C   0  0  0  0  0  0  0  0  0  0  0  0
    6.8618  -14.2051   19.2428 C   0  0  0  0  0  0  0  0  0  0  0  0
    8.0359  -13.6943   18.4664 C   0  0  0  0  0  0  0  0  0  0  0  0
    7.6094  -13.4082   17.0499 C   0  0  0  0  0  0  0  0  0  0  0  0
    8.7642  -12.9312   16.3200 N   0  0  0  0  0  0  0  0  0  0  0  0
    8.7027  -15.4531   22.3281 C   0  0  0  0  0  0  0  0  0  0  0  0
    7.9498  -15.0778   23.2621 O   0  0  0  0  0  0  0  0  0  0  0  0
    9.7571  -16.3681   22.6719 N   0  0  0  0  0  0  0  0  0  0  0  0
    9.8219  -16.9272   23.9898 C   0  0  1  0  0  0  0  0  0  0  0  0
   10.8993  -17.9892   24.0159 C   0  0  0  0  0  0  0  0  0  0  0  0
   10.7580  -18.9771   22.9162 C   0  0  0  0  0  0  0  0  0  0  0  0
    9.5917  -19.3854   22.6817 O   0  0  0  0  0  0  0  0  0  0  0  0
   10.1878  -15.9209   25.0196 C   0  0  0  0  0  0  0  0  0  0  0  0
   11.1862  -15.1622   24.9418 O   0  0  0  0  0  0  0  0  0  0  0  0
   11.7772  -19.4710   22.1503 O   0  0  0  0  0  0  0  0  0  0  0  0
    6.6218  -12.5598   26.2525 C   0  0  0  0  0  0  0  0  0  0  0  0
    7.8632  -13.3575   26.1349 C   0  0  0  0  0  0  0  0  0  0  0  0
    8.4529  -13.9581   27.3383 C   0  0  2  0  0  0  0  0  0  0  0  0
    8.6502  -12.8592   28.3922 C   0  0  0  0  0  0  0  0  0  0  0  0
    9.6333  -14.8437   27.2559 C   0  0  2  0  0  0  0  0  0  0  0  0
    9.3484  -15.8210   26.1574 N   0  0  0  0  0  0  0  0  0  0  0  0
   10.0434  -15.5960   28.4212 C   0  0  0  0  0  0  0  0  0  0  0  0
   10.9212  -15.1330   29.3622 O   0  0  0  0  0  0  0  0  0  0  0  0
    9.5844  -16.7682   28.6143 O   0  0  0  0  0  0  0  0  0  0  0  0
  2  1  1  6
  3  4  1  0
  3  2  1  0
  5  4  1  0
  5  6  1  0
  7  6  1  0
  8  2  1  0
  8  9  2  0
 10  8  1  0
 11 10  1  0
 11 12  1  6
 13 12  1  0
 14 13  2  0
 15 11  1  0
 16 15  2  0
 17 13  1  0
 19 18  1  0
 20 19  1  0
 20 22  1  0
 20 21  1  1
 22 24  1  0
 22 23  1  6
 23 15  1  0
 24 25  1  0
 26 24  2  0
M  END
$$$$
