KDI.pdb
     RDKit          3D

 26 25  0  0  1  0  0  0  0  0999 V2000
    6.2613  -16.9956   20.7353 N   0  0  0  0  0  0  0  0  0  0  0  0
    5.6517  -16.9027   22.0324 C   0  0  1  0  0  0  0  0  0  0  0  0
    4.5678  -17.8588   22.3279 C   0  0  0  0  0  0  0  0  0  0  0  0
    4.1099  -18.6164   21.1322 C   0  0  0  0  0  0  0  0  0  0  0  0
    2.7505  -19.2242   21.2899 C   0  0  0  0  0  0  0  0  0  0  0  0
    2.4208  -20.0317   20.0614 C   0  0  0  0  0  0  0  0  0  0  0  0
    1.0843  -20.5639   20.2180 N   0  0  0  0  0  0  0  0  0  0  0  0
    6.7565  -16.9567   23.0471 C   0  0  0  0  0  0  0  0  0  0  0  0
    6.5200  -16.9724   24.2815 O   0  0  0  0  0  0  0  0  0  0  0  0
    8.1379  -16.9928   22.6501 N   0  0  0  0  0  0  0  0  0  0  0  0
    9.1663  -17.1297   23.6388 C   0  0  1  0  0  0  0  0  0  0  0  0
   10.4815  -17.3967   22.9399 C   0  0  0  0  0  0  0  0  0  0  0  0
   11.5964  -17.6425   23.8896 C   0  0  0  0  0  0  0  0  0  0  0  0
   11.2730  -18.0622   25.0303 O   0  0  0  0  0  0  0  0  0  0  0  0
    9.3524  -15.8952   24.4439 C   0  0  0  0  0  0  0  0  0  0  0  0
    9.8732  -14.8389   24.0063 O   0  0  0  0  0  0  0  0  0  0  0  0
   12.9248  -17.4521   23.6283 O   0  0  0  0  0  0  0  0  0  0  0  0
    6.3829  -12.3850   25.5633 C   0  0  0  0  0  0  0  0  0  0  0  0
    7.6351  -13.1744   25.5461 C   0  0  0  0  0  0  0  0  0  0  0  0
    8.0308  -13.9279   26.7428 C   0  0  2  0  0  0  0  0  0  0  0  0
    8.0457  -12.9728   27.9448 C   0  0  0  0  0  0  0  0  0  0  0  0
    9.2181  -14.8081   26.7394 C   0  0  2  0  0  0  0  0  0  0  0  0
    8.9095  -15.9246   25.7901 N   0  0  0  0  0  0  0  0  0  0  0  0
    9.6739  -15.3960   27.9798 C   0  0  0  0  0  0  0  0  0  0  0  0
    9.4999  -16.7107   28.3140 O   0  0  0  0  0  0  0  0  0  0  0  0
   10.2736  -14.6752   28.8416 O   0  0  0  0  0  0  0  0  0  0  0  0
  2  1  1  6
  3  4  1  0
  3  2  1  0
  5  4  1  0
  5  6  1  0
  7  6  1  0
  8  2  1  0
  8  9  2  0
 10  8  1  0
 11 10  1  0
 11 12  1  6
 13 12  1  0
 14 13  2  0
 15 11  1  0
 16 15  2  0
 17 13  1  0
 19 18  1  0
 20 19  1  0
 20 22  1  0
 20 21  1  1
 22 24  1  0
 22 23  1  6
 23 15  1  0
 24 25  1  0
 26 24  2  0
M  END
$$$$
