CDD.pdb
     RDKit          3D

 23 22  0  0  1  0  0  0  0  0999 V2000
   26.2653  -19.6445  -17.9423 N   0  0  0  0  0  0  0  0  0  0  0  0
   25.6341  -18.8747  -16.9010 C   0  0  1  0  0  0  0  0  0  0  0  0
   25.3077  -17.4878  -17.3889 C   0  0  0  0  0  0  0  0  0  0  0  0
   26.7925  -16.4634  -17.1032 S   0  0  0  0  0  0  0  0  0  0  0  0
   24.5071  -19.5695  -16.2719 C   0  0  0  0  0  0  0  0  0  0  0  0
   23.8458  -20.4057  -16.9361 O   0  0  0  0  0  0  0  0  0  0  0  0
   24.1256  -19.3353  -14.9265 N   0  0  0  0  0  0  0  0  0  0  0  0
   22.9439  -19.9406  -14.3853 C   0  0  1  0  0  0  0  0  0  0  0  0
   23.0111  -20.0480  -12.8652 C   0  0  0  0  0  0  0  0  0  0  0  0
   21.8993  -20.8579  -12.3300 C   0  0  0  0  0  0  0  0  0  0  0  0
   21.8232  -21.0550  -11.1000 O   0  0  0  0  0  0  0  0  0  0  0  0
   21.6995  -19.2355  -14.8062 C   0  0  0  0  0  0  0  0  0  0  0  0
   21.6347  -17.9936  -14.7586 O   0  0  0  0  0  0  0  0  0  0  0  0
   20.9602  -21.3870  -13.1807 O   0  0  0  0  0  0  0  0  0  0  0  0
   20.5736  -19.9617  -15.2654 N   0  0  0  0  0  0  0  0  0  0  0  0
   19.3223  -19.3671  -15.6282 C   0  0  1  0  0  0  0  0  0  0  0  0
   19.1772  -19.3852  -17.1268 C   0  0  0  0  0  0  0  0  0  0  0  0
   17.9101  -18.8256  -17.6208 C   0  0  0  0  0  0  0  0  0  0  0  0
   17.7255  -17.5731  -17.4844 O   0  0  0  0  0  0  0  0  0  0  0  0
   18.2291  -20.1547  -14.9947 C   0  0  0  0  0  0  0  0  0  0  0  0
   16.9611  -19.6023  -14.9000 O   0  0  0  0  0  0  0  0  0  0  0  0
   16.8916  -19.5451  -18.2254 O   0  0  0  0  0  0  0  0  0  0  0  0
   18.4007  -21.3111  -14.5352 O   0  0  0  0  0  0  0  0  0  0  0  0
  2  1  1  6
  2  3  1  0
  3  4  1  0
  5  2  1  0
  6  5  2  0
  7  5  1  0
  8  7  1  0
  8 12  1  0
  8  9  1  1
 10 14  1  0
 10  9  1  0
 11 10  2  0
 12 15  1  0
 13 12  2  0
 15 16  1  0
 16 17  1  6
 16 20  1  0
 18 22  1  0
 18 17  1  0
 19 18  2  0
 20 21  1  0
 23 20  2  0
M  END
$$$$
