CDD.pdb
     RDKit          3D

 23 22  0  0  1  0  0  0  0  0999 V2000
   27.1061  -21.8021  -11.2736 N   0  0  0  0  0  0  0  0  0  0  0  0
   26.0388  -20.9266  -10.8614 C   0  0  1  0  0  0  0  0  0  0  0  0
   26.4708  -20.0727   -9.6987 C   0  0  0  0  0  0  0  0  0  0  0  0
   27.0911  -21.2085   -8.4099 S   0  0  0  0  0  0  0  0  0  0  0  0
   25.4488  -20.1733  -11.9718 C   0  0  0  0  0  0  0  0  0  0  0  0
   26.0604  -19.1822  -12.4426 O   0  0  0  0  0  0  0  0  0  0  0  0
   24.1994  -20.5196  -12.5460 N   0  0  0  0  0  0  0  0  0  0  0  0
   23.9970  -20.4356  -13.9629 C   0  0  1  0  0  0  0  0  0  0  0  0
   25.0702  -21.1995  -14.7319 C   0  0  0  0  0  0  0  0  0  0  0  0
   26.1652  -20.3087  -15.1628 C   0  0  0  0  0  0  0  0  0  0  0  0
   27.3225  -20.7655  -15.2608 O   0  0  0  0  0  0  0  0  0  0  0  0
   22.6367  -20.8890  -14.3714 C   0  0  0  0  0  0  0  0  0  0  0  0
   22.2771  -20.8041  -15.5598 O   0  0  0  0  0  0  0  0  0  0  0  0
   25.9084  -18.9912  -15.4523 O   0  0  0  0  0  0  0  0  0  0  0  0
   21.7330  -21.4219  -13.4200 N   0  0  0  0  0  0  0  0  0  0  0  0
   20.3750  -21.7754  -13.7060 C   0  0  1  0  0  0  0  0  0  0  0  0
   19.6430  -22.0287  -12.4148 C   0  0  0  0  0  0  0  0  0  0  0  0
   18.5566  -23.0149  -12.5162 C   0  0  0  0  0  0  0  0  0  0  0  0
   17.7083  -23.0575  -11.5676 O   0  0  0  0  0  0  0  0  0  0  0  0
   19.7435  -20.6470  -14.4441 C   0  0  0  0  0  0  0  0  0  0  0  0
   19.9200  -19.3512  -13.9838 O   0  0  0  0  0  0  0  0  0  0  0  0
   18.3730  -23.9085  -13.5594 O   0  0  0  0  0  0  0  0  0  0  0  0
   19.0491  -20.8127  -15.4775 O   0  0  0  0  0  0  0  0  0  0  0  0
  2  1  1  6
  2  3  1  0
  3  4  1  0
  5  2  1  0
  6  5  2  0
  7  5  1  0
  8  7  1  0
  8 12  1  0
  8  9  1  6
 10 14  1  0
 10  9  1  0
 11 10  2  0
 12 15  1  0
 13 12  2  0
 15 16  1  0
 16 17  1  1
 16 20  1  0
 18 22  1  0
 18 17  1  0
 19 18  2  0
 20 21  1  0
 23 20  2  0
M  END
$$$$
