CDD.pdb
     RDKit          3D

 23 22  0  0  1  0  0  0  0  0999 V2000
   21.8521  -10.7387  -17.2521 N   0  0  0  0  0  0  0  0  0  0  0  0
   20.5212  -10.6128  -16.7150 C   0  0  1  0  0  0  0  0  0  0  0  0
   20.1169  -11.8727  -15.9961 C   0  0  0  0  0  0  0  0  0  0  0  0
   19.9091  -13.1651  -17.2698 S   0  0  0  0  0  0  0  0  0  0  0  0
   20.3277   -9.3881  -15.9333 C   0  0  0  0  0  0  0  0  0  0  0  0
   19.2065   -9.1522  -15.4184 O   0  0  0  0  0  0  0  0  0  0  0  0
   21.3663   -8.4443  -15.7301 N   0  0  0  0  0  0  0  0  0  0  0  0
   21.1333   -7.2534  -14.9664 C   0  0  1  0  0  0  0  0  0  0  0  0
   22.4116   -6.7493  -14.3042 C   0  0  0  0  0  0  0  0  0  0  0  0
   22.1454   -5.5986  -13.4191 C   0  0  0  0  0  0  0  0  0  0  0  0
   21.5343   -5.7808  -12.3463 O   0  0  0  0  0  0  0  0  0  0  0  0
   20.5014   -6.1726  -15.7761 C   0  0  0  0  0  0  0  0  0  0  0  0
   20.9822   -5.8507  -16.8780 O   0  0  0  0  0  0  0  0  0  0  0  0
   22.5682   -4.3419  -13.7764 O   0  0  0  0  0  0  0  0  0  0  0  0
   19.3485   -5.4955  -15.3092 N   0  0  0  0  0  0  0  0  0  0  0  0
   18.6673   -4.4659  -16.0351 C   0  0  1  0  0  0  0  0  0  0  0  0
   17.1855   -4.7319  -16.0058 C   0  0  0  0  0  0  0  0  0  0  0  0
   16.3708   -3.7022  -16.6684 C   0  0  0  0  0  0  0  0  0  0  0  0
   15.5383   -3.0577  -15.9522 O   0  0  0  0  0  0  0  0  0  0  0  0
   18.9697   -3.1593  -15.3884 C   0  0  0  0  0  0  0  0  0  0  0  0
   19.0652   -2.0198  -16.1721 O   0  0  0  0  0  0  0  0  0  0  0  0
   16.4284   -3.3689  -18.0123 O   0  0  0  0  0  0  0  0  0  0  0  0
   19.1450   -3.0363  -14.1508 O   0  0  0  0  0  0  0  0  0  0  0  0
  2  1  1  1
  2  3  1  0
  3  4  1  0
  5  2  1  0
  6  5  2  0
  7  5  1  0
  8  7  1  0
  8 12  1  0
  8  9  1  6
 10 14  1  0
 10  9  1  0
 11 10  2  0
 12 15  1  0
 13 12  2  0
 15 16  1  0
 16 17  1  1
 16 20  1  0
 18 22  1  0
 18 17  1  0
 19 18  2  0
 20 21  1  0
 23 20  2  0
M  END
$$$$
