CDD.pdb
     RDKit          3D

 23 22  0  0  1  0  0  0  0  0999 V2000
   19.4157  -11.4195  -16.1190 N   0  0  0  0  0  0  0  0  0  0  0  0
   18.8111  -10.1201  -15.9730 C   0  0  1  0  0  0  0  0  0  0  0  0
   17.3320  -10.1882  -16.2481 C   0  0  0  0  0  0  0  0  0  0  0  0
   17.1339  -10.2553  -18.0624 S   0  0  0  0  0  0  0  0  0  0  0  0
   19.1562   -9.4614  -14.7098 C   0  0  0  0  0  0  0  0  0  0  0  0
   19.0233  -10.0865  -13.6284 O   0  0  0  0  0  0  0  0  0  0  0  0
   19.6406   -8.1299  -14.6547 N   0  0  0  0  0  0  0  0  0  0  0  0
   19.9449   -7.5137  -13.3965 C   0  0  1  0  0  0  0  0  0  0  0  0
   21.0283   -6.4492  -13.5374 C   0  0  0  0  0  0  0  0  0  0  0  0
   21.4088   -5.8871  -12.2269 C   0  0  0  0  0  0  0  0  0  0  0  0
   21.3776   -6.6178  -11.2157 O   0  0  0  0  0  0  0  0  0  0  0  0
   18.7360   -6.9463  -12.7335 C   0  0  0  0  0  0  0  0  0  0  0  0
   18.1020   -6.0197  -13.2705 O   0  0  0  0  0  0  0  0  0  0  0  0
   21.7930   -4.5726  -12.1261 O   0  0  0  0  0  0  0  0  0  0  0  0
   18.2888   -7.4481  -11.4869 N   0  0  0  0  0  0  0  0  0  0  0  0
   17.0924   -7.0198  -10.8263 C   0  0  1  0  0  0  0  0  0  0  0  0
   16.5107   -8.1723  -10.0513 C   0  0  0  0  0  0  0  0  0  0  0  0
   15.2600   -7.8585   -9.3440 C   0  0  0  0  0  0  0  0  0  0  0  0
   14.7976   -6.6776   -9.4594 O   0  0  0  0  0  0  0  0  0  0  0  0
   17.4408   -5.9027   -9.9058 C   0  0  0  0  0  0  0  0  0  0  0  0
   18.6182   -5.9658   -9.1766 O   0  0  0  0  0  0  0  0  0  0  0  0
   14.5351   -8.7393   -8.5573 O   0  0  0  0  0  0  0  0  0  0  0  0
   16.7110   -4.8917   -9.7547 O   0  0  0  0  0  0  0  0  0  0  0  0
  2  1  1  1
  2  3  1  0
  3  4  1  0
  5  2  1  0
  6  5  2  0
  7  5  1  0
  8  7  1  0
  8 12  1  0
  8  9  1  6
 10 14  1  0
 10  9  1  0
 11 10  2  0
 12 15  1  0
 13 12  2  0
 15 16  1  0
 16 17  1  1
 16 20  1  0
 18 22  1  0
 18 17  1  0
 19 18  2  0
 20 21  1  0
 23 20  2  0
M  END
$$$$
