CDD.pdb
     RDKit          3D

 23 22  0  0  1  0  0  0  0  0999 V2000
   12.3239  -13.8439  -11.4985 N   0  0  0  0  0  0  0  0  0  0  0  0
   12.3711  -12.7525  -12.4376 C   0  0  1  0  0  0  0  0  0  0  0  0
   11.4545  -11.6388  -12.0046 C   0  0  0  0  0  0  0  0  0  0  0  0
    9.7760  -12.3494  -11.8901 S   0  0  0  0  0  0  0  0  0  0  0  0
   13.7358  -12.3185  -12.7501 C   0  0  0  0  0  0  0  0  0  0  0  0
   14.4974  -11.9512  -11.8212 O   0  0  0  0  0  0  0  0  0  0  0  0
   14.2410  -12.2948  -14.0748 N   0  0  0  0  0  0  0  0  0  0  0  0
   15.5743  -11.8398  -14.3412 C   0  0  1  0  0  0  0  0  0  0  0  0
   16.3234  -12.7976  -15.2620 C   0  0  0  0  0  0  0  0  0  0  0  0
   16.6026  -14.0838  -14.5939 C   0  0  0  0  0  0  0  0  0  0  0  0
   17.2402  -14.0898  -13.5211 O   0  0  0  0  0  0  0  0  0  0  0  0
   15.6036  -10.4542  -14.8909 C   0  0  0  0  0  0  0  0  0  0  0  0
   14.7623  -10.0956  -15.7351 O   0  0  0  0  0  0  0  0  0  0  0  0
   16.1630  -15.2594  -15.1507 O   0  0  0  0  0  0  0  0  0  0  0  0
   16.5840   -9.5249  -14.4652 N   0  0  0  0  0  0  0  0  0  0  0  0
   16.7053   -8.1906  -14.9711 C   0  0  1  0  0  0  0  0  0  0  0  0
   16.8809   -7.2351  -13.8207 C   0  0  0  0  0  0  0  0  0  0  0  0
   17.1149   -5.8394  -14.2211 C   0  0  0  0  0  0  0  0  0  0  0  0
   16.1004   -5.1399  -14.5418 O   0  0  0  0  0  0  0  0  0  0  0  0
   17.8903   -8.1376  -15.8711 C   0  0  0  0  0  0  0  0  0  0  0  0
   18.0294   -7.0733  -16.7485 O   0  0  0  0  0  0  0  0  0  0  0  0
   18.3498   -5.2136  -14.2815 O   0  0  0  0  0  0  0  0  0  0  0  0
   18.7827   -9.0214  -15.8751 O   0  0  0  0  0  0  0  0  0  0  0  0
  2  1  1  1
  2  3  1  0
  3  4  1  0
  5  2  1  0
  6  5  2  0
  7  5  1  0
  8  7  1  0
  8 12  1  0
  8  9  1  6
 10 14  1  0
 10  9  1  0
 11 10  2  0
 12 15  1  0
 13 12  2  0
 15 16  1  0
 16 17  1  1
 16 20  1  0
 18 22  1  0
 18 17  1  0
 19 18  2  0
 20 21  1  0
 23 20  2  0
M  END
$$$$
