CDD.pdb
     RDKit          3D

 23 22  0  0  1  0  0  0  0  0999 V2000
   15.9331  -13.0106  -14.0725 N   0  0  0  0  0  0  0  0  0  0  0  0
   16.6248  -12.8042  -15.3193 C   0  0  1  0  0  0  0  0  0  0  0  0
   16.0232  -13.6535  -16.4077 C   0  0  0  0  0  0  0  0  0  0  0  0
   15.7750  -15.3198  -15.7023 S   0  0  0  0  0  0  0  0  0  0  0  0
   16.7673  -11.3889  -15.6729 C   0  0  0  0  0  0  0  0  0  0  0  0
   17.4580  -11.0660  -16.6713 O   0  0  0  0  0  0  0  0  0  0  0  0
   16.1505  -10.3533  -14.9262 N   0  0  0  0  0  0  0  0  0  0  0  0
   16.4024   -8.9767  -15.2383 C   0  0  1  0  0  0  0  0  0  0  0  0
   15.2137   -8.0908  -14.8796 C   0  0  0  0  0  0  0  0  0  0  0  0
   15.4544   -6.6837  -15.2545 C   0  0  0  0  0  0  0  0  0  0  0  0
   16.0607   -6.4286  -16.3150 O   0  0  0  0  0  0  0  0  0  0  0  0
   17.6482   -8.4666  -14.5975 C   0  0  0  0  0  0  0  0  0  0  0  0
   17.8033   -8.5570  -13.3660 O   0  0  0  0  0  0  0  0  0  0  0  0
   15.0135   -5.6687  -14.4415 O   0  0  0  0  0  0  0  0  0  0  0  0
   18.6730   -7.8726  -15.3739 N   0  0  0  0  0  0  0  0  0  0  0  0
   19.9403   -7.4543  -14.8541 C   0  0  1  0  0  0  0  0  0  0  0  0
   20.9455   -8.5597  -15.0412 C   0  0  0  0  0  0  0  0  0  0  0  0
   22.3077   -8.2222  -14.6013 C   0  0  0  0  0  0  0  0  0  0  0  0
   22.4946   -7.0701  -14.0921 O   0  0  0  0  0  0  0  0  0  0  0  0
   20.3700   -6.2357  -15.5938 C   0  0  0  0  0  0  0  0  0  0  0  0
   19.6220   -5.7995  -16.6765 O   0  0  0  0  0  0  0  0  0  0  0  0
   23.4139   -9.0519  -14.6926 O   0  0  0  0  0  0  0  0  0  0  0  0
   21.3907   -5.5738  -15.2814 O   0  0  0  0  0  0  0  0  0  0  0  0
  2  1  1  1
  2  3  1  0
  3  4  1  0
  5  2  1  0
  6  5  2  0
  7  5  1  0
  8  7  1  0
  8 12  1  0
  8  9  1  1
 10 14  1  0
 10  9  1  0
 11 10  2  0
 12 15  1  0
 13 12  2  0
 15 16  1  0
 16 17  1  6
 16 20  1  0
 18 22  1  0
 18 17  1  0
 19 18  2  0
 20 21  1  0
 23 20  2  0
M  END
$$$$
