CDD.pdb
     RDKit          3D

 23 22  0  0  1  0  0  0  0  0999 V2000
   27.2399  -11.1574  -17.9527 N   0  0  0  0  0  0  0  0  0  0  0  0
   26.3602  -11.3721  -16.8323 C   0  0  1  0  0  0  0  0  0  0  0  0
   27.1269  -11.3214  -15.5371 C   0  0  0  0  0  0  0  0  0  0  0  0
   28.3079  -12.7142  -15.5666 S   0  0  0  0  0  0  0  0  0  0  0  0
   25.1715  -10.5149  -16.8592 C   0  0  0  0  0  0  0  0  0  0  0  0
   25.2062   -9.4266  -17.4855 O   0  0  0  0  0  0  0  0  0  0  0  0
   23.9665  -10.8659  -16.1993 N   0  0  0  0  0  0  0  0  0  0  0  0
   22.7918  -10.0563  -16.3420 C   0  0  1  0  0  0  0  0  0  0  0  0
   21.5237  -10.8420  -16.0238 C   0  0  0  0  0  0  0  0  0  0  0  0
   21.3169  -11.9468  -16.9804 C   0  0  0  0  0  0  0  0  0  0  0  0
   21.4097  -13.1259  -16.5822 O   0  0  0  0  0  0  0  0  0  0  0  0
   22.8558   -8.8113  -15.5241 C   0  0  0  0  0  0  0  0  0  0  0  0
   23.2449   -8.8554  -14.3428 O   0  0  0  0  0  0  0  0  0  0  0  0
   21.0252  -11.6752  -18.2945 O   0  0  0  0  0  0  0  0  0  0  0  0
   22.4771   -7.5619  -16.0731 N   0  0  0  0  0  0  0  0  0  0  0  0
   22.5029   -6.3232  -15.3547 C   0  0  1  0  0  0  0  0  0  0  0  0
   22.2630   -5.1862  -16.3123 C   0  0  0  0  0  0  0  0  0  0  0  0
   22.1858   -3.8626  -15.6758 C   0  0  0  0  0  0  0  0  0  0  0  0
   22.9177   -3.6557  -14.6546 O   0  0  0  0  0  0  0  0  0  0  0  0
   21.4331   -6.3604  -14.3198 C   0  0  0  0  0  0  0  0  0  0  0  0
   21.6839   -5.8281  -13.0645 O   0  0  0  0  0  0  0  0  0  0  0  0
   21.3814   -2.8134  -16.0911 O   0  0  0  0  0  0  0  0  0  0  0  0
   20.2987   -6.8569  -14.5302 O   0  0  0  0  0  0  0  0  0  0  0  0
  2  1  1  6
  2  3  1  0
  3  4  1  0
  5  2  1  0
  6  5  2  0
  7  5  1  0
  8  7  1  0
  8 12  1  0
  8  9  1  1
 10 14  1  0
 10  9  1  0
 11 10  2  0
 12 15  1  0
 13 12  2  0
 15 16  1  0
 16 17  1  6
 16 20  1  0
 18 22  1  0
 18 17  1  0
 19 18  2  0
 20 21  1  0
 23 20  2  0
M  END
$$$$
