CDD.pdb
     RDKit          3D

 23 22  0  0  1  0  0  0  0  0999 V2000
   14.4610   -9.6605   -9.9088 N   0  0  0  0  0  0  0  0  0  0  0  0
   14.5551   -9.1560  -11.2550 C   0  0  1  0  0  0  0  0  0  0  0  0
   14.0436   -7.7415  -11.3294 C   0  0  0  0  0  0  0  0  0  0  0  0
   12.3639   -7.7480  -10.6121 S   0  0  0  0  0  0  0  0  0  0  0  0
   15.8804   -9.3464  -11.8515 C   0  0  0  0  0  0  0  0  0  0  0  0
   16.9075   -9.1196  -11.1648 O   0  0  0  0  0  0  0  0  0  0  0  0
   16.0560   -9.7817  -13.1895 N   0  0  0  0  0  0  0  0  0  0  0  0
   17.3682  -10.0275  -13.7125 C   0  0  1  0  0  0  0  0  0  0  0  0
   17.3616  -11.1474  -14.7481 C   0  0  0  0  0  0  0  0  0  0  0  0
   16.9762  -12.4389  -14.1464 C   0  0  0  0  0  0  0  0  0  0  0  0
   15.7746  -12.7760  -14.1395 O   0  0  0  0  0  0  0  0  0  0  0  0
   17.9963   -8.7977  -14.2747 C   0  0  0  0  0  0  0  0  0  0  0  0
   17.3426   -8.0415  -15.0161 O   0  0  0  0  0  0  0  0  0  0  0  0
   17.9337  -13.2583  -13.6012 O   0  0  0  0  0  0  0  0  0  0  0  0
   19.3414   -8.4688  -13.9774 N   0  0  0  0  0  0  0  0  0  0  0  0
   20.0224   -7.3165  -14.4870 C   0  0  1  0  0  0  0  0  0  0  0  0
   19.3398   -6.0715  -13.9858 C   0  0  0  0  0  0  0  0  0  0  0  0
   19.9998   -4.8174  -14.3787 C   0  0  0  0  0  0  0  0  0  0  0  0
   20.9334   -4.8875  -15.2419 O   0  0  0  0  0  0  0  0  0  0  0  0
   21.4327   -7.3585  -14.0114 C   0  0  0  0  0  0  0  0  0  0  0  0
   22.3175   -6.3735  -14.4224 O   0  0  0  0  0  0  0  0  0  0  0  0
   19.6946   -3.5572  -13.8894 O   0  0  0  0  0  0  0  0  0  0  0  0
   21.8670   -8.2544  -13.2456 O   0  0  0  0  0  0  0  0  0  0  0  0
  2  1  1  1
  2  3  1  0
  3  4  1  0
  5  2  1  0
  6  5  2  0
  7  5  1  0
  8  7  1  0
  8 12  1  0
  8  9  1  6
 10 14  1  0
 10  9  1  0
 11 10  2  0
 12 15  1  0
 13 12  2  0
 15 16  1  0
 16 17  1  1
 16 20  1  0
 18 22  1  0
 18 17  1  0
 19 18  2  0
 20 21  1  0
 23 20  2  0
M  END
$$$$
