CDD.pdb
     RDKit          3D

 23 22  0  0  1  0  0  0  0  0999 V2000
   19.9645  -16.2998  -16.4300 N   0  0  0  0  0  0  0  0  0  0  0  0
   19.4702  -15.0569  -16.9651 C   0  0  1  0  0  0  0  0  0  0  0  0
   18.1440  -14.7018  -16.3461 C   0  0  0  0  0  0  0  0  0  0  0  0
   16.9833  -16.0450  -16.7754 S   0  0  0  0  0  0  0  0  0  0  0  0
   20.4597  -13.9763  -16.9235 C   0  0  0  0  0  0  0  0  0  0  0  0
   20.9793  -13.6537  -15.8263 O   0  0  0  0  0  0  0  0  0  0  0  0
   20.8617  -13.2690  -18.0848 N   0  0  0  0  0  0  0  0  0  0  0  0
   21.7949  -12.1843  -17.9943 C   0  0  1  0  0  0  0  0  0  0  0  0
   22.4792  -11.9164  -19.3309 C   0  0  0  0  0  0  0  0  0  0  0  0
   23.3673  -13.0301  -19.7174 C   0  0  0  0  0  0  0  0  0  0  0  0
   24.3942  -13.2550  -19.0449 O   0  0  0  0  0  0  0  0  0  0  0  0
   21.1696  -10.9380  -17.4667 C   0  0  0  0  0  0  0  0  0  0  0  0
   20.1159  -10.5038  -17.9668 O   0  0  0  0  0  0  0  0  0  0  0  0
   23.0624  -13.8086  -20.8067 O   0  0  0  0  0  0  0  0  0  0  0  0
   21.7596  -10.2283  -16.3924 N   0  0  0  0  0  0  0  0  0  0  0  0
   21.2250   -9.0249  -15.8292 C   0  0  1  0  0  0  0  0  0  0  0  0
   21.6082   -8.9414  -14.3754 C   0  0  0  0  0  0  0  0  0  0  0  0
   21.1103   -7.7425  -13.6844 C   0  0  0  0  0  0  0  0  0  0  0  0
   21.5957   -7.4788  -12.5371 O   0  0  0  0  0  0  0  0  0  0  0  0
   21.7878   -7.8678  -16.5783 C   0  0  0  0  0  0  0  0  0  0  0  0
   22.8171   -8.0800  -17.4824 O   0  0  0  0  0  0  0  0  0  0  0  0
   20.1528   -6.8683  -14.1737 O   0  0  0  0  0  0  0  0  0  0  0  0
   21.3707   -6.6923  -16.4299 O   0  0  0  0  0  0  0  0  0  0  0  0
  2  1  1  1
  2  3  1  0
  3  4  1  0
  5  2  1  0
  6  5  2  0
  7  5  1  0
  8  7  1  0
  8 12  1  0
  8  9  1  6
 10 14  1  0
 10  9  1  0
 11 10  2  0
 12 15  1  0
 13 12  2  0
 15 16  1  0
 16 17  1  1
 16 20  1  0
 18 22  1  0
 18 17  1  0
 19 18  2  0
 20 21  1  0
 23 20  2  0
M  END
$$$$
