CDD.pdb
     RDKit          3D

 23 22  0  0  1  0  0  0  0  0999 V2000
   14.6359  -14.6774  -13.3359 N   0  0  0  0  0  0  0  0  0  0  0  0
   14.2990  -13.2828  -13.4662 C   0  0  1  0  0  0  0  0  0  0  0  0
   12.9959  -12.9838  -12.7730 C   0  0  0  0  0  0  0  0  0  0  0  0
   11.6727  -13.7225  -13.7924 S   0  0  0  0  0  0  0  0  0  0  0  0
   15.3966  -12.3864  -13.0918 C   0  0  0  0  0  0  0  0  0  0  0  0
   16.1049  -12.6583  -12.0907 O   0  0  0  0  0  0  0  0  0  0  0  0
   15.6981  -11.2084  -13.8212 N   0  0  0  0  0  0  0  0  0  0  0  0
   16.7472  -10.3305  -13.3920 C   0  0  1  0  0  0  0  0  0  0  0  0
   17.6996   -9.9898  -14.5336 C   0  0  0  0  0  0  0  0  0  0  0  0
   18.7625   -9.0647  -14.0942 C   0  0  0  0  0  0  0  0  0  0  0  0
   18.7030   -7.8631  -14.4259 O   0  0  0  0  0  0  0  0  0  0  0  0
   16.2245   -9.0870  -12.7568 C   0  0  0  0  0  0  0  0  0  0  0  0
   15.3522   -8.4085  -13.3292 O   0  0  0  0  0  0  0  0  0  0  0  0
   19.8043   -9.5262  -13.3279 O   0  0  0  0  0  0  0  0  0  0  0  0
   16.7082   -8.6567  -11.4972 N   0  0  0  0  0  0  0  0  0  0  0  0
   16.2772   -7.4643  -10.8312 C   0  0  1  0  0  0  0  0  0  0  0  0
   16.7350   -7.5007   -9.3972 C   0  0  0  0  0  0  0  0  0  0  0  0
   16.3308   -6.3320   -8.6011 C   0  0  0  0  0  0  0  0  0  0  0  0
   16.9761   -6.0970   -7.5288 O   0  0  0  0  0  0  0  0  0  0  0  0
   16.8735   -6.2947  -11.5335 C   0  0  0  0  0  0  0  0  0  0  0  0
   16.1268   -5.1354  -11.6766 O   0  0  0  0  0  0  0  0  0  0  0  0
   15.3026   -5.4578   -8.9160 O   0  0  0  0  0  0  0  0  0  0  0  0
   18.0358   -6.3061  -12.0096 O   0  0  0  0  0  0  0  0  0  0  0  0
  2  1  1  1
  2  3  1  0
  3  4  1  0
  5  2  1  0
  6  5  2  0
  7  5  1  0
  8  7  1  0
  8 12  1  0
  8  9  1  6
 10 14  1  0
 10  9  1  0
 11 10  2  0
 12 15  1  0
 13 12  2  0
 15 16  1  0
 16 17  1  1
 16 20  1  0
 18 22  1  0
 18 17  1  0
 19 18  2  0
 20 21  1  0
 23 20  2  0
M  END
$$$$
