CDD.pdb
     RDKit          3D

 23 22  0  0  1  0  0  0  0  0999 V2000
   15.1744  -13.4618  -12.8297 N   0  0  0  0  0  0  0  0  0  0  0  0
   14.5490  -12.2817  -12.2896 C   0  0  1  0  0  0  0  0  0  0  0  0
   13.4804  -12.6541  -11.2960 C   0  0  0  0  0  0  0  0  0  0  0  0
   12.7793  -11.0911  -10.6625 S   0  0  0  0  0  0  0  0  0  0  0  0
   15.5116  -11.2942  -11.7929 C   0  0  0  0  0  0  0  0  0  0  0  0
   16.4325  -11.6602  -11.0210 O   0  0  0  0  0  0  0  0  0  0  0  0
   15.4475   -9.9237  -12.1510 N   0  0  0  0  0  0  0  0  0  0  0  0
   16.4581   -9.0054  -11.7141 C   0  0  1  0  0  0  0  0  0  0  0  0
   17.4549   -8.6934  -12.8256 C   0  0  0  0  0  0  0  0  0  0  0  0
   18.4732   -7.7212  -12.3826 C   0  0  0  0  0  0  0  0  0  0  0  0
   18.3498   -6.5200  -12.6977 O   0  0  0  0  0  0  0  0  0  0  0  0
   15.8822   -7.7474  -11.1585 C   0  0  0  0  0  0  0  0  0  0  0  0
   15.0994   -7.0606  -11.8399 O   0  0  0  0  0  0  0  0  0  0  0  0
   19.5438   -8.1387  -11.6310 O   0  0  0  0  0  0  0  0  0  0  0  0
   16.2133   -7.3125   -9.8519 N   0  0  0  0  0  0  0  0  0  0  0  0
   15.7656   -6.0814   -9.2730 C   0  0  1  0  0  0  0  0  0  0  0  0
   15.3174   -6.3300   -7.8571 C   0  0  0  0  0  0  0  0  0  0  0  0
   13.8949   -6.6786   -7.7231 C   0  0  0  0  0  0  0  0  0  0  0  0
   13.1731   -6.6242   -8.7708 O   0  0  0  0  0  0  0  0  0  0  0  0
   16.8987   -5.1158   -9.2932 C   0  0  0  0  0  0  0  0  0  0  0  0
   16.6583   -3.7807   -9.0075 O   0  0  0  0  0  0  0  0  0  0  0  0
   13.2655   -7.0633   -6.5500 O   0  0  0  0  0  0  0  0  0  0  0  0
   18.0783   -5.4552   -9.5601 O   0  0  0  0  0  0  0  0  0  0  0  0
  2  1  1  1
  2  3  1  0
  3  4  1  0
  5  2  1  0
  6  5  2  0
  7  5  1  0
  8  7  1  0
  8 12  1  0
  8  9  1  6
 10 14  1  0
 10  9  1  0
 11 10  2  0
 12 15  1  0
 13 12  2  0
 15 16  1  0
 16 17  1  1
 16 20  1  0
 18 22  1  0
 18 17  1  0
 19 18  2  0
 20 21  1  0
 23 20  2  0
M  END
$$$$
