CDD.pdb
     RDKit          3D

 23 22  0  0  1  0  0  0  0  0999 V2000
   23.4438  -15.2916  -18.7267 N   0  0  0  0  0  0  0  0  0  0  0  0
   22.8156  -14.0837  -19.1975 C   0  0  1  0  0  0  0  0  0  0  0  0
   21.3302  -14.2809  -19.3481 C   0  0  0  0  0  0  0  0  0  0  0  0
   21.0965  -15.7319  -20.4324 S   0  0  0  0  0  0  0  0  0  0  0  0
   23.1871  -12.8986  -18.4189 C   0  0  0  0  0  0  0  0  0  0  0  0
   22.9726  -12.8778  -17.1814 O   0  0  0  0  0  0  0  0  0  0  0  0
   23.7868  -11.7580  -19.0106 N   0  0  0  0  0  0  0  0  0  0  0  0
   24.0564  -10.5857  -18.2305 C   0  0  1  0  0  0  0  0  0  0  0  0
   25.2198   -9.7826  -18.8035 C   0  0  0  0  0  0  0  0  0  0  0  0
   25.5437   -8.6186  -17.9557 C   0  0  0  0  0  0  0  0  0  0  0  0
   24.9181   -8.4453  -16.8899 O   0  0  0  0  0  0  0  0  0  0  0  0
   22.8528   -9.7211  -18.0678 C   0  0  0  0  0  0  0  0  0  0  0  0
   22.2312   -9.3155  -19.0668 O   0  0  0  0  0  0  0  0  0  0  0  0
   26.5247   -7.7379  -18.3399 O   0  0  0  0  0  0  0  0  0  0  0  0
   22.3965   -9.3469  -16.7803 N   0  0  0  0  0  0  0  0  0  0  0  0
   21.2341   -8.5464  -16.5367 C   0  0  1  0  0  0  0  0  0  0  0  0
   20.2421   -9.3404  -15.7288 C   0  0  0  0  0  0  0  0  0  0  0  0
   19.0072   -8.6130  -15.3990 C   0  0  0  0  0  0  0  0  0  0  0  0
   18.8796   -8.1765  -14.2096 O   0  0  0  0  0  0  0  0  0  0  0  0
   21.6529   -7.3295  -15.7879 C   0  0  0  0  0  0  0  0  0  0  0  0
   22.8173   -7.3620  -15.0362 O   0  0  0  0  0  0  0  0  0  0  0  0
   17.9624   -8.3589  -16.2733 O   0  0  0  0  0  0  0  0  0  0  0  0
   20.9946   -6.2599  -15.8034 O   0  0  0  0  0  0  0  0  0  0  0  0
  2  1  1  1
  2  3  1  0
  3  4  1  0
  5  2  1  0
  6  5  2  0
  7  5  1  0
  8  7  1  0
  8 12  1  0
  8  9  1  6
 10 14  1  0
 10  9  1  0
 11 10  2  0
 12 15  1  0
 13 12  2  0
 15 16  1  0
 16 17  1  1
 16 20  1  0
 18 22  1  0
 18 17  1  0
 19 18  2  0
 20 21  1  0
 23 20  2  0
M  END
$$$$
