CDD.pdb
     RDKit          3D

 23 22  0  0  1  0  0  0  0  0999 V2000
   14.1697  -10.2280  -13.6785 N   0  0  0  0  0  0  0  0  0  0  0  0
   15.4959  -10.3634  -13.1323 C   0  0  1  0  0  0  0  0  0  0  0  0
   16.3611  -11.1993  -14.0382 C   0  0  0  0  0  0  0  0  0  0  0  0
   15.8727  -12.9398  -13.7782 S   0  0  0  0  0  0  0  0  0  0  0  0
   16.0946   -9.0825  -12.7458 C   0  0  0  0  0  0  0  0  0  0  0  0
   16.1170   -8.1350  -13.5702 O   0  0  0  0  0  0  0  0  0  0  0  0
   16.6577   -8.8632  -11.4631 N   0  0  0  0  0  0  0  0  0  0  0  0
   17.2490   -7.6003  -11.1300 C   0  0  1  0  0  0  0  0  0  0  0  0
   17.0179   -7.2381   -9.6664 C   0  0  0  0  0  0  0  0  0  0  0  0
   17.5686   -5.9071   -9.3445 C   0  0  0  0  0  0  0  0  0  0  0  0
   17.6539   -5.5530   -8.1509 O   0  0  0  0  0  0  0  0  0  0  0  0
   18.7021   -7.5476  -11.4596 C   0  0  0  0  0  0  0  0  0  0  0  0
   19.5153   -8.2455  -10.8267 O   0  0  0  0  0  0  0  0  0  0  0  0
   17.9819   -5.0702  -10.3517 O   0  0  0  0  0  0  0  0  0  0  0  0
   19.1820   -6.7068  -12.4934 N   0  0  0  0  0  0  0  0  0  0  0  0
   20.5407   -6.6776  -12.9451 C   0  0  1  0  0  0  0  0  0  0  0  0
   20.6080   -7.1952  -14.3575 C   0  0  0  0  0  0  0  0  0  0  0  0
   21.9554   -7.1784  -14.9466 C   0  0  0  0  0  0  0  0  0  0  0  0
   22.3645   -6.0835  -15.4521 O   0  0  0  0  0  0  0  0  0  0  0  0
   21.0223   -5.2699  -12.8882 C   0  0  0  0  0  0  0  0  0  0  0  0
   20.1024   -4.2346  -12.9490 O   0  0  0  0  0  0  0  0  0  0  0  0
   22.8255   -8.2556  -15.0016 O   0  0  0  0  0  0  0  0  0  0  0  0
   22.2376   -4.9693  -12.7863 O   0  0  0  0  0  0  0  0  0  0  0  0
  2  1  1  6
  2  3  1  0
  3  4  1  0
  5  2  1  0
  6  5  2  0
  7  5  1  0
  8  7  1  0
  8 12  1  0
  8  9  1  1
 10 14  1  0
 10  9  1  0
 11 10  2  0
 12 15  1  0
 13 12  2  0
 15 16  1  0
 16 17  1  6
 16 20  1  0
 18 22  1  0
 18 17  1  0
 19 18  2  0
 20 21  1  0
 23 20  2  0
M  END
$$$$
