GVS.pdb
     RDKit          3D

 18 17  0  0  1  0  0  0  0  0999 V2000
    8.3079  -17.4593   15.9978 N   0  0  0  0  0  0  0  0  0  0  0  0
    7.4720  -17.2660   17.1442 C   0  0  0  0  0  0  0  0  0  0  0  0
    8.2295  -16.4520   18.1595 C   0  0  0  0  0  0  0  0  0  0  0  0
    9.4937  -16.4179   18.1628 O   0  0  0  0  0  0  0  0  0  0  0  0
    7.0750  -12.8173   19.6738 C   0  0  0  0  0  0  0  0  0  0  0  0
    7.5172  -13.7828   20.7041 C   0  0  2  0  0  0  0  0  0  0  0  0
    8.3723  -13.0790   21.7327 C   0  0  0  0  0  0  0  0  0  0  0  0
    8.2658  -14.9763   20.1857 C   0  0  2  0  0  0  0  0  0  0  0  0
    7.5579  -15.6895   19.1544 N   0  0  0  0  0  0  0  0  0  0  0  0
    8.6780  -15.8955   21.2998 C   0  0  0  0  0  0  0  0  0  0  0  0
    7.8264  -16.4971   22.0035 O   0  0  0  0  0  0  0  0  0  0  0  0
   11.7856  -18.1541   20.9788 O   0  0  0  0  0  0  0  0  0  0  0  0
   10.9592  -18.3477   22.0576 C   0  0  0  0  0  0  0  0  0  0  0  0
   10.5080  -17.0119   22.6157 C   0  0  2  0  0  0  0  0  0  0  0  0
   10.0644  -16.1136   21.5934 N   0  0  0  0  0  0  0  0  0  0  0  0
   11.6231  -16.3948   23.3646 C   0  0  0  0  0  0  0  0  0  0  0  0
   12.0751  -15.2937   22.9722 O   0  0  0  0  0  0  0  0  0  0  0  0
   12.1903  -16.9929   24.4916 O   0  0  0  0  0  0  0  0  0  0  0  0
  1  2  1  0
  3  4  2  0
  3  2  1  0
  6  5  1  6
  6  8  1  0
  7  6  1  0
  8  9  1  6
  9  3  1  0
 10 15  1  0
 10  8  1  0
 11 10  2  0
 14 13  1  6
 13 12  1  0
 14 15  1  0
 14 16  1  0
 16 18  1  0
 17 16  2  0
M  END
$$$$
