GVS.pdb
     RDKit          3D

 18 17  0  0  1  0  0  0  0  0999 V2000
    7.5503  -18.1207   17.4950 N   0  0  0  0  0  0  0  0  0  0  0  0
    6.8977  -17.3948   18.5426 C   0  0  0  0  0  0  0  0  0  0  0  0
    7.9328  -16.5991   19.2928 C   0  0  0  0  0  0  0  0  0  0  0  0
    9.1691  -16.7879   19.1052 O   0  0  0  0  0  0  0  0  0  0  0  0
    7.0196  -13.1476   22.0624 C   0  0  0  0  0  0  0  0  0  0  0  0
    8.1299  -13.3776   21.1119 C   0  0  2  0  0  0  0  0  0  0  0  0
    7.7724  -12.8076   19.7586 C   0  0  0  0  0  0  0  0  0  0  0  0
    8.5415  -14.8111   20.9411 C   0  0  2  0  0  0  0  0  0  0  0  0
    7.5654  -15.6050   20.2409 N   0  0  0  0  0  0  0  0  0  0  0  0
    8.9140  -15.4383   22.2541 C   0  0  0  0  0  0  0  0  0  0  0  0
    8.0436  -15.9321   23.0162 O   0  0  0  0  0  0  0  0  0  0  0  0
   11.2839  -18.9392   23.2773 O   0  0  0  0  0  0  0  0  0  0  0  0
   10.7088  -17.9033   22.5841 C   0  0  0  0  0  0  0  0  0  0  0  0
   10.8364  -16.6139   23.3718 C   0  0  2  0  0  0  0  0  0  0  0  0
   10.2830  -15.4913   22.6774 N   0  0  0  0  0  0  0  0  0  0  0  0
   12.2633  -16.3594   23.6625 C   0  0  0  0  0  0  0  0  0  0  0  0
   12.9243  -15.6566   22.8628 O   0  0  0  0  0  0  0  0  0  0  0  0
   12.9004  -16.8728   24.7940 O   0  0  0  0  0  0  0  0  0  0  0  0
  1  2  1  0
  3  4  2  0
  3  2  1  0
  6  5  1  1
  6  8  1  0
  7  6  1  0
  8  9  1  1
  9  3  1  0
 10 15  1  0
 10  8  1  0
 11 10  2  0
 14 13  1  6
 13 12  1  0
 14 15  1  0
 14 16  1  0
 16 18  1  0
 17 16  2  0
M  END
$$$$
