GVS.pdb
     RDKit          3D

 18 17  0  0  1  0  0  0  0  0999 V2000
    7.0575  -18.1918   17.0558 N   0  0  0  0  0  0  0  0  0  0  0  0
    6.4418  -17.7355   18.2653 C   0  0  0  0  0  0  0  0  0  0  0  0
    7.4279  -16.8770   19.0122 C   0  0  0  0  0  0  0  0  0  0  0  0
    8.6710  -17.1014   18.9528 O   0  0  0  0  0  0  0  0  0  0  0  0
    7.1066  -12.8181   19.6540 C   0  0  0  0  0  0  0  0  0  0  0  0
    7.4495  -13.6029   20.8606 C   0  0  2  0  0  0  0  0  0  0  0  0
    8.4990  -12.8721   21.6662 C   0  0  0  0  0  0  0  0  0  0  0  0
    7.9250  -15.0030   20.6014 C   0  0  2  0  0  0  0  0  0  0  0  0
    7.0046  -15.7810   19.8133 N   0  0  0  0  0  0  0  0  0  0  0  0
    8.2820  -15.7094   21.8780 C   0  0  0  0  0  0  0  0  0  0  0  0
    7.4135  -15.9675   22.7506 O   0  0  0  0  0  0  0  0  0  0  0  0
   11.0187  -18.4829   22.1054 O   0  0  0  0  0  0  0  0  0  0  0  0
   10.2511  -18.2258   23.2140 C   0  0  0  0  0  0  0  0  0  0  0  0
   10.0348  -16.7324   23.3640 C   0  0  2  0  0  0  0  0  0  0  0  0
    9.6335  -16.1118   22.1382 N   0  0  0  0  0  0  0  0  0  0  0  0
   11.2827  -16.1054   23.8487 C   0  0  0  0  0  0  0  0  0  0  0  0
   11.8636  -15.2738   23.1128 O   0  0  0  0  0  0  0  0  0  0  0  0
   11.8368  -16.4053   25.0947 O   0  0  0  0  0  0  0  0  0  0  0  0
  1  2  1  0
  3  4  2  0
  3  2  1  0
  6  5  1  6
  6  8  1  0
  7  6  1  0
  8  9  1  1
  9  3  1  0
 10 15  1  0
 10  8  1  0
 11 10  2  0
 14 13  1  6
 13 12  1  0
 14 15  1  0
 14 16  1  0
 16 18  1  0
 17 16  2  0
M  END
$$$$
