GVS.pdb
     RDKit          3D

 18 17  0  0  1  0  0  0  0  0999 V2000
    7.0860  -16.2303   21.3537 N   0  0  0  0  0  0  0  0  0  0  0  0
    6.3776  -16.0284   22.5816 C   0  0  0  0  0  0  0  0  0  0  0  0
    7.2773  -15.2944   23.5403 C   0  0  0  0  0  0  0  0  0  0  0  0
    8.5246  -15.2207   23.3447 O   0  0  0  0  0  0  0  0  0  0  0  0
    6.3420  -12.0055   25.9432 C   0  0  0  0  0  0  0  0  0  0  0  0
    6.9526  -13.1579   26.6419 C   0  0  2  0  0  0  0  0  0  0  0  0
    7.9547  -12.6670   27.6613 C   0  0  0  0  0  0  0  0  0  0  0  0
    7.6197  -14.1671   25.7530 C   0  0  2  0  0  0  0  0  0  0  0  0
    6.7645  -14.6551   24.7024 N   0  0  0  0  0  0  0  0  0  0  0  0
    8.2078  -15.2984   26.5471 C   0  0  0  0  0  0  0  0  0  0  0  0
    7.4797  -16.1774   27.0758 O   0  0  0  0  0  0  0  0  0  0  0  0
   12.2605  -16.1643   26.2219 O   0  0  0  0  0  0  0  0  0  0  0  0
   11.3666  -17.1297   26.6136 C   0  0  0  0  0  0  0  0  0  0  0  0
   10.2392  -16.5039   27.4114 C   0  0  2  0  0  0  0  0  0  0  0  0
    9.6263  -15.4074   26.7253 N   0  0  0  0  0  0  0  0  0  0  0  0
   10.7626  -16.0402   28.7138 C   0  0  0  0  0  0  0  0  0  0  0  0
   11.2684  -16.8813   29.4931 O   0  0  0  0  0  0  0  0  0  0  0  0
   10.7140  -14.7012   29.1068 O   0  0  0  0  0  0  0  0  0  0  0  0
  1  2  1  0
  3  4  2  0
  3  2  1  0
  6  5  1  6
  6  8  1  0
  7  6  1  0
  8  9  1  6
  9  3  1  0
 10 15  1  0
 10  8  1  0
 11 10  2  0
 14 13  1  6
 13 12  1  0
 14 15  1  0
 14 16  1  0
 16 18  1  0
 17 16  2  0
M  END
$$$$
