GVS.pdb
     RDKit          3D

 18 17  0  0  1  0  0  0  0  0999 V2000
    5.0310  -18.0152   22.8191 N   0  0  0  0  0  0  0  0  0  0  0  0
    5.0580  -17.5697   24.1796 C   0  0  0  0  0  0  0  0  0  0  0  0
    6.1492  -16.5425   24.3272 C   0  0  0  0  0  0  0  0  0  0  0  0
    7.0891  -16.4573   23.4854 O   0  0  0  0  0  0  0  0  0  0  0  0
    5.9708  -12.7478   26.1466 C   0  0  0  0  0  0  0  0  0  0  0  0
    7.0205  -13.6701   26.6331 C   0  0  2  0  0  0  0  0  0  0  0  0
    8.2970  -12.9033   26.8915 C   0  0  0  0  0  0  0  0  0  0  0  0
    7.3255  -14.8291   25.7289 C   0  0  2  0  0  0  0  0  0  0  0  0
    6.1690  -15.6276   25.4157 N   0  0  0  0  0  0  0  0  0  0  0  0
    8.4409  -15.6749   26.2735 C   0  0  0  0  0  0  0  0  0  0  0  0
    8.2750  -16.4119   27.2794 O   0  0  0  0  0  0  0  0  0  0  0  0
   12.2847  -15.6350   24.4587 O   0  0  0  0  0  0  0  0  0  0  0  0
   11.7060  -16.8353   24.7885 C   0  0  0  0  0  0  0  0  0  0  0  0
   10.7361  -16.6482   25.9390 C   0  0  2  0  0  0  0  0  0  0  0  0
    9.7352  -15.6648   25.6565 N   0  0  0  0  0  0  0  0  0  0  0  0
   11.4865  -16.2542   27.1501 C   0  0  0  0  0  0  0  0  0  0  0  0
   11.2068  -15.1652   27.7038 O   0  0  0  0  0  0  0  0  0  0  0  0
   12.4941  -17.0499   27.6990 O   0  0  0  0  0  0  0  0  0  0  0  0
  1  2  1  0
  3  4  2  0
  3  2  1  0
  6  5  1  6
  6  8  1  0
  7  6  1  0
  8  9  1  1
  9  3  1  0
 10 15  1  0
 10  8  1  0
 11 10  2  0
 14 13  1  6
 13 12  1  0
 14 15  1  0
 14 16  1  0
 16 18  1  0
 17 16  2  0
M  END
$$$$
