GVS.pdb
     RDKit          3D

 18 17  0  0  1  0  0  0  0  0999 V2000
    8.1269  -18.2227   17.1887 N   0  0  0  0  0  0  0  0  0  0  0  0
    7.2086  -17.5841   18.0829 C   0  0  0  0  0  0  0  0  0  0  0  0
    7.9849  -16.6821   19.0053 C   0  0  0  0  0  0  0  0  0  0  0  0
    9.2446  -16.7559   19.0894 O   0  0  0  0  0  0  0  0  0  0  0  0
    7.2931  -12.7678   19.5284 C   0  0  0  0  0  0  0  0  0  0  0  0
    7.4800  -13.4711   20.8167 C   0  0  2  0  0  0  0  0  0  0  0  0
    8.3486  -12.6401   21.7329 C   0  0  0  0  0  0  0  0  0  0  0  0
    8.0627  -14.8509   20.7157 C   0  0  2  0  0  0  0  0  0  0  0  0
    7.3368  -15.7120   19.8185 N   0  0  0  0  0  0  0  0  0  0  0  0
    8.2215  -15.4830   22.0690 C   0  0  0  0  0  0  0  0  0  0  0  0
    7.2363  -15.9543   22.6931 O   0  0  0  0  0  0  0  0  0  0  0  0
   10.3270  -19.0228   23.4902 O   0  0  0  0  0  0  0  0  0  0  0  0
    9.8973  -17.9871   22.6983 C   0  0  0  0  0  0  0  0  0  0  0  0
    9.9188  -16.6884   23.4807 C   0  0  2  0  0  0  0  0  0  0  0  0
    9.5109  -15.5667   22.6906 N   0  0  0  0  0  0  0  0  0  0  0  0
   11.2828  -16.4552   24.0009 C   0  0  0  0  0  0  0  0  0  0  0  0
   12.0998  -15.8275   23.2874 O   0  0  0  0  0  0  0  0  0  0  0  0
   11.6934  -16.9082   25.2562 O   0  0  0  0  0  0  0  0  0  0  0  0
  1  2  1  0
  3  4  2  0
  3  2  1  0
  6  5  1  6
  6  8  1  0
  7  6  1  0
  8  9  1  6
  9  3  1  0
 10 15  1  0
 10  8  1  0
 11 10  2  0
 14 13  1  6
 13 12  1  0
 14 15  1  0
 14 16  1  0
 16 18  1  0
 17 16  2  0
M  END
$$$$
