GVS.pdb
     RDKit          3D

 18 17  0  0  1  0  0  0  0  0999 V2000
    7.1134  -17.7642   17.1956 N   0  0  0  0  0  0  0  0  0  0  0  0
    6.4860  -16.9991   18.2307 C   0  0  0  0  0  0  0  0  0  0  0  0
    7.5574  -16.4124   19.1111 C   0  0  0  0  0  0  0  0  0  0  0  0
    8.7540  -16.8170   19.0478 O   0  0  0  0  0  0  0  0  0  0  0  0
    6.8213  -13.2835   22.2648 C   0  0  0  0  0  0  0  0  0  0  0  0
    7.9626  -13.4035   21.3309 C   0  0  2  0  0  0  0  0  0  0  0  0
    7.7168  -12.5489   20.1087 C   0  0  0  0  0  0  0  0  0  0  0  0
    8.2852  -14.8012   20.8885 C   0  0  2  0  0  0  0  0  0  0  0  0
    7.2704  -15.3818   20.0480 N   0  0  0  0  0  0  0  0  0  0  0  0
    8.6000  -15.6909   22.0571 C   0  0  0  0  0  0  0  0  0  0  0  0
    7.6884  -16.2067   22.7537 O   0  0  0  0  0  0  0  0  0  0  0  0
   11.2756  -18.3638   22.0549 O   0  0  0  0  0  0  0  0  0  0  0  0
   10.4846  -18.2490   23.1709 C   0  0  0  0  0  0  0  0  0  0  0  0
   10.3105  -16.7884   23.5391 C   0  0  2  0  0  0  0  0  0  0  0  0
    9.9590  -15.9782   22.4127 N   0  0  0  0  0  0  0  0  0  0  0  0
   11.5646  -16.2837   24.1374 C   0  0  0  0  0  0  0  0  0  0  0  0
   12.1860  -15.3680   23.5494 O   0  0  0  0  0  0  0  0  0  0  0  0
   12.0812  -16.7893   25.3320 O   0  0  0  0  0  0  0  0  0  0  0  0
  1  2  1  0
  3  4  2  0
  3  2  1  0
  6  5  1  1
  6  8  1  0
  7  6  1  0
  8  9  1  1
  9  3  1  0
 10 15  1  0
 10  8  1  0
 11 10  2  0
 14 13  1  6
 13 12  1  0
 14 15  1  0
 14 16  1  0
 16 18  1  0
 17 16  2  0
M  END
$$$$
