GVS.pdb
     RDKit          3D

 18 17  0  0  1  0  0  0  0  0999 V2000
    4.8067  -18.1046   23.1282 N   0  0  0  0  0  0  0  0  0  0  0  0
    4.8240  -17.4958   24.4242 C   0  0  0  0  0  0  0  0  0  0  0  0
    5.9340  -16.4790   24.4626 C   0  0  0  0  0  0  0  0  0  0  0  0
    6.7652  -16.3781   23.5148 O   0  0  0  0  0  0  0  0  0  0  0  0
    5.9210  -12.6909   26.2322 C   0  0  0  0  0  0  0  0  0  0  0  0
    7.0345  -13.5839   26.6219 C   0  0  2  0  0  0  0  0  0  0  0  0
    8.3174  -12.7908   26.7199 C   0  0  0  0  0  0  0  0  0  0  0  0
    7.2596  -14.7606   25.7172 C   0  0  2  0  0  0  0  0  0  0  0  0
    6.0943  -15.5921   25.5625 N   0  0  0  0  0  0  0  0  0  0  0  0
    8.4516  -15.5671   26.1476 C   0  0  0  0  0  0  0  0  0  0  0  0
    8.4522  -16.2129   27.2270 O   0  0  0  0  0  0  0  0  0  0  0  0
   12.1173  -15.5239   23.9812 O   0  0  0  0  0  0  0  0  0  0  0  0
   11.5826  -16.7328   24.3515 C   0  0  0  0  0  0  0  0  0  0  0  0
   10.6883  -16.5584   25.5637 C   0  0  2  0  0  0  0  0  0  0  0  0
    9.6302  -15.6226   25.3328 N   0  0  0  0  0  0  0  0  0  0  0  0
   11.5044  -16.1071   26.7106 C   0  0  0  0  0  0  0  0  0  0  0  0
   11.2279  -15.0110   27.2516 O   0  0  0  0  0  0  0  0  0  0  0  0
   12.5704  -16.8563   27.2125 O   0  0  0  0  0  0  0  0  0  0  0  0
  1  2  1  0
  3  4  2  0
  3  2  1  0
  6  5  1  6
  6  8  1  0
  7  6  1  0
  8  9  1  1
  9  3  1  0
 10 15  1  0
 10  8  1  0
 11 10  2  0
 14 13  1  6
 13 12  1  0
 14 15  1  0
 14 16  1  0
 16 18  1  0
 17 16  2  0
M  END
$$$$
