GVS.pdb
     RDKit          3D

 18 17  0  0  1  0  0  0  0  0999 V2000
    4.8226  -17.6898   22.5981 N   0  0  0  0  0  0  0  0  0  0  0  0
    4.8617  -17.3443   23.9871 C   0  0  0  0  0  0  0  0  0  0  0  0
    6.0099  -16.3972   24.2145 C   0  0  0  0  0  0  0  0  0  0  0  0
    7.0102  -16.3801   23.4409 O   0  0  0  0  0  0  0  0  0  0  0  0
    5.9765  -12.6125   26.0735 C   0  0  0  0  0  0  0  0  0  0  0  0
    6.9274  -13.6111   26.6098 C   0  0  2  0  0  0  0  0  0  0  0  0
    8.2356  -12.9383   26.9570 C   0  0  0  0  0  0  0  0  0  0  0  0
    7.2068  -14.7792   25.7092 C   0  0  2  0  0  0  0  0  0  0  0  0
    6.0184  -15.4847   25.3052 N   0  0  0  0  0  0  0  0  0  0  0  0
    8.2162  -15.7129   26.3139 C   0  0  0  0  0  0  0  0  0  0  0  0
    7.9266  -16.4481   27.2926 O   0  0  0  0  0  0  0  0  0  0  0  0
   12.1126  -15.9127   24.7155 O   0  0  0  0  0  0  0  0  0  0  0  0
   11.5009  -17.0885   25.0730 C   0  0  0  0  0  0  0  0  0  0  0  0
   10.4633  -16.8308   26.1483 C   0  0  2  0  0  0  0  0  0  0  0  0
    9.5475  -15.7917   25.7873 N   0  0  0  0  0  0  0  0  0  0  0  0
   11.1466  -16.4700   27.4086 C   0  0  0  0  0  0  0  0  0  0  0  0
   10.9203  -15.3465   27.9156 O   0  0  0  0  0  0  0  0  0  0  0  0
   12.0335  -17.3342   28.0538 O   0  0  0  0  0  0  0  0  0  0  0  0
  1  2  1  0
  3  4  2  0
  3  2  1  0
  6  5  1  6
  6  8  1  0
  7  6  1  0
  8  9  1  1
  9  3  1  0
 10 15  1  0
 10  8  1  0
 11 10  2  0
 14 13  1  6
 13 12  1  0
 14 15  1  0
 14 16  1  0
 16 18  1  0
 17 16  2  0
M  END
$$$$
