GVS.pdb
     RDKit          3D

 18 17  0  0  1  0  0  0  0  0999 V2000
    7.5139  -14.1402   20.2787 N   0  0  0  0  0  0  0  0  0  0  0  0
    6.5529  -14.0245   21.3339 C   0  0  0  0  0  0  0  0  0  0  0  0
    7.2848  -13.9984   22.6496 C   0  0  0  0  0  0  0  0  0  0  0  0
    8.5011  -14.3352   22.7312 O   0  0  0  0  0  0  0  0  0  0  0  0
    6.2992  -11.4501   25.7875 C   0  0  0  0  0  0  0  0  0  0  0  0
    6.6236  -12.8366   26.1894 C   0  0  2  0  0  0  0  0  0  0  0  0
    7.4945  -12.8217   27.4245 C   0  0  0  0  0  0  0  0  0  0  0  0
    7.2916  -13.6705   25.1349 C   0  0  2  0  0  0  0  0  0  0  0  0
    6.6417  -13.5954   23.8522 N   0  0  0  0  0  0  0  0  0  0  0  0
    7.4554  -15.0956   25.5805 C   0  0  0  0  0  0  0  0  0  0  0  0
    6.4653  -15.8603   25.7121 O   0  0  0  0  0  0  0  0  0  0  0  0
   10.7751  -17.1912   24.7587 O   0  0  0  0  0  0  0  0  0  0  0  0
    9.6322  -17.8138   25.1953 C   0  0  0  0  0  0  0  0  0  0  0  0
    8.9656  -16.9835   26.2749 C   0  0  2  0  0  0  0  0  0  0  0  0
    8.7554  -15.6267   25.8702 N   0  0  0  0  0  0  0  0  0  0  0  0
    9.7994  -17.0105   27.4953 C   0  0  0  0  0  0  0  0  0  0  0  0
   10.0211  -18.1131   28.0483 O   0  0  0  0  0  0  0  0  0  0  0  0
   10.3481  -15.8542   28.0535 O   0  0  0  0  0  0  0  0  0  0  0  0
  1  2  1  0
  3  4  2  0
  3  2  1  0
  6  5  1  6
  6  8  1  0
  7  6  1  0
  8  9  1  6
  9  3  1  0
 10 15  1  0
 10  8  1  0
 11 10  2  0
 14 13  1  6
 13 12  1  0
 14 15  1  0
 14 16  1  0
 16 18  1  0
 17 16  2  0
M  END
$$$$
