GVS.pdb
     RDKit          3D

 18 17  0  0  1  0  0  0  0  0999 V2000
    5.1901  -19.7339   24.4390 N   0  0  0  0  0  0  0  0  0  0  0  0
    5.5916  -18.8033   25.4506 C   0  0  0  0  0  0  0  0  0  0  0  0
    6.2839  -17.6421   24.7877 C   0  0  0  0  0  0  0  0  0  0  0  0
    6.5527  -17.6562   23.5520 O   0  0  0  0  0  0  0  0  0  0  0  0
    6.0342  -13.5806   25.7137 C   0  0  0  0  0  0  0  0  0  0  0  0
    7.4012  -14.1441   25.6603 C   0  0  2  0  0  0  0  0  0  0  0  0
    8.3362  -13.1587   24.9977 C   0  0  0  0  0  0  0  0  0  0  0  0
    7.5220  -15.4696   24.9659 C   0  0  2  0  0  0  0  0  0  0  0  0
    6.6638  -16.4841   25.5204 N   0  0  0  0  0  0  0  0  0  0  0  0
    8.9492  -15.9343   24.9087 C   0  0  0  0  0  0  0  0  0  0  0  0
    9.5411  -16.3641   25.9321 O   0  0  0  0  0  0  0  0  0  0  0  0
   11.0100  -15.9763   21.2069 O   0  0  0  0  0  0  0  0  0  0  0  0
   11.1483  -17.0328   22.0725 C   0  0  0  0  0  0  0  0  0  0  0  0
   10.9342  -16.5689   23.5002 C   0  0  2  0  0  0  0  0  0  0  0  0
    9.6810  -15.9001   23.6761 N   0  0  0  0  0  0  0  0  0  0  0  0
   12.0356  -15.6628   23.8887 C   0  0  0  0  0  0  0  0  0  0  0  0
   11.7666  -14.4679   24.1543 O   0  0  0  0  0  0  0  0  0  0  0  0
   13.3628  -16.0889   23.9705 O   0  0  0  0  0  0  0  0  0  0  0  0
  1  2  1  0
  3  4  2  0
  3  2  1  0
  6  5  1  6
  6  8  1  0
  7  6  1  0
  8  9  1  1
  9  3  1  0
 10 15  1  0
 10  8  1  0
 11 10  2  0
 14 13  1  6
 13 12  1  0
 14 15  1  0
 14 16  1  0
 16 18  1  0
 17 16  2  0
M  END
$$$$
