MMN.pdb
     RDKit          3D

 25 24  0  0  1  0  0  0  0  0999 V2000
   17.0500  -14.7127  -10.5695 C   0  0  0  0  0  0  0  0  0  0  0  0
   16.8577  -12.9372  -10.3232 S   0  0  0  0  0  0  0  0  0  0  0  0
   16.6604  -12.0687  -11.9276 C   0  0  0  0  0  0  0  0  0  0  0  0
   16.5127  -10.6004  -11.6821 C   0  0  0  0  0  0  0  0  0  0  0  0
   15.4347  -10.2160  -10.7296 C   0  0  2  0  0  0  0  0  0  0  0  0
   14.1712  -10.6388  -11.3582 N   0  0  0  0  0  0  0  0  0  0  0  0
   15.3455   -8.7446  -10.5660 C   0  0  0  0  0  0  0  0  0  0  0  0
   14.8538   -8.0786  -11.5159 O   0  0  0  0  0  0  0  0  0  0  0  0
   12.6558   -5.2075   -6.3850 C   0  0  0  0  0  0  0  0  0  0  0  0
   13.9868   -4.0196   -6.7075 S   0  0  0  0  0  0  0  0  0  0  0  0
   14.9819   -4.6460   -8.0609 C   0  0  0  0  0  0  0  0  0  0  0  0
   15.1928   -6.1283   -8.0413 C   0  0  0  0  0  0  0  0  0  0  0  0
   15.7783   -6.6378   -9.3505 C   0  0  2  0  0  0  0  0  0  0  0  0
   15.7876   -8.0721   -9.3961 N   0  0  0  0  0  0  0  0  0  0  0  0
   17.1482   -6.0730   -9.5604 C   0  0  0  0  0  0  0  0  0  0  0  0
   18.1272   -6.3163   -8.8454 O   0  0  0  0  0  0  0  0  0  0  0  0
   21.1196   -4.3609  -12.2069 N   0  0  0  0  0  0  0  0  0  0  0  0
   20.6332   -5.6810  -12.3701 C   0  0  0  0  0  0  0  0  0  0  0  0
   21.3834   -6.4800  -12.9891 O   0  0  0  0  0  0  0  0  0  0  0  0
   19.3190   -6.0094  -11.8163 C   0  0  0  0  0  0  0  0  0  0  0  0
   18.6052   -4.8114  -11.1885 C   0  0  2  0  0  0  0  0  0  0  0  0
   17.3101   -5.1918  -10.6782 N   0  0  0  0  0  0  0  0  0  0  0  0
   18.4946   -3.8188  -12.3156 C   0  0  0  0  0  0  0  0  0  0  0  0
   19.2981   -2.8527  -12.3764 O   0  0  0  0  0  0  0  0  0  0  0  0
   17.5496   -3.9094  -13.3000 O   0  0  0  0  0  0  0  0  0  0  0  0
  1  2  1  0
  3  2  1  0
  4  3  1  0
  5  6  1  6
  5  4  1  0
  7  5  1  0
  8  7  2  0
 10  9  1  0
 10 11  1  0
 11 12  1  0
 13 12  1  1
 13 15  1  0
 13 14  1  0
 14  7  1  0
 15 16  2  0
 18 17  1  0
 19 18  2  0
 20 18  1  0
 21 20  1  6
 22 21  1  0
 22 15  1  0
 23 21  1  0
 24 23  2  0
 25 23  1  0
M  END
$$$$
