MMN.pdb
     RDKit          3D

 25 24  0  0  1  0  0  0  0  0999 V2000
   25.0492  -19.7943  -19.1259 C   0  0  0  0  0  0  0  0  0  0  0  0
   26.4616  -19.9156  -20.2396 S   0  0  0  0  0  0  0  0  0  0  0  0
   27.8654  -20.7761  -19.4295 C   0  0  0  0  0  0  0  0  0  0  0  0
   27.3360  -21.7923  -18.4677 C   0  0  0  0  0  0  0  0  0  0  0  0
   27.9786  -21.7981  -17.1245 C   0  0  2  0  0  0  0  0  0  0  0  0
   29.0974  -22.7522  -17.2166 N   0  0  0  0  0  0  0  0  0  0  0  0
   27.0662  -22.3270  -16.0817 C   0  0  0  0  0  0  0  0  0  0  0  0
   26.6576  -23.5123  -16.2075 O   0  0  0  0  0  0  0  0  0  0  0  0
   24.0389  -20.3428   -9.2745 C   0  0  0  0  0  0  0  0  0  0  0  0
   25.3907  -21.2969  -10.0153 S   0  0  0  0  0  0  0  0  0  0  0  0
   25.3887  -20.9933  -11.7823 C   0  0  0  0  0  0  0  0  0  0  0  0
   26.3373  -21.8518  -12.5601 C   0  0  0  0  0  0  0  0  0  0  0  0
   25.8163  -22.1549  -13.9577 C   0  0  2  0  0  0  0  0  0  0  0  0
   26.6445  -21.5570  -14.9656 N   0  0  0  0  0  0  0  0  0  0  0  0
   24.3914  -21.7159  -14.0863 C   0  0  0  0  0  0  0  0  0  0  0  0
   24.0217  -20.5386  -14.1648 O   0  0  0  0  0  0  0  0  0  0  0  0
   19.2488  -22.3258  -14.3163 N   0  0  0  0  0  0  0  0  0  0  0  0
   19.7451  -23.4959  -13.6914 C   0  0  0  0  0  0  0  0  0  0  0  0
   18.8843  -24.3145  -13.2751 O   0  0  0  0  0  0  0  0  0  0  0  0
   21.1949  -23.6607  -13.5794 C   0  0  0  0  0  0  0  0  0  0  0  0
   21.9881  -22.4816  -14.1443 C   0  0  2  0  0  0  0  0  0  0  0  0
   23.4050  -22.7543  -14.1209 N   0  0  0  0  0  0  0  0  0  0  0  0
   21.6236  -21.3301  -13.2449 C   0  0  0  0  0  0  0  0  0  0  0  0
   20.4536  -20.8681  -13.2669 O   0  0  0  0  0  0  0  0  0  0  0  0
   22.5113  -20.7444  -12.3851 O   0  0  0  0  0  0  0  0  0  0  0  0
  1  2  1  0
  3  2  1  0
  4  3  1  0
  5  6  1  6
  5  4  1  0
  7  5  1  0
  8  7  2  0
 10  9  1  0
 10 11  1  0
 11 12  1  0
 13 12  1  1
 13 15  1  0
 13 14  1  0
 14  7  1  0
 15 16  2  0
 18 17  1  0
 19 18  2  0
 20 18  1  0
 21 20  1  1
 22 21  1  0
 22 15  1  0
 23 21  1  0
 24 23  2  0
 25 23  1  0
M  END
$$$$
