MMN.pdb
     RDKit          3D

 25 24  0  0  1  0  0  0  0  0999 V2000
   20.3509  -22.5350  -15.0976 C   0  0  0  0  0  0  0  0  0  0  0  0
   18.9006  -21.5306  -15.4688 S   0  0  0  0  0  0  0  0  0  0  0  0
   19.1789  -20.5008  -16.9619 C   0  0  0  0  0  0  0  0  0  0  0  0
   19.9663  -19.2854  -16.5866 C   0  0  0  0  0  0  0  0  0  0  0  0
   20.9875  -18.8524  -17.5800 C   0  0  2  0  0  0  0  0  0  0  0  0
   22.0527  -19.8690  -17.5328 N   0  0  0  0  0  0  0  0  0  0  0  0
   21.6210  -17.5686  -17.1922 C   0  0  0  0  0  0  0  0  0  0  0  0
   20.8659  -16.5798  -16.9930 O   0  0  0  0  0  0  0  0  0  0  0  0
   27.8267  -13.1755  -15.1651 C   0  0  0  0  0  0  0  0  0  0  0  0
   27.2835  -14.8865  -15.4180 S   0  0  0  0  0  0  0  0  0  0  0  0
   25.5949  -14.8557  -16.0196 C   0  0  0  0  0  0  0  0  0  0  0  0
   24.9924  -16.2076  -16.2458 C   0  0  0  0  0  0  0  0  0  0  0  0
   23.5825  -16.1156  -16.8117 C   0  0  2  0  0  0  0  0  0  0  0  0
   23.0248  -17.4179  -17.0405 N   0  0  0  0  0  0  0  0  0  0  0  0
   23.5775  -15.2894  -18.0595 C   0  0  0  0  0  0  0  0  0  0  0  0
   24.1174  -15.6164  -19.1227 O   0  0  0  0  0  0  0  0  0  0  0  0
   21.7724  -11.9224  -16.8434 N   0  0  0  0  0  0  0  0  0  0  0  0
   21.0313  -11.7559  -18.0388 C   0  0  0  0  0  0  0  0  0  0  0  0
   20.0301  -10.9959  -17.9738 O   0  0  0  0  0  0  0  0  0  0  0  0
   21.4783  -12.4676  -19.2368 C   0  0  0  0  0  0  0  0  0  0  0  0
   22.8630  -13.0998  -19.0895 C   0  0  2  0  0  0  0  0  0  0  0  0
   22.8890  -14.0349  -17.9906 N   0  0  0  0  0  0  0  0  0  0  0  0
   23.7776  -11.9276  -18.8502 C   0  0  0  0  0  0  0  0  0  0  0  0
   23.9247  -11.0585  -19.7478 O   0  0  0  0  0  0  0  0  0  0  0  0
   24.4731  -11.7488  -17.6863 O   0  0  0  0  0  0  0  0  0  0  0  0
  1  2  1  0
  3  2  1  0
  4  3  1  0
  5  6  1  1
  5  4  1  0
  7  5  1  0
  8  7  2  0
 10  9  1  0
 10 11  1  0
 11 12  1  0
 13 12  1  6
 13 15  1  0
 13 14  1  0
 14  7  1  0
 15 16  2  0
 18 17  1  0
 19 18  2  0
 20 18  1  0
 21 20  1  1
 22 21  1  0
 22 15  1  0
 23 21  1  0
 24 23  2  0
 25 23  1  0
M  END
$$$$
