MMN.pdb
     RDKit          3D

 25 24  0  0  1  0  0  0  0  0999 V2000
   25.9979  -16.7534  -16.3304 C   0  0  0  0  0  0  0  0  0  0  0  0
   27.7952  -16.6133  -16.3134 S   0  0  0  0  0  0  0  0  0  0  0  0
   28.5611  -18.0781  -15.5167 C   0  0  0  0  0  0  0  0  0  0  0  0
   27.5082  -18.8571  -14.7938 C   0  0  0  0  0  0  0  0  0  0  0  0
   27.9971  -20.0372  -14.0286 C   0  0  2  0  0  0  0  0  0  0  0  0
   28.4271  -21.0217  -15.0367 N   0  0  0  0  0  0  0  0  0  0  0  0
   26.9065  -20.6816  -13.2572 C   0  0  0  0  0  0  0  0  0  0  0  0
   26.2493  -21.5951  -13.8238 O   0  0  0  0  0  0  0  0  0  0  0  0
   26.5183  -19.3289   -6.9972 C   0  0  0  0  0  0  0  0  0  0  0  0
   26.6676  -21.1039   -7.3345 S   0  0  0  0  0  0  0  0  0  0  0  0
   26.5875  -21.3463   -9.1091 C   0  0  0  0  0  0  0  0  0  0  0  0
   25.4559  -20.6332   -9.7820 C   0  0  0  0  0  0  0  0  0  0  0  0
   25.4356  -20.8853  -11.2828 C   0  0  2  0  0  0  0  0  0  0  0  0
   26.5831  -20.3108  -11.9252 N   0  0  0  0  0  0  0  0  0  0  0  0
   24.1606  -20.3745  -11.8771 C   0  0  0  0  0  0  0  0  0  0  0  0
   24.0077  -19.2417  -12.3484 O   0  0  0  0  0  0  0  0  0  0  0  0
   20.1011  -22.8993  -15.4761 N   0  0  0  0  0  0  0  0  0  0  0  0
   20.4793  -21.8825  -14.5655 C   0  0  0  0  0  0  0  0  0  0  0  0
   19.7554  -20.8530  -14.5460 O   0  0  0  0  0  0  0  0  0  0  0  0
   21.6617  -22.1028  -13.7318 C   0  0  0  0  0  0  0  0  0  0  0  0
   21.8527  -21.0378  -12.6511 C   0  0  2  0  0  0  0  0  0  0  0  0
   23.0540  -21.2842  -11.8904 N   0  0  0  0  0  0  0  0  0  0  0  0
   20.6160  -21.1538  -11.7996 C   0  0  0  0  0  0  0  0  0  0  0  0
   20.6450  -21.8460  -10.7495 O   0  0  0  0  0  0  0  0  0  0  0  0
   19.4362  -20.5352  -12.1087 O   0  0  0  0  0  0  0  0  0  0  0  0
  1  2  1  0
  3  2  1  0
  4  3  1  0
  5  6  1  6
  5  4  1  0
  7  5  1  0
  8  7  2  0
 10  9  1  0
 10 11  1  0
 11 12  1  0
 13 12  1  1
 13 15  1  0
 13 14  1  0
 14  7  1  0
 15 16  2  0
 18 17  1  0
 19 18  2  0
 20 18  1  0
 21 20  1  6
 22 21  1  0
 22 15  1  0
 23 21  1  0
 24 23  2  0
 25 23  1  0
M  END
$$$$
