MMN.pdb
     RDKit          3D

 25 24  0  0  1  0  0  0  0  0999 V2000
   19.2982  -11.0063  -21.7448 C   0  0  0  0  0  0  0  0  0  0  0  0
   18.9827  -12.7425  -21.3754 S   0  0  0  0  0  0  0  0  0  0  0  0
   20.3804  -13.4805  -20.4431 C   0  0  0  0  0  0  0  0  0  0  0  0
   20.8021  -12.5428  -19.3564 C   0  0  0  0  0  0  0  0  0  0  0  0
   22.1741  -12.7602  -18.8201 C   0  0  2  0  0  0  0  0  0  0  0  0
   22.1705  -14.1142  -18.2395 N   0  0  0  0  0  0  0  0  0  0  0  0
   22.4816  -11.8310  -17.7058 C   0  0  0  0  0  0  0  0  0  0  0  0
   21.7395  -11.8712  -16.6883 O   0  0  0  0  0  0  0  0  0  0  0  0
   27.9666  -12.9654  -14.7511 C   0  0  0  0  0  0  0  0  0  0  0  0
   27.5486  -11.3273  -15.4057 S   0  0  0  0  0  0  0  0  0  0  0  0
   25.7943  -11.3017  -15.7746 C   0  0  0  0  0  0  0  0  0  0  0  0
   25.2860   -9.9872  -16.2802 C   0  0  0  0  0  0  0  0  0  0  0  0
   23.8056  -10.0448  -16.6288 C   0  0  2  0  0  0  0  0  0  0  0  0
   23.5646  -10.9135  -17.7454 N   0  0  0  0  0  0  0  0  0  0  0  0
   23.2785   -8.6671  -16.8813 C   0  0  0  0  0  0  0  0  0  0  0  0
   23.5378   -7.9861  -17.8802 O   0  0  0  0  0  0  0  0  0  0  0  0
   18.3795   -5.4310  -16.7181 N   0  0  0  0  0  0  0  0  0  0  0  0
   19.7707   -5.5109  -16.4648 C   0  0  0  0  0  0  0  0  0  0  0  0
   20.3932   -4.4180  -16.4171 O   0  0  0  0  0  0  0  0  0  0  0  0
   20.3674   -6.8345  -16.2812 C   0  0  0  0  0  0  0  0  0  0  0  0
   21.8629   -6.7906  -15.9645 C   0  0  2  0  0  0  0  0  0  0  0  0
   22.4116   -8.1226  -15.8791 N   0  0  0  0  0  0  0  0  0  0  0  0
   21.9372   -6.0677  -14.6456 C   0  0  0  0  0  0  0  0  0  0  0  0
   21.7195   -6.6957  -13.5775 O   0  0  0  0  0  0  0  0  0  0  0  0
   22.2352   -4.7372  -14.5393 O   0  0  0  0  0  0  0  0  0  0  0  0
  1  2  1  0
  3  2  1  0
  4  3  1  0
  5  6  1  1
  5  4  1  0
  7  5  1  0
  8  7  2  0
 10  9  1  0
 10 11  1  0
 11 12  1  0
 13 12  1  6
 13 15  1  0
 13 14  1  0
 14  7  1  0
 15 16  2  0
 18 17  1  0
 19 18  2  0
 20 18  1  0
 21 20  1  1
 22 21  1  0
 22 15  1  0
 23 21  1  0
 24 23  2  0
 25 23  1  0
M  END
$$$$
