MMN.pdb
     RDKit          3D

 25 24  0  0  1  0  0  0  0  0999 V2000
   26.9173  -16.8316  -14.0387 C   0  0  0  0  0  0  0  0  0  0  0  0
   27.5645  -18.0027  -15.2468 S   0  0  0  0  0  0  0  0  0  0  0  0
   26.3808  -19.3759  -15.5307 C   0  0  0  0  0  0  0  0  0  0  0  0
   25.8262  -19.8321  -14.2184 C   0  0  0  0  0  0  0  0  0  0  0  0
   26.6858  -20.7777  -13.4541 C   0  0  2  0  0  0  0  0  0  0  0  0
   26.5502  -22.0808  -14.1278 N   0  0  0  0  0  0  0  0  0  0  0  0
   26.1915  -20.9723  -12.0694 C   0  0  0  0  0  0  0  0  0  0  0  0
   25.2036  -21.7362  -11.9023 O   0  0  0  0  0  0  0  0  0  0  0  0
   26.8358  -20.0646   -4.2862 C   0  0  0  0  0  0  0  0  0  0  0  0
   27.5478  -19.5068   -5.8573 S   0  0  0  0  0  0  0  0  0  0  0  0
   26.5260  -20.1340   -7.1903 C   0  0  0  0  0  0  0  0  0  0  0  0
   27.0782  -19.8934   -8.5610 C   0  0  0  0  0  0  0  0  0  0  0  0
   26.1980  -20.4999   -9.6445 C   0  0  2  0  0  0  0  0  0  0  0  0
   26.7831  -20.3384  -10.9448 N   0  0  0  0  0  0  0  0  0  0  0  0
   24.8229  -19.9125   -9.5844 C   0  0  0  0  0  0  0  0  0  0  0  0
   24.5097  -18.8054  -10.0373 O   0  0  0  0  0  0  0  0  0  0  0  0
   19.8408  -20.4996  -10.2522 N   0  0  0  0  0  0  0  0  0  0  0  0
   20.7712  -21.1152  -11.1247 C   0  0  0  0  0  0  0  0  0  0  0  0
   20.3156  -21.5356  -12.2202 O   0  0  0  0  0  0  0  0  0  0  0  0
   22.1662  -21.2138  -10.6936 C   0  0  0  0  0  0  0  0  0  0  0  0
   22.4184  -20.6241   -9.3053 C   0  0  2  0  0  0  0  0  0  0  0  0
   23.8152  -20.7118   -8.9534 N   0  0  0  0  0  0  0  0  0  0  0  0
   21.5566  -21.4551   -8.3919 C   0  0  0  0  0  0  0  0  0  0  0  0
   22.0016  -22.5367   -7.9286 O   0  0  0  0  0  0  0  0  0  0  0  0
   20.2890  -21.0930   -8.0278 O   0  0  0  0  0  0  0  0  0  0  0  0
  1  2  1  0
  3  2  1  0
  4  3  1  0
  5  6  1  6
  5  4  1  0
  7  5  1  0
  8  7  2  0
 10  9  1  0
 10 11  1  0
 11 12  1  0
 13 12  1  1
 13 15  1  0
 13 14  1  0
 14  7  1  0
 15 16  2  0
 18 17  1  0
 19 18  2  0
 20 18  1  0
 21 20  1  6
 22 21  1  0
 22 15  1  0
 23 21  1  0
 24 23  2  0
 25 23  1  0
M  END
$$$$
