MMN.pdb
     RDKit          3D

 25 24  0  0  1  0  0  0  0  0999 V2000
   28.4497  -18.7748   -6.2938 C   0  0  0  0  0  0  0  0  0  0  0  0
   28.1178  -20.5191   -5.9821 S   0  0  0  0  0  0  0  0  0  0  0  0
   28.1279  -21.4797   -7.5457 C   0  0  0  0  0  0  0  0  0  0  0  0
   27.2076  -20.8324   -8.5316 C   0  0  0  0  0  0  0  0  0  0  0  0
   27.1667  -21.4641   -9.8793 C   0  0  2  0  0  0  0  0  0  0  0  0
   28.5505  -21.4293  -10.3835 N   0  0  0  0  0  0  0  0  0  0  0  0
   26.3565  -20.6691  -10.8340 C   0  0  0  0  0  0  0  0  0  0  0  0
   26.2908  -19.4242  -10.6512 O   0  0  0  0  0  0  0  0  0  0  0  0
   27.9402  -19.9586  -16.3018 C   0  0  0  0  0  0  0  0  0  0  0  0
   27.9949  -18.6138  -15.0872 S   0  0  0  0  0  0  0  0  0  0  0  0
   26.8922  -19.0324  -13.7370 C   0  0  0  0  0  0  0  0  0  0  0  0
   25.8836  -20.0893  -14.0648 C   0  0  0  0  0  0  0  0  0  0  0  0
   24.9899  -20.4124  -12.8760 C   0  0  2  0  0  0  0  0  0  0  0  0
   25.6641  -21.2525  -11.9279 N   0  0  0  0  0  0  0  0  0  0  0  0
   23.7090  -21.0295  -13.3429 C   0  0  0  0  0  0  0  0  0  0  0  0
   23.5116  -22.2452  -13.4514 O   0  0  0  0  0  0  0  0  0  0  0  0
   19.9014  -20.6002  -10.8919 N   0  0  0  0  0  0  0  0  0  0  0  0
   20.0838  -21.1429  -12.1874 C   0  0  0  0  0  0  0  0  0  0  0  0
   20.1050  -22.3988  -12.2687 O   0  0  0  0  0  0  0  0  0  0  0  0
   20.2311  -20.2184  -13.3122 C   0  0  0  0  0  0  0  0  0  0  0  0
   21.3964  -20.5669  -14.2393 C   0  0  2  0  0  0  0  0  0  0  0  0
   22.6509  -20.1243  -13.6800 N   0  0  0  0  0  0  0  0  0  0  0  0
   21.0706  -19.8500  -15.5229 C   0  0  0  0  0  0  0  0  0  0  0  0
   21.7502  -18.8491  -15.8676 O   0  0  0  0  0  0  0  0  0  0  0  0
   20.0554  -20.2335  -16.3552 O   0  0  0  0  0  0  0  0  0  0  0  0
  1  2  1  0
  3  2  1  0
  4  3  1  0
  5  6  1  6
  5  4  1  0
  7  5  1  0
  8  7  2  0
 10  9  1  0
 10 11  1  0
 11 12  1  0
 13 12  1  6
 13 15  1  0
 13 14  1  0
 14  7  1  0
 15 16  2  0
 18 17  1  0
 19 18  2  0
 20 18  1  0
 21 20  1  1
 22 21  1  0
 22 15  1  0
 23 21  1  0
 24 23  2  0
 25 23  1  0
M  END
$$$$
