MMN.pdb
     RDKit          3D

 25 24  0  0  1  0  0  0  0  0999 V2000
   28.6126  -20.2705  -17.0455 C   0  0  0  0  0  0  0  0  0  0  0  0
   28.3689  -18.5191  -17.3963 S   0  0  0  0  0  0  0  0  0  0  0  0
   28.0522  -17.5776  -15.8533 C   0  0  0  0  0  0  0  0  0  0  0  0
   28.2029  -18.4887  -14.6764 C   0  0  0  0  0  0  0  0  0  0  0  0
   26.9301  -18.9794  -14.0796 C   0  0  2  0  0  0  0  0  0  0  0  0
   26.1795  -17.7751  -13.6836 N   0  0  0  0  0  0  0  0  0  0  0  0
   27.1683  -19.7488  -12.8342 C   0  0  0  0  0  0  0  0  0  0  0  0
   27.7816  -20.8451  -12.9316 O   0  0  0  0  0  0  0  0  0  0  0  0
   28.6849  -20.0565   -5.7746 C   0  0  0  0  0  0  0  0  0  0  0  0
   27.0094  -19.6978   -6.3669 S   0  0  0  0  0  0  0  0  0  0  0  0
   26.8061  -20.4664   -7.9738 C   0  0  0  0  0  0  0  0  0  0  0  0
   26.8291  -19.5105   -9.1260 C   0  0  0  0  0  0  0  0  0  0  0  0
   26.6713  -20.2235  -10.4613 C   0  0  2  0  0  0  0  0  0  0  0  0
   26.7363  -19.3004  -11.5581 N   0  0  0  0  0  0  0  0  0  0  0  0
   25.3988  -21.0110  -10.4813 C   0  0  0  0  0  0  0  0  0  0  0  0
   25.1504  -21.9665   -9.7369 O   0  0  0  0  0  0  0  0  0  0  0  0
   19.6051  -20.2038  -11.9571 N   0  0  0  0  0  0  0  0  0  0  0  0
   20.6695  -20.9587  -11.4066 C   0  0  0  0  0  0  0  0  0  0  0  0
   20.3940  -22.1338  -11.0491 O   0  0  0  0  0  0  0  0  0  0  0  0
   21.9846  -20.3262  -11.2975 C   0  0  0  0  0  0  0  0  0  0  0  0
   23.1454  -21.2797  -11.5838 C   0  0  2  0  0  0  0  0  0  0  0  0
   24.4137  -20.6065  -11.4396 N   0  0  0  0  0  0  0  0  0  0  0  0
   22.9080  -21.7311  -13.0007 C   0  0  0  0  0  0  0  0  0  0  0  0
   21.9318  -22.4808  -13.2607 O   0  0  0  0  0  0  0  0  0  0  0  0
   23.7106  -21.3642  -14.0455 O   0  0  0  0  0  0  0  0  0  0  0  0
  1  2  1  0
  3  2  1  0
  4  3  1  0
  5  6  1  1
  5  4  1  0
  7  5  1  0
  8  7  2  0
 10  9  1  0
 10 11  1  0
 11 12  1  0
 13 12  1  1
 13 15  1  0
 13 14  1  0
 14  7  1  0
 15 16  2  0
 18 17  1  0
 19 18  2  0
 20 18  1  0
 21 20  1  6
 22 21  1  0
 22 15  1  0
 23 21  1  0
 24 23  2  0
 25 23  1  0
M  END
$$$$
