MMN.pdb
     RDKit          3D

 25 24  0  0  1  0  0  0  0  0999 V2000
   15.8431   -8.3475  -17.8390 C   0  0  0  0  0  0  0  0  0  0  0  0
   15.6568   -9.7291  -18.9820 S   0  0  0  0  0  0  0  0  0  0  0  0
   16.8965  -11.0378  -18.6389 C   0  0  0  0  0  0  0  0  0  0  0  0
   17.9837  -10.4777  -17.7773 C   0  0  0  0  0  0  0  0  0  0  0  0
   19.0859  -11.4214  -17.4433 C   0  0  2  0  0  0  0  0  0  0  0  0
   18.4432  -12.5822  -16.8032 N   0  0  0  0  0  0  0  0  0  0  0  0
   20.0111  -10.8500  -16.4346 C   0  0  0  0  0  0  0  0  0  0  0  0
   19.6118  -10.7909  -15.2410 O   0  0  0  0  0  0  0  0  0  0  0  0
   26.4639  -11.1893  -14.9785 C   0  0  0  0  0  0  0  0  0  0  0  0
   25.2750  -12.4402  -15.5341 S   0  0  0  0  0  0  0  0  0  0  0  0
   23.6296  -11.7360  -15.4286 C   0  0  0  0  0  0  0  0  0  0  0  0
   23.5506  -10.2865  -15.7956 C   0  0  0  0  0  0  0  0  0  0  0  0
   22.1218   -9.7642  -15.7498 C   0  0  2  0  0  0  0  0  0  0  0  0
   21.3088  -10.3755  -16.7620 N   0  0  0  0  0  0  0  0  0  0  0  0
   22.1114   -8.2720  -15.8643 C   0  0  0  0  0  0  0  0  0  0  0  0
   22.4438   -7.6411  -16.8743 O   0  0  0  0  0  0  0  0  0  0  0  0
   21.5894   -3.3593  -14.7584 N   0  0  0  0  0  0  0  0  0  0  0  0
   20.3611   -4.0338  -14.9641 C   0  0  0  0  0  0  0  0  0  0  0  0
   19.3424   -3.3080  -15.1050 O   0  0  0  0  0  0  0  0  0  0  0  0
   20.3701   -5.4968  -14.9964 C   0  0  0  0  0  0  0  0  0  0  0  0
   21.7236   -6.1065  -14.6291 C   0  0  2  0  0  0  0  0  0  0  0  0
   21.6790   -7.5468  -14.7070 N   0  0  0  0  0  0  0  0  0  0  0  0
   21.9716   -5.6282  -13.2229 C   0  0  0  0  0  0  0  0  0  0  0  0
   22.2739   -4.4243  -13.0182 O   0  0  0  0  0  0  0  0  0  0  0  0
   21.8844   -6.4459  -12.1300 O   0  0  0  0  0  0  0  0  0  0  0  0
  1  2  1  0
  3  2  1  0
  4  3  1  0
  5  6  1  1
  5  4  1  0
  7  5  1  0
  8  7  2  0
 10  9  1  0
 10 11  1  0
 11 12  1  0
 13 12  1  6
 13 15  1  0
 13 14  1  0
 14  7  1  0
 15 16  2  0
 18 17  1  0
 19 18  2  0
 20 18  1  0
 21 20  1  1
 22 21  1  0
 22 15  1  0
 23 21  1  0
 24 23  2  0
 25 23  1  0
M  END
$$$$
