MMN.pdb
     RDKit          3D

 25 24  0  0  1  0  0  0  0  0999 V2000
   24.3542  -18.0855  -18.6278 C   0  0  0  0  0  0  0  0  0  0  0  0
   26.0178  -17.8443  -19.2788 S   0  0  0  0  0  0  0  0  0  0  0  0
   27.2622  -18.6996  -18.2360 C   0  0  0  0  0  0  0  0  0  0  0  0
   26.5706  -19.3865  -17.1011 C   0  0  0  0  0  0  0  0  0  0  0  0
   27.4664  -20.0315  -16.1019 C   0  0  2  0  0  0  0  0  0  0  0  0
   28.1362  -21.1343  -16.8129 N   0  0  0  0  0  0  0  0  0  0  0  0
   26.6978  -20.6553  -14.9974 C   0  0  0  0  0  0  0  0  0  0  0  0
   26.2292  -21.8091  -15.1889 O   0  0  0  0  0  0  0  0  0  0  0  0
   24.6766  -21.3348   -7.4637 C   0  0  0  0  0  0  0  0  0  0  0  0
   25.7039  -20.3768   -8.6098 S   0  0  0  0  0  0  0  0  0  0  0  0
   25.2580  -20.8397  -10.2835 C   0  0  0  0  0  0  0  0  0  0  0  0
   26.0937  -20.1986  -11.3477 C   0  0  0  0  0  0  0  0  0  0  0  0
   25.6894  -20.6556  -12.7421 C   0  0  2  0  0  0  0  0  0  0  0  0
   26.4757  -20.0083  -13.7531 N   0  0  0  0  0  0  0  0  0  0  0  0
   24.2256  -20.4307  -12.9573 C   0  0  0  0  0  0  0  0  0  0  0  0
   23.7147  -19.3408  -13.2399 O   0  0  0  0  0  0  0  0  0  0  0  0
   19.3023  -23.4200  -14.2215 N   0  0  0  0  0  0  0  0  0  0  0  0
   19.8648  -22.9029  -13.0290 C   0  0  0  0  0  0  0  0  0  0  0  0
   19.0523  -22.4738  -12.1687 O   0  0  0  0  0  0  0  0  0  0  0  0
   21.3216  -22.9069  -12.8906 C   0  0  0  0  0  0  0  0  0  0  0  0
   21.9519  -21.5214  -13.0376 C   0  0  2  0  0  0  0  0  0  0  0  0
   23.3778  -21.5775  -12.8222 N   0  0  0  0  0  0  0  0  0  0  0  0
   21.2588  -20.6904  -11.9904 C   0  0  0  0  0  0  0  0  0  0  0  0
   21.5985  -20.7980  -10.7839 O   0  0  0  0  0  0  0  0  0  0  0  0
   20.2586  -19.8043  -12.2820 O   0  0  0  0  0  0  0  0  0  0  0  0
  1  2  1  0
  3  2  1  0
  4  3  1  0
  5  6  1  6
  5  4  1  0
  7  5  1  0
  8  7  2  0
 10  9  1  0
 10 11  1  0
 11 12  1  0
 13 12  1  1
 13 15  1  0
 13 14  1  0
 14  7  1  0
 15 16  2  0
 18 17  1  0
 19 18  2  0
 20 18  1  0
 21 20  1  1
 22 21  1  0
 22 15  1  0
 23 21  1  0
 24 23  2  0
 25 23  1  0
M  END
$$$$
