MMN.pdb
     RDKit          3D

 25 24  0  0  1  0  0  0  0  0999 V2000
   26.8829  -15.8211  -15.3487 C   0  0  0  0  0  0  0  0  0  0  0  0
   28.4117  -16.6710  -15.7847 S   0  0  0  0  0  0  0  0  0  0  0  0
   28.0632  -18.2193  -16.7061 C   0  0  0  0  0  0  0  0  0  0  0  0
   27.1915  -19.1061  -15.8744 C   0  0  0  0  0  0  0  0  0  0  0  0
   27.9078  -19.9833  -14.9077 C   0  0  2  0  0  0  0  0  0  0  0  0
   28.4940  -21.0720  -15.7086 N   0  0  0  0  0  0  0  0  0  0  0  0
   26.9727  -20.6268  -13.9531 C   0  0  0  0  0  0  0  0  0  0  0  0
   26.3057  -21.6143  -14.3624 O   0  0  0  0  0  0  0  0  0  0  0  0
   26.7887  -20.0132   -7.4183 C   0  0  0  0  0  0  0  0  0  0  0  0
   25.0958  -20.5929   -7.7093 S   0  0  0  0  0  0  0  0  0  0  0  0
   24.9305  -20.9906   -9.4496 C   0  0  0  0  0  0  0  0  0  0  0  0
   25.9752  -20.3754  -10.3283 C   0  0  0  0  0  0  0  0  0  0  0  0
   25.7865  -20.7557  -11.7899 C   0  0  2  0  0  0  0  0  0  0  0  0
   26.8060  -20.1761  -12.6169 N   0  0  0  0  0  0  0  0  0  0  0  0
   24.4173  -20.3686  -12.2537 C   0  0  0  0  0  0  0  0  0  0  0  0
   24.0713  -19.2173  -12.5429 O   0  0  0  0  0  0  0  0  0  0  0  0
   22.5545  -22.9259  -16.1538 N   0  0  0  0  0  0  0  0  0  0  0  0
   21.9467  -21.9851  -15.2869 C   0  0  0  0  0  0  0  0  0  0  0  0
   21.6002  -20.8914  -15.8046 O   0  0  0  0  0  0  0  0  0  0  0  0
   21.7711  -22.3501  -13.8807 C   0  0  0  0  0  0  0  0  0  0  0  0
   22.1373  -21.2274  -12.9090 C   0  0  2  0  0  0  0  0  0  0  0  0
   23.4585  -21.4273  -12.3638 N   0  0  0  0  0  0  0  0  0  0  0  0
   21.0743  -21.3023  -11.8450 C   0  0  0  0  0  0  0  0  0  0  0  0
   21.2568  -22.0247  -10.8314 O   0  0  0  0  0  0  0  0  0  0  0  0
   19.8949  -20.6138  -11.9183 O   0  0  0  0  0  0  0  0  0  0  0  0
  1  2  1  0
  3  2  1  0
  4  3  1  0
  5  6  1  6
  5  4  1  0
  7  5  1  0
  8  7  2  0
 10  9  1  0
 10 11  1  0
 11 12  1  0
 13 12  1  1
 13 15  1  0
 13 14  1  0
 14  7  1  0
 15 16  2  0
 18 17  1  0
 19 18  2  0
 20 18  1  0
 21 20  1  6
 22 21  1  0
 22 15  1  0
 23 21  1  0
 24 23  2  0
 25 23  1  0
M  END
$$$$
