HSK.pdb
     RDKit          3D

 26 26  0  0  1  0  0  0  0  0999 V2000
   22.3903  -12.7804  -19.0327 N   0  0  0  0  0  0  0  0  0  0  0  0
   23.2456  -11.8756  -18.3170 C   0  0  1  0  0  0  0  0  0  0  0  0
   23.9915  -11.0458  -19.3689 C   0  0  0  0  0  0  0  0  0  0  0  0
   24.9577  -11.9067  -20.1356 C   0  0  0  0  0  0  0  0  0  0  0  0
   26.3183  -11.8751  -19.9947 C   0  0  0  0  0  0  0  0  0  0  0  0
   26.8324  -12.7805  -20.8385 N   0  0  0  0  0  0  0  0  0  0  0  0
   25.8057  -13.3576  -21.4859 C   0  0  0  0  0  0  0  0  0  0  0  0
   24.6573  -12.8220  -21.0549 N   0  0  0  0  0  0  0  0  0  0  0  0
   22.4792  -10.8937  -17.5092 C   0  0  0  0  0  0  0  0  0  0  0  0
   21.4796  -10.2715  -18.0017 O   0  0  0  0  0  0  0  0  0  0  0  0
   21.3366   -9.1654  -13.1059 O   0  0  0  0  0  0  0  0  0  0  0  0
   22.1390  -10.0330  -13.8672 C   0  0  0  0  0  0  0  0  0  0  0  0
   22.0119   -9.6869  -15.3456 C   0  0  2  0  0  0  0  0  0  0  0  0
   22.7952  -10.5823  -16.1610 N   0  0  0  0  0  0  0  0  0  0  0  0
   22.3164   -8.2642  -15.5962 C   0  0  0  0  0  0  0  0  0  0  0  0
   23.5315   -7.9836  -15.8463 O   0  0  0  0  0  0  0  0  0  0  0  0
   21.3680   -7.2451  -15.5729 N   0  0  0  0  0  0  0  0  0  0  0  0
   21.6944   -5.8112  -15.7440 C   0  0  1  0  0  0  0  0  0  0  0  0
   20.6685   -5.1498  -16.6067 C   0  0  0  0  0  0  0  0  0  0  0  0
   21.0096   -3.7201  -16.9144 C   0  0  0  0  0  0  0  0  0  0  0  0
   20.0212   -3.0957  -17.8760 C   0  0  0  0  0  0  0  0  0  0  0  0
   20.4424   -1.6766  -18.2412 C   0  0  0  0  0  0  0  0  0  0  0  0
   19.5504   -1.0924  -19.2152 N   0  0  0  0  0  0  0  0  0  0  0  0
   21.8622   -5.2002  -14.4029 C   0  0  0  0  0  0  0  0  0  0  0  0
   22.6478   -4.0543  -14.2335 O   0  0  0  0  0  0  0  0  0  0  0  0
   21.3320   -5.6503  -13.3617 O   0  0  0  0  0  0  0  0  0  0  0  0
  2  1  1  6
  2  9  1  0
  3  4  1  0
  3  2  1  0
  4  5  2  0
  4  8  1  0
  5  6  1  0
  6  7  1  0
  8  7  2  0
  9 10  2  0
 13 12  1  1
 12 11  1  0
 13 15  1  0
 14  9  1  0
 14 13  1  0
 15 16  2  0
 17 15  1  0
 17 18  1  0
 18 24  1  0
 18 19  1  1
 20 19  1  0
 21 22  1  0
 21 20  1  0
 22 23  1  0
 24 25  1  0
 26 24  2  0
M  END
$$$$
