HSK.pdb
     RDKit          3D

 26 26  0  0  1  0  0  0  0  0999 V2000
   22.7985  -12.7998  -16.1631 N   0  0  0  0  0  0  0  0  0  0  0  0
   21.7615  -11.9726  -16.7131 C   0  0  1  0  0  0  0  0  0  0  0  0
   20.4566  -12.7714  -16.6103 C   0  0  0  0  0  0  0  0  0  0  0  0
   20.5047  -13.9821  -17.5016 C   0  0  0  0  0  0  0  0  0  0  0  0
   20.0116  -14.0371  -18.7768 C   0  0  0  0  0  0  0  0  0  0  0  0
   20.2400  -15.2719  -19.2448 N   0  0  0  0  0  0  0  0  0  0  0  0
   20.8622  -15.9628  -18.2742 C   0  0  0  0  0  0  0  0  0  0  0  0
   21.0242  -15.1721  -17.2064 N   0  0  0  0  0  0  0  0  0  0  0  0
   21.5362  -10.7424  -15.9131 C   0  0  0  0  0  0  0  0  0  0  0  0
   21.3788  -10.7983  -14.6478 O   0  0  0  0  0  0  0  0  0  0  0  0
   23.0472   -7.1552  -16.8459 O   0  0  0  0  0  0  0  0  0  0  0  0
   22.5039   -7.4140  -15.5755 C   0  0  0  0  0  0  0  0  0  0  0  0
   21.2360   -8.2470  -15.7181 C   0  0  2  0  0  0  0  0  0  0  0  0
   21.4808   -9.4442  -16.4840 N   0  0  0  0  0  0  0  0  0  0  0  0
   20.1171   -7.4427  -16.2481 C   0  0  0  0  0  0  0  0  0  0  0  0
   19.9342   -7.4916  -17.5058 O   0  0  0  0  0  0  0  0  0  0  0  0
   19.2777   -6.6567  -15.4631 N   0  0  0  0  0  0  0  0  0  0  0  0
   18.1777   -5.8283  -16.0067 C   0  0  1  0  0  0  0  0  0  0  0  0
   16.8888   -6.1817  -15.3373 C   0  0  0  0  0  0  0  0  0  0  0  0
   15.7257   -5.4009  -15.8784 C   0  0  0  0  0  0  0  0  0  0  0  0
   14.4165   -5.8230  -15.2466 C   0  0  0  0  0  0  0  0  0  0  0  0
   13.2373   -5.1529  -15.9431 C   0  0  0  0  0  0  0  0  0  0  0  0
   12.0003   -5.3862  -15.2350 N   0  0  0  0  0  0  0  0  0  0  0  0
   18.5613   -4.3998  -15.8961 C   0  0  0  0  0  0  0  0  0  0  0  0
   18.2539   -3.4965  -16.9200 O   0  0  0  0  0  0  0  0  0  0  0  0
   19.1671   -3.9159  -14.9128 O   0  0  0  0  0  0  0  0  0  0  0  0
  2  1  1  1
  2  9  1  0
  3  4  1  0
  3  2  1  0
  4  5  2  0
  4  8  1  0
  5  6  1  0
  6  7  1  0
  8  7  2  0
  9 10  2  0
 13 12  1  6
 12 11  1  0
 13 15  1  0
 14  9  1  0
 14 13  1  0
 15 16  2  0
 17 15  1  0
 17 18  1  0
 18 24  1  0
 18 19  1  1
 20 19  1  0
 21 22  1  0
 21 20  1  0
 22 23  1  0
 24 25  1  0
 26 24  2  0
M  END
$$$$
