HSK.pdb
     RDKit          3D

 26 26  0  0  1  0  0  0  0  0999 V2000
   17.8545  -14.4246  -17.9702 N   0  0  0  0  0  0  0  0  0  0  0  0
   18.5789  -13.7843  -16.9082 C   0  0  1  0  0  0  0  0  0  0  0  0
   19.9856  -14.3947  -16.9010 C   0  0  0  0  0  0  0  0  0  0  0  0
   19.9269  -15.8574  -16.5552 C   0  0  0  0  0  0  0  0  0  0  0  0
   19.5410  -16.3617  -15.3432 C   0  0  0  0  0  0  0  0  0  0  0  0
   19.6164  -17.6975  -15.4196 N   0  0  0  0  0  0  0  0  0  0  0  0
   20.0412  -18.0078  -16.6563 C   0  0  0  0  0  0  0  0  0  0  0  0
   20.2313  -16.8801  -17.3518 N   0  0  0  0  0  0  0  0  0  0  0  0
   18.7782  -12.3340  -17.1548 C   0  0  0  0  0  0  0  0  0  0  0  0
   19.2250  -11.9104  -18.2728 O   0  0  0  0  0  0  0  0  0  0  0  0
   17.0189   -9.4897  -14.6754 O   0  0  0  0  0  0  0  0  0  0  0  0
   17.2817   -9.2139  -16.0286 C   0  0  0  0  0  0  0  0  0  0  0  0
   18.5611   -9.9207  -16.4588 C   0  0  2  0  0  0  0  0  0  0  0  0
   18.4930  -11.3355  -16.1873 N   0  0  0  0  0  0  0  0  0  0  0  0
   19.7560   -9.2790  -15.8755 C   0  0  0  0  0  0  0  0  0  0  0  0
   20.1680   -9.7546  -14.7701 O   0  0  0  0  0  0  0  0  0  0  0  0
   20.4335   -8.2110  -16.4576 N   0  0  0  0  0  0  0  0  0  0  0  0
   21.6254   -7.5670  -15.8607 C   0  0  1  0  0  0  0  0  0  0  0  0
   22.3711   -6.7986  -16.9036 C   0  0  0  0  0  0  0  0  0  0  0  0
   22.8363   -7.6674  -18.0367 C   0  0  0  0  0  0  0  0  0  0  0  0
   23.5600   -6.8711  -19.1014 C   0  0  0  0  0  0  0  0  0  0  0  0
   24.1018   -7.7896  -20.1911 C   0  0  0  0  0  0  0  0  0  0  0  0
   24.5808   -7.0389  -21.3282 N   0  0  0  0  0  0  0  0  0  0  0  0
   21.1941   -6.7642  -14.6904 C   0  0  0  0  0  0  0  0  0  0  0  0
   22.1102   -6.4017  -13.6964 O   0  0  0  0  0  0  0  0  0  0  0  0
   20.0198   -6.3672  -14.5134 O   0  0  0  0  0  0  0  0  0  0  0  0
  2  1  1  6
  2  9  1  0
  3  4  1  0
  3  2  1  0
  4  5  2  0
  4  8  1  0
  5  6  1  0
  6  7  1  0
  8  7  2  0
  9 10  2  0
 13 12  1  1
 12 11  1  0
 13 15  1  0
 14  9  1  0
 14 13  1  0
 15 16  2  0
 17 15  1  0
 17 18  1  0
 18 24  1  0
 18 19  1  6
 20 19  1  0
 21 22  1  0
 21 20  1  0
 22 23  1  0
 24 25  1  0
 26 24  2  0
M  END
$$$$
