HSK.pdb
     RDKit          3D

 26 26  0  0  1  0  0  0  0  0999 V2000
   23.6591  -14.3619  -19.1097 N   0  0  0  0  0  0  0  0  0  0  0  0
   24.3990  -13.1314  -19.1400 C   0  0  1  0  0  0  0  0  0  0  0  0
   23.8846  -12.3350  -20.3453 C   0  0  0  0  0  0  0  0  0  0  0  0
   24.2325  -13.0349  -21.6305 C   0  0  0  0  0  0  0  0  0  0  0  0
   25.4449  -12.9604  -22.2606 C   0  0  0  0  0  0  0  0  0  0  0  0
   25.3719  -13.7143  -23.3661 N   0  0  0  0  0  0  0  0  0  0  0  0
   24.1368  -14.2421  -23.4141 C   0  0  0  0  0  0  0  0  0  0  0  0
   23.4391  -13.8256  -22.3504 N   0  0  0  0  0  0  0  0  0  0  0  0
   24.1252  -12.2784  -17.9563 C   0  0  0  0  0  0  0  0  0  0  0  0
   22.9319  -12.0753  -17.5516 O   0  0  0  0  0  0  0  0  0  0  0  0
   27.1242   -9.9131  -16.1804 O   0  0  0  0  0  0  0  0  0  0  0  0
   26.1656  -10.4666  -15.3140 C   0  0  0  0  0  0  0  0  0  0  0  0
   24.8874  -10.7690  -16.0865 C   0  0  2  0  0  0  0  0  0  0  0  0
   25.1471  -11.6410  -17.2054 N   0  0  0  0  0  0  0  0  0  0  0  0
   24.1829   -9.5303  -16.4726 C   0  0  0  0  0  0  0  0  0  0  0  0
   24.6822   -8.8775  -17.4433 O   0  0  0  0  0  0  0  0  0  0  0  0
   23.0340   -9.0556  -15.8457 N   0  0  0  0  0  0  0  0  0  0  0  0
   22.3297   -7.8159  -16.2444 C   0  0  1  0  0  0  0  0  0  0  0  0
   21.0931   -8.1520  -17.0139 C   0  0  0  0  0  0  0  0  0  0  0  0
   21.3926   -8.6281  -18.4063 C   0  0  0  0  0  0  0  0  0  0  0  0
   20.1332   -8.9851  -19.1665 C   0  0  0  0  0  0  0  0  0  0  0  0
   20.4718   -9.5575  -20.5385 C   0  0  0  0  0  0  0  0  0  0  0  0
   19.2801   -9.8904  -21.2834 N   0  0  0  0  0  0  0  0  0  0  0  0
   22.1001   -6.9910  -15.0333 C   0  0  0  0  0  0  0  0  0  0  0  0
   21.7303   -5.6458  -15.1451 O   0  0  0  0  0  0  0  0  0  0  0  0
   22.2170   -7.4236  -13.8641 O   0  0  0  0  0  0  0  0  0  0  0  0
  2  1  1  1
  2  9  1  0
  3  4  1  0
  3  2  1  0
  4  5  2  0
  4  8  1  0
  5  6  1  0
  6  7  1  0
  8  7  2  0
  9 10  2  0
 13 12  1  6
 12 11  1  0
 13 15  1  0
 14  9  1  0
 14 13  1  0
 15 16  2  0
 17 15  1  0
 17 18  1  0
 18 24  1  0
 18 19  1  1
 20 19  1  0
 21 22  1  0
 21 20  1  0
 22 23  1  0
 24 25  1  0
 26 24  2  0
M  END
$$$$
