HSK.pdb
     RDKit          3D

 26 26  0  0  1  0  0  0  0  0999 V2000
   17.1066  -11.3367  -16.3496 N   0  0  0  0  0  0  0  0  0  0  0  0
   18.2624  -10.6666  -16.8766 C   0  0  1  0  0  0  0  0  0  0  0  0
   17.7612   -9.7082  -17.9637 C   0  0  0  0  0  0  0  0  0  0  0  0
   17.2432  -10.4757  -19.1491 C   0  0  0  0  0  0  0  0  0  0  0  0
   15.9227  -10.6046  -19.4836 C   0  0  0  0  0  0  0  0  0  0  0  0
   15.8589  -11.3522  -20.5939 N   0  0  0  0  0  0  0  0  0  0  0  0
   17.1177  -11.6767  -20.9350 C   0  0  0  0  0  0  0  0  0  0  0  0
   17.9656  -11.1394  -20.0496 N   0  0  0  0  0  0  0  0  0  0  0  0
   18.9260   -9.8057  -15.8655 C   0  0  0  0  0  0  0  0  0  0  0  0
   18.2435   -9.1087  -15.0426 O   0  0  0  0  0  0  0  0  0  0  0  0
   22.8038   -8.7165  -13.2102 O   0  0  0  0  0  0  0  0  0  0  0  0
   22.2129   -9.5467  -14.1786 C   0  0  0  0  0  0  0  0  0  0  0  0
   20.9887   -8.8579  -14.7690 C   0  0  2  0  0  0  0  0  0  0  0  0
   20.3359   -9.6974  -15.7432 N   0  0  0  0  0  0  0  0  0  0  0  0
   21.3220   -7.5186  -15.2934 C   0  0  0  0  0  0  0  0  0  0  0  0
   21.9164   -7.4855  -16.4174 O   0  0  0  0  0  0  0  0  0  0  0  0
   21.0270   -6.3260  -14.6383 N   0  0  0  0  0  0  0  0  0  0  0  0
   21.4398   -4.9918  -15.1294 C   0  0  1  0  0  0  0  0  0  0  0  0
   20.2488   -4.0962  -15.2470 C   0  0  0  0  0  0  0  0  0  0  0  0
   20.0270   -3.6142  -16.6519 C   0  0  0  0  0  0  0  0  0  0  0  0
   18.8144   -2.7142  -16.7577 C   0  0  0  0  0  0  0  0  0  0  0  0
   18.5056   -2.3895  -18.2150 C   0  0  0  0  0  0  0  0  0  0  0  0
   17.2559   -1.6776  -18.3467 N   0  0  0  0  0  0  0  0  0  0  0  0
   22.5176   -4.4760  -14.2506 C   0  0  0  0  0  0  0  0  0  0  0  0
   23.3626   -3.4483  -14.6849 O   0  0  0  0  0  0  0  0  0  0  0  0
   22.7418   -4.9084  -13.0971 O   0  0  0  0  0  0  0  0  0  0  0  0
  2  1  1  1
  2  9  1  0
  3  4  1  0
  3  2  1  0
  4  5  2  0
  4  8  1  0
  5  6  1  0
  6  7  1  0
  8  7  2  0
  9 10  2  0
 13 12  1  6
 12 11  1  0
 13 15  1  0
 14  9  1  0
 14 13  1  0
 15 16  2  0
 17 15  1  0
 17 18  1  0
 18 24  1  0
 18 19  1  1
 20 19  1  0
 21 22  1  0
 21 20  1  0
 22 23  1  0
 24 25  1  0
 26 24  2  0
M  END
$$$$
