HSK.pdb
     RDKit          3D

 26 26  0  0  1  0  0  0  0  0999 V2000
   18.4609  -13.2995  -16.0653 N   0  0  0  0  0  0  0  0  0  0  0  0
   19.4052  -12.5074  -16.8024 C   0  0  1  0  0  0  0  0  0  0  0  0
   18.6849  -12.0219  -18.0661 C   0  0  0  0  0  0  0  0  0  0  0  0
   18.3712  -13.1787  -18.9749 C   0  0  0  0  0  0  0  0  0  0  0  0
   19.2962  -13.8796  -19.6997 C   0  0  0  0  0  0  0  0  0  0  0  0
   18.6400  -14.8292  -20.3806 N   0  0  0  0  0  0  0  0  0  0  0  0
   17.3353  -14.7133  -20.0792 C   0  0  0  0  0  0  0  0  0  0  0  0
   17.1711  -13.7020  -19.2179 N   0  0  0  0  0  0  0  0  0  0  0  0
   19.7995  -11.2754  -16.0738 C   0  0  0  0  0  0  0  0  0  0  0  0
   18.9212  -10.4816  -15.5971 O   0  0  0  0  0  0  0  0  0  0  0  0
   23.8499  -10.0504  -15.6953 O   0  0  0  0  0  0  0  0  0  0  0  0
   22.9709   -9.8270  -14.6213 C   0  0  0  0  0  0  0  0  0  0  0  0
   21.5429   -9.7119  -15.1404 C   0  0  2  0  0  0  0  0  0  0  0  0
   21.1510  -10.8992  -15.8592 N   0  0  0  0  0  0  0  0  0  0  0  0
   21.3498   -8.4747  -15.9226 C   0  0  0  0  0  0  0  0  0  0  0  0
   21.7442   -8.5051  -17.1315 O   0  0  0  0  0  0  0  0  0  0  0  0
   20.7750   -7.3115  -15.4178 N   0  0  0  0  0  0  0  0  0  0  0  0
   20.5902   -6.0732  -16.2080 C   0  0  1  0  0  0  0  0  0  0  0  0
   19.1783   -5.5961  -16.0934 C   0  0  0  0  0  0  0  0  0  0  0  0
   18.2114   -6.4751  -16.8335 C   0  0  0  0  0  0  0  0  0  0  0  0
   16.7790   -6.0197  -16.6535 C   0  0  0  0  0  0  0  0  0  0  0  0
   15.8121   -6.9984  -17.3107 C   0  0  0  0  0  0  0  0  0  0  0  0
   14.4378   -6.6614  -17.0216 N   0  0  0  0  0  0  0  0  0  0  0  0
   21.6134   -5.0854  -15.7870 C   0  0  0  0  0  0  0  0  0  0  0  0
   22.4827   -5.3655  -14.7266 O   0  0  0  0  0  0  0  0  0  0  0  0
   21.7673   -3.9681  -16.3309 O   0  0  0  0  0  0  0  0  0  0  0  0
  2  1  1  1
  2  9  1  0
  3  4  1  0
  3  2  1  0
  4  5  2  0
  4  8  1  0
  5  6  1  0
  6  7  1  0
  8  7  2  0
  9 10  2  0
 13 12  1  6
 12 11  1  0
 13 15  1  0
 14  9  1  0
 14 13  1  0
 15 16  2  0
 17 15  1  0
 17 18  1  0
 18 24  1  0
 18 19  1  1
 20 19  1  0
 21 22  1  0
 21 20  1  0
 22 23  1  0
 24 25  1  0
 26 24  2  0
M  END
$$$$
