HSK.pdb
     RDKit          3D

 26 26  0  0  1  0  0  0  0  0999 V2000
   13.5326   -9.3227  -10.3829 N   0  0  0  0  0  0  0  0  0  0  0  0
   14.9603   -9.3023  -10.2288 C   0  0  1  0  0  0  0  0  0  0  0  0
   15.5234  -10.3666  -11.1783 C   0  0  0  0  0  0  0  0  0  0  0  0
   15.1154  -11.7440  -10.7322 C   0  0  0  0  0  0  0  0  0  0  0  0
   15.8458  -12.5468   -9.8990 C   0  0  0  0  0  0  0  0  0  0  0  0
   15.1601  -13.6863   -9.7334 N   0  0  0  0  0  0  0  0  0  0  0  0
   14.0290  -13.5850  -10.4522 C   0  0  0  0  0  0  0  0  0  0  0  0
   14.0020  -12.3947  -11.0640 N   0  0  0  0  0  0  0  0  0  0  0  0
   15.5582   -8.0186  -10.6744 C   0  0  0  0  0  0  0  0  0  0  0  0
   15.3852   -7.5879  -11.8633 O   0  0  0  0  0  0  0  0  0  0  0  0
   17.5850   -5.4602   -8.0254 O   0  0  0  0  0  0  0  0  0  0  0  0
   17.0853   -4.9388   -9.2314 C   0  0  0  0  0  0  0  0  0  0  0  0
   17.0617   -6.0311  -10.2936 C   0  0  2  0  0  0  0  0  0  0  0  0
   16.3479   -7.1953   -9.8299 N   0  0  0  0  0  0  0  0  0  0  0  0
   18.4207   -6.3436  -10.7784 C   0  0  0  0  0  0  0  0  0  0  0  0
   19.0690   -7.2145  -10.1157 O   0  0  0  0  0  0  0  0  0  0  0  0
   19.0102   -5.7501  -11.8913 N   0  0  0  0  0  0  0  0  0  0  0  0
   20.3468   -6.1182  -12.4110 C   0  0  1  0  0  0  0  0  0  0  0  0
   20.2097   -7.0801  -13.5469 C   0  0  0  0  0  0  0  0  0  0  0  0
   21.5336   -7.4499  -14.1516 C   0  0  0  0  0  0  0  0  0  0  0  0
   21.3726   -8.3195  -15.3801 C   0  0  0  0  0  0  0  0  0  0  0  0
   22.7305   -8.6675  -15.9799 C   0  0  0  0  0  0  0  0  0  0  0  0
   22.5922   -9.3986  -17.2178 N   0  0  0  0  0  0  0  0  0  0  0  0
   21.0867   -4.8752  -12.7384 C   0  0  0  0  0  0  0  0  0  0  0  0
   22.4845   -4.8393  -12.6781 O   0  0  0  0  0  0  0  0  0  0  0  0
   20.5332   -3.8052  -13.0800 O   0  0  0  0  0  0  0  0  0  0  0  0
  2  1  1  6
  2  9  1  0
  3  4  1  0
  3  2  1  0
  4  5  2  0
  4  8  1  0
  5  6  1  0
  6  7  1  0
  8  7  2  0
  9 10  2  0
 13 12  1  1
 12 11  1  0
 13 15  1  0
 14  9  1  0
 14 13  1  0
 15 16  2  0
 17 15  1  0
 17 18  1  0
 18 24  1  0
 18 19  1  6
 20 19  1  0
 21 22  1  0
 21 20  1  0
 22 23  1  0
 24 25  1  0
 26 24  2  0
M  END
$$$$
