HSK.pdb
     RDKit          3D

 26 26  0  0  1  0  0  0  0  0999 V2000
   20.1155  -21.0320  -12.4677 N   0  0  0  0  0  0  0  0  0  0  0  0
   21.3069  -21.7536  -12.8176 C   0  0  1  0  0  0  0  0  0  0  0  0
   21.1621  -22.1603  -14.2890 C   0  0  0  0  0  0  0  0  0  0  0  0
   20.0885  -23.2018  -14.4479 C   0  0  0  0  0  0  0  0  0  0  0  0
   19.0309  -23.1122  -15.3115 C   0  0  0  0  0  0  0  0  0  0  0  0
   18.2978  -24.2249  -15.1684 N   0  0  0  0  0  0  0  0  0  0  0  0
   18.8946  -24.9840  -14.2335 C   0  0  0  0  0  0  0  0  0  0  0  0
   19.9917  -24.3568  -13.7923 N   0  0  0  0  0  0  0  0  0  0  0  0
   22.5209  -20.9010  -12.7604 C   0  0  0  0  0  0  0  0  0  0  0  0
   22.4604  -19.6500  -13.0060 O   0  0  0  0  0  0  0  0  0  0  0  0
   26.2767  -22.4556  -11.6126 O   0  0  0  0  0  0  0  0  0  0  0  0
   25.9791  -21.1083  -11.3437 C   0  0  0  0  0  0  0  0  0  0  0  0
   24.9925  -20.5827  -12.3792 C   0  0  2  0  0  0  0  0  0  0  0  0
   23.8080  -21.4035  -12.4360 N   0  0  0  0  0  0  0  0  0  0  0  0
   25.6344  -20.4054  -13.6968 C   0  0  0  0  0  0  0  0  0  0  0  0
   25.6106  -21.4111  -14.4751 O   0  0  0  0  0  0  0  0  0  0  0  0
   26.2464  -19.2275  -14.1170 N   0  0  0  0  0  0  0  0  0  0  0  0
   26.9827  -19.0912  -15.3941 C   0  0  1  0  0  0  0  0  0  0  0  0
   27.3844  -17.6672  -15.6065 C   0  0  0  0  0  0  0  0  0  0  0  0
   28.1030  -17.4595  -16.9087 C   0  0  0  0  0  0  0  0  0  0  0  0
   28.5061  -16.0143  -17.1095 C   0  0  0  0  0  0  0  0  0  0  0  0
   29.2889  -15.8448  -18.4069 C   0  0  0  0  0  0  0  0  0  0  0  0
   29.5886  -14.4564  -18.6683 N   0  0  0  0  0  0  0  0  0  0  0  0
   28.1069  -20.0587  -15.3986 C   0  0  0  0  0  0  0  0  0  0  0  0
   28.4523  -20.7468  -16.5674 O   0  0  0  0  0  0  0  0  0  0  0  0
   28.8035  -20.3209  -14.3917 O   0  0  0  0  0  0  0  0  0  0  0  0
  2  1  1  6
  2  9  1  0
  3  4  1  0
  3  2  1  0
  4  5  2  0
  4  8  1  0
  5  6  1  0
  6  7  1  0
  8  7  2  0
  9 10  2  0
 13 12  1  1
 12 11  1  0
 13 15  1  0
 14  9  1  0
 14 13  1  0
 15 16  2  0
 17 15  1  0
 17 18  1  0
 18 24  1  0
 18 19  1  1
 20 19  1  0
 21 22  1  0
 21 20  1  0
 22 23  1  0
 24 25  1  0
 26 24  2  0
M  END
$$$$
