HSK.pdb
     RDKit          3D

 26 26  0  0  1  0  0  0  0  0999 V2000
   24.0394  -34.9025   -7.5135 N   0  0  0  0  0  0  0  0  0  0  0  0
   23.7668  -34.1605   -6.3144 C   0  0  1  0  0  0  0  0  0  0  0  0
   22.3902  -34.6158   -5.8154 C   0  0  0  0  0  0  0  0  0  0  0  0
   21.2961  -34.0056   -6.6481 C   0  0  0  0  0  0  0  0  0  0  0  0
   21.1625  -34.1587   -8.0011 C   0  0  0  0  0  0  0  0  0  0  0  0
   20.0749  -33.4730   -8.3793 N   0  0  0  0  0  0  0  0  0  0  0  0
   19.5502  -32.9089   -7.2780 C   0  0  0  0  0  0  0  0  0  0  0  0
   20.2987  -33.2356   -6.2175 N   0  0  0  0  0  0  0  0  0  0  0  0
   24.7133  -34.4896   -5.2191 C   0  0  0  0  0  0  0  0  0  0  0  0
   25.0177  -35.6999   -4.9519 O   0  0  0  0  0  0  0  0  0  0  0  0
   26.0408  -31.5766   -2.4858 O   0  0  0  0  0  0  0  0  0  0  0  0
   26.9660  -32.5751   -2.8366 C   0  0  0  0  0  0  0  0  0  0  0  0
   26.2252  -33.8169   -3.3172 C   0  0  2  0  0  0  0  0  0  0  0  0
   25.3345  -33.5046   -4.4077 N   0  0  0  0  0  0  0  0  0  0  0  0
   25.5499  -34.5095   -2.2019 C   0  0  0  0  0  0  0  0  0  0  0  0
   24.3030  -34.2922   -2.0761 O   0  0  0  0  0  0  0  0  0  0  0  0
   26.1909  -35.3627   -1.3077 N   0  0  0  0  0  0  0  0  0  0  0  0
   25.5480  -35.9223   -0.0972 C   0  0  1  0  0  0  0  0  0  0  0  0
   26.4303  -36.9584    0.5212 C   0  0  0  0  0  0  0  0  0  0  0  0
   25.8144  -37.5878    1.7377 C   0  0  0  0  0  0  0  0  0  0  0  0
   26.7078  -38.6514    2.3395 C   0  0  0  0  0  0  0  0  0  0  0  0
   25.9943  -39.3819    3.4717 C   0  0  0  0  0  0  0  0  0  0  0  0
   26.7924  -40.4695    3.9875 N   0  0  0  0  0  0  0  0  0  0  0  0
   25.1813  -34.8033    0.8048 C   0  0  0  0  0  0  0  0  0  0  0  0
   23.9164  -34.7523    1.4014 O   0  0  0  0  0  0  0  0  0  0  0  0
   25.9503  -33.8563    1.0871 O   0  0  0  0  0  0  0  0  0  0  0  0
  2  1  1  6
  2  9  1  0
  3  4  1  0
  3  2  1  0
  4  5  2  0
  4  8  1  0
  5  6  1  0
  6  7  1  0
  8  7  2  0
  9 10  2  0
 13 12  1  1
 12 11  1  0
 13 15  1  0
 14  9  1  0
 14 13  1  0
 15 16  2  0
 17 15  1  0
 17 18  1  0
 18 24  1  0
 18 19  1  1
 20 19  1  0
 21 22  1  0
 21 20  1  0
 22 23  1  0
 24 25  1  0
 26 24  2  0
M  END
$$$$
