HSK.pdb
     RDKit          3D

 26 26  0  0  1  0  0  0  0  0999 V2000
   21.0121  -20.1486  -14.2229 N   0  0  0  0  0  0  0  0  0  0  0  0
   22.0147  -19.6490  -15.1217 C   0  0  1  0  0  0  0  0  0  0  0  0
   22.1397  -18.1444  -14.8534 C   0  0  0  0  0  0  0  0  0  0  0  0
   20.8981  -17.4216  -15.2991 C   0  0  0  0  0  0  0  0  0  0  0  0
   19.8153  -18.0141  -15.8897 C   0  0  0  0  0  0  0  0  0  0  0  0
   18.9151  -17.0529  -16.1382 N   0  0  0  0  0  0  0  0  0  0  0  0
   19.4360  -15.8910  -15.7078 C   0  0  0  0  0  0  0  0  0  0  0  0
   20.6509  -16.1174  -15.1937 N   0  0  0  0  0  0  0  0  0  0  0  0
   23.3583  -20.2141  -14.8395 C   0  0  0  0  0  0  0  0  0  0  0  0
   24.3898  -19.8105  -15.4735 O   0  0  0  0  0  0  0  0  0  0  0  0
   24.5884  -21.7990  -11.2635 O   0  0  0  0  0  0  0  0  0  0  0  0
   24.8847  -22.6404  -12.3500 C   0  0  0  0  0  0  0  0  0  0  0  0
   24.8745  -21.8341  -13.6429 C   0  0  2  0  0  0  0  0  0  0  0  0
   23.5882  -21.2213  -13.8664 N   0  0  0  0  0  0  0  0  0  0  0  0
   25.3340  -22.6437  -14.7889 C   0  0  0  0  0  0  0  0  0  0  0  0
   24.4265  -23.1948  -15.4893 O   0  0  0  0  0  0  0  0  0  0  0  0
   26.6710  -22.8285  -15.1304 N   0  0  0  0  0  0  0  0  0  0  0  0
   27.1219  -23.6198  -16.2976 C   0  0  1  0  0  0  0  0  0  0  0  0
   28.6044  -23.5082  -16.4527 C   0  0  0  0  0  0  0  0  0  0  0  0
   29.1166  -24.2588  -17.6483 C   0  0  0  0  0  0  0  0  0  0  0  0
   30.6286  -24.2467  -17.7201 C   0  0  0  0  0  0  0  0  0  0  0  0
   31.1172  -24.9491  -18.9821 C   0  0  0  0  0  0  0  0  0  0  0  0
   32.5596  -24.9995  -19.0368 N   0  0  0  0  0  0  0  0  0  0  0  0
   26.6175  -25.0071  -16.1528 C   0  0  0  0  0  0  0  0  0  0  0  0
   26.2857  -25.7676  -17.2798 O   0  0  0  0  0  0  0  0  0  0  0  0
   26.4573  -25.5779  -15.0498 O   0  0  0  0  0  0  0  0  0  0  0  0
  2  1  1  1
  2  9  1  0
  3  4  1  0
  3  2  1  0
  4  5  2  0
  4  8  1  0
  5  6  1  0
  6  7  1  0
  8  7  2  0
  9 10  2  0
 13 12  1  1
 12 11  1  0
 13 15  1  0
 14  9  1  0
 14 13  1  0
 15 16  2  0
 17 15  1  0
 17 18  1  0
 18 24  1  0
 18 19  1  1
 20 19  1  0
 21 22  1  0
 21 20  1  0
 22 23  1  0
 24 25  1  0
 26 24  2  0
M  END
$$$$
