HSK.pdb
     RDKit          3D

 26 26  0  0  1  0  0  0  0  0999 V2000
   20.0411  -13.1781  -16.8555 N   0  0  0  0  0  0  0  0  0  0  0  0
   20.5194  -11.9595  -17.4458 C   0  0  1  0  0  0  0  0  0  0  0  0
   19.7733  -11.7885  -18.7745 C   0  0  0  0  0  0  0  0  0  0  0  0
   20.1637  -12.8697  -19.7446 C   0  0  0  0  0  0  0  0  0  0  0  0
   19.3180  -13.8286  -20.2320 C   0  0  0  0  0  0  0  0  0  0  0  0
   20.0252  -14.6047  -21.0647 N   0  0  0  0  0  0  0  0  0  0  0  0
   21.2827  -14.1309  -21.0880 C   0  0  0  0  0  0  0  0  0  0  0  0
   21.3671  -13.0679  -20.2791 N   0  0  0  0  0  0  0  0  0  0  0  0
   20.1678  -10.7645  -16.6380 C   0  0  0  0  0  0  0  0  0  0  0  0
   18.9500  -10.4542  -16.4152 O   0  0  0  0  0  0  0  0  0  0  0  0
   21.6475   -9.4315  -13.0692 O   0  0  0  0  0  0  0  0  0  0  0  0
   21.8750   -8.5648  -14.1524 C   0  0  0  0  0  0  0  0  0  0  0  0
   20.8079   -8.7822  -15.2182 C   0  0  2  0  0  0  0  0  0  0  0  0
   21.1381   -9.8998  -16.0678 N   0  0  0  0  0  0  0  0  0  0  0  0
   20.5386   -7.5432  -15.9746 C   0  0  0  0  0  0  0  0  0  0  0  0
   21.3386   -7.2798  -16.9276 O   0  0  0  0  0  0  0  0  0  0  0  0
   19.4843   -6.6750  -15.7044 N   0  0  0  0  0  0  0  0  0  0  0  0
   19.1755   -5.4756  -16.5156 C   0  0  1  0  0  0  0  0  0  0  0  0
   17.7261   -5.1315  -16.3932 C   0  0  0  0  0  0  0  0  0  0  0  0
   16.8350   -6.1523  -17.0406 C   0  0  0  0  0  0  0  0  0  0  0  0
   15.4687   -6.2055  -16.3909 C   0  0  0  0  0  0  0  0  0  0  0  0
   14.6415   -7.3524  -16.9610 C   0  0  0  0  0  0  0  0  0  0  0  0
   13.4073   -7.5299  -16.2323 N   0  0  0  0  0  0  0  0  0  0  0  0
   20.1050   -4.3876  -16.1256 C   0  0  0  0  0  0  0  0  0  0  0  0
   20.2038   -3.2227  -16.8950 O   0  0  0  0  0  0  0  0  0  0  0  0
   20.8433   -4.4316  -15.1152 O   0  0  0  0  0  0  0  0  0  0  0  0
  2  1  1  1
  2  9  1  0
  3  4  1  0
  3  2  1  0
  4  5  2  0
  4  8  1  0
  5  6  1  0
  6  7  1  0
  8  7  2  0
  9 10  2  0
 13 12  1  1
 12 11  1  0
 13 15  1  0
 14  9  1  0
 14 13  1  0
 15 16  2  0
 17 15  1  0
 17 18  1  0
 18 24  1  0
 18 19  1  1
 20 19  1  0
 21 22  1  0
 21 20  1  0
 22 23  1  0
 24 25  1  0
 26 24  2  0
M  END
$$$$
