HSK.pdb
     RDKit          3D

 26 26  0  0  1  0  0  0  0  0999 V2000
   23.2528  -11.1379  -16.8762 N   0  0  0  0  0  0  0  0  0  0  0  0
   23.5348   -9.9631  -16.0997 C   0  0  1  0  0  0  0  0  0  0  0  0
   24.6264   -9.1890  -16.8485 C   0  0  0  0  0  0  0  0  0  0  0  0
   25.9017   -9.9851  -16.8979 C   0  0  0  0  0  0  0  0  0  0  0  0
   26.9960   -9.7625  -16.1072 C   0  0  0  0  0  0  0  0  0  0  0  0
   27.9253  -10.6688  -16.4401 N   0  0  0  0  0  0  0  0  0  0  0  0
   27.4108  -11.4342  -17.4178 C   0  0  0  0  0  0  0  0  0  0  0  0
   26.1709  -11.0149  -17.6979 N   0  0  0  0  0  0  0  0  0  0  0  0
   22.3737   -9.0408  -16.0287 C   0  0  0  0  0  0  0  0  0  0  0  0
   21.6076   -8.8663  -17.0344 O   0  0  0  0  0  0  0  0  0  0  0  0
   20.2462   -8.2964  -12.6281 O   0  0  0  0  0  0  0  0  0  0  0  0
   20.5559   -7.1130  -13.3209 C   0  0  0  0  0  0  0  0  0  0  0  0
   20.8879   -7.4382  -14.7720 C   0  0  2  0  0  0  0  0  0  0  0  0
   22.0386   -8.3026  -14.8637 N   0  0  0  0  0  0  0  0  0  0  0  0
   21.0218   -6.2124  -15.5840 C   0  0  0  0  0  0  0  0  0  0  0  0
   22.2001   -5.9068  -15.9527 O   0  0  0  0  0  0  0  0  0  0  0  0
   19.9545   -5.3988  -15.9547 N   0  0  0  0  0  0  0  0  0  0  0  0
   20.0923   -4.1948  -16.8051 C   0  0  1  0  0  0  0  0  0  0  0  0
   20.3031   -4.5934  -18.2303 C   0  0  0  0  0  0  0  0  0  0  0  0
   20.5248   -3.4130  -19.1318 C   0  0  0  0  0  0  0  0  0  0  0  0
   20.7820   -3.8333  -20.5631 C   0  0  0  0  0  0  0  0  0  0  0  0
   21.0225   -2.6171  -21.4505 C   0  0  0  0  0  0  0  0  0  0  0  0
   21.2514   -2.9995  -22.8243 N   0  0  0  0  0  0  0  0  0  0  0  0
   18.9201   -3.3157  -16.5752 C   0  0  0  0  0  0  0  0  0  0  0  0
   19.0279   -1.9283  -16.7244 O   0  0  0  0  0  0  0  0  0  0  0  0
   17.7889   -3.7368  -16.2421 O   0  0  0  0  0  0  0  0  0  0  0  0
  2  1  1  6
  2  9  1  0
  3  4  1  0
  3  2  1  0
  4  5  2  0
  4  8  1  0
  5  6  1  0
  6  7  1  0
  8  7  2  0
  9 10  2  0
 13 12  1  1
 12 11  1  0
 13 15  1  0
 14  9  1  0
 14 13  1  0
 15 16  2  0
 17 15  1  0
 17 18  1  0
 18 24  1  0
 18 19  1  6
 20 19  1  0
 21 22  1  0
 21 20  1  0
 22 23  1  0
 24 25  1  0
 26 24  2  0
M  END
$$$$
