HSK.pdb
     RDKit          3D

 26 26  0  0  1  0  0  0  0  0999 V2000
   22.5145  -10.0462  -15.4929 N   0  0  0  0  0  0  0  0  0  0  0  0
   21.2464   -9.4166  -15.7336 C   0  0  1  0  0  0  0  0  0  0  0  0
   20.1727  -10.4933  -15.5354 C   0  0  0  0  0  0  0  0  0  0  0  0
   20.2964  -11.5645  -16.5841 C   0  0  0  0  0  0  0  0  0  0  0  0
   19.6813  -11.5403  -17.8060 C   0  0  0  0  0  0  0  0  0  0  0  0
   20.0316  -12.6586  -18.4563 N   0  0  0  0  0  0  0  0  0  0  0  0
   20.8472  -13.3569  -17.6479 C   0  0  0  0  0  0  0  0  0  0  0  0
   21.0092  -12.6862  -16.5009 N   0  0  0  0  0  0  0  0  0  0  0  0
   20.9398   -8.3633  -14.7332 C   0  0  0  0  0  0  0  0  0  0  0  0
   21.0332   -8.5953  -13.4817 O   0  0  0  0  0  0  0  0  0  0  0  0
   21.9032   -4.4423  -14.6354 O   0  0  0  0  0  0  0  0  0  0  0  0
   20.5119   -4.6431  -14.6489 C   0  0  0  0  0  0  0  0  0  0  0  0
   20.1878   -6.0358  -14.1227 C   0  0  2  0  0  0  0  0  0  0  0  0
   20.5297   -7.0516  -15.0877 N   0  0  0  0  0  0  0  0  0  0  0  0
   18.7886   -6.1275  -13.6608 C   0  0  0  0  0  0  0  0  0  0  0  0
   17.9429   -6.5589  -14.5073 O   0  0  0  0  0  0  0  0  0  0  0  0
   18.3615   -5.7756  -12.3832 N   0  0  0  0  0  0  0  0  0  0  0  0
   16.9401   -5.7348  -11.9711 C   0  0  1  0  0  0  0  0  0  0  0  0
   16.8304   -5.8843  -10.4879 C   0  0  0  0  0  0  0  0  0  0  0  0
   15.4089   -5.8266  -10.0068 C   0  0  0  0  0  0  0  0  0  0  0  0
   15.3204   -5.8530   -8.4959 C   0  0  0  0  0  0  0  0  0  0  0  0
   13.8767   -5.6874   -8.0343 C   0  0  0  0  0  0  0  0  0  0  0  0
   13.7852   -5.6111   -6.5950 N   0  0  0  0  0  0  0  0  0  0  0  0
   16.3240   -4.5006  -12.5161 C   0  0  0  0  0  0  0  0  0  0  0  0
   15.0249   -4.5206  -13.0362 O   0  0  0  0  0  0  0  0  0  0  0  0
   16.9021   -3.3903  -12.5494 O   0  0  0  0  0  0  0  0  0  0  0  0
  2  1  1  1
  2  9  1  0
  3  4  1  0
  3  2  1  0
  4  5  2  0
  4  8  1  0
  5  6  1  0
  6  7  1  0
  8  7  2  0
  9 10  2  0
 13 12  1  6
 12 11  1  0
 13 15  1  0
 14  9  1  0
 14 13  1  0
 15 16  2  0
 17 15  1  0
 17 18  1  0
 18 24  1  0
 18 19  1  1
 20 19  1  0
 21 22  1  0
 21 20  1  0
 22 23  1  0
 24 25  1  0
 26 24  2  0
M  END
$$$$
