HSK.pdb
     RDKit          3D

 26 26  0  0  1  0  0  0  0  0999 V2000
   16.9182  -15.0592    7.1223 N   0  0  0  0  0  0  0  0  0  0  0  0
   18.3279  -14.8969    7.3432 C   0  0  1  0  0  0  0  0  0  0  0  0
   18.4881  -13.7717    8.3726 C   0  0  0  0  0  0  0  0  0  0  0  0
   19.4083  -12.7025    7.8503 C   0  0  0  0  0  0  0  0  0  0  0  0
   20.7082  -12.5279    8.2401 C   0  0  0  0  0  0  0  0  0  0  0  0
   21.1972  -11.4834    7.5575 N   0  0  0  0  0  0  0  0  0  0  0  0
   20.2150  -11.0250    6.7629 C   0  0  0  0  0  0  0  0  0  0  0  0
   19.1191  -11.7723    6.9426 N   0  0  0  0  0  0  0  0  0  0  0  0
   18.9434  -16.0949    7.9676 C   0  0  0  0  0  0  0  0  0  0  0  0
   18.2326  -16.9530    8.5899 O   0  0  0  0  0  0  0  0  0  0  0  0
   22.8884  -18.9288    8.5236 O   0  0  0  0  0  0  0  0  0  0  0  0
   22.3803  -17.7071    8.0488 C   0  0  0  0  0  0  0  0  0  0  0  0
   20.9406  -17.5322    8.5160 C   0  0  2  0  0  0  0  0  0  0  0  0
   20.3355  -16.3670    7.9193 N   0  0  0  0  0  0  0  0  0  0  0  0
   20.8452  -17.5405    9.9893 C   0  0  0  0  0  0  0  0  0  0  0  0
   20.8559  -16.4043   10.5609 O   0  0  0  0  0  0  0  0  0  0  0  0
   20.7474  -18.6954   10.7607 N   0  0  0  0  0  0  0  0  0  0  0  0
   20.6815  -18.6957   12.2397 C   0  0  1  0  0  0  0  0  0  0  0  0
   19.5269  -17.8671   12.7030 C   0  0  0  0  0  0  0  0  0  0  0  0
   19.4150  -17.8209   14.1999 C   0  0  0  0  0  0  0  0  0  0  0  0
   18.1837  -17.0660   14.6533 C   0  0  0  0  0  0  0  0  0  0  0  0
   18.2472  -16.7729   16.1482 C   0  0  0  0  0  0  0  0  0  0  0  0
   17.0323  -16.1497   16.6188 N   0  0  0  0  0  0  0  0  0  0  0  0
   20.6639  -20.1013   12.7129 C   0  0  0  0  0  0  0  0  0  0  0  0
   20.8063  -20.3987   14.0730 O   0  0  0  0  0  0  0  0  0  0  0  0
   20.5257  -21.0889   11.9556 O   0  0  0  0  0  0  0  0  0  0  0  0
  2  1  1  1
  2  9  1  0
  3  4  1  0
  3  2  1  0
  4  5  2  0
  4  8  1  0
  5  6  1  0
  6  7  1  0
  8  7  2  0
  9 10  2  0
 13 12  1  1
 12 11  1  0
 13 15  1  0
 14  9  1  0
 14 13  1  0
 15 16  2  0
 17 15  1  0
 17 18  1  0
 18 24  1  0
 18 19  1  6
 20 19  1  0
 21 22  1  0
 21 20  1  0
 22 23  1  0
 24 25  1  0
 26 24  2  0
M  END
$$$$
