HSK.pdb
     RDKit          3D

 26 26  0  0  1  0  0  0  0  0999 V2000
   19.0736   -8.2734  -16.6585 N   0  0  0  0  0  0  0  0  0  0  0  0
   20.2661   -7.6212  -16.1949 C   0  0  1  0  0  0  0  0  0  0  0  0
   20.8583   -8.5109  -15.0952 C   0  0  0  0  0  0  0  0  0  0  0  0
   19.9211   -8.5980  -13.9219 C   0  0  0  0  0  0  0  0  0  0  0  0
   18.6855   -8.0135  -13.8603 C   0  0  0  0  0  0  0  0  0  0  0  0
   18.1556   -8.3149  -12.6669 N   0  0  0  0  0  0  0  0  0  0  0  0
   19.0500   -9.0710  -12.0075 C   0  0  0  0  0  0  0  0  0  0  0  0
   20.1316   -9.2443  -12.7768 N   0  0  0  0  0  0  0  0  0  0  0  0
   21.3118   -7.5425  -17.2458 C   0  0  0  0  0  0  0  0  0  0  0  0
   21.3877   -8.4217  -18.1679 O   0  0  0  0  0  0  0  0  0  0  0  0
   22.8488   -3.9279  -18.4038 O   0  0  0  0  0  0  0  0  0  0  0  0
   23.8302   -4.9333  -18.3575 C   0  0  0  0  0  0  0  0  0  0  0  0
   23.1666   -6.3035  -18.4206 C   0  0  2  0  0  0  0  0  0  0  0  0
   22.2812   -6.5073  -17.3005 N   0  0  0  0  0  0  0  0  0  0  0  0
   24.1644   -7.3814  -18.5699 C   0  0  0  0  0  0  0  0  0  0  0  0
   24.1684   -8.2748  -17.6646 O   0  0  0  0  0  0  0  0  0  0  0  0
   25.0740   -7.4657  -19.6206 N   0  0  0  0  0  0  0  0  0  0  0  0
   25.9618   -8.6278  -19.8511 C   0  0  1  0  0  0  0  0  0  0  0  0
   25.1563   -9.8853  -19.9166 C   0  0  0  0  0  0  0  0  0  0  0  0
   25.9852  -11.0818  -20.2858 C   0  0  0  0  0  0  0  0  0  0  0  0
   25.1696  -12.3570  -20.2902 C   0  0  0  0  0  0  0  0  0  0  0  0
   26.0520  -13.5642  -20.5880 C   0  0  0  0  0  0  0  0  0  0  0  0
   25.3419  -14.8046  -20.3808 N   0  0  0  0  0  0  0  0  0  0  0  0
   26.7903   -8.3603  -21.0519 C   0  0  0  0  0  0  0  0  0  0  0  0
   27.9629   -9.0873  -21.2868 O   0  0  0  0  0  0  0  0  0  0  0  0
   26.5102   -7.4943  -21.9119 O   0  0  0  0  0  0  0  0  0  0  0  0
  2  1  1  6
  2  9  1  0
  3  4  1  0
  3  2  1  0
  4  5  2  0
  4  8  1  0
  5  6  1  0
  6  7  1  0
  8  7  2  0
  9 10  2  0
 13 12  1  1
 12 11  1  0
 13 15  1  0
 14  9  1  0
 14 13  1  0
 15 16  2  0
 17 15  1  0
 17 18  1  0
 18 24  1  0
 18 19  1  6
 20 19  1  0
 21 22  1  0
 21 20  1  0
 22 23  1  0
 24 25  1  0
 26 24  2  0
M  END
$$$$
