HSK.pdb
     RDKit          3D

 26 26  0  0  1  0  0  0  0  0999 V2000
   18.4871  -11.4392  -15.8635 N   0  0  0  0  0  0  0  0  0  0  0  0
   18.3812  -10.0160  -15.7040 C   0  0  1  0  0  0  0  0  0  0  0  0
   16.9498   -9.6316  -16.0976 C   0  0  0  0  0  0  0  0  0  0  0  0
   16.7511   -9.7768  -17.5816 C   0  0  0  0  0  0  0  0  0  0  0  0
   17.4277   -9.0677  -18.5363 C   0  0  0  0  0  0  0  0  0  0  0  0
   16.9808   -9.4737  -19.7327 N   0  0  0  0  0  0  0  0  0  0  0  0
   16.0463  -10.4152  -19.5163 C   0  0  0  0  0  0  0  0  0  0  0  0
   15.9059  -10.6006  -18.1982 N   0  0  0  0  0  0  0  0  0  0  0  0
   18.5291   -9.5936  -14.2885 C   0  0  0  0  0  0  0  0  0  0  0  0
   17.9496  -10.2302  -13.3463 O   0  0  0  0  0  0  0  0  0  0  0  0
   20.7881   -6.7991  -10.9809 O   0  0  0  0  0  0  0  0  0  0  0  0
   20.6392   -7.1266  -12.3398 C   0  0  0  0  0  0  0  0  0  0  0  0
   19.4351   -8.0429  -12.5193 C   0  0  2  0  0  0  0  0  0  0  0  0
   19.3080   -8.4764  -13.8890 N   0  0  0  0  0  0  0  0  0  0  0  0
   18.2017   -7.4246  -11.9939 C   0  0  0  0  0  0  0  0  0  0  0  0
   17.5811   -6.6453  -12.7846 O   0  0  0  0  0  0  0  0  0  0  0  0
   17.6995   -7.6453  -10.7142 N   0  0  0  0  0  0  0  0  0  0  0  0
   16.5204   -6.9432  -10.1589 C   0  0  1  0  0  0  0  0  0  0  0  0
   15.5429   -7.9331   -9.6122 C   0  0  0  0  0  0  0  0  0  0  0  0
   14.3282   -7.2770   -9.0212 C   0  0  0  0  0  0  0  0  0  0  0  0
   13.3637   -8.2887   -8.4400 C   0  0  0  0  0  0  0  0  0  0  0  0
   12.1768   -7.5917   -7.7841 C   0  0  0  0  0  0  0  0  0  0  0  0
   11.1974   -8.5427   -7.3126 N   0  0  0  0  0  0  0  0  0  0  0  0
   16.9887   -5.9310   -9.1811 C   0  0  0  0  0  0  0  0  0  0  0  0
   16.1917   -4.8263   -8.8597 O   0  0  0  0  0  0  0  0  0  0  0  0
   18.0928   -5.9897   -8.5934 O   0  0  0  0  0  0  0  0  0  0  0  0
  2  1  1  1
  2  9  1  0
  3  4  1  0
  3  2  1  0
  4  5  2  0
  4  8  1  0
  5  6  1  0
  6  7  1  0
  8  7  2  0
  9 10  2  0
 13 12  1  6
 12 11  1  0
 13 15  1  0
 14  9  1  0
 14 13  1  0
 15 16  2  0
 17 15  1  0
 17 18  1  0
 18 24  1  0
 18 19  1  1
 20 19  1  0
 21 22  1  0
 21 20  1  0
 22 23  1  0
 24 25  1  0
 26 24  2  0
M  END
$$$$
