HSK.pdb
     RDKit          3D

 26 26  0  0  1  0  0  0  0  0999 V2000
   19.5712  -14.5216  -16.2057 N   0  0  0  0  0  0  0  0  0  0  0  0
   19.8027  -13.2650  -16.8611 C   0  0  1  0  0  0  0  0  0  0  0  0
   18.4410  -12.7697  -17.3629 C   0  0  0  0  0  0  0  0  0  0  0  0
   17.9276  -13.6562  -18.4643 C   0  0  0  0  0  0  0  0  0  0  0  0
   18.1222  -13.4384  -19.8011 C   0  0  0  0  0  0  0  0  0  0  0  0
   17.5221  -14.4366  -20.4640 N   0  0  0  0  0  0  0  0  0  0  0  0
   16.9688  -15.2526  -19.5505 C   0  0  0  0  0  0  0  0  0  0  0  0
   17.2175  -14.7741  -18.3254 N   0  0  0  0  0  0  0  0  0  0  0  0
   20.2831  -12.2190  -15.9234 C   0  0  0  0  0  0  0  0  0  0  0  0
   19.5530  -11.8125  -14.9588 O   0  0  0  0  0  0  0  0  0  0  0  0
   24.0828  -10.3306  -16.3530 O   0  0  0  0  0  0  0  0  0  0  0  0
   23.5024  -10.4601  -15.0792 C   0  0  0  0  0  0  0  0  0  0  0  0
   21.9846  -10.5023  -15.2072 C   0  0  2  0  0  0  0  0  0  0  0  0
   21.5601  -11.6087  -16.0291 N   0  0  0  0  0  0  0  0  0  0  0  0
   21.4440   -9.2059  -15.6621 C   0  0  0  0  0  0  0  0  0  0  0  0
   21.3051   -9.0630  -16.9183 O   0  0  0  0  0  0  0  0  0  0  0  0
   21.0897   -8.1635  -14.8100 N   0  0  0  0  0  0  0  0  0  0  0  0
   20.6951   -6.8150  -15.2767 C   0  0  1  0  0  0  0  0  0  0  0  0
   19.2095   -6.6631  -15.2127 C   0  0  0  0  0  0  0  0  0  0  0  0
   18.7521   -5.2942  -15.6276 C   0  0  0  0  0  0  0  0  0  0  0  0
   17.2474   -5.1501  -15.5450 C   0  0  0  0  0  0  0  0  0  0  0  0
   16.8180   -3.7319  -15.9041 C   0  0  0  0  0  0  0  0  0  0  0  0
   15.3830   -3.5804  -15.8428 N   0  0  0  0  0  0  0  0  0  0  0  0
   21.4546   -5.8042  -14.5013 C   0  0  0  0  0  0  0  0  0  0  0  0
   21.7962   -4.5737  -15.0740 O   0  0  0  0  0  0  0  0  0  0  0  0
   21.8323   -5.9733  -13.3195 O   0  0  0  0  0  0  0  0  0  0  0  0
  2  1  1  1
  2  9  1  0
  3  4  1  0
  3  2  1  0
  4  5  2  0
  4  8  1  0
  5  6  1  0
  6  7  1  0
  8  7  2  0
  9 10  2  0
 13 12  1  6
 12 11  1  0
 13 15  1  0
 14  9  1  0
 14 13  1  0
 15 16  2  0
 17 15  1  0
 17 18  1  0
 18 24  1  0
 18 19  1  1
 20 19  1  0
 21 22  1  0
 21 20  1  0
 22 23  1  0
 24 25  1  0
 26 24  2  0
M  END
$$$$
