LEK.pdb
     RDKit          3D

 27 26  0  0  1  0  0  0  0  0999 V2000
   27.7857  -17.7173  -18.5248 C   0  0  0  0  0  0  0  0  0  0  0  0
   28.3297  -18.8306  -17.6653 C   0  0  1  0  0  0  0  0  0  0  0  0
   29.4552  -18.3477  -16.7776 C   0  0  0  0  0  0  0  0  0  0  0  0
   27.2067  -19.4376  -16.8908 C   0  0  0  0  0  0  0  0  0  0  0  0
   27.7100  -20.5119  -15.9524 C   0  0  2  0  0  0  0  0  0  0  0  0
   28.2410  -21.6494  -16.6729 N   0  0  0  0  0  0  0  0  0  0  0  0
   26.6245  -20.9624  -15.0516 C   0  0  0  0  0  0  0  0  0  0  0  0
   25.7805  -21.7898  -15.4715 O   0  0  0  0  0  0  0  0  0  0  0  0
   26.4921  -20.4976  -13.7215 N   0  0  0  0  0  0  0  0  0  0  0  0
   25.3514  -20.9505  -12.8950 C   0  0  1  0  0  0  0  0  0  0  0  0
   25.6448  -20.6346  -11.4679 C   0  0  0  0  0  0  0  0  0  0  0  0
   24.5592  -20.9902  -10.5086 C   0  0  0  0  0  0  0  0  0  0  0  0
   25.0268  -20.7644   -9.0817 C   0  0  0  0  0  0  0  0  0  0  0  0
   26.1228  -20.2094   -8.8471 O   0  0  0  0  0  0  0  0  0  0  0  0
   24.1155  -20.3215  -13.3651 C   0  0  0  0  0  0  0  0  0  0  0  0
   24.0974  -19.0763  -13.7080 O   0  0  0  0  0  0  0  0  0  0  0  0
   24.2110  -21.1873   -8.0649 O   0  0  0  0  0  0  0  0  0  0  0  0
   22.8891  -21.0136  -13.4835 N   0  0  0  0  0  0  0  0  0  0  0  0
   21.6957  -20.2828  -13.9126 C   0  0  1  0  0  0  0  0  0  0  0  0
   21.8127  -20.2216  -15.4428 C   0  0  0  0  0  0  0  0  0  0  0  0
   20.5975  -19.5764  -16.0103 C   0  0  0  0  0  0  0  0  0  0  0  0
   20.7798  -19.5874  -17.5423 C   0  0  0  0  0  0  0  0  0  0  0  0
   19.5646  -18.8343  -18.0946 C   0  0  0  0  0  0  0  0  0  0  0  0
   19.6930  -18.7160  -19.5183 N   0  0  0  0  0  0  0  0  0  0  0  0
   20.5112  -21.0243  -13.4630 C   0  0  0  0  0  0  0  0  0  0  0  0
   19.3789  -20.4835  -13.4339 O   0  0  0  0  0  0  0  0  0  0  0  0
   20.5378  -22.3610  -13.0412 O   0  0  0  0  0  0  0  0  0  0  0  0
  2  1  1  1
  2  3  1  0
  4  5  1  0
  4  2  1  0
  5  6  1  6
  7  5  1  0
  7  8  2  0
  9  7  1  0
 10  9  1  0
 10 11  1  1
 12 11  1  0
 12 13  1  0
 13 14  2  0
 15 10  1  0
 16 15  2  0
 17 13  1  0
 18 15  1  0
 19 18  1  0
 19 25  1  0
 19 20  1  6
 21 20  1  0
 22 23  1  0
 22 21  1  0
 23 24  1  0
 25 27  1  0
 26 25  2  0
M  END
$$$$
