LEK.pdb
     RDKit          3D

 27 26  0  0  1  0  0  0  0  0999 V2000
   28.3945  -18.9618  -13.9800 C   0  0  0  0  0  0  0  0  0  0  0  0
   27.5916  -20.2370  -14.0393 C   0  0  1  0  0  0  0  0  0  0  0  0
   28.3710  -21.4102  -13.4881 C   0  0  0  0  0  0  0  0  0  0  0  0
   26.2938  -20.0255  -13.3320 C   0  0  0  0  0  0  0  0  0  0  0  0
   25.4681  -21.2929  -13.3177 C   0  0  2  0  0  0  0  0  0  0  0  0
   25.5424  -21.9970  -14.5801 N   0  0  0  0  0  0  0  0  0  0  0  0
   24.0532  -20.9854  -13.0076 C   0  0  0  0  0  0  0  0  0  0  0  0
   23.7636  -20.4741  -11.8995 O   0  0  0  0  0  0  0  0  0  0  0  0
   22.9979  -21.2445  -13.9142 N   0  0  0  0  0  0  0  0  0  0  0  0
   21.6145  -20.8549  -13.5621 C   0  0  1  0  0  0  0  0  0  0  0  0
   20.9691  -20.2575  -14.7660 C   0  0  0  0  0  0  0  0  0  0  0  0
   21.3175  -18.8301  -15.0236 C   0  0  0  0  0  0  0  0  0  0  0  0
   20.0629  -18.0330  -15.3341 C   0  0  0  0  0  0  0  0  0  0  0  0
   19.3539  -17.5701  -14.4136 O   0  0  0  0  0  0  0  0  0  0  0  0
   20.8841  -22.0178  -13.0541 C   0  0  0  0  0  0  0  0  0  0  0  0
   21.1059  -23.1972  -13.5317 O   0  0  0  0  0  0  0  0  0  0  0  0
   19.7357  -17.8392  -16.6507 O   0  0  0  0  0  0  0  0  0  0  0  0
   19.9171  -21.9384  -12.0266 N   0  0  0  0  0  0  0  0  0  0  0  0
   19.2978  -23.1692  -11.5327 C   0  0  1  0  0  0  0  0  0  0  0  0
   19.2361  -22.9832  -10.0093 C   0  0  0  0  0  0  0  0  0  0  0  0
   18.5532  -24.1523   -9.3915 C   0  0  0  0  0  0  0  0  0  0  0  0
   18.5246  -23.8812   -7.8729 C   0  0  0  0  0  0  0  0  0  0  0  0
   17.7398  -25.0527   -7.2727 C   0  0  0  0  0  0  0  0  0  0  0  0
   17.6709  -24.8912   -5.8490 N   0  0  0  0  0  0  0  0  0  0  0  0
   17.9690  -23.2971  -12.1432 C   0  0  0  0  0  0  0  0  0  0  0  0
   17.3843  -22.3038  -12.6400 O   0  0  0  0  0  0  0  0  0  0  0  0
   17.2577  -24.5024  -12.2250 O   0  0  0  0  0  0  0  0  0  0  0  0
  2  1  1  1
  2  3  1  0
  4  5  1  0
  4  2  1  0
  5  6  1  6
  7  5  1  0
  7  8  2  0
  9  7  1  0
 10  9  1  0
 10 11  1  6
 12 11  1  0
 12 13  1  0
 13 14  2  0
 15 10  1  0
 16 15  2  0
 17 13  1  0
 18 15  1  0
 19 18  1  0
 19 25  1  0
 19 20  1  1
 21 20  1  0
 22 23  1  0
 22 21  1  0
 23 24  1  0
 25 27  1  0
 26 25  2  0
M  END
$$$$
