LEK.pdb
     RDKit          3D

 27 26  0  0  1  0  0  0  0  0999 V2000
   29.2324  -19.4505  -13.1260 C   0  0  0  0  0  0  0  0  0  0  0  0
   28.2761  -19.4602  -14.2921 C   0  0  1  0  0  0  0  0  0  0  0  0
   28.9600  -19.8998  -15.5676 C   0  0  0  0  0  0  0  0  0  0  0  0
   27.1001  -20.3130  -13.9469 C   0  0  0  0  0  0  0  0  0  0  0  0
   26.1244  -20.3885  -15.1004 C   0  0  2  0  0  0  0  0  0  0  0  0
   25.8071  -19.0764  -15.6227 N   0  0  0  0  0  0  0  0  0  0  0  0
   24.8769  -21.0661  -14.6796 C   0  0  0  0  0  0  0  0  0  0  0  0
   24.9430  -22.1969  -14.1408 O   0  0  0  0  0  0  0  0  0  0  0  0
   23.5964  -20.4911  -14.8587 N   0  0  0  0  0  0  0  0  0  0  0  0
   22.3869  -21.2642  -14.4995 C   0  0  1  0  0  0  0  0  0  0  0  0
   21.2770  -20.3076  -14.2241 C   0  0  0  0  0  0  0  0  0  0  0  0
   19.9777  -20.9408  -13.8550 C   0  0  0  0  0  0  0  0  0  0  0  0
   18.9524  -19.8729  -13.5172 C   0  0  0  0  0  0  0  0  0  0  0  0
   17.8228  -20.1848  -13.0803 O   0  0  0  0  0  0  0  0  0  0  0  0
   22.0613  -22.2058  -15.5725 C   0  0  0  0  0  0  0  0  0  0  0  0
   22.2815  -21.9008  -16.8081 O   0  0  0  0  0  0  0  0  0  0  0  0
   19.3054  -18.5622  -13.7063 O   0  0  0  0  0  0  0  0  0  0  0  0
   21.5067  -23.4848  -15.3405 N   0  0  0  0  0  0  0  0  0  0  0  0
   21.5286  -24.4779  -16.4155 C   0  0  1  0  0  0  0  0  0  0  0  0
   22.6641  -25.4372  -16.0287 C   0  0  0  0  0  0  0  0  0  0  0  0
   22.8230  -26.4734  -17.0851 C   0  0  0  0  0  0  0  0  0  0  0  0
   23.9939  -27.3714  -16.6347 C   0  0  0  0  0  0  0  0  0  0  0  0
   24.1673  -28.3964  -17.7607 C   0  0  0  0  0  0  0  0  0  0  0  0
   25.2691  -29.2588  -17.4449 N   0  0  0  0  0  0  0  0  0  0  0  0
   20.2187  -25.1388  -16.4631 C   0  0  0  0  0  0  0  0  0  0  0  0
   19.5330  -25.2969  -15.4238 O   0  0  0  0  0  0  0  0  0  0  0  0
   19.6343  -25.6348  -17.6368 O   0  0  0  0  0  0  0  0  0  0  0  0
  2  1  1  1
  2  3  1  0
  4  5  1  0
  4  2  1  0
  5  6  1  1
  7  5  1  0
  7  8  2  0
  9  7  1  0
 10  9  1  0
 10 11  1  6
 12 11  1  0
 12 13  1  0
 13 14  2  0
 15 10  1  0
 16 15  2  0
 17 13  1  0
 18 15  1  0
 19 18  1  0
 19 25  1  0
 19 20  1  1
 21 20  1  0
 22 23  1  0
 22 21  1  0
 23 24  1  0
 25 27  1  0
 26 25  2  0
M  END
$$$$
