LEK.pdb
     RDKit          3D

 27 26  0  0  1  0  0  0  0  0999 V2000
   20.6723  -13.8200  -20.1307 C   0  0  0  0  0  0  0  0  0  0  0  0
   20.1837  -15.2371  -19.9650 C   0  0  1  0  0  0  0  0  0  0  0  0
   20.8811  -16.1803  -20.9199 C   0  0  0  0  0  0  0  0  0  0  0  0
   20.3457  -15.6412  -18.5368 C   0  0  0  0  0  0  0  0  0  0  0  0
   20.1731  -17.1348  -18.3702 C   0  0  2  0  0  0  0  0  0  0  0  0
   18.7784  -17.5210  -18.3972 N   0  0  0  0  0  0  0  0  0  0  0  0
   20.7853  -17.5882  -17.1005 C   0  0  0  0  0  0  0  0  0  0  0  0
   21.3462  -16.7502  -16.3545 O   0  0  0  0  0  0  0  0  0  0  0  0
   20.7676  -18.9401  -16.6828 N   0  0  0  0  0  0  0  0  0  0  0  0
   21.2933  -19.3039  -15.3483 C   0  0  1  0  0  0  0  0  0  0  0  0
   20.2717  -20.1318  -14.6457 C   0  0  0  0  0  0  0  0  0  0  0  0
   19.0613  -19.3868  -14.1927 C   0  0  0  0  0  0  0  0  0  0  0  0
   18.1334  -20.3125  -13.4260 C   0  0  0  0  0  0  0  0  0  0  0  0
   18.1814  -20.3776  -12.1779 O   0  0  0  0  0  0  0  0  0  0  0  0
   22.5749  -19.9976  -15.4905 C   0  0  0  0  0  0  0  0  0  0  0  0
   22.7397  -20.9007  -16.3990 O   0  0  0  0  0  0  0  0  0  0  0  0
   17.2462  -21.0704  -14.1446 O   0  0  0  0  0  0  0  0  0  0  0  0
   23.6965  -19.7306  -14.6732 N   0  0  0  0  0  0  0  0  0  0  0  0
   24.9146  -20.5220  -14.8522 C   0  0  1  0  0  0  0  0  0  0  0  0
   26.0520  -19.5725  -14.4472 C   0  0  0  0  0  0  0  0  0  0  0  0
   27.3417  -20.3152  -14.4370 C   0  0  0  0  0  0  0  0  0  0  0  0
   27.8006  -20.4014  -15.9075 C   0  0  0  0  0  0  0  0  0  0  0  0
   29.1265  -21.1689  -15.8679 C   0  0  0  0  0  0  0  0  0  0  0  0
   29.5796  -21.3927  -17.2103 N   0  0  0  0  0  0  0  0  0  0  0  0
   24.8294  -21.7063  -13.9890 C   0  0  0  0  0  0  0  0  0  0  0  0
   24.0580  -21.7342  -12.9993 O   0  0  0  0  0  0  0  0  0  0  0  0
   25.5768  -22.8754  -14.1879 O   0  0  0  0  0  0  0  0  0  0  0  0
  2  1  1  1
  2  3  1  0
  4  5  1  0
  4  2  1  0
  5  6  1  1
  7  5  1  0
  7  8  2  0
  9  7  1  0
 10  9  1  0
 10 11  1  6
 12 11  1  0
 12 13  1  0
 13 14  2  0
 15 10  1  0
 16 15  2  0
 17 13  1  0
 18 15  1  0
 19 18  1  0
 19 25  1  0
 19 20  1  1
 21 20  1  0
 22 23  1  0
 22 21  1  0
 23 24  1  0
 25 27  1  0
 26 25  2  0
M  END
$$$$
