LEK.pdb
     RDKit          3D

 27 26  0  0  1  0  0  0  0  0999 V2000
   17.8277  -14.1974  -16.1572 C   0  0  0  0  0  0  0  0  0  0  0  0
   18.9076  -13.3516  -16.7838 C   0  0  1  0  0  0  0  0  0  0  0  0
   18.8709  -13.4328  -18.2937 C   0  0  0  0  0  0  0  0  0  0  0  0
   18.7798  -11.9518  -16.2800 C   0  0  0  0  0  0  0  0  0  0  0  0
   19.8548  -11.0622  -16.8640 C   0  0  2  0  0  0  0  0  0  0  0  0
   21.1779  -11.4705  -16.4425 N   0  0  0  0  0  0  0  0  0  0  0  0
   19.6272   -9.6517  -16.4752 C   0  0  0  0  0  0  0  0  0  0  0  0
   18.4708   -9.1718  -16.5511 O   0  0  0  0  0  0  0  0  0  0  0  0
   20.6662   -8.8079  -16.0157 N   0  0  0  0  0  0  0  0  0  0  0  0
   20.3920   -7.3760  -15.7624 C   0  0  1  0  0  0  0  0  0  0  0  0
   21.3890   -6.8695  -14.7764 C   0  0  0  0  0  0  0  0  0  0  0  0
   21.2077   -5.4447  -14.3737 C   0  0  0  0  0  0  0  0  0  0  0  0
   22.3005   -5.0319  -13.4036 C   0  0  0  0  0  0  0  0  0  0  0  0
   22.4262   -5.6046  -12.2988 O   0  0  0  0  0  0  0  0  0  0  0  0
   20.4242   -6.6325  -17.0234 C   0  0  0  0  0  0  0  0  0  0  0  0
   21.2859   -6.9243  -17.9402 O   0  0  0  0  0  0  0  0  0  0  0  0
   23.1401   -4.0155  -13.7780 O   0  0  0  0  0  0  0  0  0  0  0  0
   19.5337   -5.5774  -17.3249 N   0  0  0  0  0  0  0  0  0  0  0  0
   19.6315   -4.9100  -18.6238 C   0  0  1  0  0  0  0  0  0  0  0  0
   18.2792   -5.1838  -19.2987 C   0  0  0  0  0  0  0  0  0  0  0  0
   18.1994   -4.4299  -20.5794 C   0  0  0  0  0  0  0  0  0  0  0  0
   16.8068   -4.7319  -21.1708 C   0  0  0  0  0  0  0  0  0  0  0  0
   16.7836   -4.0143  -22.5248 C   0  0  0  0  0  0  0  0  0  0  0  0
   15.4488   -4.0445  -23.0492 N   0  0  0  0  0  0  0  0  0  0  0  0
   19.8719   -3.4803  -18.3937 C   0  0  0  0  0  0  0  0  0  0  0  0
   19.4295   -2.9038  -17.3703 O   0  0  0  0  0  0  0  0  0  0  0  0
   20.5959   -2.6575  -19.2679 O   0  0  0  0  0  0  0  0  0  0  0  0
  2  1  1  1
  2  3  1  0
  4  5  1  0
  4  2  1  0
  5  6  1  1
  7  5  1  0
  7  8  2  0
  9  7  1  0
 10  9  1  0
 10 11  1  1
 12 11  1  0
 12 13  1  0
 13 14  2  0
 15 10  1  0
 16 15  2  0
 17 13  1  0
 18 15  1  0
 19 18  1  0
 19 25  1  0
 19 20  1  1
 21 20  1  0
 22 23  1  0
 22 21  1  0
 23 24  1  0
 25 27  1  0
 26 25  2  0
M  END
$$$$
