LEK.pdb
     RDKit          3D

 27 26  0  0  1  0  0  0  0  0999 V2000
   29.8839  -25.0162  -20.1571 C   0  0  0  0  0  0  0  0  0  0  0  0
   28.6527  -25.3755  -19.3638 C   0  0  1  0  0  0  0  0  0  0  0  0
   27.7471  -26.3089  -20.1362 C   0  0  0  0  0  0  0  0  0  0  0  0
   29.0727  -25.9407  -18.0472 C   0  0  0  0  0  0  0  0  0  0  0  0
   27.8762  -26.4074  -17.2479 C   0  0  2  0  0  0  0  0  0  0  0  0
   27.5789  -25.5101  -16.1518 N   0  0  0  0  0  0  0  0  0  0  0  0
   28.1069  -27.7713  -16.7194 C   0  0  0  0  0  0  0  0  0  0  0  0
   28.7788  -27.9189  -15.6706 O   0  0  0  0  0  0  0  0  0  0  0  0
   27.5985  -28.9318  -17.3496 N   0  0  0  0  0  0  0  0  0  0  0  0
   27.8245  -30.2596  -16.7369 C   0  0  1  0  0  0  0  0  0  0  0  0
   26.5318  -31.0022  -16.7239 C   0  0  0  0  0  0  0  0  0  0  0  0
   26.5865  -32.3496  -16.0861 C   0  0  0  0  0  0  0  0  0  0  0  0
   25.1888  -32.9320  -15.9725 C   0  0  0  0  0  0  0  0  0  0  0  0
   24.1939  -32.2942  -16.3819 O   0  0  0  0  0  0  0  0  0  0  0  0
   28.8729  -30.9734  -17.4686 C   0  0  0  0  0  0  0  0  0  0  0  0
   28.9732  -30.8653  -18.7518 O   0  0  0  0  0  0  0  0  0  0  0  0
   25.0555  -34.1741  -15.4090 O   0  0  0  0  0  0  0  0  0  0  0  0
   29.8305  -31.8018  -16.8410 N   0  0  0  0  0  0  0  0  0  0  0  0
   30.8671  -32.4380  -17.6552 C   0  0  1  0  0  0  0  0  0  0  0  0
   31.8021  -33.1036  -16.6345 C   0  0  0  0  0  0  0  0  0  0  0  0
   32.9238  -33.7726  -17.3480 C   0  0  0  0  0  0  0  0  0  0  0  0
   33.8358  -34.3673  -16.2548 C   0  0  0  0  0  0  0  0  0  0  0  0
   34.9231  -35.1342  -17.0153 C   0  0  0  0  0  0  0  0  0  0  0  0
   35.9475  -35.5334  -16.0941 N   0  0  0  0  0  0  0  0  0  0  0  0
   30.2237  -33.4064  -18.5514 C   0  0  0  0  0  0  0  0  0  0  0  0
   30.6900  -33.6449  -19.6920 O   0  0  0  0  0  0  0  0  0  0  0  0
   29.0686  -34.1297  -18.2230 O   0  0  0  0  0  0  0  0  0  0  0  0
  2  1  1  6
  2  3  1  0
  4  5  1  0
  4  2  1  0
  5  6  1  1
  7  5  1  0
  7  8  2  0
  9  7  1  0
 10  9  1  0
 10 11  1  6
 12 11  1  0
 12 13  1  0
 13 14  2  0
 15 10  1  0
 16 15  2  0
 17 13  1  0
 18 15  1  0
 19 18  1  0
 19 25  1  0
 19 20  1  1
 21 20  1  0
 22 23  1  0
 22 21  1  0
 23 24  1  0
 25 27  1  0
 26 25  2  0
M  END
$$$$
