LEK.pdb
     RDKit          3D

 27 26  0  0  1  0  0  0  0  0999 V2000
   29.4946  -21.8909  -10.2352 C   0  0  0  0  0  0  0  0  0  0  0  0
   28.4458  -20.8099  -10.1603 C   0  0  1  0  0  0  0  0  0  0  0  0
   29.0110  -19.4601  -10.5433 C   0  0  0  0  0  0  0  0  0  0  0  0
   27.2806  -21.2062  -11.0056 C   0  0  0  0  0  0  0  0  0  0  0  0
   26.2373  -20.1115  -11.0430 C   0  0  2  0  0  0  0  0  0  0  0  0
   25.7236  -19.8132   -9.7231 N   0  0  0  0  0  0  0  0  0  0  0  0
   25.1172  -20.4942  -11.9327 C   0  0  0  0  0  0  0  0  0  0  0  0
   25.3662  -20.9327  -13.0811 O   0  0  0  0  0  0  0  0  0  0  0  0
   23.7607  -20.3875  -11.5437 N   0  0  0  0  0  0  0  0  0  0  0  0
   22.6940  -20.8287  -12.4694 C   0  0  1  0  0  0  0  0  0  0  0  0
   21.4023  -20.8570  -11.7254 C   0  0  0  0  0  0  0  0  0  0  0  0
   20.2312  -21.3354  -12.5159 C   0  0  0  0  0  0  0  0  0  0  0  0
   18.9901  -21.3734  -11.6419 C   0  0  0  0  0  0  0  0  0  0  0  0
   18.1052  -20.4959  -11.7475 O   0  0  0  0  0  0  0  0  0  0  0  0
   22.6494  -19.9439  -13.6352 C   0  0  0  0  0  0  0  0  0  0  0  0
   22.6325  -18.6606  -13.4900 O   0  0  0  0  0  0  0  0  0  0  0  0
   18.8732  -22.3970  -10.7381 O   0  0  0  0  0  0  0  0  0  0  0  0
   22.6315  -20.4159  -14.9671 N   0  0  0  0  0  0  0  0  0  0  0  0
   22.6776  -19.4512  -16.0669 C   0  0  1  0  0  0  0  0  0  0  0  0
   23.4175  -20.1882  -17.1931 C   0  0  0  0  0  0  0  0  0  0  0  0
   23.5180  -19.3038  -18.3859 C   0  0  0  0  0  0  0  0  0  0  0  0
   24.2034  -20.1407  -19.4860 C   0  0  0  0  0  0  0  0  0  0  0  0
   24.3219  -19.1988  -20.6891 C   0  0  0  0  0  0  0  0  0  0  0  0
   24.8824  -19.9190  -21.7957 N   0  0  0  0  0  0  0  0  0  0  0  0
   21.3005  -19.0957  -16.4301 C   0  0  0  0  0  0  0  0  0  0  0  0
   20.3662  -19.9274  -16.3262 O   0  0  0  0  0  0  0  0  0  0  0  0
   20.9176  -17.8349  -16.9086 O   0  0  0  0  0  0  0  0  0  0  0  0
  2  1  1  6
  2  3  1  0
  4  5  1  0
  4  2  1  0
  5  6  1  1
  7  5  1  0
  7  8  2  0
  9  7  1  0
 10  9  1  0
 10 11  1  1
 12 11  1  0
 12 13  1  0
 13 14  2  0
 15 10  1  0
 16 15  2  0
 17 13  1  0
 18 15  1  0
 19 18  1  0
 19 25  1  0
 19 20  1  6
 21 20  1  0
 22 23  1  0
 22 21  1  0
 23 24  1  0
 25 27  1  0
 26 25  2  0
M  END
$$$$
