LEK.pdb
     RDKit          3D

 27 26  0  0  1  0  0  0  0  0999 V2000
   27.0485  -18.1431  -15.3460 C   0  0  0  0  0  0  0  0  0  0  0  0
   26.2230  -19.4021  -15.2583 C   0  0  1  0  0  0  0  0  0  0  0  0
   26.8938  -20.5567  -15.9688 C   0  0  0  0  0  0  0  0  0  0  0  0
   25.9404  -19.6969  -13.8222 C   0  0  0  0  0  0  0  0  0  0  0  0
   25.0726  -20.9276  -13.6790 C   0  0  2  0  0  0  0  0  0  0  0  0
   25.1967  -21.8085  -14.8208 N   0  0  0  0  0  0  0  0  0  0  0  0
   23.6533  -20.5429  -13.5056 C   0  0  0  0  0  0  0  0  0  0  0  0
   23.3161  -19.8731  -12.5002 O   0  0  0  0  0  0  0  0  0  0  0  0
   22.6454  -20.8997  -14.4327 N   0  0  0  0  0  0  0  0  0  0  0  0
   21.2271  -20.6142  -14.1223 C   0  0  1  0  0  0  0  0  0  0  0  0
   20.5897  -20.0120  -15.3281 C   0  0  0  0  0  0  0  0  0  0  0  0
   20.9959  -18.6064  -15.6188 C   0  0  0  0  0  0  0  0  0  0  0  0
   19.8599  -17.6544  -15.2888 C   0  0  0  0  0  0  0  0  0  0  0  0
   18.7909  -18.0787  -14.7973 O   0  0  0  0  0  0  0  0  0  0  0  0
   20.5560  -21.8409  -13.6879 C   0  0  0  0  0  0  0  0  0  0  0  0
   20.9839  -22.9983  -14.0695 O   0  0  0  0  0  0  0  0  0  0  0  0
   20.0449  -16.3212  -15.5465 O   0  0  0  0  0  0  0  0  0  0  0  0
   19.4288  -21.8485  -12.8357 N   0  0  0  0  0  0  0  0  0  0  0  0
   18.8336  -23.1291  -12.4506 C   0  0  1  0  0  0  0  0  0  0  0  0
   19.3867  -23.4017  -11.0439 C   0  0  0  0  0  0  0  0  0  0  0  0
   18.3219  -24.0064  -10.1981 C   0  0  0  0  0  0  0  0  0  0  0  0
   18.9449  -24.2094   -8.8013 C   0  0  0  0  0  0  0  0  0  0  0  0
   17.8147  -24.7823   -7.9392 C   0  0  0  0  0  0  0  0  0  0  0  0
   18.3000  -24.9877   -6.6051 N   0  0  0  0  0  0  0  0  0  0  0  0
   17.3728  -22.9856  -12.4683 C   0  0  0  0  0  0  0  0  0  0  0  0
   16.8322  -21.8556  -12.5483 O   0  0  0  0  0  0  0  0  0  0  0  0
   16.4794  -24.0638  -12.4013 O   0  0  0  0  0  0  0  0  0  0  0  0
  2  1  1  1
  2  3  1  0
  4  5  1  0
  4  2  1  0
  5  6  1  6
  7  5  1  0
  7  8  2  0
  9  7  1  0
 10  9  1  0
 10 11  1  6
 12 11  1  0
 12 13  1  0
 13 14  2  0
 15 10  1  0
 16 15  2  0
 17 13  1  0
 18 15  1  0
 19 18  1  0
 19 25  1  0
 19 20  1  1
 21 20  1  0
 22 23  1  0
 22 21  1  0
 23 24  1  0
 25 27  1  0
 26 25  2  0
M  END
$$$$
