LEK.pdb
     RDKit          3D

 27 26  0  0  1  0  0  0  0  0999 V2000
   29.8432  -19.4375   -5.3356 C   0  0  0  0  0  0  0  0  0  0  0  0
   28.4053  -19.8480   -5.5304 C   0  0  1  0  0  0  0  0  0  0  0  0
   27.5128  -19.2734   -4.4528 C   0  0  0  0  0  0  0  0  0  0  0  0
   27.9720  -19.4573   -6.9048 C   0  0  0  0  0  0  0  0  0  0  0  0
   26.5525  -19.9042   -7.1763 C   0  0  2  0  0  0  0  0  0  0  0  0
   26.3642  -21.3076   -6.8763 N   0  0  0  0  0  0  0  0  0  0  0  0
   26.1911  -19.6496   -8.5895 C   0  0  0  0  0  0  0  0  0  0  0  0
   26.1934  -18.4724   -9.0223 O   0  0  0  0  0  0  0  0  0  0  0  0
   25.8384  -20.6852   -9.4872 N   0  0  0  0  0  0  0  0  0  0  0  0
   25.5140  -20.3596  -10.8937 C   0  0  1  0  0  0  0  0  0  0  0  0
   26.4132  -21.1494  -11.7827 C   0  0  0  0  0  0  0  0  0  0  0  0
   26.1800  -20.9579  -13.2437 C   0  0  0  0  0  0  0  0  0  0  0  0
   27.2433  -21.6895  -14.0437 C   0  0  0  0  0  0  0  0  0  0  0  0
   28.1540  -22.3248  -13.4681 O   0  0  0  0  0  0  0  0  0  0  0  0
   24.0974  -20.6249  -11.1518 C   0  0  0  0  0  0  0  0  0  0  0  0
   23.4702  -21.5501  -10.5046 O   0  0  0  0  0  0  0  0  0  0  0  0
   27.1713  -21.6302  -15.4110 O   0  0  0  0  0  0  0  0  0  0  0  0
   23.3320  -19.9022  -12.0946 N   0  0  0  0  0  0  0  0  0  0  0  0
   21.9398  -20.2879  -12.3301 C   0  0  1  0  0  0  0  0  0  0  0  0
   21.4088  -19.2302  -13.3090 C   0  0  0  0  0  0  0  0  0  0  0  0
   21.8844  -19.5407  -14.6847 C   0  0  0  0  0  0  0  0  0  0  0  0
   21.3025  -18.4430  -15.5995 C   0  0  0  0  0  0  0  0  0  0  0  0
   21.8260  -18.7726  -17.0016 C   0  0  0  0  0  0  0  0  0  0  0  0
   21.4199  -17.7387  -17.9092 N   0  0  0  0  0  0  0  0  0  0  0  0
   21.9231  -21.6430  -12.8943 C   0  0  0  0  0  0  0  0  0  0  0  0
   22.9242  -22.1110  -13.4894 O   0  0  0  0  0  0  0  0  0  0  0  0
   20.8229  -22.5086  -12.8197 O   0  0  0  0  0  0  0  0  0  0  0  0
  2  1  1  1
  2  3  1  0
  4  5  1  0
  4  2  1  0
  5  6  1  6
  7  5  1  0
  7  8  2  0
  9  7  1  0
 10  9  1  0
 10 11  1  6
 12 11  1  0
 12 13  1  0
 13 14  2  0
 15 10  1  0
 16 15  2  0
 17 13  1  0
 18 15  1  0
 19 18  1  0
 19 25  1  0
 19 20  1  6
 21 20  1  0
 22 23  1  0
 22 21  1  0
 23 24  1  0
 25 27  1  0
 26 25  2  0
M  END
$$$$
