LEK.pdb
     RDKit          3D

 27 26  0  0  1  0  0  0  0  0999 V2000
   28.9385  -19.3914   -6.6016 C   0  0  0  0  0  0  0  0  0  0  0  0
   27.6311  -20.0175   -7.0174 C   0  0  1  0  0  0  0  0  0  0  0  0
   26.5334  -19.7268   -6.0182 C   0  0  0  0  0  0  0  0  0  0  0  0
   27.2904  -19.5569   -8.3962 C   0  0  0  0  0  0  0  0  0  0  0  0
   26.0484  -20.2502   -8.9110 C   0  0  2  0  0  0  0  0  0  0  0  0
   26.1057  -21.6812   -8.7015 N   0  0  0  0  0  0  0  0  0  0  0  0
   25.8595  -19.9705  -10.3528 C   0  0  0  0  0  0  0  0  0  0  0  0
   25.7843  -18.7811  -10.7438 O   0  0  0  0  0  0  0  0  0  0  0  0
   25.7586  -20.9951  -11.3237 N   0  0  0  0  0  0  0  0  0  0  0  0
   25.6428  -20.6415  -12.7559 C   0  0  1  0  0  0  0  0  0  0  0  0
   26.5520  -21.5271  -13.5380 C   0  0  0  0  0  0  0  0  0  0  0  0
   26.5817  -21.2599  -15.0054 C   0  0  0  0  0  0  0  0  0  0  0  0
   27.5270  -22.2279  -15.6946 C   0  0  0  0  0  0  0  0  0  0  0  0
   27.1057  -23.3047  -16.1713 O   0  0  0  0  0  0  0  0  0  0  0  0
   24.2472  -20.7528  -13.1847 C   0  0  0  0  0  0  0  0  0  0  0  0
   23.4760  -21.6645  -12.6926 O   0  0  0  0  0  0  0  0  0  0  0  0
   28.8509  -21.8831  -15.7760 O   0  0  0  0  0  0  0  0  0  0  0  0
   23.6562  -19.8894  -14.1346 N   0  0  0  0  0  0  0  0  0  0  0  0
   22.2580  -20.0962  -14.5146 C   0  0  1  0  0  0  0  0  0  0  0  0
   21.5969  -18.7256  -14.3062 C   0  0  0  0  0  0  0  0  0  0  0  0
   20.1856  -18.9134  -13.8728 C   0  0  0  0  0  0  0  0  0  0  0  0
   19.5569  -17.5051  -13.8312 C   0  0  0  0  0  0  0  0  0  0  0  0
   18.1215  -17.7227  -13.3404 C   0  0  0  0  0  0  0  0  0  0  0  0
   17.4413  -18.5971  -14.2516 N   0  0  0  0  0  0  0  0  0  0  0  0
   22.2181  -20.5389  -15.9136 C   0  0  0  0  0  0  0  0  0  0  0  0
   21.2677  -21.2344  -16.3477 O   0  0  0  0  0  0  0  0  0  0  0  0
   23.2056  -20.2324  -16.8601 O   0  0  0  0  0  0  0  0  0  0  0  0
  2  1  1  1
  2  3  1  0
  4  5  1  0
  4  2  1  0
  5  6  1  6
  7  5  1  0
  7  8  2  0
  9  7  1  0
 10  9  1  0
 10 11  1  6
 12 11  1  0
 12 13  1  0
 13 14  2  0
 15 10  1  0
 16 15  2  0
 17 13  1  0
 18 15  1  0
 19 18  1  0
 19 25  1  0
 19 20  1  6
 21 20  1  0
 22 23  1  0
 22 21  1  0
 23 24  1  0
 25 27  1  0
 26 25  2  0
M  END
$$$$
