LEK.pdb
     RDKit          3D

 27 26  0  0  1  0  0  0  0  0999 V2000
   21.3326  -18.4738  -16.2346 C   0  0  0  0  0  0  0  0  0  0  0  0
   21.5250  -19.7857  -15.5162 C   0  0  1  0  0  0  0  0  0  0  0  0
   22.4826  -20.6907  -16.2592 C   0  0  0  0  0  0  0  0  0  0  0  0
   21.9633  -19.5110  -14.1155 C   0  0  0  0  0  0  0  0  0  0  0  0
   22.0602  -20.7903  -13.3141 C   0  0  2  0  0  0  0  0  0  0  0  0
   22.0235  -21.9612  -14.1641 N   0  0  0  0  0  0  0  0  0  0  0  0
   20.9613  -20.8655  -12.3243 C   0  0  0  0  0  0  0  0  0  0  0  0
   20.7924  -19.9180  -11.5199 O   0  0  0  0  0  0  0  0  0  0  0  0
   20.0808  -21.9702  -12.2416 N   0  0  0  0  0  0  0  0  0  0  0  0
   19.0851  -22.0361  -11.1490 C   0  0  1  0  0  0  0  0  0  0  0  0
   17.7405  -21.7263  -11.7135 C   0  0  0  0  0  0  0  0  0  0  0  0
   17.4529  -20.2735  -11.8929 C   0  0  0  0  0  0  0  0  0  0  0  0
   16.0878  -20.0851  -12.5306 C   0  0  0  0  0  0  0  0  0  0  0  0
   15.1583  -19.5319  -11.9027 O   0  0  0  0  0  0  0  0  0  0  0  0
   19.1343  -23.3524  -10.5096 C   0  0  0  0  0  0  0  0  0  0  0  0
   19.4699  -24.4018  -11.1837 O   0  0  0  0  0  0  0  0  0  0  0  0
   15.9099  -20.5396  -13.8112 O   0  0  0  0  0  0  0  0  0  0  0  0
   18.8357  -23.5635   -9.1445 N   0  0  0  0  0  0  0  0  0  0  0  0
   18.9044  -24.9205   -8.6004 C   0  0  1  0  0  0  0  0  0  0  0  0
   18.7918  -24.7307   -7.0804 C   0  0  0  0  0  0  0  0  0  0  0  0
   17.3743  -24.9013   -6.6603 C   0  0  0  0  0  0  0  0  0  0  0  0
   17.3656  -24.7951   -5.1212 C   0  0  0  0  0  0  0  0  0  0  0  0
   15.8970  -24.9649   -4.7173 C   0  0  0  0  0  0  0  0  0  0  0  0
   15.7869  -24.8577   -3.2911 N   0  0  0  0  0  0  0  0  0  0  0  0
   17.7936  -25.7009   -9.1589 C   0  0  0  0  0  0  0  0  0  0  0  0
   16.7538  -25.1395   -9.5819 O   0  0  0  0  0  0  0  0  0  0  0  0
   17.7957  -27.0985   -9.2679 O   0  0  0  0  0  0  0  0  0  0  0  0
  2  1  1  6
  2  3  1  0
  4  5  1  0
  4  2  1  0
  5  6  1  6
  7  5  1  0
  7  8  2  0
  9  7  1  0
 10  9  1  0
 10 11  1  6
 12 11  1  0
 12 13  1  0
 13 14  2  0
 15 10  1  0
 16 15  2  0
 17 13  1  0
 18 15  1  0
 19 18  1  0
 19 25  1  0
 19 20  1  1
 21 20  1  0
 22 23  1  0
 22 21  1  0
 23 24  1  0
 25 27  1  0
 26 25  2  0
M  END
$$$$
