LEK.pdb
     RDKit          3D

 27 26  0  0  1  0  0  0  0  0999 V2000
   23.2673  -11.9775  -21.7084 C   0  0  0  0  0  0  0  0  0  0  0  0
   23.0119  -12.4754  -20.3080 C   0  0  1  0  0  0  0  0  0  0  0  0
   24.3036  -12.7804  -19.5827 C   0  0  0  0  0  0  0  0  0  0  0  0
   22.1686  -11.4772  -19.5855 C   0  0  0  0  0  0  0  0  0  0  0  0
   21.8716  -11.9345  -18.1745 C   0  0  2  0  0  0  0  0  0  0  0  0
   21.1397  -13.1831  -18.1570 N   0  0  0  0  0  0  0  0  0  0  0  0
   21.1000  -10.9009  -17.4471 C   0  0  0  0  0  0  0  0  0  0  0  0
   19.8484  -10.8968  -17.5288 O   0  0  0  0  0  0  0  0  0  0  0  0
   21.7157   -9.9042  -16.6534 N   0  0  0  0  0  0  0  0  0  0  0  0
   20.8828   -8.8856  -15.9763 C   0  0  1  0  0  0  0  0  0  0  0  0
   21.2406   -8.8661  -14.5292 C   0  0  0  0  0  0  0  0  0  0  0  0
   20.5296   -7.8348  -13.7191 C   0  0  0  0  0  0  0  0  0  0  0  0
   19.3539   -8.4609  -12.9900 C   0  0  0  0  0  0  0  0  0  0  0  0
   19.0939   -9.6774  -13.1200 O   0  0  0  0  0  0  0  0  0  0  0  0
   21.0711   -7.5827  -16.6173 C   0  0  0  0  0  0  0  0  0  0  0  0
   22.2567   -7.1311  -16.8594 O   0  0  0  0  0  0  0  0  0  0  0  0
   18.5915   -7.6517  -12.1888 O   0  0  0  0  0  0  0  0  0  0  0  0
   19.9995   -6.7517  -17.0152 N   0  0  0  0  0  0  0  0  0  0  0  0
   20.2865   -5.4033  -17.5070 C   0  0  1  0  0  0  0  0  0  0  0  0
   18.9654   -4.9346  -18.1346 C   0  0  0  0  0  0  0  0  0  0  0  0
   19.1135   -3.5363  -18.6224 C   0  0  0  0  0  0  0  0  0  0  0  0
   17.7765   -3.1731  -19.3012 C   0  0  0  0  0  0  0  0  0  0  0  0
   17.9570   -1.7334  -19.7943 C   0  0  0  0  0  0  0  0  0  0  0  0
   18.7362   -1.7438  -20.9986 N   0  0  0  0  0  0  0  0  0  0  0  0
   20.7005   -4.5731  -16.3694 C   0  0  0  0  0  0  0  0  0  0  0  0
   20.2082   -4.7439  -15.2276 O   0  0  0  0  0  0  0  0  0  0  0  0
   21.6540   -3.5489  -16.4537 O   0  0  0  0  0  0  0  0  0  0  0  0
  2  1  1  6
  2  3  1  0
  4  5  1  0
  4  2  1  0
  5  6  1  6
  7  5  1  0
  7  8  2  0
  9  7  1  0
 10  9  1  0
 10 11  1  1
 12 11  1  0
 12 13  1  0
 13 14  2  0
 15 10  1  0
 16 15  2  0
 17 13  1  0
 18 15  1  0
 19 18  1  0
 19 25  1  0
 19 20  1  1
 21 20  1  0
 22 23  1  0
 22 21  1  0
 23 24  1  0
 25 27  1  0
 26 25  2  0
M  END
$$$$
