ATT.pdb
     RDKit          3D

 20 19  0  0  1  0  0  0  0  0999 V2000
   18.7348  -15.4612  -16.3871 C   0  0  0  0  0  0  0  0  0  0  0  0
   19.1224  -15.0829  -17.7927 C   0  0  2  0  0  0  0  0  0  0  0  0
   19.9076  -16.1292  -18.3802 N   0  0  0  0  0  0  0  0  0  0  0  0
   19.8492  -13.7851  -17.7594 C   0  0  0  0  0  0  0  0  0  0  0  0
   21.1048  -13.7802  -17.7374 O   0  0  0  0  0  0  0  0  0  0  0  0
   19.3413  -11.1169  -20.2989 C   0  0  0  0  0  0  0  0  0  0  0  0
   19.2960  -10.4138  -18.9675 C   0  0  1  0  0  0  0  0  0  0  0  0
   17.9789  -10.1300  -18.6115 O   0  0  0  0  0  0  0  0  0  0  0  0
   19.8990  -11.2933  -17.8928 C   0  0  2  0  0  0  0  0  0  0  0  0
   19.1840  -12.5429  -17.7513 N   0  0  0  0  0  0  0  0  0  0  0  0
   19.9554  -10.5996  -16.5965 C   0  0  0  0  0  0  0  0  0  0  0  0
   19.0945  -10.8368  -15.7201 O   0  0  0  0  0  0  0  0  0  0  0  0
   23.0825  -10.3856  -14.2895 C   0  0  0  0  0  0  0  0  0  0  0  0
   22.5790   -9.0078  -14.5772 C   0  0  1  0  0  0  0  0  0  0  0  0
   23.3360   -8.4324  -15.6031 O   0  0  0  0  0  0  0  0  0  0  0  0
   21.1253   -9.0187  -15.0295 C   0  0  2  0  0  0  0  0  0  0  0  0
   20.9962   -9.6464  -16.3260 N   0  0  0  0  0  0  0  0  0  0  0  0
   20.5898   -7.6245  -15.0843 C   0  0  0  0  0  0  0  0  0  0  0  0
   20.4757   -6.8831  -13.9173 O   0  0  0  0  0  0  0  0  0  0  0  0
   20.2360   -7.0978  -16.1672 O   0  0  0  0  0  0  0  0  0  0  0  0
  2  3  1  0
  2  4  1  0
  2  1  1  1
  4  5  2  0
  7  6  1  6
  7  9  1  0
  8  7  1  0
  9 11  1  0
 10  4  1  0
  9 10  1  1
 11 17  1  0
 11 12  2  0
 14 13  1  6
 14 16  1  0
 15 14  1  0
 16 18  1  0
 16 17  1  6
 18 20  2  0
 18 19  1  0
M  END
$$$$
