ATT.pdb
     RDKit          3D

 20 19  0  0  1  0  0  0  0  0999 V2000
   23.4716  -20.9466  -10.6016 C   0  0  0  0  0  0  0  0  0  0  0  0
   24.9514  -20.8331  -10.3438 C   0  0  2  0  0  0  0  0  0  0  0  0
   25.1781  -20.2394   -9.0583 N   0  0  0  0  0  0  0  0  0  0  0  0
   25.5733  -20.0476  -11.4438 C   0  0  0  0  0  0  0  0  0  0  0  0
   25.7068  -18.8053  -11.3173 O   0  0  0  0  0  0  0  0  0  0  0  0
   28.9865  -20.3604  -12.7489 C   0  0  0  0  0  0  0  0  0  0  0  0
   28.0907  -20.4719  -13.9549 C   0  0  1  0  0  0  0  0  0  0  0  0
   27.9187  -21.8081  -14.3115 O   0  0  0  0  0  0  0  0  0  0  0  0
   26.7298  -19.8833  -13.6495 C   0  0  2  0  0  0  0  0  0  0  0  0
   26.0261  -20.6419  -12.6385 N   0  0  0  0  0  0  0  0  0  0  0  0
   25.9029  -19.7780  -14.8620 C   0  0  0  0  0  0  0  0  0  0  0  0
   25.3442  -20.7947  -15.3305 O   0  0  0  0  0  0  0  0  0  0  0  0
   22.8009  -17.6562  -15.6791 C   0  0  0  0  0  0  0  0  0  0  0  0
   23.9188  -17.2743  -16.5950 C   0  0  1  0  0  0  0  0  0  0  0  0
   24.5781  -16.1477  -16.0923 O   0  0  0  0  0  0  0  0  0  0  0  0
   24.9484  -18.3881  -16.7275 C   0  0  2  0  0  0  0  0  0  0  0  0
   25.7301  -18.5107  -15.5169 N   0  0  0  0  0  0  0  0  0  0  0  0
   25.8498  -18.1241  -17.8900 C   0  0  0  0  0  0  0  0  0  0  0  0
   27.1936  -17.8552  -17.6738 O   0  0  0  0  0  0  0  0  0  0  0  0
   25.4227  -18.1385  -19.0700 O   0  0  0  0  0  0  0  0  0  0  0  0
  2  3  1  0
  2  4  1  0
  2  1  1  6
  4  5  2  0
  7  6  1  1
  7  9  1  0
  8  7  1  0
  9 11  1  0
 10  4  1  0
  9 10  1  1
 11 17  1  0
 11 12  2  0
 14 13  1  1
 14 16  1  0
 15 14  1  0
 16 18  1  0
 16 17  1  1
 18 20  2  0
 18 19  1  0
M  END
$$$$
