ATT.pdb
     RDKit          3D

 20 19  0  0  1  0  0  0  0  0999 V2000
   25.2644  -15.4248  -15.9825 C   0  0  0  0  0  0  0  0  0  0  0  0
   24.0679  -15.3856  -16.8968 C   0  0  2  0  0  0  0  0  0  0  0  0
   24.3012  -16.2181  -18.0409 N   0  0  0  0  0  0  0  0  0  0  0  0
   23.7967  -13.9724  -17.2751 C   0  0  0  0  0  0  0  0  0  0  0  0
   24.5205  -13.4131  -18.1355 O   0  0  0  0  0  0  0  0  0  0  0  0
   20.4045  -12.4873  -18.4349 C   0  0  0  0  0  0  0  0  0  0  0  0
   20.9444  -11.6665  -17.2930 C   0  0  1  0  0  0  0  0  0  0  0  0
   20.3364  -12.0390  -16.0956 O   0  0  0  0  0  0  0  0  0  0  0  0
   22.4364  -11.8833  -17.1551 C   0  0  2  0  0  0  0  0  0  0  0  0
   22.7498  -13.2216  -16.7042 N   0  0  0  0  0  0  0  0  0  0  0  0
   23.0439  -10.8952  -16.2498 C   0  0  0  0  0  0  0  0  0  0  0  0
   22.4007  -10.4672  -15.2657 O   0  0  0  0  0  0  0  0  0  0  0  0
   26.9103  -10.8520  -14.9787 C   0  0  0  0  0  0  0  0  0  0  0  0
   26.4930   -9.5627  -15.6095 C   0  0  1  0  0  0  0  0  0  0  0  0
   26.9466   -9.5145  -16.9318 O   0  0  0  0  0  0  0  0  0  0  0  0
   24.9783   -9.4099  -15.6376 C   0  0  2  0  0  0  0  0  0  0  0  0
   24.3771  -10.4143  -16.4869 N   0  0  0  0  0  0  0  0  0  0  0  0
   24.6047   -8.0458  -16.1208 C   0  0  0  0  0  0  0  0  0  0  0  0
   23.9859   -7.8962  -17.3535 O   0  0  0  0  0  0  0  0  0  0  0  0
   24.8364   -7.0194  -15.4369 O   0  0  0  0  0  0  0  0  0  0  0  0
  2  3  1  0
  2  4  1  0
  2  1  1  1
  4  5  2  0
  7  6  1  6
  7  9  1  0
  8  7  1  0
  9 11  1  0
 10  4  1  0
  9 10  1  1
 11 17  1  0
 11 12  2  0
 14 13  1  6
 14 16  1  0
 15 14  1  0
 16 18  1  0
 16 17  1  6
 18 20  2  0
 18 19  1  0
M  END
$$$$
