ATT.pdb
     RDKit          3D

 20 19  0  0  1  0  0  0  0  0999 V2000
   21.9154  -13.1930  -20.1977 C   0  0  0  0  0  0  0  0  0  0  0  0
   23.0853  -12.6482  -19.4207 C   0  0  2  0  0  0  0  0  0  0  0  0
   24.0035  -13.7068  -19.1160 N   0  0  0  0  0  0  0  0  0  0  0  0
   22.5780  -11.9735  -18.1956 C   0  0  0  0  0  0  0  0  0  0  0  0
   21.8430  -12.6085  -17.3996 O   0  0  0  0  0  0  0  0  0  0  0  0
   24.1102  -11.0568  -15.2087 C   0  0  0  0  0  0  0  0  0  0  0  0
   23.5325   -9.7499  -15.6857 C   0  0  1  0  0  0  0  0  0  0  0  0
   24.5107   -8.9893  -16.3233 O   0  0  0  0  0  0  0  0  0  0  0  0
   22.4118  -10.0042  -16.6712 C   0  0  2  0  0  0  0  0  0  0  0  0
   22.8886  -10.6352  -17.8826 N   0  0  0  0  0  0  0  0  0  0  0  0
   21.6929   -8.7640  -17.0027 C   0  0  0  0  0  0  0  0  0  0  0  0
   21.9528   -8.1525  -18.0629 O   0  0  0  0  0  0  0  0  0  0  0  0
   18.0287   -8.1667  -17.5324 C   0  0  0  0  0  0  0  0  0  0  0  0
   18.4602   -7.2860  -16.4043 C   0  0  1  0  0  0  0  0  0  0  0  0
   18.1507   -7.8950  -15.1837 O   0  0  0  0  0  0  0  0  0  0  0  0
   19.9618   -7.0343  -16.4244 C   0  0  2  0  0  0  0  0  0  0  0  0
   20.6890   -8.2454  -16.1148 N   0  0  0  0  0  0  0  0  0  0  0  0
   20.3200   -5.9623  -15.4466 C   0  0  0  0  0  0  0  0  0  0  0  0
   19.8263   -4.6774  -15.6200 O   0  0  0  0  0  0  0  0  0  0  0  0
   21.0629   -6.1921  -14.4615 O   0  0  0  0  0  0  0  0  0  0  0  0
  2  3  1  0
  2  4  1  0
  2  1  1  1
  4  5  2  0
  7  6  1  6
  7  9  1  0
  8  7  1  0
  9 11  1  0
 10  4  1  0
  9 10  1  6
 11 17  1  0
 11 12  2  0
 14 13  1  6
 14 16  1  0
 15 14  1  0
 16 18  1  0
 16 17  1  1
 18 20  2  0
 18 19  1  0
M  END
$$$$
