ATT.pdb
     RDKit          3D

 20 19  0  0  1  0  0  0  0  0999 V2000
   17.5094  -10.6945  -17.3686 C   0  0  0  0  0  0  0  0  0  0  0  0
   18.8830  -11.3022  -17.2554 C   0  0  2  0  0  0  0  0  0  0  0  0
   18.7741  -12.7051  -16.9788 N   0  0  0  0  0  0  0  0  0  0  0  0
   19.6448  -10.5786  -16.2020 C   0  0  0  0  0  0  0  0  0  0  0  0
   19.2275  -10.5924  -15.0177 O   0  0  0  0  0  0  0  0  0  0  0  0
   22.9808  -11.1715  -14.8136 C   0  0  0  0  0  0  0  0  0  0  0  0
   23.0007   -9.7583  -15.3346 C   0  0  1  0  0  0  0  0  0  0  0  0
   23.5714   -9.7160  -16.6053 O   0  0  0  0  0  0  0  0  0  0  0  0
   21.5897   -9.2180  -15.4300 C   0  0  2  0  0  0  0  0  0  0  0  0
   20.8304   -9.8679  -16.4759 N   0  0  0  0  0  0  0  0  0  0  0  0
   21.5824   -7.7614  -15.6378 C   0  0  0  0  0  0  0  0  0  0  0  0
   21.5037   -7.2933  -16.7954 O   0  0  0  0  0  0  0  0  0  0  0  0
   19.3914   -5.4251  -13.4736 C   0  0  0  0  0  0  0  0  0  0  0  0
   20.1219   -4.9803  -14.6996 C   0  0  1  0  0  0  0  0  0  0  0  0
   20.1153   -3.5835  -14.7733 O   0  0  0  0  0  0  0  0  0  0  0  0
   21.5756   -5.4329  -14.6885 C   0  0  2  0  0  0  0  0  0  0  0  0
   21.6653   -6.8661  -14.5169 N   0  0  0  0  0  0  0  0  0  0  0  0
   22.3244   -4.7422  -13.5949 C   0  0  0  0  0  0  0  0  0  0  0  0
   22.6023   -3.3869  -13.6985 O   0  0  0  0  0  0  0  0  0  0  0  0
   22.7141   -5.3586  -12.5735 O   0  0  0  0  0  0  0  0  0  0  0  0
  2  3  1  0
  2  4  1  0
  2  1  1  1
  4  5  2  0
  7  6  1  6
  7  9  1  0
  8  7  1  0
  9 11  1  0
 10  4  1  0
  9 10  1  6
 11 17  1  0
 11 12  2  0
 14 13  1  1
 14 16  1  0
 15 14  1  0
 16 18  1  0
 16 17  1  1
 18 20  2  0
 18 19  1  0
M  END
$$$$
