ATT.pdb
     RDKit          3D

 20 19  0  0  1  0  0  0  0  0999 V2000
   18.1583  -11.8690  -16.5651 C   0  0  0  0  0  0  0  0  0  0  0  0
   17.5117  -11.4128  -15.2833 C   0  0  2  0  0  0  0  0  0  0  0  0
   16.1240  -11.7743  -15.2818 N   0  0  0  0  0  0  0  0  0  0  0  0
   17.7111   -9.9455  -15.1387 C   0  0  0  0  0  0  0  0  0  0  0  0
   17.5004   -9.1932  -16.1219 O   0  0  0  0  0  0  0  0  0  0  0  0
   15.8683   -7.5712  -13.1817 C   0  0  0  0  0  0  0  0  0  0  0  0
   17.2946   -7.3780  -12.7372 C   0  0  1  0  0  0  0  0  0  0  0  0
   17.5288   -8.0582  -11.5437 O   0  0  0  0  0  0  0  0  0  0  0  0
   18.2446   -7.9175  -13.7852 C   0  0  2  0  0  0  0  0  0  0  0  0
   18.1315   -9.3522  -13.9316 N   0  0  0  0  0  0  0  0  0  0  0  0
   19.6390   -7.5534  -13.4882 C   0  0  0  0  0  0  0  0  0  0  0  0
   20.2992   -8.2210  -12.6613 O   0  0  0  0  0  0  0  0  0  0  0  0
   22.6028   -7.8382  -15.4466 C   0  0  0  0  0  0  0  0  0  0  0  0
   22.4654   -6.3739  -15.1795 C   0  0  1  0  0  0  0  0  0  0  0  0
   21.8150   -5.7562  -16.2529 O   0  0  0  0  0  0  0  0  0  0  0  0
   21.6444   -6.1011  -13.9265 C   0  0  2  0  0  0  0  0  0  0  0  0
   20.2531   -6.4313  -14.1429 N   0  0  0  0  0  0  0  0  0  0  0  0
   21.7702   -4.6663  -13.5275 C   0  0  0  0  0  0  0  0  0  0  0  0
   20.6625   -3.8333  -13.5901 O   0  0  0  0  0  0  0  0  0  0  0  0
   22.8607   -4.1866  -13.1327 O   0  0  0  0  0  0  0  0  0  0  0  0
  2  3  1  0
  2  4  1  0
  2  1  1  6
  4  5  2  0
  7  6  1  6
  7  9  1  0
  8  7  1  0
  9 11  1  0
 10  4  1  0
  9 10  1  1
 11 17  1  0
 11 12  2  0
 14 13  1  6
 14 16  1  0
 15 14  1  0
 16 18  1  0
 16 17  1  6
 18 20  2  0
 18 19  1  0
M  END
$$$$
