ATT.pdb
     RDKit          3D

 20 19  0  0  1  0  0  0  0  0999 V2000
   17.8264  -10.5678  -17.6945 C   0  0  0  0  0  0  0  0  0  0  0  0
   19.1498  -11.2240  -17.3992 C   0  0  2  0  0  0  0  0  0  0  0  0
   18.9480  -12.6087  -17.0858 N   0  0  0  0  0  0  0  0  0  0  0  0
   19.8162  -10.4877  -16.2913 C   0  0  0  0  0  0  0  0  0  0  0  0
   19.2625  -10.4315  -15.1655 O   0  0  0  0  0  0  0  0  0  0  0  0
   22.8446  -11.2563  -14.5114 C   0  0  0  0  0  0  0  0  0  0  0  0
   23.0631   -9.8603  -15.0335 C   0  0  1  0  0  0  0  0  0  0  0  0
   23.8151   -9.8914  -16.2064 O   0  0  0  0  0  0  0  0  0  0  0  0
   21.7336   -9.2042  -15.3396 C   0  0  2  0  0  0  0  0  0  0  0  0
   21.0581   -9.8409  -16.4491 N   0  0  0  0  0  0  0  0  0  0  0  0
   21.8905   -7.7661  -15.6081 C   0  0  0  0  0  0  0  0  0  0  0  0
   22.3316   -7.3787  -16.7130 O   0  0  0  0  0  0  0  0  0  0  0  0
   19.5468   -5.2566  -16.2059 C   0  0  0  0  0  0  0  0  0  0  0  0
   20.2722   -4.7452  -15.0030 C   0  0  1  0  0  0  0  0  0  0  0  0
   19.5463   -5.0516  -13.8472 O   0  0  0  0  0  0  0  0  0  0  0  0
   21.6501   -5.3771  -14.8612 C   0  0  2  0  0  0  0  0  0  0  0  0
   21.5398   -6.7966  -14.6072 N   0  0  0  0  0  0  0  0  0  0  0  0
   22.4093   -4.7202  -13.7540 C   0  0  0  0  0  0  0  0  0  0  0  0
   22.7441   -3.3772  -13.8493 O   0  0  0  0  0  0  0  0  0  0  0  0
   22.7573   -5.3543  -12.7285 O   0  0  0  0  0  0  0  0  0  0  0  0
  2  3  1  0
  2  4  1  0
  2  1  1  1
  4  5  2  0
  7  6  1  6
  7  9  1  0
  8  7  1  0
  9 11  1  0
 10  4  1  0
  9 10  1  6
 11 17  1  0
 11 12  2  0
 14 13  1  6
 14 16  1  0
 15 14  1  0
 16 18  1  0
 16 17  1  1
 18 20  2  0
 18 19  1  0
M  END
$$$$
