ATT.pdb
     RDKit          3D

 20 19  0  0  1  0  0  0  0  0999 V2000
   27.6681  -19.6004  -16.8947 C   0  0  0  0  0  0  0  0  0  0  0  0
   27.4882  -20.7920  -15.9909 C   0  0  2  0  0  0  0  0  0  0  0  0
   28.2646  -21.8949  -16.4780 N   0  0  0  0  0  0  0  0  0  0  0  0
   26.0389  -21.1181  -15.9062 C   0  0  0  0  0  0  0  0  0  0  0  0
   25.4372  -21.5296  -16.9287 O   0  0  0  0  0  0  0  0  0  0  0  0
   24.5338  -23.7419  -14.1283 C   0  0  0  0  0  0  0  0  0  0  0  0
   23.7297  -22.5544  -13.6674 C   0  0  1  0  0  0  0  0  0  0  0  0
   24.1460  -22.1465  -12.4015 O   0  0  0  0  0  0  0  0  0  0  0  0
   23.9156  -21.3960  -14.6241 C   0  0  2  0  0  0  0  0  0  0  0  0
   25.2996  -20.9845  -14.7141 N   0  0  0  0  0  0  0  0  0  0  0  0
   23.0754  -20.2473  -14.2505 C   0  0  0  0  0  0  0  0  0  0  0  0
   23.4348  -19.4805  -13.3296 O   0  0  0  0  0  0  0  0  0  0  0  0
   21.9196  -17.2071  -16.1490 C   0  0  0  0  0  0  0  0  0  0  0  0
   20.7084  -17.9919  -15.7598 C   0  0  1  0  0  0  0  0  0  0  0  0
   20.3114  -18.8079  -16.8243 O   0  0  0  0  0  0  0  0  0  0  0  0
   20.9786  -18.8954  -14.5644 C   0  0  2  0  0  0  0  0  0  0  0  0
   21.8386  -19.9966  -14.9377 N   0  0  0  0  0  0  0  0  0  0  0  0
   19.6932  -19.4194  -14.0106 C   0  0  0  0  0  0  0  0  0  0  0  0
   18.7575  -18.5387  -13.4873 O   0  0  0  0  0  0  0  0  0  0  0  0
   19.4315  -20.6468  -14.0045 O   0  0  0  0  0  0  0  0  0  0  0  0
  2  3  1  0
  2  4  1  0
  2  1  1  6
  4  5  2  0
  7  6  1  6
  7  9  1  0
  8  7  1  0
  9 11  1  0
 10  4  1  0
  9 10  1  1
 11 17  1  0
 11 12  2  0
 14 13  1  6
 14 16  1  0
 15 14  1  0
 16 18  1  0
 16 17  1  6
 18 20  2  0
 18 19  1  0
M  END
$$$$
