ATT.pdb
     RDKit          3D

 20 19  0  0  1  0  0  0  0  0999 V2000
   17.9826  -10.5081  -17.8482 C   0  0  0  0  0  0  0  0  0  0  0  0
   19.2093  -11.2235  -17.3456 C   0  0  2  0  0  0  0  0  0  0  0  0
   18.8615  -12.5489  -16.9225 N   0  0  0  0  0  0  0  0  0  0  0  0
   19.8177  -10.4241  -16.2481 C   0  0  0  0  0  0  0  0  0  0  0  0
   19.2514  -10.3802  -15.1281 O   0  0  0  0  0  0  0  0  0  0  0  0
   22.7841  -10.9667  -14.3724 C   0  0  0  0  0  0  0  0  0  0  0  0
   22.9708   -9.5792  -14.9284 C   0  0  1  0  0  0  0  0  0  0  0  0
   23.7753   -9.6147  -16.0658 O   0  0  0  0  0  0  0  0  0  0  0  0
   21.6315   -8.9872  -15.3129 C   0  0  2  0  0  0  0  0  0  0  0  0
   21.0177   -9.7033  -16.4097 N   0  0  0  0  0  0  0  0  0  0  0  0
   21.7493   -7.5600  -15.6507 C   0  0  0  0  0  0  0  0  0  0  0  0
   22.2121   -7.2142  -16.7605 O   0  0  0  0  0  0  0  0  0  0  0  0
   19.3520   -4.9482  -16.3232 C   0  0  0  0  0  0  0  0  0  0  0  0
   20.1021   -4.4831  -15.1168 C   0  0  1  0  0  0  0  0  0  0  0  0
   19.3850   -4.8065  -13.9602 O   0  0  0  0  0  0  0  0  0  0  0  0
   21.4693   -5.1447  -15.0098 C   0  0  2  0  0  0  0  0  0  0  0  0
   21.3354   -6.5536  -14.7122 N   0  0  0  0  0  0  0  0  0  0  0  0
   22.2859   -4.4770  -13.9511 C   0  0  0  0  0  0  0  0  0  0  0  0
   22.6895   -3.1603  -14.1190 O   0  0  0  0  0  0  0  0  0  0  0  0
   22.6217   -5.0787  -12.9021 O   0  0  0  0  0  0  0  0  0  0  0  0
  2  3  1  0
  2  4  1  0
  2  1  1  1
  4  5  2  0
  7  6  1  6
  7  9  1  0
  8  7  1  0
  9 11  1  0
 10  4  1  0
  9 10  1  6
 11 17  1  0
 11 12  2  0
 14 13  1  6
 14 16  1  0
 15 14  1  0
 16 18  1  0
 16 17  1  1
 18 20  2  0
 18 19  1  0
M  END
$$$$
