ATT.pdb
     RDKit          3D

 20 19  0  0  1  0  0  0  0  0999 V2000
   15.7358  -14.0627  -16.0009 C   0  0  0  0  0  0  0  0  0  0  0  0
   15.2937  -12.6447  -16.2519 C   0  0  2  0  0  0  0  0  0  0  0  0
   14.2904  -12.6210  -17.2763 N   0  0  0  0  0  0  0  0  0  0  0  0
   16.4829  -11.8255  -16.6101 C   0  0  0  0  0  0  0  0  0  0  0  0
   17.3045  -12.2638  -17.4527 O   0  0  0  0  0  0  0  0  0  0  0  0
   16.3078   -8.4393  -18.0881 C   0  0  0  0  0  0  0  0  0  0  0  0
   17.2441   -8.3260  -16.9136 C   0  0  1  0  0  0  0  0  0  0  0  0
   16.5780   -7.7980  -15.8093 O   0  0  0  0  0  0  0  0  0  0  0  0
   17.7767   -9.6924  -16.5378 C   0  0  2  0  0  0  0  0  0  0  0  0
   16.7337  -10.5618  -16.0391 N   0  0  0  0  0  0  0  0  0  0  0  0
   18.8623   -9.5953  -15.5494 C   0  0  0  0  0  0  0  0  0  0  0  0
   18.6156   -9.7351  -14.3308 O   0  0  0  0  0  0  0  0  0  0  0  0
   23.6952   -9.8471  -14.6290 C   0  0  0  0  0  0  0  0  0  0  0  0
   22.5917   -9.7781  -15.6349 C   0  0  1  0  0  0  0  0  0  0  0  0
   22.3352  -11.0554  -16.1440 O   0  0  0  0  0  0  0  0  0  0  0  0
   21.2979   -9.2595  -15.0220 C   0  0  2  0  0  0  0  0  0  0  0  0
   20.2114   -9.3399  -15.9731 N   0  0  0  0  0  0  0  0  0  0  0  0
   21.4710   -7.8467  -14.5662 C   0  0  0  0  0  0  0  0  0  0  0  0
   21.8813   -7.5865  -13.2667 O   0  0  0  0  0  0  0  0  0  0  0  0
   21.2538   -6.8770  -15.3328 O   0  0  0  0  0  0  0  0  0  0  0  0
  2  3  1  0
  2  4  1  0
  2  1  1  6
  4  5  2  0
  7  6  1  6
  7  9  1  0
  8  7  1  0
  9 11  1  0
 10  4  1  0
  9 10  1  1
 11 17  1  0
 11 12  2  0
 14 13  1  1
 14 16  1  0
 15 14  1  0
 16 18  1  0
 16 17  1  6
 18 20  2  0
 18 19  1  0
M  END
$$$$
