ATT.pdb
     RDKit          3D

 20 19  0  0  1  0  0  0  0  0999 V2000
   17.7552  -12.1916  -17.7966 C   0  0  0  0  0  0  0  0  0  0  0  0
   18.5156  -11.7089  -16.5891 C   0  0  2  0  0  0  0  0  0  0  0  0
   17.7896  -12.0312  -15.3951 N   0  0  0  0  0  0  0  0  0  0  0  0
   18.7562  -10.2469  -16.7239 C   0  0  0  0  0  0  0  0  0  0  0  0
   19.2243   -9.7939  -17.7975 O   0  0  0  0  0  0  0  0  0  0  0  0
   16.4607   -7.4102  -16.7665 C   0  0  0  0  0  0  0  0  0  0  0  0
   17.4296   -7.1150  -15.6515 C   0  0  1  0  0  0  0  0  0  0  0  0
   16.8760   -7.4631  -14.4208 O   0  0  0  0  0  0  0  0  0  0  0  0
   18.7022   -7.9126  -15.8420 C   0  0  2  0  0  0  0  0  0  0  0  0
   18.4791   -9.3335  -15.6872 N   0  0  0  0  0  0  0  0  0  0  0  0
   19.7601   -7.4690  -14.9206 C   0  0  0  0  0  0  0  0  0  0  0  0
   19.7830   -7.8897  -13.7425 O   0  0  0  0  0  0  0  0  0  0  0  0
   23.4754   -7.8850  -15.5042 C   0  0  0  0  0  0  0  0  0  0  0  0
   23.2122   -6.4332  -15.2644 C   0  0  1  0  0  0  0  0  0  0  0  0
   23.1270   -5.7597  -16.4874 O   0  0  0  0  0  0  0  0  0  0  0  0
   21.9004   -6.2098  -14.5245 C   0  0  2  0  0  0  0  0  0  0  0  0
   20.7734   -6.5516  -15.3640 N   0  0  0  0  0  0  0  0  0  0  0  0
   21.7915   -4.7864  -14.0822 C   0  0  0  0  0  0  0  0  0  0  0  0
   22.6606   -4.2950  -13.1189 O   0  0  0  0  0  0  0  0  0  0  0  0
   20.9273   -4.0129  -14.5617 O   0  0  0  0  0  0  0  0  0  0  0  0
  2  3  1  0
  2  4  1  0
  2  1  1  6
  4  5  2  0
  7  6  1  6
  7  9  1  0
  8  7  1  0
  9 11  1  0
 10  4  1  0
  9 10  1  1
 11 17  1  0
 11 12  2  0
 14 13  1  6
 14 16  1  0
 15 14  1  0
 16 18  1  0
 16 17  1  6
 18 20  2  0
 18 19  1  0
M  END
$$$$
