ATT.pdb
     RDKit          3D

 20 19  0  0  1  0  0  0  0  0999 V2000
   25.5228  -20.3258   -9.0287 C   0  0  0  0  0  0  0  0  0  0  0  0
   26.1098  -21.2069  -10.1002 C   0  0  2  0  0  0  0  0  0  0  0  0
   27.5414  -21.1868  -10.0177 N   0  0  0  0  0  0  0  0  0  0  0  0
   25.6162  -20.7471  -11.4263 C   0  0  0  0  0  0  0  0  0  0  0  0
   26.2037  -19.8041  -12.0116 O   0  0  0  0  0  0  0  0  0  0  0  0
   25.5265  -22.4279  -14.6066 C   0  0  0  0  0  0  0  0  0  0  0  0
   24.1021  -21.9852  -14.3963 C   0  0  1  0  0  0  0  0  0  0  0  0
   23.3241  -23.0483  -13.9416 O   0  0  0  0  0  0  0  0  0  0  0  0
   24.0469  -20.8806  -13.3625 C   0  0  2  0  0  0  0  0  0  0  0  0
   24.5034  -21.3295  -12.0653 N   0  0  0  0  0  0  0  0  0  0  0  0
   22.6931  -20.3155  -13.2484 C   0  0  0  0  0  0  0  0  0  0  0  0
   22.0280  -20.4867  -12.2026 O   0  0  0  0  0  0  0  0  0  0  0  0
   19.1869  -17.4181  -15.3267 C   0  0  0  0  0  0  0  0  0  0  0  0
   20.5582  -18.0103  -15.3841 C   0  0  1  0  0  0  0  0  0  0  0  0
   21.5161  -16.9949  -15.2946 O   0  0  0  0  0  0  0  0  0  0  0  0
   20.8061  -18.9781  -14.2350 C   0  0  2  0  0  0  0  0  0  0  0  0
   22.1245  -19.5643  -14.3334 N   0  0  0  0  0  0  0  0  0  0  0  0
   19.7698  -20.0551  -14.2327 C   0  0  0  0  0  0  0  0  0  0  0  0
   19.9618  -21.1987  -14.9944 O   0  0  0  0  0  0  0  0  0  0  0  0
   18.7186  -19.9549  -13.5545 O   0  0  0  0  0  0  0  0  0  0  0  0
  2  3  1  0
  2  4  1  0
  2  1  1  1
  4  5  2  0
  7  6  1  1
  7  9  1  0
  8  7  1  0
  9 11  1  0
 10  4  1  0
  9 10  1  1
 11 17  1  0
 11 12  2  0
 14 13  1  1
 14 16  1  0
 15 14  1  0
 16 18  1  0
 16 17  1  6
 18 20  2  0
 18 19  1  0
M  END
$$$$
