ATT.pdb
     RDKit          3D

 20 19  0  0  1  0  0  0  0  0999 V2000
   17.3896  -10.9467  -16.5331 C   0  0  0  0  0  0  0  0  0  0  0  0
   18.8467  -11.2881  -16.7051 C   0  0  2  0  0  0  0  0  0  0  0  0
   19.0400  -12.6990  -16.5361 N   0  0  0  0  0  0  0  0  0  0  0  0
   19.6461  -10.4906  -15.7362 C   0  0  0  0  0  0  0  0  0  0  0  0
   19.4969  -10.6844  -14.5045 O   0  0  0  0  0  0  0  0  0  0  0  0
   23.1417  -10.6520  -15.1151 C   0  0  0  0  0  0  0  0  0  0  0  0
   22.9025   -9.1976  -15.4256 C   0  0  1  0  0  0  0  0  0  0  0  0
   23.2138   -8.9265  -16.7567 O   0  0  0  0  0  0  0  0  0  0  0  0
   21.4470   -8.8485  -15.1981 C   0  0  2  0  0  0  0  0  0  0  0  0
   20.5765   -9.5136  -16.1429 N   0  0  0  0  0  0  0  0  0  0  0  0
   21.2259   -7.3949  -15.2516 C   0  0  0  0  0  0  0  0  0  0  0  0
   21.0470   -6.8276  -16.3523 O   0  0  0  0  0  0  0  0  0  0  0  0
   18.5280   -5.3433  -14.2875 C   0  0  0  0  0  0  0  0  0  0  0  0
   19.6636   -4.8155  -13.4713 C   0  0  1  0  0  0  0  0  0  0  0  0
   19.6131   -5.3589  -12.1834 O   0  0  0  0  0  0  0  0  0  0  0  0
   21.0130   -5.1840  -14.0728 C   0  0  2  0  0  0  0  0  0  0  0  0
   21.2135   -6.6159  -14.0441 N   0  0  0  0  0  0  0  0  0  0  0  0
   22.1150   -4.5014  -13.3289 C   0  0  0  0  0  0  0  0  0  0  0  0
   22.2615   -3.1250  -13.4230 O   0  0  0  0  0  0  0  0  0  0  0  0
   22.9215   -5.1435  -12.6131 O   0  0  0  0  0  0  0  0  0  0  0  0
  2  3  1  0
  2  4  1  0
  2  1  1  1
  4  5  2  0
  7  6  1  6
  7  9  1  0
  8  7  1  0
  9 11  1  0
 10  4  1  0
  9 10  1  6
 11 17  1  0
 11 12  2  0
 14 13  1  6
 14 16  1  0
 15 14  1  0
 16 18  1  0
 16 17  1  1
 18 20  2  0
 18 19  1  0
M  END
$$$$
