ATT.pdb
     RDKit          3D

 20 19  0  0  1  0  0  0  0  0999 V2000
   17.3402  -11.1705  -17.0067 C   0  0  0  0  0  0  0  0  0  0  0  0
   18.8354  -11.3378  -17.0807 C   0  0  2  0  0  0  0  0  0  0  0  0
   19.1814  -12.7169  -16.8940 N   0  0  0  0  0  0  0  0  0  0  0  0
   19.4699  -10.4560  -16.0640 C   0  0  0  0  0  0  0  0  0  0  0  0
   18.8620  -10.2107  -14.9929 O   0  0  0  0  0  0  0  0  0  0  0  0
   22.3802  -11.0547  -14.0068 C   0  0  0  0  0  0  0  0  0  0  0  0
   22.6828   -9.7816  -14.7531 C   0  0  1  0  0  0  0  0  0  0  0  0
   23.4539  -10.0509  -15.8822 O   0  0  0  0  0  0  0  0  0  0  0  0
   21.3962   -9.1228  -15.2031 C   0  0  2  0  0  0  0  0  0  0  0  0
   20.7401   -9.8750  -16.2502 N   0  0  0  0  0  0  0  0  0  0  0  0
   21.6256   -7.7396  -15.6492 C   0  0  0  0  0  0  0  0  0  0  0  0
   22.0696   -7.5163  -16.7974 O   0  0  0  0  0  0  0  0  0  0  0  0
   19.4821   -5.0642  -16.5474 C   0  0  0  0  0  0  0  0  0  0  0  0
   20.2466   -4.5369  -15.3761 C   0  0  1  0  0  0  0  0  0  0  0  0
   19.4979   -4.7077  -14.2069 O   0  0  0  0  0  0  0  0  0  0  0  0
   21.5682   -5.2687  -15.1862 C   0  0  2  0  0  0  0  0  0  0  0  0
   21.3426   -6.6362  -14.7732 N   0  0  0  0  0  0  0  0  0  0  0  0
   22.4092   -4.5636  -14.1717 C   0  0  0  0  0  0  0  0  0  0  0  0
   22.9059   -3.2977  -14.4471 O   0  0  0  0  0  0  0  0  0  0  0  0
   22.6830   -5.0882  -13.0650 O   0  0  0  0  0  0  0  0  0  0  0  0
  2  3  1  0
  2  4  1  0
  2  1  1  1
  4  5  2  0
  7  6  1  6
  7  9  1  0
  8  7  1  0
  9 11  1  0
 10  4  1  0
  9 10  1  6
 11 17  1  0
 11 12  2  0
 14 13  1  6
 14 16  1  0
 15 14  1  0
 16 18  1  0
 16 17  1  1
 18 20  2  0
 18 19  1  0
M  END
$$$$
