IPF.pdb
     RDKit          3D

 27 28  0  0  1  0  0  0  0  0999 V2000
   20.6807  -26.2702  -13.1348 C   0  0  0  0  0  0  0  0  0  0  0  0
   19.5767  -27.2840  -13.0851 C   0  0  0  0  0  0  0  0  0  0  0  0
   18.8935  -27.3594  -11.7556 C   0  0  2  0  0  0  0  0  0  0  0  0
   19.8431  -27.7257  -10.6369 C   0  0  0  0  0  0  0  0  0  0  0  0
   17.6530  -28.2344  -11.7696 C   0  0  2  0  0  0  0  0  0  0  0  0
   16.8494  -27.8223  -12.8812 N   0  0  0  0  0  0  0  0  0  0  0  0
   16.9282  -27.9810  -10.5101 C   0  0  0  0  0  0  0  0  0  0  0  0
   16.2348  -26.8929  -10.5226 O   0  0  0  0  0  0  0  0  0  0  0  0
   16.9173  -28.7699   -9.3472 N   0  0  0  0  0  0  0  0  0  0  0  0
   17.6539  -29.9602   -9.1028 C   0  0  0  0  0  0  0  0  0  0  0  0
   16.8822  -30.6634   -7.9925 C   0  0  0  0  0  0  0  0  0  0  0  0
   15.6129  -29.8522   -7.8150 C   0  0  0  0  0  0  0  0  0  0  0  0
   16.1453  -28.4734   -8.1677 C   0  0  1  0  0  0  0  0  0  0  0  0
   17.0115  -28.0354   -7.0365 C   0  0  0  0  0  0  0  0  0  0  0  0
   18.1329  -28.5472   -6.7878 O   0  0  0  0  0  0  0  0  0  0  0  0
   16.5705  -26.9979   -6.1916 N   0  0  0  0  0  0  0  0  0  0  0  0
   17.4677  -26.4323   -5.2017 C   0  0  1  0  0  0  0  0  0  0  0  0
   17.5884  -24.9231   -5.4094 C   0  0  0  0  0  0  0  0  0  0  0  0
   18.0417  -24.5892   -6.7821 C   0  0  0  0  0  0  0  0  0  0  0  0
   17.1715  -23.9877   -7.6886 C   0  0  0  0  0  0  0  0  0  0  0  0
   17.5428  -23.6617   -8.9759 C   0  0  0  0  0  0  0  0  0  0  0  0
   18.8235  -23.9314   -9.4108 C   0  0  0  0  0  0  0  0  0  0  0  0
   19.7077  -24.5215   -8.5505 C   0  0  0  0  0  0  0  0  0  0  0  0
   19.3097  -24.8424   -7.2528 C   0  0  0  0  0  0  0  0  0  0  0  0
   16.8609  -26.6468   -3.8697 C   0  0  0  0  0  0  0  0  0  0  0  0
   15.7087  -27.1333   -3.7566 O   0  0  0  0  0  0  0  0  0  0  0  0
   17.5091  -26.3330   -2.6833 O   0  0  0  0  0  0  0  0  0  0  0  0
  2  3  1  0
  2  1  1  0
  3  5  1  0
  3  4  1  1
  5  6  1  6
  7  8  2  0
  7  5  1  0
  9  7  1  0
 10  9  1  0
 11 10  1  0
 12 11  1  0
 12 13  1  0
 13  9  1  0
 13 14  1  1
 14 15  2  0
 16 14  1  0
 17 16  1  0
 17 18  1  6
 19 18  1  0
 19 20  2  0
 21 20  1  0
 22 21  2  0
 23 24  2  0
 23 22  1  0
 24 19  1  0
 25 17  1  0
 26 25  2  0
 27 25  1  0
M  END
$$$$
