IPF.pdb
     RDKit          3D

 27 28  0  0  1  0  0  0  0  0999 V2000
   18.7755  -21.6202  -13.1063 C   0  0  0  0  0  0  0  0  0  0  0  0
   18.4240  -23.0634  -13.3135 C   0  0  0  0  0  0  0  0  0  0  0  0
   18.1605  -23.8035  -12.0396 C   0  0  2  0  0  0  0  0  0  0  0  0
   19.3601  -23.8159  -11.1187 C   0  0  0  0  0  0  0  0  0  0  0  0
   17.5893  -25.1924  -12.2623 C   0  0  2  0  0  0  0  0  0  0  0  0
   16.4512  -25.0560  -13.1211 N   0  0  0  0  0  0  0  0  0  0  0  0
   17.1615  -25.7025  -10.9459 C   0  0  0  0  0  0  0  0  0  0  0  0
   16.0910  -25.1396  -10.4964 O   0  0  0  0  0  0  0  0  0  0  0  0
   17.7756  -26.6959  -10.1646 N   0  0  0  0  0  0  0  0  0  0  0  0
   18.9931  -27.3777  -10.4331 C   0  0  0  0  0  0  0  0  0  0  0  0
   18.8977  -28.6614   -9.6172 C   0  0  0  0  0  0  0  0  0  0  0  0
   17.4853  -28.6774   -9.0644 C   0  0  0  0  0  0  0  0  0  0  0  0
   17.2595  -27.1826   -8.9108 C   0  0  1  0  0  0  0  0  0  0  0  0
   18.0899  -26.7300   -7.7588 C   0  0  0  0  0  0  0  0  0  0  0  0
   19.3296  -26.5339   -7.8366 O   0  0  0  0  0  0  0  0  0  0  0  0
   17.4749  -26.5049   -6.5114 N   0  0  0  0  0  0  0  0  0  0  0  0
   18.2225  -25.8920   -5.4296 C   0  0  1  0  0  0  0  0  0  0  0  0
   17.5558  -24.5820   -5.0117 C   0  0  0  0  0  0  0  0  0  0  0  0
   16.0838  -24.7255   -4.8920 C   0  0  0  0  0  0  0  0  0  0  0  0
   15.2469  -24.3328   -5.9342 C   0  0  0  0  0  0  0  0  0  0  0  0
   13.8739  -24.4416   -5.8705 C   0  0  0  0  0  0  0  0  0  0  0  0
   13.2773  -24.9574   -4.7392 C   0  0  0  0  0  0  0  0  0  0  0  0
   14.0648  -25.3543   -3.6940 C   0  0  0  0  0  0  0  0  0  0  0  0
   15.4518  -25.2347   -3.7809 C   0  0  0  0  0  0  0  0  0  0  0  0
   18.1644  -26.8064   -4.2681 C   0  0  0  0  0  0  0  0  0  0  0  0
   18.7810  -26.5410   -3.2068 O   0  0  0  0  0  0  0  0  0  0  0  0
   17.4409  -27.9908   -4.2728 O   0  0  0  0  0  0  0  0  0  0  0  0
  2  3  1  0
  2  1  1  0
  3  5  1  0
  3  4  1  6
  5  6  1  6
  7  8  2  0
  7  5  1  0
  9  7  1  0
 10  9  1  0
 11 10  1  0
 12 11  1  0
 12 13  1  0
 13  9  1  0
 13 14  1  1
 14 15  2  0
 16 14  1  0
 17 16  1  0
 17 18  1  1
 19 18  1  0
 19 20  2  0
 21 20  1  0
 22 21  2  0
 23 24  2  0
 23 22  1  0
 24 19  1  0
 25 17  1  0
 26 25  2  0
 27 25  1  0
M  END
$$$$
