IPF.pdb
     RDKit          3D

 27 28  0  0  1  0  0  0  0  0999 V2000
   25.1010  -15.0791  -15.1623 C   0  0  0  0  0  0  0  0  0  0  0  0
   25.4091  -16.4638  -15.6488 C   0  0  0  0  0  0  0  0  0  0  0  0
   25.7190  -17.4293  -14.5480 C   0  0  2  0  0  0  0  0  0  0  0  0
   26.8660  -16.9661  -13.6779 C   0  0  0  0  0  0  0  0  0  0  0  0
   25.9044  -18.8544  -15.0373 C   0  0  2  0  0  0  0  0  0  0  0  0
   24.7860  -19.1698  -15.8745 N   0  0  0  0  0  0  0  0  0  0  0  0
   25.8974  -19.7266  -13.8476 C   0  0  0  0  0  0  0  0  0  0  0  0
   24.7137  -20.0669  -13.4630 O   0  0  0  0  0  0  0  0  0  0  0  0
   27.0017  -20.2034  -13.1210 N   0  0  0  0  0  0  0  0  0  0  0  0
   28.3467  -19.7511  -13.1958 C   0  0  0  0  0  0  0  0  0  0  0  0
   29.1698  -20.9162  -12.6593 C   0  0  0  0  0  0  0  0  0  0  0  0
   28.1811  -22.0524  -12.4799 C   0  0  0  0  0  0  0  0  0  0  0  0
   26.9378  -21.2504  -12.1336 C   0  0  1  0  0  0  0  0  0  0  0  0
   27.1285  -20.7203  -10.7536 C   0  0  0  0  0  0  0  0  0  0  0  0
   28.2433  -20.3503  -10.3044 O   0  0  0  0  0  0  0  0  0  0  0  0
   26.0173  -20.6205   -9.8933 N   0  0  0  0  0  0  0  0  0  0  0  0
   26.2024  -20.6630   -8.4550 C   0  0  1  0  0  0  0  0  0  0  0  0
   26.7500  -19.3249   -7.9601 C   0  0  0  0  0  0  0  0  0  0  0  0
   27.4628  -19.4647   -6.6663 C   0  0  0  0  0  0  0  0  0  0  0  0
   28.7907  -19.0621   -6.5422 C   0  0  0  0  0  0  0  0  0  0  0  0
   29.4979  -19.1748   -5.3639 C   0  0  0  0  0  0  0  0  0  0  0  0
   28.8896  -19.7050   -4.2455 C   0  0  0  0  0  0  0  0  0  0  0  0
   27.5866  -20.1121   -4.3269 C   0  0  0  0  0  0  0  0  0  0  0  0
   26.8910  -19.9884   -5.5296 C   0  0  0  0  0  0  0  0  0  0  0  0
   24.8721  -20.8510   -7.8357 C   0  0  0  0  0  0  0  0  0  0  0  0
   23.8269  -20.4883   -8.4298 O   0  0  0  0  0  0  0  0  0  0  0  0
   24.6938  -21.4280   -6.5861 O   0  0  0  0  0  0  0  0  0  0  0  0
  2  3  1  0
  2  1  1  0
  3  5  1  0
  3  4  1  6
  5  6  1  6
  7  8  2  0
  7  5  1  0
  9  7  1  0
 10  9  1  0
 11 10  1  0
 12 11  1  0
 12 13  1  0
 13  9  1  0
 13 14  1  1
 14 15  2  0
 16 14  1  0
 17 16  1  0
 17 18  1  1
 19 18  1  0
 19 20  2  0
 21 20  1  0
 22 21  2  0
 23 24  2  0
 23 22  1  0
 24 19  1  0
 25 17  1  0
 26 25  2  0
 27 25  1  0
M  END
$$$$
