IPF.pdb
     RDKit          3D

 27 28  0  0  1  0  0  0  0  0999 V2000
   24.0181  -18.2748  -14.4235 C   0  0  0  0  0  0  0  0  0  0  0  0
   25.0913  -19.3180  -14.5189 C   0  0  0  0  0  0  0  0  0  0  0  0
   25.7118  -19.6599  -13.2006 C   0  0  2  0  0  0  0  0  0  0  0  0
   26.8438  -18.7262  -12.8342 C   0  0  0  0  0  0  0  0  0  0  0  0
   26.1090  -21.1208  -13.0878 C   0  0  2  0  0  0  0  0  0  0  0  0
   24.9390  -21.9051  -13.3470 N   0  0  0  0  0  0  0  0  0  0  0  0
   26.5600  -21.3426  -11.7009 C   0  0  0  0  0  0  0  0  0  0  0  0
   25.6210  -21.7374  -10.9088 O   0  0  0  0  0  0  0  0  0  0  0  0
   27.8529  -21.1739  -11.1767 N   0  0  0  0  0  0  0  0  0  0  0  0
   28.9889  -20.6305  -11.8351 C   0  0  0  0  0  0  0  0  0  0  0  0
   30.1782  -21.1778  -11.0548 C   0  0  0  0  0  0  0  0  0  0  0  0
   29.5873  -22.1755  -10.0770 C   0  0  0  0  0  0  0  0  0  0  0  0
   28.2393  -21.5183   -9.8323 C   0  0  1  0  0  0  0  0  0  0  0  0
   28.4871  -20.3060   -9.0014 C   0  0  0  0  0  0  0  0  0  0  0  0
   28.6873  -19.1642   -9.4889 O   0  0  0  0  0  0  0  0  0  0  0  0
   28.5020  -20.4232   -7.5975 N   0  0  0  0  0  0  0  0  0  0  0  0
   28.5473  -19.2346   -6.7668 C   0  0  1  0  0  0  0  0  0  0  0  0
   27.1288  -18.8018   -6.3983 C   0  0  0  0  0  0  0  0  0  0  0  0
   26.3340  -19.9269   -5.8471 C   0  0  0  0  0  0  0  0  0  0  0  0
   26.4333  -20.2716   -4.5010 C   0  0  0  0  0  0  0  0  0  0  0  0
   25.7197  -21.3105   -3.9418 C   0  0  0  0  0  0  0  0  0  0  0  0
   24.8642  -22.0564   -4.7251 C   0  0  0  0  0  0  0  0  0  0  0  0
   24.7389  -21.7493   -6.0518 C   0  0  0  0  0  0  0  0  0  0  0  0
   25.4709  -20.6939   -6.5957 C   0  0  0  0  0  0  0  0  0  0  0  0
   29.2402  -19.5909   -5.5092 C   0  0  0  0  0  0  0  0  0  0  0  0
   29.4910  -20.7888   -5.2279 O   0  0  0  0  0  0  0  0  0  0  0  0
   29.6508  -18.6474   -4.5779 O   0  0  0  0  0  0  0  0  0  0  0  0
  2  3  1  0
  2  1  1  0
  3  5  1  0
  3  4  1  6
  5  6  1  1
  7  8  2  0
  7  5  1  0
  9  7  1  0
 10  9  1  0
 11 10  1  0
 12 11  1  0
 12 13  1  0
 13  9  1  0
 13 14  1  1
 14 15  2  0
 16 14  1  0
 17 16  1  0
 17 18  1  1
 19 18  1  0
 19 20  2  0
 21 20  1  0
 22 21  2  0
 23 24  2  0
 23 22  1  0
 24 19  1  0
 25 17  1  0
 26 25  2  0
 27 25  1  0
M  END
$$$$
