IPF.pdb
     RDKit          3D

 27 28  0  0  1  0  0  0  0  0999 V2000
   23.3832  -17.5165  -15.5676 C   0  0  0  0  0  0  0  0  0  0  0  0
   22.8104  -18.8399  -15.1558 C   0  0  0  0  0  0  0  0  0  0  0  0
   23.7649  -19.6877  -14.3747 C   0  0  2  0  0  0  0  0  0  0  0  0
   23.9207  -19.2173  -12.9457 C   0  0  0  0  0  0  0  0  0  0  0  0
   25.1016  -19.8776  -15.0689 C   0  0  2  0  0  0  0  0  0  0  0  0
   24.8401  -20.4539  -16.3537 N   0  0  0  0  0  0  0  0  0  0  0  0
   25.8861  -20.8213  -14.2502 C   0  0  0  0  0  0  0  0  0  0  0  0
   25.4951  -22.0464  -14.3561 O   0  0  0  0  0  0  0  0  0  0  0  0
   26.9691  -20.5339  -13.4022 N   0  0  0  0  0  0  0  0  0  0  0  0
   27.4566  -19.2533  -13.0258 C   0  0  0  0  0  0  0  0  0  0  0  0
   28.8947  -19.5073  -12.5897 C   0  0  0  0  0  0  0  0  0  0  0  0
   29.1661  -20.9581  -12.9395 C   0  0  0  0  0  0  0  0  0  0  0  0
   27.7723  -21.5291  -12.7391 C   0  0  1  0  0  0  0  0  0  0  0  0
   27.5168  -21.5564  -11.2709 C   0  0  0  0  0  0  0  0  0  0  0  0
   28.4127  -21.7850  -10.4186 O   0  0  0  0  0  0  0  0  0  0  0  0
   26.2133  -21.3167  -10.7931 N   0  0  0  0  0  0  0  0  0  0  0  0
   26.0026  -20.9340   -9.4096 C   0  0  1  0  0  0  0  0  0  0  0  0
   26.8506  -19.7082   -9.0728 C   0  0  0  0  0  0  0  0  0  0  0  0
   27.4821  -19.8244   -7.7352 C   0  0  0  0  0  0  0  0  0  0  0  0
   28.3941  -20.8433   -7.4687 C   0  0  0  0  0  0  0  0  0  0  0  0
   29.0046  -20.9967   -6.2420 C   0  0  0  0  0  0  0  0  0  0  0  0
   28.7188  -20.1187   -5.2176 C   0  0  0  0  0  0  0  0  0  0  0  0
   27.8284  -19.1047   -5.4397 C   0  0  0  0  0  0  0  0  0  0  0  0
   27.2229  -18.9692   -6.6889 C   0  0  0  0  0  0  0  0  0  0  0  0
   24.5836  -20.5424   -9.2623 C   0  0  0  0  0  0  0  0  0  0  0  0
   24.0091  -19.8560  -10.1431 O   0  0  0  0  0  0  0  0  0  0  0  0
   23.8097  -20.8995   -8.1669 O   0  0  0  0  0  0  0  0  0  0  0  0
  2  3  1  0
  2  1  1  0
  3  5  1  0
  3  4  1  1
  5  6  1  6
  7  8  2  0
  7  5  1  0
  9  7  1  0
 10  9  1  0
 11 10  1  0
 12 11  1  0
 12 13  1  0
 13  9  1  0
 13 14  1  1
 14 15  2  0
 16 14  1  0
 17 16  1  0
 17 18  1  6
 19 18  1  0
 19 20  2  0
 21 20  1  0
 22 21  2  0
 23 24  2  0
 23 22  1  0
 24 19  1  0
 25 17  1  0
 26 25  2  0
 27 25  1  0
M  END
$$$$
