IPF.pdb
     RDKit          3D

 27 28  0  0  1  0  0  0  0  0999 V2000
   24.1900  -13.1120  -15.5203 C   0  0  0  0  0  0  0  0  0  0  0  0
   24.5752  -14.2911  -16.3633 C   0  0  0  0  0  0  0  0  0  0  0  0
   25.0072  -15.4812  -15.5651 C   0  0  2  0  0  0  0  0  0  0  0  0
   26.1484  -15.1639  -14.6247 C   0  0  0  0  0  0  0  0  0  0  0  0
   25.2862  -16.7047  -16.4195 C   0  0  2  0  0  0  0  0  0  0  0  0
   24.2195  -16.8180  -17.3684 N   0  0  0  0  0  0  0  0  0  0  0  0
   25.2787  -17.8737  -15.5198 C   0  0  0  0  0  0  0  0  0  0  0  0
   24.1014  -18.1972  -15.1024 O   0  0  0  0  0  0  0  0  0  0  0  0
   26.3765  -18.6376  -15.0887 N   0  0  0  0  0  0  0  0  0  0  0  0
   27.7558  -18.3299  -15.2371 C   0  0  0  0  0  0  0  0  0  0  0  0
   28.4606  -19.6757  -15.1155 C   0  0  0  0  0  0  0  0  0  0  0  0
   27.3478  -20.7058  -15.0803 C   0  0  0  0  0  0  0  0  0  0  0  0
   26.2725  -19.8892  -14.3831 C   0  0  1  0  0  0  0  0  0  0  0  0
   26.6810  -19.7542  -12.9560 C   0  0  0  0  0  0  0  0  0  0  0  0
   27.3188  -18.7659  -12.5113 O   0  0  0  0  0  0  0  0  0  0  0  0
   26.3456  -20.7735  -12.0431 N   0  0  0  0  0  0  0  0  0  0  0  0
   26.7652  -20.6787  -10.6575 C   0  0  1  0  0  0  0  0  0  0  0  0
   26.0070  -19.5505   -9.9592 C   0  0  0  0  0  0  0  0  0  0  0  0
   26.3840  -19.4348   -8.5289 C   0  0  0  0  0  0  0  0  0  0  0  0
   27.3417  -18.5086   -8.1216 C   0  0  0  0  0  0  0  0  0  0  0  0
   27.7294  -18.3652   -6.8062 C   0  0  0  0  0  0  0  0  0  0  0  0
   27.1616  -19.1591   -5.8320 C   0  0  0  0  0  0  0  0  0  0  0  0
   26.2174  -20.0807   -6.1917 C   0  0  0  0  0  0  0  0  0  0  0  0
   25.8409  -20.2081   -7.5287 C   0  0  0  0  0  0  0  0  0  0  0  0
   26.3906  -21.9428   -9.9866 C   0  0  0  0  0  0  0  0  0  0  0  0
   27.2152  -22.5612   -9.2691 O   0  0  0  0  0  0  0  0  0  0  0  0
   25.1321  -22.5166  -10.1015 O   0  0  0  0  0  0  0  0  0  0  0  0
  2  3  1  0
  2  1  1  0
  3  5  1  0
  3  4  1  6
  5  6  1  6
  7  8  2  0
  7  5  1  0
  9  7  1  0
 10  9  1  0
 11 10  1  0
 12 11  1  0
 12 13  1  0
 13  9  1  0
 13 14  1  1
 14 15  2  0
 16 14  1  0
 17 16  1  0
 17 18  1  1
 19 18  1  0
 19 20  2  0
 21 20  1  0
 22 21  2  0
 23 24  2  0
 23 22  1  0
 24 19  1  0
 25 17  1  0
 26 25  2  0
 27 25  1  0
M  END
$$$$
