IPF.pdb
     RDKit          3D

 27 28  0  0  1  0  0  0  0  0999 V2000
   19.2515  -15.0187  -17.3236 C   0  0  0  0  0  0  0  0  0  0  0  0
   18.6898  -13.9388  -18.1997 C   0  0  0  0  0  0  0  0  0  0  0  0
   18.9653  -12.5566  -17.6961 C   0  0  2  0  0  0  0  0  0  0  0  0
   18.4432  -12.3369  -16.2937 C   0  0  0  0  0  0  0  0  0  0  0  0
   18.5159  -11.4699  -18.6563 C   0  0  2  0  0  0  0  0  0  0  0  0
   19.1307  -11.7346  -19.9224 N   0  0  0  0  0  0  0  0  0  0  0  0
   19.0094  -10.1866  -18.1217 C   0  0  0  0  0  0  0  0  0  0  0  0
   20.2392   -9.9393  -18.4240 O   0  0  0  0  0  0  0  0  0  0  0  0
   18.3066   -9.2465  -17.3490 N   0  0  0  0  0  0  0  0  0  0  0  0
   16.9539   -9.3179  -16.9199 C   0  0  0  0  0  0  0  0  0  0  0  0
   16.5713   -7.8719  -16.6272 C   0  0  0  0  0  0  0  0  0  0  0  0
   17.7484   -7.0442  -17.1068 C   0  0  0  0  0  0  0  0  0  0  0  0
   18.8742   -8.0273  -16.8328 C   0  0  1  0  0  0  0  0  0  0  0  0
   19.0556   -8.0852  -15.3545 C   0  0  0  0  0  0  0  0  0  0  0  0
   18.4609   -8.9131  -14.6182 O   0  0  0  0  0  0  0  0  0  0  0  0
   19.9325   -7.1757  -14.7310 N   0  0  0  0  0  0  0  0  0  0  0  0
   20.4121   -7.4307  -13.3857 C   0  0  1  0  0  0  0  0  0  0  0  0
   21.9075   -7.1279  -13.2993 C   0  0  0  0  0  0  0  0  0  0  0  0
   22.2323   -5.7887  -13.8492 C   0  0  0  0  0  0  0  0  0  0  0  0
   22.6900   -5.6525  -15.1579 C   0  0  0  0  0  0  0  0  0  0  0  0
   23.0091   -4.4317  -15.7139 C   0  0  0  0  0  0  0  0  0  0  0  0
   22.8790   -3.2807  -14.9654 C   0  0  0  0  0  0  0  0  0  0  0  0
   22.4326   -3.3727  -13.6760 C   0  0  0  0  0  0  0  0  0  0  0  0
   22.1159   -4.6185  -13.1347 C   0  0  0  0  0  0  0  0  0  0  0  0
   19.7192   -6.4925  -12.4757 C   0  0  0  0  0  0  0  0  0  0  0  0
   19.1275   -5.4790  -12.9225 O   0  0  0  0  0  0  0  0  0  0  0  0
   19.6765   -6.6657  -11.0993 O   0  0  0  0  0  0  0  0  0  0  0  0
  2  3  1  0
  2  1  1  0
  3  5  1  0
  3  4  1  1
  5  6  1  6
  7  8  2  0
  7  5  1  0
  9  7  1  0
 10  9  1  0
 11 10  1  0
 12 11  1  0
 12 13  1  0
 13  9  1  0
 13 14  1  1
 14 15  2  0
 16 14  1  0
 17 16  1  0
 17 18  1  6
 19 18  1  0
 19 20  2  0
 21 20  1  0
 22 21  2  0
 23 24  2  0
 23 22  1  0
 24 19  1  0
 25 17  1  0
 26 25  2  0
 27 25  1  0
M  END
$$$$
