IPF.pdb
     RDKit          3D

 27 28  0  0  1  0  0  0  0  0999 V2000
   22.7056  -20.2995  -19.9490 C   0  0  0  0  0  0  0  0  0  0  0  0
   24.1600  -19.9568  -19.8203 C   0  0  0  0  0  0  0  0  0  0  0  0
   24.6968  -20.1383  -18.4350 C   0  0  2  0  0  0  0  0  0  0  0  0
   23.8430  -19.4562  -17.3895 C   0  0  0  0  0  0  0  0  0  0  0  0
   26.1649  -19.7723  -18.3101 C   0  0  2  0  0  0  0  0  0  0  0  0
   26.8888  -20.5738  -19.2507 N   0  0  0  0  0  0  0  0  0  0  0  0
   26.5830  -20.1155  -16.9377 C   0  0  0  0  0  0  0  0  0  0  0  0
   26.9274  -21.3509  -16.7959 O   0  0  0  0  0  0  0  0  0  0  0  0
   26.6408  -19.2701  -15.8167 N   0  0  0  0  0  0  0  0  0  0  0  0
   26.1830  -17.9284  -15.7208 C   0  0  0  0  0  0  0  0  0  0  0  0
   26.9604  -17.3445  -14.5472 C   0  0  0  0  0  0  0  0  0  0  0  0
   27.9712  -18.4106  -14.1698 C   0  0  0  0  0  0  0  0  0  0  0  0
   27.1739  -19.6519  -14.5339 C   0  0  1  0  0  0  0  0  0  0  0  0
   26.0997  -19.7985  -13.5111 C   0  0  0  0  0  0  0  0  0  0  0  0
   24.9413  -19.3308  -13.6549 O   0  0  0  0  0  0  0  0  0  0  0  0
   26.3750  -20.4923  -12.3162 N   0  0  0  0  0  0  0  0  0  0  0  0
   25.3072  -21.1656  -11.6011 C   0  0  1  0  0  0  0  0  0  0  0  0
   25.8816  -21.9431  -10.4176 C   0  0  0  0  0  0  0  0  0  0  0  0
   26.6635  -21.0681   -9.5096 C   0  0  0  0  0  0  0  0  0  0  0  0
   28.0555  -21.0536   -9.5649 C   0  0  0  0  0  0  0  0  0  0  0  0
   28.8271  -20.2622   -8.7407 C   0  0  0  0  0  0  0  0  0  0  0  0
   28.2216  -19.4406   -7.8132 C   0  0  0  0  0  0  0  0  0  0  0  0
   26.8568  -19.4264   -7.7278 C   0  0  0  0  0  0  0  0  0  0  0  0
   26.0966  -20.2357   -8.5720 C   0  0  0  0  0  0  0  0  0  0  0  0
   24.4089  -20.1266  -11.0517 C   0  0  0  0  0  0  0  0  0  0  0  0
   24.8033  -18.9430  -10.9083 O   0  0  0  0  0  0  0  0  0  0  0  0
   23.1002  -20.3836  -10.6676 O   0  0  0  0  0  0  0  0  0  0  0  0
  2  3  1  0
  2  1  1  0
  3  5  1  0
  3  4  1  1
  5  6  1  6
  7  8  2  0
  7  5  1  0
  9  7  1  0
 10  9  1  0
 11 10  1  0
 12 11  1  0
 12 13  1  0
 13  9  1  0
 13 14  1  1
 14 15  2  0
 16 14  1  0
 17 16  1  0
 17 18  1  1
 19 18  1  0
 19 20  2  0
 21 20  1  0
 22 21  2  0
 23 24  2  0
 23 22  1  0
 24 19  1  0
 25 17  1  0
 26 25  2  0
 27 25  1  0
M  END
$$$$
