IPF.pdb
     RDKit          3D

 27 28  0  0  1  0  0  0  0  0999 V2000
   26.3250  -19.8833   -8.7529 C   0  0  0  0  0  0  0  0  0  0  0  0
   26.9564  -20.4667   -9.9818 C   0  0  0  0  0  0  0  0  0  0  0  0
   25.9967  -20.6565  -11.1145 C   0  0  2  0  0  0  0  0  0  0  0  0
   24.8701  -21.6034  -10.7659 C   0  0  0  0  0  0  0  0  0  0  0  0
   26.6782  -21.0256  -12.4199 C   0  0  2  0  0  0  0  0  0  0  0  0
   27.7140  -20.0637  -12.6505 N   0  0  0  0  0  0  0  0  0  0  0  0
   25.6612  -20.9271  -13.4839 C   0  0  0  0  0  0  0  0  0  0  0  0
   25.4794  -19.7248  -13.9155 O   0  0  0  0  0  0  0  0  0  0  0  0
   24.9020  -21.9651  -14.0504 N   0  0  0  0  0  0  0  0  0  0  0  0
   24.9475  -23.3473  -13.7240 C   0  0  0  0  0  0  0  0  0  0  0  0
   24.3781  -24.0468  -14.9525 C   0  0  0  0  0  0  0  0  0  0  0  0
   24.2118  -22.9540  -15.9912 C   0  0  0  0  0  0  0  0  0  0  0  0
   23.9055  -21.7815  -15.0743 C   0  0  1  0  0  0  0  0  0  0  0  0
   22.5268  -21.9867  -14.5463 C   0  0  0  0  0  0  0  0  0  0  0  0
   22.2737  -22.6816  -13.5292 O   0  0  0  0  0  0  0  0  0  0  0  0
   21.4387  -21.3806  -15.2047 N   0  0  0  0  0  0  0  0  0  0  0  0
   20.1892  -21.1632  -14.5001 C   0  0  1  0  0  0  0  0  0  0  0  0
   20.0188  -19.6772  -14.1872 C   0  0  0  0  0  0  0  0  0  0  0  0
   20.2475  -18.8311  -15.3844 C   0  0  0  0  0  0  0  0  0  0  0  0
   21.4620  -18.1728  -15.5649 C   0  0  0  0  0  0  0  0  0  0  0  0
   21.7221  -17.3725  -16.6571 C   0  0  0  0  0  0  0  0  0  0  0  0
   20.7573  -17.1988  -17.6271 C   0  0  0  0  0  0  0  0  0  0  0  0
   19.5515  -17.8285  -17.4861 C   0  0  0  0  0  0  0  0  0  0  0  0
   19.3107  -18.6333  -16.3727 C   0  0  0  0  0  0  0  0  0  0  0  0
   19.0875  -21.5516  -15.4078 C   0  0  0  0  0  0  0  0  0  0  0  0
   19.3061  -21.7950  -16.6203 O   0  0  0  0  0  0  0  0  0  0  0  0
   17.7693  -21.6712  -14.9903 O   0  0  0  0  0  0  0  0  0  0  0  0
  2  3  1  0
  2  1  1  0
  3  5  1  0
  3  4  1  1
  5  6  1  6
  7  8  2  0
  7  5  1  0
  9  7  1  0
 10  9  1  0
 11 10  1  0
 12 11  1  0
 12 13  1  0
 13  9  1  0
 13 14  1  1
 14 15  2  0
 16 14  1  0
 17 16  1  0
 17 18  1  6
 19 18  1  0
 19 20  2  0
 21 20  1  0
 22 21  2  0
 23 24  2  0
 23 22  1  0
 24 19  1  0
 25 17  1  0
 26 25  2  0
 27 25  1  0
M  END
$$$$
