KWQ.pdb
     RDKit          3D

 33 34  0  0  1  0  0  0  0  0999 V2000
    8.9811  -16.4813   19.7563 N   0  0  0  0  0  0  0  0  0  0  0  0
    9.6709  -17.4877   20.5764 C   0  0  1  0  0  0  0  0  0  0  0  0
   10.9838  -17.7188   19.9290 C   0  0  0  0  0  0  0  0  0  0  0  0
   11.0033  -18.9253   19.0720 C   0  0  0  0  0  0  0  0  0  0  0  0
   12.2217  -19.3544   18.4005 C   0  0  0  0  0  0  0  0  0  0  0  0
   12.2762  -20.4662   17.4436 C   0  0  0  0  0  0  0  0  0  0  0  0
   13.6948  -20.6587   16.9871 N   0  0  0  0  0  0  0  0  0  0  0  0
    9.8262  -16.9175   21.9565 C   0  0  0  0  0  0  0  0  0  0  0  0
   10.7119  -16.0619   22.1655 O   0  0  0  0  0  0  0  0  0  0  0  0
    9.0033  -17.3179   23.0236 N   0  0  0  0  0  0  0  0  0  0  0  0
    9.1910  -16.7058   24.3272 C   0  0  1  0  0  0  0  0  0  0  0  0
    7.8886  -16.4894   25.0413 C   0  0  0  0  0  0  0  0  0  0  0  0
    7.2063  -15.2255   24.8013 C   0  0  0  0  0  0  0  0  0  0  0  0
    6.3714  -14.7831   23.8070 C   0  0  0  0  0  0  0  0  0  0  0  0
    6.0317  -13.5289   24.0938 N   0  0  0  0  0  0  0  0  0  0  0  0
    6.6051  -13.1208   25.2353 C   0  0  0  0  0  0  0  0  0  0  0  0
    6.5673  -11.9227   25.9424 C   0  0  0  0  0  0  0  0  0  0  0  0
    7.2864  -11.8077   27.1119 C   0  0  0  0  0  0  0  0  0  0  0  0
    8.0501  -12.8323   27.6216 C   0  0  0  0  0  0  0  0  0  0  0  0
    8.0598  -14.0069   26.8878 C   0  0  0  0  0  0  0  0  0  0  0  0
    7.3525  -14.1601   25.7114 C   0  0  0  0  0  0  0  0  0  0  0  0
   10.2446  -17.3678   25.1069 C   0  0  0  0  0  0  0  0  0  0  0  0
   10.1760  -18.6187   25.2617 O   0  0  0  0  0  0  0  0  0  0  0  0
   17.1408  -16.5000   27.2627 N   0  0  0  0  0  0  0  0  0  0  0  0
   16.1301  -16.7362   26.2981 C   0  0  0  0  0  0  0  0  0  0  0  0
   16.2782  -16.3376   25.1252 O   0  0  0  0  0  0  0  0  0  0  0  0
   14.8959  -17.4569   26.6787 C   0  0  0  0  0  0  0  0  0  0  0  0
   13.7225  -16.7819   26.0352 C   0  0  0  0  0  0  0  0  0  0  0  0
   12.4164  -17.4539   26.3910 C   0  0  2  0  0  0  0  0  0  0  0  0
   11.3492  -16.7163   25.7089 N   0  0  0  0  0  0  0  0  0  0  0  0
   12.2099  -17.4913   27.8329 C   0  0  0  0  0  0  0  0  0  0  0  0
   11.3938  -16.6431   28.3247 O   0  0  0  0  0  0  0  0  0  0  0  0
   12.8183  -18.3633   28.7169 O   0  0  0  0  0  0  0  0  0  0  0  0
  2  1  1  6
  2  3  1  0
  3  4  1  0
  5  6  1  0
  5  4  1  0
  7  6  1  0
  8  2  1  0
  9  8  2  0
 10  8  1  0
 11 22  1  0
 11 10  1  0
 11 12  1  1
 13 12  1  0
 14 13  2  0
 15 16  1  0
 15 14  1  0
 16 21  2  0
 17 18  2  0
 17 16  1  0
 18 19  1  0
 19 20  2  0
 21 20  1  0
 21 13  1  0
 22 30  1  0
 23 22  2  0
 25 24  1  0
 25 27  1  0
 26 25  2  0
 29 28  1  1
 28 27  1  0
 29 31  1  0
 30 29  1  0
 31 32  2  0
 31 33  1  0
M  END
$$$$
