KWQ.pdb
     RDKit          3D

 33 34  0  0  1  0  0  0  0  0999 V2000
    6.6968  -15.3250   20.2862 N   0  0  0  0  0  0  0  0  0  0  0  0
    7.6483  -16.4010   20.5998 C   0  0  1  0  0  0  0  0  0  0  0  0
    8.4724  -16.5914   19.3829 C   0  0  0  0  0  0  0  0  0  0  0  0
    7.8065  -17.4236   18.3560 C   0  0  0  0  0  0  0  0  0  0  0  0
    8.5424  -18.4344   17.6102 C   0  0  0  0  0  0  0  0  0  0  0  0
    7.9511  -19.2509   16.5432 C   0  0  0  0  0  0  0  0  0  0  0  0
    8.9956  -20.1809   15.9937 N   0  0  0  0  0  0  0  0  0  0  0  0
    8.4779  -15.9457   21.7654 C   0  0  0  0  0  0  0  0  0  0  0  0
    9.2094  -14.9415   21.6365 O   0  0  0  0  0  0  0  0  0  0  0  0
    8.4568  -16.6168   23.0005 N   0  0  0  0  0  0  0  0  0  0  0  0
    9.3627  -16.1881   24.0516 C   0  0  1  0  0  0  0  0  0  0  0  0
    8.7139  -16.2247   25.4047 C   0  0  0  0  0  0  0  0  0  0  0  0
    7.5197  -15.4114   25.5864 C   0  0  0  0  0  0  0  0  0  0  0  0
    6.1777  -15.6939   25.5572 C   0  0  0  0  0  0  0  0  0  0  0  0
    5.5218  -14.5611   25.7959 N   0  0  0  0  0  0  0  0  0  0  0  0
    6.3706  -13.5399   25.9823 C   0  0  0  0  0  0  0  0  0  0  0  0
    6.1855  -12.1872   26.2522 C   0  0  0  0  0  0  0  0  0  0  0  0
    7.2866  -11.3706   26.3892 C   0  0  0  0  0  0  0  0  0  0  0  0
    8.5771  -11.8327   26.2708 C   0  0  0  0  0  0  0  0  0  0  0  0
    8.7170  -13.1843   26.0027 C   0  0  0  0  0  0  0  0  0  0  0  0
    7.6379  -14.0342   25.8584 C   0  0  0  0  0  0  0  0  0  0  0  0
   10.6756  -16.8385   23.9550 C   0  0  0  0  0  0  0  0  0  0  0  0
   10.7303  -18.0937   24.0769 O   0  0  0  0  0  0  0  0  0  0  0  0
   15.7567  -14.6045   21.2323 N   0  0  0  0  0  0  0  0  0  0  0  0
   16.2583  -15.8461   21.6958 C   0  0  0  0  0  0  0  0  0  0  0  0
   17.3817  -16.2446   21.3276 O   0  0  0  0  0  0  0  0  0  0  0  0
   15.4512  -16.6736   22.6186 C   0  0  0  0  0  0  0  0  0  0  0  0
   14.0968  -16.0498   22.7700 C   0  0  0  0  0  0  0  0  0  0  0  0
   13.1782  -16.8900   23.6269 C   0  0  2  0  0  0  0  0  0  0  0  0
   11.9052  -16.1711   23.7322 N   0  0  0  0  0  0  0  0  0  0  0  0
   13.7600  -17.1516   24.9370 C   0  0  0  0  0  0  0  0  0  0  0  0
   14.7337  -17.9743   24.9860 O   0  0  0  0  0  0  0  0  0  0  0  0
   13.3525  -16.5886   26.1323 O   0  0  0  0  0  0  0  0  0  0  0  0
  2  1  1  6
  2  3  1  0
  3  4  1  0
  5  6  1  0
  5  4  1  0
  7  6  1  0
  8  2  1  0
  9  8  2  0
 10  8  1  0
 11 22  1  0
 11 10  1  0
 11 12  1  1
 13 12  1  0
 14 13  2  0
 15 16  1  0
 15 14  1  0
 16 21  2  0
 17 18  2  0
 17 16  1  0
 18 19  1  0
 19 20  2  0
 21 20  1  0
 21 13  1  0
 22 30  1  0
 23 22  2  0
 25 24  1  0
 25 27  1  0
 26 25  2  0
 29 28  1  6
 28 27  1  0
 29 31  1  0
 30 29  1  0
 31 32  2  0
 31 33  1  0
M  END
$$$$
