KWQ.pdb
     RDKit          3D

 33 34  0  0  1  0  0  0  0  0999 V2000
    7.2203  -16.4780   20.3269 N   0  0  0  0  0  0  0  0  0  0  0  0
    8.3341  -15.5212   20.2525 C   0  0  1  0  0  0  0  0  0  0  0  0
    7.7492  -14.2421   19.7855 C   0  0  0  0  0  0  0  0  0  0  0  0
    8.2052  -13.8561   18.4315 C   0  0  0  0  0  0  0  0  0  0  0  0
    7.2697  -13.7530   17.3208 C   0  0  0  0  0  0  0  0  0  0  0  0
    7.6717  -13.4452   15.9429 C   0  0  0  0  0  0  0  0  0  0  0  0
    6.4600  -13.4730   15.0548 N   0  0  0  0  0  0  0  0  0  0  0  0
    8.9146  -15.3946   21.6312 C   0  0  0  0  0  0  0  0  0  0  0  0
    9.8778  -14.6215   21.8175 O   0  0  0  0  0  0  0  0  0  0  0  0
    8.4062  -16.1214   22.7218 N   0  0  0  0  0  0  0  0  0  0  0  0
    9.0928  -16.0485   23.9996 C   0  0  1  0  0  0  0  0  0  0  0  0
    8.1606  -16.2744   25.1542 C   0  0  0  0  0  0  0  0  0  0  0  0
    7.0901  -15.3044   25.3379 C   0  0  0  0  0  0  0  0  0  0  0  0
    5.7252  -15.3795   25.2244 C   0  0  0  0  0  0  0  0  0  0  0  0
    5.2297  -14.1790   25.5139 N   0  0  0  0  0  0  0  0  0  0  0  0
    6.2069  -13.3113   25.8145 C   0  0  0  0  0  0  0  0  0  0  0  0
    6.2068  -11.9666   26.1733 C   0  0  0  0  0  0  0  0  0  0  0  0
    7.4060  -11.3356   26.4218 C   0  0  0  0  0  0  0  0  0  0  0  0
    8.6194  -11.9776   26.3314 C   0  0  0  0  0  0  0  0  0  0  0  0
    8.5750  -13.3146   25.9722 C   0  0  0  0  0  0  0  0  0  0  0  0
    7.3930  -13.9813   25.7151 C   0  0  0  0  0  0  0  0  0  0  0  0
   10.3298  -16.8394   24.0133 C   0  0  0  0  0  0  0  0  0  0  0  0
   10.2841  -18.0265   23.5865 O   0  0  0  0  0  0  0  0  0  0  0  0
   15.7086  -15.2015   22.1743 N   0  0  0  0  0  0  0  0  0  0  0  0
   16.1528  -16.3140   22.9311 C   0  0  0  0  0  0  0  0  0  0  0  0
   17.3629  -16.6171   22.9480 O   0  0  0  0  0  0  0  0  0  0  0  0
   15.1828  -17.1195   23.7043 C   0  0  0  0  0  0  0  0  0  0  0  0
   13.8508  -16.4328   23.6755 C   0  0  0  0  0  0  0  0  0  0  0  0
   12.7930  -17.2158   24.4184 C   0  0  2  0  0  0  0  0  0  0  0  0
   11.5901  -16.3799   24.4690 N   0  0  0  0  0  0  0  0  0  0  0  0
   13.2445  -17.5925   25.7517 C   0  0  0  0  0  0  0  0  0  0  0  0
   14.2221  -18.4089   25.8244 O   0  0  0  0  0  0  0  0  0  0  0  0
   12.7096  -17.1451   26.9456 O   0  0  0  0  0  0  0  0  0  0  0  0
  2  1  1  1
  2  3  1  0
  3  4  1  0
  5  6  1  0
  5  4  1  0
  7  6  1  0
  8  2  1  0
  9  8  2  0
 10  8  1  0
 11 22  1  0
 11 10  1  0
 11 12  1  1
 13 12  1  0
 14 13  2  0
 15 16  1  0
 15 14  1  0
 16 21  2  0
 17 18  2  0
 17 16  1  0
 18 19  1  0
 19 20  2  0
 21 20  1  0
 21 13  1  0
 22 30  1  0
 23 22  2  0
 25 24  1  0
 25 27  1  0
 26 25  2  0
 29 28  1  1
 28 27  1  0
 29 31  1  0
 30 29  1  0
 31 32  2  0
 31 33  1  0
M  END
$$$$
