KWQ.pdb
     RDKit          3D

 33 34  0  0  1  0  0  0  0  0999 V2000
    7.2429  -16.4907   20.5635 N   0  0  0  0  0  0  0  0  0  0  0  0
    8.4677  -15.6970   20.3864 C   0  0  1  0  0  0  0  0  0  0  0  0
    8.0344  -14.3804   19.8620 C   0  0  0  0  0  0  0  0  0  0  0  0
    7.2522  -14.4838   18.6099 C   0  0  0  0  0  0  0  0  0  0  0  0
    7.8113  -14.0617   17.3336 C   0  0  0  0  0  0  0  0  0  0  0  0
    7.0419  -14.0092   16.0846 C   0  0  0  0  0  0  0  0  0  0  0  0
    6.9669  -12.5863   15.6077 N   0  0  0  0  0  0  0  0  0  0  0  0
    9.1227  -15.5697   21.7312 C   0  0  0  0  0  0  0  0  0  0  0  0
   10.0660  -14.7637   21.8750 O   0  0  0  0  0  0  0  0  0  0  0  0
    8.7061  -16.3319   22.8365 N   0  0  0  0  0  0  0  0  0  0  0  0
    9.4539  -16.2409   24.0782 C   0  0  1  0  0  0  0  0  0  0  0  0
    8.5788  -16.4487   25.2799 C   0  0  0  0  0  0  0  0  0  0  0  0
    7.3990  -15.6025   25.3916 C   0  0  0  0  0  0  0  0  0  0  0  0
    6.0727  -15.7971   25.1003 C   0  0  0  0  0  0  0  0  0  0  0  0
    5.4240  -14.6762   25.4056 N   0  0  0  0  0  0  0  0  0  0  0  0
    6.2625  -13.7470   25.8868 C   0  0  0  0  0  0  0  0  0  0  0  0
    6.0795  -12.4417   26.3337 C   0  0  0  0  0  0  0  0  0  0  0  0
    7.1680  -11.7220   26.7755 C   0  0  0  0  0  0  0  0  0  0  0  0
    8.4437  -12.2368   26.7968 C   0  0  0  0  0  0  0  0  0  0  0  0
    8.5819  -13.5386   26.3444 C   0  0  0  0  0  0  0  0  0  0  0  0
    7.5152  -14.2914   25.8938 C   0  0  0  0  0  0  0  0  0  0  0  0
   10.6898  -17.0330   24.0435 C   0  0  0  0  0  0  0  0  0  0  0  0
   10.6213  -18.2288   23.6450 O   0  0  0  0  0  0  0  0  0  0  0  0
   16.1208  -15.6270   22.2359 N   0  0  0  0  0  0  0  0  0  0  0  0
   16.5470  -16.7133   23.0400 C   0  0  0  0  0  0  0  0  0  0  0  0
   17.6969  -17.1782   22.9063 O   0  0  0  0  0  0  0  0  0  0  0  0
   15.6295  -17.2991   24.0413 C   0  0  0  0  0  0  0  0  0  0  0  0
   14.3329  -16.5477   24.0085 C   0  0  0  0  0  0  0  0  0  0  0  0
   13.1603  -17.4234   24.3857 C   0  0  2  0  0  0  0  0  0  0  0  0
   11.9724  -16.5657   24.4223 N   0  0  0  0  0  0  0  0  0  0  0  0
   13.3817  -18.0931   25.6607 C   0  0  0  0  0  0  0  0  0  0  0  0
   14.2726  -19.0057   25.6902 O   0  0  0  0  0  0  0  0  0  0  0  0
   12.7137  -17.8290   26.8422 O   0  0  0  0  0  0  0  0  0  0  0  0
  2  1  1  1
  2  3  1  0
  3  4  1  0
  5  6  1  0
  5  4  1  0
  7  6  1  0
  8  2  1  0
  9  8  2  0
 10  8  1  0
 11 22  1  0
 11 10  1  0
 11 12  1  1
 13 12  1  0
 14 13  2  0
 15 16  1  0
 15 14  1  0
 16 21  2  0
 17 18  2  0
 17 16  1  0
 18 19  1  0
 19 20  2  0
 21 20  1  0
 21 13  1  0
 22 30  1  0
 23 22  2  0
 25 24  1  0
 25 27  1  0
 26 25  2  0
 29 28  1  1
 28 27  1  0
 29 31  1  0
 30 29  1  0
 31 32  2  0
 31 33  1  0
M  END
$$$$
