KWQ.pdb
     RDKit          3D

 33 34  0  0  1  0  0  0  0  0999 V2000
    7.4284  -16.0886   21.1420 N   0  0  0  0  0  0  0  0  0  0  0  0
    8.4848  -15.0816   20.9645 C   0  0  1  0  0  0  0  0  0  0  0  0
    7.7918  -13.7939   20.7243 C   0  0  0  0  0  0  0  0  0  0  0  0
    7.8596  -13.3532   19.3131 C   0  0  0  0  0  0  0  0  0  0  0  0
    7.1727  -14.0865   18.2596 C   0  0  0  0  0  0  0  0  0  0  0  0
    7.2239  -13.7133   16.8408 C   0  0  0  0  0  0  0  0  0  0  0  0
    8.4474  -14.3186   16.2126 N   0  0  0  0  0  0  0  0  0  0  0  0
    9.2947  -15.0481   22.2281 C   0  0  0  0  0  0  0  0  0  0  0  0
   10.2685  -14.2697   22.3065 O   0  0  0  0  0  0  0  0  0  0  0  0
    8.9903  -15.8680   23.3286 N   0  0  0  0  0  0  0  0  0  0  0  0
    9.8361  -15.8087   24.5077 C   0  0  1  0  0  0  0  0  0  0  0  0
    9.0357  -15.8305   25.7774 C   0  0  0  0  0  0  0  0  0  0  0  0
    7.7124  -15.2245   25.7340 C   0  0  0  0  0  0  0  0  0  0  0  0
    6.4628  -15.7168   25.4550 C   0  0  0  0  0  0  0  0  0  0  0  0
    5.5987  -14.7113   25.5681 N   0  0  0  0  0  0  0  0  0  0  0  0
    6.2211  -13.5738   25.9102 C   0  0  0  0  0  0  0  0  0  0  0  0
    5.7718  -12.2772   26.1418 C   0  0  0  0  0  0  0  0  0  0  0  0
    6.6811  -11.2999   26.4823 C   0  0  0  0  0  0  0  0  0  0  0  0
    8.0291  -11.5459   26.6062 C   0  0  0  0  0  0  0  0  0  0  0  0
    8.4341  -12.8488   26.3679 C   0  0  0  0  0  0  0  0  0  0  0  0
    7.5528  -13.8552   26.0243 C   0  0  0  0  0  0  0  0  0  0  0  0
   10.9531  -16.7595   24.4405 C   0  0  0  0  0  0  0  0  0  0  0  0
   11.6054  -16.9896   25.4964 O   0  0  0  0  0  0  0  0  0  0  0  0
   10.5057  -19.0364   19.4263 N   0  0  0  0  0  0  0  0  0  0  0  0
   10.5070  -19.1849   20.8355 C   0  0  0  0  0  0  0  0  0  0  0  0
    9.5661  -18.7266   21.5146 O   0  0  0  0  0  0  0  0  0  0  0  0
   11.6243  -19.8847   21.5061 C   0  0  0  0  0  0  0  0  0  0  0  0
   12.6778  -18.8813   21.8666 C   0  0  0  0  0  0  0  0  0  0  0  0
   12.5132  -18.3687   23.2788 C   0  0  2  0  0  0  0  0  0  0  0  0
   11.3687  -17.4530   23.2772 N   0  0  0  0  0  0  0  0  0  0  0  0
   13.7257  -17.7161   23.7553 C   0  0  0  0  0  0  0  0  0  0  0  0
   14.5642  -18.4398   24.3883 O   0  0  0  0  0  0  0  0  0  0  0  0
   14.0502  -16.3830   23.5835 O   0  0  0  0  0  0  0  0  0  0  0  0
  2  1  1  1
  2  3  1  0
  3  4  1  0
  5  6  1  0
  5  4  1  0
  7  6  1  0
  8  2  1  0
  9  8  2  0
 10  8  1  0
 11 22  1  0
 11 10  1  0
 11 12  1  1
 13 12  1  0
 14 13  2  0
 15 16  1  0
 15 14  1  0
 16 21  2  0
 17 18  2  0
 17 16  1  0
 18 19  1  0
 19 20  2  0
 21 20  1  0
 21 13  1  0
 22 30  1  0
 23 22  2  0
 25 24  1  0
 25 27  1  0
 26 25  2  0
 29 28  1  6
 28 27  1  0
 29 31  1  0
 30 29  1  0
 31 32  2  0
 31 33  1  0
M  END
$$$$
