KWQ.pdb
     RDKit          3D

 33 34  0  0  1  0  0  0  0  0999 V2000
    8.1578  -16.4355   18.6991 N   0  0  0  0  0  0  0  0  0  0  0  0
    9.2160  -15.4554   18.9839 C   0  0  1  0  0  0  0  0  0  0  0  0
    8.9003  -14.2582   18.1694 C   0  0  0  0  0  0  0  0  0  0  0  0
    7.8598  -14.5100   17.1475 C   0  0  0  0  0  0  0  0  0  0  0  0
    8.0506  -14.1084   15.7612 C   0  0  0  0  0  0  0  0  0  0  0  0
    7.0208  -14.2458   14.7242 C   0  0  0  0  0  0  0  0  0  0  0  0
    7.5644  -13.7451   13.4159 N   0  0  0  0  0  0  0  0  0  0  0  0
    9.1695  -15.1538   20.4538 C   0  0  0  0  0  0  0  0  0  0  0  0
   10.0411  -14.4094   20.9503 O   0  0  0  0  0  0  0  0  0  0  0  0
    8.1728  -15.6849   21.2909 N   0  0  0  0  0  0  0  0  0  0  0  0
    8.2789  -15.4890   22.7260 C   0  0  1  0  0  0  0  0  0  0  0  0
    6.9327  -15.3914   23.3828 C   0  0  0  0  0  0  0  0  0  0  0  0
    6.9148  -15.1763   24.8229 C   0  0  0  0  0  0  0  0  0  0  0  0
    6.8198  -16.0233   25.8977 C   0  0  0  0  0  0  0  0  0  0  0  0
    6.8580  -15.2805   27.0011 N   0  0  0  0  0  0  0  0  0  0  0  0
    6.9744  -13.9780   26.7044 C   0  0  0  0  0  0  0  0  0  0  0  0
    7.0507  -12.8284   27.4852 C   0  0  0  0  0  0  0  0  0  0  0  0
    7.1643  -11.6016   26.8687 C   0  0  0  0  0  0  0  0  0  0  0  0
    7.2064  -11.4551   25.5014 C   0  0  0  0  0  0  0  0  0  0  0  0
    7.1281  -12.6234   24.7617 C   0  0  0  0  0  0  0  0  0  0  0  0
    7.0134  -13.8709   25.3433 C   0  0  0  0  0  0  0  0  0  0  0  0
    9.2264  -16.4231   23.3472 C   0  0  0  0  0  0  0  0  0  0  0  0
    9.2481  -17.6151   22.9324 O   0  0  0  0  0  0  0  0  0  0  0  0
   15.3635  -16.0790   23.7393 N   0  0  0  0  0  0  0  0  0  0  0  0
   14.7430  -17.3353   23.9505 C   0  0  0  0  0  0  0  0  0  0  0  0
   15.1616  -18.3487   23.3552 O   0  0  0  0  0  0  0  0  0  0  0  0
   13.5970  -17.4494   24.8785 C   0  0  0  0  0  0  0  0  0  0  0  0
   12.4802  -16.5841   24.3779 C   0  0  0  0  0  0  0  0  0  0  0  0
   11.1328  -17.0514   24.8781 C   0  0  2  0  0  0  0  0  0  0  0  0
   10.1333  -16.0990   24.3861 N   0  0  0  0  0  0  0  0  0  0  0  0
   11.1090  -17.1560   26.3313 C   0  0  0  0  0  0  0  0  0  0  0  0
   11.9448  -17.9554   26.8696 O   0  0  0  0  0  0  0  0  0  0  0  0
   10.2626  -16.4669   27.1802 O   0  0  0  0  0  0  0  0  0  0  0  0
  2  1  1  1
  2  3  1  0
  3  4  1  0
  5  6  1  0
  5  4  1  0
  7  6  1  0
  8  2  1  0
  9  8  2  0
 10  8  1  0
 11 22  1  0
 11 10  1  0
 11 12  1  1
 13 12  1  0
 14 13  2  0
 15 16  1  0
 15 14  1  0
 16 21  2  0
 17 18  2  0
 17 16  1  0
 18 19  1  0
 19 20  2  0
 21 20  1  0
 21 13  1  0
 22 30  1  0
 23 22  2  0
 25 24  1  0
 25 27  1  0
 26 25  2  0
 29 28  1  1
 28 27  1  0
 29 31  1  0
 30 29  1  0
 31 32  2  0
 31 33  1  0
M  END
$$$$
