KWQ.pdb
     RDKit          3D

 33 34  0  0  1  0  0  0  0  0999 V2000
    7.7782  -16.4039   18.7093 N   0  0  0  0  0  0  0  0  0  0  0  0
    8.6060  -15.2002   18.8744 C   0  0  1  0  0  0  0  0  0  0  0  0
    7.8801  -14.1029   18.1923 C   0  0  0  0  0  0  0  0  0  0  0  0
    7.5206  -14.4269   16.7938 C   0  0  0  0  0  0  0  0  0  0  0  0
    8.2663  -13.8697   15.6743 C   0  0  0  0  0  0  0  0  0  0  0  0
    7.8854  -14.0551   14.2689 C   0  0  0  0  0  0  0  0  0  0  0  0
    8.8089  -13.2543   13.3950 N   0  0  0  0  0  0  0  0  0  0  0  0
    8.7422  -14.9433   20.3473 C   0  0  0  0  0  0  0  0  0  0  0  0
    9.4832  -14.0166   20.7376 O   0  0  0  0  0  0  0  0  0  0  0  0
    8.0597  -15.7157   21.3032 N   0  0  0  0  0  0  0  0  0  0  0  0
    8.2805  -15.4489   22.7136 C   0  0  1  0  0  0  0  0  0  0  0  0
    7.0270  -14.9972   23.4049 C   0  0  0  0  0  0  0  0  0  0  0  0
    7.0625  -14.9303   24.8591 C   0  0  0  0  0  0  0  0  0  0  0  0
    7.0385  -15.8848   25.8439 C   0  0  0  0  0  0  0  0  0  0  0  0
    7.0998  -15.2571   27.0155 N   0  0  0  0  0  0  0  0  0  0  0  0
    7.1637  -13.9279   26.8503 C   0  0  0  0  0  0  0  0  0  0  0  0
    7.2373  -12.8617   27.7417 C   0  0  0  0  0  0  0  0  0  0  0  0
    7.2874  -11.5754   27.2509 C   0  0  0  0  0  0  0  0  0  0  0  0
    7.2680  -11.2893   25.9053 C   0  0  0  0  0  0  0  0  0  0  0  0
    7.1948  -12.3785   25.0528 C   0  0  0  0  0  0  0  0  0  0  0  0
    7.1427  -13.6819   25.5069 C   0  0  0  0  0  0  0  0  0  0  0  0
    9.0209  -16.5302   23.3760 C   0  0  0  0  0  0  0  0  0  0  0  0
    8.5536  -17.7010   23.3101 O   0  0  0  0  0  0  0  0  0  0  0  0
   14.9992  -17.1472   23.8389 N   0  0  0  0  0  0  0  0  0  0  0  0
   14.1301  -17.3399   22.7364 C   0  0  0  0  0  0  0  0  0  0  0  0
   14.5883  -17.3772   21.5766 O   0  0  0  0  0  0  0  0  0  0  0  0
   12.6762  -17.4981   22.9574 C   0  0  0  0  0  0  0  0  0  0  0  0
   12.3911  -17.3613   24.4226 C   0  0  0  0  0  0  0  0  0  0  0  0
   10.9179  -17.5015   24.7291 C   0  0  2  0  0  0  0  0  0  0  0  0
   10.2330  -16.3729   24.0922 N   0  0  0  0  0  0  0  0  0  0  0  0
   10.6720  -17.5411   26.1648 C   0  0  0  0  0  0  0  0  0  0  0  0
   10.1911  -16.4881   26.7008 O   0  0  0  0  0  0  0  0  0  0  0  0
   10.9125  -18.6170   26.9994 O   0  0  0  0  0  0  0  0  0  0  0  0
  2  1  1  1
  2  3  1  0
  3  4  1  0
  5  6  1  0
  5  4  1  0
  7  6  1  0
  8  2  1  0
  9  8  2  0
 10  8  1  0
 11 22  1  0
 11 10  1  0
 11 12  1  1
 13 12  1  0
 14 13  2  0
 15 16  1  0
 15 14  1  0
 16 21  2  0
 17 18  2  0
 17 16  1  0
 18 19  1  0
 19 20  2  0
 21 20  1  0
 21 13  1  0
 22 30  1  0
 23 22  2  0
 25 24  1  0
 25 27  1  0
 26 25  2  0
 29 28  1  1
 28 27  1  0
 29 31  1  0
 30 29  1  0
 31 32  2  0
 31 33  1  0
M  END
$$$$
