KWQ.pdb
     RDKit          3D

 33 34  0  0  1  0  0  0  0  0999 V2000
    8.3281  -16.1379   18.5351 N   0  0  0  0  0  0  0  0  0  0  0  0
    9.5204  -15.3929   18.9651 C   0  0  1  0  0  0  0  0  0  0  0  0
    9.4852  -14.1019   18.2381 C   0  0  0  0  0  0  0  0  0  0  0  0
    8.2439  -13.9110   17.4552 C   0  0  0  0  0  0  0  0  0  0  0  0
    8.2308  -14.0770   16.0089 C   0  0  0  0  0  0  0  0  0  0  0  0
    7.0665  -13.7806   15.1654 C   0  0  0  0  0  0  0  0  0  0  0  0
    7.3844  -14.1326   13.7396 N   0  0  0  0  0  0  0  0  0  0  0  0
    9.4195  -15.1959   20.4500 C   0  0  0  0  0  0  0  0  0  0  0  0
   10.3384  -14.5977   21.0484 O   0  0  0  0  0  0  0  0  0  0  0  0
    8.3200  -15.6652   21.1895 N   0  0  0  0  0  0  0  0  0  0  0  0
    8.3053  -15.4746   22.6292 C   0  0  1  0  0  0  0  0  0  0  0  0
    6.9091  -15.3615   23.1686 C   0  0  0  0  0  0  0  0  0  0  0  0
    6.7710  -15.1350   24.6005 C   0  0  0  0  0  0  0  0  0  0  0  0
    6.5572  -15.9706   25.6671 C   0  0  0  0  0  0  0  0  0  0  0  0
    6.5199  -15.2209   26.7657 N   0  0  0  0  0  0  0  0  0  0  0  0
    6.6998  -13.9245   26.4738 C   0  0  0  0  0  0  0  0  0  0  0  0
    6.7407  -12.7717   27.2524 C   0  0  0  0  0  0  0  0  0  0  0  0
    6.9438  -11.5534   26.6421 C   0  0  0  0  0  0  0  0  0  0  0  0
    7.1102  -11.4185   25.2831 C   0  0  0  0  0  0  0  0  0  0  0  0
    7.0633  -12.5898   24.5453 C   0  0  0  0  0  0  0  0  0  0  0  0
    6.8615  -13.8290   25.1209 C   0  0  0  0  0  0  0  0  0  0  0  0
    9.1843  -16.4224   23.3257 C   0  0  0  0  0  0  0  0  0  0  0  0
    9.1256  -17.6406   23.0004 O   0  0  0  0  0  0  0  0  0  0  0  0
   14.1808  -17.2748   22.8923 N   0  0  0  0  0  0  0  0  0  0  0  0
   14.3429  -17.8524   24.1761 C   0  0  0  0  0  0  0  0  0  0  0  0
   15.2131  -18.7263   24.3645 O   0  0  0  0  0  0  0  0  0  0  0  0
   13.4808  -17.4202   25.2976 C   0  0  0  0  0  0  0  0  0  0  0  0
   12.4314  -16.4885   24.7709 C   0  0  0  0  0  0  0  0  0  0  0  0
   11.0406  -17.0628   24.9122 C   0  0  2  0  0  0  0  0  0  0  0  0
   10.1078  -16.0845   24.3455 N   0  0  0  0  0  0  0  0  0  0  0  0
   10.7261  -17.3657   26.3024 C   0  0  0  0  0  0  0  0  0  0  0  0
   11.3527  -18.3377   26.8409 O   0  0  0  0  0  0  0  0  0  0  0  0
    9.8100  -16.6947   27.0913 O   0  0  0  0  0  0  0  0  0  0  0  0
  2  1  1  6
  2  3  1  0
  3  4  1  0
  5  6  1  0
  5  4  1  0
  7  6  1  0
  8  2  1  0
  9  8  2  0
 10  8  1  0
 11 22  1  0
 11 10  1  0
 11 12  1  1
 13 12  1  0
 14 13  2  0
 15 16  1  0
 15 14  1  0
 16 21  2  0
 17 18  2  0
 17 16  1  0
 18 19  1  0
 19 20  2  0
 21 20  1  0
 21 13  1  0
 22 30  1  0
 23 22  2  0
 25 24  1  0
 25 27  1  0
 26 25  2  0
 29 28  1  1
 28 27  1  0
 29 31  1  0
 30 29  1  0
 31 32  2  0
 31 33  1  0
M  END
$$$$
