KWQ.pdb
     RDKit          3D

 33 34  0  0  1  0  0  0  0  0999 V2000
    7.9554  -16.5972   20.5465 N   0  0  0  0  0  0  0  0  0  0  0  0
    9.2936  -16.0587   20.2623 C   0  0  1  0  0  0  0  0  0  0  0  0
    9.0802  -14.7769   19.5498 C   0  0  0  0  0  0  0  0  0  0  0  0
    8.2305  -14.9170   18.3462 C   0  0  0  0  0  0  0  0  0  0  0  0
    8.5402  -14.2020   17.1163 C   0  0  0  0  0  0  0  0  0  0  0  0
    7.6730  -14.2049   15.9319 C   0  0  0  0  0  0  0  0  0  0  0  0
    8.1611  -13.1707   14.9573 N   0  0  0  0  0  0  0  0  0  0  0  0
    9.9871  -15.8529   21.5778 C   0  0  0  0  0  0  0  0  0  0  0  0
   11.2147  -16.0691   21.6591 O   0  0  0  0  0  0  0  0  0  0  0  0
    9.2957  -15.4234   22.7239 N   0  0  0  0  0  0  0  0  0  0  0  0
   10.0405  -15.1779   23.9463 C   0  0  1  0  0  0  0  0  0  0  0  0
    9.4833  -14.0208   24.7233 C   0  0  0  0  0  0  0  0  0  0  0  0
    8.2028  -14.2258   25.3856 C   0  0  0  0  0  0  0  0  0  0  0  0
    7.4033  -15.3262   25.5640 C   0  0  0  0  0  0  0  0  0  0  0  0
    6.3350  -14.9404   26.2570 N   0  0  0  0  0  0  0  0  0  0  0  0
    6.3915  -13.6322   26.5460 C   0  0  0  0  0  0  0  0  0  0  0  0
    5.5380  -12.7724   27.2311 C   0  0  0  0  0  0  0  0  0  0  0  0
    5.8811  -11.4444   27.3604 C   0  0  0  0  0  0  0  0  0  0  0  0
    7.0409  -10.9195   26.8388 C   0  0  0  0  0  0  0  0  0  0  0  0
    7.8620  -11.8087   26.1653 C   0  0  0  0  0  0  0  0  0  0  0  0
    7.5522  -13.1462   26.0148 C   0  0  0  0  0  0  0  0  0  0  0  0
   10.2745  -16.4084   24.7127 C   0  0  0  0  0  0  0  0  0  0  0  0
   11.0114  -16.3434   25.7356 O   0  0  0  0  0  0  0  0  0  0  0  0
    7.6120  -22.0773   23.8517 N   0  0  0  0  0  0  0  0  0  0  0  0
    8.7303  -22.3848   24.6658 C   0  0  0  0  0  0  0  0  0  0  0  0
    9.0929  -23.5697   24.8105 O   0  0  0  0  0  0  0  0  0  0  0  0
    9.4719  -21.3011   25.3465 C   0  0  0  0  0  0  0  0  0  0  0  0
    9.2637  -20.0231   24.5916 C   0  0  0  0  0  0  0  0  0  0  0  0
    9.9697  -18.8573   25.2446 C   0  0  2  0  0  0  0  0  0  0  0  0
    9.7366  -17.6814   24.4013 N   0  0  0  0  0  0  0  0  0  0  0  0
   11.3918  -19.1230   25.4187 C   0  0  0  0  0  0  0  0  0  0  0  0
   12.0552  -19.4393   24.3759 O   0  0  0  0  0  0  0  0  0  0  0  0
   12.0879  -19.0632   26.6119 O   0  0  0  0  0  0  0  0  0  0  0  0
  2  1  1  1
  2  3  1  0
  3  4  1  0
  5  6  1  0
  5  4  1  0
  7  6  1  0
  8  2  1  0
  9  8  2  0
 10  8  1  0
 11 22  1  0
 11 10  1  0
 11 12  1  1
 13 12  1  0
 14 13  2  0
 15 16  1  0
 15 14  1  0
 16 21  2  0
 17 18  2  0
 17 16  1  0
 18 19  1  0
 19 20  2  0
 21 20  1  0
 21 13  1  0
 22 30  1  0
 23 22  2  0
 25 24  1  0
 25 27  1  0
 26 25  2  0
 29 28  1  6
 28 27  1  0
 29 31  1  0
 30 29  1  0
 31 32  2  0
 31 33  1  0
M  END
$$$$
