KWQ.pdb
     RDKit          3D

 33 34  0  0  1  0  0  0  0  0999 V2000
    6.1899  -15.1789   20.8110 N   0  0  0  0  0  0  0  0  0  0  0  0
    7.4566  -15.9247   20.7822 C   0  0  1  0  0  0  0  0  0  0  0  0
    8.1380  -15.5333   19.5258 C   0  0  0  0  0  0  0  0  0  0  0  0
    7.8333  -16.4378   18.3947 C   0  0  0  0  0  0  0  0  0  0  0  0
    8.3536  -17.7969   18.3539 C   0  0  0  0  0  0  0  0  0  0  0  0
    8.2264  -18.6833   17.1908 C   0  0  0  0  0  0  0  0  0  0  0  0
    8.8447  -20.0147   17.5118 N   0  0  0  0  0  0  0  0  0  0  0  0
    8.2480  -15.5189   21.9917 C   0  0  0  0  0  0  0  0  0  0  0  0
    8.7862  -14.3919   22.0170 O   0  0  0  0  0  0  0  0  0  0  0  0
    8.4026  -16.3704   23.0995 N   0  0  0  0  0  0  0  0  0  0  0  0
    9.3553  -16.0135   24.1359 C   0  0  1  0  0  0  0  0  0  0  0  0
    8.7312  -16.0178   25.5011 C   0  0  0  0  0  0  0  0  0  0  0  0
    7.5679  -15.1643   25.6978 C   0  0  0  0  0  0  0  0  0  0  0  0
    6.2163  -15.3912   25.6405 C   0  0  0  0  0  0  0  0  0  0  0  0
    5.6026  -14.2425   25.9133 N   0  0  0  0  0  0  0  0  0  0  0  0
    6.4886  -13.2640   26.1491 C   0  0  0  0  0  0  0  0  0  0  0  0
    6.3536  -11.9159   26.4674 C   0  0  0  0  0  0  0  0  0  0  0  0
    7.4843  -11.1501   26.6494 C   0  0  0  0  0  0  0  0  0  0  0  0
    8.7569  -11.6591   26.5305 C   0  0  0  0  0  0  0  0  0  0  0  0
    8.8468  -13.0044   26.2134 C   0  0  0  0  0  0  0  0  0  0  0  0
    7.7369  -13.8040   26.0231 C   0  0  0  0  0  0  0  0  0  0  0  0
   10.6189  -16.7506   24.0090 C   0  0  0  0  0  0  0  0  0  0  0  0
   10.5671  -18.0039   23.8680 O   0  0  0  0  0  0  0  0  0  0  0  0
   16.0235  -15.0878   21.6909 N   0  0  0  0  0  0  0  0  0  0  0  0
   16.5187  -15.9181   22.7269 C   0  0  0  0  0  0  0  0  0  0  0  0
   17.7429  -15.9625   22.9629 O   0  0  0  0  0  0  0  0  0  0  0  0
   15.5850  -16.7347   23.5326 C   0  0  0  0  0  0  0  0  0  0  0  0
   14.2663  -16.0266   23.6115 C   0  0  0  0  0  0  0  0  0  0  0  0
   13.1322  -16.9739   23.9285 C   0  0  2  0  0  0  0  0  0  0  0  0
   11.9109  -16.1698   24.0296 N   0  0  0  0  0  0  0  0  0  0  0  0
   13.3876  -17.7232   25.1519 C   0  0  0  0  0  0  0  0  0  0  0  0
   13.9049  -18.8824   25.0254 O   0  0  0  0  0  0  0  0  0  0  0  0
   13.1204  -17.2914   26.4380 O   0  0  0  0  0  0  0  0  0  0  0  0
  2  1  1  1
  2  3  1  0
  3  4  1  0
  5  6  1  0
  5  4  1  0
  7  6  1  0
  8  2  1  0
  9  8  2  0
 10  8  1  0
 11 22  1  0
 11 10  1  0
 11 12  1  1
 13 12  1  0
 14 13  2  0
 15 16  1  0
 15 14  1  0
 16 21  2  0
 17 18  2  0
 17 16  1  0
 18 19  1  0
 19 20  2  0
 21 20  1  0
 21 13  1  0
 22 30  1  0
 23 22  2  0
 25 24  1  0
 25 27  1  0
 26 25  2  0
 29 28  1  1
 28 27  1  0
 29 31  1  0
 30 29  1  0
 31 32  2  0
 31 33  1  0
M  END
$$$$
