KWQ.pdb
     RDKit          3D

 33 34  0  0  1  0  0  0  0  0999 V2000
    7.4564  -16.4447   19.9994 N   0  0  0  0  0  0  0  0  0  0  0  0
    7.5426  -17.3065   21.1874 C   0  0  1  0  0  0  0  0  0  0  0  0
    8.0428  -18.6177   20.7111 C   0  0  0  0  0  0  0  0  0  0  0  0
    8.5520  -18.5743   19.3222 C   0  0  0  0  0  0  0  0  0  0  0  0
    9.9321  -18.9200   19.0131 C   0  0  0  0  0  0  0  0  0  0  0  0
   10.4712  -18.9791   17.6491 C   0  0  0  0  0  0  0  0  0  0  0  0
   11.9650  -19.1286   17.7122 N   0  0  0  0  0  0  0  0  0  0  0  0
    8.5023  -16.6619   22.1452 C   0  0  0  0  0  0  0  0  0  0  0  0
    9.3777  -15.8890   21.7020 O   0  0  0  0  0  0  0  0  0  0  0  0
    8.4458  -16.9021   23.5291 N   0  0  0  0  0  0  0  0  0  0  0  0
    9.4050  -16.2441   24.3989 C   0  0  1  0  0  0  0  0  0  0  0  0
    8.8392  -15.9790   25.7637 C   0  0  0  0  0  0  0  0  0  0  0  0
    7.5726  -15.2632   25.8255 C   0  0  0  0  0  0  0  0  0  0  0  0
    6.2625  -15.6665   25.7737 C   0  0  0  0  0  0  0  0  0  0  0  0
    5.5016  -14.5804   25.8823 N   0  0  0  0  0  0  0  0  0  0  0  0
    6.2502  -13.4746   26.0042 C   0  0  0  0  0  0  0  0  0  0  0  0
    5.9375  -12.1253   26.1406 C   0  0  0  0  0  0  0  0  0  0  0  0
    6.9571  -11.2043   26.2416 C   0  0  0  0  0  0  0  0  0  0  0  0
    8.2865  -11.5574   26.2137 C   0  0  0  0  0  0  0  0  0  0  0  0
    8.5541  -12.9095   26.0772 C   0  0  0  0  0  0  0  0  0  0  0  0
    7.5596  -13.8622   25.9729 C   0  0  0  0  0  0  0  0  0  0  0  0
   10.7216  -16.8935   24.3684 C   0  0  0  0  0  0  0  0  0  0  0  0
   10.7877  -18.1224   24.6492 O   0  0  0  0  0  0  0  0  0  0  0  0
   17.7114  -15.6045   22.6587 N   0  0  0  0  0  0  0  0  0  0  0  0
   16.3883  -15.8835   22.2350 C   0  0  0  0  0  0  0  0  0  0  0  0
   15.9514  -15.3867   21.1772 O   0  0  0  0  0  0  0  0  0  0  0  0
   15.5208  -16.7655   23.0456 C   0  0  0  0  0  0  0  0  0  0  0  0
   14.1955  -16.0937   23.2425 C   0  0  0  0  0  0  0  0  0  0  0  0
   13.2136  -16.9798   23.9736 C   0  0  2  0  0  0  0  0  0  0  0  0
   11.9430  -16.2526   24.0452 N   0  0  0  0  0  0  0  0  0  0  0  0
   13.7033  -17.3421   25.2973 C   0  0  0  0  0  0  0  0  0  0  0  0
   14.5746  -18.2717   25.3596 O   0  0  0  0  0  0  0  0  0  0  0  0
   13.3092  -16.7692   26.4925 O   0  0  0  0  0  0  0  0  0  0  0  0
  2  1  1  6
  2  3  1  0
  3  4  1  0
  5  6  1  0
  5  4  1  0
  7  6  1  0
  8  2  1  0
  9  8  2  0
 10  8  1  0
 11 22  1  0
 11 10  1  0
 11 12  1  1
 13 12  1  0
 14 13  2  0
 15 16  1  0
 15 14  1  0
 16 21  2  0
 17 18  2  0
 17 16  1  0
 18 19  1  0
 19 20  2  0
 21 20  1  0
 21 13  1  0
 22 30  1  0
 23 22  2  0
 25 24  1  0
 25 27  1  0
 26 25  2  0
 29 28  1  1
 28 27  1  0
 29 31  1  0
 30 29  1  0
 31 32  2  0
 31 33  1  0
M  END
$$$$
