KWQ.pdb
     RDKit          3D

 33 34  0  0  1  0  0  0  0  0999 V2000
    7.9934  -16.3092   18.7036 N   0  0  0  0  0  0  0  0  0  0  0  0
    9.0907  -15.3835   19.0210 C   0  0  1  0  0  0  0  0  0  0  0  0
    8.8062  -14.1347   18.2755 C   0  0  0  0  0  0  0  0  0  0  0  0
    8.2681  -14.3790   16.9186 C   0  0  0  0  0  0  0  0  0  0  0  0
    7.2829  -13.4864   16.3253 C   0  0  0  0  0  0  0  0  0  0  0  0
    7.3864  -12.9487   14.9634 C   0  0  0  0  0  0  0  0  0  0  0  0
    7.6820  -14.0705   14.0084 N   0  0  0  0  0  0  0  0  0  0  0  0
    9.0776  -15.1584   20.5052 C   0  0  0  0  0  0  0  0  0  0  0  0
    9.9230  -14.3912   21.0120 O   0  0  0  0  0  0  0  0  0  0  0  0
    8.1407  -15.7861   21.3444 N   0  0  0  0  0  0  0  0  0  0  0  0
    8.2340  -15.5859   22.7799 C   0  0  1  0  0  0  0  0  0  0  0  0
    6.8822  -15.4696   23.4219 C   0  0  0  0  0  0  0  0  0  0  0  0
    6.8449  -15.4152   24.8766 C   0  0  0  0  0  0  0  0  0  0  0  0
    6.5942  -16.3536   25.8453 C   0  0  0  0  0  0  0  0  0  0  0  0
    6.6984  -15.7511   27.0271 N   0  0  0  0  0  0  0  0  0  0  0  0
    7.0074  -14.4540   26.8840 C   0  0  0  0  0  0  0  0  0  0  0  0
    7.2179  -13.4213   27.7928 C   0  0  0  0  0  0  0  0  0  0  0  0
    7.5246  -12.1629   27.3234 C   0  0  0  0  0  0  0  0  0  0  0  0
    7.6344  -11.8732   25.9830 C   0  0  0  0  0  0  0  0  0  0  0  0
    7.4180  -12.9287   25.1128 C   0  0  0  0  0  0  0  0  0  0  0  0
    7.1084  -14.2034   25.5451 C   0  0  0  0  0  0  0  0  0  0  0  0
    9.1635  -16.5289   23.4146 C   0  0  0  0  0  0  0  0  0  0  0  0
    9.1199  -17.7397   23.0604 O   0  0  0  0  0  0  0  0  0  0  0  0
   15.3905  -18.4277   23.2500 N   0  0  0  0  0  0  0  0  0  0  0  0
   14.7423  -17.2964   23.8050 C   0  0  0  0  0  0  0  0  0  0  0  0
   15.1093  -16.1466   23.4892 O   0  0  0  0  0  0  0  0  0  0  0  0
   13.6275  -17.4753   24.7604 C   0  0  0  0  0  0  0  0  0  0  0  0
   12.4796  -16.6115   24.3329 C   0  0  0  0  0  0  0  0  0  0  0  0
   11.1561  -17.1347   24.8414 C   0  0  2  0  0  0  0  0  0  0  0  0
   10.1207  -16.1940   24.4038 N   0  0  0  0  0  0  0  0  0  0  0  0
   11.1645  -17.2920   26.2901 C   0  0  0  0  0  0  0  0  0  0  0  0
   11.9087  -18.2103   26.7699 O   0  0  0  0  0  0  0  0  0  0  0  0
   10.4391  -16.5359   27.1921 O   0  0  0  0  0  0  0  0  0  0  0  0
  2  1  1  1
  2  3  1  0
  3  4  1  0
  5  6  1  0
  5  4  1  0
  7  6  1  0
  8  2  1  0
  9  8  2  0
 10  8  1  0
 11 22  1  0
 11 10  1  0
 11 12  1  1
 13 12  1  0
 14 13  2  0
 15 16  1  0
 15 14  1  0
 16 21  2  0
 17 18  2  0
 17 16  1  0
 18 19  1  0
 19 20  2  0
 21 20  1  0
 21 13  1  0
 22 30  1  0
 23 22  2  0
 25 24  1  0
 25 27  1  0
 26 25  2  0
 29 28  1  1
 28 27  1  0
 29 31  1  0
 30 29  1  0
 31 32  2  0
 31 33  1  0
M  END
$$$$
