KWQ.pdb
     RDKit          3D

 33 34  0  0  1  0  0  0  0  0999 V2000
    7.4381  -16.6391   21.2063 N   0  0  0  0  0  0  0  0  0  0  0  0
    8.5943  -15.7403   21.0767 C   0  0  1  0  0  0  0  0  0  0  0  0
    8.0687  -14.4674   20.5292 C   0  0  0  0  0  0  0  0  0  0  0  0
    7.5971  -14.5883   19.1316 C   0  0  0  0  0  0  0  0  0  0  0  0
    7.8990  -13.5640   18.1420 C   0  0  0  0  0  0  0  0  0  0  0  0
    7.3907  -13.5866   16.7651 C   0  0  0  0  0  0  0  0  0  0  0  0
    7.9419  -12.4080   16.0134 N   0  0  0  0  0  0  0  0  0  0  0  0
    9.1788  -15.5548   22.4471 C   0  0  0  0  0  0  0  0  0  0  0  0
   10.0222  -14.6522   22.6320 O   0  0  0  0  0  0  0  0  0  0  0  0
    8.8054  -16.3680   23.5312 N   0  0  0  0  0  0  0  0  0  0  0  0
    9.5390  -16.2593   24.7799 C   0  0  1  0  0  0  0  0  0  0  0  0
    8.6246  -16.2249   25.9698 C   0  0  0  0  0  0  0  0  0  0  0  0
    7.3964  -15.4541   25.8364 C   0  0  0  0  0  0  0  0  0  0  0  0
    6.1265  -15.7742   25.4281 C   0  0  0  0  0  0  0  0  0  0  0  0
    5.3871  -14.6708   25.5078 N   0  0  0  0  0  0  0  0  0  0  0  0
    6.1115  -13.6332   25.9515 C   0  0  0  0  0  0  0  0  0  0  0  0
    5.8072  -12.2978   26.1980 C   0  0  0  0  0  0  0  0  0  0  0  0
    6.7953  -11.4555   26.6584 C   0  0  0  0  0  0  0  0  0  0  0  0
    8.0851  -11.8750   26.8894 C   0  0  0  0  0  0  0  0  0  0  0  0
    8.3455  -13.2108   26.6321 C   0  0  0  0  0  0  0  0  0  0  0  0
    7.3817  -14.0855   26.1698 C   0  0  0  0  0  0  0  0  0  0  0  0
   10.6520  -17.2140   24.8572 C   0  0  0  0  0  0  0  0  0  0  0  0
   10.3834  -18.4472   24.8327 O   0  0  0  0  0  0  0  0  0  0  0  0
   16.4760  -16.2496   23.2843 N   0  0  0  0  0  0  0  0  0  0  0  0
   15.2821  -16.2742   22.5215 C   0  0  0  0  0  0  0  0  0  0  0  0
   15.2969  -15.9266   21.3234 O   0  0  0  0  0  0  0  0  0  0  0  0
   14.0139  -16.7130   23.1435 C   0  0  0  0  0  0  0  0  0  0  0  0
   14.3178  -17.3495   24.4661 C   0  0  0  0  0  0  0  0  0  0  0  0
   13.0721  -17.8731   25.1429 C   0  0  2  0  0  0  0  0  0  0  0  0
   12.0220  -16.8676   24.9567 N   0  0  0  0  0  0  0  0  0  0  0  0
   13.3075  -18.1525   26.5535 C   0  0  0  0  0  0  0  0  0  0  0  0
   14.1780  -19.0425   26.8317 O   0  0  0  0  0  0  0  0  0  0  0  0
   12.6728  -17.5401   27.6184 O   0  0  0  0  0  0  0  0  0  0  0  0
  2  1  1  1
  2  3  1  0
  3  4  1  0
  5  6  1  0
  5  4  1  0
  7  6  1  0
  8  2  1  0
  9  8  2  0
 10  8  1  0
 11 22  1  0
 11 10  1  0
 11 12  1  1
 13 12  1  0
 14 13  2  0
 15 16  1  0
 15 14  1  0
 16 21  2  0
 17 18  2  0
 17 16  1  0
 18 19  1  0
 19 20  2  0
 21 20  1  0
 21 13  1  0
 22 30  1  0
 23 22  2  0
 25 24  1  0
 25 27  1  0
 26 25  2  0
 29 28  1  1
 28 27  1  0
 29 31  1  0
 30 29  1  0
 31 32  2  0
 31 33  1  0
M  END
$$$$
