KWQ.pdb
     RDKit          3D

 33 34  0  0  1  0  0  0  0  0999 V2000
    8.2215  -17.9869   19.1669 N   0  0  0  0  0  0  0  0  0  0  0  0
    9.2062  -18.5644   20.0934 C   0  0  1  0  0  0  0  0  0  0  0  0
   10.4088  -18.8671   19.2821 C   0  0  0  0  0  0  0  0  0  0  0  0
   10.1426  -18.8613   17.8262 C   0  0  0  0  0  0  0  0  0  0  0  0
   10.1495  -20.0947   17.0528 C   0  0  0  0  0  0  0  0  0  0  0  0
   10.7024  -20.2032   15.6974 C   0  0  0  0  0  0  0  0  0  0  0  0
   12.1630  -19.8519   15.7279 N   0  0  0  0  0  0  0  0  0  0  0  0
    9.4935  -17.5349   21.1477 C   0  0  0  0  0  0  0  0  0  0  0  0
   10.6767  -17.3285   21.4905 O   0  0  0  0  0  0  0  0  0  0  0  0
    8.4691  -16.7943   21.7627 N   0  0  0  0  0  0  0  0  0  0  0  0
    8.8205  -15.7918   22.7530 C   0  0  1  0  0  0  0  0  0  0  0  0
    7.7240  -14.7861   22.9509 C   0  0  0  0  0  0  0  0  0  0  0  0
    8.0164  -13.6523   23.8166 C   0  0  0  0  0  0  0  0  0  0  0  0
    8.9638  -12.6611   23.7780 C   0  0  0  0  0  0  0  0  0  0  0  0
    8.7661  -11.8729   24.8317 N   0  0  0  0  0  0  0  0  0  0  0  0
    7.7287  -12.2985   25.5671 C   0  0  0  0  0  0  0  0  0  0  0  0
    7.1381  -11.8312   26.7374 C   0  0  0  0  0  0  0  0  0  0  0  0
    6.0591  -12.5068   27.2638 C   0  0  0  0  0  0  0  0  0  0  0  0
    5.5298  -13.6355   26.6819 C   0  0  0  0  0  0  0  0  0  0  0  0
    6.1463  -14.0666   25.5190 C   0  0  0  0  0  0  0  0  0  0  0  0
    7.2298  -13.4163   24.9613 C   0  0  0  0  0  0  0  0  0  0  0  0
    9.3698  -16.3871   23.9777 C   0  0  0  0  0  0  0  0  0  0  0  0
    8.8092  -17.4175   24.4439 O   0  0  0  0  0  0  0  0  0  0  0  0
   15.4775  -16.9871   24.4842 N   0  0  0  0  0  0  0  0  0  0  0  0
   14.7018  -17.8105   25.3376 C   0  0  0  0  0  0  0  0  0  0  0  0
   14.8918  -19.0433   25.3608 O   0  0  0  0  0  0  0  0  0  0  0  0
   13.6645  -17.2105   26.2044 C   0  0  0  0  0  0  0  0  0  0  0  0
   12.7424  -16.3865   25.3574 C   0  0  0  0  0  0  0  0  0  0  0  0
   11.2930  -16.7578   25.5705 C   0  0  2  0  0  0  0  0  0  0  0  0
   10.4919  -15.9002   24.6925 N   0  0  0  0  0  0  0  0  0  0  0  0
   10.9040  -16.6132   26.9673 C   0  0  0  0  0  0  0  0  0  0  0  0
   10.1209  -15.6481   27.2549 O   0  0  0  0  0  0  0  0  0  0  0  0
   11.3064  -17.4277   28.0097 O   0  0  0  0  0  0  0  0  0  0  0  0
  2  1  1  6
  2  3  1  0
  3  4  1  0
  5  6  1  0
  5  4  1  0
  7  6  1  0
  8  2  1  0
  9  8  2  0
 10  8  1  0
 11 22  1  0
 11 10  1  0
 11 12  1  1
 13 12  1  0
 14 13  2  0
 15 16  1  0
 15 14  1  0
 16 21  2  0
 17 18  2  0
 17 16  1  0
 18 19  1  0
 19 20  2  0
 21 20  1  0
 21 13  1  0
 22 30  1  0
 23 22  2  0
 25 24  1  0
 25 27  1  0
 26 25  2  0
 29 28  1  1
 28 27  1  0
 29 31  1  0
 30 29  1  0
 31 32  2  0
 31 33  1  0
M  END
$$$$
