KWQ.pdb
     RDKit          3D

 33 34  0  0  1  0  0  0  0  0999 V2000
    7.5627  -16.5208   21.2724 N   0  0  0  0  0  0  0  0  0  0  0  0
    8.7689  -15.6832   21.2024 C   0  0  1  0  0  0  0  0  0  0  0  0
    8.3280  -14.3665   20.6843 C   0  0  0  0  0  0  0  0  0  0  0  0
    7.6595  -14.4560   19.3670 C   0  0  0  0  0  0  0  0  0  0  0  0
    7.3035  -13.2591   18.6185 C   0  0  0  0  0  0  0  0  0  0  0  0
    8.0452  -12.7812   17.4453 C   0  0  0  0  0  0  0  0  0  0  0  0
    7.7347  -13.6632   16.2691 N   0  0  0  0  0  0  0  0  0  0  0  0
    9.3251  -15.5739   22.5925 C   0  0  0  0  0  0  0  0  0  0  0  0
   10.2497  -14.7644   22.8163 O   0  0  0  0  0  0  0  0  0  0  0  0
    8.8363  -16.3569   23.6528 N   0  0  0  0  0  0  0  0  0  0  0  0
    9.5157  -16.3102   24.9356 C   0  0  1  0  0  0  0  0  0  0  0  0
    8.5521  -16.1863   26.0797 C   0  0  0  0  0  0  0  0  0  0  0  0
    7.3905  -15.3323   25.8750 C   0  0  0  0  0  0  0  0  0  0  0  0
    6.1069  -15.5770   25.4579 C   0  0  0  0  0  0  0  0  0  0  0  0
    5.4549  -14.4171   25.4575 N   0  0  0  0  0  0  0  0  0  0  0  0
    6.2505  -13.4141   25.8565 C   0  0  0  0  0  0  0  0  0  0  0  0
    6.0474  -12.0469   26.0187 C   0  0  0  0  0  0  0  0  0  0  0  0
    7.0903  -11.2575   26.4515 C   0  0  0  0  0  0  0  0  0  0  0  0
    8.3389  -11.7609   26.7347 C   0  0  0  0  0  0  0  0  0  0  0  0
    8.4984  -13.1257   26.5607 C   0  0  0  0  0  0  0  0  0  0  0  0
    7.4773  -13.9493   26.1285 C   0  0  0  0  0  0  0  0  0  0  0  0
   10.5311  -17.3628   25.0668 C   0  0  0  0  0  0  0  0  0  0  0  0
   10.1433  -18.5628   25.1206 O   0  0  0  0  0  0  0  0  0  0  0  0
   16.1163  -17.1305   22.7731 N   0  0  0  0  0  0  0  0  0  0  0  0
   15.9862  -16.4393   24.0033 C   0  0  0  0  0  0  0  0  0  0  0  0
   16.7912  -15.5339   24.3012 O   0  0  0  0  0  0  0  0  0  0  0  0
   14.8946  -16.7888   24.9381 C   0  0  0  0  0  0  0  0  0  0  0  0
   14.0634  -17.8764   24.3275 C   0  0  0  0  0  0  0  0  0  0  0  0
   12.8899  -18.2521   25.2025 C   0  0  2  0  0  0  0  0  0  0  0  0
   11.9294  -17.1468   25.1381 N   0  0  0  0  0  0  0  0  0  0  0  0
   13.3090  -18.5236   26.5714 C   0  0  0  0  0  0  0  0  0  0  0  0
   12.9235  -17.7041   27.4699 O   0  0  0  0  0  0  0  0  0  0  0  0
   14.0866  -19.5894   26.9851 O   0  0  0  0  0  0  0  0  0  0  0  0
  2  1  1  1
  2  3  1  0
  3  4  1  0
  5  6  1  0
  5  4  1  0
  7  6  1  0
  8  2  1  0
  9  8  2  0
 10  8  1  0
 11 22  1  0
 11 10  1  0
 11 12  1  1
 13 12  1  0
 14 13  2  0
 15 16  1  0
 15 14  1  0
 16 21  2  0
 17 18  2  0
 17 16  1  0
 18 19  1  0
 19 20  2  0
 21 20  1  0
 21 13  1  0
 22 30  1  0
 23 22  2  0
 25 24  1  0
 25 27  1  0
 26 25  2  0
 29 28  1  6
 28 27  1  0
 29 31  1  0
 30 29  1  0
 31 32  2  0
 31 33  1  0
M  END
$$$$
