QYS.pdb
     RDKit          3D

 28 28  0  0  1  0  0  0  0  0999 V2000
   12.5279  -19.1334   17.4512 N   0  0  0  0  0  0  0  0  0  0  0  0
   11.5941  -18.0571   17.1748 C   0  0  0  0  0  0  0  0  0  0  0  0
   11.2687  -17.9218   15.9835 O   0  0  0  0  0  0  0  0  0  0  0  0
   11.1067  -17.2187   18.2708 C   0  0  0  0  0  0  0  0  0  0  0  0
   11.0940  -17.8967   19.5817 C   0  0  0  0  0  0  0  0  0  0  0  0
    9.7897  -18.1137   20.2499 C   0  0  2  0  0  0  0  0  0  0  0  0
    8.6142  -18.0651   19.4677 N   0  0  0  0  0  0  0  0  0  0  0  0
    9.7465  -17.1594   21.4215 C   0  0  0  0  0  0  0  0  0  0  0  0
   10.8146  -16.8483   22.0190 O   0  0  0  0  0  0  0  0  0  0  0  0
    7.1673  -11.5668   27.7856 O   0  0  0  0  0  0  0  0  0  0  0  0
    7.2665  -12.3167   26.6158 C   0  0  0  0  0  0  0  0  0  0  0  0
    8.0366  -11.9331   25.5484 C   0  0  0  0  0  0  0  0  0  0  0  0
    8.1056  -12.7068   24.4092 C   0  0  0  0  0  0  0  0  0  0  0  0
    7.4129  -13.8941   24.2808 C   0  0  0  0  0  0  0  0  0  0  0  0
    7.4599  -14.7408   23.0754 C   0  0  0  0  0  0  0  0  0  0  0  0
    8.5988  -15.7334   23.0690 C   0  0  2  0  0  0  0  0  0  0  0  0
    8.5372  -16.5893   21.8873 N   0  0  0  0  0  0  0  0  0  0  0  0
    8.6209  -16.6181   24.2539 C   0  0  0  0  0  0  0  0  0  0  0  0
    7.7214  -17.4899   24.3603 O   0  0  0  0  0  0  0  0  0  0  0  0
    6.6404  -14.2485   25.3912 C   0  0  0  0  0  0  0  0  0  0  0  0
    6.5658  -13.4860   26.5275 C   0  0  0  0  0  0  0  0  0  0  0  0
   11.6098  -18.3090   25.4153 O   0  0  0  0  0  0  0  0  0  0  0  0
   10.4024  -18.6902   26.0046 C   0  0  0  0  0  0  0  0  0  0  0  0
    9.6018  -17.4480   26.3371 C   0  0  2  0  0  0  0  0  0  0  0  0
    9.6120  -16.5090   25.2526 N   0  0  0  0  0  0  0  0  0  0  0  0
   10.2339  -16.8188   27.5194 C   0  0  0  0  0  0  0  0  0  0  0  0
   10.3498  -17.5345   28.7125 O   0  0  0  0  0  0  0  0  0  0  0  0
   10.6668  -15.6489   27.4612 O   0  0  0  0  0  0  0  0  0  0  0  0
  2  1  1  0
  2  3  2  0
  4  5  1  0
  4  2  1  0
  5  6  1  0
  6  8  1  0
  6  7  1  6
  8  9  2  0
 10 11  1  0
 11 21  2  0
 11 12  1  0
 12 13  2  0
 13 14  1  0
 14 15  1  0
 16 15  1  1
 17 16  1  0
 17  8  1  0
 18 16  1  0
 19 18  2  0
 20 14  2  0
 21 20  1  0
 23 22  1  0
 24 23  1  6
 24 25  1  0
 25 18  1  0
 26 27  1  0
 26 24  1  0
 28 26  2  0
M  END
$$$$
