QYS.pdb
     RDKit          3D

 28 28  0  0  1  0  0  0  0  0999 V2000
    8.4614  -12.6794   16.9020 N   0  0  0  0  0  0  0  0  0  0  0  0
    8.4295  -13.8717   16.0749 C   0  0  0  0  0  0  0  0  0  0  0  0
    7.9074  -13.7346   14.9560 O   0  0  0  0  0  0  0  0  0  0  0  0
    8.9893  -15.1244   16.5840 C   0  0  0  0  0  0  0  0  0  0  0  0
    9.4354  -15.0521   17.9890 C   0  0  0  0  0  0  0  0  0  0  0  0
    9.0236  -16.1325   18.9153 C   0  0  2  0  0  0  0  0  0  0  0  0
    7.7964  -16.7918   18.6803 N   0  0  0  0  0  0  0  0  0  0  0  0
    9.1149  -15.5567   20.3100 C   0  0  0  0  0  0  0  0  0  0  0  0
   10.1588  -14.9445   20.6707 O   0  0  0  0  0  0  0  0  0  0  0  0
    7.2066  -12.2856   28.2804 O   0  0  0  0  0  0  0  0  0  0  0  0
    7.1411  -12.7978   26.9866 C   0  0  0  0  0  0  0  0  0  0  0  0
    6.5175  -13.9808   26.6848 C   0  0  0  0  0  0  0  0  0  0  0  0
    6.4766  -14.4506   25.3891 C   0  0  0  0  0  0  0  0  0  0  0  0
    7.0531  -13.7662   24.3378 C   0  0  0  0  0  0  0  0  0  0  0  0
    7.0328  -14.2434   22.9435 C   0  0  0  0  0  0  0  0  0  0  0  0
    8.2430  -15.0622   22.5595 C   0  0  2  0  0  0  0  0  0  0  0  0
    8.0608  -15.6772   21.2474 N   0  0  0  0  0  0  0  0  0  0  0  0
    8.5527  -16.1470   23.5160 C   0  0  0  0  0  0  0  0  0  0  0  0
    7.7904  -17.1462   23.5471 O   0  0  0  0  0  0  0  0  0  0  0  0
    7.6781  -12.5655   24.6885 C   0  0  0  0  0  0  0  0  0  0  0  0
    7.7236  -12.0907   25.9733 C   0  0  0  0  0  0  0  0  0  0  0  0
   11.5145  -17.6081   23.6536 O   0  0  0  0  0  0  0  0  0  0  0  0
   11.0557  -18.0226   24.9058 C   0  0  0  0  0  0  0  0  0  0  0  0
    9.8744  -17.1637   25.3076 C   0  0  2  0  0  0  0  0  0  0  0  0
    9.6661  -16.0883   24.3811 N   0  0  0  0  0  0  0  0  0  0  0  0
   10.1763  -16.5936   26.6406 C   0  0  0  0  0  0  0  0  0  0  0  0
   10.4384  -17.4408   27.7189 O   0  0  0  0  0  0  0  0  0  0  0  0
   10.1992  -15.3569   26.8124 O   0  0  0  0  0  0  0  0  0  0  0  0
  2  1  1  0
  2  3  2  0
  4  5  1  0
  4  2  1  0
  5  6  1  0
  6  8  1  0
  6  7  1  6
  8  9  2  0
 10 11  1  0
 11 21  2  0
 11 12  1  0
 12 13  2  0
 13 14  1  0
 14 15  1  0
 16 15  1  1
 17 16  1  0
 17  8  1  0
 18 16  1  0
 19 18  2  0
 20 14  2  0
 21 20  1  0
 23 22  1  0
 24 23  1  6
 24 25  1  0
 25 18  1  0
 26 27  1  0
 26 24  1  0
 28 26  2  0
M  END
$$$$
