QYS.pdb
     RDKit          3D

 28 28  0  0  1  0  0  0  0  0999 V2000
   12.4787  -20.0829   19.9068 N   0  0  0  0  0  0  0  0  0  0  0  0
   11.8577  -20.0558   18.5952 C   0  0  0  0  0  0  0  0  0  0  0  0
   12.1988  -20.9658   17.8212 O   0  0  0  0  0  0  0  0  0  0  0  0
   10.9023  -18.9975   18.2653 C   0  0  0  0  0  0  0  0  0  0  0  0
   10.7106  -18.0082   19.3437 C   0  0  0  0  0  0  0  0  0  0  0  0
    9.3542  -17.4514   19.5558 C   0  0  2  0  0  0  0  0  0  0  0  0
    8.7350  -16.7585   18.4916 N   0  0  0  0  0  0  0  0  0  0  0  0
    9.4241  -16.6275   20.8213 C   0  0  0  0  0  0  0  0  0  0  0  0
   10.5380  -16.4301   21.3825 O   0  0  0  0  0  0  0  0  0  0  0  0
    7.3603  -11.7391   27.9277 O   0  0  0  0  0  0  0  0  0  0  0  0
    7.3684  -12.3558   26.6787 C   0  0  0  0  0  0  0  0  0  0  0  0
    8.0969  -11.8814   25.6186 C   0  0  0  0  0  0  0  0  0  0  0  0
    8.0755  -12.5242   24.3990 C   0  0  0  0  0  0  0  0  0  0  0  0
    7.3300  -13.6653   24.1795 C   0  0  0  0  0  0  0  0  0  0  0  0
    7.2803  -14.3724   22.8873 C   0  0  0  0  0  0  0  0  0  0  0  0
    8.4494  -15.2999   22.6522 C   0  0  2  0  0  0  0  0  0  0  0  0
    8.2728  -16.0578   21.4163 N   0  0  0  0  0  0  0  0  0  0  0  0
    8.6597  -16.2769   23.7425 C   0  0  0  0  0  0  0  0  0  0  0  0
    7.8625  -17.2447   23.8340 O   0  0  0  0  0  0  0  0  0  0  0  0
    6.6025  -14.1155   25.2856 C   0  0  0  0  0  0  0  0  0  0  0  0
    6.6177  -13.4833   26.5014 C   0  0  0  0  0  0  0  0  0  0  0  0
   12.0905  -17.4198   24.8844 O   0  0  0  0  0  0  0  0  0  0  0  0
   10.9747  -18.1346   25.3255 C   0  0  0  0  0  0  0  0  0  0  0  0
    9.8712  -17.1585   25.6779 C   0  0  2  0  0  0  0  0  0  0  0  0
    9.7173  -16.1509   24.6683 N   0  0  0  0  0  0  0  0  0  0  0  0
   10.2504  -16.5044   26.9513 C   0  0  0  0  0  0  0  0  0  0  0  0
   10.4531  -17.2745   28.0980 O   0  0  0  0  0  0  0  0  0  0  0  0
   10.3917  -15.2651   27.0116 O   0  0  0  0  0  0  0  0  0  0  0  0
  2  1  1  0
  2  3  2  0
  4  5  1  0
  4  2  1  0
  5  6  1  0
  6  8  1  0
  6  7  1  6
  8  9  2  0
 10 11  1  0
 11 21  2  0
 11 12  1  0
 12 13  2  0
 13 14  1  0
 14 15  1  0
 16 15  1  1
 17 16  1  0
 17  8  1  0
 18 16  1  0
 19 18  2  0
 20 14  2  0
 21 20  1  0
 23 22  1  0
 24 23  1  6
 24 25  1  0
 25 18  1  0
 26 27  1  0
 26 24  1  0
 28 26  2  0
M  END
$$$$
