QYS.pdb
     RDKit          3D

 28 28  0  0  1  0  0  0  0  0999 V2000
    8.0320  -12.9245   16.5717 N   0  0  0  0  0  0  0  0  0  0  0  0
    8.3421  -14.1505   15.8593 C   0  0  0  0  0  0  0  0  0  0  0  0
    7.9112  -14.2188   14.6961 O   0  0  0  0  0  0  0  0  0  0  0  0
    9.1129  -15.2019   16.5240 C   0  0  0  0  0  0  0  0  0  0  0  0
    9.3578  -14.9480   17.9572 C   0  0  0  0  0  0  0  0  0  0  0  0
    9.0605  -16.0296   18.9251 C   0  0  2  0  0  0  0  0  0  0  0  0
    7.8733  -16.7771   18.7582 N   0  0  0  0  0  0  0  0  0  0  0  0
    9.1690  -15.4128   20.3009 C   0  0  0  0  0  0  0  0  0  0  0  0
   10.2335  -14.8275   20.6456 O   0  0  0  0  0  0  0  0  0  0  0  0
    7.2805  -12.7102   28.5383 O   0  0  0  0  0  0  0  0  0  0  0  0
    7.2772  -13.0072   27.1773 C   0  0  0  0  0  0  0  0  0  0  0  0
    7.8428  -12.1878   26.2349 C   0  0  0  0  0  0  0  0  0  0  0  0
    7.8165  -12.5214   24.8972 C   0  0  0  0  0  0  0  0  0  0  0  0
    7.2274  -13.6824   24.4380 C   0  0  0  0  0  0  0  0  0  0  0  0
    7.1765  -14.0652   23.0157 C   0  0  0  0  0  0  0  0  0  0  0  0
    8.3470  -14.9085   22.5669 C   0  0  2  0  0  0  0  0  0  0  0  0
    8.1089  -15.4648   21.2377 N   0  0  0  0  0  0  0  0  0  0  0  0
    8.6442  -16.0399   23.4719 C   0  0  0  0  0  0  0  0  0  0  0  0
    7.8653  -17.0266   23.4638 O   0  0  0  0  0  0  0  0  0  0  0  0
    6.6630  -14.4893   25.4309 C   0  0  0  0  0  0  0  0  0  0  0  0
    6.6845  -14.1659   26.7625 C   0  0  0  0  0  0  0  0  0  0  0  0
   12.2816  -17.0703   24.2916 O   0  0  0  0  0  0  0  0  0  0  0  0
   11.2387  -17.9721   24.5139 C   0  0  0  0  0  0  0  0  0  0  0  0
   10.0526  -17.2235   25.0862 C   0  0  2  0  0  0  0  0  0  0  0  0
    9.7638  -16.0384   24.3310 N   0  0  0  0  0  0  0  0  0  0  0  0
   10.4032  -16.8335   26.4711 C   0  0  0  0  0  0  0  0  0  0  0  0
   10.3611  -15.4903   26.8497 O   0  0  0  0  0  0  0  0  0  0  0  0
   10.7379  -17.6969   27.3090 O   0  0  0  0  0  0  0  0  0  0  0  0
  2  1  1  0
  2  3  2  0
  4  5  1  0
  4  2  1  0
  5  6  1  0
  6  8  1  0
  6  7  1  6
  8  9  2  0
 10 11  1  0
 11 21  2  0
 11 12  1  0
 12 13  2  0
 13 14  1  0
 14 15  1  0
 16 15  1  1
 17 16  1  0
 17  8  1  0
 18 16  1  0
 19 18  2  0
 20 14  2  0
 21 20  1  0
 23 22  1  0
 24 23  1  6
 24 25  1  0
 25 18  1  0
 26 27  1  0
 26 24  1  0
 28 26  2  0
M  END
$$$$
