QYS.pdb
     RDKit          3D

 28 28  0  0  1  0  0  0  0  0999 V2000
    9.3747  -12.9091   16.4872 N   0  0  0  0  0  0  0  0  0  0  0  0
    8.3765  -13.6366   17.2495 C   0  0  0  0  0  0  0  0  0  0  0  0
    8.1092  -14.7762   16.8333 O   0  0  0  0  0  0  0  0  0  0  0  0
    7.7593  -13.0126   18.4205 C   0  0  0  0  0  0  0  0  0  0  0  0
    8.3957  -13.3826   19.6998 C   0  0  0  0  0  0  0  0  0  0  0  0
    8.3940  -14.8088   20.1008 C   0  0  2  0  0  0  0  0  0  0  0  0
    7.2360  -15.5787   19.8512 N   0  0  0  0  0  0  0  0  0  0  0  0
    8.8121  -14.8443   21.5530 C   0  0  0  0  0  0  0  0  0  0  0  0
    9.8685  -14.2564   21.9179 O   0  0  0  0  0  0  0  0  0  0  0  0
    6.6741  -10.4780   27.2668 O   0  0  0  0  0  0  0  0  0  0  0  0
    6.8378  -11.7326   26.6842 C   0  0  0  0  0  0  0  0  0  0  0  0
    5.7930  -12.4590   26.1742 C   0  0  0  0  0  0  0  0  0  0  0  0
    6.0009  -13.6979   25.6059 C   0  0  0  0  0  0  0  0  0  0  0  0
    7.2550  -14.2688   25.5198 C   0  0  0  0  0  0  0  0  0  0  0  0
    7.5105  -15.5928   24.9248 C   0  0  0  0  0  0  0  0  0  0  0  0
    8.6108  -15.5961   23.8895 C   0  0  2  0  0  0  0  0  0  0  0  0
    8.0567  -15.5218   22.5403 N   0  0  0  0  0  0  0  0  0  0  0  0
    9.4747  -16.7952   23.9462 C   0  0  0  0  0  0  0  0  0  0  0  0
    9.1111  -17.8189   23.3137 O   0  0  0  0  0  0  0  0  0  0  0  0
    8.2920  -13.4957   26.0511 C   0  0  0  0  0  0  0  0  0  0  0  0
    8.0948  -12.2635   26.6177 C   0  0  0  0  0  0  0  0  0  0  0  0
   13.3448  -16.7452   24.3378 O   0  0  0  0  0  0  0  0  0  0  0  0
   12.7314  -17.9614   24.0296 C   0  0  0  0  0  0  0  0  0  0  0  0
   11.4106  -18.0485   24.7660 C   0  0  2  0  0  0  0  0  0  0  0  0
   10.6787  -16.8175   24.6820 N   0  0  0  0  0  0  0  0  0  0  0  0
   11.7156  -18.3265   26.1883 C   0  0  0  0  0  0  0  0  0  0  0  0
   12.4895  -19.4365   26.5320 O   0  0  0  0  0  0  0  0  0  0  0  0
   11.2863  -17.5753   27.0887 O   0  0  0  0  0  0  0  0  0  0  0  0
  2  1  1  0
  2  3  2  0
  4  5  1  0
  4  2  1  0
  5  6  1  0
  6  8  1  0
  6  7  1  1
  8  9  2  0
 10 11  1  0
 11 21  2  0
 11 12  1  0
 12 13  2  0
 13 14  1  0
 14 15  1  0
 16 15  1  1
 17 16  1  0
 17  8  1  0
 18 16  1  0
 19 18  2  0
 20 14  2  0
 21 20  1  0
 23 22  1  0
 24 23  1  6
 24 25  1  0
 25 18  1  0
 26 27  1  0
 26 24  1  0
 28 26  2  0
M  END
$$$$
