QYS.pdb
     RDKit          3D

 28 28  0  0  1  0  0  0  0  0999 V2000
   10.6318  -22.6020   21.8822 N   0  0  0  0  0  0  0  0  0  0  0  0
   10.1588  -22.1948   20.5717 C   0  0  0  0  0  0  0  0  0  0  0  0
    9.6038  -23.0819   19.9022 O   0  0  0  0  0  0  0  0  0  0  0  0
   10.3560  -20.8154   20.1243 C   0  0  0  0  0  0  0  0  0  0  0  0
    9.1070  -20.1251   19.7476 C   0  0  0  0  0  0  0  0  0  0  0  0
    9.2027  -18.7758   19.1433 C   0  0  2  0  0  0  0  0  0  0  0  0
    9.7970  -18.6481   17.8679 N   0  0  0  0  0  0  0  0  0  0  0  0
    9.8562  -17.8897   20.1790 C   0  0  0  0  0  0  0  0  0  0  0  0
   11.0611  -17.5392   20.0369 O   0  0  0  0  0  0  0  0  0  0  0  0
    7.2681  -12.0340   18.2751 O   0  0  0  0  0  0  0  0  0  0  0  0
    7.6289  -12.8650   19.3333 C   0  0  0  0  0  0  0  0  0  0  0  0
    6.7600  -13.7534   19.9122 C   0  0  0  0  0  0  0  0  0  0  0  0
    7.1601  -14.5574   20.9586 C   0  0  0  0  0  0  0  0  0  0  0  0
    8.4397  -14.5136   21.4750 C   0  0  0  0  0  0  0  0  0  0  0  0
    8.8973  -15.3541   22.5959 C   0  0  0  0  0  0  0  0  0  0  0  0
    9.8391  -16.4616   22.1853 C   0  0  2  0  0  0  0  0  0  0  0  0
    9.1630  -17.4278   21.3237 N   0  0  0  0  0  0  0  0  0  0  0  0
   10.4072  -17.2106   23.3272 C   0  0  0  0  0  0  0  0  0  0  0  0
    9.6420  -17.9611   23.9841 O   0  0  0  0  0  0  0  0  0  0  0  0
    9.2935  -13.5950   20.8565 C   0  0  0  0  0  0  0  0  0  0  0  0
    8.9047  -12.7920   19.8161 C   0  0  0  0  0  0  0  0  0  0  0  0
   14.3326  -16.8118   24.5032 O   0  0  0  0  0  0  0  0  0  0  0  0
   13.7758  -18.0817   24.6692 C   0  0  0  0  0  0  0  0  0  0  0  0
   12.2677  -17.9548   24.7327 C   0  0  2  0  0  0  0  0  0  0  0  0
   11.7665  -17.1048   23.6913 N   0  0  0  0  0  0  0  0  0  0  0  0
   11.9300  -17.3539   26.0434 C   0  0  0  0  0  0  0  0  0  0  0  0
   12.3089  -17.9959   27.2238 O   0  0  0  0  0  0  0  0  0  0  0  0
   11.3068  -16.2735   26.1054 O   0  0  0  0  0  0  0  0  0  0  0  0
  2  1  1  0
  2  3  2  0
  4  5  1  0
  4  2  1  0
  5  6  1  0
  6  8  1  0
  6  7  1  6
  8  9  2  0
 10 11  1  0
 11 21  2  0
 11 12  1  0
 12 13  2  0
 13 14  1  0
 14 15  1  0
 16 15  1  1
 17 16  1  0
 17  8  1  0
 18 16  1  0
 19 18  2  0
 20 14  2  0
 21 20  1  0
 23 22  1  0
 24 23  1  6
 24 25  1  0
 25 18  1  0
 26 27  1  0
 26 24  1  0
 28 26  2  0
M  END
$$$$
