QYS.pdb
     RDKit          3D

 28 28  0  0  1  0  0  0  0  0999 V2000
    6.1158  -19.1222   20.3093 N   0  0  0  0  0  0  0  0  0  0  0  0
    6.6658  -18.6508   19.0515 C   0  0  0  0  0  0  0  0  0  0  0  0
    6.4917  -19.3997   18.0757 O   0  0  0  0  0  0  0  0  0  0  0  0
    7.3717  -17.3699   19.0018 C   0  0  0  0  0  0  0  0  0  0  0  0
    7.5050  -16.7097   20.3151 C   0  0  0  0  0  0  0  0  0  0  0  0
    8.1286  -15.3669   20.3683 C   0  0  2  0  0  0  0  0  0  0  0  0
    8.9775  -14.9744   19.3095 N   0  0  0  0  0  0  0  0  0  0  0  0
    8.7991  -15.2609   21.7190 C   0  0  0  0  0  0  0  0  0  0  0  0
   10.0573  -15.3289   21.8036 O   0  0  0  0  0  0  0  0  0  0  0  0
   10.4057  -14.5333   30.4026 O   0  0  0  0  0  0  0  0  0  0  0  0
    9.7978  -14.5428   29.1493 C   0  0  0  0  0  0  0  0  0  0  0  0
    9.2155  -15.6618   28.6125 C   0  0  0  0  0  0  0  0  0  0  0  0
    8.6245  -15.6259   27.3672 C   0  0  0  0  0  0  0  0  0  0  0  0
    8.5867  -14.4777   26.6015 C   0  0  0  0  0  0  0  0  0  0  0  0
    7.9692  -14.4072   25.2652 C   0  0  0  0  0  0  0  0  0  0  0  0
    8.8093  -15.0212   24.1699 C   0  0  2  0  0  0  0  0  0  0  0  0
    8.0636  -15.0865   22.9159 N   0  0  0  0  0  0  0  0  0  0  0  0
    9.2757  -16.3907   24.4776 C   0  0  0  0  0  0  0  0  0  0  0  0
    8.4552  -17.3363   24.3645 O   0  0  0  0  0  0  0  0  0  0  0  0
    9.1913  -13.3601   27.1853 C   0  0  0  0  0  0  0  0  0  0  0  0
    9.7808  -13.3864   28.4223 C   0  0  0  0  0  0  0  0  0  0  0  0
   12.5690  -19.6478   24.2141 O   0  0  0  0  0  0  0  0  0  0  0  0
   12.1874  -18.3131   24.0619 C   0  0  0  0  0  0  0  0  0  0  0  0
   11.0259  -18.0231   24.9900 C   0  0  2  0  0  0  0  0  0  0  0  0
   10.5992  -16.6572   24.8886 N   0  0  0  0  0  0  0  0  0  0  0  0
   11.4918  -18.2763   26.3727 C   0  0  0  0  0  0  0  0  0  0  0  0
   11.9230  -19.5520   26.7412 O   0  0  0  0  0  0  0  0  0  0  0  0
   11.5036  -17.3569   27.2176 O   0  0  0  0  0  0  0  0  0  0  0  0
  2  1  1  0
  2  3  2  0
  4  5  1  0
  4  2  1  0
  5  6  1  0
  6  8  1  0
  6  7  1  6
  8  9  2  0
 10 11  1  0
 11 21  2  0
 11 12  1  0
 12 13  2  0
 13 14  1  0
 14 15  1  0
 16 15  1  1
 17 16  1  0
 17  8  1  0
 18 16  1  0
 19 18  2  0
 20 14  2  0
 21 20  1  0
 23 22  1  0
 24 23  1  6
 24 25  1  0
 25 18  1  0
 26 27  1  0
 26 24  1  0
 28 26  2  0
M  END
$$$$
