QYS.pdb
     RDKit          3D

 28 28  0  0  1  0  0  0  0  0999 V2000
    9.7715  -15.7495   15.4160 N   0  0  0  0  0  0  0  0  0  0  0  0
    9.6794  -17.1838   15.6186 C   0  0  0  0  0  0  0  0  0  0  0  0
    8.8811  -17.7802   14.8768 O   0  0  0  0  0  0  0  0  0  0  0  0
   10.4975  -17.8262   16.6480 C   0  0  0  0  0  0  0  0  0  0  0  0
   10.4441  -17.1526   17.9602 C   0  0  0  0  0  0  0  0  0  0  0  0
   10.3829  -17.9909   19.1802 C   0  0  2  0  0  0  0  0  0  0  0  0
    9.3506  -18.9492   19.2896 N   0  0  0  0  0  0  0  0  0  0  0  0
   10.4174  -17.0392   20.3542 C   0  0  0  0  0  0  0  0  0  0  0  0
   11.3664  -16.2138   20.4669 O   0  0  0  0  0  0  0  0  0  0  0  0
    7.7393  -11.8827   18.0411 O   0  0  0  0  0  0  0  0  0  0  0  0
    7.8809  -12.7139   19.1499 C   0  0  0  0  0  0  0  0  0  0  0  0
    7.0536  -13.7799   19.3921 C   0  0  0  0  0  0  0  0  0  0  0  0
    7.2304  -14.5769   20.5033 C   0  0  0  0  0  0  0  0  0  0  0  0
    8.2358  -14.3495   21.4217 C   0  0  0  0  0  0  0  0  0  0  0  0
    8.4480  -15.1778   22.6221 C   0  0  0  0  0  0  0  0  0  0  0  0
    9.5983  -16.1494   22.4994 C   0  0  2  0  0  0  0  0  0  0  0  0
    9.4132  -17.0337   21.3520 N   0  0  0  0  0  0  0  0  0  0  0  0
    9.7809  -17.0057   23.6914 C   0  0  0  0  0  0  0  0  0  0  0  0
    8.7546  -17.4481   24.2670 O   0  0  0  0  0  0  0  0  0  0  0  0
    9.0564  -13.2535   21.1376 C   0  0  0  0  0  0  0  0  0  0  0  0
    8.8884  -12.4560   20.0358 C   0  0  0  0  0  0  0  0  0  0  0  0
   12.7539  -19.4357   24.0985 O   0  0  0  0  0  0  0  0  0  0  0  0
   11.6546  -19.5735   24.9486 C   0  0  0  0  0  0  0  0  0  0  0  0
   11.1519  -18.1969   25.3322 C   0  0  2  0  0  0  0  0  0  0  0  0
   11.0597  -17.3331   24.1905 N   0  0  0  0  0  0  0  0  0  0  0  0
   12.1257  -17.6220   26.2884 C   0  0  0  0  0  0  0  0  0  0  0  0
   12.3553  -18.2510   27.5135 O   0  0  0  0  0  0  0  0  0  0  0  0
   12.7473  -16.5753   26.0101 O   0  0  0  0  0  0  0  0  0  0  0  0
  2  1  1  0
  2  3  2  0
  4  5  1  0
  4  2  1  0
  5  6  1  0
  6  8  1  0
  6  7  1  6
  8  9  2  0
 10 11  1  0
 11 21  2  0
 11 12  1  0
 12 13  2  0
 13 14  1  0
 14 15  1  0
 16 15  1  1
 17 16  1  0
 17  8  1  0
 18 16  1  0
 19 18  2  0
 20 14  2  0
 21 20  1  0
 23 22  1  0
 24 23  1  6
 24 25  1  0
 25 18  1  0
 26 27  1  0
 26 24  1  0
 28 26  2  0
M  END
$$$$
