QYS.pdb
     RDKit          3D

 28 28  0  0  1  0  0  0  0  0999 V2000
    8.6764  -20.5598   20.2396 N   0  0  0  0  0  0  0  0  0  0  0  0
    8.8191  -19.8694   18.9709 C   0  0  0  0  0  0  0  0  0  0  0  0
    8.7201  -20.5821   17.9581 O   0  0  0  0  0  0  0  0  0  0  0  0
    9.0657  -18.4270   18.9523 C   0  0  0  0  0  0  0  0  0  0  0  0
    9.1311  -17.8147   20.2936 C   0  0  0  0  0  0  0  0  0  0  0  0
    9.2172  -16.3388   20.3908 C   0  0  2  0  0  0  0  0  0  0  0  0
    9.8915  -15.6334   19.3692 N   0  0  0  0  0  0  0  0  0  0  0  0
    9.7653  -16.0329   21.7659 C   0  0  0  0  0  0  0  0  0  0  0  0
   11.0027  -15.8332   21.9196 O   0  0  0  0  0  0  0  0  0  0  0  0
   10.5312  -14.6308   30.4878 O   0  0  0  0  0  0  0  0  0  0  0  0
   10.0497  -14.7651   29.1875 C   0  0  0  0  0  0  0  0  0  0  0  0
    9.5015  -15.9285   28.7128 C   0  0  0  0  0  0  0  0  0  0  0  0
    9.0370  -16.0170   27.4176 C   0  0  0  0  0  0  0  0  0  0  0  0
    9.0972  -14.9544   26.5382 C   0  0  0  0  0  0  0  0  0  0  0  0
    8.6159  -15.0177   25.1466 C   0  0  0  0  0  0  0  0  0  0  0  0
    9.5739  -15.7002   24.1985 C   0  0  2  0  0  0  0  0  0  0  0  0
    8.9358  -15.9601   22.9108 N   0  0  0  0  0  0  0  0  0  0  0  0
   10.0895  -16.9910   24.7038 C   0  0  0  0  0  0  0  0  0  0  0  0
    9.3136  -17.9801   24.7055 O   0  0  0  0  0  0  0  0  0  0  0  0
    9.6628  -13.7876   27.0618 C   0  0  0  0  0  0  0  0  0  0  0  0
   10.1269  -13.6905   28.3476 C   0  0  0  0  0  0  0  0  0  0  0  0
   13.8934  -17.9580   24.4616 O   0  0  0  0  0  0  0  0  0  0  0  0
   12.9438  -18.9624   24.6609 C   0  0  0  0  0  0  0  0  0  0  0  0
   11.8579  -18.4396   25.5786 C   0  0  2  0  0  0  0  0  0  0  0  0
   11.4111  -17.1368   25.1768 N   0  0  0  0  0  0  0  0  0  0  0  0
   12.4359  -18.3475   26.9389 C   0  0  0  0  0  0  0  0  0  0  0  0
   12.9191  -19.4948   27.5710 O   0  0  0  0  0  0  0  0  0  0  0  0
   12.4966  -17.2495   27.5305 O   0  0  0  0  0  0  0  0  0  0  0  0
  2  1  1  0
  2  3  2  0
  4  5  1  0
  4  2  1  0
  5  6  1  0
  6  8  1  0
  6  7  1  6
  8  9  2  0
 10 11  1  0
 11 21  2  0
 11 12  1  0
 12 13  2  0
 13 14  1  0
 14 15  1  0
 16 15  1  1
 17 16  1  0
 17  8  1  0
 18 16  1  0
 19 18  2  0
 20 14  2  0
 21 20  1  0
 23 22  1  0
 24 23  1  6
 24 25  1  0
 25 18  1  0
 26 27  1  0
 26 24  1  0
 28 26  2  0
M  END
$$$$
