QYS.pdb
     RDKit          3D

 28 28  0  0  1  0  0  0  0  0999 V2000
   13.5279  -23.9052   24.2933 N   0  0  0  0  0  0  0  0  0  0  0  0
   13.2107  -24.3953   25.6222 C   0  0  0  0  0  0  0  0  0  0  0  0
   13.6017  -25.5467   25.8768 O   0  0  0  0  0  0  0  0  0  0  0  0
   12.4729  -23.5420   26.5545 C   0  0  0  0  0  0  0  0  0  0  0  0
   13.2541  -22.3977   27.0632 C   0  0  0  0  0  0  0  0  0  0  0  0
   12.5779  -21.4213   27.9488 C   0  0  2  0  0  0  0  0  0  0  0  0
   11.4142  -20.7744   27.4762 N   0  0  0  0  0  0  0  0  0  0  0  0
   13.6413  -20.4459   28.3992 C   0  0  0  0  0  0  0  0  0  0  0  0
   14.1461  -19.6384   27.5698 O   0  0  0  0  0  0  0  0  0  0  0  0
   15.8997  -23.5617   34.9681 O   0  0  0  0  0  0  0  0  0  0  0  0
   15.7599  -22.4595   34.1278 C   0  0  0  0  0  0  0  0  0  0  0  0
   16.7952  -21.6098   33.8354 C   0  0  0  0  0  0  0  0  0  0  0  0
   16.6117  -20.5301   32.9978 C   0  0  0  0  0  0  0  0  0  0  0  0
   15.3926  -20.2475   32.4148 C   0  0  0  0  0  0  0  0  0  0  0  0
   15.1614  -19.0989   31.5207 C   0  0  0  0  0  0  0  0  0  0  0  0
   15.1739  -19.4544   30.0524 C   0  0  2  0  0  0  0  0  0  0  0  0
   14.1052  -20.3982   29.7359 N   0  0  0  0  0  0  0  0  0  0  0  0
   16.4452  -20.0595   29.5996 C   0  0  0  0  0  0  0  0  0  0  0  0
   16.5175  -21.3131   29.5395 O   0  0  0  0  0  0  0  0  0  0  0  0
   14.3642  -21.1380   32.7387 C   0  0  0  0  0  0  0  0  0  0  0  0
   14.5373  -22.2137   33.5700 C   0  0  0  0  0  0  0  0  0  0  0  0
   18.0205  -19.6749   26.4980 O   0  0  0  0  0  0  0  0  0  0  0  0
   18.4695  -20.6230   27.4200 C   0  0  0  0  0  0  0  0  0  0  0  0
   18.7350  -19.9365   28.7439 C   0  0  2  0  0  0  0  0  0  0  0  0
   17.5619  -19.2756   29.2390 N   0  0  0  0  0  0  0  0  0  0  0  0
   19.7912  -18.9245   28.5124 C   0  0  0  0  0  0  0  0  0  0  0  0
   21.0778  -19.3287   28.1510 O   0  0  0  0  0  0  0  0  0  0  0  0
   19.5430  -17.7070   28.6374 O   0  0  0  0  0  0  0  0  0  0  0  0
  2  1  1  0
  2  3  2  0
  4  5  1  0
  4  2  1  0
  5  6  1  0
  6  8  1  0
  6  7  1  6
  8  9  2  0
 10 11  1  0
 11 21  2  0
 11 12  1  0
 12 13  2  0
 13 14  1  0
 14 15  1  0
 16 15  1  1
 17 16  1  0
 17  8  1  0
 18 16  1  0
 19 18  2  0
 20 14  2  0
 21 20  1  0
 23 22  1  0
 24 23  1  6
 24 25  1  0
 25 18  1  0
 26 27  1  0
 26 24  1  0
 28 26  2  0
M  END
$$$$
