QYS.pdb
     RDKit          3D

 28 28  0  0  1  0  0  0  0  0999 V2000
    6.9737  -12.6893   17.3299 N   0  0  0  0  0  0  0  0  0  0  0  0
    7.5842  -14.0003   17.4532 C   0  0  0  0  0  0  0  0  0  0  0  0
    6.8502  -14.9625   17.1726 O   0  0  0  0  0  0  0  0  0  0  0  0
    8.9769  -14.1153   17.8878 C   0  0  0  0  0  0  0  0  0  0  0  0
    9.1520  -14.0631   19.3524 C   0  0  0  0  0  0  0  0  0  0  0  0
    8.8863  -15.2910   20.1378 C   0  0  2  0  0  0  0  0  0  0  0  0
    7.5792  -15.8270   20.1309 N   0  0  0  0  0  0  0  0  0  0  0  0
    9.3955  -15.0221   21.5354 C   0  0  0  0  0  0  0  0  0  0  0  0
   10.5780  -14.6129   21.7062 O   0  0  0  0  0  0  0  0  0  0  0  0
   10.2870  -14.9450   30.3501 O   0  0  0  0  0  0  0  0  0  0  0  0
    9.7978  -14.8407   29.0500 C   0  0  0  0  0  0  0  0  0  0  0  0
    9.7969  -13.6639   28.3468 C   0  0  0  0  0  0  0  0  0  0  0  0
    9.3024  -13.6064   27.0609 C   0  0  0  0  0  0  0  0  0  0  0  0
    8.7875  -14.7145   26.4184 C   0  0  0  0  0  0  0  0  0  0  0  0
    8.2458  -14.6857   25.0480 C   0  0  0  0  0  0  0  0  0  0  0  0
    9.2329  -15.1218   23.9907 C   0  0  2  0  0  0  0  0  0  0  0  0
    8.5891  -15.2136   22.6831 N   0  0  0  0  0  0  0  0  0  0  0  0
    9.8578  -16.4333   24.2678 C   0  0  0  0  0  0  0  0  0  0  0  0
    9.1637  -17.4682   24.1017 O   0  0  0  0  0  0  0  0  0  0  0  0
    8.8072  -15.8935   27.1700 C   0  0  0  0  0  0  0  0  0  0  0  0
    9.2967  -15.9602   28.4484 C   0  0  0  0  0  0  0  0  0  0  0  0
   13.5334  -19.3128   24.3492 O   0  0  0  0  0  0  0  0  0  0  0  0
   12.9205  -18.1123   23.9839 C   0  0  0  0  0  0  0  0  0  0  0  0
   11.7423  -17.8605   24.9021 C   0  0  2  0  0  0  0  0  0  0  0  0
   11.1938  -16.5493   24.7075 N   0  0  0  0  0  0  0  0  0  0  0  0
   12.2362  -17.9695   26.2940 C   0  0  0  0  0  0  0  0  0  0  0  0
   12.7645  -19.1770   26.7545 O   0  0  0  0  0  0  0  0  0  0  0  0
   12.1853  -16.9885   27.0650 O   0  0  0  0  0  0  0  0  0  0  0  0
  2  1  1  0
  2  3  2  0
  4  5  1  0
  4  2  1  0
  5  6  1  0
  6  8  1  0
  6  7  1  1
  8  9  2  0
 10 11  1  0
 11 21  2  0
 11 12  1  0
 12 13  2  0
 13 14  1  0
 14 15  1  0
 16 15  1  1
 17 16  1  0
 17  8  1  0
 18 16  1  0
 19 18  2  0
 20 14  2  0
 21 20  1  0
 23 22  1  0
 24 23  1  6
 24 25  1  0
 25 18  1  0
 26 27  1  0
 26 24  1  0
 28 26  2  0
M  END
$$$$
