QYS.pdb
     RDKit          3D

 28 28  0  0  1  0  0  0  0  0999 V2000
   13.8457  -22.0101   19.7480 N   0  0  0  0  0  0  0  0  0  0  0  0
   12.7649  -21.4067   18.9900 C   0  0  0  0  0  0  0  0  0  0  0  0
   12.3569  -22.0662   18.0194 O   0  0  0  0  0  0  0  0  0  0  0  0
   12.2358  -20.1026   19.3913 C   0  0  0  0  0  0  0  0  0  0  0  0
   12.9350  -19.5034   20.5448 C   0  0  0  0  0  0  0  0  0  0  0  0
   14.1788  -18.7384   20.2948 C   0  0  2  0  0  0  0  0  0  0  0  0
   15.1787  -19.3219   19.4850 N   0  0  0  0  0  0  0  0  0  0  0  0
   14.7015  -18.3189   21.6497 C   0  0  0  0  0  0  0  0  0  0  0  0
   14.0304  -17.5222   22.3636 O   0  0  0  0  0  0  0  0  0  0  0  0
   11.4181  -21.8465   25.8830 O   0  0  0  0  0  0  0  0  0  0  0  0
   12.6427  -21.3103   25.4917 C   0  0  0  0  0  0  0  0  0  0  0  0
   13.2803  -21.6761   24.3345 C   0  0  0  0  0  0  0  0  0  0  0  0
   14.4925  -21.1191   23.9860 C   0  0  0  0  0  0  0  0  0  0  0  0
   15.1237  -20.1754   24.7715 C   0  0  0  0  0  0  0  0  0  0  0  0
   16.4216  -19.5656   24.4313 C   0  0  0  0  0  0  0  0  0  0  0  0
   16.3145  -18.3732   23.5098 C   0  0  2  0  0  0  0  0  0  0  0  0
   15.9347  -18.7887   22.1622 N   0  0  0  0  0  0  0  0  0  0  0  0
   17.5687  -17.5977   23.3953 C   0  0  0  0  0  0  0  0  0  0  0  0
   18.2142  -17.3548   24.4464 O   0  0  0  0  0  0  0  0  0  0  0  0
   14.4404  -19.8305   25.9418 C   0  0  0  0  0  0  0  0  0  0  0  0
   13.2354  -20.3787   26.2962 C   0  0  0  0  0  0  0  0  0  0  0  0
   21.5712  -16.3827   21.5943 O   0  0  0  0  0  0  0  0  0  0  0  0
   20.3964  -17.1300   21.4856 C   0  0  0  0  0  0  0  0  0  0  0  0
   19.2616  -16.3620   22.1314 C   0  0  2  0  0  0  0  0  0  0  0  0
   18.0509  -17.1312   22.1538 N   0  0  0  0  0  0  0  0  0  0  0  0
   19.0374  -15.1422   21.3221 C   0  0  0  0  0  0  0  0  0  0  0  0
   19.6453  -13.9400   21.6886 O   0  0  0  0  0  0  0  0  0  0  0  0
   18.3068  -15.1766   20.3100 O   0  0  0  0  0  0  0  0  0  0  0  0
  2  1  1  0
  2  3  2  0
  4  5  1  0
  4  2  1  0
  5  6  1  0
  6  8  1  0
  6  7  1  1
  8  9  2  0
 10 11  1  0
 11 21  2  0
 11 12  1  0
 12 13  2  0
 13 14  1  0
 14 15  1  0
 16 15  1  1
 17 16  1  0
 17  8  1  0
 18 16  1  0
 19 18  2  0
 20 14  2  0
 21 20  1  0
 23 22  1  0
 24 23  1  6
 24 25  1  0
 25 18  1  0
 26 27  1  0
 26 24  1  0
 28 26  2  0
M  END
$$$$
