LCA.pdb
     RDKit          3D

 20 19  0  0  1  0  0  0  0  0999 V2000
   20.7534  -20.5867  -18.2046 C   0  0  0  0  0  0  0  0  0  0  0  0
   22.1450  -20.3446  -17.7392 C   0  0  1  0  0  0  0  0  0  0  0  0
   23.0083  -19.9040  -18.9057 C   0  0  0  0  0  0  0  0  0  0  0  0
   22.2012  -19.3743  -16.5957 C   0  0  0  0  0  0  0  0  0  0  0  0
   23.6120  -18.9928  -16.3219 C   0  0  2  0  0  0  0  0  0  0  0  0
   24.3287  -19.9522  -15.5167 N   0  0  0  0  0  0  0  0  0  0  0  0
   23.6993  -17.6195  -15.7177 C   0  0  0  0  0  0  0  0  0  0  0  0
   23.1722  -17.3740  -14.5954 O   0  0  0  0  0  0  0  0  0  0  0  0
   24.3570  -16.5703  -16.3619 N   0  0  0  0  0  0  0  0  0  0  0  0
   24.5015  -15.2573  -15.7654 C   0  0  1  0  0  0  0  0  0  0  0  0
   25.9240  -14.8533  -15.5584 C   0  0  0  0  0  0  0  0  0  0  0  0
   26.6731  -16.0299  -14.3943 S   0  0  0  0  0  0  0  0  0  0  0  0
   23.7611  -14.2234  -16.5687 C   0  0  0  0  0  0  0  0  0  0  0  0
   24.1093  -14.0461  -17.7513 O   0  0  0  0  0  0  0  0  0  0  0  0
   20.7607  -12.1073  -15.7715 C   0  0  0  0  0  0  0  0  0  0  0  0
   21.8605  -12.5301  -16.6986 C   0  0  2  0  0  0  0  0  0  0  0  0
   22.7101  -13.4745  -16.0191 N   0  0  0  0  0  0  0  0  0  0  0  0
   22.5761  -11.4011  -17.3397 C   0  0  0  0  0  0  0  0  0  0  0  0
   22.0648  -10.7945  -18.4830 O   0  0  0  0  0  0  0  0  0  0  0  0
   23.6458  -10.9565  -16.8894 O   0  0  0  0  0  0  0  0  0  0  0  0
  2  4  1  0
  2  1  1  6
  3  2  1  0
  4  5  1  0
  5  7  1  0
  5  6  1  1
  7  8  2  0
  9 10  1  0
  9  7  1  0
 10 13  1  0
 11 12  1  0
 10 11  1  6
 13 14  2  0
 16 15  1  1
 16 18  1  0
 17 13  1  0
 17 16  1  0
 18 20  2  0
 18 19  1  0
M  END
$$$$
