LCA.pdb
     RDKit          3D

 20 19  0  0  1  0  0  0  0  0999 V2000
   18.8000  -12.3760  -16.6348 C   0  0  0  0  0  0  0  0  0  0  0  0
   19.9815  -11.4738  -16.6752 C   0  0  1  0  0  0  0  0  0  0  0  0
   20.0145  -10.7281  -17.9954 C   0  0  0  0  0  0  0  0  0  0  0  0
   20.0267  -10.5431  -15.4988 C   0  0  0  0  0  0  0  0  0  0  0  0
   21.2035   -9.6410  -15.6093 C   0  0  2  0  0  0  0  0  0  0  0  0
   22.4519  -10.2652  -15.2430 N   0  0  0  0  0  0  0  0  0  0  0  0
   20.9942   -8.3721  -14.8317 C   0  0  0  0  0  0  0  0  0  0  0  0
   20.5618   -8.4070  -13.6445 O   0  0  0  0  0  0  0  0  0  0  0  0
   21.2643   -7.1174  -15.3804 N   0  0  0  0  0  0  0  0  0  0  0  0
   21.1722   -5.8932  -14.6098 C   0  0  1  0  0  0  0  0  0  0  0  0
   22.5018   -5.3034  -14.2725 C   0  0  0  0  0  0  0  0  0  0  0  0
   22.2107   -3.7681  -13.3457 S   0  0  0  0  0  0  0  0  0  0  0  0
   20.3009   -4.8874  -15.3109 C   0  0  0  0  0  0  0  0  0  0  0  0
   20.6311   -4.5300  -16.4574 O   0  0  0  0  0  0  0  0  0  0  0  0
   16.9028   -3.5394  -14.6168 C   0  0  0  0  0  0  0  0  0  0  0  0
   18.2508   -3.3740  -15.2518 C   0  0  2  0  0  0  0  0  0  0  0  0
   19.1502   -4.3589  -14.7074 N   0  0  0  0  0  0  0  0  0  0  0  0
   18.7635   -1.9833  -15.2249 C   0  0  0  0  0  0  0  0  0  0  0  0
   18.5217   -1.1172  -16.2868 O   0  0  0  0  0  0  0  0  0  0  0  0
   19.4204   -1.5403  -14.2673 O   0  0  0  0  0  0  0  0  0  0  0  0
  2  4  1  0
  2  1  1  1
  3  2  1  0
  4  5  1  0
  5  7  1  0
  5  6  1  1
  7  8  2  0
  9 10  1  0
  9  7  1  0
 10 13  1  0
 11 12  1  0
 10 11  1  6
 13 14  2  0
 16 15  1  1
 16 18  1  0
 17 13  1  0
 17 16  1  0
 18 20  2  0
 18 19  1  0
M  END
$$$$
