LCA.pdb
     RDKit          3D

 20 19  0  0  1  0  0  0  0  0999 V2000
   16.1901  -14.6090  -17.4934 C   0  0  0  0  0  0  0  0  0  0  0  0
   16.8297  -13.2734  -17.6296 C   0  0  1  0  0  0  0  0  0  0  0  0
   16.4070  -12.6314  -18.9370 C   0  0  0  0  0  0  0  0  0  0  0  0
   16.5538  -12.3880  -16.4497 C   0  0  0  0  0  0  0  0  0  0  0  0
   17.2244  -11.0737  -16.6326 C   0  0  2  0  0  0  0  0  0  0  0  0
   18.6622  -11.1608  -16.7187 N   0  0  0  0  0  0  0  0  0  0  0  0
   16.8129  -10.0972  -15.5670 C   0  0  0  0  0  0  0  0  0  0  0  0
   15.5986   -9.9757  -15.2377 O   0  0  0  0  0  0  0  0  0  0  0  0
   17.7417   -9.2930  -14.9045 N   0  0  0  0  0  0  0  0  0  0  0  0
   17.3553   -8.3153  -13.9066 C   0  0  1  0  0  0  0  0  0  0  0  0
   18.3803   -8.1213  -12.8384 C   0  0  0  0  0  0  0  0  0  0  0  0
   18.2558   -9.5210  -11.6868 S   0  0  0  0  0  0  0  0  0  0  0  0
   17.0005   -7.0051  -14.5547 C   0  0  0  0  0  0  0  0  0  0  0  0
   17.7774   -6.5530  -15.4168 O   0  0  0  0  0  0  0  0  0  0  0  0
   13.9221   -4.8822  -14.4339 C   0  0  0  0  0  0  0  0  0  0  0  0
   15.3762   -5.0515  -14.7577 C   0  0  2  0  0  0  0  0  0  0  0  0
   15.8363   -6.3023  -14.2109 N   0  0  0  0  0  0  0  0  0  0  0  0
   16.2120   -3.8775  -14.4101 C   0  0  0  0  0  0  0  0  0  0  0  0
   17.1546   -3.9546  -13.3894 O   0  0  0  0  0  0  0  0  0  0  0  0
   16.1070   -2.7924  -15.0071 O   0  0  0  0  0  0  0  0  0  0  0  0
  2  4  1  0
  2  1  1  1
  3  2  1  0
  4  5  1  0
  5  7  1  0
  5  6  1  1
  7  8  2  0
  9 10  1  0
  9  7  1  0
 10 13  1  0
 11 12  1  0
 10 11  1  1
 13 14  2  0
 16 15  1  1
 16 18  1  0
 17 13  1  0
 17 16  1  0
 18 20  2  0
 18 19  1  0
M  END
$$$$
