LCA.pdb
     RDKit          3D

 20 19  0  0  1  0  0  0  0  0999 V2000
   27.2848  -17.5122  -17.2519 C   0  0  0  0  0  0  0  0  0  0  0  0
   27.7704  -18.4382  -16.1944 C   0  0  1  0  0  0  0  0  0  0  0  0
   28.2648  -17.6428  -15.0015 C   0  0  0  0  0  0  0  0  0  0  0  0
   26.7343  -19.4526  -15.8075 C   0  0  0  0  0  0  0  0  0  0  0  0
   27.2463  -20.3063  -14.7030 C   0  0  2  0  0  0  0  0  0  0  0  0
   28.1568  -21.3376  -15.1386 N   0  0  0  0  0  0  0  0  0  0  0  0
   26.1204  -20.8942  -13.8999 C   0  0  0  0  0  0  0  0  0  0  0  0
   25.4583  -21.8767  -14.3404 O   0  0  0  0  0  0  0  0  0  0  0  0
   25.7622  -20.3868  -12.6498 N   0  0  0  0  0  0  0  0  0  0  0  0
   24.6730  -20.9372  -11.8679 C   0  0  1  0  0  0  0  0  0  0  0  0
   24.8030  -20.6759  -10.4036 C   0  0  0  0  0  0  0  0  0  0  0  0
   26.4119  -21.3240   -9.8632 S   0  0  0  0  0  0  0  0  0  0  0  0
   23.3473  -20.4494  -12.3848 C   0  0  0  0  0  0  0  0  0  0  0  0
   23.1043  -19.2305  -12.3050 O   0  0  0  0  0  0  0  0  0  0  0  0
   20.6864  -22.0040  -14.4649 C   0  0  0  0  0  0  0  0  0  0  0  0
   21.0870  -20.9998  -13.4262 C   0  0  2  0  0  0  0  0  0  0  0  0
   22.4039  -21.3256  -12.9416 N   0  0  0  0  0  0  0  0  0  0  0  0
   20.0708  -20.7891  -12.3676 C   0  0  0  0  0  0  0  0  0  0  0  0
   20.2220  -21.3712  -11.1128 O   0  0  0  0  0  0  0  0  0  0  0  0
   19.0573  -20.0943  -12.5544 O   0  0  0  0  0  0  0  0  0  0  0  0
  2  4  1  0
  2  1  1  6
  3  2  1  0
  4  5  1  0
  5  7  1  0
  5  6  1  6
  7  8  2  0
  9 10  1  0
  9  7  1  0
 10 13  1  0
 11 12  1  0
 10 11  1  1
 13 14  2  0
 16 15  1  6
 16 18  1  0
 17 13  1  0
 17 16  1  0
 18 20  2  0
 18 19  1  0
M  END
$$$$
