LCA.pdb
     RDKit          3D

 20 19  0  0  1  0  0  0  0  0999 V2000
   26.0550  -34.0352  -12.6377 C   0  0  0  0  0  0  0  0  0  0  0  0
   24.9459  -33.9503  -11.6506 C   0  0  1  0  0  0  0  0  0  0  0  0
   24.6804  -35.3201  -11.0561 C   0  0  0  0  0  0  0  0  0  0  0  0
   25.2029  -32.9156  -10.5945 C   0  0  0  0  0  0  0  0  0  0  0  0
   24.0741  -32.8856   -9.6271 C   0  0  2  0  0  0  0  0  0  0  0  0
   22.9307  -32.1367  -10.0897 N   0  0  0  0  0  0  0  0  0  0  0  0
   24.5224  -32.3947   -8.2793 C   0  0  0  0  0  0  0  0  0  0  0  0
   24.2745  -31.2121   -7.9084 O   0  0  0  0  0  0  0  0  0  0  0  0
   25.2230  -33.2129   -7.3915 N   0  0  0  0  0  0  0  0  0  0  0  0
   25.5707  -32.7894   -6.0497 C   0  0  1  0  0  0  0  0  0  0  0  0
   24.3896  -32.3841   -5.2310 C   0  0  0  0  0  0  0  0  0  0  0  0
   23.1926  -33.7504   -5.2663 S   0  0  0  0  0  0  0  0  0  0  0  0
   26.3720  -33.8511   -5.3474 C   0  0  0  0  0  0  0  0  0  0  0  0
   25.9117  -35.0081   -5.3246 O   0  0  0  0  0  0  0  0  0  0  0  0
   29.7181  -33.7789   -3.6384 C   0  0  0  0  0  0  0  0  0  0  0  0
   28.4230  -34.4612   -3.9627 C   0  0  2  0  0  0  0  0  0  0  0  0
   27.5999  -33.5643   -4.7329 N   0  0  0  0  0  0  0  0  0  0  0  0
   27.7503  -35.0673   -2.7889 C   0  0  0  0  0  0  0  0  0  0  0  0
   28.2284  -36.2477   -2.2281 O   0  0  0  0  0  0  0  0  0  0  0  0
   26.7469  -34.5540   -2.2652 O   0  0  0  0  0  0  0  0  0  0  0  0
  2  4  1  0
  2  1  1  6
  3  2  1  0
  4  5  1  0
  5  7  1  0
  5  6  1  6
  7  8  2  0
  9 10  1  0
  9  7  1  0
 10 13  1  0
 11 12  1  0
 10 11  1  1
 13 14  2  0
 16 15  1  1
 16 18  1  0
 17 13  1  0
 17 16  1  0
 18 20  2  0
 18 19  1  0
M  END
$$$$
