LCA.pdb
     RDKit          3D

 20 19  0  0  1  0  0  0  0  0999 V2000
   15.2299  -14.2217  -17.7668 C   0  0  0  0  0  0  0  0  0  0  0  0
   16.7002  -14.0699  -17.9301 C   0  0  1  0  0  0  0  0  0  0  0  0
   17.0018  -13.3499  -19.2304 C   0  0  0  0  0  0  0  0  0  0  0  0
   17.3367  -13.3962  -16.7497 C   0  0  0  0  0  0  0  0  0  0  0  0
   18.7951  -13.2284  -16.9858 C   0  0  2  0  0  0  0  0  0  0  0  0
   19.5485  -14.4536  -16.8688 N   0  0  0  0  0  0  0  0  0  0  0  0
   19.3729  -12.1613  -16.0993 C   0  0  0  0  0  0  0  0  0  0  0  0
   19.5305  -12.3661  -14.8620 O   0  0  0  0  0  0  0  0  0  0  0  0
   19.7546  -10.9146  -16.5978 N   0  0  0  0  0  0  0  0  0  0  0  0
   20.3391   -9.8858  -15.7607 C   0  0  1  0  0  0  0  0  0  0  0  0
   21.6678   -9.4092  -16.2475 C   0  0  0  0  0  0  0  0  0  0  0  0
   22.2483   -8.1194  -15.1072 S   0  0  0  0  0  0  0  0  0  0  0  0
   19.3860   -8.7350  -15.5882 C   0  0  0  0  0  0  0  0  0  0  0  0
   18.9965   -8.1433  -16.6126 O   0  0  0  0  0  0  0  0  0  0  0  0
   17.6313   -7.3401  -12.5783 C   0  0  0  0  0  0  0  0  0  0  0  0
   18.0410   -7.2452  -14.0174 C   0  0  2  0  0  0  0  0  0  0  0  0
   18.9405   -8.3285  -14.3218 N   0  0  0  0  0  0  0  0  0  0  0  0
   18.5272   -5.9035  -14.4187 C   0  0  0  0  0  0  0  0  0  0  0  0
   17.6293   -4.8905  -14.7412 O   0  0  0  0  0  0  0  0  0  0  0  0
   19.7384   -5.6321  -14.4826 O   0  0  0  0  0  0  0  0  0  0  0  0
  2  4  1  0
  2  1  1  1
  3  2  1  0
  4  5  1  0
  5  7  1  0
  5  6  1  1
  7  8  2  0
  9 10  1  0
  9  7  1  0
 10 13  1  0
 11 12  1  0
 10 11  1  6
 13 14  2  0
 16 15  1  1
 16 18  1  0
 17 13  1  0
 17 16  1  0
 18 20  2  0
 18 19  1  0
M  END
$$$$
