LCA.pdb
     RDKit          3D

 20 19  0  0  1  0  0  0  0  0999 V2000
   25.3958  -13.6298  -15.0781 C   0  0  0  0  0  0  0  0  0  0  0  0
   24.0976  -13.5505  -15.7991 C   0  0  1  0  0  0  0  0  0  0  0  0
   22.9990  -14.1594  -14.9492 C   0  0  0  0  0  0  0  0  0  0  0  0
   23.7702  -12.1501  -16.2281 C   0  0  0  0  0  0  0  0  0  0  0  0
   22.4581  -12.1263  -16.9271 C   0  0  2  0  0  0  0  0  0  0  0  0
   22.4221  -12.9300  -18.1251 N   0  0  0  0  0  0  0  0  0  0  0  0
   22.0188  -10.7186  -17.2168 C   0  0  0  0  0  0  0  0  0  0  0  0
   22.6076  -10.0272  -18.0959 O   0  0  0  0  0  0  0  0  0  0  0  0
   20.9561  -10.1224  -16.5359 N   0  0  0  0  0  0  0  0  0  0  0  0
   20.5189   -8.7672  -16.8065 C   0  0  1  0  0  0  0  0  0  0  0  0
   19.0695   -8.6694  -17.1517 C   0  0  0  0  0  0  0  0  0  0  0  0
   18.7521   -9.7919  -18.5446 S   0  0  0  0  0  0  0  0  0  0  0  0
   20.8596   -7.8587  -15.6572 C   0  0  0  0  0  0  0  0  0  0  0  0
   20.5137   -8.2115  -14.5139 O   0  0  0  0  0  0  0  0  0  0  0  0
   22.8666   -4.6903  -15.4706 C   0  0  0  0  0  0  0  0  0  0  0  0
   21.9819   -5.7221  -14.8377 C   0  0  2  0  0  0  0  0  0  0  0  0
   21.5443   -6.6496  -15.8493 N   0  0  0  0  0  0  0  0  0  0  0  0
   20.8952   -5.1550  -14.0039 C   0  0  0  0  0  0  0  0  0  0  0  0
   21.1355   -4.7762  -12.6866 O   0  0  0  0  0  0  0  0  0  0  0  0
   19.7423   -4.9968  -14.4403 O   0  0  0  0  0  0  0  0  0  0  0  0
  2  4  1  0
  2  1  1  1
  3  2  1  0
  4  5  1  0
  5  7  1  0
  5  6  1  6
  7  8  2  0
  9 10  1  0
  9  7  1  0
 10 13  1  0
 11 12  1  0
 10 11  1  1
 13 14  2  0
 16 15  1  6
 16 18  1  0
 17 13  1  0
 17 16  1  0
 18 20  2  0
 18 19  1  0
M  END
$$$$
