LCA.pdb
     RDKit          3D

 20 19  0  0  1  0  0  0  0  0999 V2000
   18.1477  -11.8014  -17.6359 C   0  0  0  0  0  0  0  0  0  0  0  0
   19.2239  -10.8157  -17.9216 C   0  0  1  0  0  0  0  0  0  0  0  0
   19.0836  -10.2976  -19.3401 C   0  0  0  0  0  0  0  0  0  0  0  0
   19.2585   -9.7039  -16.9143 C   0  0  0  0  0  0  0  0  0  0  0  0
   20.3505   -8.7510  -17.2464 C   0  0  2  0  0  0  0  0  0  0  0  0
   21.6644   -9.3477  -17.2447 N   0  0  0  0  0  0  0  0  0  0  0  0
   20.3129   -7.5436  -16.3523 C   0  0  0  0  0  0  0  0  0  0  0  0
   19.2256   -6.9379  -16.1319 O   0  0  0  0  0  0  0  0  0  0  0  0
   21.4620   -7.0458  -15.7358 N   0  0  0  0  0  0  0  0  0  0  0  0
   21.4400   -5.8875  -14.8647 C   0  0  1  0  0  0  0  0  0  0  0  0
   22.3157   -6.0318  -13.6640 C   0  0  0  0  0  0  0  0  0  0  0  0
   22.2874   -4.4551  -12.7618 S   0  0  0  0  0  0  0  0  0  0  0  0
   21.7808   -4.6389  -15.6310 C   0  0  0  0  0  0  0  0  0  0  0  0
   22.8800   -4.5962  -16.2151 O   0  0  0  0  0  0  0  0  0  0  0  0
   20.2892   -2.3813  -17.6943 C   0  0  0  0  0  0  0  0  0  0  0  0
   21.0833   -2.3192  -16.4241 C   0  0  2  0  0  0  0  0  0  0  0  0
   20.9006   -3.5486  -15.6958 N   0  0  0  0  0  0  0  0  0  0  0  0
   20.8559   -1.0881  -15.6303 C   0  0  0  0  0  0  0  0  0  0  0  0
   21.4273    0.1207  -16.0160 O   0  0  0  0  0  0  0  0  0  0  0  0
   20.1560   -1.0847  -14.6031 O   0  0  0  0  0  0  0  0  0  0  0  0
  2  4  1  0
  2  1  1  1
  3  2  1  0
  4  5  1  0
  5  7  1  0
  5  6  1  1
  7  8  2  0
  9 10  1  0
  9  7  1  0
 10 13  1  0
 11 12  1  0
 10 11  1  1
 13 14  2  0
 16 15  1  6
 16 18  1  0
 17 13  1  0
 17 16  1  0
 18 20  2  0
 18 19  1  0
M  END
$$$$
