LCA.pdb
     RDKit          3D

 20 19  0  0  1  0  0  0  0  0999 V2000
   26.6255  -20.3321   -7.9866 C   0  0  0  0  0  0  0  0  0  0  0  0
   25.7918  -20.9156   -9.0710 C   0  0  1  0  0  0  0  0  0  0  0  0
   24.3396  -20.9599   -8.6362 C   0  0  0  0  0  0  0  0  0  0  0  0
   25.9700  -20.1950  -10.3753 C   0  0  0  0  0  0  0  0  0  0  0  0
   25.1687  -20.8596  -11.4368 C   0  0  2  0  0  0  0  0  0  0  0  0
   25.5081  -22.2474  -11.6394 N   0  0  0  0  0  0  0  0  0  0  0  0
   25.2392  -20.0996  -12.7314 C   0  0  0  0  0  0  0  0  0  0  0  0
   25.0569  -18.8491  -12.7559 O   0  0  0  0  0  0  0  0  0  0  0  0
   25.5051  -20.7340  -13.9460 N   0  0  0  0  0  0  0  0  0  0  0  0
   25.5399  -20.0204  -15.2071 C   0  0  1  0  0  0  0  0  0  0  0  0
   26.6875  -20.4118  -16.0785 C   0  0  0  0  0  0  0  0  0  0  0  0
   27.4973  -21.8503  -15.3196 S   0  0  0  0  0  0  0  0  0  0  0  0
   24.2345  -20.1697  -15.9392 C   0  0  0  0  0  0  0  0  0  0  0  0
   23.7214  -21.3035  -15.9890 O   0  0  0  0  0  0  0  0  0  0  0  0
   22.0089  -17.6768  -17.6607 C   0  0  0  0  0  0  0  0  0  0  0  0
   22.3671  -19.0855  -17.2933 C   0  0  2  0  0  0  0  0  0  0  0  0
   23.6020  -19.0777  -16.5516 N   0  0  0  0  0  0  0  0  0  0  0  0
   22.3337  -20.0330  -18.4329 C   0  0  0  0  0  0  0  0  0  0  0  0
   21.1611  -20.7061  -18.7620 O   0  0  0  0  0  0  0  0  0  0  0  0
   23.3363  -20.2617  -19.1309 O   0  0  0  0  0  0  0  0  0  0  0  0
  2  4  1  0
  2  1  1  1
  3  2  1  0
  4  5  1  0
  5  7  1  0
  5  6  1  6
  7  8  2  0
  9 10  1  0
  9  7  1  0
 10 13  1  0
 11 12  1  0
 10 11  1  6
 13 14  2  0
 16 15  1  6
 16 18  1  0
 17 13  1  0
 17 16  1  0
 18 20  2  0
 18 19  1  0
M  END
$$$$
