LCA.pdb
     RDKit          3D

 20 19  0  0  1  0  0  0  0  0999 V2000
   25.0176  -33.6284  -15.7701 C   0  0  0  0  0  0  0  0  0  0  0  0
   24.2363  -34.0031  -14.5615 C   0  0  1  0  0  0  0  0  0  0  0  0
   23.9769  -35.4974  -14.5594 C   0  0  0  0  0  0  0  0  0  0  0  0
   24.8938  -33.5415  -13.2939 C   0  0  0  0  0  0  0  0  0  0  0  0
   24.0630  -33.9246  -12.1218 C   0  0  2  0  0  0  0  0  0  0  0  0
   22.8736  -33.1228  -11.9643 N   0  0  0  0  0  0  0  0  0  0  0  0
   24.8732  -33.9298  -10.8561 C   0  0  0  0  0  0  0  0  0  0  0  0
   26.0175  -34.4658  -10.8250 O   0  0  0  0  0  0  0  0  0  0  0  0
   24.4026  -33.3511   -9.6762 N   0  0  0  0  0  0  0  0  0  0  0  0
   25.1473  -33.3982   -8.4336 C   0  0  1  0  0  0  0  0  0  0  0  0
   25.4859  -32.0480   -7.8936 C   0  0  0  0  0  0  0  0  0  0  0  0
   23.9304  -31.1453   -7.6362 S   0  0  0  0  0  0  0  0  0  0  0  0
   24.4172  -34.2197   -7.4066 C   0  0  0  0  0  0  0  0  0  0  0  0
   23.1724  -34.1800   -7.4072 O   0  0  0  0  0  0  0  0  0  0  0  0
   25.6088  -36.7100   -4.8638 C   0  0  0  0  0  0  0  0  0  0  0  0
   24.5277  -35.8565   -5.4560 C   0  0  2  0  0  0  0  0  0  0  0  0
   25.1009  -35.0102   -6.4711 N   0  0  0  0  0  0  0  0  0  0  0  0
   23.7011  -35.1468   -4.4506 C   0  0  0  0  0  0  0  0  0  0  0  0
   22.7518  -35.8337   -3.6999 O   0  0  0  0  0  0  0  0  0  0  0  0
   23.8200  -33.9277   -4.2399 O   0  0  0  0  0  0  0  0  0  0  0  0
  2  4  1  0
  2  1  1  6
  3  2  1  0
  4  5  1  0
  5  7  1  0
  5  6  1  1
  7  8  2  0
  9 10  1  0
  9  7  1  0
 10 13  1  0
 11 12  1  0
 10 11  1  1
 13 14  2  0
 16 15  1  1
 16 18  1  0
 17 13  1  0
 17 16  1  0
 18 20  2  0
 18 19  1  0
M  END
$$$$
