LCA.pdb
     RDKit          3D

 20 19  0  0  1  0  0  0  0  0999 V2000
   27.1227  -17.2777  -17.0138 C   0  0  0  0  0  0  0  0  0  0  0  0
   27.7079  -18.1246  -15.9405 C   0  0  1  0  0  0  0  0  0  0  0  0
   28.2499  -17.2457  -14.8297 C   0  0  0  0  0  0  0  0  0  0  0  0
   26.7354  -19.1468  -15.4292 C   0  0  0  0  0  0  0  0  0  0  0  0
   27.3630  -19.9477  -14.3450 C   0  0  2  0  0  0  0  0  0  0  0  0
   28.4847  -20.7428  -14.7832 N   0  0  0  0  0  0  0  0  0  0  0  0
   26.3479  -20.8022  -13.6393 C   0  0  0  0  0  0  0  0  0  0  0  0
   25.9459  -21.8843  -14.1542 O   0  0  0  0  0  0  0  0  0  0  0  0
   25.8125  -20.4418  -12.4016 N   0  0  0  0  0  0  0  0  0  0  0  0
   24.7354  -21.1805  -11.7732 C   0  0  1  0  0  0  0  0  0  0  0  0
   24.7360  -21.0776  -10.2836 C   0  0  0  0  0  0  0  0  0  0  0  0
   26.3062  -20.3159   -9.7789 S   0  0  0  0  0  0  0  0  0  0  0  0
   23.4049  -20.7664  -12.3395 C   0  0  0  0  0  0  0  0  0  0  0  0
   23.1732  -19.5476  -12.4500 O   0  0  0  0  0  0  0  0  0  0  0  0
   20.8520  -22.5867  -14.2921 C   0  0  0  0  0  0  0  0  0  0  0  0
   21.1752  -21.4529  -13.3659 C   0  0  2  0  0  0  0  0  0  0  0  0
   22.4448  -21.7093  -12.7353 N   0  0  0  0  0  0  0  0  0  0  0  0
   20.0775  -21.1054  -12.4322 C   0  0  0  0  0  0  0  0  0  0  0  0
   18.9466  -20.4331  -12.8853 O   0  0  0  0  0  0  0  0  0  0  0  0
   20.1212  -21.3959  -11.2245 O   0  0  0  0  0  0  0  0  0  0  0  0
  2  4  1  0
  2  1  1  6
  3  2  1  0
  4  5  1  0
  5  7  1  0
  5  6  1  6
  7  8  2  0
  9 10  1  0
  9  7  1  0
 10 13  1  0
 11 12  1  0
 10 11  1  1
 13 14  2  0
 16 15  1  1
 16 18  1  0
 17 13  1  0
 17 16  1  0
 18 20  2  0
 18 19  1  0
M  END
$$$$
