YGE.pdb
     RDKit          3D

 26 26  0  0  1  0  0  0  0  0999 V2000
    8.7911  -12.9430   17.1698 O   0  0  0  0  0  0  0  0  0  0  0  0
    8.4310  -13.1447   18.5034 C   0  0  0  0  0  0  0  0  0  0  0  0
    7.1055  -13.2634   18.8622 C   0  0  0  0  0  0  0  0  0  0  0  0
    6.7832  -13.4610   20.1799 C   0  0  0  0  0  0  0  0  0  0  0  0
    7.7334  -13.5511   21.2004 C   0  0  0  0  0  0  0  0  0  0  0  0
    7.3222  -13.7653   22.6101 C   0  0  0  0  0  0  0  0  0  0  0  0
    7.4458  -15.2305   22.9997 C   0  0  2  0  0  0  0  0  0  0  0  0
    6.4523  -15.9530   22.2552 N   0  0  0  0  0  0  0  0  0  0  0  0
    7.2615  -15.3814   24.4766 C   0  0  0  0  0  0  0  0  0  0  0  0
    6.7931  -14.4758   25.2017 O   0  0  0  0  0  0  0  0  0  0  0  0
    9.0513  -13.4290   20.8146 C   0  0  0  0  0  0  0  0  0  0  0  0
    9.3910  -13.2304   19.4961 C   0  0  0  0  0  0  0  0  0  0  0  0
    7.6267  -16.5935   25.0966 N   0  0  0  0  0  0  0  0  0  0  0  0
    6.6858  -17.5339   25.6526 C   0  0  0  0  0  0  0  0  0  0  0  0
    7.3834  -18.6438   26.3776 C   0  0  0  0  0  0  0  0  0  0  0  0
    7.1293  -19.8281   26.0342 O   0  0  0  0  0  0  0  0  0  0  0  0
    8.3008  -18.4213   27.4154 N   0  0  0  0  0  0  0  0  0  0  0  0
    9.6776  -18.9237   27.3928 C   0  0  1  0  0  0  0  0  0  0  0  0
   10.3141  -18.7313   26.0750 C   0  0  0  0  0  0  0  0  0  0  0  0
   11.6811  -19.2945   25.9801 C   0  0  0  0  0  0  0  0  0  0  0  0
   12.4632  -19.1199   24.7806 C   0  0  0  0  0  0  0  0  0  0  0  0
   12.7281  -18.0646   24.2268 O   0  0  0  0  0  0  0  0  0  0  0  0
   10.4160  -18.5252   28.5818 C   0  0  0  0  0  0  0  0  0  0  0  0
   10.4822  -17.1889   29.0008 O   0  0  0  0  0  0  0  0  0  0  0  0
   12.9946  -20.2783   24.1543 O   0  0  0  0  0  0  0  0  0  0  0  0
   11.0482  -19.3626   29.3179 O   0  0  0  0  0  0  0  0  0  0  0  0
  1  2  1  0
  2  3  2  0
  3  4  1  0
  5  4  2  0
  5  6  1  0
  6  7  1  0
  7  9  1  0
  7  8  1  6
  9 13  1  0
 10  9  2  0
 11  5  1  0
 12  2  1  0
 12 11  2  0
 13 14  1  0
 15 17  1  0
 15 14  1  0
 16 15  2  0
 18 17  1  0
 18 23  1  0
 18 19  1  6
 20 19  1  0
 21 20  1  0
 22 21  2  0
 23 24  1  0
 25 21  1  0
 26 23  2  0
M  END
$$$$
