YGE.pdb
     RDKit          3D

 26 26  0  0  1  0  0  0  0  0999 V2000
   14.5445  -23.8682   15.4880 O   0  0  0  0  0  0  0  0  0  0  0  0
   13.8781  -23.1964   16.5145 C   0  0  0  0  0  0  0  0  0  0  0  0
   12.8175  -22.3619   16.2342 C   0  0  0  0  0  0  0  0  0  0  0  0
   12.1831  -21.7159   17.2635 C   0  0  0  0  0  0  0  0  0  0  0  0
   12.5524  -21.8541   18.6040 C   0  0  0  0  0  0  0  0  0  0  0  0
   11.8265  -21.1272   19.6750 C   0  0  0  0  0  0  0  0  0  0  0  0
   11.1291  -22.0957   20.6180 C   0  0  2  0  0  0  0  0  0  0  0  0
   10.1721  -22.8315   19.8395 N   0  0  0  0  0  0  0  0  0  0  0  0
   10.4827  -21.3405   21.7360 C   0  0  0  0  0  0  0  0  0  0  0  0
    9.2502  -21.1338   21.7966 O   0  0  0  0  0  0  0  0  0  0  0  0
   13.6159  -22.6941   18.8567 C   0  0  0  0  0  0  0  0  0  0  0  0
   14.2630  -23.3496   17.8346 C   0  0  0  0  0  0  0  0  0  0  0  0
   11.2839  -20.8317   22.7781 N   0  0  0  0  0  0  0  0  0  0  0  0
   10.7721  -20.0937   23.9061 C   0  0  0  0  0  0  0  0  0  0  0  0
   11.8574  -19.7675   24.8859 C   0  0  0  0  0  0  0  0  0  0  0  0
   12.9793  -20.3179   24.7330 O   0  0  0  0  0  0  0  0  0  0  0  0
   11.6779  -18.8816   25.9587 N   0  0  0  0  0  0  0  0  0  0  0  0
   12.7595  -18.4895   26.8671 C   0  0  1  0  0  0  0  0  0  0  0  0
   13.0994  -17.0591   26.7360 C   0  0  0  0  0  0  0  0  0  0  0  0
   13.4264  -16.6437   25.3520 C   0  0  0  0  0  0  0  0  0  0  0  0
   13.8181  -15.2845   25.0689 C   0  0  0  0  0  0  0  0  0  0  0  0
   13.8597  -14.3550   25.8594 O   0  0  0  0  0  0  0  0  0  0  0  0
   12.5654  -19.0342   28.2025 C   0  0  0  0  0  0  0  0  0  0  0  0
   13.6060  -19.0872   29.1406 O   0  0  0  0  0  0  0  0  0  0  0  0
   14.2006  -14.9619   23.7398 O   0  0  0  0  0  0  0  0  0  0  0  0
   11.4399  -19.4967   28.6053 O   0  0  0  0  0  0  0  0  0  0  0  0
  1  2  1  0
  2  3  2  0
  3  4  1  0
  5  4  2  0
  5  6  1  0
  6  7  1  0
  7  9  1  0
  7  8  1  6
  9 13  1  0
 10  9  2  0
 11  5  1  0
 12  2  1  0
 12 11  2  0
 13 14  1  0
 15 17  1  0
 15 14  1  0
 16 15  2  0
 18 17  1  0
 18 23  1  0
 18 19  1  1
 20 19  1  0
 21 20  1  0
 22 21  2  0
 23 24  1  0
 25 21  1  0
 26 23  2  0
M  END
$$$$
