YGE.pdb
     RDKit          3D

 26 26  0  0  1  0  0  0  0  0999 V2000
    7.6483  -12.8535   16.0355 O   0  0  0  0  0  0  0  0  0  0  0  0
    7.5032  -13.3406   17.3357 C   0  0  0  0  0  0  0  0  0  0  0  0
    7.2297  -14.6729   17.5596 C   0  0  0  0  0  0  0  0  0  0  0  0
    7.0926  -15.1215   18.8477 C   0  0  0  0  0  0  0  0  0  0  0  0
    7.2156  -14.2958   19.9682 C   0  0  0  0  0  0  0  0  0  0  0  0
    7.0557  -14.8405   21.3394 C   0  0  0  0  0  0  0  0  0  0  0  0
    8.3703  -14.7948   22.1032 C   0  0  2  0  0  0  0  0  0  0  0  0
    9.3717  -15.3871   21.2606 N   0  0  0  0  0  0  0  0  0  0  0  0
    8.2286  -15.5209   23.4035 C   0  0  0  0  0  0  0  0  0  0  0  0
    7.2641  -15.3460   24.1810 O   0  0  0  0  0  0  0  0  0  0  0  0
    7.4891  -12.9683   19.7165 C   0  0  0  0  0  0  0  0  0  0  0  0
    7.6295  -12.5027   18.4294 C   0  0  0  0  0  0  0  0  0  0  0  0
    9.2180  -16.4492   23.7861 N   0  0  0  0  0  0  0  0  0  0  0  0
    9.1066  -17.3282   24.9235 C   0  0  0  0  0  0  0  0  0  0  0  0
   10.3211  -18.1930   25.0691 C   0  0  0  0  0  0  0  0  0  0  0  0
   10.9303  -18.5406   24.0236 O   0  0  0  0  0  0  0  0  0  0  0  0
   10.8048  -18.6290   26.3117 N   0  0  0  0  0  0  0  0  0  0  0  0
   11.9443  -19.5396   26.4562 C   0  0  1  0  0  0  0  0  0  0  0  0
   12.4495  -19.5762   27.8426 C   0  0  0  0  0  0  0  0  0  0  0  0
   11.7370  -18.6626   28.7660 C   0  0  0  0  0  0  0  0  0  0  0  0
   12.1380  -18.5593   30.1479 C   0  0  0  0  0  0  0  0  0  0  0  0
   12.6614  -17.5977   30.6882 O   0  0  0  0  0  0  0  0  0  0  0  0
   11.7150  -20.8025   25.7707 C   0  0  0  0  0  0  0  0  0  0  0  0
   12.7611  -21.6894   25.4796 O   0  0  0  0  0  0  0  0  0  0  0  0
   11.9138  -19.6773   30.9945 O   0  0  0  0  0  0  0  0  0  0  0  0
   10.5514  -21.1839   25.3918 O   0  0  0  0  0  0  0  0  0  0  0  0
  1  2  1  0
  2  3  2  0
  3  4  1  0
  5  4  2  0
  5  6  1  0
  6  7  1  0
  7  9  1  0
  7  8  1  6
  9 13  1  0
 10  9  2  0
 11  5  1  0
 12  2  1  0
 12 11  2  0
 13 14  1  0
 15 17  1  0
 15 14  1  0
 16 15  2  0
 18 17  1  0
 18 23  1  0
 18 19  1  1
 20 19  1  0
 21 20  1  0
 22 21  2  0
 23 24  1  0
 25 21  1  0
 26 23  2  0
M  END
$$$$
