YGE.pdb
     RDKit          3D

 26 26  0  0  1  0  0  0  0  0999 V2000
    5.9120  -11.4921   27.9967 O   0  0  0  0  0  0  0  0  0  0  0  0
    6.3784  -12.1553   26.8602 C   0  0  0  0  0  0  0  0  0  0  0  0
    5.8101  -13.3453   26.4593 C   0  0  0  0  0  0  0  0  0  0  0  0
    6.2899  -13.9730   25.3390 C   0  0  0  0  0  0  0  0  0  0  0  0
    7.3389  -13.4712   24.5643 C   0  0  0  0  0  0  0  0  0  0  0  0
    7.8151  -14.1977   23.3610 C   0  0  0  0  0  0  0  0  0  0  0  0
    8.0906  -15.6596   23.6778 C   0  0  2  0  0  0  0  0  0  0  0  0
    8.8208  -15.6959   24.9143 N   0  0  0  0  0  0  0  0  0  0  0  0
    8.8545  -16.2880   22.5554 C   0  0  0  0  0  0  0  0  0  0  0  0
    8.6105  -17.4365   22.1230 O   0  0  0  0  0  0  0  0  0  0  0  0
    7.8894  -12.2801   24.9870 C   0  0  0  0  0  0  0  0  0  0  0  0
    7.4190  -11.6379   26.1093 C   0  0  0  0  0  0  0  0  0  0  0  0
    9.9005  -15.5670   21.9447 N   0  0  0  0  0  0  0  0  0  0  0  0
   10.8321  -16.1346   21.0020 C   0  0  0  0  0  0  0  0  0  0  0  0
   12.0684  -16.6333   21.6855 C   0  0  0  0  0  0  0  0  0  0  0  0
   12.8673  -15.7838   22.1598 O   0  0  0  0  0  0  0  0  0  0  0  0
   12.3715  -17.9966   21.8183 N   0  0  0  0  0  0  0  0  0  0  0  0
   13.5389  -18.4927   22.5530 C   0  0  1  0  0  0  0  0  0  0  0  0
   13.1703  -19.5206   23.5461 C   0  0  0  0  0  0  0  0  0  0  0  0
   12.2981  -19.0196   24.6339 C   0  0  0  0  0  0  0  0  0  0  0  0
   11.8011  -19.9188   25.6466 C   0  0  0  0  0  0  0  0  0  0  0  0
   11.8562  -21.1384   25.6334 O   0  0  0  0  0  0  0  0  0  0  0  0
   14.6604  -18.7601   21.6652 C   0  0  0  0  0  0  0  0  0  0  0  0
   14.5199  -18.7555   20.2702 O   0  0  0  0  0  0  0  0  0  0  0  0
   11.1765  -19.3569   26.7915 O   0  0  0  0  0  0  0  0  0  0  0  0
   15.8402  -19.0147   22.0966 O   0  0  0  0  0  0  0  0  0  0  0  0
  1  2  1  0
  2  3  2  0
  3  4  1  0
  5  4  2  0
  5  6  1  0
  6  7  1  0
  7  9  1  0
  7  8  1  1
  9 13  1  0
 10  9  2  0
 11  5  1  0
 12  2  1  0
 12 11  2  0
 13 14  1  0
 15 17  1  0
 15 14  1  0
 16 15  2  0
 18 17  1  0
 18 23  1  0
 18 19  1  6
 20 19  1  0
 21 20  1  0
 22 21  2  0
 23 24  1  0
 25 21  1  0
 26 23  2  0
M  END
$$$$
