YGE.pdb
     RDKit          3D

 26 26  0  0  1  0  0  0  0  0999 V2000
    8.5720  -11.8414   19.1022 O   0  0  0  0  0  0  0  0  0  0  0  0
    8.1199  -13.1309   19.3881 C   0  0  0  0  0  0  0  0  0  0  0  0
    7.4192  -13.3881   20.5469 C   0  0  0  0  0  0  0  0  0  0  0  0
    6.9882  -14.6646   20.7999 C   0  0  0  0  0  0  0  0  0  0  0  0
    7.2198  -15.7408   19.9392 C   0  0  0  0  0  0  0  0  0  0  0  0
    6.7280  -17.1017   20.2686 C   0  0  0  0  0  0  0  0  0  0  0  0
    5.9953  -17.1110   21.6016 C   0  0  2  0  0  0  0  0  0  0  0  0
    4.7936  -16.3426   21.4310 N   0  0  0  0  0  0  0  0  0  0  0  0
    6.8766  -16.5462   22.6704 C   0  0  0  0  0  0  0  0  0  0  0  0
    6.5451  -15.5741   23.3849 O   0  0  0  0  0  0  0  0  0  0  0  0
    7.9227  -15.4564   18.7879 C   0  0  0  0  0  0  0  0  0  0  0  0
    8.3620  -14.1804   18.5196 C   0  0  0  0  0  0  0  0  0  0  0  0
    8.1422  -17.1240   22.8971 N   0  0  0  0  0  0  0  0  0  0  0  0
    9.0832  -16.6511   23.8818 C   0  0  0  0  0  0  0  0  0  0  0  0
   10.3486  -17.4526   23.8603 C   0  0  0  0  0  0  0  0  0  0  0  0
   10.6613  -18.0383   22.7907 O   0  0  0  0  0  0  0  0  0  0  0  0
   11.1936  -17.5775   24.9731 N   0  0  0  0  0  0  0  0  0  0  0  0
   12.6498  -17.7068   24.8663 C   0  0  1  0  0  0  0  0  0  0  0  0
   13.2222  -16.7352   23.9139 C   0  0  0  0  0  0  0  0  0  0  0  0
   14.6976  -16.8044   23.7989 C   0  0  0  0  0  0  0  0  0  0  0  0
   15.3599  -16.3590   22.5972 C   0  0  0  0  0  0  0  0  0  0  0  0
   15.4409  -16.9632   21.5394 O   0  0  0  0  0  0  0  0  0  0  0  0
   13.2756  -17.8447   26.1729 C   0  0  0  0  0  0  0  0  0  0  0  0
   12.7270  -17.2611   27.3236 O   0  0  0  0  0  0  0  0  0  0  0  0
   15.9941  -15.0885   22.6149 O   0  0  0  0  0  0  0  0  0  0  0  0
   14.3596  -18.5037   26.3558 O   0  0  0  0  0  0  0  0  0  0  0  0
  1  2  1  0
  2  3  2  0
  3  4  1  0
  5  4  2  0
  5  6  1  0
  6  7  1  0
  7  9  1  0
  7  8  1  6
  9 13  1  0
 10  9  2  0
 11  5  1  0
 12  2  1  0
 12 11  2  0
 13 14  1  0
 15 17  1  0
 15 14  1  0
 16 15  2  0
 18 17  1  0
 18 23  1  0
 18 19  1  1
 20 19  1  0
 21 20  1  0
 22 21  2  0
 23 24  1  0
 25 21  1  0
 26 23  2  0
M  END
$$$$
