YGE.pdb
     RDKit          3D

 26 26  0  0  1  0  0  0  0  0999 V2000
   -4.2904  -19.7096   17.9979 O   0  0  0  0  0  0  0  0  0  0  0  0
   -4.6500  -20.0000   19.3152 C   0  0  0  0  0  0  0  0  0  0  0  0
   -5.1711  -19.0203   20.1327 C   0  0  0  0  0  0  0  0  0  0  0  0
   -5.5148  -19.3360   21.4217 C   0  0  0  0  0  0  0  0  0  0  0  0
   -5.3667  -20.6137   21.9676 C   0  0  0  0  0  0  0  0  0  0  0  0
   -5.7567  -20.8942   23.3717 C   0  0  0  0  0  0  0  0  0  0  0  0
   -4.6894  -20.4129   24.3427 C   0  0  2  0  0  0  0  0  0  0  0  0
   -3.5465  -21.2668   24.1750 N   0  0  0  0  0  0  0  0  0  0  0  0
   -5.2194  -20.4516   25.7412 C   0  0  0  0  0  0  0  0  0  0  0  0
   -6.2150  -19.7908   26.1120 O   0  0  0  0  0  0  0  0  0  0  0  0
   -4.8434  -21.5747   21.1291 C   0  0  0  0  0  0  0  0  0  0  0  0
   -4.4935  -21.2735   19.8329 C   0  0  0  0  0  0  0  0  0  0  0  0
   -4.5802  -21.2652   26.6985 N   0  0  0  0  0  0  0  0  0  0  0  0
   -5.0413  -21.4350   28.0539 C   0  0  0  0  0  0  0  0  0  0  0  0
   -6.2617  -22.3018   28.1134 C   0  0  0  0  0  0  0  0  0  0  0  0
   -6.5779  -22.9521   27.0828 O   0  0  0  0  0  0  0  0  0  0  0  0
   -7.0614  -22.4187   29.2601 N   0  0  0  0  0  0  0  0  0  0  0  0
   -8.1536  -23.3885   29.3831 C   0  0  1  0  0  0  0  0  0  0  0  0
   -7.7391  -24.7428   28.9673 C   0  0  0  0  0  0  0  0  0  0  0  0
   -8.8182  -25.7543   29.0534 C   0  0  0  0  0  0  0  0  0  0  0  0
   -8.5752  -27.1195   28.6558 C   0  0  0  0  0  0  0  0  0  0  0  0
   -9.3405  -28.0635   28.7740 O   0  0  0  0  0  0  0  0  0  0  0  0
   -8.8663  -23.2402   30.6431 C   0  0  0  0  0  0  0  0  0  0  0  0
  -10.2211  -23.5766   30.7732 O   0  0  0  0  0  0  0  0  0  0  0  0
   -7.3235  -27.4302   28.0615 O   0  0  0  0  0  0  0  0  0  0  0  0
   -8.3068  -22.7967   31.7075 O   0  0  0  0  0  0  0  0  0  0  0  0
  1  2  1  0
  2  3  2  0
  3  4  1  0
  5  4  2  0
  5  6  1  0
  6  7  1  0
  7  9  1  0
  7  8  1  1
  9 13  1  0
 10  9  2  0
 11  5  1  0
 12  2  1  0
 12 11  2  0
 13 14  1  0
 15 17  1  0
 15 14  1  0
 16 15  2  0
 18 17  1  0
 18 23  1  0
 18 19  1  1
 20 19  1  0
 21 20  1  0
 22 21  2  0
 23 24  1  0
 25 21  1  0
 26 23  2  0
M  END
$$$$
