YGE.pdb
     RDKit          3D

 26 26  0  0  1  0  0  0  0  0999 V2000
    7.1318  -12.2239   17.4017 O   0  0  0  0  0  0  0  0  0  0  0  0
    7.3222  -12.7716   18.6717 C   0  0  0  0  0  0  0  0  0  0  0  0
    8.4747  -12.5126   19.3820 C   0  0  0  0  0  0  0  0  0  0  0  0
    8.6329  -13.0648   20.6267 C   0  0  0  0  0  0  0  0  0  0  0  0
    7.6798  -13.8890   21.2307 C   0  0  0  0  0  0  0  0  0  0  0  0
    7.9088  -14.4583   22.5820 C   0  0  0  0  0  0  0  0  0  0  0  0
    8.7739  -15.7073   22.5102 C   0  0  2  0  0  0  0  0  0  0  0  0
    8.1656  -16.5909   21.5549 N   0  0  0  0  0  0  0  0  0  0  0  0
    8.8793  -16.3316   23.8656 C   0  0  0  0  0  0  0  0  0  0  0  0
    7.8812  -16.6567   24.5465 O   0  0  0  0  0  0  0  0  0  0  0  0
    6.5369  -14.1320   20.4991 C   0  0  0  0  0  0  0  0  0  0  0  0
    6.3633  -13.5852   19.2485 C   0  0  0  0  0  0  0  0  0  0  0  0
   10.1542  -16.5725   24.4165 N   0  0  0  0  0  0  0  0  0  0  0  0
   10.3784  -17.2117   25.6893 C   0  0  0  0  0  0  0  0  0  0  0  0
   11.8203  -17.1446   26.0901 C   0  0  0  0  0  0  0  0  0  0  0  0
   12.1741  -17.7510   27.1351 O   0  0  0  0  0  0  0  0  0  0  0  0
   12.7859  -16.4396   25.3562 N   0  0  0  0  0  0  0  0  0  0  0  0
   13.9034  -17.0896   24.6654 C   0  0  1  0  0  0  0  0  0  0  0  0
   13.4459  -18.1706   23.7706 C   0  0  0  0  0  0  0  0  0  0  0  0
   14.5255  -18.7707   22.9525 C   0  0  0  0  0  0  0  0  0  0  0  0
   14.2218  -19.7756   21.9631 C   0  0  0  0  0  0  0  0  0  0  0  0
   13.1333  -19.9997   21.4577 O   0  0  0  0  0  0  0  0  0  0  0  0
   14.8539  -16.1179   24.1457 C   0  0  0  0  0  0  0  0  0  0  0  0
   16.2060  -16.4334   23.9511 O   0  0  0  0  0  0  0  0  0  0  0  0
   15.2791  -20.6079   21.5090 O   0  0  0  0  0  0  0  0  0  0  0  0
   14.5199  -14.9204   23.8338 O   0  0  0  0  0  0  0  0  0  0  0  0
  1  2  1  0
  2  3  2  0
  3  4  1  0
  5  4  2  0
  5  6  1  0
  6  7  1  0
  7  9  1  0
  7  8  1  6
  9 13  1  0
 10  9  2  0
 11  5  1  0
 12  2  1  0
 12 11  2  0
 13 14  1  0
 15 17  1  0
 15 14  1  0
 16 15  2  0
 18 17  1  0
 18 23  1  0
 18 19  1  6
 20 19  1  0
 21 20  1  0
 22 21  2  0
 23 24  1  0
 25 21  1  0
 26 23  2  0
M  END
$$$$
