YGE.pdb
     RDKit          3D

 26 26  0  0  1  0  0  0  0  0999 V2000
    5.2720  -10.9566   28.1533 O   0  0  0  0  0  0  0  0  0  0  0  0
    5.9995  -11.6053   27.1538 C   0  0  0  0  0  0  0  0  0  0  0  0
    5.5283  -11.6494   25.8592 C   0  0  0  0  0  0  0  0  0  0  0  0
    6.2652  -12.2938   24.8996 C   0  0  0  0  0  0  0  0  0  0  0  0
    7.4872  -12.9202   25.1581 C   0  0  0  0  0  0  0  0  0  0  0  0
    8.2393  -13.6031   24.0762 C   0  0  0  0  0  0  0  0  0  0  0  0
    7.5850  -14.9253   23.7053 C   0  0  2  0  0  0  0  0  0  0  0  0
    7.4589  -15.6906   24.9144 N   0  0  0  0  0  0  0  0  0  0  0  0
    8.4113  -15.6309   22.6771 C   0  0  0  0  0  0  0  0  0  0  0  0
    8.7563  -15.1005   21.5977 O   0  0  0  0  0  0  0  0  0  0  0  0
    7.9356  -12.8615   26.4604 C   0  0  0  0  0  0  0  0  0  0  0  0
    7.2075  -12.2185   27.4349 C   0  0  0  0  0  0  0  0  0  0  0  0
    8.8300  -16.9550   22.9191 N   0  0  0  0  0  0  0  0  0  0  0  0
    9.6847  -17.7080   22.0353 C   0  0  0  0  0  0  0  0  0  0  0  0
   10.8616  -18.2788   22.7654 C   0  0  0  0  0  0  0  0  0  0  0  0
   10.8881  -19.5211   22.9682 O   0  0  0  0  0  0  0  0  0  0  0  0
   11.9276  -17.4938   23.2297 N   0  0  0  0  0  0  0  0  0  0  0  0
   12.8164  -17.9082   24.3191 C   0  0  1  0  0  0  0  0  0  0  0  0
   14.0731  -17.1342   24.3312 C   0  0  0  0  0  0  0  0  0  0  0  0
   14.5250  -16.7011   22.9883 C   0  0  0  0  0  0  0  0  0  0  0  0
   15.7659  -15.9828   22.8299 C   0  0  0  0  0  0  0  0  0  0  0  0
   16.3977  -15.8324   21.7960 O   0  0  0  0  0  0  0  0  0  0  0  0
   12.0935  -18.0722   25.5713 C   0  0  0  0  0  0  0  0  0  0  0  0
   12.6398  -18.7703   26.6575 O   0  0  0  0  0  0  0  0  0  0  0  0
   16.3386  -15.3757   23.9789 O   0  0  0  0  0  0  0  0  0  0  0  0
   10.9203  -17.5926   25.7620 O   0  0  0  0  0  0  0  0  0  0  0  0
  1  2  1  0
  2  3  2  0
  3  4  1  0
  5  4  2  0
  5  6  1  0
  6  7  1  0
  7  9  1  0
  7  8  1  1
  9 13  1  0
 10  9  2  0
 11  5  1  0
 12  2  1  0
 12 11  2  0
 13 14  1  0
 15 17  1  0
 15 14  1  0
 16 15  2  0
 18 17  1  0
 18 23  1  0
 18 19  1  1
 20 19  1  0
 21 20  1  0
 22 21  2  0
 23 24  1  0
 25 21  1  0
 26 23  2  0
M  END
$$$$
