YGE.pdb
     RDKit          3D

 26 26  0  0  1  0  0  0  0  0999 V2000
    7.1645  -11.9466   28.5929 O   0  0  0  0  0  0  0  0  0  0  0  0
    7.3105  -12.3732   27.2717 C   0  0  0  0  0  0  0  0  0  0  0  0
    6.2720  -12.2460   26.3743 C   0  0  0  0  0  0  0  0  0  0  0  0
    6.4455  -12.6741   25.0837 C   0  0  0  0  0  0  0  0  0  0  0  0
    7.6325  -13.2420   24.6133 C   0  0  0  0  0  0  0  0  0  0  0  0
    7.7597  -13.6875   23.2035 C   0  0  0  0  0  0  0  0  0  0  0  0
    7.1600  -15.0720   23.0108 C   0  0  2  0  0  0  0  0  0  0  0  0
    7.9164  -15.9799   23.8277 N   0  0  0  0  0  0  0  0  0  0  0  0
    7.2038  -15.4484   21.5636 C   0  0  0  0  0  0  0  0  0  0  0  0
    6.6396  -14.7816   20.6679 O   0  0  0  0  0  0  0  0  0  0  0  0
    8.6549  -13.3578   25.5309 C   0  0  0  0  0  0  0  0  0  0  0  0
    8.4962  -12.9327   26.8299 C   0  0  0  0  0  0  0  0  0  0  0  0
    7.9093  -16.6046   21.1730 N   0  0  0  0  0  0  0  0  0  0  0  0
    8.6259  -16.7337   19.9286 C   0  0  0  0  0  0  0  0  0  0  0  0
   10.1045  -16.6047   20.1314 C   0  0  0  0  0  0  0  0  0  0  0  0
   10.6084  -15.4513   20.1038 O   0  0  0  0  0  0  0  0  0  0  0  0
   10.9454  -17.7064   20.3489 N   0  0  0  0  0  0  0  0  0  0  0  0
   11.9954  -17.7267   21.3715 C   0  0  1  0  0  0  0  0  0  0  0  0
   11.5069  -17.2346   22.6745 C   0  0  0  0  0  0  0  0  0  0  0  0
   12.5436  -17.2048   23.7325 C   0  0  0  0  0  0  0  0  0  0  0  0
   12.1853  -16.9213   25.1008 C   0  0  0  0  0  0  0  0  0  0  0  0
   12.4272  -15.8998   25.7242 O   0  0  0  0  0  0  0  0  0  0  0  0
   12.7523  -18.9693   21.3417 C   0  0  0  0  0  0  0  0  0  0  0  0
   14.1525  -18.9869   21.4115 O   0  0  0  0  0  0  0  0  0  0  0  0
   11.4762  -17.9153   25.8260 O   0  0  0  0  0  0  0  0  0  0  0  0
   12.1933  -20.1191   21.2512 O   0  0  0  0  0  0  0  0  0  0  0  0
  1  2  1  0
  2  3  2  0
  3  4  1  0
  5  4  2  0
  5  6  1  0
  6  7  1  0
  7  9  1  0
  7  8  1  1
  9 13  1  0
 10  9  2  0
 11  5  1  0
 12  2  1  0
 12 11  2  0
 13 14  1  0
 15 17  1  0
 15 14  1  0
 16 15  2  0
 18 17  1  0
 18 23  1  0
 18 19  1  1
 20 19  1  0
 21 20  1  0
 22 21  2  0
 23 24  1  0
 25 21  1  0
 26 23  2  0
M  END
$$$$
