YGE.pdb
     RDKit          3D

 26 26  0  0  1  0  0  0  0  0999 V2000
    8.8715  -12.8362   17.3969 O   0  0  0  0  0  0  0  0  0  0  0  0
    8.3588  -13.2568   18.6255 C   0  0  0  0  0  0  0  0  0  0  0  0
    7.6347  -14.4258   18.7206 C   0  0  0  0  0  0  0  0  0  0  0  0
    7.1442  -14.8126   19.9408 C   0  0  0  0  0  0  0  0  0  0  0  0
    7.3368  -14.0812   21.1157 C   0  0  0  0  0  0  0  0  0  0  0  0
    6.7798  -14.5518   22.4083 C   0  0  0  0  0  0  0  0  0  0  0  0
    7.8744  -15.1096   23.3052 C   0  0  2  0  0  0  0  0  0  0  0  0
    8.5631  -16.1225   22.5548 N   0  0  0  0  0  0  0  0  0  0  0  0
    7.2737  -15.6528   24.5630 C   0  0  0  0  0  0  0  0  0  0  0  0
    6.2100  -15.2151   25.0555 O   0  0  0  0  0  0  0  0  0  0  0  0
    8.0641  -12.9165   20.9929 C   0  0  0  0  0  0  0  0  0  0  0  0
    8.5632  -12.5147   19.7752 C   0  0  0  0  0  0  0  0  0  0  0  0
    7.9223  -16.7070   25.2375 N   0  0  0  0  0  0  0  0  0  0  0  0
    7.2942  -17.9604   25.5741 C   0  0  0  0  0  0  0  0  0  0  0  0
    8.2293  -18.8580   26.3250 C   0  0  0  0  0  0  0  0  0  0  0  0
    7.7664  -19.9231   26.8111 O   0  0  0  0  0  0  0  0  0  0  0  0
    9.5888  -18.5644   26.5084 N   0  0  0  0  0  0  0  0  0  0  0  0
   10.4832  -19.3805   27.3345 C   0  0  1  0  0  0  0  0  0  0  0  0
   11.8484  -19.4407   26.7766 C   0  0  0  0  0  0  0  0  0  0  0  0
   11.8950  -19.3986   25.2964 C   0  0  0  0  0  0  0  0  0  0  0  0
   13.1601  -19.3505   24.6048 C   0  0  0  0  0  0  0  0  0  0  0  0
   14.2626  -19.5734   25.0795 O   0  0  0  0  0  0  0  0  0  0  0  0
   10.3277  -19.0848   28.7508 C   0  0  0  0  0  0  0  0  0  0  0  0
   10.9258  -19.8738   29.7435 O   0  0  0  0  0  0  0  0  0  0  0  0
   13.1559  -19.0108   23.2260 O   0  0  0  0  0  0  0  0  0  0  0  0
    9.6403  -18.0918   29.1799 O   0  0  0  0  0  0  0  0  0  0  0  0
  1  2  1  0
  2  3  2  0
  3  4  1  0
  5  4  2  0
  5  6  1  0
  6  7  1  0
  7  9  1  0
  7  8  1  6
  9 13  1  0
 10  9  2  0
 11  5  1  0
 12  2  1  0
 12 11  2  0
 13 14  1  0
 15 17  1  0
 15 14  1  0
 16 15  2  0
 18 17  1  0
 18 23  1  0
 18 19  1  6
 20 19  1  0
 21 20  1  0
 22 21  2  0
 23 24  1  0
 25 21  1  0
 26 23  2  0
M  END
$$$$
