WTA.pdb
     RDKit          3D

 27 28  0  0  1  0  0  0  0  0999 V2000
   22.0507  -18.2072  -13.3513 N   0  0  0  0  0  0  0  0  0  0  0  0
   23.2495  -18.9424  -13.6128 C   0  0  1  0  0  0  0  0  0  0  0  0
   23.0057  -20.4125  -13.3819 C   0  0  0  0  0  0  0  0  0  0  0  0
   22.9016  -20.7027  -11.9327 C   0  0  0  0  0  0  0  0  0  0  0  0
   21.7075  -21.0244  -11.3121 C   0  0  0  0  0  0  0  0  0  0  0  0
   21.9048  -21.2686  -10.0244 N   0  0  0  0  0  0  0  0  0  0  0  0
   23.2256  -21.1106   -9.7817 C   0  0  0  0  0  0  0  0  0  0  0  0
   23.9805  -21.2318   -8.6297 C   0  0  0  0  0  0  0  0  0  0  0  0
   25.3269  -21.0070   -8.6512 C   0  0  0  0  0  0  0  0  0  0  0  0
   25.9572  -20.6560   -9.8170 C   0  0  0  0  0  0  0  0  0  0  0  0
   25.2212  -20.5254  -10.9988 C   0  0  0  0  0  0  0  0  0  0  0  0
   23.8639  -20.7577  -10.9569 C   0  0  0  0  0  0  0  0  0  0  0  0
   23.8039  -18.6725  -14.9608 C   0  0  0  0  0  0  0  0  0  0  0  0
   23.0714  -17.9699  -15.7397 O   0  0  0  0  0  0  0  0  0  0  0  0
   27.3149  -17.3330  -15.1090 C   0  0  0  0  0  0  0  0  0  0  0  0
   27.1867  -18.3282  -16.2271 C   0  0  1  0  0  0  0  0  0  0  0  0
   27.6696  -19.5506  -15.6949 O   0  0  0  0  0  0  0  0  0  0  0  0
   25.7109  -18.5066  -16.6002 C   0  0  2  0  0  0  0  0  0  0  0  0
   25.0473  -19.1268  -15.4213 N   0  0  0  0  0  0  0  0  0  0  0  0
   25.5193  -19.3764  -17.7712 C   0  0  0  0  0  0  0  0  0  0  0  0
   25.2336  -20.6080  -17.5842 O   0  0  0  0  0  0  0  0  0  0  0  0
   25.2723  -19.3608  -21.5268 C   0  0  0  0  0  0  0  0  0  0  0  0
   25.5819  -19.9702  -20.2028 C   0  0  2  0  0  0  0  0  0  0  0  0
   25.6164  -18.9936  -19.1285 N   0  0  0  0  0  0  0  0  0  0  0  0
   26.8850  -20.6979  -20.2970 C   0  0  0  0  0  0  0  0  0  0  0  0
   27.8464  -20.2265  -19.6452 O   0  0  0  0  0  0  0  0  0  0  0  0
   27.0944  -21.8324  -21.0395 O   0  0  0  0  0  0  0  0  0  0  0  0
  2  3  1  0
  2  1  1  6
  2 13  1  0
  4  3  1  0
  4  5  2  0
  6  5  1  0
  7  6  1  0
  8  7  2  0
  9  8  1  0
 10  9  2  0
 10 11  1  0
 11 12  2  0
 12  7  1  0
 12  4  1  0
 13 19  1  0
 14 13  2  0
 16 17  1  0
 16 15  1  1
 18 16  1  0
 18 19  1  1
 20 21  2  0
 20 18  1  0
 23 24  1  0
 23 22  1  6
 24 20  1  0
 25 23  1  0
 26 25  2  0
 27 25  1  0
M  END
$$$$
