WTA.pdb
     RDKit          3D

 27 28  0  0  1  0  0  0  0  0999 V2000
   27.8709  -21.3645  -11.3554 N   0  0  0  0  0  0  0  0  0  0  0  0
   26.5383  -21.2296  -10.8536 C   0  0  1  0  0  0  0  0  0  0  0  0
   26.5361  -20.3152   -9.6544 C   0  0  0  0  0  0  0  0  0  0  0  0
   27.7124  -20.5811   -8.7935 C   0  0  0  0  0  0  0  0  0  0  0  0
   28.7502  -21.4145   -9.1714 C   0  0  0  0  0  0  0  0  0  0  0  0
   29.6850  -21.4467   -8.2324 N   0  0  0  0  0  0  0  0  0  0  0  0
   29.2759  -20.6388   -7.2282 C   0  0  0  0  0  0  0  0  0  0  0  0
   29.8448  -20.3041   -6.0133 C   0  0  0  0  0  0  0  0  0  0  0  0
   29.2096  -19.4516   -5.1569 C   0  0  0  0  0  0  0  0  0  0  0  0
   27.9935  -18.9105   -5.4852 C   0  0  0  0  0  0  0  0  0  0  0  0
   27.3922  -19.2295   -6.7067 C   0  0  0  0  0  0  0  0  0  0  0  0
   28.0496  -20.0905   -7.5579 C   0  0  0  0  0  0  0  0  0  0  0  0
   25.5768  -20.7910  -11.8929 C   0  0  0  0  0  0  0  0  0  0  0  0
   26.0093  -19.9246  -12.7292 O   0  0  0  0  0  0  0  0  0  0  0  0
   24.3190  -22.6544  -14.5380 C   0  0  0  0  0  0  0  0  0  0  0  0
   23.0605  -22.0876  -13.9447 C   0  0  1  0  0  0  0  0  0  0  0  0
   22.5873  -23.0838  -13.0536 O   0  0  0  0  0  0  0  0  0  0  0  0
   23.3861  -20.8254  -13.1385 C   0  0  2  0  0  0  0  0  0  0  0  0
   24.2597  -21.2548  -12.0127 N   0  0  0  0  0  0  0  0  0  0  0  0
   22.1865  -20.1715  -12.5925 C   0  0  0  0  0  0  0  0  0  0  0  0
   21.8041  -20.4728  -11.4107 O   0  0  0  0  0  0  0  0  0  0  0  0
   19.5186  -17.6324  -13.4569 C   0  0  0  0  0  0  0  0  0  0  0  0
   20.1447  -18.7239  -12.6590 C   0  0  2  0  0  0  0  0  0  0  0  0
   21.3797  -19.2126  -13.2464 N   0  0  0  0  0  0  0  0  0  0  0  0
   19.1581  -19.8368  -12.5019 C   0  0  0  0  0  0  0  0  0  0  0  0
   18.2373  -19.6651  -11.6688 O   0  0  0  0  0  0  0  0  0  0  0  0
   19.1939  -21.0171  -13.2004 O   0  0  0  0  0  0  0  0  0  0  0  0
  2  3  1  0
  2  1  1  6
  2 13  1  0
  4  3  1  0
  4  5  2  0
  6  5  1  0
  7  6  1  0
  8  7  2  0
  9  8  1  0
 10  9  2  0
 10 11  1  0
 11 12  2  0
 12  7  1  0
 12  4  1  0
 13 19  1  0
 14 13  2  0
 16 17  1  0
 16 15  1  1
 18 16  1  0
 18 19  1  1
 20 21  2  0
 20 18  1  0
 23 24  1  0
 23 22  1  6
 24 20  1  0
 25 23  1  0
 26 25  2  0
 27 25  1  0
M  END
$$$$
