WTA.pdb
     RDKit          3D

 27 28  0  0  1  0  0  0  0  0999 V2000
   23.5540  -14.0685  -17.8212 N   0  0  0  0  0  0  0  0  0  0  0  0
   22.4797  -13.5642  -17.0228 C   0  0  1  0  0  0  0  0  0  0  0  0
   22.8527  -13.6364  -15.5634 C   0  0  0  0  0  0  0  0  0  0  0  0
   23.1703  -15.0304  -15.1745 C   0  0  0  0  0  0  0  0  0  0  0  0
   24.3812  -15.4000  -14.6164 C   0  0  0  0  0  0  0  0  0  0  0  0
   24.3861  -16.6951  -14.3341 N   0  0  0  0  0  0  0  0  0  0  0  0
   23.1837  -17.1925  -14.7019 C   0  0  0  0  0  0  0  0  0  0  0  0
   22.6467  -18.4653  -14.6444 C   0  0  0  0  0  0  0  0  0  0  0  0
   21.3826  -18.7102  -15.0979 C   0  0  0  0  0  0  0  0  0  0  0  0
   20.6202  -17.6974  -15.6202 C   0  0  0  0  0  0  0  0  0  0  0  0
   21.1350  -16.3993  -15.6920 C   0  0  0  0  0  0  0  0  0  0  0  0
   22.4122  -16.1721  -15.2280 C   0  0  0  0  0  0  0  0  0  0  0  0
   22.0582  -12.2012  -17.4253 C   0  0  0  0  0  0  0  0  0  0  0  0
   22.9256  -11.5098  -18.0629 O   0  0  0  0  0  0  0  0  0  0  0  0
   19.1807  -11.3899  -19.5609 C   0  0  0  0  0  0  0  0  0  0  0  0
   20.3146  -10.4655  -19.2193 C   0  0  1  0  0  0  0  0  0  0  0  0
   19.9567   -9.2137  -19.7811 O   0  0  0  0  0  0  0  0  0  0  0  0
   20.4185  -10.3069  -17.6984 C   0  0  2  0  0  0  0  0  0  0  0  0
   20.8022  -11.6395  -17.1582 N   0  0  0  0  0  0  0  0  0  0  0  0
   19.1514   -9.8856  -17.0806 C   0  0  0  0  0  0  0  0  0  0  0  0
   18.2015  -10.7348  -16.9815 O   0  0  0  0  0  0  0  0  0  0  0  0
   17.6670   -7.7878  -14.5804 C   0  0  0  0  0  0  0  0  0  0  0  0
   17.5601   -8.2992  -15.9758 C   0  0  2  0  0  0  0  0  0  0  0  0
   18.8528   -8.6043  -16.5634 N   0  0  0  0  0  0  0  0  0  0  0  0
   16.8268   -7.2942  -16.8057 C   0  0  0  0  0  0  0  0  0  0  0  0
   17.4325   -6.8288  -17.7996 O   0  0  0  0  0  0  0  0  0  0  0  0
   15.5519   -6.8542  -16.5542 O   0  0  0  0  0  0  0  0  0  0  0  0
  2  3  1  0
  2  1  1  6
  2 13  1  0
  4  3  1  0
  4  5  2  0
  6  5  1  0
  7  6  1  0
  8  7  2  0
  9  8  1  0
 10  9  2  0
 10 11  1  0
 11 12  2  0
 12  7  1  0
 12  4  1  0
 13 19  1  0
 14 13  2  0
 16 17  1  0
 16 15  1  1
 18 16  1  0
 18 19  1  1
 20 21  2  0
 20 18  1  0
 23 24  1  0
 23 22  1  1
 24 20  1  0
 25 23  1  0
 26 25  2  0
 27 25  1  0
M  END
$$$$
