WTA.pdb
     RDKit          3D

 27 28  0  0  1  0  0  0  0  0999 V2000
   16.4719  -16.6509    4.2475 N   0  0  0  0  0  0  0  0  0  0  0  0
   17.4356  -16.5104    5.2951 C   0  0  1  0  0  0  0  0  0  0  0  0
   16.9937  -15.4317    6.2519 C   0  0  0  0  0  0  0  0  0  0  0  0
   17.7346  -14.1739    5.9982 C   0  0  0  0  0  0  0  0  0  0  0  0
   17.2282  -13.1433    5.2263 C   0  0  0  0  0  0  0  0  0  0  0  0
   18.0791  -12.1276    5.1923 N   0  0  0  0  0  0  0  0  0  0  0  0
   19.1523  -12.4755    5.9377 C   0  0  0  0  0  0  0  0  0  0  0  0
   20.3271  -11.8132    6.2425 C   0  0  0  0  0  0  0  0  0  0  0  0
   21.2753  -12.4010    7.0294 C   0  0  0  0  0  0  0  0  0  0  0  0
   21.0807  -13.6613    7.5329 C   0  0  0  0  0  0  0  0  0  0  0  0
   19.9030  -14.3570    7.2427 C   0  0  0  0  0  0  0  0  0  0  0  0
   18.9577  -13.7463    6.4479 C   0  0  0  0  0  0  0  0  0  0  0  0
   17.7192  -17.7900    5.9875 C   0  0  0  0  0  0  0  0  0  0  0  0
   17.0182  -18.7954    5.6203 O   0  0  0  0  0  0  0  0  0  0  0  0
   20.5352  -19.7629    5.7040 C   0  0  0  0  0  0  0  0  0  0  0  0
   20.4100  -19.6455    7.1965 C   0  0  1  0  0  0  0  0  0  0  0  0
   21.2426  -18.5553    7.5555 O   0  0  0  0  0  0  0  0  0  0  0  0
   18.9647  -19.3016    7.5735 C   0  0  2  0  0  0  0  0  0  0  0  0
   18.6820  -17.9613    6.9915 N   0  0  0  0  0  0  0  0  0  0  0  0
   18.7518  -19.2474    9.0283 C   0  0  0  0  0  0  0  0  0  0  0  0
   19.1060  -18.1971    9.6645 O   0  0  0  0  0  0  0  0  0  0  0  0
   17.1402  -21.0616   11.9021 C   0  0  0  0  0  0  0  0  0  0  0  0
   18.1498  -20.1586   11.2814 C   0  0  2  0  0  0  0  0  0  0  0  0
   18.1784  -20.2584    9.8328 N   0  0  0  0  0  0  0  0  0  0  0  0
   19.4948  -20.4659   11.8585 C   0  0  0  0  0  0  0  0  0  0  0  0
   20.3537  -20.9366   11.0762 O   0  0  0  0  0  0  0  0  0  0  0  0
   19.8457  -20.2689   13.1701 O   0  0  0  0  0  0  0  0  0  0  0  0
  2  3  1  0
  2  1  1  6
  2 13  1  0
  4  3  1  0
  4  5  2  0
  6  5  1  0
  7  6  1  0
  8  7  2  0
  9  8  1  0
 10  9  2  0
 10 11  1  0
 11 12  2  0
 12  7  1  0
 12  4  1  0
 13 19  1  0
 14 13  2  0
 16 17  1  0
 16 15  1  6
 18 16  1  0
 18 19  1  6
 20 21  2  0
 20 18  1  0
 23 24  1  0
 23 22  1  1
 24 20  1  0
 25 23  1  0
 26 25  2  0
 27 25  1  0
M  END
$$$$
