WTA.pdb
     RDKit          3D

 27 28  0  0  1  0  0  0  0  0999 V2000
   24.7008  -19.4504  -17.4818 N   0  0  0  0  0  0  0  0  0  0  0  0
   24.2200  -19.2048  -16.1573 C   0  0  1  0  0  0  0  0  0  0  0  0
   22.7156  -19.3075  -16.1347 C   0  0  0  0  0  0  0  0  0  0  0  0
   22.0988  -18.0157  -16.5170 C   0  0  0  0  0  0  0  0  0  0  0  0
   22.7975  -17.0064  -17.1553 C   0  0  0  0  0  0  0  0  0  0  0  0
   21.9997  -15.9791  -17.4104 N   0  0  0  0  0  0  0  0  0  0  0  0
   20.7708  -16.2976  -16.9446 C   0  0  0  0  0  0  0  0  0  0  0  0
   19.5721  -15.6087  -16.9360 C   0  0  0  0  0  0  0  0  0  0  0  0
   18.4527  -16.1632  -16.3855 C   0  0  0  0  0  0  0  0  0  0  0  0
   18.4958  -17.4156  -15.8293 C   0  0  0  0  0  0  0  0  0  0  0  0
   19.6932  -18.1377  -15.8225 C   0  0  0  0  0  0  0  0  0  0  0  0
   20.8115  -17.5615  -16.3842 C   0  0  0  0  0  0  0  0  0  0  0  0
   24.8555  -20.0822  -15.1456 C   0  0  0  0  0  0  0  0  0  0  0  0
   24.6254  -21.3352  -15.2639 O   0  0  0  0  0  0  0  0  0  0  0  0
   28.1557  -20.9894  -14.6194 C   0  0  0  0  0  0  0  0  0  0  0  0
   27.7589  -20.5213  -13.2481 C   0  0  1  0  0  0  0  0  0  0  0  0
   28.1656  -19.1643  -13.1856 O   0  0  0  0  0  0  0  0  0  0  0  0
   26.2349  -20.5823  -13.0965 C   0  0  2  0  0  0  0  0  0  0  0  0
   25.6709  -19.6356  -14.0968 N   0  0  0  0  0  0  0  0  0  0  0  0
   25.7787  -20.1898  -11.7540 C   0  0  0  0  0  0  0  0  0  0  0  0
   25.5335  -18.9570  -11.5221 O   0  0  0  0  0  0  0  0  0  0  0  0
   24.9113  -21.5783   -8.3512 C   0  0  0  0  0  0  0  0  0  0  0  0
   25.3814  -20.5357   -9.3062 C   0  0  2  0  0  0  0  0  0  0  0  0
   25.5708  -21.0495  -10.6513 N   0  0  0  0  0  0  0  0  0  0  0  0
   26.6496  -19.9380   -8.7857 C   0  0  0  0  0  0  0  0  0  0  0  0
   27.7194  -20.3405   -9.3004 O   0  0  0  0  0  0  0  0  0  0  0  0
   26.7182  -18.9908   -7.7956 O   0  0  0  0  0  0  0  0  0  0  0  0
  2  3  1  0
  2  1  1  6
  2 13  1  0
  4  3  1  0
  4  5  2  0
  6  5  1  0
  7  6  1  0
  8  7  2  0
  9  8  1  0
 10  9  2  0
 10 11  1  0
 11 12  2  0
 12  7  1  0
 12  4  1  0
 13 19  1  0
 14 13  2  0
 16 17  1  0
 16 15  1  6
 18 16  1  0
 18 19  1  6
 20 21  2  0
 20 18  1  0
 23 24  1  0
 23 22  1  1
 24 20  1  0
 25 23  1  0
 26 25  2  0
 27 25  1  0
M  END
$$$$
