WTA.pdb
     RDKit          3D

 27 28  0  0  1  0  0  0  0  0999 V2000
   32.8638  -26.6679  -18.7688 N   0  0  0  0  0  0  0  0  0  0  0  0
   32.6980  -27.6872  -17.7792 C   0  0  1  0  0  0  0  0  0  0  0  0
   31.2483  -28.0968  -17.7082 C   0  0  0  0  0  0  0  0  0  0  0  0
   30.3765  -26.9072  -17.5668 C   0  0  0  0  0  0  0  0  0  0  0  0
   29.1680  -26.7754  -18.2274 C   0  0  0  0  0  0  0  0  0  0  0  0
   28.5797  -25.6349  -17.8958 N   0  0  0  0  0  0  0  0  0  0  0  0
   29.3904  -25.0037  -17.0169 C   0  0  0  0  0  0  0  0  0  0  0  0
   29.2831  -23.7940  -16.3559 C   0  0  0  0  0  0  0  0  0  0  0  0
   30.2661  -23.3733  -15.5071 C   0  0  0  0  0  0  0  0  0  0  0  0
   31.3804  -24.1430  -15.2938 C   0  0  0  0  0  0  0  0  0  0  0  0
   31.5183  -25.3714  -15.9475 C   0  0  0  0  0  0  0  0  0  0  0  0
   30.5149  -25.7791  -16.7991 C   0  0  0  0  0  0  0  0  0  0  0  0
   33.5965  -28.8463  -17.9950 C   0  0  0  0  0  0  0  0  0  0  0  0
   33.7087  -29.2535  -19.2028 O   0  0  0  0  0  0  0  0  0  0  0  0
   37.1067  -28.9085  -17.2205 C   0  0  0  0  0  0  0  0  0  0  0  0
   36.6051  -30.2001  -16.6398 C   0  0  1  0  0  0  0  0  0  0  0  0
   36.3625  -29.9234  -15.2705 O   0  0  0  0  0  0  0  0  0  0  0  0
   35.2791  -30.5900  -17.3022 C   0  0  2  0  0  0  0  0  0  0  0  0
   34.3113  -29.5047  -16.9852 N   0  0  0  0  0  0  0  0  0  0  0  0
   34.7466  -31.8680  -16.8046 C   0  0  0  0  0  0  0  0  0  0  0  0
   33.5918  -31.8834  -16.2571 O   0  0  0  0  0  0  0  0  0  0  0  0
   33.2344  -34.1811  -16.3540 C   0  0  0  0  0  0  0  0  0  0  0  0
   34.7107  -34.3485  -16.4654 C   0  0  2  0  0  0  0  0  0  0  0  0
   35.3865  -33.1270  -16.8658 N   0  0  0  0  0  0  0  0  0  0  0  0
   35.0019  -35.4537  -17.4299 C   0  0  0  0  0  0  0  0  0  0  0  0
   35.3804  -35.1201  -18.5774 O   0  0  0  0  0  0  0  0  0  0  0  0
   34.8838  -36.7906  -17.1451 O   0  0  0  0  0  0  0  0  0  0  0  0
  2  3  1  0
  2  1  1  6
  2 13  1  0
  4  3  1  0
  4  5  2  0
  6  5  1  0
  7  6  1  0
  8  7  2  0
  9  8  1  0
 10  9  2  0
 10 11  1  0
 11 12  2  0
 12  7  1  0
 12  4  1  0
 13 19  1  0
 14 13  2  0
 16 17  1  0
 16 15  1  6
 18 16  1  0
 18 19  1  1
 20 21  2  0
 20 18  1  0
 23 24  1  0
 23 22  1  6
 24 20  1  0
 25 23  1  0
 26 25  2  0
 27 25  1  0
M  END
$$$$
