WTA.pdb
     RDKit          3D

 27 28  0  0  1  0  0  0  0  0999 V2000
   27.1772  -22.0879  -12.6361 N   0  0  0  0  0  0  0  0  0  0  0  0
   26.1581  -21.3028  -12.0108 C   0  0  1  0  0  0  0  0  0  0  0  0
   26.7749  -20.0848  -11.3703 C   0  0  0  0  0  0  0  0  0  0  0  0
   27.7439  -20.4811  -10.3218 C   0  0  0  0  0  0  0  0  0  0  0  0
   28.9590  -21.0789  -10.6056 C   0  0  0  0  0  0  0  0  0  0  0  0
   29.6415  -21.2954   -9.4901 N   0  0  0  0  0  0  0  0  0  0  0  0
   28.8871  -20.8453   -8.4621 C   0  0  0  0  0  0  0  0  0  0  0  0
   29.0963  -20.8217   -7.0956 C   0  0  0  0  0  0  0  0  0  0  0  0
   28.1526  -20.3068   -6.2542 C   0  0  0  0  0  0  0  0  0  0  0  0
   26.9774  -19.8026   -6.7487 C   0  0  0  0  0  0  0  0  0  0  0  0
   26.7363  -19.8122   -8.1260 C   0  0  0  0  0  0  0  0  0  0  0  0
   27.7015  -20.3349   -8.9588 C   0  0  0  0  0  0  0  0  0  0  0  0
   25.0573  -20.9497  -12.9386 C   0  0  0  0  0  0  0  0  0  0  0  0
   25.3807  -20.8148  -14.1692 O   0  0  0  0  0  0  0  0  0  0  0  0
   23.8747  -21.9604  -15.1076 C   0  0  0  0  0  0  0  0  0  0  0  0
   22.5447  -21.6508  -14.4814 C   0  0  1  0  0  0  0  0  0  0  0  0
   22.2342  -22.7836  -13.6871 O   0  0  0  0  0  0  0  0  0  0  0  0
   22.6717  -20.4301  -13.5633 C   0  0  2  0  0  0  0  0  0  0  0  0
   23.7209  -20.7605  -12.5609 N   0  0  0  0  0  0  0  0  0  0  0  0
   21.4192  -20.1123  -12.8597 C   0  0  0  0  0  0  0  0  0  0  0  0
   21.2368  -20.5796  -11.6843 O   0  0  0  0  0  0  0  0  0  0  0  0
   18.2986  -18.0000  -13.1814 C   0  0  0  0  0  0  0  0  0  0  0  0
   19.2193  -18.9661  -12.5189 C   0  0  2  0  0  0  0  0  0  0  0  0
   20.3565  -19.3196  -13.3502 N   0  0  0  0  0  0  0  0  0  0  0  0
   18.4461  -20.1872  -12.1347 C   0  0  0  0  0  0  0  0  0  0  0  0
   18.5464  -21.1829  -12.8896 O   0  0  0  0  0  0  0  0  0  0  0  0
   17.6453  -20.2879  -11.0253 O   0  0  0  0  0  0  0  0  0  0  0  0
  2  3  1  0
  2  1  1  6
  2 13  1  0
  4  3  1  0
  4  5  2  0
  6  5  1  0
  7  6  1  0
  8  7  2  0
  9  8  1  0
 10  9  2  0
 10 11  1  0
 11 12  2  0
 12  7  1  0
 12  4  1  0
 13 19  1  0
 14 13  2  0
 16 17  1  0
 16 15  1  1
 18 16  1  0
 18 19  1  1
 20 21  2  0
 20 18  1  0
 23 24  1  0
 23 22  1  6
 24 20  1  0
 25 23  1  0
 26 25  2  0
 27 25  1  0
M  END
$$$$
