WTA.pdb
     RDKit          3D

 27 28  0  0  1  0  0  0  0  0999 V2000
   24.0737  -20.6697  -11.4296 N   0  0  0  0  0  0  0  0  0  0  0  0
   25.4828  -20.6311  -11.6728 C   0  0  1  0  0  0  0  0  0  0  0  0
   26.1850  -21.5963  -10.7512 C   0  0  0  0  0  0  0  0  0  0  0  0
   26.4121  -20.9786   -9.4237 C   0  0  0  0  0  0  0  0  0  0  0  0
   25.3812  -20.5932   -8.5853 C   0  0  0  0  0  0  0  0  0  0  0  0
   25.8632  -20.1032   -7.4520 N   0  0  0  0  0  0  0  0  0  0  0  0
   27.2120  -20.1589   -7.5300 C   0  0  0  0  0  0  0  0  0  0  0  0
   28.2107  -19.7830   -6.6508 C   0  0  0  0  0  0  0  0  0  0  0  0
   29.5260  -19.9419   -6.9800 C   0  0  0  0  0  0  0  0  0  0  0  0
   29.8825  -20.4776   -8.1907 C   0  0  0  0  0  0  0  0  0  0  0  0
   28.8957  -20.8675   -9.1014 C   0  0  0  0  0  0  0  0  0  0  0  0
   27.5740  -20.7003   -8.7501 C   0  0  0  0  0  0  0  0  0  0  0  0
   25.8248  -20.8672  -13.0957 C   0  0  0  0  0  0  0  0  0  0  0  0
   25.1177  -21.7413  -13.7063 O   0  0  0  0  0  0  0  0  0  0  0  0
   28.7794  -18.6249  -15.1063 C   0  0  0  0  0  0  0  0  0  0  0  0
   27.4759  -18.9631  -15.7724 C   0  0  1  0  0  0  0  0  0  0  0  0
   27.7807  -19.0739  -17.1527 O   0  0  0  0  0  0  0  0  0  0  0  0
   26.9715  -20.3213  -15.2725 C   0  0  2  0  0  0  0  0  0  0  0  0
   26.8467  -20.2094  -13.7937 N   0  0  0  0  0  0  0  0  0  0  0  0
   27.8898  -21.4249  -15.5943 C   0  0  0  0  0  0  0  0  0  0  0  0
   28.8863  -21.6421  -14.8241 O   0  0  0  0  0  0  0  0  0  0  0  0
   28.0594  -24.6657  -17.2998 C   0  0  0  0  0  0  0  0  0  0  0  0
   28.7282  -23.4011  -16.8830 C   0  0  2  0  0  0  0  0  0  0  0  0
   27.7931  -22.3059  -16.6956 N   0  0  0  0  0  0  0  0  0  0  0  0
   29.7644  -23.0427  -17.8999 C   0  0  0  0  0  0  0  0  0  0  0  0
   29.4658  -22.1447  -18.7218 O   0  0  0  0  0  0  0  0  0  0  0  0
   31.0037  -23.6243  -17.9910 O   0  0  0  0  0  0  0  0  0  0  0  0
  2  3  1  0
  2  1  1  6
  2 13  1  0
  4  3  1  0
  4  5  2  0
  6  5  1  0
  7  6  1  0
  8  7  2  0
  9  8  1  0
 10  9  2  0
 10 11  1  0
 11 12  2  0
 12  7  1  0
 12  4  1  0
 13 19  1  0
 14 13  2  0
 16 17  1  0
 16 15  1  1
 18 16  1  0
 18 19  1  1
 20 21  2  0
 20 18  1  0
 23 24  1  0
 23 22  1  6
 24 20  1  0
 25 23  1  0
 26 25  2  0
 27 25  1  0
M  END
$$$$
