WTA.pdb
     RDKit          3D

 27 28  0  0  1  0  0  0  0  0999 V2000
   24.9488  -21.0580   -9.7008 N   0  0  0  0  0  0  0  0  0  0  0  0
   26.2036  -20.3714   -9.7034 C   0  0  1  0  0  0  0  0  0  0  0  0
   27.1598  -21.0550   -8.7587 C   0  0  0  0  0  0  0  0  0  0  0  0
   26.7554  -20.8270   -7.3516 C   0  0  0  0  0  0  0  0  0  0  0  0
   25.5092  -21.1728   -6.8600 C   0  0  0  0  0  0  0  0  0  0  0  0
   25.4256  -20.8911   -5.5675 N   0  0  0  0  0  0  0  0  0  0  0  0
   26.6107  -20.3580   -5.1936 C   0  0  0  0  0  0  0  0  0  0  0  0
   27.0763  -19.8848   -3.9807 C   0  0  0  0  0  0  0  0  0  0  0  0
   28.3393  -19.3791   -3.8677 C   0  0  0  0  0  0  0  0  0  0  0  0
   29.1713  -19.3302   -4.9563 C   0  0  0  0  0  0  0  0  0  0  0  0
   28.7297  -19.8010   -6.1967 C   0  0  0  0  0  0  0  0  0  0  0  0
   27.4523  -20.3089   -6.2900 C   0  0  0  0  0  0  0  0  0  0  0  0
   26.7722  -20.2232  -11.0642 C   0  0  0  0  0  0  0  0  0  0  0  0
   27.7179  -21.0292  -11.3693 O   0  0  0  0  0  0  0  0  0  0  0  0
   27.7185  -21.5111  -13.1565 C   0  0  0  0  0  0  0  0  0  0  0  0
   27.0063  -20.4934  -14.0014 C   0  0  1  0  0  0  0  0  0  0  0  0
   25.6586  -20.9309  -14.0547 O   0  0  0  0  0  0  0  0  0  0  0  0
   27.0488  -19.1236  -13.3150 C   0  0  2  0  0  0  0  0  0  0  0  0
   26.3487  -19.2807  -12.0111 N   0  0  0  0  0  0  0  0  0  0  0  0
   26.3779  -18.0727  -14.0962 C   0  0  0  0  0  0  0  0  0  0  0  0
   25.1543  -17.8031  -13.8437 O   0  0  0  0  0  0  0  0  0  0  0  0
   27.0427  -15.3504  -16.6152 C   0  0  0  0  0  0  0  0  0  0  0  0
   26.1831  -16.2983  -15.8520 C   0  0  2  0  0  0  0  0  0  0  0  0
   26.9511  -17.2972  -15.1298 N   0  0  0  0  0  0  0  0  0  0  0  0
   25.2239  -16.9505  -16.7959 C   0  0  0  0  0  0  0  0  0  0  0  0
   25.4849  -18.1247  -17.1485 O   0  0  0  0  0  0  0  0  0  0  0  0
   24.0922  -16.3561  -17.2943 O   0  0  0  0  0  0  0  0  0  0  0  0
  2  3  1  0
  2  1  1  6
  2 13  1  0
  4  3  1  0
  4  5  2  0
  6  5  1  0
  7  6  1  0
  8  7  2  0
  9  8  1  0
 10  9  2  0
 10 11  1  0
 11 12  2  0
 12  7  1  0
 12  4  1  0
 13 19  1  0
 14 13  2  0
 16 17  1  0
 16 15  1  1
 18 16  1  0
 18 19  1  1
 20 21  2  0
 20 18  1  0
 23 24  1  0
 23 22  1  6
 24 20  1  0
 25 23  1  0
 26 25  2  0
 27 25  1  0
M  END
$$$$
