WTA.pdb
     RDKit          3D

 27 28  0  0  1  0  0  0  0  0999 V2000
   28.0234  -20.6954  -11.1173 N   0  0  0  0  0  0  0  0  0  0  0  0
   26.7758  -21.3803  -10.9752 C   0  0  1  0  0  0  0  0  0  0  0  0
   26.3647  -21.3937   -9.5243 C   0  0  0  0  0  0  0  0  0  0  0  0
   27.4985  -20.9960   -8.6573 C   0  0  0  0  0  0  0  0  0  0  0  0
   27.3836  -20.0530   -7.6514 C   0  0  0  0  0  0  0  0  0  0  0  0
   28.5360  -19.9144   -7.0114 N   0  0  0  0  0  0  0  0  0  0  0  0
   29.4207  -20.7603   -7.5860 C   0  0  0  0  0  0  0  0  0  0  0  0
   30.7534  -21.0263   -7.3312 C   0  0  0  0  0  0  0  0  0  0  0  0
   31.4370  -21.9421   -8.0779 C   0  0  0  0  0  0  0  0  0  0  0  0
   30.8146  -22.6164   -9.0966 C   0  0  0  0  0  0  0  0  0  0  0  0
   29.4675  -22.3695   -9.3789 C   0  0  0  0  0  0  0  0  0  0  0  0
   28.7945  -21.4427   -8.6133 C   0  0  0  0  0  0  0  0  0  0  0  0
   25.7159  -20.8270  -11.8515 C   0  0  0  0  0  0  0  0  0  0  0  0
   25.8540  -19.6027  -12.1966 O   0  0  0  0  0  0  0  0  0  0  0  0
   25.2552  -21.6814  -15.1092 C   0  0  0  0  0  0  0  0  0  0  0  0
   23.8479  -21.8068  -14.5987 C   0  0  1  0  0  0  0  0  0  0  0  0
   23.6944  -23.1756  -14.2620 O   0  0  0  0  0  0  0  0  0  0  0  0
   23.6776  -20.9685  -13.3269 C   0  0  2  0  0  0  0  0  0  0  0  0
   24.6031  -21.5433  -12.3129 N   0  0  0  0  0  0  0  0  0  0  0  0
   22.3048  -21.0052  -12.7987 C   0  0  0  0  0  0  0  0  0  0  0  0
   22.0488  -21.7594  -11.7991 O   0  0  0  0  0  0  0  0  0  0  0  0
   18.9200  -19.3710  -13.2109 C   0  0  0  0  0  0  0  0  0  0  0  0
   19.8928  -20.3500  -12.6494 C   0  0  2  0  0  0  0  0  0  0  0  0
   21.1965  -20.2750  -13.2851 N   0  0  0  0  0  0  0  0  0  0  0  0
   19.3224  -21.7267  -12.7752 C   0  0  0  0  0  0  0  0  0  0  0  0
   19.6579  -22.3897  -13.7847 O   0  0  0  0  0  0  0  0  0  0  0  0
   18.4678  -22.3039  -11.8703 O   0  0  0  0  0  0  0  0  0  0  0  0
  2  3  1  0
  2  1  1  1
  2 13  1  0
  4  3  1  0
  4  5  2  0
  6  5  1  0
  7  6  1  0
  8  7  2  0
  9  8  1  0
 10  9  2  0
 10 11  1  0
 11 12  2  0
 12  7  1  0
 12  4  1  0
 13 19  1  0
 14 13  2  0
 16 17  1  0
 16 15  1  1
 18 16  1  0
 18 19  1  1
 20 21  2  0
 20 18  1  0
 23 24  1  0
 23 22  1  6
 24 20  1  0
 25 23  1  0
 26 25  2  0
 27 25  1  0
M  END
$$$$
