WTA.pdb
     RDKit          3D

 27 28  0  0  1  0  0  0  0  0999 V2000
   15.2328  -21.7517    3.9683 N   0  0  0  0  0  0  0  0  0  0  0  0
   16.5321  -22.0265    4.4994 C   0  0  1  0  0  0  0  0  0  0  0  0
   17.5699  -21.8583    3.4183 C   0  0  0  0  0  0  0  0  0  0  0  0
   17.5987  -23.0464    2.5335 C   0  0  0  0  0  0  0  0  0  0  0  0
   16.6470  -23.2826    1.5573 C   0  0  0  0  0  0  0  0  0  0  0  0
   16.9305  -24.3933    0.8919 N   0  0  0  0  0  0  0  0  0  0  0  0
   18.0673  -24.9006    1.4197 C   0  0  0  0  0  0  0  0  0  0  0  0
   18.8069  -26.0306    1.1233 C   0  0  0  0  0  0  0  0  0  0  0  0
   19.9387  -26.3278    1.8264 C   0  0  0  0  0  0  0  0  0  0  0  0
   20.3641  -25.5106    2.8418 C   0  0  0  0  0  0  0  0  0  0  0  0
   19.6378  -24.3605    3.1657 C   0  0  0  0  0  0  0  0  0  0  0  0
   18.4992  -24.0771    2.4436 C   0  0  0  0  0  0  0  0  0  0  0  0
   16.8417  -21.2176    5.7024 C   0  0  0  0  0  0  0  0  0  0  0  0
   16.4849  -19.9895    5.6612 O   0  0  0  0  0  0  0  0  0  0  0  0
   15.4785  -21.6963    8.9673 C   0  0  0  0  0  0  0  0  0  0  0  0
   16.9584  -21.6160    9.2130 C   0  0  1  0  0  0  0  0  0  0  0  0
   17.4118  -22.9594    9.1983 O   0  0  0  0  0  0  0  0  0  0  0  0
   17.6374  -20.8584    8.0666 C   0  0  2  0  0  0  0  0  0  0  0  0
   17.4831  -21.7023    6.8504 N   0  0  0  0  0  0  0  0  0  0  0  0
   19.0693  -20.6219    8.3078 C   0  0  0  0  0  0  0  0  0  0  0  0
   19.9169  -21.4730    7.8711 O   0  0  0  0  0  0  0  0  0  0  0  0
   21.4954  -18.0604    9.6354 C   0  0  0  0  0  0  0  0  0  0  0  0
   21.0649  -19.4309    9.2398 C   0  0  2  0  0  0  0  0  0  0  0  0
   19.6371  -19.5216    8.9899 N   0  0  0  0  0  0  0  0  0  0  0  0
   21.4767  -20.3951   10.3061 C   0  0  0  0  0  0  0  0  0  0  0  0
   20.5829  -20.7861   11.0932 O   0  0  0  0  0  0  0  0  0  0  0  0
   22.7512  -20.8735   10.4771 O   0  0  0  0  0  0  0  0  0  0  0  0
  2  3  1  0
  2  1  1  6
  2 13  1  0
  4  3  1  0
  4  5  2  0
  6  5  1  0
  7  6  1  0
  8  7  2  0
  9  8  1  0
 10  9  2  0
 10 11  1  0
 11 12  2  0
 12  7  1  0
 12  4  1  0
 13 19  1  0
 14 13  2  0
 16 17  1  0
 16 15  1  6
 18 16  1  0
 18 19  1  6
 20 21  2  0
 20 18  1  0
 23 24  1  0
 23 22  1  1
 24 20  1  0
 25 23  1  0
 26 25  2  0
 27 25  1  0
M  END
$$$$
