WTA.pdb
     RDKit          3D

 27 28  0  0  1  0  0  0  0  0999 V2000
   26.1173  -20.9555  -12.0134 N   0  0  0  0  0  0  0  0  0  0  0  0
   25.0515  -20.5459  -12.8748 C   0  0  1  0  0  0  0  0  0  0  0  0
   25.3597  -20.9515  -14.2942 C   0  0  0  0  0  0  0  0  0  0  0  0
   26.4116  -20.0806  -14.8688 C   0  0  0  0  0  0  0  0  0  0  0  0
   27.7288  -20.4808  -15.0077 C   0  0  0  0  0  0  0  0  0  0  0  0
   28.4467  -19.5243  -15.5792 N   0  0  0  0  0  0  0  0  0  0  0  0
   27.6148  -18.4863  -15.8222 C   0  0  0  0  0  0  0  0  0  0  0  0
   27.8209  -17.2423  -16.3894 C   0  0  0  0  0  0  0  0  0  0  0  0
   26.7917  -16.3544  -16.5163 C   0  0  0  0  0  0  0  0  0  0  0  0
   25.5323  -16.6794  -16.0827 C   0  0  0  0  0  0  0  0  0  0  0  0
   25.2919  -17.9297  -15.5047 C   0  0  0  0  0  0  0  0  0  0  0  0
   26.3431  -18.8124  -15.3868 C   0  0  0  0  0  0  0  0  0  0  0  0
   23.7292  -21.0431  -12.4258 C   0  0  0  0  0  0  0  0  0  0  0  0
   23.7262  -22.1781  -11.8353 O   0  0  0  0  0  0  0  0  0  0  0  0
   21.5272  -19.8456   -9.9455 C   0  0  0  0  0  0  0  0  0  0  0  0
   20.6264  -19.9652  -11.1419 C   0  0  1  0  0  0  0  0  0  0  0  0
   20.6116  -18.6739  -11.7275 O   0  0  0  0  0  0  0  0  0  0  0  0
   21.2257  -20.9522  -12.1498 C   0  0  2  0  0  0  0  0  0  0  0  0
   22.5157  -20.3645  -12.6032 N   0  0  0  0  0  0  0  0  0  0  0  0
   20.3602  -21.1696  -13.3196 C   0  0  0  0  0  0  0  0  0  0  0  0
   20.6086  -20.5296  -14.3976 O   0  0  0  0  0  0  0  0  0  0  0  0
   17.5888  -23.3668  -14.6126 C   0  0  0  0  0  0  0  0  0  0  0  0
   18.4355  -22.1409  -14.5927 C   0  0  2  0  0  0  0  0  0  0  0  0
   19.2465  -22.0371  -13.3925 N   0  0  0  0  0  0  0  0  0  0  0  0
   17.5550  -20.9412  -14.7406 C   0  0  0  0  0  0  0  0  0  0  0  0
   17.2775  -20.3089  -13.6945 O   0  0  0  0  0  0  0  0  0  0  0  0
   17.0384  -20.4931  -15.9300 O   0  0  0  0  0  0  0  0  0  0  0  0
  2  3  1  0
  2  1  1  1
  2 13  1  0
  4  3  1  0
  4  5  2  0
  6  5  1  0
  7  6  1  0
  8  7  2  0
  9  8  1  0
 10  9  2  0
 10 11  1  0
 11 12  2  0
 12  7  1  0
 12  4  1  0
 13 19  1  0
 14 13  2  0
 16 17  1  0
 16 15  1  1
 18 16  1  0
 18 19  1  6
 20 21  2  0
 20 18  1  0
 23 24  1  0
 23 22  1  1
 24 20  1  0
 25 23  1  0
 26 25  2  0
 27 25  1  0
M  END
$$$$
