WTA.pdb
     RDKit          3D

 27 28  0  0  1  0  0  0  0  0999 V2000
   16.0868  -15.8350    4.7243 N   0  0  0  0  0  0  0  0  0  0  0  0
   17.4961  -16.0137    4.8913 C   0  0  1  0  0  0  0  0  0  0  0  0
   18.2373  -15.2242    3.8418 C   0  0  0  0  0  0  0  0  0  0  0  0
   18.4872  -16.0572    2.6422 C   0  0  0  0  0  0  0  0  0  0  0  0
   17.4711  -16.5708    1.8560 C   0  0  0  0  0  0  0  0  0  0  0  0
   17.9729  -17.2470    0.8324 N   0  0  0  0  0  0  0  0  0  0  0  0
   19.3201  -17.1880    0.9318 C   0  0  0  0  0  0  0  0  0  0  0  0
   20.3341  -17.7125    0.1517 C   0  0  0  0  0  0  0  0  0  0  0  0
   21.6434  -17.5094    0.4806 C   0  0  0  0  0  0  0  0  0  0  0  0
   21.9786  -16.7807    1.5925 C   0  0  0  0  0  0  0  0  0  0  0  0
   20.9760  -16.2371    2.4016 C   0  0  0  0  0  0  0  0  0  0  0  0
   19.6607  -16.4521    2.0522 C   0  0  0  0  0  0  0  0  0  0  0  0
   17.9557  -15.6898    6.2629 C   0  0  0  0  0  0  0  0  0  0  0  0
   17.7912  -14.4781    6.6395 O   0  0  0  0  0  0  0  0  0  0  0  0
   16.7212  -16.2547    9.4084 C   0  0  0  0  0  0  0  0  0  0  0  0
   18.1010  -16.8389    9.5174 C   0  0  1  0  0  0  0  0  0  0  0  0
   17.9531  -18.2087    9.1823 O   0  0  0  0  0  0  0  0  0  0  0  0
   19.0287  -16.1817    8.4896 C   0  0  2  0  0  0  0  0  0  0  0  0
   18.5426  -16.6044    7.1480 N   0  0  0  0  0  0  0  0  0  0  0  0
   20.4329  -16.5933    8.6426 C   0  0  0  0  0  0  0  0  0  0  0  0
   20.8522  -17.6091    7.9900 O   0  0  0  0  0  0  0  0  0  0  0  0
   23.6706  -15.6065   10.3231 C   0  0  0  0  0  0  0  0  0  0  0  0
   22.7400  -16.5287    9.6134 C   0  0  2  0  0  0  0  0  0  0  0  0
   21.4079  -15.9720    9.4560 N   0  0  0  0  0  0  0  0  0  0  0  0
   22.6857  -17.8269   10.3537 C   0  0  0  0  0  0  0  0  0  0  0  0
   21.7232  -17.9919   11.1396 O   0  0  0  0  0  0  0  0  0  0  0  0
   23.6076  -18.8356   10.2307 O   0  0  0  0  0  0  0  0  0  0  0  0
  2  3  1  0
  2  1  1  1
  2 13  1  0
  4  3  1  0
  4  5  2  0
  6  5  1  0
  7  6  1  0
  8  7  2  0
  9  8  1  0
 10  9  2  0
 10 11  1  0
 11 12  2  0
 12  7  1  0
 12  4  1  0
 13 19  1  0
 14 13  2  0
 16 17  1  0
 16 15  1  6
 18 16  1  0
 18 19  1  6
 20 21  2  0
 20 18  1  0
 23 24  1  0
 23 22  1  1
 24 20  1  0
 25 23  1  0
 26 25  2  0
 27 25  1  0
M  END
$$$$
