WTA.pdb
     RDKit          3D

 27 28  0  0  1  0  0  0  0  0999 V2000
   28.1379  -21.5142  -10.6599 N   0  0  0  0  0  0  0  0  0  0  0  0
   26.8508  -21.1194  -10.1767 C   0  0  1  0  0  0  0  0  0  0  0  0
   27.0101  -20.0872   -9.0889 C   0  0  0  0  0  0  0  0  0  0  0  0
   28.0774  -20.4875   -8.1422 C   0  0  0  0  0  0  0  0  0  0  0  0
   29.0943  -21.3631   -8.4791 C   0  0  0  0  0  0  0  0  0  0  0  0
   29.9284  -21.5194   -7.4610 N   0  0  0  0  0  0  0  0  0  0  0  0
   29.4727  -20.7525   -6.4449 C   0  0  0  0  0  0  0  0  0  0  0  0
   29.9386  -20.5366   -5.1611 C   0  0  0  0  0  0  0  0  0  0  0  0
   29.2756  -19.7004   -4.3098 C   0  0  0  0  0  0  0  0  0  0  0  0
   28.1331  -19.0579   -4.7118 C   0  0  0  0  0  0  0  0  0  0  0  0
   27.6366  -19.2555   -6.0040 C   0  0  0  0  0  0  0  0  0  0  0  0
   28.3207  -20.1021   -6.8486 C   0  0  0  0  0  0  0  0  0  0  0  0
   25.9502  -20.6564  -11.2592 C   0  0  0  0  0  0  0  0  0  0  0  0
   26.3916  -19.7019  -11.9881 O   0  0  0  0  0  0  0  0  0  0  0  0
   25.1815  -22.1826  -14.1488 C   0  0  0  0  0  0  0  0  0  0  0  0
   23.7956  -21.8341  -13.6852 C   0  0  1  0  0  0  0  0  0  0  0  0
   23.3175  -22.9984  -13.0324 O   0  0  0  0  0  0  0  0  0  0  0  0
   23.8585  -20.6924  -12.6646 C   0  0  2  0  0  0  0  0  0  0  0  0
   24.6803  -21.1859  -11.5261 N   0  0  0  0  0  0  0  0  0  0  0  0
   22.5316  -20.3005  -12.1640 C   0  0  0  0  0  0  0  0  0  0  0  0
   22.1300  -20.7733  -11.0466 O   0  0  0  0  0  0  0  0  0  0  0  0
   19.5885  -18.0602  -12.9279 C   0  0  0  0  0  0  0  0  0  0  0  0
   20.2859  -19.1978  -12.2650 C   0  0  2  0  0  0  0  0  0  0  0  0
   21.6171  -19.4287  -12.7979 N   0  0  0  0  0  0  0  0  0  0  0  0
   19.4436  -20.4264  -12.3975 C   0  0  0  0  0  0  0  0  0  0  0  0
   18.3555  -20.4379  -11.7754 O   0  0  0  0  0  0  0  0  0  0  0  0
   19.7790  -21.5267  -13.1453 O   0  0  0  0  0  0  0  0  0  0  0  0
  2  3  1  0
  2  1  1  6
  2 13  1  0
  4  3  1  0
  4  5  2  0
  6  5  1  0
  7  6  1  0
  8  7  2  0
  9  8  1  0
 10  9  2  0
 10 11  1  0
 11 12  2  0
 12  7  1  0
 12  4  1  0
 13 19  1  0
 14 13  2  0
 16 17  1  0
 16 15  1  1
 18 16  1  0
 18 19  1  1
 20 21  2  0
 20 18  1  0
 23 24  1  0
 23 22  1  6
 24 20  1  0
 25 23  1  0
 26 25  2  0
 27 25  1  0
M  END
$$$$
