WTA.pdb
     RDKit          3D

 27 28  0  0  1  0  0  0  0  0999 V2000
   25.3304  -21.6587   -9.4278 N   0  0  0  0  0  0  0  0  0  0  0  0
   25.9099  -20.3734   -9.6685 C   0  0  1  0  0  0  0  0  0  0  0  0
   27.1946  -20.2403   -8.8901 C   0  0  0  0  0  0  0  0  0  0  0  0
   26.9289  -20.2873   -7.4332 C   0  0  0  0  0  0  0  0  0  0  0  0
   25.7382  -20.7461   -6.8984 C   0  0  0  0  0  0  0  0  0  0  0  0
   25.7805  -20.7120   -5.5741 N   0  0  0  0  0  0  0  0  0  0  0  0
   26.9943  -20.2317   -5.2217 C   0  0  0  0  0  0  0  0  0  0  0  0
   27.5746  -19.9824   -3.9917 C   0  0  0  0  0  0  0  0  0  0  0  0
   28.8406  -19.4787   -3.9069 C   0  0  0  0  0  0  0  0  0  0  0  0
   29.5619  -19.2095   -5.0413 C   0  0  0  0  0  0  0  0  0  0  0  0
   29.0027  -19.4508   -6.3000 C   0  0  0  0  0  0  0  0  0  0  0  0
   27.7244  -19.9606   -6.3647 C   0  0  0  0  0  0  0  0  0  0  0  0
   26.0988  -20.0918  -11.1116 C   0  0  0  0  0  0  0  0  0  0  0  0
   27.2906  -20.2222  -11.5585 O   0  0  0  0  0  0  0  0  0  0  0  0
   27.2591  -21.0693  -13.2075 C   0  0  0  0  0  0  0  0  0  0  0  0
   25.9825  -20.8008  -13.9526 C   0  0  1  0  0  0  0  0  0  0  0  0
   25.1271  -21.8841  -13.6283 O   0  0  0  0  0  0  0  0  0  0  0  0
   25.3438  -19.5041  -13.4431 C   0  0  2  0  0  0  0  0  0  0  0  0
   25.0800  -19.7028  -11.9919 N   0  0  0  0  0  0  0  0  0  0  0  0
   24.0775  -19.1865  -14.1217 C   0  0  0  0  0  0  0  0  0  0  0  0
   22.9821  -19.5961  -13.6060 O   0  0  0  0  0  0  0  0  0  0  0  0
   22.6836  -17.2433  -17.0518 C   0  0  0  0  0  0  0  0  0  0  0  0
   22.6174  -18.1531  -15.8737 C   0  0  2  0  0  0  0  0  0  0  0  0
   23.9264  -18.4528  -15.3205 N   0  0  0  0  0  0  0  0  0  0  0  0
   21.9115  -19.4102  -16.2710 C   0  0  0  0  0  0  0  0  0  0  0  0
   22.6287  -20.4008  -16.5461 O   0  0  0  0  0  0  0  0  0  0  0  0
   20.5490  -19.5487  -16.3528 O   0  0  0  0  0  0  0  0  0  0  0  0
  2  3  1  0
  2  1  1  6
  2 13  1  0
  4  3  1  0
  4  5  2  0
  6  5  1  0
  7  6  1  0
  8  7  2  0
  9  8  1  0
 10  9  2  0
 10 11  1  0
 11 12  2  0
 12  7  1  0
 12  4  1  0
 13 19  1  0
 14 13  2  0
 16 17  1  0
 16 15  1  1
 18 16  1  0
 18 19  1  1
 20 21  2  0
 20 18  1  0
 23 24  1  0
 23 22  1  6
 24 20  1  0
 25 23  1  0
 26 25  2  0
 27 25  1  0
M  END
$$$$
