GYH.pdb
     RDKit          3D

 27 28  0  0  1  0  0  0  0  0999 V2000
    6.5704  -19.5884   19.7893 N   0  0  0  0  0  0  0  0  0  0  0  0
    5.9558  -18.8347   20.8428 C   0  0  0  0  0  0  0  0  0  0  0  0
    6.9815  -18.0961   21.6407 C   0  0  0  0  0  0  0  0  0  0  0  0
    8.1389  -18.5528   21.6787 O   0  0  0  0  0  0  0  0  0  0  0  0
    8.3810  -12.3282   18.1322 O   0  0  0  0  0  0  0  0  0  0  0  0
    8.1887  -12.9246   19.3821 C   0  0  0  0  0  0  0  0  0  0  0  0
    9.2436  -13.2243   20.2239 C   0  0  0  0  0  0  0  0  0  0  0  0
    9.0053  -13.8113   21.4447 C   0  0  0  0  0  0  0  0  0  0  0  0
    7.7363  -14.1272   21.8900 C   0  0  0  0  0  0  0  0  0  0  0  0
    7.4842  -14.7544   23.1951 C   0  0  0  0  0  0  0  0  0  0  0  0
    7.6914  -16.2566   23.1633 C   0  0  2  0  0  0  0  0  0  0  0  0
    6.6941  -16.9125   22.3467 N   0  0  0  0  0  0  0  0  0  0  0  0
    7.5646  -16.7912   24.5497 C   0  0  0  0  0  0  0  0  0  0  0  0
    6.4930  -16.6727   25.2132 O   0  0  0  0  0  0  0  0  0  0  0  0
    6.6762  -13.8286   21.0495 C   0  0  0  0  0  0  0  0  0  0  0  0
    6.9184  -13.2412   19.8285 C   0  0  0  0  0  0  0  0  0  0  0  0
    8.6573  -17.4430   25.1394 N   0  0  0  0  0  0  0  0  0  0  0  0
    8.4627  -18.0511   26.4907 C   0  0  1  0  0  0  0  0  0  0  0  0
    8.6234  -19.5182   26.2465 C   0  0  0  0  0  0  0  0  0  0  0  0
    7.5666  -20.1959   25.5233 C   0  0  0  0  0  0  0  0  0  0  0  0
    6.2918  -19.8340   25.2525 C   0  0  0  0  0  0  0  0  0  0  0  0
    5.7510  -20.8180   24.5018 N   0  0  0  0  0  0  0  0  0  0  0  0
    6.6578  -21.7677   24.3066 C   0  0  0  0  0  0  0  0  0  0  0  0
    7.7748  -21.4086   24.9215 N   0  0  0  0  0  0  0  0  0  0  0  0
    9.5872  -17.4676   27.2910 C   0  0  0  0  0  0  0  0  0  0  0  0
    9.7190  -17.7786   28.5282 O   0  0  0  0  0  0  0  0  0  0  0  0
   10.5284  -16.5940   26.8018 O   0  0  0  0  0  0  0  0  0  0  0  0
  2  1  1  0
  3  4  2  0
  3  2  1  0
  6  5  1  0
  6  7  2  0
  8  7  1  0
  9  8  2  0
 10  9  1  0
 11 12  1  0
 11 10  1  1
 12  3  1  0
 13 11  1  0
 14 13  2  0
 15 16  2  0
 15  9  1  0
 16  6  1  0
 17 13  1  0
 18 19  1  6
 18 17  1  0
 19 20  1  0
 20 21  2  0
 21 22  1  0
 23 22  1  0
 24 20  1  0
 24 23  2  0
 25 27  1  0
 25 18  1  0
 26 25  2  0
M  END
$$$$
