GYH.pdb
     RDKit          3D

 27 28  0  0  1  0  0  0  0  0999 V2000
    7.9741  -20.0179   19.9823 N   0  0  0  0  0  0  0  0  0  0  0  0
    7.5037  -19.1416   21.0150 C   0  0  0  0  0  0  0  0  0  0  0  0
    8.5306  -18.1077   21.3480 C   0  0  0  0  0  0  0  0  0  0  0  0
    9.7117  -18.3238   21.0197 O   0  0  0  0  0  0  0  0  0  0  0  0
    6.9802  -12.4310   17.3848 O   0  0  0  0  0  0  0  0  0  0  0  0
    7.4121  -12.9394   18.6136 C   0  0  0  0  0  0  0  0  0  0  0  0
    8.7458  -12.9496   18.9773 C   0  0  0  0  0  0  0  0  0  0  0  0
    9.1233  -13.4604   20.1972 C   0  0  0  0  0  0  0  0  0  0  0  0
    8.2202  -13.9784   21.1051 C   0  0  0  0  0  0  0  0  0  0  0  0
    8.6260  -14.5238   22.4083 C   0  0  0  0  0  0  0  0  0  0  0  0
    9.2293  -15.9104   22.2913 C   0  0  2  0  0  0  0  0  0  0  0  0
    8.2187  -16.9070   22.0135 N   0  0  0  0  0  0  0  0  0  0  0  0
    9.8737  -16.2679   23.5878 C   0  0  0  0  0  0  0  0  0  0  0  0
    9.1913  -16.4968   24.6293 O   0  0  0  0  0  0  0  0  0  0  0  0
    6.8825  -13.9703   20.7448 C   0  0  0  0  0  0  0  0  0  0  0  0
    6.5083  -13.4583   19.5231 C   0  0  0  0  0  0  0  0  0  0  0  0
   11.2714  -16.3544   23.6617 N   0  0  0  0  0  0  0  0  0  0  0  0
   11.8661  -17.0936   24.8166 C   0  0  1  0  0  0  0  0  0  0  0  0
   11.4036  -18.5017   24.6133 C   0  0  0  0  0  0  0  0  0  0  0  0
   11.8461  -19.4961   25.5697 C   0  0  0  0  0  0  0  0  0  0  0  0
   12.5840  -19.3875   26.6981 C   0  0  0  0  0  0  0  0  0  0  0  0
   12.6648  -20.6223   27.2394 N   0  0  0  0  0  0  0  0  0  0  0  0
   11.9979  -21.4791   26.4757 C   0  0  0  0  0  0  0  0  0  0  0  0
   11.4892  -20.8129   25.4500 N   0  0  0  0  0  0  0  0  0  0  0  0
   13.3400  -16.9284   24.6031 C   0  0  0  0  0  0  0  0  0  0  0  0
   14.1627  -17.2986   25.5145 O   0  0  0  0  0  0  0  0  0  0  0  0
   13.9150  -16.3947   23.4749 O   0  0  0  0  0  0  0  0  0  0  0  0
  2  1  1  0
  3  4  2  0
  3  2  1  0
  6  5  1  0
  6  7  2  0
  8  7  1  0
  9  8  2  0
 10  9  1  0
 11 12  1  0
 11 10  1  1
 12  3  1  0
 13 11  1  0
 14 13  2  0
 15 16  2  0
 15  9  1  0
 16  6  1  0
 17 13  1  0
 18 19  1  6
 18 17  1  0
 19 20  1  0
 20 21  2  0
 21 22  1  0
 23 22  1  0
 24 20  1  0
 24 23  2  0
 25 27  1  0
 25 18  1  0
 26 25  2  0
M  END
$$$$
