GYH.pdb
     RDKit          3D

 27 28  0  0  1  0  0  0  0  0999 V2000
    6.5116  -19.1426   19.7992 N   0  0  0  0  0  0  0  0  0  0  0  0
    5.8424  -18.5423   20.9161 C   0  0  0  0  0  0  0  0  0  0  0  0
    6.8066  -17.7917   21.7769 C   0  0  0  0  0  0  0  0  0  0  0  0
    7.8998  -18.3255   22.0403 O   0  0  0  0  0  0  0  0  0  0  0  0
    8.6000  -12.3870   17.8362 O   0  0  0  0  0  0  0  0  0  0  0  0
    8.3141  -12.8591   19.1209 C   0  0  0  0  0  0  0  0  0  0  0  0
    9.2963  -13.0206   20.0804 C   0  0  0  0  0  0  0  0  0  0  0  0
    8.9670  -13.4883   21.3311 C   0  0  0  0  0  0  0  0  0  0  0  0
    7.6746  -13.8150   21.6933 C   0  0  0  0  0  0  0  0  0  0  0  0
    7.3252  -14.3148   23.0307 C   0  0  0  0  0  0  0  0  0  0  0  0
    7.4783  -15.8195   23.1429 C   0  0  2  0  0  0  0  0  0  0  0  0
    6.5308  -16.5136   22.2989 N   0  0  0  0  0  0  0  0  0  0  0  0
    7.2135  -16.2283   24.5524 C   0  0  0  0  0  0  0  0  0  0  0  0
    6.0366  -16.3087   25.0121 O   0  0  0  0  0  0  0  0  0  0  0  0
    6.6871  -13.6547   20.7349 C   0  0  0  0  0  0  0  0  0  0  0  0
    7.0203  -13.1864   19.4842 C   0  0  0  0  0  0  0  0  0  0  0  0
    8.2918  -16.5328   25.3956 N   0  0  0  0  0  0  0  0  0  0  0  0
    8.0357  -17.4328   26.5611 C   0  0  1  0  0  0  0  0  0  0  0  0
    7.6287  -18.7260   25.9286 C   0  0  0  0  0  0  0  0  0  0  0  0
    7.4501  -19.8699   26.7997 C   0  0  0  0  0  0  0  0  0  0  0  0
    7.4874  -19.9844   28.1469 C   0  0  0  0  0  0  0  0  0  0  0  0
    7.2083  -21.2722   28.4434 N   0  0  0  0  0  0  0  0  0  0  0  0
    7.0014  -21.9452   27.3181 C   0  0  0  0  0  0  0  0  0  0  0  0
    7.1437  -21.1083   26.3011 N   0  0  0  0  0  0  0  0  0  0  0  0
    9.3732  -17.5086   27.2322 C   0  0  0  0  0  0  0  0  0  0  0  0
    9.4506  -17.8554   28.4645 O   0  0  0  0  0  0  0  0  0  0  0  0
   10.5736  -17.2290   26.6246 O   0  0  0  0  0  0  0  0  0  0  0  0
  2  1  1  0
  3  4  2  0
  3  2  1  0
  6  5  1  0
  6  7  2  0
  8  7  1  0
  9  8  2  0
 10  9  1  0
 11 12  1  0
 11 10  1  1
 12  3  1  0
 13 11  1  0
 14 13  2  0
 15 16  2  0
 15  9  1  0
 16  6  1  0
 17 13  1  0
 18 19  1  6
 18 17  1  0
 19 20  1  0
 20 21  2  0
 21 22  1  0
 23 22  1  0
 24 20  1  0
 24 23  2  0
 25 27  1  0
 25 18  1  0
 26 25  2  0
M  END
$$$$
