GYH.pdb
     RDKit          3D

 27 28  0  0  1  0  0  0  0  0999 V2000
    7.4125  -19.7614   19.7975 N   0  0  0  0  0  0  0  0  0  0  0  0
    7.0011  -18.7054   20.6757 C   0  0  0  0  0  0  0  0  0  0  0  0
    8.1510  -17.8123   21.0137 C   0  0  0  0  0  0  0  0  0  0  0  0
    9.2867  -18.1421   20.6251 O   0  0  0  0  0  0  0  0  0  0  0  0
    7.0767  -12.4482   16.8524 O   0  0  0  0  0  0  0  0  0  0  0  0
    7.4984  -12.8975   18.1075 C   0  0  0  0  0  0  0  0  0  0  0  0
    8.8338  -13.0905   18.4089 C   0  0  0  0  0  0  0  0  0  0  0  0
    9.2009  -13.5340   19.6579 C   0  0  0  0  0  0  0  0  0  0  0  0
    8.2856  -13.8051   20.6564 C   0  0  0  0  0  0  0  0  0  0  0  0
    8.6803  -14.2790   21.9905 C   0  0  0  0  0  0  0  0  0  0  0  0
    9.1193  -15.7307   21.9810 C   0  0  2  0  0  0  0  0  0  0  0  0
    8.0033  -16.6209   21.7489 N   0  0  0  0  0  0  0  0  0  0  0  0
    9.6991  -16.0689   23.3127 C   0  0  0  0  0  0  0  0  0  0  0  0
    8.9668  -16.2690   24.3259 O   0  0  0  0  0  0  0  0  0  0  0  0
    6.9462  -13.6130   20.3588 C   0  0  0  0  0  0  0  0  0  0  0  0
    6.5824  -13.1691   19.1077 C   0  0  0  0  0  0  0  0  0  0  0  0
   11.0907  -16.1694   23.4529 N   0  0  0  0  0  0  0  0  0  0  0  0
   11.6267  -16.7129   24.7378 C   0  0  1  0  0  0  0  0  0  0  0  0
   11.2220  -18.1528   24.7108 C   0  0  0  0  0  0  0  0  0  0  0  0
   11.7712  -19.0216   25.7320 C   0  0  0  0  0  0  0  0  0  0  0  0
   12.5279  -18.7565   26.8214 C   0  0  0  0  0  0  0  0  0  0  0  0
   12.7255  -19.9292   27.4618 N   0  0  0  0  0  0  0  0  0  0  0  0
   12.1117  -20.8999   26.7962 C   0  0  0  0  0  0  0  0  0  0  0  0
   11.5218  -20.3683   25.7359 N   0  0  0  0  0  0  0  0  0  0  0  0
   13.1062  -16.5213   24.5969 C   0  0  0  0  0  0  0  0  0  0  0  0
   13.8715  -16.6906   25.6120 O   0  0  0  0  0  0  0  0  0  0  0  0
   13.7446  -16.1662   23.4331 O   0  0  0  0  0  0  0  0  0  0  0  0
  2  1  1  0
  3  4  2  0
  3  2  1  0
  6  5  1  0
  6  7  2  0
  8  7  1  0
  9  8  2  0
 10  9  1  0
 11 12  1  0
 11 10  1  1
 12  3  1  0
 13 11  1  0
 14 13  2  0
 15 16  2  0
 15  9  1  0
 16  6  1  0
 17 13  1  0
 18 19  1  6
 18 17  1  0
 19 20  1  0
 20 21  2  0
 21 22  1  0
 23 22  1  0
 24 20  1  0
 24 23  2  0
 25 27  1  0
 25 18  1  0
 26 25  2  0
M  END
$$$$
