GYH.pdb
     RDKit          3D

 27 28  0  0  1  0  0  0  0  0999 V2000
    6.4615  -16.2994   19.6725 N   0  0  0  0  0  0  0  0  0  0  0  0
    5.9729  -16.2673   21.0201 C   0  0  0  0  0  0  0  0  0  0  0  0
    7.0698  -15.9327   21.9788 C   0  0  0  0  0  0  0  0  0  0  0  0
    8.1142  -15.4290   21.5261 O   0  0  0  0  0  0  0  0  0  0  0  0
    6.3115  -10.0435   26.6347 O   0  0  0  0  0  0  0  0  0  0  0  0
    6.5731  -11.3989   26.4129 C   0  0  0  0  0  0  0  0  0  0  0  0
    5.7299  -12.3949   26.8694 C   0  0  0  0  0  0  0  0  0  0  0  0
    6.0289  -13.7153   26.6269 C   0  0  0  0  0  0  0  0  0  0  0  0
    7.1553  -14.1140   25.9338 C   0  0  0  0  0  0  0  0  0  0  0  0
    7.4727  -15.5258   25.6759 C   0  0  0  0  0  0  0  0  0  0  0  0
    8.0140  -15.7496   24.2769 C   0  0  2  0  0  0  0  0  0  0  0  0
    6.9708  -16.1625   23.3642 N   0  0  0  0  0  0  0  0  0  0  0  0
    9.0333  -16.8373   24.3215 C   0  0  0  0  0  0  0  0  0  0  0  0
    8.7024  -18.0564   24.4054 O   0  0  0  0  0  0  0  0  0  0  0  0
    8.0032  -13.1193   25.4745 C   0  0  0  0  0  0  0  0  0  0  0  0
    7.7008  -11.7989   25.7190 C   0  0  0  0  0  0  0  0  0  0  0  0
   10.3954  -16.5076   24.2696 N   0  0  0  0  0  0  0  0  0  0  0  0
   11.3766  -17.6179   24.0741 C   0  0  1  0  0  0  0  0  0  0  0  0
   12.3946  -17.0332   23.1469 C   0  0  0  0  0  0  0  0  0  0  0  0
   12.0078  -16.8408   21.7638 C   0  0  0  0  0  0  0  0  0  0  0  0
   11.0397  -16.0816   21.2018 C   0  0  0  0  0  0  0  0  0  0  0  0
   11.1426  -16.2345   19.8637 N   0  0  0  0  0  0  0  0  0  0  0  0
   12.1442  -17.0628   19.5939 C   0  0  0  0  0  0  0  0  0  0  0  0
   12.6873  -17.4455   20.7399 N   0  0  0  0  0  0  0  0  0  0  0  0
   11.9106  -17.8466   25.4553 C   0  0  0  0  0  0  0  0  0  0  0  0
   11.6301  -17.0185   26.3936 O   0  0  0  0  0  0  0  0  0  0  0  0
   12.7059  -18.9046   25.8245 O   0  0  0  0  0  0  0  0  0  0  0  0
  2  1  1  0
  3  4  2  0
  3  2  1  0
  6  5  1  0
  6  7  2  0
  8  7  1  0
  9  8  2  0
 10  9  1  0
 11 12  1  0
 11 10  1  1
 12  3  1  0
 13 11  1  0
 14 13  2  0
 15 16  2  0
 15  9  1  0
 16  6  1  0
 17 13  1  0
 18 19  1  6
 18 17  1  0
 19 20  1  0
 20 21  2  0
 21 22  1  0
 23 22  1  0
 24 20  1  0
 24 23  2  0
 25 27  1  0
 25 18  1  0
 26 25  2  0
M  END
$$$$
