GYH.pdb
     RDKit          3D

 27 28  0  0  1  0  0  0  0  0999 V2000
   16.1979  -18.3824   12.6168 N   0  0  0  0  0  0  0  0  0  0  0  0
   17.4572  -17.6972   12.6019 C   0  0  0  0  0  0  0  0  0  0  0  0
   18.3261  -18.1505   13.7306 C   0  0  0  0  0  0  0  0  0  0  0  0
   19.0352  -19.1591   13.5594 O   0  0  0  0  0  0  0  0  0  0  0  0
   24.5369  -18.1215   19.7537 O   0  0  0  0  0  0  0  0  0  0  0  0
   23.4954  -17.7722   18.8886 C   0  0  0  0  0  0  0  0  0  0  0  0
   23.5702  -17.9840   17.5245 C   0  0  0  0  0  0  0  0  0  0  0  0
   22.5199  -17.6238   16.7129 C   0  0  0  0  0  0  0  0  0  0  0  0
   21.3621  -17.0463   17.1968 C   0  0  0  0  0  0  0  0  0  0  0  0
   20.2409  -16.6622   16.3275 C   0  0  0  0  0  0  0  0  0  0  0  0
   19.3499  -17.8394   15.9804 C   0  0  2  0  0  0  0  0  0  0  0  0
   18.3750  -17.4876   14.9716 N   0  0  0  0  0  0  0  0  0  0  0  0
   18.6056  -18.2589   17.2027 C   0  0  0  0  0  0  0  0  0  0  0  0
   17.5450  -17.6731   17.5698 O   0  0  0  0  0  0  0  0  0  0  0  0
   21.2827  -16.8323   18.5633 C   0  0  0  0  0  0  0  0  0  0  0  0
   22.3358  -17.1940   19.3726 C   0  0  0  0  0  0  0  0  0  0  0  0
   19.0879  -19.3293   17.9696 N   0  0  0  0  0  0  0  0  0  0  0  0
   18.3047  -19.7334   19.1767 C   0  0  1  0  0  0  0  0  0  0  0  0
   18.1164  -21.2071   19.0010 C   0  0  0  0  0  0  0  0  0  0  0  0
   16.8601  -21.6587   18.4379 C   0  0  0  0  0  0  0  0  0  0  0  0
   15.7598  -20.9786   18.0426 C   0  0  0  0  0  0  0  0  0  0  0  0
   14.8897  -21.8854   17.5475 N   0  0  0  0  0  0  0  0  0  0  0  0
   15.4269  -23.0965   17.6284 C   0  0  0  0  0  0  0  0  0  0  0  0
   16.6308  -22.9820   18.1692 N   0  0  0  0  0  0  0  0  0  0  0  0
   19.2265  -19.3953   20.3086 C   0  0  0  0  0  0  0  0  0  0  0  0
   18.8828  -19.6651   21.5144 O   0  0  0  0  0  0  0  0  0  0  0  0
   20.4560  -18.7980   20.1684 O   0  0  0  0  0  0  0  0  0  0  0  0
  2  1  1  0
  3  4  2  0
  3  2  1  0
  6  5  1  0
  6  7  2  0
  8  7  1  0
  9  8  2  0
 10  9  1  0
 11 12  1  0
 11 10  1  1
 12  3  1  0
 13 11  1  0
 14 13  2  0
 15 16  2  0
 15  9  1  0
 16  6  1  0
 17 13  1  0
 18 19  1  6
 18 17  1  0
 19 20  1  0
 20 21  2  0
 21 22  1  0
 23 22  1  0
 24 20  1  0
 24 23  2  0
 25 27  1  0
 25 18  1  0
 26 25  2  0
M  END
$$$$
