GYH.pdb
     RDKit          3D

 27 28  0  0  1  0  0  0  0  0999 V2000
    7.8000  -12.8202   19.2276 N   0  0  0  0  0  0  0  0  0  0  0  0
    7.1054  -13.6670   20.1529 C   0  0  0  0  0  0  0  0  0  0  0  0
    7.9945  -14.0617   21.2878 C   0  0  0  0  0  0  0  0  0  0  0  0
    9.2103  -13.8099   21.1984 O   0  0  0  0  0  0  0  0  0  0  0  0
    6.0305  -10.3656   27.1703 O   0  0  0  0  0  0  0  0  0  0  0  0
    6.3998  -11.5821   26.5882 C   0  0  0  0  0  0  0  0  0  0  0  0
    5.4661  -12.4769   26.0994 C   0  0  0  0  0  0  0  0  0  0  0  0
    5.8772  -13.6618   25.5350 C   0  0  0  0  0  0  0  0  0  0  0  0
    7.2072  -14.0188   25.4258 C   0  0  0  0  0  0  0  0  0  0  0  0
    7.6441  -15.2858   24.8223 C   0  0  0  0  0  0  0  0  0  0  0  0
    8.4032  -15.0763   23.5261 C   0  0  2  0  0  0  0  0  0  0  0  0
    7.5163  -14.7026   22.4464 N   0  0  0  0  0  0  0  0  0  0  0  0
    9.0684  -16.3551   23.1437 C   0  0  0  0  0  0  0  0  0  0  0  0
    8.5836  -17.1184   22.2577 O   0  0  0  0  0  0  0  0  0  0  0  0
    8.1464  -13.1251   25.9144 C   0  0  0  0  0  0  0  0  0  0  0  0
    7.7313  -11.9401   26.4786 C   0  0  0  0  0  0  0  0  0  0  0  0
   10.2622  -16.7273   23.7783 N   0  0  0  0  0  0  0  0  0  0  0  0
   11.1267  -17.7418   23.1022 C   0  0  1  0  0  0  0  0  0  0  0  0
   11.4422  -17.1156   21.7807 C   0  0  0  0  0  0  0  0  0  0  0  0
   12.3361  -17.8347   20.8958 C   0  0  0  0  0  0  0  0  0  0  0  0
   13.0142  -18.9940   21.0563 C   0  0  0  0  0  0  0  0  0  0  0  0
   13.6671  -19.2351   19.8988 N   0  0  0  0  0  0  0  0  0  0  0  0
   13.4065  -18.2586   19.0381 C   0  0  0  0  0  0  0  0  0  0  0  0
   12.5951  -17.3920   19.6258 N   0  0  0  0  0  0  0  0  0  0  0  0
   12.3194  -17.8277   24.0051 C   0  0  0  0  0  0  0  0  0  0  0  0
   12.5983  -16.8520   24.7893 O   0  0  0  0  0  0  0  0  0  0  0  0
   13.1773  -18.8990   24.0730 O   0  0  0  0  0  0  0  0  0  0  0  0
  2  1  1  0
  3  4  2  0
  3  2  1  0
  6  5  1  0
  6  7  2  0
  8  7  1  0
  9  8  2  0
 10  9  1  0
 11 12  1  0
 11 10  1  1
 12  3  1  0
 13 11  1  0
 14 13  2  0
 15 16  2  0
 15  9  1  0
 16  6  1  0
 17 13  1  0
 18 19  1  6
 18 17  1  0
 19 20  1  0
 20 21  2  0
 21 22  1  0
 23 22  1  0
 24 20  1  0
 24 23  2  0
 25 27  1  0
 25 18  1  0
 26 25  2  0
M  END
$$$$
