GYH.pdb
     RDKit          3D

 27 28  0  0  1  0  0  0  0  0999 V2000
    7.5014  -17.4896   18.4089 N   0  0  0  0  0  0  0  0  0  0  0  0
    6.8847  -17.8459   19.6533 C   0  0  0  0  0  0  0  0  0  0  0  0
    7.4138  -17.0072   20.7718 C   0  0  0  0  0  0  0  0  0  0  0  0
    8.4216  -16.3085   20.5581 O   0  0  0  0  0  0  0  0  0  0  0  0
    7.8796  -11.8847   27.8893 O   0  0  0  0  0  0  0  0  0  0  0  0
    7.4928  -12.8856   26.9929 C   0  0  0  0  0  0  0  0  0  0  0  0
    7.5953  -14.2292   27.3019 C   0  0  0  0  0  0  0  0  0  0  0  0
    7.2021  -15.1783   26.3875 C   0  0  0  0  0  0  0  0  0  0  0  0
    6.6964  -14.8564   25.1430 C   0  0  0  0  0  0  0  0  0  0  0  0
    6.2769  -15.8725   24.1674 C   0  0  0  0  0  0  0  0  0  0  0  0
    7.3213  -16.1072   23.0930 C   0  0  2  0  0  0  0  0  0  0  0  0
    6.8228  -16.9754   22.0491 N   0  0  0  0  0  0  0  0  0  0  0  0
    8.5060  -16.7723   23.7079 C   0  0  0  0  0  0  0  0  0  0  0  0
    8.5341  -18.0205   23.9177 O   0  0  0  0  0  0  0  0  0  0  0  0
    6.5919  -13.5110   24.8290 C   0  0  0  0  0  0  0  0  0  0  0  0
    6.9864  -12.5639   25.7466 C   0  0  0  0  0  0  0  0  0  0  0  0
    9.6210  -16.0006   24.0653 N   0  0  0  0  0  0  0  0  0  0  0  0
   10.8552  -16.7181   24.5075 C   0  0  1  0  0  0  0  0  0  0  0  0
   11.9659  -15.9251   23.8948 C   0  0  0  0  0  0  0  0  0  0  0  0
   12.2166  -16.1073   22.4794 C   0  0  0  0  0  0  0  0  0  0  0  0
   12.9466  -17.0286   21.8104 C   0  0  0  0  0  0  0  0  0  0  0  0
   12.8051  -16.7664   20.4930 N   0  0  0  0  0  0  0  0  0  0  0  0
   12.0105  -15.7142   20.3394 C   0  0  0  0  0  0  0  0  0  0  0  0
   11.6389  -15.2952   21.5399 N   0  0  0  0  0  0  0  0  0  0  0  0
   10.8049  -16.5926   25.9999 C   0  0  0  0  0  0  0  0  0  0  0  0
    9.8999  -15.8691   26.5497 O   0  0  0  0  0  0  0  0  0  0  0  0
   11.6746  -17.2058   26.8692 O   0  0  0  0  0  0  0  0  0  0  0  0
  2  1  1  0
  3  4  2  0
  3  2  1  0
  6  5  1  0
  6  7  2  0
  8  7  1  0
  9  8  2  0
 10  9  1  0
 11 12  1  0
 11 10  1  1
 12  3  1  0
 13 11  1  0
 14 13  2  0
 15 16  2  0
 15  9  1  0
 16  6  1  0
 17 13  1  0
 18 19  1  6
 18 17  1  0
 19 20  1  0
 20 21  2  0
 21 22  1  0
 23 22  1  0
 24 20  1  0
 24 23  2  0
 25 27  1  0
 25 18  1  0
 26 25  2  0
M  END
$$$$
