GYH.pdb
     RDKit          3D

 27 28  0  0  1  0  0  0  0  0999 V2000
    7.0376  -19.9214   20.9444 N   0  0  0  0  0  0  0  0  0  0  0  0
    6.5242  -18.9492   21.8647 C   0  0  0  0  0  0  0  0  0  0  0  0
    7.5929  -17.9911   22.2820 C   0  0  0  0  0  0  0  0  0  0  0  0
    8.7630  -18.2224   21.9256 O   0  0  0  0  0  0  0  0  0  0  0  0
    7.4720  -12.7217   18.0038 O   0  0  0  0  0  0  0  0  0  0  0  0
    7.6224  -13.1546   19.3247 C   0  0  0  0  0  0  0  0  0  0  0  0
    8.8529  -13.1813   19.9543 C   0  0  0  0  0  0  0  0  0  0  0  0
    8.9517  -13.6154   21.2555 C   0  0  0  0  0  0  0  0  0  0  0  0
    7.8607  -14.0381   21.9899 C   0  0  0  0  0  0  0  0  0  0  0  0
    7.9687  -14.5017   23.3805 C   0  0  0  0  0  0  0  0  0  0  0  0
    8.3932  -15.9548   23.4733 C   0  0  2  0  0  0  0  0  0  0  0  0
    7.3322  -16.8450   23.0569 N   0  0  0  0  0  0  0  0  0  0  0  0
    8.7202  -16.2728   24.8932 C   0  0  0  0  0  0  0  0  0  0  0  0
    8.0149  -15.8404   25.8514 O   0  0  0  0  0  0  0  0  0  0  0  0
    6.6254  -14.0131   21.3630 C   0  0  0  0  0  0  0  0  0  0  0  0
    6.5304  -13.5780   20.0606 C   0  0  0  0  0  0  0  0  0  0  0  0
    9.8365  -17.0712   25.1809 N   0  0  0  0  0  0  0  0  0  0  0  0
   10.0784  -17.4473   26.6070 C   0  0  1  0  0  0  0  0  0  0  0  0
    9.9776  -18.9398   26.6028 C   0  0  0  0  0  0  0  0  0  0  0  0
    8.6608  -19.5211   26.4367 C   0  0  0  0  0  0  0  0  0  0  0  0
    7.4388  -19.0990   26.8340 C   0  0  0  0  0  0  0  0  0  0  0  0
    6.5406  -19.9986   26.3775 N   0  0  0  0  0  0  0  0  0  0  0  0
    7.1784  -20.9550   25.7137 C   0  0  0  0  0  0  0  0  0  0  0  0
    8.4747  -20.6837   25.7368 N   0  0  0  0  0  0  0  0  0  0  0  0
   11.4731  -16.9588   26.8553 C   0  0  0  0  0  0  0  0  0  0  0  0
   12.0084  -17.1156   28.0101 O   0  0  0  0  0  0  0  0  0  0  0  0
   12.2635  -16.3324   25.9220 O   0  0  0  0  0  0  0  0  0  0  0  0
  2  1  1  0
  3  4  2  0
  3  2  1  0
  6  5  1  0
  6  7  2  0
  8  7  1  0
  9  8  2  0
 10  9  1  0
 11 12  1  0
 11 10  1  1
 12  3  1  0
 13 11  1  0
 14 13  2  0
 15 16  2  0
 15  9  1  0
 16  6  1  0
 17 13  1  0
 18 19  1  6
 18 17  1  0
 19 20  1  0
 20 21  2  0
 21 22  1  0
 23 22  1  0
 24 20  1  0
 24 23  2  0
 25 27  1  0
 25 18  1  0
 26 25  2  0
M  END
$$$$
