GYH.pdb
     RDKit          3D

 27 28  0  0  1  0  0  0  0  0999 V2000
    4.9425  -20.8811   22.4122 N   0  0  0  0  0  0  0  0  0  0  0  0
    4.7664  -19.6168   23.0651 C   0  0  0  0  0  0  0  0  0  0  0  0
    5.8893  -18.6856   22.7391 C   0  0  0  0  0  0  0  0  0  0  0  0
    6.9184  -19.1613   22.2252 O   0  0  0  0  0  0  0  0  0  0  0  0
    9.1830  -12.4276   18.1320 O   0  0  0  0  0  0  0  0  0  0  0  0
    8.4951  -13.0789   19.1604 C   0  0  0  0  0  0  0  0  0  0  0  0
    7.6504  -14.1464   18.9192 C   0  0  0  0  0  0  0  0  0  0  0  0
    6.9949  -14.7558   19.9634 C   0  0  0  0  0  0  0  0  0  0  0  0
    7.1364  -14.3505   21.2764 C   0  0  0  0  0  0  0  0  0  0  0  0
    6.4347  -15.0033   22.3908 C   0  0  0  0  0  0  0  0  0  0  0  0
    6.9203  -16.4205   22.6278 C   0  0  2  0  0  0  0  0  0  0  0  0
    5.8310  -17.3012   22.9879 N   0  0  0  0  0  0  0  0  0  0  0  0
    7.8917  -16.4154   23.7594 C   0  0  0  0  0  0  0  0  0  0  0  0
    7.5091  -16.3524   24.9645 O   0  0  0  0  0  0  0  0  0  0  0  0
    7.9820  -13.2810   21.5229 C   0  0  0  0  0  0  0  0  0  0  0  0
    8.6365  -12.6736   20.4753 C   0  0  0  0  0  0  0  0  0  0  0  0
    9.2659  -16.4820   23.4880 N   0  0  0  0  0  0  0  0  0  0  0  0
   10.2012  -16.6222   24.6452 C   0  0  1  0  0  0  0  0  0  0  0  0
   10.2127  -18.0934   24.9164 C   0  0  0  0  0  0  0  0  0  0  0  0
    9.4332  -18.5729   26.0397 C   0  0  0  0  0  0  0  0  0  0  0  0
    8.8582  -17.9195   27.0750 C   0  0  0  0  0  0  0  0  0  0  0  0
    8.2083  -18.8435   27.8154 N   0  0  0  0  0  0  0  0  0  0  0  0
    8.3694  -20.0394   27.2621 C   0  0  0  0  0  0  0  0  0  0  0  0
    9.1142  -19.8979   26.1759 N   0  0  0  0  0  0  0  0  0  0  0  0
   11.5014  -16.1218   24.0938 C   0  0  0  0  0  0  0  0  0  0  0  0
   11.6473  -15.9848   22.8270 O   0  0  0  0  0  0  0  0  0  0  0  0
   12.5969  -15.7826   24.8509 O   0  0  0  0  0  0  0  0  0  0  0  0
  2  1  1  0
  3  4  2  0
  3  2  1  0
  6  5  1  0
  6  7  2  0
  8  7  1  0
  9  8  2  0
 10  9  1  0
 11 12  1  0
 11 10  1  1
 12  3  1  0
 13 11  1  0
 14 13  2  0
 15 16  2  0
 15  9  1  0
 16  6  1  0
 17 13  1  0
 18 19  1  6
 18 17  1  0
 19 20  1  0
 20 21  2  0
 21 22  1  0
 23 22  1  0
 24 20  1  0
 24 23  2  0
 25 27  1  0
 25 18  1  0
 26 25  2  0
M  END
$$$$
