GYH.pdb
     RDKit          3D

 27 28  0  0  1  0  0  0  0  0999 V2000
    8.6494  -18.8445   17.5419 N   0  0  0  0  0  0  0  0  0  0  0  0
    8.1770  -18.9097   18.8941 C   0  0  0  0  0  0  0  0  0  0  0  0
    8.9828  -18.0207   19.7855 C   0  0  0  0  0  0  0  0  0  0  0  0
   10.1644  -17.7868   19.4715 O   0  0  0  0  0  0  0  0  0  0  0  0
    7.1470  -11.6053   18.5723 O   0  0  0  0  0  0  0  0  0  0  0  0
    7.4633  -12.5759   19.5278 C   0  0  0  0  0  0  0  0  0  0  0  0
    6.5391  -13.5070   19.9640 C   0  0  0  0  0  0  0  0  0  0  0  0
    6.8965  -14.4432   20.9060 C   0  0  0  0  0  0  0  0  0  0  0  0
    8.1618  -14.5078   21.4566 C   0  0  0  0  0  0  0  0  0  0  0  0
    8.5414  -15.5092   22.4633 C   0  0  0  0  0  0  0  0  0  0  0  0
    9.2980  -16.6768   21.8594 C   0  0  2  0  0  0  0  0  0  0  0  0
    8.4634  -17.4408   20.9585 N   0  0  0  0  0  0  0  0  0  0  0  0
    9.7341  -17.5888   22.9558 C   0  0  0  0  0  0  0  0  0  0  0  0
    8.9231  -18.3708   23.5331 O   0  0  0  0  0  0  0  0  0  0  0  0
    9.0912  -13.5766   21.0224 C   0  0  0  0  0  0  0  0  0  0  0  0
    8.7300  -12.6411   20.0794 C   0  0  0  0  0  0  0  0  0  0  0  0
   11.0762  -17.5848   23.3623 N   0  0  0  0  0  0  0  0  0  0  0  0
   11.5371  -18.6843   24.2637 C   0  0  1  0  0  0  0  0  0  0  0  0
   13.0031  -18.7831   23.9826 C   0  0  0  0  0  0  0  0  0  0  0  0
   13.4041  -19.3554   22.7133 C   0  0  0  0  0  0  0  0  0  0  0  0
   12.7091  -20.0522   21.7855 C   0  0  0  0  0  0  0  0  0  0  0  0
   13.5564  -20.3089   20.7654 N   0  0  0  0  0  0  0  0  0  0  0  0
   14.7457  -19.7890   21.0434 C   0  0  0  0  0  0  0  0  0  0  0  0
   14.6758  -19.2014   22.2286 N   0  0  0  0  0  0  0  0  0  0  0  0
   11.2415  -18.1488   25.6315 C   0  0  0  0  0  0  0  0  0  0  0  0
   11.0099  -16.8975   25.7911 O   0  0  0  0  0  0  0  0  0  0  0  0
   11.1941  -18.9053   26.7776 O   0  0  0  0  0  0  0  0  0  0  0  0
  2  1  1  0
  3  4  2  0
  3  2  1  0
  6  5  1  0
  6  7  2  0
  8  7  1  0
  9  8  2  0
 10  9  1  0
 11 12  1  0
 11 10  1  1
 12  3  1  0
 13 11  1  0
 14 13  2  0
 15 16  2  0
 15  9  1  0
 16  6  1  0
 17 13  1  0
 18 19  1  1
 18 17  1  0
 19 20  1  0
 20 21  2  0
 21 22  1  0
 23 22  1  0
 24 20  1  0
 24 23  2  0
 25 27  1  0
 25 18  1  0
 26 25  2  0
M  END
$$$$
