GYH.pdb
     RDKit          3D

 27 28  0  0  1  0  0  0  0  0999 V2000
    6.2621  -19.3441   19.8324 N   0  0  0  0  0  0  0  0  0  0  0  0
    5.8429  -18.5905   20.9779 C   0  0  0  0  0  0  0  0  0  0  0  0
    7.0054  -17.9077   21.6235 C   0  0  0  0  0  0  0  0  0  0  0  0
    8.1132  -18.4746   21.5917 O   0  0  0  0  0  0  0  0  0  0  0  0
    8.1063  -12.0855   17.7768 O   0  0  0  0  0  0  0  0  0  0  0  0
    8.0192  -12.6815   19.0386 C   0  0  0  0  0  0  0  0  0  0  0  0
    6.8073  -13.0316   19.6044 C   0  0  0  0  0  0  0  0  0  0  0  0
    6.7713  -13.6159   20.8489 C   0  0  0  0  0  0  0  0  0  0  0  0
    7.9091  -13.8802   21.5864 C   0  0  0  0  0  0  0  0  0  0  0  0
    7.8682  -14.5047   22.9163 C   0  0  0  0  0  0  0  0  0  0  0  0
    8.0492  -16.0092   22.8534 C   0  0  2  0  0  0  0  0  0  0  0  0
    6.8994  -16.6576   22.2622 N   0  0  0  0  0  0  0  0  0  0  0  0
    8.2027  -16.5358   24.2402 C   0  0  0  0  0  0  0  0  0  0  0  0
    7.2005  -16.8415   24.9507 O   0  0  0  0  0  0  0  0  0  0  0  0
    9.1258  -13.5310   21.0233 C   0  0  0  0  0  0  0  0  0  0  0  0
    9.1580  -12.9464   19.7775 C   0  0  0  0  0  0  0  0  0  0  0  0
    9.4880  -16.6987   24.7769 N   0  0  0  0  0  0  0  0  0  0  0  0
    9.6884  -17.7710   25.7985 C   0  0  1  0  0  0  0  0  0  0  0  0
    9.4434  -19.0360   25.0385 C   0  0  0  0  0  0  0  0  0  0  0  0
    8.1104  -19.6012   25.0916 C   0  0  0  0  0  0  0  0  0  0  0  0
    6.9998  -19.2151   25.7601 C   0  0  0  0  0  0  0  0  0  0  0  0
    6.0133  -20.0724   25.4190 N   0  0  0  0  0  0  0  0  0  0  0  0
    6.4892  -20.9681   24.5626 C   0  0  0  0  0  0  0  0  0  0  0  0
    7.7684  -20.6994   24.3480 N   0  0  0  0  0  0  0  0  0  0  0  0
   11.1230  -17.5987   26.1951 C   0  0  0  0  0  0  0  0  0  0  0  0
   11.5356  -18.0629   27.3172 O   0  0  0  0  0  0  0  0  0  0  0  0
   12.0763  -16.9628   25.4368 O   0  0  0  0  0  0  0  0  0  0  0  0
  2  1  1  0
  3  4  2  0
  3  2  1  0
  6  5  1  0
  6  7  2  0
  8  7  1  0
  9  8  2  0
 10  9  1  0
 11 12  1  0
 11 10  1  1
 12  3  1  0
 13 11  1  0
 14 13  2  0
 15 16  2  0
 15  9  1  0
 16  6  1  0
 17 13  1  0
 18 19  1  6
 18 17  1  0
 19 20  1  0
 20 21  2  0
 21 22  1  0
 23 22  1  0
 24 20  1  0
 24 23  2  0
 25 27  1  0
 25 18  1  0
 26 25  2  0
M  END
$$$$
