GYH.pdb
     RDKit          3D

 27 28  0  0  1  0  0  0  0  0999 V2000
    6.6205  -19.8096   20.1547 N   0  0  0  0  0  0  0  0  0  0  0  0
    6.1564  -18.8083   21.0699 C   0  0  0  0  0  0  0  0  0  0  0  0
    7.2890  -17.9636   21.5579 C   0  0  0  0  0  0  0  0  0  0  0  0
    8.4474  -18.2932   21.2435 O   0  0  0  0  0  0  0  0  0  0  0  0
    7.7449  -12.3422   17.6829 O   0  0  0  0  0  0  0  0  0  0  0  0
    7.8209  -12.8905   18.9669 C   0  0  0  0  0  0  0  0  0  0  0  0
    9.0260  -13.0663   19.6213 C   0  0  0  0  0  0  0  0  0  0  0  0
    9.0511  -13.6100   20.8843 C   0  0  0  0  0  0  0  0  0  0  0  0
    7.9086  -14.0015   21.5550 C   0  0  0  0  0  0  0  0  0  0  0  0
    7.9380  -14.5825   22.9048 C   0  0  0  0  0  0  0  0  0  0  0  0
    8.2199  -16.0726   22.8860 C   0  0  2  0  0  0  0  0  0  0  0  0
    7.1004  -16.8176   22.3536 N   0  0  0  0  0  0  0  0  0  0  0  0
    8.4502  -16.5384   24.2838 C   0  0  0  0  0  0  0  0  0  0  0  0
    7.4948  -16.6913   25.1003 O   0  0  0  0  0  0  0  0  0  0  0  0
    6.6987  -13.8272   20.9030 C   0  0  0  0  0  0  0  0  0  0  0  0
    6.6774  -13.2827   19.6390 C   0  0  0  0  0  0  0  0  0  0  0  0
    9.7567  -16.8159   24.7111 N   0  0  0  0  0  0  0  0  0  0  0  0
    9.9342  -17.4418   26.0567 C   0  0  1  0  0  0  0  0  0  0  0  0
    9.7941  -18.9069   25.7882 C   0  0  0  0  0  0  0  0  0  0  0  0
    8.4533  -19.4337   25.6337 C   0  0  0  0  0  0  0  0  0  0  0  0
    7.3881  -19.4305   26.4672 C   0  0  0  0  0  0  0  0  0  0  0  0
    6.3661  -20.0172   25.8071 N   0  0  0  0  0  0  0  0  0  0  0  0
    6.7763  -20.3767   24.5969 C   0  0  0  0  0  0  0  0  0  0  0  0
    8.0483  -20.0298   24.4690 N   0  0  0  0  0  0  0  0  0  0  0  0
   11.3308  -17.0498   26.4322 C   0  0  0  0  0  0  0  0  0  0  0  0
   11.7992  -17.3774   27.5803 O   0  0  0  0  0  0  0  0  0  0  0  0
   12.1911  -16.3424   25.6273 O   0  0  0  0  0  0  0  0  0  0  0  0
  2  1  1  0
  3  4  2  0
  3  2  1  0
  6  5  1  0
  6  7  2  0
  8  7  1  0
  9  8  2  0
 10  9  1  0
 11 12  1  0
 11 10  1  1
 12  3  1  0
 13 11  1  0
 14 13  2  0
 15 16  2  0
 15  9  1  0
 16  6  1  0
 17 13  1  0
 18 19  1  6
 18 17  1  0
 19 20  1  0
 20 21  2  0
 21 22  1  0
 23 22  1  0
 24 20  1  0
 24 23  2  0
 25 27  1  0
 25 18  1  0
 26 25  2  0
M  END
$$$$
