GYH.pdb
     RDKit          3D

 27 28  0  0  1  0  0  0  0  0999 V2000
    7.2008  -14.9850   20.0211 N   0  0  0  0  0  0  0  0  0  0  0  0
    6.6772  -15.6078   21.2016 C   0  0  0  0  0  0  0  0  0  0  0  0
    7.6267  -15.4657   22.3472 C   0  0  0  0  0  0  0  0  0  0  0  0
    8.7691  -15.0296   22.1145 O   0  0  0  0  0  0  0  0  0  0  0  0
    5.9555  -10.0646   26.8207 O   0  0  0  0  0  0  0  0  0  0  0  0
    6.3760  -11.3860   26.6411 C   0  0  0  0  0  0  0  0  0  0  0  0
    7.7132  -11.7364   26.6248 C   0  0  0  0  0  0  0  0  0  0  0  0
    8.0790  -13.0499   26.4449 C   0  0  0  0  0  0  0  0  0  0  0  0
    7.1604  -14.0675   26.2747 C   0  0  0  0  0  0  0  0  0  0  0  0
    7.5537  -15.4707   26.0825 C   0  0  0  0  0  0  0  0  0  0  0  0
    8.2409  -15.7003   24.7502 C   0  0  2  0  0  0  0  0  0  0  0  0
    7.2841  -15.8029   23.6704 N   0  0  0  0  0  0  0  0  0  0  0  0
    8.9951  -16.9855   24.8107 C   0  0  0  0  0  0  0  0  0  0  0  0
    8.4134  -18.1043   24.6985 O   0  0  0  0  0  0  0  0  0  0  0  0
    5.8191  -13.7209   26.2903 C   0  0  0  0  0  0  0  0  0  0  0  0
    5.4567  -12.4054   26.4707 C   0  0  0  0  0  0  0  0  0  0  0  0
   10.3848  -16.9607   24.9964 N   0  0  0  0  0  0  0  0  0  0  0  0
   11.1084  -18.2678   25.0357 C   0  0  1  0  0  0  0  0  0  0  0  0
   12.2700  -18.0586   24.1165 C   0  0  0  0  0  0  0  0  0  0  0  0
   11.9807  -17.6825   22.7475 C   0  0  0  0  0  0  0  0  0  0  0  0
   12.3262  -16.5917   22.0262 C   0  0  0  0  0  0  0  0  0  0  0  0
   11.8317  -16.7664   20.7815 N   0  0  0  0  0  0  0  0  0  0  0  0
   11.1965  -17.9305   20.7226 C   0  0  0  0  0  0  0  0  0  0  0  0
   11.2750  -18.5075   21.9125 N   0  0  0  0  0  0  0  0  0  0  0  0
   11.5171  -18.3868   26.4724 C   0  0  0  0  0  0  0  0  0  0  0  0
   11.2666  -17.4301   27.2889 O   0  0  0  0  0  0  0  0  0  0  0  0
   12.1623  -19.4705   27.0181 O   0  0  0  0  0  0  0  0  0  0  0  0
  2  1  1  0
  3  4  2  0
  3  2  1  0
  6  5  1  0
  6  7  2  0
  8  7  1  0
  9  8  2  0
 10  9  1  0
 11 12  1  0
 11 10  1  1
 12  3  1  0
 13 11  1  0
 14 13  2  0
 15 16  2  0
 15  9  1  0
 16  6  1  0
 17 13  1  0
 18 19  1  6
 18 17  1  0
 19 20  1  0
 20 21  2  0
 21 22  1  0
 23 22  1  0
 24 20  1  0
 24 23  2  0
 25 27  1  0
 25 18  1  0
 26 25  2  0
M  END
$$$$
