NRP.pdb
     RDKit          3D

 27 27  0  0  1  0  0  0  0  0999 V2000
    9.0965  -14.0647   17.6283 N   0  0  0  0  0  0  0  0  0  0  0  0
    8.9637  -12.9759   18.5398 C   0  0  0  0  0  0  0  0  0  0  0  0
    9.4360  -11.8646   18.2446 O   0  0  0  0  0  0  0  0  0  0  0  0
    8.2682  -13.1983   19.8104 C   0  0  0  0  0  0  0  0  0  0  0  0
    7.7685  -14.6370   19.9589 C   0  0  2  0  0  0  0  0  0  0  0  0
    6.6960  -14.8134   19.0172 N   0  0  0  0  0  0  0  0  0  0  0  0
    7.3324  -14.7742   21.3726 C   0  0  0  0  0  0  0  0  0  0  0  0
    6.2199  -14.3134   21.6819 O   0  0  0  0  0  0  0  0  0  0  0  0
    6.0713  -21.0313   26.1998 N   0  0  0  0  0  0  0  0  0  0  0  0
    6.6444  -20.2539   27.2386 C   0  0  0  0  0  0  0  0  0  0  0  0
    6.4405  -20.5069   28.4729 N   0  0  0  0  0  0  0  0  0  0  0  0
    7.4826  -19.1442   26.8853 N   0  0  0  0  0  0  0  0  0  0  0  0
    7.7217  -18.7937   25.5024 C   0  0  0  0  0  0  0  0  0  0  0  0
    7.0213  -17.4548   25.2554 C   0  0  0  0  0  0  0  0  0  0  0  0
    7.3698  -17.0322   23.8771 C   0  0  0  0  0  0  0  0  0  0  0  0
    7.5810  -15.5669   23.6931 C   0  0  2  0  0  0  0  0  0  0  0  0
    8.1419  -15.4078   22.3608 N   0  0  0  0  0  0  0  0  0  0  0  0
    8.3477  -14.9376   24.7652 C   0  0  0  0  0  0  0  0  0  0  0  0
    9.5982  -15.2827   24.7961 O   0  0  0  0  0  0  0  0  0  0  0  0
    6.8834  -19.9496   29.2167 N   0  0  0  0  0  0  0  0  0  0  0  0
    7.8646  -14.0230   25.7334 C   0  0  0  0  0  0  0  0  0  0  0  0
    6.5379  -13.5218   25.8752 C   0  0  0  0  0  0  0  0  0  0  0  0
    6.5595  -12.6626   27.1625 C   0  0  0  0  0  0  0  0  0  0  0  0
    8.0055  -12.1770   27.1233 C   0  0  2  0  0  0  0  0  0  0  0  0
    8.6943  -13.4644   26.7651 C   0  0  0  0  0  0  0  0  0  0  0  0
    8.8624  -14.3618   27.9283 O   0  0  0  0  0  0  0  0  0  0  0  0
    8.1764  -15.4141   27.9724 O   0  0  0  0  0  0  0  0  0  0  0  0
  2  1  1  0
  2  3  2  0
  4  5  1  0
  4  2  1  0
  5  6  1  6
  7  8  2  0
  7  5  1  0
  9 10  1  0
 10 11  2  0
 12 13  1  0
 12 10  1  0
 13 14  1  0
 14 15  1  0
 16 15  1  1
 16 17  1  0
 17  7  1  0
 18 16  1  0
 19 18  2  0
 20 18  1  0
 21 20  1  0
 22 21  1  0
 23 24  1  0
 23 22  1  0
 24 20  1  0
 25 27  1  0
 24 25  1  1
 26 25  2  0
M  END
$$$$
