NRP.pdb
     RDKit          3D

 27 27  0  0  1  0  0  0  0  0999 V2000
    7.1825  -13.9536   16.9710 N   0  0  0  0  0  0  0  0  0  0  0  0
    8.1700  -13.4744   17.8816 C   0  0  0  0  0  0  0  0  0  0  0  0
    9.3014  -13.1760   17.4621 O   0  0  0  0  0  0  0  0  0  0  0  0
    7.8215  -13.3458   19.2992 C   0  0  0  0  0  0  0  0  0  0  0  0
    8.8039  -14.0833   20.2117 C   0  0  2  0  0  0  0  0  0  0  0  0
    9.0611  -15.3645   19.6115 N   0  0  0  0  0  0  0  0  0  0  0  0
    8.1364  -14.1823   21.5354 C   0  0  0  0  0  0  0  0  0  0  0  0
    7.8422  -13.1227   22.1153 O   0  0  0  0  0  0  0  0  0  0  0  0
    8.3210  -18.8927   27.9069 N   0  0  0  0  0  0  0  0  0  0  0  0
    7.4594  -19.6274   27.0525 C   0  0  0  0  0  0  0  0  0  0  0  0
    6.8350  -20.6693   27.4444 N   0  0  0  0  0  0  0  0  0  0  0  0
    7.2865  -19.1803   25.7002 N   0  0  0  0  0  0  0  0  0  0  0  0
    6.0552  -18.5569   25.2667 C   0  0  0  0  0  0  0  0  0  0  0  0
    6.3352  -17.0566   25.1451 C   0  0  0  0  0  0  0  0  0  0  0  0
    6.9109  -16.8320   23.7969 C   0  0  0  0  0  0  0  0  0  0  0  0
    7.2723  -15.4187   23.4846 C   0  0  2  0  0  0  0  0  0  0  0  0
    7.8323  -15.4362   22.1426 N   0  0  0  0  0  0  0  0  0  0  0  0
    8.1123  -14.7826   24.4960 C   0  0  0  0  0  0  0  0  0  0  0  0
    9.3342  -15.2185   24.5214 O   0  0  0  0  0  0  0  0  0  0  0  0
    6.1616  -21.1540   26.8349 N   0  0  0  0  0  0  0  0  0  0  0  0
    7.7247  -13.7746   25.4132 C   0  0  0  0  0  0  0  0  0  0  0  0
    6.4290  -13.2080   25.5912 C   0  0  0  0  0  0  0  0  0  0  0  0
    6.5625  -12.2514   26.8008 C   0  0  0  0  0  0  0  0  0  0  0  0
    8.0205  -11.8322   26.6374 C   0  0  2  0  0  0  0  0  0  0  0  0
    8.6370  -13.1720   26.3455 C   0  0  0  0  0  0  0  0  0  0  0  0
    8.8429  -13.9809   27.5661 O   0  0  0  0  0  0  0  0  0  0  0  0
    8.1050  -14.9819   27.7483 O   0  0  0  0  0  0  0  0  0  0  0  0
  2  1  1  0
  2  3  2  0
  4  5  1  0
  4  2  1  0
  5  6  1  6
  7  8  2  0
  7  5  1  0
  9 10  1  0
 10 11  2  0
 12 13  1  0
 12 10  1  0
 13 14  1  0
 14 15  1  0
 16 15  1  1
 16 17  1  0
 17  7  1  0
 18 16  1  0
 19 18  2  0
 20 18  1  0
 21 20  1  0
 22 21  1  0
 23 24  1  0
 23 22  1  0
 24 20  1  0
 25 27  1  0
 24 25  1  1
 26 25  2  0
M  END
$$$$
