NRP.pdb
     RDKit          3D

 27 27  0  0  1  0  0  0  0  0999 V2000
    9.6145  -12.1547   18.3150 N   0  0  0  0  0  0  0  0  0  0  0  0
    8.5864  -13.1414   18.2576 C   0  0  0  0  0  0  0  0  0  0  0  0
    8.2464  -13.6135   17.1591 O   0  0  0  0  0  0  0  0  0  0  0  0
    7.9530  -13.5759   19.5057 C   0  0  0  0  0  0  0  0  0  0  0  0
    8.6571  -14.7833   20.1288 C   0  0  2  0  0  0  0  0  0  0  0  0
    8.3848  -15.9157   19.2852 N   0  0  0  0  0  0  0  0  0  0  0  0
    8.0925  -14.9248   21.4959 C   0  0  0  0  0  0  0  0  0  0  0  0
    6.8711  -14.7425   21.6388 O   0  0  0  0  0  0  0  0  0  0  0  0
   10.6158  -20.0610   21.8625 N   0  0  0  0  0  0  0  0  0  0  0  0
    9.2787  -20.4654   21.6165 C   0  0  0  0  0  0  0  0  0  0  0  0
    8.9334  -21.0671   20.5451 N   0  0  0  0  0  0  0  0  0  0  0  0
    8.2815  -20.1863   22.6096 N   0  0  0  0  0  0  0  0  0  0  0  0
    8.5315  -19.2485   23.6823 C   0  0  0  0  0  0  0  0  0  0  0  0
    8.2091  -17.8542   23.1382 C   0  0  0  0  0  0  0  0  0  0  0  0
    8.4354  -16.8946   24.2462 C   0  0  0  0  0  0  0  0  0  0  0  0
    8.2321  -15.4583   23.8981 C   0  0  2  0  0  0  0  0  0  0  0  0
    8.9010  -15.2573   22.6225 N   0  0  0  0  0  0  0  0  0  0  0  0
    8.6250  -14.5293   24.9545 C   0  0  0  0  0  0  0  0  0  0  0  0
    9.9063  -14.3504   25.0541 O   0  0  0  0  0  0  0  0  0  0  0  0
    7.9554  -21.3378   20.3713 N   0  0  0  0  0  0  0  0  0  0  0  0
    7.7648  -13.8371   25.8424 C   0  0  0  0  0  0  0  0  0  0  0  0
    6.3395  -13.8328   25.8512 C   0  0  0  0  0  0  0  0  0  0  0  0
    5.9396  -13.0134   27.1020 C   0  0  0  0  0  0  0  0  0  0  0  0
    7.1220  -12.0513   27.1679 C   0  0  1  0  0  0  0  0  0  0  0  0
    8.2472  -13.0169   26.9191 C   0  0  0  0  0  0  0  0  0  0  0  0
    8.6086  -13.7915   28.1258 O   0  0  0  0  0  0  0  0  0  0  0  0
    8.2543  -14.9958   28.1884 O   0  0  0  0  0  0  0  0  0  0  0  0
  2  1  1  0
  2  3  2  0
  4  5  1  0
  4  2  1  0
  5  6  1  6
  7  8  2  0
  7  5  1  0
  9 10  1  0
 10 11  2  0
 12 13  1  0
 12 10  1  0
 13 14  1  0
 14 15  1  0
 16 15  1  1
 16 17  1  0
 17  7  1  0
 18 16  1  0
 19 18  2  0
 20 18  1  0
 21 20  1  0
 22 21  1  0
 23 24  1  0
 23 22  1  0
 24 20  1  0
 25 27  1  0
 24 25  1  1
 26 25  2  0
M  END
$$$$
