NRP.pdb
     RDKit          3D

 27 27  0  0  1  0  0  0  0  0999 V2000
   15.4277  -16.2675   18.8191 N   0  0  0  0  0  0  0  0  0  0  0  0
   15.2452  -14.8671   19.0177 C   0  0  0  0  0  0  0  0  0  0  0  0
   16.0996  -14.0688   18.5962 O   0  0  0  0  0  0  0  0  0  0  0  0
   14.0451  -14.4031   19.7194 C   0  0  0  0  0  0  0  0  0  0  0  0
   13.1894  -15.5595   20.2409 C   0  0  2  0  0  0  0  0  0  0  0  0
   12.6606  -16.2474   19.0941 N   0  0  0  0  0  0  0  0  0  0  0  0
   12.1365  -14.9397   21.0865 C   0  0  0  0  0  0  0  0  0  0  0  0
   12.5026  -14.2760   22.0719 O   0  0  0  0  0  0  0  0  0  0  0  0
    7.7043  -13.1956   15.6415 N   0  0  0  0  0  0  0  0  0  0  0  0
    7.7629  -14.2037   16.6377 C   0  0  0  0  0  0  0  0  0  0  0  0
    8.5380  -15.2132   16.5428 N   0  0  0  0  0  0  0  0  0  0  0  0
    6.9191  -14.0807   17.7916 N   0  0  0  0  0  0  0  0  0  0  0  0
    7.3818  -13.4228   18.9940 C   0  0  0  0  0  0  0  0  0  0  0  0
    8.3941  -14.3631   19.6539 C   0  0  0  0  0  0  0  0  0  0  0  0
    8.8454  -13.7042   20.9037 C   0  0  0  0  0  0  0  0  0  0  0  0
    9.8001  -14.4952   21.7333 C   0  0  2  0  0  0  0  0  0  0  0  0
   10.7472  -15.0850   20.8004 N   0  0  0  0  0  0  0  0  0  0  0  0
    9.1563  -15.4415   22.6407 C   0  0  0  0  0  0  0  0  0  0  0  0
    9.2772  -16.6835   22.2851 O   0  0  0  0  0  0  0  0  0  0  0  0
    8.5560  -15.9475   17.2642 N   0  0  0  0  0  0  0  0  0  0  0  0
    8.4410  -15.1336   23.8243 C   0  0  0  0  0  0  0  0  0  0  0  0
    8.0507  -13.8474   24.2987 C   0  0  0  0  0  0  0  0  0  0  0  0
    7.1972  -14.1178   25.5614 C   0  0  0  0  0  0  0  0  0  0  0  0
    7.8589  -15.4034   26.0486 C   0  0  1  0  0  0  0  0  0  0  0  0
    7.9769  -16.1373   24.7419 C   0  0  0  0  0  0  0  0  0  0  0  0
    6.7043  -16.7648   24.3255 O   0  0  0  0  0  0  0  0  0  0  0  0
    6.0701  -16.2481   23.3712 O   0  0  0  0  0  0  0  0  0  0  0  0
  2  1  1  0
  2  3  2  0
  4  5  1  0
  4  2  1  0
  5  6  1  6
  7  8  2  0
  7  5  1  0
  9 10  1  0
 10 11  2  0
 12 13  1  0
 12 10  1  0
 13 14  1  0
 14 15  1  0
 16 15  1  6
 16 17  1  0
 17  7  1  0
 18 16  1  0
 19 18  2  0
 20 18  1  0
 21 20  1  0
 22 21  1  0
 23 24  1  0
 23 22  1  0
 24 20  1  0
 25 27  1  0
 24 25  1  6
 26 25  2  0
M  END
$$$$
