NRP.pdb
     RDKit          3D

 27 27  0  0  1  0  0  0  0  0999 V2000
   14.4189  -19.8379   17.4353 N   0  0  0  0  0  0  0  0  0  0  0  0
   13.8676  -18.6080   16.9690 C   0  0  0  0  0  0  0  0  0  0  0  0
   14.3856  -18.0297   15.9983 O   0  0  0  0  0  0  0  0  0  0  0  0
   12.6955  -18.0543   17.6527 C   0  0  0  0  0  0  0  0  0  0  0  0
   12.3169  -18.8524   18.9023 C   0  0  2  0  0  0  0  0  0  0  0  0
   11.4244  -19.8993   18.4834 N   0  0  0  0  0  0  0  0  0  0  0  0
   11.6824  -17.8811   19.8306 C   0  0  0  0  0  0  0  0  0  0  0  0
   12.3899  -16.9620   20.2781 O   0  0  0  0  0  0  0  0  0  0  0  0
    7.5180  -12.6597   21.6580 N   0  0  0  0  0  0  0  0  0  0  0  0
    7.3270  -13.0118   20.2973 C   0  0  0  0  0  0  0  0  0  0  0  0
    7.5831  -12.2061   19.3411 N   0  0  0  0  0  0  0  0  0  0  0  0
    6.8277  -14.3210   19.9888 N   0  0  0  0  0  0  0  0  0  0  0  0
    6.4982  -15.2650   21.0343 C   0  0  0  0  0  0  0  0  0  0  0  0
    7.8148  -15.6579   21.7098 C   0  0  0  0  0  0  0  0  0  0  0  0
    8.5692  -16.4861   20.7378 C   0  0  0  0  0  0  0  0  0  0  0  0
    9.8363  -17.0806   21.2539 C   0  0  2  0  0  0  0  0  0  0  0  0
   10.3116  -17.9765   20.2116 N   0  0  0  0  0  0  0  0  0  0  0  0
    9.7134  -17.6843   22.5783 C   0  0  0  0  0  0  0  0  0  0  0  0
    9.4044  -18.9444   22.5603 O   0  0  0  0  0  0  0  0  0  0  0  0
    7.4517  -12.4796   18.3573 N   0  0  0  0  0  0  0  0  0  0  0  0
    9.8936  -17.0402   23.8273 C   0  0  0  0  0  0  0  0  0  0  0  0
   10.1103  -15.6526   24.0706 C   0  0  0  0  0  0  0  0  0  0  0  0
   10.1144  -15.5022   25.6112 C   0  0  0  0  0  0  0  0  0  0  0  0
   10.6701  -16.8686   26.0015 C   0  0  1  0  0  0  0  0  0  0  0  0
    9.8629  -17.7414   25.0811 C   0  0  0  0  0  0  0  0  0  0  0  0
    8.4924  -17.9812   25.5821 O   0  0  0  0  0  0  0  0  0  0  0  0
    8.3489  -18.7035   26.6006 O   0  0  0  0  0  0  0  0  0  0  0  0
  2  1  1  0
  2  3  2  0
  4  5  1  0
  4  2  1  0
  5  6  1  6
  7  8  2  0
  7  5  1  0
  9 10  1  0
 10 11  2  0
 12 13  1  0
 12 10  1  0
 13 14  1  0
 14 15  1  0
 16 15  1  6
 16 17  1  0
 17  7  1  0
 18 16  1  0
 19 18  2  0
 20 18  1  0
 21 20  1  0
 22 21  1  0
 23 24  1  0
 23 22  1  0
 24 20  1  0
 25 27  1  0
 24 25  1  1
 26 25  2  0
M  END
$$$$
