NRP.pdb
     RDKit          3D

 27 27  0  0  1  0  0  0  0  0999 V2000
   10.0119  -14.3169   18.1125 N   0  0  0  0  0  0  0  0  0  0  0  0
    9.6196  -13.1691   18.8624 C   0  0  0  0  0  0  0  0  0  0  0  0
   10.0295  -12.0446   18.5268 O   0  0  0  0  0  0  0  0  0  0  0  0
    8.7363  -13.3476   20.0181 C   0  0  0  0  0  0  0  0  0  0  0  0
    8.4083  -14.8190   20.2810 C   0  0  2  0  0  0  0  0  0  0  0  0
    7.4587  -15.2276   19.2814 N   0  0  0  0  0  0  0  0  0  0  0  0
    7.8629  -14.8755   21.6620 C   0  0  0  0  0  0  0  0  0  0  0  0
    6.8396  -14.2134   21.9070 O   0  0  0  0  0  0  0  0  0  0  0  0
    4.5762  -20.0994   20.9349 N   0  0  0  0  0  0  0  0  0  0  0  0
    5.8840  -20.4148   21.3842 C   0  0  0  0  0  0  0  0  0  0  0  0
    6.6483  -21.2177   20.7516 N   0  0  0  0  0  0  0  0  0  0  0  0
    6.3612  -19.8078   22.5935 N   0  0  0  0  0  0  0  0  0  0  0  0
    7.1118  -18.5715   22.5681 C   0  0  0  0  0  0  0  0  0  0  0  0
    6.4569  -17.6326   23.5849 C   0  0  0  0  0  0  0  0  0  0  0  0
    7.5521  -17.0163   24.3725 C   0  0  0  0  0  0  0  0  0  0  0  0
    7.8782  -15.6048   24.0162 C   0  0  2  0  0  0  0  0  0  0  0  0
    8.4721  -15.6540   22.6896 N   0  0  0  0  0  0  0  0  0  0  0  0
    8.6729  -14.9061   25.0230 C   0  0  0  0  0  0  0  0  0  0  0  0
    9.9224  -15.2551   25.0486 O   0  0  0  0  0  0  0  0  0  0  0  0
    7.5276  -21.5604   21.1632 N   0  0  0  0  0  0  0  0  0  0  0  0
    8.2167  -13.9230   25.9356 C   0  0  0  0  0  0  0  0  0  0  0  0
    6.9401  -13.2901   25.9708 C   0  0  0  0  0  0  0  0  0  0  0  0
    6.9568  -12.4034   27.2394 C   0  0  0  0  0  0  0  0  0  0  0  0
    8.4433  -12.0636   27.2960 C   0  0  1  0  0  0  0  0  0  0  0  0
    9.0234  -13.4216   27.0139 C   0  0  0  0  0  0  0  0  0  0  0  0
    9.0185  -14.3000   28.2035 O   0  0  0  0  0  0  0  0  0  0  0  0
    8.1891  -15.2436   28.2433 O   0  0  0  0  0  0  0  0  0  0  0  0
  2  1  1  0
  2  3  2  0
  4  5  1  0
  4  2  1  0
  5  6  1  6
  7  8  2  0
  7  5  1  0
  9 10  1  0
 10 11  2  0
 12 13  1  0
 12 10  1  0
 13 14  1  0
 14 15  1  0
 16 15  1  1
 16 17  1  0
 17  7  1  0
 18 16  1  0
 19 18  2  0
 20 18  1  0
 21 20  1  0
 22 21  1  0
 23 24  1  0
 23 22  1  0
 24 20  1  0
 25 27  1  0
 24 25  1  1
 26 25  2  0
M  END
$$$$
