NRP.pdb
     RDKit          3D

 27 27  0  0  1  0  0  0  0  0999 V2000
    3.7792  -22.8859   24.6738 N   0  0  0  0  0  0  0  0  0  0  0  0
    4.7238  -22.3022   25.5686 C   0  0  0  0  0  0  0  0  0  0  0  0
    4.6443  -22.5365   26.7868 O   0  0  0  0  0  0  0  0  0  0  0  0
    5.7716  -21.4346   25.0235 C   0  0  0  0  0  0  0  0  0  0  0  0
    5.5654  -21.1323   23.5376 C   0  0  2  0  0  0  0  0  0  0  0  0
    5.7193  -22.3727   22.8265 N   0  0  0  0  0  0  0  0  0  0  0  0
    6.5948  -20.1225   23.1795 C   0  0  0  0  0  0  0  0  0  0  0  0
    7.7553  -20.5237   22.9852 O   0  0  0  0  0  0  0  0  0  0  0  0
    7.7720  -11.7553   20.8201 N   0  0  0  0  0  0  0  0  0  0  0  0
    8.0255  -12.6673   19.7637 C   0  0  0  0  0  0  0  0  0  0  0  0
    8.6680  -12.3333   18.7126 N   0  0  0  0  0  0  0  0  0  0  0  0
    7.5407  -14.0123   19.8844 N   0  0  0  0  0  0  0  0  0  0  0  0
    6.8142  -14.4465   21.0576 C   0  0  0  0  0  0  0  0  0  0  0  0
    7.6577  -15.5361   21.7250 C   0  0  0  0  0  0  0  0  0  0  0  0
    6.7317  -16.6343   22.0944 C   0  0  0  0  0  0  0  0  0  0  0  0
    7.3752  -17.8331   22.7062 C   0  0  2  0  0  0  0  0  0  0  0  0
    6.2895  -18.7351   23.0561 N   0  0  0  0  0  0  0  0  0  0  0  0
    8.2956  -17.5220   23.7968 C   0  0  0  0  0  0  0  0  0  0  0  0
    7.7123  -17.2788   24.9301 O   0  0  0  0  0  0  0  0  0  0  0  0
    8.8626  -13.0112   17.9627 N   0  0  0  0  0  0  0  0  0  0  0  0
    9.7095  -17.4644   23.7271 C   0  0  0  0  0  0  0  0  0  0  0  0
   10.5285  -17.5092   22.5614 C   0  0  0  0  0  0  0  0  0  0  0  0
   11.9743  -17.2859   23.0672 C   0  0  0  0  0  0  0  0  0  0  0  0
   11.8613  -17.9129   24.4537 C   0  0  1  0  0  0  0  0  0  0  0  0
   10.5455  -17.3295   24.8880 C   0  0  0  0  0  0  0  0  0  0  0  0
   10.6705  -15.9329   25.3578 O   0  0  0  0  0  0  0  0  0  0  0  0
   10.2476  -15.0139   24.6119 O   0  0  0  0  0  0  0  0  0  0  0  0
  2  1  1  0
  2  3  2  0
  4  5  1  0
  4  2  1  0
  5  6  1  6
  7  8  2  0
  7  5  1  0
  9 10  1  0
 10 11  2  0
 12 13  1  0
 12 10  1  0
 13 14  1  0
 14 15  1  0
 16 15  1  1
 16 17  1  0
 17  7  1  0
 18 16  1  0
 19 18  2  0
 20 18  1  0
 21 20  1  0
 22 21  1  0
 23 24  1  0
 23 22  1  0
 24 20  1  0
 25 27  1  0
 24 25  1  1
 26 25  2  0
M  END
$$$$
