NRP.pdb
     RDKit          3D

 27 27  0  0  1  0  0  0  0  0999 V2000
    8.7400  -12.5689   17.4270 N   0  0  0  0  0  0  0  0  0  0  0  0
    8.1409  -13.7628   17.9264 C   0  0  0  0  0  0  0  0  0  0  0  0
    8.1208  -14.7844   17.2186 O   0  0  0  0  0  0  0  0  0  0  0  0
    7.5603  -13.7532   19.2720 C   0  0  0  0  0  0  0  0  0  0  0  0
    8.4954  -14.3670   20.3163 C   0  0  2  0  0  0  0  0  0  0  0  0
    8.7233  -15.7337   19.9311 N   0  0  0  0  0  0  0  0  0  0  0  0
    7.7937  -14.2371   21.6195 C   0  0  0  0  0  0  0  0  0  0  0  0
    7.4360  -13.1001   21.9728 O   0  0  0  0  0  0  0  0  0  0  0  0
    6.1349  -21.4961   25.1322 N   0  0  0  0  0  0  0  0  0  0  0  0
    7.1153  -21.0629   24.2032 C   0  0  0  0  0  0  0  0  0  0  0  0
    7.5971  -21.8356   23.3088 N   0  0  0  0  0  0  0  0  0  0  0  0
    7.5795  -19.7072   24.2746 N   0  0  0  0  0  0  0  0  0  0  0  0
    6.8200  -18.6215   23.6941 C   0  0  0  0  0  0  0  0  0  0  0  0
    6.9026  -17.4475   24.6735 C   0  0  0  0  0  0  0  0  0  0  0  0
    6.1275  -16.3321   24.0780 C   0  0  0  0  0  0  0  0  0  0  0  0
    6.9169  -15.1092   23.7515 C   0  0  2  0  0  0  0  0  0  0  0  0
    7.5271  -15.3610   22.4556 N   0  0  0  0  0  0  0  0  0  0  0  0
    7.8459  -14.7031   24.8030 C   0  0  0  0  0  0  0  0  0  0  0  0
    9.0175  -15.2541   24.7176 O   0  0  0  0  0  0  0  0  0  0  0  0
    8.3364  -21.5192   22.6659 N   0  0  0  0  0  0  0  0  0  0  0  0
    7.5888  -13.7991   25.8632 C   0  0  0  0  0  0  0  0  0  0  0  0
    6.3556  -13.1625   26.1880 C   0  0  0  0  0  0  0  0  0  0  0  0
    6.6269  -12.3885   27.5007 C   0  0  0  0  0  0  0  0  0  0  0  0
    8.1056  -12.0655   27.3078 C   0  0  1  0  0  0  0  0  0  0  0  0
    8.5922  -13.3982   26.8105 C   0  0  0  0  0  0  0  0  0  0  0  0
    8.7870  -14.3757   27.9028 O   0  0  0  0  0  0  0  0  0  0  0  0
    7.9685  -15.3239   28.0061 O   0  0  0  0  0  0  0  0  0  0  0  0
  2  1  1  0
  2  3  2  0
  4  5  1  0
  4  2  1  0
  5  6  1  6
  7  8  2  0
  7  5  1  0
  9 10  1  0
 10 11  2  0
 12 13  1  0
 12 10  1  0
 13 14  1  0
 14 15  1  0
 16 15  1  1
 16 17  1  0
 17  7  1  0
 18 16  1  0
 19 18  2  0
 20 18  1  0
 21 20  1  0
 22 21  1  0
 23 24  1  0
 23 22  1  0
 24 20  1  0
 25 27  1  0
 24 25  1  1
 26 25  2  0
M  END
$$$$
