NRP.pdb
     RDKit          3D

 27 27  0  0  1  0  0  0  0  0999 V2000
   17.7194  -16.2447   22.4891 N   0  0  0  0  0  0  0  0  0  0  0  0
   16.4771  -16.6207   21.8981 C   0  0  0  0  0  0  0  0  0  0  0  0
   16.4577  -17.4778   20.9980 O   0  0  0  0  0  0  0  0  0  0  0  0
   15.2465  -15.9813   22.3719 C   0  0  0  0  0  0  0  0  0  0  0  0
   14.4414  -16.8852   23.3080 C   0  0  2  0  0  0  0  0  0  0  0  0
   14.0263  -18.0287   22.5411 N   0  0  0  0  0  0  0  0  0  0  0  0
   13.3028  -16.0620   23.7914 C   0  0  0  0  0  0  0  0  0  0  0  0
   13.5611  -14.9493   24.2820 O   0  0  0  0  0  0  0  0  0  0  0  0
    6.1481  -14.3995   20.3330 N   0  0  0  0  0  0  0  0  0  0  0  0
    7.3085  -13.6424   20.6371 C   0  0  0  0  0  0  0  0  0  0  0  0
    7.7939  -12.7823   19.8287 N   0  0  0  0  0  0  0  0  0  0  0  0
    7.9570  -13.8541   21.8994 N   0  0  0  0  0  0  0  0  0  0  0  0
    7.5586  -14.9328   22.7771 C   0  0  0  0  0  0  0  0  0  0  0  0
    8.5673  -14.9649   23.9284 C   0  0  0  0  0  0  0  0  0  0  0  0
    9.7546  -15.7093   23.4426 C   0  0  0  0  0  0  0  0  0  0  0  0
   10.9316  -15.7017   24.3591 C   0  0  2  0  0  0  0  0  0  0  0  0
   11.9512  -16.5085   23.7075 N   0  0  0  0  0  0  0  0  0  0  0  0
   10.6189  -16.0920   25.7314 C   0  0  0  0  0  0  0  0  0  0  0  0
   10.6612  -17.3718   25.9417 O   0  0  0  0  0  0  0  0  0  0  0  0
    8.6550  -12.2628   20.0490 N   0  0  0  0  0  0  0  0  0  0  0  0
   10.2865  -15.2311   26.8064 C   0  0  0  0  0  0  0  0  0  0  0  0
    9.6847  -13.9409   26.7375 C   0  0  0  0  0  0  0  0  0  0  0  0
    9.4444  -13.5214   28.2079 C   0  0  0  0  0  0  0  0  0  0  0  0
   10.6106  -14.2444   28.8754 C   0  0  1  0  0  0  0  0  0  0  0  0
   10.5117  -15.5753   28.1832 C   0  0  0  0  0  0  0  0  0  0  0  0
    9.4501  -16.4338   28.7512 O   0  0  0  0  0  0  0  0  0  0  0  0
    8.3961  -16.5958   28.0859 O   0  0  0  0  0  0  0  0  0  0  0  0
  2  1  1  0
  2  3  2  0
  4  5  1  0
  4  2  1  0
  5  6  1  6
  7  8  2  0
  7  5  1  0
  9 10  1  0
 10 11  2  0
 12 13  1  0
 12 10  1  0
 13 14  1  0
 14 15  1  0
 16 15  1  6
 16 17  1  0
 17  7  1  0
 18 16  1  0
 19 18  2  0
 20 18  1  0
 21 20  1  0
 22 21  1  0
 23 24  1  0
 23 22  1  0
 24 20  1  0
 25 27  1  0
 24 25  1  6
 26 25  2  0
M  END
$$$$
