NRP.pdb
     RDKit          3D

 27 27  0  0  1  0  0  0  0  0999 V2000
   14.1633  -19.4310   21.0737 N   0  0  0  0  0  0  0  0  0  0  0  0
   13.9912  -19.5841   22.4811 C   0  0  0  0  0  0  0  0  0  0  0  0
   14.3286  -20.6467   23.0308 O   0  0  0  0  0  0  0  0  0  0  0  0
   13.4164  -18.4754   23.2479 C   0  0  0  0  0  0  0  0  0  0  0  0
   12.8950  -17.3519   22.3491 C   0  0  2  0  0  0  0  0  0  0  0  0
   14.0380  -16.7437   21.7232 N   0  0  0  0  0  0  0  0  0  0  0  0
   12.1561  -16.4233   23.2431 C   0  0  0  0  0  0  0  0  0  0  0  0
   12.8228  -15.6440   23.9458 O   0  0  0  0  0  0  0  0  0  0  0  0
    7.3223  -14.4683   18.6462 N   0  0  0  0  0  0  0  0  0  0  0  0
    7.4840  -13.8890   19.9308 C   0  0  0  0  0  0  0  0  0  0  0  0
    8.0380  -12.7520   20.1023 N   0  0  0  0  0  0  0  0  0  0  0  0
    7.0066  -14.6099   21.0758 N   0  0  0  0  0  0  0  0  0  0  0  0
    7.1607  -14.0819   22.4138 C   0  0  0  0  0  0  0  0  0  0  0  0
    8.6418  -14.2172   22.7774 C   0  0  0  0  0  0  0  0  0  0  0  0
    8.7369  -15.2673   23.8205 C   0  0  0  0  0  0  0  0  0  0  0  0
   10.1150  -15.5522   24.3155 C   0  0  2  0  0  0  0  0  0  0  0  0
   10.7319  -16.4055   23.3124 N   0  0  0  0  0  0  0  0  0  0  0  0
   10.1610  -16.0708   25.6802 C   0  0  0  0  0  0  0  0  0  0  0  0
   10.3150  -17.3571   25.7539 O   0  0  0  0  0  0  0  0  0  0  0  0
    8.3134  -12.4234   21.0383 N   0  0  0  0  0  0  0  0  0  0  0  0
   10.0555  -15.3229   26.8789 C   0  0  0  0  0  0  0  0  0  0  0  0
    9.6283  -13.9716   27.0299 C   0  0  0  0  0  0  0  0  0  0  0  0
    9.5937  -13.7206   28.5569 C   0  0  0  0  0  0  0  0  0  0  0  0
   10.7128  -14.6596   28.9972 C   0  0  1  0  0  0  0  0  0  0  0  0
   10.3681  -15.8677   28.1713 C   0  0  0  0  0  0  0  0  0  0  0  0
    9.2626  -16.6581   28.7543 O   0  0  0  0  0  0  0  0  0  0  0  0
    9.4857  -17.3072   29.8072 O   0  0  0  0  0  0  0  0  0  0  0  0
  2  1  1  0
  2  3  2  0
  4  5  1  0
  4  2  1  0
  5  6  1  1
  7  8  2  0
  7  5  1  0
  9 10  1  0
 10 11  2  0
 12 13  1  0
 12 10  1  0
 13 14  1  0
 14 15  1  0
 16 15  1  6
 16 17  1  0
 17  7  1  0
 18 16  1  0
 19 18  2  0
 20 18  1  0
 21 20  1  0
 22 21  1  0
 23 24  1  0
 23 22  1  0
 24 20  1  0
 25 27  1  0
 24 25  1  6
 26 25  2  0
M  END
$$$$
