NRP.pdb
     RDKit          3D

 27 27  0  0  1  0  0  0  0  0999 V2000
   13.6783  -20.9151   22.5251 N   0  0  0  0  0  0  0  0  0  0  0  0
   14.6123  -19.9278   22.9572 C   0  0  0  0  0  0  0  0  0  0  0  0
   15.8283  -20.1077   22.7726 O   0  0  0  0  0  0  0  0  0  0  0  0
   14.1091  -18.7175   23.6129 C   0  0  0  0  0  0  0  0  0  0  0  0
   13.5018  -17.7244   22.6196 C   0  0  2  0  0  0  0  0  0  0  0  0
   14.5922  -17.1215   21.9015 N   0  0  0  0  0  0  0  0  0  0  0  0
   12.7308  -16.7508   23.4351 C   0  0  0  0  0  0  0  0  0  0  0  0
   13.3714  -15.9317   24.1165 O   0  0  0  0  0  0  0  0  0  0  0  0
    6.0263  -13.2775   20.2114 N   0  0  0  0  0  0  0  0  0  0  0  0
    7.2417  -13.5569   19.5357 C   0  0  0  0  0  0  0  0  0  0  0  0
    7.4173  -13.2780   18.3027 N   0  0  0  0  0  0  0  0  0  0  0  0
    8.3095  -14.1754   20.2678 N   0  0  0  0  0  0  0  0  0  0  0  0
    8.1791  -14.4752   21.6770 C   0  0  0  0  0  0  0  0  0  0  0  0
    9.5140  -15.0728   22.1299 C   0  0  0  0  0  0  0  0  0  0  0  0
    9.3792  -15.3885   23.5728 C   0  0  0  0  0  0  0  0  0  0  0  0
   10.6520  -15.7261   24.2738 C   0  0  2  0  0  0  0  0  0  0  0  0
   11.3050  -16.7342   23.4540 N   0  0  0  0  0  0  0  0  0  0  0  0
   10.4790  -16.0892   25.6779 C   0  0  0  0  0  0  0  0  0  0  0  0
   10.5822  -17.3610   25.9136 O   0  0  0  0  0  0  0  0  0  0  0  0
    8.3040  -13.4894   17.8242 N   0  0  0  0  0  0  0  0  0  0  0  0
   10.2182  -15.2106   26.7584 C   0  0  0  0  0  0  0  0  0  0  0  0
    9.7753  -13.8573   26.6956 C   0  0  0  0  0  0  0  0  0  0  0  0
    9.5420  -13.4335   28.1660 C   0  0  0  0  0  0  0  0  0  0  0  0
   10.5940  -14.2992   28.8531 C   0  0  1  0  0  0  0  0  0  0  0  0
   10.3596  -15.5989   28.1346 C   0  0  0  0  0  0  0  0  0  0  0  0
    9.1873  -16.3336   28.6568 O   0  0  0  0  0  0  0  0  0  0  0  0
    8.1221  -16.3059   27.9902 O   0  0  0  0  0  0  0  0  0  0  0  0
  2  1  1  0
  2  3  2  0
  4  5  1  0
  4  2  1  0
  5  6  1  1
  7  8  2  0
  7  5  1  0
  9 10  1  0
 10 11  2  0
 12 13  1  0
 12 10  1  0
 13 14  1  0
 14 15  1  0
 16 15  1  6
 16 17  1  0
 17  7  1  0
 18 16  1  0
 19 18  2  0
 20 18  1  0
 21 20  1  0
 22 21  1  0
 23 24  1  0
 23 22  1  0
 24 20  1  0
 25 27  1  0
 24 25  1  1
 26 25  2  0
M  END
$$$$
