NRP.pdb
     RDKit          3D

 27 27  0  0  1  0  0  0  0  0999 V2000
    9.1415  -14.7125   17.8702 N   0  0  0  0  0  0  0  0  0  0  0  0
    7.9843  -13.8798   17.8338 C   0  0  0  0  0  0  0  0  0  0  0  0
    7.2290  -13.9177   16.8473 O   0  0  0  0  0  0  0  0  0  0  0  0
    7.7144  -12.9943   18.9700 C   0  0  0  0  0  0  0  0  0  0  0  0
    8.7487  -13.1461   20.0876 C   0  0  2  0  0  0  0  0  0  0  0  0
    9.7024  -14.1307   19.6528 N   0  0  0  0  0  0  0  0  0  0  0  0
    7.9882  -13.5630   21.2941 C   0  0  0  0  0  0  0  0  0  0  0  0
    7.1148  -12.7893   21.7231 O   0  0  0  0  0  0  0  0  0  0  0  0
    6.4210  -20.6921   27.7190 N   0  0  0  0  0  0  0  0  0  0  0  0
    6.7717  -20.3117   26.3983 C   0  0  0  0  0  0  0  0  0  0  0  0
    7.1297  -21.1609   25.5153 N   0  0  0  0  0  0  0  0  0  0  0  0
    6.7211  -18.9216   26.0462 N   0  0  0  0  0  0  0  0  0  0  0  0
    6.9538  -18.4818   24.6879 C   0  0  0  0  0  0  0  0  0  0  0  0
    6.9288  -16.9510   24.7058 C   0  0  0  0  0  0  0  0  0  0  0  0
    7.4722  -16.4944   23.4035 C   0  0  0  0  0  0  0  0  0  0  0  0
    7.5926  -15.0159   23.2453 C   0  0  2  0  0  0  0  0  0  0  0  0
    8.2314  -14.8022   21.9564 N   0  0  0  0  0  0  0  0  0  0  0  0
    8.2380  -14.3481   24.3726 C   0  0  0  0  0  0  0  0  0  0  0  0
    9.5327  -14.4346   24.3700 O   0  0  0  0  0  0  0  0  0  0  0  0
    7.4686  -20.8641   24.5895 N   0  0  0  0  0  0  0  0  0  0  0  0
    7.5998  -13.6451   25.4243 C   0  0  0  0  0  0  0  0  0  0  0  0
    6.2019  -13.4461   25.6189 C   0  0  0  0  0  0  0  0  0  0  0  0
    6.0767  -12.7206   26.9805 C   0  0  0  0  0  0  0  0  0  0  0  0
    7.3895  -11.9430   26.9792 C   0  0  2  0  0  0  0  0  0  0  0  0
    8.3209  -13.0211   26.4992 C   0  0  0  0  0  0  0  0  0  0  0  0
    8.6994  -13.9648   27.5730 O   0  0  0  0  0  0  0  0  0  0  0  0
    8.1857  -15.1118   27.5657 O   0  0  0  0  0  0  0  0  0  0  0  0
  2  1  1  0
  2  3  2  0
  4  5  1  0
  4  2  1  0
  5  6  1  6
  7  8  2  0
  7  5  1  0
  9 10  1  0
 10 11  2  0
 12 13  1  0
 12 10  1  0
 13 14  1  0
 14 15  1  0
 16 15  1  1
 16 17  1  0
 17  7  1  0
 18 16  1  0
 19 18  2  0
 20 18  1  0
 21 20  1  0
 22 21  1  0
 23 24  1  0
 23 22  1  0
 24 20  1  0
 25 27  1  0
 24 25  1  1
 26 25  2  0
M  END
$$$$
