NRP.pdb
     RDKit          3D

 27 27  0  0  1  0  0  0  0  0999 V2000
    9.2098  -13.8302   17.7204 N   0  0  0  0  0  0  0  0  0  0  0  0
    8.7545  -12.7586   18.5439 C   0  0  0  0  0  0  0  0  0  0  0  0
    9.0124  -11.5850   18.2257 O   0  0  0  0  0  0  0  0  0  0  0  0
    7.9883  -13.0724   19.7531 C   0  0  0  0  0  0  0  0  0  0  0  0
    7.8383  -14.5790   19.9751 C   0  0  2  0  0  0  0  0  0  0  0  0
    6.8889  -15.0585   19.0072 N   0  0  0  0  0  0  0  0  0  0  0  0
    7.3747  -14.7412   21.3774 C   0  0  0  0  0  0  0  0  0  0  0  0
    6.2041  -14.4157   21.6407 O   0  0  0  0  0  0  0  0  0  0  0  0
    7.2246  -21.6431   26.0633 N   0  0  0  0  0  0  0  0  0  0  0  0
    6.8682  -20.6733   27.0352 C   0  0  0  0  0  0  0  0  0  0  0  0
    6.5191  -20.9911   28.2210 N   0  0  0  0  0  0  0  0  0  0  0  0
    6.9024  -19.2866   26.6683 N   0  0  0  0  0  0  0  0  0  0  0  0
    7.2585  -18.8725   25.3287 C   0  0  0  0  0  0  0  0  0  0  0  0
    7.1783  -17.3438   25.2997 C   0  0  0  0  0  0  0  0  0  0  0  0
    7.5821  -16.9153   23.9385 C   0  0  0  0  0  0  0  0  0  0  0  0
    7.6432  -15.4400   23.7256 C   0  0  2  0  0  0  0  0  0  0  0  0
    8.2221  -15.2500   22.4052 N   0  0  0  0  0  0  0  0  0  0  0  0
    8.3085  -14.7112   24.8024 C   0  0  0  0  0  0  0  0  0  0  0  0
    9.5942  -14.8815   24.8428 O   0  0  0  0  0  0  0  0  0  0  0  0
    6.3787  -20.2778   28.9500 N   0  0  0  0  0  0  0  0  0  0  0  0
    7.6974  -13.8711   25.7659 C   0  0  0  0  0  0  0  0  0  0  0  0
    6.3230  -13.5055   25.8589 C   0  0  0  0  0  0  0  0  0  0  0  0
    6.2059  -12.6786   27.1622 C   0  0  0  0  0  0  0  0  0  0  0  0
    7.5973  -12.0533   27.1958 C   0  0  2  0  0  0  0  0  0  0  0  0
    8.4241  -13.2585   26.8435 C   0  0  0  0  0  0  0  0  0  0  0  0
    8.6312  -14.1621   27.9956 O   0  0  0  0  0  0  0  0  0  0  0  0
    9.3125  -13.7437   28.9654 O   0  0  0  0  0  0  0  0  0  0  0  0
  2  1  1  0
  2  3  2  0
  4  5  1  0
  4  2  1  0
  5  6  1  6
  7  8  2  0
  7  5  1  0
  9 10  1  0
 10 11  2  0
 12 13  1  0
 12 10  1  0
 13 14  1  0
 14 15  1  0
 16 15  1  1
 16 17  1  0
 17  7  1  0
 18 16  1  0
 19 18  2  0
 20 18  1  0
 21 20  1  0
 22 21  1  0
 23 24  1  0
 23 22  1  0
 24 20  1  0
 25 27  1  0
 24 25  1  1
 26 25  2  0
M  END
$$$$
