NRP.pdb
     RDKit          3D

 27 27  0  0  1  0  0  0  0  0999 V2000
   13.3214  -19.1129   21.7107 N   0  0  0  0  0  0  0  0  0  0  0  0
   12.4678  -19.2791   22.8409 C   0  0  0  0  0  0  0  0  0  0  0  0
   12.5528  -20.3097   23.5306 O   0  0  0  0  0  0  0  0  0  0  0  0
   11.5052  -18.2216   23.1615 C   0  0  0  0  0  0  0  0  0  0  0  0
   11.5664  -17.0561   22.1717 C   0  0  2  0  0  0  0  0  0  0  0  0
   12.9503  -16.6918   22.0296 N   0  0  0  0  0  0  0  0  0  0  0  0
   10.7358  -15.9748   22.7620 C   0  0  0  0  0  0  0  0  0  0  0  0
   11.2642  -15.2393   23.6136 O   0  0  0  0  0  0  0  0  0  0  0  0
    7.8602  -15.6037   18.1149 N   0  0  0  0  0  0  0  0  0  0  0  0
    7.8636  -14.2221   17.7936 C   0  0  0  0  0  0  0  0  0  0  0  0
    8.3843  -13.7723   16.7186 N   0  0  0  0  0  0  0  0  0  0  0  0
    7.2594  -13.3005   18.7124 N   0  0  0  0  0  0  0  0  0  0  0  0
    6.7289  -13.7451   19.9826 C   0  0  0  0  0  0  0  0  0  0  0  0
    7.8321  -13.5350   21.0233 C   0  0  0  0  0  0  0  0  0  0  0  0
    7.4877  -14.3771   22.1947 C   0  0  0  0  0  0  0  0  0  0  0  0
    8.6317  -14.7323   23.0838 C   0  0  2  0  0  0  0  0  0  0  0  0
    9.3772  -15.7657   22.3828 N   0  0  0  0  0  0  0  0  0  0  0  0
    8.2400  -15.0721   24.4492 C   0  0  0  0  0  0  0  0  0  0  0  0
    8.4387  -16.3150   24.7644 O   0  0  0  0  0  0  0  0  0  0  0  0
    8.3208  -12.7763   16.4658 N   0  0  0  0  0  0  0  0  0  0  0  0
    7.6847  -14.1995   25.4175 C   0  0  0  0  0  0  0  0  0  0  0  0
    7.3420  -12.8250   25.2595 C   0  0  0  0  0  0  0  0  0  0  0  0
    6.6690  -12.4145   26.5917 C   0  0  0  0  0  0  0  0  0  0  0  0
    7.4094  -13.3424   27.5503 C   0  0  1  0  0  0  0  0  0  0  0  0
    7.3627  -14.6169   26.7543 C   0  0  0  0  0  0  0  0  0  0  0  0
    6.0555  -15.3011   26.8529 O   0  0  0  0  0  0  0  0  0  0  0  0
    5.2407  -15.1673   25.9053 O   0  0  0  0  0  0  0  0  0  0  0  0
  2  1  1  0
  2  3  2  0
  4  5  1  0
  4  2  1  0
  5  6  1  1
  7  8  2  0
  7  5  1  0
  9 10  1  0
 10 11  2  0
 12 13  1  0
 12 10  1  0
 13 14  1  0
 14 15  1  0
 16 15  1  6
 16 17  1  0
 17  7  1  0
 18 16  1  0
 19 18  2  0
 20 18  1  0
 21 20  1  0
 22 21  1  0
 23 24  1  0
 23 22  1  0
 24 20  1  0
 25 27  1  0
 24 25  1  6
 26 25  2  0
M  END
$$$$
