LTD.pdb
     RDKit          3D

 24 23  0  0  1  0  0  0  0  0999 V2000
   28.2843  -18.1407  -17.6617 C   0  0  0  0  0  0  0  0  0  0  0  0
   28.8270  -19.4556  -17.1539 C   0  0  2  0  0  0  0  0  0  0  0  0
   29.2157  -20.2672  -18.3715 C   0  0  0  0  0  0  0  0  0  0  0  0
   27.8078  -20.2398  -16.3773 C   0  0  0  0  0  0  0  0  0  0  0  0
   27.1277  -19.4357  -15.3076 C   0  0  2  0  0  0  0  0  0  0  0  0
   28.0526  -18.9597  -14.3013 N   0  0  0  0  0  0  0  0  0  0  0  0
   26.1480  -20.3283  -14.6314 C   0  0  0  0  0  0  0  0  0  0  0  0
   25.6905  -21.3265  -15.2930 O   0  0  0  0  0  0  0  0  0  0  0  0
   26.1711  -21.5318  -10.8927 C   0  0  0  0  0  0  0  0  0  0  0  0
   24.7773  -21.1033  -11.2616 C   0  0  1  0  0  0  0  0  0  0  0  0
   24.4707  -19.8604  -10.7202 O   0  0  0  0  0  0  0  0  0  0  0  0
   24.6990  -21.0441  -12.7809 C   0  0  2  0  0  0  0  0  0  0  0  0
   25.6898  -20.1411  -13.2998 N   0  0  0  0  0  0  0  0  0  0  0  0
   23.3261  -20.6658  -13.2197 C   0  0  0  0  0  0  0  0  0  0  0  0
   22.9597  -19.4726  -13.3533 O   0  0  0  0  0  0  0  0  0  0  0  0
   22.3389  -21.6596  -13.5158 N   0  0  0  0  0  0  0  0  0  0  0  0
   20.9695  -21.3458  -13.8746 C   0  0  1  0  0  0  0  0  0  0  0  0
   20.7431  -21.9939  -15.2331 C   0  0  0  0  0  0  0  0  0  0  0  0
   20.4538  -21.0185  -16.3004 C   0  0  0  0  0  0  0  0  0  0  0  0
   20.3436  -19.7954  -16.0695 O   0  0  0  0  0  0  0  0  0  0  0  0
   20.0091  -21.8080  -12.8639 C   0  0  0  0  0  0  0  0  0  0  0  0
   20.1710  -22.8569  -12.1954 O   0  0  0  0  0  0  0  0  0  0  0  0
   20.2992  -21.4678  -17.5975 O   0  0  0  0  0  0  0  0  0  0  0  0
   18.8320  -21.0891  -12.5817 O   0  0  0  0  0  0  0  0  0  0  0  0
  2  1  1  6
  2  3  1  0
  4  5  1  0
  4  2  1  0
  5  6  1  1
  5  7  1  0
  7  8  2  0
 10 12  1  0
 10  9  1  6
 11 10  1  0
 12 14  1  0
 13  7  1  0
 12 13  1  1
 14 15  2  0
 16 17  1  0
 16 14  1  0
 17 21  1  0
 17 18  1  6
 19 20  2  0
 19 18  1  0
 21 22  2  0
 21 24  1  0
 23 19  1  0
M  END
$$$$
