LTD.pdb
     RDKit          3D

 24 23  0  0  1  0  0  0  0  0999 V2000
   19.2162  -15.3343  -15.4298 C   0  0  0  0  0  0  0  0  0  0  0  0
   19.6753  -14.8516  -16.7855 C   0  0  2  0  0  0  0  0  0  0  0  0
   21.1208  -15.2769  -16.9341 C   0  0  0  0  0  0  0  0  0  0  0  0
   19.6137  -13.3564  -16.9175 C   0  0  0  0  0  0  0  0  0  0  0  0
   18.2268  -12.8027  -16.7653 C   0  0  2  0  0  0  0  0  0  0  0  0
   17.3618  -13.1670  -17.8670 N   0  0  0  0  0  0  0  0  0  0  0  0
   18.3363  -11.3189  -16.7514 C   0  0  0  0  0  0  0  0  0  0  0  0
   18.5706  -10.7247  -17.8629 O   0  0  0  0  0  0  0  0  0  0  0  0
   15.9262   -8.8308  -16.4363 C   0  0  0  0  0  0  0  0  0  0  0  0
   16.9030   -8.4778  -15.3485 C   0  0  1  0  0  0  0  0  0  0  0  0
   16.4812   -8.9592  -14.1146 O   0  0  0  0  0  0  0  0  0  0  0  0
   18.2465   -9.0924  -15.7165 C   0  0  2  0  0  0  0  0  0  0  0  0
   18.1975  -10.5229  -15.5830 N   0  0  0  0  0  0  0  0  0  0  0  0
   19.3366   -8.4997  -14.8914 C   0  0  0  0  0  0  0  0  0  0  0  0
   19.7158   -9.0008  -13.8047 O   0  0  0  0  0  0  0  0  0  0  0  0
   20.0179   -7.3094  -15.3023 N   0  0  0  0  0  0  0  0  0  0  0  0
   21.0451   -6.6611  -14.5105 C   0  0  1  0  0  0  0  0  0  0  0  0
   21.4162   -5.3985  -15.2753 C   0  0  0  0  0  0  0  0  0  0  0  0
   22.4442   -4.5893  -14.5953 C   0  0  0  0  0  0  0  0  0  0  0  0
   23.3222   -5.1045  -13.8705 O   0  0  0  0  0  0  0  0  0  0  0  0
   20.5963   -6.3775  -13.1408 C   0  0  0  0  0  0  0  0  0  0  0  0
   21.3209   -6.5561  -12.1326 O   0  0  0  0  0  0  0  0  0  0  0  0
   22.4395   -3.2180  -14.7625 O   0  0  0  0  0  0  0  0  0  0  0  0
   19.3063   -5.8803  -12.8754 O   0  0  0  0  0  0  0  0  0  0  0  0
  2  1  1  1
  2  3  1  0
  4  5  1  0
  4  2  1  0
  5  6  1  6
  5  7  1  0
  7  8  2  0
 10 12  1  0
 10  9  1  6
 11 10  1  0
 12 14  1  0
 13  7  1  0
 12 13  1  1
 14 15  2  0
 16 17  1  0
 16 14  1  0
 17 21  1  0
 17 18  1  6
 19 20  2  0
 19 18  1  0
 21 22  2  0
 21 24  1  0
 23 19  1  0
M  END
$$$$
