LTD.pdb
     RDKit          3D

 24 23  0  0  1  0  0  0  0  0999 V2000
   27.7266  -18.2039   -6.2008 C   0  0  0  0  0  0  0  0  0  0  0  0
   27.6657  -19.7040   -6.0354 C   0  0  2  0  0  0  0  0  0  0  0  0
   29.0380  -20.1489   -5.5756 C   0  0  0  0  0  0  0  0  0  0  0  0
   27.3523  -20.4147   -7.3213 C   0  0  0  0  0  0  0  0  0  0  0  0
   26.0209  -20.0349   -7.9013 C   0  0  2  0  0  0  0  0  0  0  0  0
   24.9164  -20.4177   -7.0480 N   0  0  0  0  0  0  0  0  0  0  0  0
   25.8687  -20.7654   -9.1885 C   0  0  0  0  0  0  0  0  0  0  0  0
   25.4308  -21.9695   -9.1462 O   0  0  0  0  0  0  0  0  0  0  0  0
   23.6135  -21.5798  -10.6441 C   0  0  0  0  0  0  0  0  0  0  0  0
   24.2287  -20.8109  -11.7810 C   0  0  1  0  0  0  0  0  0  0  0  0
   23.8316  -19.4790  -11.7636 O   0  0  0  0  0  0  0  0  0  0  0  0
   25.7415  -20.9060  -11.6381 C   0  0  2  0  0  0  0  0  0  0  0  0
   26.1790  -20.2101  -10.4588 N   0  0  0  0  0  0  0  0  0  0  0  0
   26.4161  -20.3911  -12.8629 C   0  0  0  0  0  0  0  0  0  0  0  0
   26.7625  -19.1918  -12.9950 O   0  0  0  0  0  0  0  0  0  0  0  0
   26.7080  -21.2515  -13.9694 N   0  0  0  0  0  0  0  0  0  0  0  0
   27.3624  -20.8015  -15.1826 C   0  0  1  0  0  0  0  0  0  0  0  0
   28.0416  -22.0337  -15.7631 C   0  0  0  0  0  0  0  0  0  0  0  0
   28.6720  -21.7859  -17.0727 C   0  0  0  0  0  0  0  0  0  0  0  0
   28.5620  -20.6916  -17.6658 O   0  0  0  0  0  0  0  0  0  0  0  0
   26.4221  -20.1810  -16.1253 C   0  0  0  0  0  0  0  0  0  0  0  0
   25.3032  -20.6764  -16.4014 O   0  0  0  0  0  0  0  0  0  0  0  0
   29.4084  -22.7933  -17.6655 O   0  0  0  0  0  0  0  0  0  0  0  0
   26.7264  -18.9748  -16.7842 O   0  0  0  0  0  0  0  0  0  0  0  0
  2  1  1  6
  2  3  1  0
  4  5  1  0
  4  2  1  0
  5  6  1  1
  5  7  1  0
  7  8  2  0
 10 12  1  0
 10  9  1  1
 11 10  1  0
 12 14  1  0
 13  7  1  0
 12 13  1  1
 14 15  2  0
 16 17  1  0
 16 14  1  0
 17 21  1  0
 17 18  1  6
 19 20  2  0
 19 18  1  0
 21 22  2  0
 21 24  1  0
 23 19  1  0
M  END
$$$$
