LTD.pdb
     RDKit          3D

 24 23  0  0  1  0  0  0  0  0999 V2000
   32.4238   -2.4139  -13.2495 C   0  0  0  0  0  0  0  0  0  0  0  0
   33.5931   -3.3381  -13.4946 C   0  0  2  0  0  0  0  0  0  0  0  0
   34.8172   -2.4612  -13.6533 C   0  0  0  0  0  0  0  0  0  0  0  0
   33.4352   -4.1491  -14.7492 C   0  0  0  0  0  0  0  0  0  0  0  0
   34.4316   -5.2659  -14.8647 C   0  0  2  0  0  0  0  0  0  0  0  0
   35.7701   -4.7870  -15.1365 N   0  0  0  0  0  0  0  0  0  0  0  0
   34.0176   -6.1183  -16.0117 C   0  0  0  0  0  0  0  0  0  0  0  0
   34.3342   -5.7304  -17.1919 O   0  0  0  0  0  0  0  0  0  0  0  0
   34.9856   -9.4386  -17.0372 C   0  0  0  0  0  0  0  0  0  0  0  0
   33.4840   -9.4966  -16.9721 C   0  0  1  0  0  0  0  0  0  0  0  0
   33.0518  -10.0839  -15.7888 O   0  0  0  0  0  0  0  0  0  0  0  0
   32.9619   -8.0697  -17.0673 C   0  0  2  0  0  0  0  0  0  0  0  0
   33.2937   -7.3334  -15.8781 N   0  0  0  0  0  0  0  0  0  0  0  0
   31.4943   -8.0657  -17.3254 C   0  0  0  0  0  0  0  0  0  0  0  0
   30.6598   -7.6230  -16.4986 O   0  0  0  0  0  0  0  0  0  0  0  0
   30.9523   -8.5748  -18.5489 N   0  0  0  0  0  0  0  0  0  0  0  0
   29.5341   -8.5923  -18.8501 C   0  0  1  0  0  0  0  0  0  0  0  0
   29.2301   -7.2359  -19.4702 C   0  0  0  0  0  0  0  0  0  0  0  0
   27.8202   -6.8317  -19.3192 C   0  0  0  0  0  0  0  0  0  0  0  0
   26.9750   -7.5662  -18.7647 O   0  0  0  0  0  0  0  0  0  0  0  0
   29.1656   -9.7086  -19.7310 C   0  0  0  0  0  0  0  0  0  0  0  0
   29.9949  -10.3143  -20.4513 O   0  0  0  0  0  0  0  0  0  0  0  0
   27.4176   -5.6027  -19.8050 O   0  0  0  0  0  0  0  0  0  0  0  0
   27.8390  -10.1714  -19.8195 O   0  0  0  0  0  0  0  0  0  0  0  0
  2  1  1  6
  2  3  1  0
  4  5  1  0
  4  2  1  0
  5  6  1  6
  5  7  1  0
  7  8  2  0
 10 12  1  0
 10  9  1  1
 11 10  1  0
 12 14  1  0
 13  7  1  0
 12 13  1  1
 14 15  2  0
 16 17  1  0
 16 14  1  0
 17 21  1  0
 17 18  1  6
 19 20  2  0
 19 18  1  0
 21 22  2  0
 21 24  1  0
 23 19  1  0
M  END
$$$$
