LTD.pdb
     RDKit          3D

 24 23  0  0  1  0  0  0  0  0999 V2000
   18.7955  -12.1856  -20.2901 C   0  0  0  0  0  0  0  0  0  0  0  0
   17.8492  -11.9902  -19.1292 C   0  0  2  0  0  0  0  0  0  0  0  0
   16.7380  -11.0857  -19.6187 C   0  0  0  0  0  0  0  0  0  0  0  0
   18.5071  -11.3255  -17.9535 C   0  0  0  0  0  0  0  0  0  0  0  0
   19.6856  -12.0882  -17.4219 C   0  0  2  0  0  0  0  0  0  0  0  0
   19.3009  -13.3359  -16.7974 N   0  0  0  0  0  0  0  0  0  0  0  0
   20.3319  -11.2447  -16.3804 C   0  0  0  0  0  0  0  0  0  0  0  0
   19.7532  -11.1518  -15.2403 O   0  0  0  0  0  0  0  0  0  0  0  0
   23.6365  -11.5580  -14.9214 C   0  0  0  0  0  0  0  0  0  0  0  0
   23.5434  -10.0943  -15.2550 C   0  0  1  0  0  0  0  0  0  0  0  0
   24.2810   -9.7874  -16.3925 O   0  0  0  0  0  0  0  0  0  0  0  0
   22.0745   -9.7644  -15.4812 C   0  0  2  0  0  0  0  0  0  0  0  0
   21.5487  -10.5375  -16.5732 N   0  0  0  0  0  0  0  0  0  0  0  0
   21.8951   -8.3023  -15.7055 C   0  0  0  0  0  0  0  0  0  0  0  0
   21.6039   -7.8171  -16.8261 O   0  0  0  0  0  0  0  0  0  0  0  0
   22.0484   -7.3610  -14.6376 N   0  0  0  0  0  0  0  0  0  0  0  0
   21.9259   -5.9267  -14.8110 C   0  0  1  0  0  0  0  0  0  0  0  0
   20.5122   -5.6954  -15.3254 C   0  0  0  0  0  0  0  0  0  0  0  0
   20.2113   -4.2739  -15.5762 C   0  0  0  0  0  0  0  0  0  0  0  0
   21.1097   -3.4086  -15.6511 O   0  0  0  0  0  0  0  0  0  0  0  0
   22.2003   -5.1903  -13.5699 C   0  0  0  0  0  0  0  0  0  0  0  0
   22.0726   -5.6986  -12.4303 O   0  0  0  0  0  0  0  0  0  0  0  0
   18.8957   -3.8830  -15.7337 O   0  0  0  0  0  0  0  0  0  0  0  0
   22.6296   -3.8497  -13.5872 O   0  0  0  0  0  0  0  0  0  0  0  0
  2  1  1  6
  2  3  1  0
  4  5  1  0
  4  2  1  0
  5  6  1  1
  5  7  1  0
  7  8  2  0
 10 12  1  0
 10  9  1  6
 11 10  1  0
 12 14  1  0
 13  7  1  0
 12 13  1  6
 14 15  2  0
 16 17  1  0
 16 14  1  0
 17 21  1  0
 17 18  1  1
 19 20  2  0
 19 18  1  0
 21 22  2  0
 21 24  1  0
 23 19  1  0
M  END
$$$$
