LTD.pdb
     RDKit          3D

 24 23  0  0  1  0  0  0  0  0999 V2000
   24.7057  -15.8068  -17.2600 C   0  0  0  0  0  0  0  0  0  0  0  0
   25.4820  -16.7328  -18.1662 C   0  0  2  0  0  0  0  0  0  0  0  0
   25.0659  -16.4059  -19.5848 C   0  0  0  0  0  0  0  0  0  0  0  0
   25.1742  -18.1812  -17.9126 C   0  0  0  0  0  0  0  0  0  0  0  0
   25.6352  -18.6601  -16.5667 C   0  0  2  0  0  0  0  0  0  0  0  0
   26.8914  -19.3758  -16.6348 N   0  0  0  0  0  0  0  0  0  0  0  0
   24.6072  -19.6044  -16.0515 C   0  0  0  0  0  0  0  0  0  0  0  0
   24.1580  -20.4977  -16.8538 O   0  0  0  0  0  0  0  0  0  0  0  0
   25.0825  -21.9764  -13.5938 C   0  0  0  0  0  0  0  0  0  0  0  0
   23.7685  -21.3960  -13.1482 C   0  0  1  0  0  0  0  0  0  0  0  0
   23.9319  -20.5593  -12.0504 O   0  0  0  0  0  0  0  0  0  0  0  0
   23.1882  -20.6138  -14.3183 C   0  0  2  0  0  0  0  0  0  0  0  0
   24.0946  -19.5756  -14.7269 N   0  0  0  0  0  0  0  0  0  0  0  0
   21.8469  -20.0671  -13.9684 C   0  0  0  0  0  0  0  0  0  0  0  0
   21.6926  -18.9664  -13.3849 O   0  0  0  0  0  0  0  0  0  0  0  0
   20.6466  -20.7805  -14.2846 N   0  0  0  0  0  0  0  0  0  0  0  0
   19.3189  -20.2992  -13.9559 C   0  0  1  0  0  0  0  0  0  0  0  0
   18.9445  -19.3349  -15.0725 C   0  0  0  0  0  0  0  0  0  0  0  0
   17.5505  -18.8621  -14.9877 C   0  0  0  0  0  0  0  0  0  0  0  0
   17.0932  -18.3259  -13.9558 O   0  0  0  0  0  0  0  0  0  0  0  0
   18.3501  -21.3936  -13.8096 C   0  0  0  0  0  0  0  0  0  0  0  0
   18.5190  -22.5290  -14.3153 O   0  0  0  0  0  0  0  0  0  0  0  0
   16.7211  -19.0153  -16.0818 O   0  0  0  0  0  0  0  0  0  0  0  0
   17.1565  -21.2296  -13.0813 O   0  0  0  0  0  0  0  0  0  0  0  0
  2  1  1  1
  2  3  1  0
  4  5  1  0
  4  2  1  0
  5  6  1  6
  5  7  1  0
  7  8  2  0
 10 12  1  0
 10  9  1  6
 11 10  1  0
 12 14  1  0
 13  7  1  0
 12 13  1  1
 14 15  2  0
 16 17  1  0
 16 14  1  0
 17 21  1  0
 17 18  1  6
 19 20  2  0
 19 18  1  0
 21 22  2  0
 21 24  1  0
 23 19  1  0
M  END
$$$$
