LTD.pdb
     RDKit          3D

 24 23  0  0  1  0  0  0  0  0999 V2000
   25.7214  -12.2781  -15.1586 C   0  0  0  0  0  0  0  0  0  0  0  0
   26.0628  -11.2247  -16.1858 C   0  0  2  0  0  0  0  0  0  0  0  0
   27.2406  -10.4463  -15.6386 C   0  0  0  0  0  0  0  0  0  0  0  0
   24.9354  -10.2599  -16.4204 C   0  0  0  0  0  0  0  0  0  0  0  0
   23.7046  -10.9092  -16.9834 C   0  0  2  0  0  0  0  0  0  0  0  0
   23.9442  -11.5257  -18.2707 N   0  0  0  0  0  0  0  0  0  0  0  0
   22.6854   -9.8429  -17.1784 C   0  0  0  0  0  0  0  0  0  0  0  0
   22.8760   -8.9970  -18.1226 O   0  0  0  0  0  0  0  0  0  0  0  0
   19.1017  -10.1141  -17.8989 C   0  0  0  0  0  0  0  0  0  0  0  0
   19.1785   -9.1472  -16.7493 C   0  0  1  0  0  0  0  0  0  0  0  0
   18.8302   -9.7586  -15.5506 O   0  0  0  0  0  0  0  0  0  0  0  0
   20.6087   -8.6304  -16.6749 C   0  0  2  0  0  0  0  0  0  0  0  0
   21.5165   -9.7060  -16.3827 N   0  0  0  0  0  0  0  0  0  0  0  0
   20.7166   -7.5319  -15.6740 C   0  0  0  0  0  0  0  0  0  0  0  0
   21.5466   -7.5493  -14.7324 O   0  0  0  0  0  0  0  0  0  0  0  0
   19.8655   -6.3822  -15.7358 N   0  0  0  0  0  0  0  0  0  0  0  0
   19.9880   -5.2466  -14.8426 C   0  0  1  0  0  0  0  0  0  0  0  0
   21.4116   -4.7378  -15.0193 C   0  0  0  0  0  0  0  0  0  0  0  0
   21.6891   -3.5111  -14.2498 C   0  0  0  0  0  0  0  0  0  0  0  0
   20.8170   -2.9571  -13.5470 O   0  0  0  0  0  0  0  0  0  0  0  0
   18.9826   -4.2113  -15.1171 C   0  0  0  0  0  0  0  0  0  0  0  0
   18.6774   -3.8444  -16.2771 O   0  0  0  0  0  0  0  0  0  0  0  0
   22.9521   -2.9542  -14.3053 O   0  0  0  0  0  0  0  0  0  0  0  0
   18.2917   -3.5601  -14.0776 O   0  0  0  0  0  0  0  0  0  0  0  0
  2  1  1  1
  2  3  1  0
  4  5  1  0
  4  2  1  0
  5  6  1  6
  5  7  1  0
  7  8  2  0
 10 12  1  0
 10  9  1  6
 11 10  1  0
 12 14  1  0
 13  7  1  0
 12 13  1  1
 14 15  2  0
 16 17  1  0
 16 14  1  0
 17 21  1  0
 17 18  1  6
 19 20  2  0
 19 18  1  0
 21 22  2  0
 21 24  1  0
 23 19  1  0
M  END
$$$$
