LTD.pdb
     RDKit          3D

 24 23  0  0  1  0  0  0  0  0999 V2000
   20.6851  -15.7421  -17.8200 C   0  0  0  0  0  0  0  0  0  0  0  0
   19.2155  -15.3959  -17.7755 C   0  0  2  0  0  0  0  0  0  0  0  0
   18.5692  -16.0807  -18.9612 C   0  0  0  0  0  0  0  0  0  0  0  0
   18.9660  -13.9195  -17.8974 C   0  0  0  0  0  0  0  0  0  0  0  0
   19.5497  -13.1226  -16.7671 C   0  0  2  0  0  0  0  0  0  0  0  0
   19.1651  -13.6380  -15.4705 N   0  0  0  0  0  0  0  0  0  0  0  0
   19.0188  -11.7369  -16.8756 C   0  0  0  0  0  0  0  0  0  0  0  0
   19.2007  -11.1099  -17.9789 O   0  0  0  0  0  0  0  0  0  0  0  0
   15.6728  -10.5098  -16.8610 C   0  0  0  0  0  0  0  0  0  0  0  0
   16.3485   -9.6508  -15.8277 C   0  0  1  0  0  0  0  0  0  0  0  0
   16.0494  -10.0796  -14.5399 O   0  0  0  0  0  0  0  0  0  0  0  0
   17.8496   -9.7322  -16.0691 C   0  0  2  0  0  0  0  0  0  0  0  0
   18.3244  -11.0682  -15.8322 N   0  0  0  0  0  0  0  0  0  0  0  0
   18.5696   -8.7350  -15.2280 C   0  0  0  0  0  0  0  0  0  0  0  0
   19.3337   -9.0639  -14.2878 O   0  0  0  0  0  0  0  0  0  0  0  0
   18.4243   -7.3284  -15.4523 N   0  0  0  0  0  0  0  0  0  0  0  0
   19.1419   -6.3191  -14.6982 C   0  0  1  0  0  0  0  0  0  0  0  0
   20.6153   -6.6747  -14.8364 C   0  0  0  0  0  0  0  0  0  0  0  0
   21.5070   -5.7391  -14.1268 C   0  0  0  0  0  0  0  0  0  0  0  0
   21.0652   -4.8129  -13.4138 O   0  0  0  0  0  0  0  0  0  0  0  0
   18.8454   -4.9586  -15.1662 C   0  0  0  0  0  0  0  0  0  0  0  0
   18.7555   -4.6571  -16.3805 O   0  0  0  0  0  0  0  0  0  0  0  0
   22.8747   -5.8884  -14.2520 O   0  0  0  0  0  0  0  0  0  0  0  0
   18.6412   -3.8967  -14.2648 O   0  0  0  0  0  0  0  0  0  0  0  0
  2  1  1  6
  2  3  1  0
  4  5  1  0
  4  2  1  0
  5  6  1  1
  5  7  1  0
  7  8  2  0
 10 12  1  0
 10  9  1  6
 11 10  1  0
 12 14  1  0
 13  7  1  0
 12 13  1  1
 14 15  2  0
 16 17  1  0
 16 14  1  0
 17 21  1  0
 17 18  1  6
 19 20  2  0
 19 18  1  0
 21 22  2  0
 21 24  1  0
 23 19  1  0
M  END
$$$$
