LTD.pdb
     RDKit          3D

 24 23  0  0  1  0  0  0  0  0999 V2000
   25.2637  -16.4522  -14.9494 C   0  0  0  0  0  0  0  0  0  0  0  0
   25.7333  -15.7770  -16.2162 C   0  0  2  0  0  0  0  0  0  0  0  0
   27.2445  -15.8695  -16.2262 C   0  0  0  0  0  0  0  0  0  0  0  0
   25.3552  -14.3241  -16.2706 C   0  0  0  0  0  0  0  0  0  0  0  0
   23.8721  -14.0942  -16.2418 C   0  0  2  0  0  0  0  0  0  0  0  0
   23.1646  -14.9284  -17.1895 N   0  0  0  0  0  0  0  0  0  0  0  0
   23.6315  -12.6764  -16.6238 C   0  0  0  0  0  0  0  0  0  0  0  0
   24.2565  -11.7658  -15.9729 O   0  0  0  0  0  0  0  0  0  0  0  0
   23.3997  -11.3843  -20.2349 C   0  0  0  0  0  0  0  0  0  0  0  0
   22.3380  -10.6692  -19.4451 C   0  0  1  0  0  0  0  0  0  0  0  0
   21.0718  -11.1618  -19.7388 O   0  0  0  0  0  0  0  0  0  0  0  0
   22.6464  -10.8710  -17.9679 C   0  0  2  0  0  0  0  0  0  0  0  0
   22.7525  -12.2720  -17.6640 N   0  0  0  0  0  0  0  0  0  0  0  0
   21.6184  -10.2009  -17.1225 C   0  0  0  0  0  0  0  0  0  0  0  0
   20.6568  -10.8189  -16.6037 O   0  0  0  0  0  0  0  0  0  0  0  0
   21.6757   -8.7956  -16.8547 N   0  0  0  0  0  0  0  0  0  0  0  0
   20.7134   -8.0992  -16.0231 C   0  0  1  0  0  0  0  0  0  0  0  0
   20.8658   -8.6969  -14.6316 C   0  0  0  0  0  0  0  0  0  0  0  0
   20.0036   -8.0509  -13.6250 C   0  0  0  0  0  0  0  0  0  0  0  0
   19.2053   -7.1371  -13.9233 O   0  0  0  0  0  0  0  0  0  0  0  0
   20.9162   -6.6444  -16.0357 C   0  0  0  0  0  0  0  0  0  0  0  0
   22.0389   -6.1116  -16.2063 O   0  0  0  0  0  0  0  0  0  0  0  0
   20.0783   -8.4666  -12.3097 O   0  0  0  0  0  0  0  0  0  0  0  0
   19.8453   -5.7488  -15.8543 O   0  0  0  0  0  0  0  0  0  0  0  0
  2  1  1  1
  2  3  1  0
  4  5  1  0
  4  2  1  0
  5  6  1  6
  5  7  1  0
  7  8  2  0
 10 12  1  0
 10  9  1  6
 11 10  1  0
 12 14  1  0
 13  7  1  0
 12 13  1  6
 14 15  2  0
 16 17  1  0
 16 14  1  0
 17 21  1  0
 17 18  1  1
 19 20  2  0
 19 18  1  0
 21 22  2  0
 21 24  1  0
 23 19  1  0
M  END
$$$$
