LTD.pdb
     RDKit          3D

 24 23  0  0  1  0  0  0  0  0999 V2000
   18.9433  -14.1691  -19.8498 C   0  0  0  0  0  0  0  0  0  0  0  0
   19.7053  -14.4097  -18.5680 C   0  0  2  0  0  0  0  0  0  0  0  0
   19.0910  -15.6309  -17.9171 C   0  0  0  0  0  0  0  0  0  0  0  0
   19.5926  -13.2622  -17.6050 C   0  0  0  0  0  0  0  0  0  0  0  0
   20.1754  -11.9836  -18.1329 C   0  0  2  0  0  0  0  0  0  0  0  0
   21.5697  -12.1199  -18.4963 N   0  0  0  0  0  0  0  0  0  0  0  0
   20.0911  -10.9710  -17.0459 C   0  0  0  0  0  0  0  0  0  0  0  0
   19.0060  -10.9104  -16.3659 O   0  0  0  0  0  0  0  0  0  0  0  0
   21.7847   -7.8166  -13.8220 C   0  0  0  0  0  0  0  0  0  0  0  0
   22.0625   -8.9575  -14.7619 C   0  0  1  0  0  0  0  0  0  0  0  0
   22.2163  -10.1545  -14.0723 O   0  0  0  0  0  0  0  0  0  0  0  0
   20.8886   -9.0582  -15.7262 C   0  0  2  0  0  0  0  0  0  0  0  0
   21.1384  -10.0691  -16.7172 N   0  0  0  0  0  0  0  0  0  0  0  0
   20.6084   -7.7340  -16.3494 C   0  0  0  0  0  0  0  0  0  0  0  0
   21.2699   -7.2843  -17.3168 O   0  0  0  0  0  0  0  0  0  0  0  0
   19.5536   -6.8935  -15.8689 N   0  0  0  0  0  0  0  0  0  0  0  0
   19.2805   -5.5709  -16.3967 C   0  0  1  0  0  0  0  0  0  0  0  0
   17.7911   -5.5543  -16.7101 C   0  0  0  0  0  0  0  0  0  0  0  0
   17.3213   -4.2556  -17.2266 C   0  0  0  0  0  0  0  0  0  0  0  0
   18.0114   -3.5615  -18.0035 O   0  0  0  0  0  0  0  0  0  0  0  0
   19.6703   -4.5069  -15.4620 C   0  0  0  0  0  0  0  0  0  0  0  0
   19.7278   -4.6743  -14.2201 O   0  0  0  0  0  0  0  0  0  0  0  0
   16.0796   -3.7885  -16.8415 O   0  0  0  0  0  0  0  0  0  0  0  0
   20.0080   -3.2166  -15.9125 O   0  0  0  0  0  0  0  0  0  0  0  0
  2  1  1  6
  2  3  1  0
  4  5  1  0
  4  2  1  0
  5  6  1  1
  5  7  1  0
  7  8  2  0
 10 12  1  0
 10  9  1  1
 11 10  1  0
 12 14  1  0
 13  7  1  0
 12 13  1  6
 14 15  2  0
 16 17  1  0
 16 14  1  0
 17 21  1  0
 17 18  1  1
 19 20  2  0
 19 18  1  0
 21 22  2  0
 21 24  1  0
 23 19  1  0
M  END
$$$$
