LTD.pdb
     RDKit          3D

 24 23  0  0  1  0  0  0  0  0999 V2000
   25.4428  -14.9979  -15.2485 C   0  0  0  0  0  0  0  0  0  0  0  0
   24.9794  -14.5462  -16.6133 C   0  0  2  0  0  0  0  0  0  0  0  0
   26.0888  -14.8863  -17.5860 C   0  0  0  0  0  0  0  0  0  0  0  0
   24.7389  -13.0648  -16.6805 C   0  0  0  0  0  0  0  0  0  0  0  0
   23.6229  -12.6027  -15.7893 C   0  0  2  0  0  0  0  0  0  0  0  0
   22.4908  -13.5042  -15.8078 N   0  0  0  0  0  0  0  0  0  0  0  0
   23.1572  -11.2857  -16.3016 C   0  0  0  0  0  0  0  0  0  0  0  0
   24.0192  -10.3419  -16.4001 O   0  0  0  0  0  0  0  0  0  0  0  0
   20.5385  -10.6023  -19.1911 C   0  0  0  0  0  0  0  0  0  0  0  0
   20.2455   -9.7143  -18.0131 C   0  0  1  0  0  0  0  0  0  0  0  0
   19.1589  -10.1834  -17.2844 O   0  0  0  0  0  0  0  0  0  0  0  0
   21.4891   -9.6859  -17.1352 C   0  0  2  0  0  0  0  0  0  0  0  0
   21.8176  -11.0117  -16.6872 N   0  0  0  0  0  0  0  0  0  0  0  0
   21.3010   -8.7494  -15.9916 C   0  0  0  0  0  0  0  0  0  0  0  0
   21.5174   -9.0794  -14.7999 O   0  0  0  0  0  0  0  0  0  0  0  0
   20.8567   -7.4039  -16.1967 N   0  0  0  0  0  0  0  0  0  0  0  0
   20.7905   -6.4129  -15.1403 C   0  0  1  0  0  0  0  0  0  0  0  0
   22.2080   -6.2963  -14.5983 C   0  0  0  0  0  0  0  0  0  0  0  0
   22.3406   -5.2858  -13.5328 C   0  0  0  0  0  0  0  0  0  0  0  0
   22.6665   -4.1042  -13.7756 O   0  0  0  0  0  0  0  0  0  0  0  0
   20.2625   -5.1270  -15.6152 C   0  0  0  0  0  0  0  0  0  0  0  0
   20.4016   -4.7240  -16.7949 O   0  0  0  0  0  0  0  0  0  0  0  0
   22.0975   -5.6537  -12.2236 O   0  0  0  0  0  0  0  0  0  0  0  0
   19.5579   -4.2580  -14.7606 O   0  0  0  0  0  0  0  0  0  0  0  0
  2  1  1  1
  2  3  1  0
  4  5  1  0
  4  2  1  0
  5  6  1  6
  5  7  1  0
  7  8  2  0
 10 12  1  0
 10  9  1  6
 11 10  1  0
 12 14  1  0
 13  7  1  0
 12 13  1  1
 14 15  2  0
 16 17  1  0
 16 14  1  0
 17 21  1  0
 17 18  1  6
 19 20  2  0
 19 18  1  0
 21 22  2  0
 21 24  1  0
 23 19  1  0
M  END
$$$$
