LTD.pdb
     RDKit          3D

 24 23  0  0  1  0  0  0  0  0999 V2000
   29.1690  -12.8526  -17.3507 C   0  0  0  0  0  0  0  0  0  0  0  0
   27.8737  -13.6230  -17.4514 C   0  0  2  0  0  0  0  0  0  0  0  0
   27.9450  -14.4322  -18.7292 C   0  0  0  0  0  0  0  0  0  0  0  0
   26.6725  -12.7247  -17.5353 C   0  0  0  0  0  0  0  0  0  0  0  0
   26.4928  -11.8575  -16.3234 C   0  0  2  0  0  0  0  0  0  0  0  0
   26.3799  -12.6282  -15.1036 N   0  0  0  0  0  0  0  0  0  0  0  0
   25.2224  -11.1027  -16.4975 C   0  0  0  0  0  0  0  0  0  0  0  0
   25.1287  -10.3102  -17.5007 O   0  0  0  0  0  0  0  0  0  0  0  0
   20.4980  -10.3830  -16.0110 C   0  0  0  0  0  0  0  0  0  0  0  0
   21.6781  -11.2251  -15.6106 C   0  0  1  0  0  0  0  0  0  0  0  0
   21.7054  -12.4238  -16.3137 O   0  0  0  0  0  0  0  0  0  0  0  0
   22.9386  -10.4218  -15.9002 C   0  0  2  0  0  0  0  0  0  0  0  0
   24.1097  -11.2071  -15.6205 N   0  0  0  0  0  0  0  0  0  0  0  0
   22.9346   -9.1462  -15.1299 C   0  0  0  0  0  0  0  0  0  0  0  0
   23.2061   -9.0906  -13.9055 O   0  0  0  0  0  0  0  0  0  0  0  0
   22.6155   -7.8991  -15.7566 N   0  0  0  0  0  0  0  0  0  0  0  0
   22.6251   -6.6275  -15.0600 C   0  0  1  0  0  0  0  0  0  0  0  0
   22.6096   -5.5638  -16.1485 C   0  0  0  0  0  0  0  0  0  0  0  0
   22.5175   -4.1914  -15.6175 C   0  0  0  0  0  0  0  0  0  0  0  0
   23.0054   -3.8735  -14.5119 O   0  0  0  0  0  0  0  0  0  0  0  0
   21.4975   -6.4947  -14.1278 C   0  0  0  0  0  0  0  0  0  0  0  0
   20.3250   -6.8311  -14.4200 O   0  0  0  0  0  0  0  0  0  0  0  0
   21.8722   -3.2240  -16.3632 O   0  0  0  0  0  0  0  0  0  0  0  0
   21.6698   -5.9739  -12.8313 O   0  0  0  0  0  0  0  0  0  0  0  0
  2  1  1  6
  2  3  1  0
  4  5  1  0
  4  2  1  0
  5  6  1  1
  5  7  1  0
  7  8  2  0
 10 12  1  0
 10  9  1  6
 11 10  1  0
 12 14  1  0
 13  7  1  0
 12 13  1  1
 14 15  2  0
 16 17  1  0
 16 14  1  0
 17 21  1  0
 17 18  1  6
 19 20  2  0
 19 18  1  0
 21 22  2  0
 21 24  1  0
 23 19  1  0
M  END
$$$$
