LTD.pdb
     RDKit          3D

 24 23  0  0  1  0  0  0  0  0999 V2000
   23.9752  -13.5589  -15.2849 C   0  0  0  0  0  0  0  0  0  0  0  0
   23.2228  -13.4864  -16.5925 C   0  0  2  0  0  0  0  0  0  0  0  0
   24.1499  -14.0269  -17.6606 C   0  0  0  0  0  0  0  0  0  0  0  0
   22.8502  -12.0801  -16.9673 C   0  0  0  0  0  0  0  0  0  0  0  0
   21.9596  -11.4125  -15.9601 C   0  0  2  0  0  0  0  0  0  0  0  0
   20.7373  -12.1516  -15.7267 N   0  0  0  0  0  0  0  0  0  0  0  0
   21.5825  -10.0818  -16.5086 C   0  0  0  0  0  0  0  0  0  0  0  0
   22.5197   -9.3309  -16.9573 O   0  0  0  0  0  0  0  0  0  0  0  0
   19.0899   -9.3116  -19.2035 C   0  0  0  0  0  0  0  0  0  0  0  0
   18.7830   -8.3715  -18.0703 C   0  0  1  0  0  0  0  0  0  0  0  0
   17.6802   -8.8013  -17.3416 O   0  0  0  0  0  0  0  0  0  0  0  0
   20.0112   -8.3136  -17.1724 C   0  0  2  0  0  0  0  0  0  0  0  0
   20.2493   -9.5943  -16.5645 N   0  0  0  0  0  0  0  0  0  0  0  0
   19.8624   -7.2388  -16.1511 C   0  0  0  0  0  0  0  0  0  0  0  0
   19.3928   -7.4493  -15.0061 O   0  0  0  0  0  0  0  0  0  0  0  0
   20.2535   -5.8896  -16.4279 N   0  0  0  0  0  0  0  0  0  0  0  0
   20.0737   -4.7961  -15.4928 C   0  0  1  0  0  0  0  0  0  0  0  0
   21.4605   -4.4952  -14.9425 C   0  0  0  0  0  0  0  0  0  0  0  0
   21.6039   -4.8331  -13.5145 C   0  0  0  0  0  0  0  0  0  0  0  0
   20.6239   -5.1444  -12.8045 O   0  0  0  0  0  0  0  0  0  0  0  0
   19.4512   -3.6230  -16.1208 C   0  0  0  0  0  0  0  0  0  0  0  0
   19.3497   -3.4853  -17.3634 O   0  0  0  0  0  0  0  0  0  0  0  0
   22.8600   -4.8055  -12.9401 O   0  0  0  0  0  0  0  0  0  0  0  0
   18.9234   -2.5681  -15.3524 O   0  0  0  0  0  0  0  0  0  0  0  0
  2  1  1  1
  2  3  1  0
  4  5  1  0
  4  2  1  0
  5  6  1  6
  5  7  1  0
  7  8  2  0
 10 12  1  0
 10  9  1  6
 11 10  1  0
 12 14  1  0
 13  7  1  0
 12 13  1  1
 14 15  2  0
 16 17  1  0
 16 14  1  0
 17 21  1  0
 17 18  1  6
 19 20  2  0
 19 18  1  0
 21 22  2  0
 21 24  1  0
 23 19  1  0
M  END
$$$$
