CYM.pdb
     RDKit          3D

 27 27  0  0  1  0  0  0  0  0999 V2000
   28.3268  -19.2460  -19.0166 N   0  0  0  0  0  0  0  0  0  0  0  0
   27.8281  -18.4546  -17.9250 C   0  0  1  0  0  0  0  0  0  0  0  0
   26.8083  -17.4739  -18.4598 C   0  0  0  0  0  0  0  0  0  0  0  0
   27.5693  -16.2520  -19.5609 S   0  0  0  0  0  0  0  0  0  0  0  0
   27.1671  -19.3117  -16.9037 C   0  0  0  0  0  0  0  0  0  0  0  0
   26.5489  -20.3591  -17.2143 O   0  0  0  0  0  0  0  0  0  0  0  0
   25.3914  -21.7304   -8.4319 O   0  0  0  0  0  0  0  0  0  0  0  0
   25.8413  -21.1506   -9.6095 C   0  0  0  0  0  0  0  0  0  0  0  0
   26.6967  -21.8019  -10.4624 C   0  0  0  0  0  0  0  0  0  0  0  0
   27.1277  -21.2027  -11.6251 C   0  0  0  0  0  0  0  0  0  0  0  0
   26.7258  -19.9153  -11.9995 C   0  0  0  0  0  0  0  0  0  0  0  0
   27.2659  -19.3590  -13.2295 C   0  0  0  0  0  0  0  0  0  0  0  0
   26.6235  -19.8405  -14.4973 C   0  0  2  0  0  0  0  0  0  0  0  0
   27.2221  -18.9594  -15.5415 N   0  0  0  0  0  0  0  0  0  0  0  0
   25.1799  -19.5504  -14.4871 C   0  0  0  0  0  0  0  0  0  0  0  0
   24.8419  -18.3181  -14.6464 O   0  0  0  0  0  0  0  0  0  0  0  0
   25.8718  -19.2936  -11.1259 C   0  0  0  0  0  0  0  0  0  0  0  0
   25.4389  -19.8837   -9.9674 C   0  0  0  0  0  0  0  0  0  0  0  0
   18.0595  -19.3752  -16.7832 C   0  0  0  0  0  0  0  0  0  0  0  0
   19.7469  -19.9987  -17.0244 S   0  0  0  0  0  0  0  0  0  0  0  0
   20.6576  -19.6808  -15.4748 C   0  0  0  0  0  0  0  0  0  0  0  0
   22.0637  -20.1604  -15.5532 C   0  0  0  0  0  0  0  0  0  0  0  0
   22.7646  -19.9855  -14.2159 C   0  0  2  0  0  0  0  0  0  0  0  0
   24.1346  -20.4879  -14.3276 N   0  0  0  0  0  0  0  0  0  0  0  0
   22.0168  -20.6550  -13.1365 C   0  0  0  0  0  0  0  0  0  0  0  0
   20.9893  -20.0255  -12.4183 O   0  0  0  0  0  0  0  0  0  0  0  0
   22.2353  -21.8481  -12.7647 O   0  0  0  0  0  0  0  0  0  0  0  0
  2  1  1  6
  2  3  1  0
  4  3  1  0
  5  2  1  0
  6  5  2  0
  8  7  1  0
  8  9  2  0
 10  9  1  0
 11 10  2  0
 13 12  1  1
 12 11  1  0
 13 14  1  0
 14  5  1  0
 15 24  1  0
 15 13  1  0
 16 15  2  0
 17 18  2  0
 17 11  1  0
 18  8  1  0
 20 19  1  0
 21 20  1  0
 22 21  1  0
 23 22  1  6
 23 24  1  0
 25 23  1  0
 25 26  1  0
 27 25  2  0
M  END
$$$$
