CYM.pdb
     RDKit          3D

 27 27  0  0  1  0  0  0  0  0999 V2000
   28.4633  -21.1913  -15.1678 N   0  0  0  0  0  0  0  0  0  0  0  0
   27.5806  -20.2156  -14.5886 C   0  0  1  0  0  0  0  0  0  0  0  0
   26.8665  -19.4822  -15.7019 C   0  0  0  0  0  0  0  0  0  0  0  0
   27.9750  -18.3399  -16.5686 S   0  0  0  0  0  0  0  0  0  0  0  0
   26.5602  -20.8672  -13.7231 C   0  0  0  0  0  0  0  0  0  0  0  0
   26.2388  -22.0721  -13.8664 O   0  0  0  0  0  0  0  0  0  0  0  0
   28.7245  -20.6505   -6.7456 O   0  0  0  0  0  0  0  0  0  0  0  0
   27.7450  -20.4435   -7.7065 C   0  0  0  0  0  0  0  0  0  0  0  0
   27.4120  -21.4051   -8.6271 C   0  0  0  0  0  0  0  0  0  0  0  0
   26.4357  -21.1730   -9.5702 C   0  0  0  0  0  0  0  0  0  0  0  0
   25.7367  -19.9626   -9.6444 C   0  0  0  0  0  0  0  0  0  0  0  0
   24.7491  -19.8047  -10.6998 C   0  0  0  0  0  0  0  0  0  0  0  0
   24.8714  -20.7586  -11.8518 C   0  0  2  0  0  0  0  0  0  0  0  0
   25.9215  -20.1321  -12.7061 N   0  0  0  0  0  0  0  0  0  0  0  0
   23.6348  -20.7641  -12.6511 C   0  0  0  0  0  0  0  0  0  0  0  0
   23.4108  -19.7177  -13.3674 O   0  0  0  0  0  0  0  0  0  0  0  0
   26.0936  -19.0246   -8.7107 C   0  0  0  0  0  0  0  0  0  0  0  0
   27.0641  -19.2487   -7.7696 C   0  0  0  0  0  0  0  0  0  0  0  0
   21.3019  -24.7615  -16.7748 C   0  0  0  0  0  0  0  0  0  0  0  0
   19.6886  -24.1206  -16.2453 S   0  0  0  0  0  0  0  0  0  0  0  0
   20.0135  -22.6524  -15.2105 C   0  0  0  0  0  0  0  0  0  0  0  0
   21.2450  -22.8163  -14.3921 C   0  0  0  0  0  0  0  0  0  0  0  0
   21.4780  -21.5907  -13.5237 C   0  0  2  0  0  0  0  0  0  0  0  0
   22.6785  -21.8026  -12.7140 N   0  0  0  0  0  0  0  0  0  0  0  0
   20.2955  -21.2998  -12.6932 C   0  0  0  0  0  0  0  0  0  0  0  0
   20.2961  -21.4280  -11.2963 O   0  0  0  0  0  0  0  0  0  0  0  0
   19.1831  -20.9128  -13.1644 O   0  0  0  0  0  0  0  0  0  0  0  0
  2  1  1  6
  2  3  1  0
  4  3  1  0
  5  2  1  0
  6  5  2  0
  8  7  1  0
  8  9  2  0
 10  9  1  0
 11 10  2  0
 13 12  1  1
 12 11  1  0
 13 14  1  0
 14  5  1  0
 15 24  1  0
 15 13  1  0
 16 15  2  0
 17 18  2  0
 17 11  1  0
 18  8  1  0
 20 19  1  0
 21 20  1  0
 22 21  1  0
 23 22  1  1
 23 24  1  0
 25 23  1  0
 25 26  1  0
 27 25  2  0
M  END
$$$$
