CYM.pdb
     RDKit          3D

 27 27  0  0  1  0  0  0  0  0999 V2000
   28.7533  -22.9803  -17.4665 N   0  0  0  0  0  0  0  0  0  0  0  0
   28.2090  -21.7851  -16.8818 C   0  0  1  0  0  0  0  0  0  0  0  0
   27.5419  -20.9710  -17.9679 C   0  0  0  0  0  0  0  0  0  0  0  0
   26.1580  -21.8671  -18.7205 S   0  0  0  0  0  0  0  0  0  0  0  0
   27.1912  -22.1138  -15.8470 C   0  0  0  0  0  0  0  0  0  0  0  0
   26.6564  -23.2473  -15.7771 O   0  0  0  0  0  0  0  0  0  0  0  0
   23.0081  -20.6848   -8.0861 O   0  0  0  0  0  0  0  0  0  0  0  0
   23.8241  -20.6452   -9.2077 C   0  0  0  0  0  0  0  0  0  0  0  0
   23.4501  -19.9988  -10.3590 C   0  0  0  0  0  0  0  0  0  0  0  0
   24.2798  -19.9752  -11.4579 C   0  0  0  0  0  0  0  0  0  0  0  0
   25.5329  -20.5988  -11.4656 C   0  0  0  0  0  0  0  0  0  0  0  0
   26.3176  -20.5457  -12.6885 C   0  0  0  0  0  0  0  0  0  0  0  0
   25.8956  -21.4935  -13.7727 C   0  0  2  0  0  0  0  0  0  0  0  0
   26.7990  -21.1420  -14.9065 N   0  0  0  0  0  0  0  0  0  0  0  0
   24.5272  -21.1876  -14.2221 C   0  0  0  0  0  0  0  0  0  0  0  0
   24.3726  -20.0946  -14.8851 O   0  0  0  0  0  0  0  0  0  0  0  0
   25.8753  -21.2346  -10.3006 C   0  0  0  0  0  0  0  0  0  0  0  0
   25.0547  -21.2622   -9.2034 C   0  0  0  0  0  0  0  0  0  0  0  0
   20.0733  -25.0398  -17.0164 C   0  0  0  0  0  0  0  0  0  0  0  0
   21.3251  -25.2361  -15.7171 S   0  0  0  0  0  0  0  0  0  0  0  0
   21.2021  -23.7714  -14.6348 C   0  0  0  0  0  0  0  0  0  0  0  0
   21.4486  -22.5100  -15.3840 C   0  0  0  0  0  0  0  0  0  0  0  0
   22.0877  -21.4672  -14.4815 C   0  0  2  0  0  0  0  0  0  0  0  0
   23.3744  -21.9755  -14.0042 N   0  0  0  0  0  0  0  0  0  0  0  0
   21.1885  -21.1089  -13.3699 C   0  0  0  0  0  0  0  0  0  0  0  0
   20.0968  -20.2414  -13.5232 O   0  0  0  0  0  0  0  0  0  0  0  0
   21.3222  -21.5483  -12.1874 O   0  0  0  0  0  0  0  0  0  0  0  0
  2  1  1  6
  2  3  1  0
  4  3  1  0
  5  2  1  0
  6  5  2  0
  8  7  1  0
  8  9  2  0
 10  9  1  0
 11 10  2  0
 13 12  1  1
 12 11  1  0
 13 14  1  0
 14  5  1  0
 15 24  1  0
 15 13  1  0
 16 15  2  0
 17 18  2  0
 17 11  1  0
 18  8  1  0
 20 19  1  0
 21 20  1  0
 22 21  1  0
 23 22  1  1
 23 24  1  0
 25 23  1  0
 25 26  1  0
 27 25  2  0
M  END
$$$$
