CYM.pdb
     RDKit          3D

 27 27  0  0  1  0  0  0  0  0999 V2000
   27.6743  -22.6291  -17.4244 N   0  0  0  0  0  0  0  0  0  0  0  0
   27.9220  -21.5694  -16.4850 C   0  0  1  0  0  0  0  0  0  0  0  0
   27.6117  -20.2465  -17.1492 C   0  0  0  0  0  0  0  0  0  0  0  0
   25.8521  -20.1004  -17.5582 S   0  0  0  0  0  0  0  0  0  0  0  0
   27.0546  -21.7084  -15.2837 C   0  0  0  0  0  0  0  0  0  0  0  0
   26.0969  -22.5190  -15.2457 O   0  0  0  0  0  0  0  0  0  0  0  0
   25.0309  -20.5044   -6.6660 O   0  0  0  0  0  0  0  0  0  0  0  0
   25.5871  -20.4783   -7.9370 C   0  0  0  0  0  0  0  0  0  0  0  0
   25.4909  -21.5435   -8.7968 C   0  0  0  0  0  0  0  0  0  0  0  0
   26.0526  -21.4908  -10.0531 C   0  0  0  0  0  0  0  0  0  0  0  0
   26.7433  -20.3664  -10.5197 C   0  0  0  0  0  0  0  0  0  0  0  0
   27.3297  -20.4248  -11.8490 C   0  0  0  0  0  0  0  0  0  0  0  0
   26.5047  -21.1185  -12.8930 C   0  0  2  0  0  0  0  0  0  0  0  0
   27.2942  -20.9188  -14.1428 N   0  0  0  0  0  0  0  0  0  0  0  0
   25.2266  -20.4151  -13.0926 C   0  0  0  0  0  0  0  0  0  0  0  0
   25.2249  -19.4653  -13.9621 O   0  0  0  0  0  0  0  0  0  0  0  0
   26.8205  -19.3211   -9.6365 C   0  0  0  0  0  0  0  0  0  0  0  0
   26.2642  -19.3666   -8.3850 C   0  0  0  0  0  0  0  0  0  0  0  0
   22.7482  -20.8688  -17.6029 C   0  0  0  0  0  0  0  0  0  0  0  0
   21.1568  -21.0011  -16.7404 S   0  0  0  0  0  0  0  0  0  0  0  0
   21.3881  -20.2714  -15.0834 C   0  0  0  0  0  0  0  0  0  0  0  0
   22.6239  -20.7758  -14.4264 C   0  0  0  0  0  0  0  0  0  0  0  0
   22.7690  -20.1853  -13.0333 C   0  0  2  0  0  0  0  0  0  0  0  0
   24.0066  -20.6835  -12.4319 N   0  0  0  0  0  0  0  0  0  0  0  0
   21.5893  -20.4921  -12.2045 C   0  0  0  0  0  0  0  0  0  0  0  0
   20.6192  -19.5335  -11.8764 O   0  0  0  0  0  0  0  0  0  0  0  0
   21.3505  -21.6393  -11.7184 O   0  0  0  0  0  0  0  0  0  0  0  0
  2  1  1  6
  2  3  1  0
  4  3  1  0
  5  2  1  0
  6  5  2  0
  8  7  1  0
  8  9  2  0
 10  9  1  0
 11 10  2  0
 13 12  1  1
 12 11  1  0
 13 14  1  0
 14  5  1  0
 15 24  1  0
 15 13  1  0
 16 15  2  0
 17 18  2  0
 17 11  1  0
 18  8  1  0
 20 19  1  0
 21 20  1  0
 22 21  1  0
 23 22  1  6
 23 24  1  0
 25 23  1  0
 25 26  1  0
 27 25  2  0
M  END
$$$$
