CYM.pdb
     RDKit          3D

 27 27  0  0  1  0  0  0  0  0999 V2000
   26.5333  -18.9887  -16.2404 N   0  0  0  0  0  0  0  0  0  0  0  0
   27.2201  -18.9838  -14.9774 C   0  0  1  0  0  0  0  0  0  0  0  0
   28.0123  -17.7010  -14.8581 C   0  0  0  0  0  0  0  0  0  0  0  0
   29.6222  -17.8307  -15.6803 S   0  0  0  0  0  0  0  0  0  0  0  0
   26.2555  -19.0489  -13.8460 C   0  0  0  0  0  0  0  0  0  0  0  0
   25.4052  -18.1476  -13.6448 O   0  0  0  0  0  0  0  0  0  0  0  0
   19.4629  -20.4621  -14.7911 O   0  0  0  0  0  0  0  0  0  0  0  0
   20.6848  -20.6986  -14.1775 C   0  0  0  0  0  0  0  0  0  0  0  0
   21.8281  -20.9377  -14.8977 C   0  0  0  0  0  0  0  0  0  0  0  0
   23.0280  -21.1697  -14.2629 C   0  0  0  0  0  0  0  0  0  0  0  0
   23.1505  -21.1753  -12.8686 C   0  0  0  0  0  0  0  0  0  0  0  0
   24.4551  -21.4656  -12.2960 C   0  0  0  0  0  0  0  0  0  0  0  0
   25.2604  -20.2711  -11.8758 C   0  0  2  0  0  0  0  0  0  0  0  0
   26.2765  -20.1434  -12.9604 N   0  0  0  0  0  0  0  0  0  0  0  0
   26.0067  -20.5605  -10.6399 C   0  0  0  0  0  0  0  0  0  0  0  0
   26.9402  -21.4432  -10.7275 O   0  0  0  0  0  0  0  0  0  0  0  0
   21.9903  -20.9330  -12.1800 C   0  0  0  0  0  0  0  0  0  0  0  0
   20.7929  -20.7015  -12.8051 C   0  0  0  0  0  0  0  0  0  0  0  0
   30.2647  -19.7873   -5.2110 C   0  0  0  0  0  0  0  0  0  0  0  0
   28.5561  -19.1941   -5.0602 S   0  0  0  0  0  0  0  0  0  0  0  0
   27.5154  -20.3110   -6.0608 C   0  0  0  0  0  0  0  0  0  0  0  0
   27.1089  -19.6818   -7.3462 C   0  0  0  0  0  0  0  0  0  0  0  0
   26.3082  -20.6591   -8.1913 C   0  0  2  0  0  0  0  0  0  0  0  0
   25.8046  -19.9624   -9.3756 N   0  0  0  0  0  0  0  0  0  0  0  0
   25.2208  -21.2690   -7.4049 C   0  0  0  0  0  0  0  0  0  0  0  0
   25.4544  -22.1413   -6.3314 O   0  0  0  0  0  0  0  0  0  0  0  0
   23.9894  -21.0616   -7.6284 O   0  0  0  0  0  0  0  0  0  0  0  0
  2  1  1  6
  2  3  1  0
  4  3  1  0
  5  2  1  0
  6  5  2  0
  8  7  1  0
  8  9  2  0
 10  9  1  0
 11 10  2  0
 13 12  1  6
 12 11  1  0
 13 14  1  0
 14  5  1  0
 15 24  1  0
 15 13  1  0
 16 15  2  0
 17 18  2  0
 17 11  1  0
 18  8  1  0
 20 19  1  0
 21 20  1  0
 22 21  1  0
 23 22  1  1
 23 24  1  0
 25 23  1  0
 25 26  1  0
 27 25  2  0
M  END
$$$$
