CYM.pdb
     RDKit          3D

 27 27  0  0  1  0  0  0  0  0999 V2000
   31.7484  -31.7263  -16.8482 N   0  0  0  0  0  0  0  0  0  0  0  0
   30.5655  -32.5046  -17.0967 C   0  0  1  0  0  0  0  0  0  0  0  0
   30.7965  -33.9147  -16.6010 C   0  0  0  0  0  0  0  0  0  0  0  0
   31.3571  -33.9339  -14.8776 S   0  0  0  0  0  0  0  0  0  0  0  0
   29.3934  -31.9377  -16.3757 C   0  0  0  0  0  0  0  0  0  0  0  0
   29.5116  -31.0021  -15.5472 O   0  0  0  0  0  0  0  0  0  0  0  0
   20.8680  -29.4123  -16.0764 O   0  0  0  0  0  0  0  0  0  0  0  0
   22.1142  -29.9672  -16.3308 C   0  0  0  0  0  0  0  0  0  0  0  0
   23.1518  -29.2270  -16.8393 C   0  0  0  0  0  0  0  0  0  0  0  0
   24.3787  -29.8034  -17.0826 C   0  0  0  0  0  0  0  0  0  0  0  0
   24.6358  -31.1558  -16.8298 C   0  0  0  0  0  0  0  0  0  0  0  0
   25.9544  -31.6754  -17.1544 C   0  0  0  0  0  0  0  0  0  0  0  0
   26.9020  -31.8103  -15.9987 C   0  0  2  0  0  0  0  0  0  0  0  0
   28.1027  -32.4484  -16.6121 N   0  0  0  0  0  0  0  0  0  0  0  0
   26.3798  -32.7710  -15.0124 C   0  0  0  0  0  0  0  0  0  0  0  0
   26.6757  -34.0091  -15.2061 O   0  0  0  0  0  0  0  0  0  0  0  0
   23.5786  -31.8657  -16.3224 C   0  0  0  0  0  0  0  0  0  0  0  0
   22.3552  -31.2988  -16.0781 C   0  0  0  0  0  0  0  0  0  0  0  0
   26.5859  -32.4520   -8.6464 C   0  0  0  0  0  0  0  0  0  0  0  0
   25.0229  -33.3595   -8.8120 S   0  0  0  0  0  0  0  0  0  0  0  0
   24.9630  -34.0081  -10.5171 C   0  0  0  0  0  0  0  0  0  0  0  0
   25.2535  -32.9489  -11.5206 C   0  0  0  0  0  0  0  0  0  0  0  0
   25.3193  -33.5399  -12.9194 C   0  0  2  0  0  0  0  0  0  0  0  0
   25.5959  -32.4678  -13.8764 N   0  0  0  0  0  0  0  0  0  0  0  0
   24.0777  -34.2646  -13.2451 C   0  0  0  0  0  0  0  0  0  0  0  0
   22.9185  -33.6212  -13.7032 O   0  0  0  0  0  0  0  0  0  0  0  0
   23.9491  -35.5223  -13.1395 O   0  0  0  0  0  0  0  0  0  0  0  0
  2  1  1  1
  2  3  1  0
  4  3  1  0
  5  2  1  0
  6  5  2  0
  8  7  1  0
  8  9  2  0
 10  9  1  0
 11 10  2  0
 13 12  1  6
 12 11  1  0
 13 14  1  0
 14  5  1  0
 15 24  1  0
 15 13  1  0
 16 15  2  0
 17 18  2  0
 17 11  1  0
 18  8  1  0
 20 19  1  0
 21 20  1  0
 22 21  1  0
 23 22  1  1
 23 24  1  0
 25 23  1  0
 25 26  1  0
 27 25  2  0
M  END
$$$$
