CYM.pdb
     RDKit          3D

 27 27  0  0  1  0  0  0  0  0999 V2000
   27.1755  -20.9485  -16.7388 N   0  0  0  0  0  0  0  0  0  0  0  0
   27.3774  -21.5819  -15.4641 C   0  0  1  0  0  0  0  0  0  0  0  0
   28.8563  -21.5795  -15.1472 C   0  0  0  0  0  0  0  0  0  0  0  0
   29.6419  -23.1453  -15.6114 S   0  0  0  0  0  0  0  0  0  0  0  0
   26.6630  -20.8473  -14.3848 C   0  0  0  0  0  0  0  0  0  0  0  0
   26.6627  -19.5936  -14.3219 O   0  0  0  0  0  0  0  0  0  0  0  0
   20.5772  -18.7175  -16.2946 O   0  0  0  0  0  0  0  0  0  0  0  0
   21.3576  -19.3848  -15.3612 C   0  0  0  0  0  0  0  0  0  0  0  0
   21.8437  -18.7625  -14.2389 C   0  0  0  0  0  0  0  0  0  0  0  0
   22.6162  -19.4490  -13.3286 C   0  0  0  0  0  0  0  0  0  0  0  0
   22.9458  -20.7995  -13.4914 C   0  0  0  0  0  0  0  0  0  0  0  0
   23.7967  -21.4231  -12.4908 C   0  0  0  0  0  0  0  0  0  0  0  0
   25.1710  -20.8368  -12.3503 C   0  0  2  0  0  0  0  0  0  0  0  0
   25.9591  -21.5562  -13.3926 N   0  0  0  0  0  0  0  0  0  0  0  0
   25.7609  -21.2089  -11.0535 C   0  0  0  0  0  0  0  0  0  0  0  0
   25.8852  -22.4693  -10.8209 O   0  0  0  0  0  0  0  0  0  0  0  0
   22.4442  -21.3903  -14.6220 C   0  0  0  0  0  0  0  0  0  0  0  0
   21.6751  -20.7134  -15.5321 C   0  0  0  0  0  0  0  0  0  0  0  0
   29.6194  -19.0216   -5.9592 C   0  0  0  0  0  0  0  0  0  0  0  0
   27.9174  -19.0545   -5.3300 S   0  0  0  0  0  0  0  0  0  0  0  0
   26.9844  -20.2190   -6.3814 C   0  0  0  0  0  0  0  0  0  0  0  0
   26.9881  -19.7980   -7.8083 C   0  0  0  0  0  0  0  0  0  0  0  0
   26.2303  -20.7998   -8.6642 C   0  0  2  0  0  0  0  0  0  0  0  0
   26.2080  -20.3228  -10.0475 N   0  0  0  0  0  0  0  0  0  0  0  0
   24.8730  -21.0254   -8.1355 C   0  0  0  0  0  0  0  0  0  0  0  0
   24.6044  -21.9088   -7.0795 O   0  0  0  0  0  0  0  0  0  0  0  0
   23.8376  -20.4468   -8.5858 O   0  0  0  0  0  0  0  0  0  0  0  0
  2  1  1  6
  2  3  1  0
  4  3  1  0
  5  2  1  0
  6  5  2  0
  8  7  1  0
  8  9  2  0
 10  9  1  0
 11 10  2  0
 13 12  1  1
 12 11  1  0
 13 14  1  0
 14  5  1  0
 15 24  1  0
 15 13  1  0
 16 15  2  0
 17 18  2  0
 17 11  1  0
 18  8  1  0
 20 19  1  0
 21 20  1  0
 22 21  1  0
 23 22  1  1
 23 24  1  0
 25 23  1  0
 25 26  1  0
 27 25  2  0
M  END
$$$$
