CYM.pdb
     RDKit          3D

 27 27  0  0  1  0  0  0  0  0999 V2000
   27.3077   -9.9407  -17.0939 N   0  0  0  0  0  0  0  0  0  0  0  0
   25.9058  -10.2043  -16.9156 C   0  0  1  0  0  0  0  0  0  0  0  0
   25.7148  -10.9782  -15.6302 C   0  0  0  0  0  0  0  0  0  0  0  0
   26.5032  -12.6082  -15.7078 S   0  0  0  0  0  0  0  0  0  0  0  0
   25.1327   -8.9362  -16.8214 C   0  0  0  0  0  0  0  0  0  0  0  0
   25.5513   -7.9496  -16.1678 O   0  0  0  0  0  0  0  0  0  0  0  0
   19.9185   -2.7148  -20.4089 O   0  0  0  0  0  0  0  0  0  0  0  0
   20.6476   -3.8413  -20.0554 C   0  0  0  0  0  0  0  0  0  0  0  0
   21.9649   -3.7684  -19.6779 C   0  0  0  0  0  0  0  0  0  0  0  0
   22.6649   -4.9028  -19.3320 C   0  0  0  0  0  0  0  0  0  0  0  0
   22.0841   -6.1762  -19.3449 C   0  0  0  0  0  0  0  0  0  0  0  0
   22.9192   -7.3143  -18.9965 C   0  0  0  0  0  0  0  0  0  0  0  0
   23.1809   -7.5035  -17.5310 C   0  0  2  0  0  0  0  0  0  0  0  0
   23.8920   -8.8136  -17.4758 N   0  0  0  0  0  0  0  0  0  0  0  0
   21.9158   -7.6869  -16.8002 C   0  0  0  0  0  0  0  0  0  0  0  0
   21.1805   -8.6783  -17.1671 O   0  0  0  0  0  0  0  0  0  0  0  0
   20.7680   -6.2133  -19.7263 C   0  0  0  0  0  0  0  0  0  0  0  0
   20.0653   -5.0886  -20.0718 C   0  0  0  0  0  0  0  0  0  0  0  0
   20.5830  -11.3594  -12.0723 C   0  0  0  0  0  0  0  0  0  0  0  0
   20.3905   -9.5552  -12.0280 S   0  0  0  0  0  0  0  0  0  0  0  0
   20.3532   -8.9820  -13.7606 C   0  0  0  0  0  0  0  0  0  0  0  0
   20.0407   -7.5305  -13.8546 C   0  0  0  0  0  0  0  0  0  0  0  0
   20.0497   -7.0735  -15.3042 C   0  0  2  0  0  0  0  0  0  0  0  0
   21.4357   -6.8898  -15.7366 N   0  0  0  0  0  0  0  0  0  0  0  0
   19.2501   -5.8472  -15.4759 C   0  0  0  0  0  0  0  0  0  0  0  0
   19.7963   -4.6408  -15.9386 O   0  0  0  0  0  0  0  0  0  0  0  0
   18.0094   -5.7751  -15.2213 O   0  0  0  0  0  0  0  0  0  0  0  0
  2  1  1  1
  2  3  1  0
  4  3  1  0
  5  2  1  0
  6  5  2  0
  8  7  1  0
  8  9  2  0
 10  9  1  0
 11 10  2  0
 13 12  1  6
 12 11  1  0
 13 14  1  0
 14  5  1  0
 15 24  1  0
 15 13  1  0
 16 15  2  0
 17 18  2  0
 17 11  1  0
 18  8  1  0
 20 19  1  0
 21 20  1  0
 22 21  1  0
 23 22  1  1
 23 24  1  0
 25 23  1  0
 25 26  1  0
 27 25  2  0
M  END
$$$$
