CYM.pdb
     RDKit          3D

 27 27  0  0  1  0  0  0  0  0999 V2000
   29.1968  -23.7744  -17.6184 N   0  0  0  0  0  0  0  0  0  0  0  0
   28.4588  -22.5802  -17.3087 C   0  0  1  0  0  0  0  0  0  0  0  0
   27.6987  -22.1433  -18.5411 C   0  0  0  0  0  0  0  0  0  0  0  0
   28.8141  -21.8023  -19.9284 S   0  0  0  0  0  0  0  0  0  0  0  0
   27.4805  -22.8269  -16.2146 C   0  0  0  0  0  0  0  0  0  0  0  0
   27.0690  -23.9803  -15.9386 O   0  0  0  0  0  0  0  0  0  0  0  0
   22.6823  -20.4055   -9.0713 O   0  0  0  0  0  0  0  0  0  0  0  0
   23.5799  -20.5046  -10.1248 C   0  0  0  0  0  0  0  0  0  0  0  0
   23.2628  -20.0905  -11.3942 C   0  0  0  0  0  0  0  0  0  0  0  0
   24.1731  -20.2005  -12.4217 C   0  0  0  0  0  0  0  0  0  0  0  0
   25.4543  -20.7323  -12.2355 C   0  0  0  0  0  0  0  0  0  0  0  0
   26.3279  -20.8375  -13.3930 C   0  0  0  0  0  0  0  0  0  0  0  0
   26.0456  -21.9852  -14.3177 C   0  0  2  0  0  0  0  0  0  0  0  0
   26.9864  -21.7517  -15.4516 N   0  0  0  0  0  0  0  0  0  0  0  0
   24.6875  -21.8763  -14.8760 C   0  0  0  0  0  0  0  0  0  0  0  0
   24.5096  -20.9757  -15.7790 O   0  0  0  0  0  0  0  0  0  0  0  0
   25.7383  -21.1357  -10.9566 C   0  0  0  0  0  0  0  0  0  0  0  0
   24.8375  -21.0293   -9.9294 C   0  0  0  0  0  0  0  0  0  0  0  0
   20.9956  -24.7855  -18.7459 C   0  0  0  0  0  0  0  0  0  0  0  0
   19.7189  -24.4097  -17.5118 S   0  0  0  0  0  0  0  0  0  0  0  0
   20.3793  -23.0778  -16.4527 C   0  0  0  0  0  0  0  0  0  0  0  0
   21.7296  -23.4113  -15.9249 C   0  0  0  0  0  0  0  0  0  0  0  0
   22.2586  -22.2823  -15.0554 C   0  0  2  0  0  0  0  0  0  0  0  0
   23.5680  -22.6640  -14.5248 N   0  0  0  0  0  0  0  0  0  0  0  0
   21.3034  -21.9501  -13.9831 C   0  0  0  0  0  0  0  0  0  0  0  0
   20.2845  -20.9986  -14.1390 O   0  0  0  0  0  0  0  0  0  0  0  0
   21.3193  -22.4895  -12.8349 O   0  0  0  0  0  0  0  0  0  0  0  0
  2  1  1  6
  2  3  1  0
  4  3  1  0
  5  2  1  0
  6  5  2  0
  8  7  1  0
  8  9  2  0
 10  9  1  0
 11 10  2  0
 13 12  1  1
 12 11  1  0
 13 14  1  0
 14  5  1  0
 15 24  1  0
 15 13  1  0
 16 15  2  0
 17 18  2  0
 17 11  1  0
 18  8  1  0
 20 19  1  0
 21 20  1  0
 22 21  1  0
 23 22  1  1
 23 24  1  0
 25 23  1  0
 25 26  1  0
 27 25  2  0
M  END
$$$$
