CYM.pdb
     RDKit          3D

 27 27  0  0  1  0  0  0  0  0999 V2000
   28.8213  -21.0057  -18.0931 N   0  0  0  0  0  0  0  0  0  0  0  0
   27.9419  -21.7229  -17.2106 C   0  0  1  0  0  0  0  0  0  0  0  0
   28.6591  -21.9698  -15.9021 C   0  0  0  0  0  0  0  0  0  0  0  0
   29.6535  -23.4839  -15.9603 S   0  0  0  0  0  0  0  0  0  0  0  0
   26.7096  -20.9365  -16.9313 C   0  0  0  0  0  0  0  0  0  0  0  0
   26.7280  -19.6854  -16.8312 O   0  0  0  0  0  0  0  0  0  0  0  0
   17.9242  -19.5527  -16.5974 O   0  0  0  0  0  0  0  0  0  0  0  0
   19.2269  -19.9758  -16.8198 C   0  0  0  0  0  0  0  0  0  0  0  0
   19.6901  -21.1827  -16.3594 C   0  0  0  0  0  0  0  0  0  0  0  0
   20.9882  -21.5778  -16.5944 C   0  0  0  0  0  0  0  0  0  0  0  0
   21.8970  -20.7851  -17.3049 C   0  0  0  0  0  0  0  0  0  0  0  0
   23.2552  -21.2779  -17.4682 C   0  0  0  0  0  0  0  0  0  0  0  0
   24.2394  -20.8262  -16.4294 C   0  0  2  0  0  0  0  0  0  0  0  0
   25.4736  -21.5915  -16.7703 N   0  0  0  0  0  0  0  0  0  0  0  0
   23.8245  -21.2819  -15.0922 C   0  0  0  0  0  0  0  0  0  0  0  0
   24.4648  -22.2873  -14.6051 O   0  0  0  0  0  0  0  0  0  0  0  0
   21.4022  -19.5870  -17.7504 C   0  0  0  0  0  0  0  0  0  0  0  0
   20.1117  -19.1874  -17.5202 C   0  0  0  0  0  0  0  0  0  0  0  0
   26.8893  -21.2371  -10.6034 C   0  0  0  0  0  0  0  0  0  0  0  0
   25.4516  -20.4177   -9.8582 S   0  0  0  0  0  0  0  0  0  0  0  0
   23.9757  -21.0232  -10.7451 C   0  0  0  0  0  0  0  0  0  0  0  0
   23.9635  -20.5769  -12.1643 C   0  0  0  0  0  0  0  0  0  0  0  0
   22.7351  -21.1107  -12.8830 C   0  0  2  0  0  0  0  0  0  0  0  0
   22.8025  -20.7225  -14.2925 N   0  0  0  0  0  0  0  0  0  0  0  0
   21.4980  -20.6356  -12.2376 C   0  0  0  0  0  0  0  0  0  0  0  0
   20.8826  -21.3170  -11.1770 O   0  0  0  0  0  0  0  0  0  0  0  0
   20.8859  -19.5792  -12.5820 O   0  0  0  0  0  0  0  0  0  0  0  0
  2  1  1  6
  2  3  1  0
  4  3  1  0
  5  2  1  0
  6  5  2  0
  8  7  1  0
  8  9  2  0
 10  9  1  0
 11 10  2  0
 13 12  1  6
 12 11  1  0
 13 14  1  0
 14  5  1  0
 15 24  1  0
 15 13  1  0
 16 15  2  0
 17 18  2  0
 17 11  1  0
 18  8  1  0
 20 19  1  0
 21 20  1  0
 22 21  1  0
 23 22  1  1
 23 24  1  0
 25 23  1  0
 25 26  1  0
 27 25  2  0
M  END
$$$$
