CYM.pdb
     RDKit          3D

 27 27  0  0  1  0  0  0  0  0999 V2000
   28.8051  -22.8480  -17.7882 N   0  0  0  0  0  0  0  0  0  0  0  0
   27.9906  -21.7348  -17.3829 C   0  0  1  0  0  0  0  0  0  0  0  0
   27.0515  -21.3802  -18.5142 C   0  0  0  0  0  0  0  0  0  0  0  0
   27.9570  -20.8955  -20.0075 S   0  0  0  0  0  0  0  0  0  0  0  0
   27.1768  -22.0781  -16.1851 C   0  0  0  0  0  0  0  0  0  0  0  0
   26.8096  -23.2544  -15.9459 O   0  0  0  0  0  0  0  0  0  0  0  0
   24.2889  -20.6035   -7.8331 O   0  0  0  0  0  0  0  0  0  0  0  0
   24.8393  -20.5736   -9.1066 C   0  0  0  0  0  0  0  0  0  0  0  0
   26.0831  -21.0872   -9.3755 C   0  0  0  0  0  0  0  0  0  0  0  0
   26.6054  -21.0442  -10.6491 C   0  0  0  0  0  0  0  0  0  0  0  0
   25.9102  -20.4835  -11.7267 C   0  0  0  0  0  0  0  0  0  0  0  0
   26.5645  -20.4557  -13.0249 C   0  0  0  0  0  0  0  0  0  0  0  0
   26.0140  -21.4032  -14.0501 C   0  0  2  0  0  0  0  0  0  0  0  0
   26.7943  -21.0718  -15.2775 N   0  0  0  0  0  0  0  0  0  0  0  0
   24.6095  -21.0792  -14.3511 C   0  0  0  0  0  0  0  0  0  0  0  0
   24.3990  -20.3599  -15.3982 O   0  0  0  0  0  0  0  0  0  0  0  0
   24.6717  -19.9801  -11.4236 C   0  0  0  0  0  0  0  0  0  0  0  0
   24.1459  -20.0194  -10.1587 C   0  0  0  0  0  0  0  0  0  0  0  0
   22.7193  -23.8847  -17.9344 C   0  0  0  0  0  0  0  0  0  0  0  0
   22.0003  -22.2531  -18.2734 S   0  0  0  0  0  0  0  0  0  0  0  0
   22.0812  -21.3028  -16.7170 C   0  0  0  0  0  0  0  0  0  0  0  0
   22.1675  -22.1953  -15.5299 C   0  0  0  0  0  0  0  0  0  0  0  0
   22.1612  -21.3813  -14.2462 C   0  0  2  0  0  0  0  0  0  0  0  0
   23.4757  -21.4843  -13.6112 N   0  0  0  0  0  0  0  0  0  0  0  0
   21.0778  -21.8203  -13.3483 C   0  0  0  0  0  0  0  0  0  0  0  0
   19.7794  -21.2926  -13.4073 O   0  0  0  0  0  0  0  0  0  0  0  0
   21.2233  -22.7047  -12.4506 O   0  0  0  0  0  0  0  0  0  0  0  0
  2  1  1  6
  2  3  1  0
  4  3  1  0
  5  2  1  0
  6  5  2  0
  8  7  1  0
  8  9  2  0
 10  9  1  0
 11 10  2  0
 13 12  1  1
 12 11  1  0
 13 14  1  0
 14  5  1  0
 15 24  1  0
 15 13  1  0
 16 15  2  0
 17 18  2  0
 17 11  1  0
 18  8  1  0
 20 19  1  0
 21 20  1  0
 22 21  1  0
 23 22  1  6
 23 24  1  0
 25 23  1  0
 25 26  1  0
 27 25  2  0
M  END
$$$$
