LDF.pdb
     RDKit          3D

 28 28  0  0  1  0  0  0  0  0999 V2000
   25.3072  -20.9377   -9.8558 C   0  0  0  0  0  0  0  0  0  0  0  0
   25.2102  -21.4464  -11.2859 C   0  0  2  0  0  0  0  0  0  0  0  0
   26.4995  -22.1217  -11.6998 C   0  0  0  0  0  0  0  0  0  0  0  0
   25.0267  -20.2352  -12.1689 C   0  0  0  0  0  0  0  0  0  0  0  0
   24.8129  -20.6328  -13.6206 C   0  0  2  0  0  0  0  0  0  0  0  0
   25.3787  -19.6498  -14.5337 N   0  0  0  0  0  0  0  0  0  0  0  0
   23.3608  -20.6945  -13.8482 C   0  0  0  0  0  0  0  0  0  0  0  0
   22.6961  -19.6373  -13.7573 O   0  0  0  0  0  0  0  0  0  0  0  0
   22.6622  -21.9065  -14.1700 N   0  0  0  0  0  0  0  0  0  0  0  0
   21.2267  -21.9645  -14.3392 C   0  0  1  0  0  0  0  0  0  0  0  0
   20.7840  -22.8727  -15.4510 C   0  0  0  0  0  0  0  0  0  0  0  0
   21.3011  -22.3412  -16.7308 C   0  0  0  0  0  0  0  0  0  0  0  0
   21.2941  -21.1351  -17.0736 O   0  0  0  0  0  0  0  0  0  0  0  0
   20.5930  -22.2501  -13.0557 C   0  0  0  0  0  0  0  0  0  0  0  0
   20.9192  -23.2555  -12.4015 O   0  0  0  0  0  0  0  0  0  0  0  0
   21.8497  -23.2404  -17.6546 O   0  0  0  0  0  0  0  0  0  0  0  0
   19.5935  -21.3848  -12.5323 N   0  0  0  0  0  0  0  0  0  0  0  0
   18.8852  -21.6443  -11.3139 C   0  0  1  0  0  0  0  0  0  0  0  0
   19.2396  -20.5039  -10.3499 C   0  0  0  0  0  0  0  0  0  0  0  0
   18.9382  -19.1881  -10.9676 C   0  0  0  0  0  0  0  0  0  0  0  0
   17.6986  -18.5967  -10.8761 C   0  0  0  0  0  0  0  0  0  0  0  0
   17.4410  -17.3665  -11.4619 C   0  0  0  0  0  0  0  0  0  0  0  0
   18.4307  -16.7091  -12.1519 C   0  0  0  0  0  0  0  0  0  0  0  0
   19.6775  -17.2808  -12.2566 C   0  0  0  0  0  0  0  0  0  0  0  0
   19.9198  -18.5161  -11.6629 C   0  0  0  0  0  0  0  0  0  0  0  0
   17.4235  -21.6955  -11.5172 C   0  0  0  0  0  0  0  0  0  0  0  0
   16.9330  -21.3179  -12.5972 O   0  0  0  0  0  0  0  0  0  0  0  0
   16.5939  -22.1621  -10.5113 O   0  0  0  0  0  0  0  0  0  0  0  0
  2  1  1  1
  3  2  1  0
  4  2  1  0
  5  4  1  0
  5  6  1  6
  7  8  2  0
  7  5  1  0
  9  7  1  0
 10  9  1  0
 10 11  1  6
 12 16  1  0
 12 11  1  0
 13 12  2  0
 14 15  2  0
 14 10  1  0
 17 14  1  0
 18 17  1  0
 18 19  1  1
 20 21  2  0
 20 19  1  0
 22 21  1  0
 23 22  2  0
 24 25  2  0
 24 23  1  0
 25 20  1  0
 26 18  1  0
 27 26  2  0
 28 26  1  0
M  END
$$$$
