LDF.pdb
     RDKit          3D

 28 28  0  0  1  0  0  0  0  0999 V2000
   28.3043  -21.5108   -7.2611 C   0  0  0  0  0  0  0  0  0  0  0  0
   28.0206  -20.1033   -7.7629 C   0  0  2  0  0  0  0  0  0  0  0  0
   27.6883  -19.1830   -6.6086 C   0  0  0  0  0  0  0  0  0  0  0  0
   26.7959  -20.1915   -8.6419 C   0  0  0  0  0  0  0  0  0  0  0  0
   27.0638  -21.0222   -9.8868 C   0  0  2  0  0  0  0  0  0  0  0  0
   28.4301  -20.8517  -10.3603 N   0  0  0  0  0  0  0  0  0  0  0  0
   26.1475  -20.5476  -10.9352 C   0  0  0  0  0  0  0  0  0  0  0  0
   26.1101  -19.3214  -11.1860 O   0  0  0  0  0  0  0  0  0  0  0  0
   25.2906  -21.4182  -11.6891 N   0  0  0  0  0  0  0  0  0  0  0  0
   24.4460  -20.9495  -12.7661 C   0  0  1  0  0  0  0  0  0  0  0  0
   24.7421  -21.5918  -14.0914 C   0  0  0  0  0  0  0  0  0  0  0  0
   26.0470  -21.0935  -14.5781 C   0  0  0  0  0  0  0  0  0  0  0  0
   26.2874  -19.9175  -14.9407 O   0  0  0  0  0  0  0  0  0  0  0  0
   23.0454  -21.0403  -12.3656 C   0  0  0  0  0  0  0  0  0  0  0  0
   22.6241  -22.0465  -11.7697 O   0  0  0  0  0  0  0  0  0  0  0  0
   27.1203  -21.9911  -14.6493 O   0  0  0  0  0  0  0  0  0  0  0  0
   22.1402  -19.9812  -12.6497 N   0  0  0  0  0  0  0  0  0  0  0  0
   20.7352  -20.0500  -12.3758 C   0  0  1  0  0  0  0  0  0  0  0  0
   20.2542  -18.6047  -12.1887 C   0  0  0  0  0  0  0  0  0  0  0  0
   18.7911  -18.5715  -11.9397 C   0  0  0  0  0  0  0  0  0  0  0  0
   18.2327  -19.0161  -10.7628 C   0  0  0  0  0  0  0  0  0  0  0  0
   16.8625  -18.9752  -10.5534 C   0  0  0  0  0  0  0  0  0  0  0  0
   16.0290  -18.4842  -11.5290 C   0  0  0  0  0  0  0  0  0  0  0  0
   16.5644  -18.0342  -12.7135 C   0  0  0  0  0  0  0  0  0  0  0  0
   17.9417  -18.0821  -12.9080 C   0  0  0  0  0  0  0  0  0  0  0  0
   19.9830  -20.6929  -13.4718 C   0  0  0  0  0  0  0  0  0  0  0  0
   20.3129  -20.4889  -14.6547 O   0  0  0  0  0  0  0  0  0  0  0  0
   18.9107  -21.5229  -13.1907 O   0  0  0  0  0  0  0  0  0  0  0  0
  2  1  1  1
  3  2  1  0
  4  2  1  0
  5  4  1  0
  5  6  1  6
  7  8  2  0
  7  5  1  0
  9  7  1  0
 10  9  1  0
 10 11  1  6
 12 16  1  0
 12 11  1  0
 13 12  2  0
 14 15  2  0
 14 10  1  0
 17 14  1  0
 18 17  1  0
 18 19  1  6
 20 21  2  0
 20 19  1  0
 22 21  1  0
 23 22  2  0
 24 25  2  0
 24 23  1  0
 25 20  1  0
 26 18  1  0
 27 26  2  0
 28 26  1  0
M  END
$$$$
