LDF.pdb
     RDKit          3D

 28 28  0  0  1  0  0  0  0  0999 V2000
   29.0180  -17.4984  -16.2172 C   0  0  0  0  0  0  0  0  0  0  0  0
   27.6187  -16.9480  -15.9885 C   0  0  2  0  0  0  0  0  0  0  0  0
   27.6015  -15.4454  -16.1667 C   0  0  0  0  0  0  0  0  0  0  0  0
   27.2641  -17.2399  -14.5500 C   0  0  0  0  0  0  0  0  0  0  0  0
   27.4449  -18.7132  -14.2209 C   0  0  2  0  0  0  0  0  0  0  0  0
   26.9342  -19.5659  -15.2849 N   0  0  0  0  0  0  0  0  0  0  0  0
   26.6740  -18.9862  -12.9981 C   0  0  0  0  0  0  0  0  0  0  0  0
   26.6329  -18.1061  -12.1084 O   0  0  0  0  0  0  0  0  0  0  0  0
   25.9635  -20.2123  -12.7691 N   0  0  0  0  0  0  0  0  0  0  0  0
   25.1742  -20.4528  -11.5808 C   0  0  1  0  0  0  0  0  0  0  0  0
   24.0706  -21.4526  -11.7787 C   0  0  0  0  0  0  0  0  0  0  0  0
   23.0346  -20.8491  -12.6449 C   0  0  0  0  0  0  0  0  0  0  0  0
   22.2433  -19.9376  -12.3057 O   0  0  0  0  0  0  0  0  0  0  0  0
   26.0571  -20.7618  -10.4603 C   0  0  0  0  0  0  0  0  0  0  0  0
   26.9364  -21.6332  -10.5722 O   0  0  0  0  0  0  0  0  0  0  0  0
   22.9066  -21.3179  -13.9590 O   0  0  0  0  0  0  0  0  0  0  0  0
   25.9269  -20.0725   -9.2235 N   0  0  0  0  0  0  0  0  0  0  0  0
   26.6080  -20.4665   -8.0257 C   0  0  1  0  0  0  0  0  0  0  0  0
   27.4073  -19.2442   -7.5541 C   0  0  0  0  0  0  0  0  0  0  0  0
   28.0599  -19.5212   -6.2499 C   0  0  0  0  0  0  0  0  0  0  0  0
   27.6295  -18.9504   -5.0736 C   0  0  0  0  0  0  0  0  0  0  0  0
   28.2556  -19.2245   -3.8670 C   0  0  0  0  0  0  0  0  0  0  0  0
   29.3292  -20.0808   -3.8248 C   0  0  0  0  0  0  0  0  0  0  0  0
   29.7771  -20.6631   -4.9877 C   0  0  0  0  0  0  0  0  0  0  0  0
   29.1377  -20.3776   -6.1905 C   0  0  0  0  0  0  0  0  0  0  0  0
   25.6729  -20.8956   -6.9665 C   0  0  0  0  0  0  0  0  0  0  0  0
   24.4693  -20.5854   -7.0375 O   0  0  0  0  0  0  0  0  0  0  0  0
   26.1281  -21.6425   -5.8928 O   0  0  0  0  0  0  0  0  0  0  0  0
  2  1  1  1
  3  2  1  0
  4  2  1  0
  5  4  1  0
  5  6  1  6
  7  8  2  0
  7  5  1  0
  9  7  1  0
 10  9  1  0
 10 11  1  6
 12 16  1  0
 12 11  1  0
 13 12  2  0
 14 15  2  0
 14 10  1  0
 17 14  1  0
 18 17  1  0
 18 19  1  1
 20 21  2  0
 20 19  1  0
 22 21  1  0
 23 22  2  0
 24 25  2  0
 24 23  1  0
 25 20  1  0
 26 18  1  0
 27 26  2  0
 28 26  1  0
M  END
$$$$
