LDF.pdb
     RDKit          3D

 28 28  0  0  1  0  0  0  0  0999 V2000
   28.1302  -24.1614  -18.2366 C   0  0  0  0  0  0  0  0  0  0  0  0
   29.0004  -22.9256  -18.0662 C   0  0  2  0  0  0  0  0  0  0  0  0
   30.3604  -23.3027  -17.5203 C   0  0  0  0  0  0  0  0  0  0  0  0
   28.3227  -22.0527  -17.0371 C   0  0  0  0  0  0  0  0  0  0  0  0
   26.9009  -21.7076  -17.4503 C   0  0  2  0  0  0  0  0  0  0  0  0
   26.8784  -20.6981  -18.4993 N   0  0  0  0  0  0  0  0  0  0  0  0
   26.2216  -21.1600  -16.2659 C   0  0  0  0  0  0  0  0  0  0  0  0
   26.6383  -20.0827  -15.7826 O   0  0  0  0  0  0  0  0  0  0  0  0
   25.1023  -21.7970  -15.6319 N   0  0  0  0  0  0  0  0  0  0  0  0
   24.3827  -21.2026  -14.5265 C   0  0  1  0  0  0  0  0  0  0  0  0
   22.9092  -21.4946  -14.5360 C   0  0  0  0  0  0  0  0  0  0  0  0
   22.1726  -20.2184  -14.4069 C   0  0  0  0  0  0  0  0  0  0  0  0
   20.9418  -20.0668  -14.5920 O   0  0  0  0  0  0  0  0  0  0  0  0
   25.0443  -21.5438  -13.2710 C   0  0  0  0  0  0  0  0  0  0  0  0
   25.2199  -22.7327  -12.9537 O   0  0  0  0  0  0  0  0  0  0  0  0
   22.8875  -19.0680  -14.0486 O   0  0  0  0  0  0  0  0  0  0  0  0
   25.4985  -20.5238  -12.3905 N   0  0  0  0  0  0  0  0  0  0  0  0
   25.9992  -20.7846  -11.0734 C   0  0  1  0  0  0  0  0  0  0  0  0
   27.0136  -19.6755  -10.7629 C   0  0  0  0  0  0  0  0  0  0  0  0
   27.5713  -19.8479   -9.3980 C   0  0  0  0  0  0  0  0  0  0  0  0
   27.0961  -19.1471   -8.3128 C   0  0  0  0  0  0  0  0  0  0  0  0
   27.6336  -19.3253   -7.0470 C   0  0  0  0  0  0  0  0  0  0  0  0
   28.6620  -20.2153   -6.8523 C   0  0  0  0  0  0  0  0  0  0  0  0
   29.1533  -20.9270   -7.9220 C   0  0  0  0  0  0  0  0  0  0  0  0
   28.6028  -20.7365   -9.1860 C   0  0  0  0  0  0  0  0  0  0  0  0
   24.9272  -20.7849  -10.0579 C   0  0  0  0  0  0  0  0  0  0  0  0
   23.9193  -20.0720  -10.2185 O   0  0  0  0  0  0  0  0  0  0  0  0
   25.0370  -21.5750   -8.9259 O   0  0  0  0  0  0  0  0  0  0  0  0
  2  1  1  1
  3  2  1  0
  4  2  1  0
  5  4  1  0
  5  6  1  6
  7  8  2  0
  7  5  1  0
  9  7  1  0
 10  9  1  0
 10 11  1  1
 12 16  1  0
 12 11  1  0
 13 12  2  0
 14 15  2  0
 14 10  1  0
 17 14  1  0
 18 17  1  0
 18 19  1  1
 20 21  2  0
 20 19  1  0
 22 21  1  0
 23 22  2  0
 24 25  2  0
 24 23  1  0
 25 20  1  0
 26 18  1  0
 27 26  2  0
 28 26  1  0
M  END
$$$$
