LDF.pdb
     RDKit          3D

 28 28  0  0  1  0  0  0  0  0999 V2000
   28.5230  -16.6876  -16.1132 C   0  0  0  0  0  0  0  0  0  0  0  0
   27.0232  -16.7147  -15.8615 C   0  0  2  0  0  0  0  0  0  0  0  0
   26.4195  -15.3464  -16.0921 C   0  0  0  0  0  0  0  0  0  0  0  0
   26.8312  -17.0572  -14.4034 C   0  0  0  0  0  0  0  0  0  0  0  0
   27.5154  -18.3667  -14.0451 C   0  0  2  0  0  0  0  0  0  0  0  0
   27.6042  -19.2562  -15.1945 N   0  0  0  0  0  0  0  0  0  0  0  0
   26.6947  -19.0217  -13.0148 C   0  0  0  0  0  0  0  0  0  0  0  0
   26.0524  -18.3027  -12.2159 O   0  0  0  0  0  0  0  0  0  0  0  0
   26.5902  -20.4466  -12.8757 N   0  0  0  0  0  0  0  0  0  0  0  0
   25.7944  -21.0791  -11.8463 C   0  0  1  0  0  0  0  0  0  0  0  0
   25.2885  -22.4424  -12.2238 C   0  0  0  0  0  0  0  0  0  0  0  0
   24.4881  -22.3243  -13.4621 C   0  0  0  0  0  0  0  0  0  0  0  0
   23.4799  -21.5936  -13.6098 O   0  0  0  0  0  0  0  0  0  0  0  0
   26.5177  -21.0477  -10.5790 C   0  0  0  0  0  0  0  0  0  0  0  0
   27.7526  -21.1873  -10.5543 O   0  0  0  0  0  0  0  0  0  0  0  0
   24.8677  -23.0822  -14.5776 O   0  0  0  0  0  0  0  0  0  0  0  0
   25.8235  -20.8571   -9.3527 N   0  0  0  0  0  0  0  0  0  0  0  0
   26.4612  -20.9035   -8.0702 C   0  0  1  0  0  0  0  0  0  0  0  0
   27.4101  -19.6989   -8.0090 C   0  0  0  0  0  0  0  0  0  0  0  0
   28.0935  -19.6415   -6.6925 C   0  0  0  0  0  0  0  0  0  0  0  0
   29.0103  -20.5883   -6.2951 C   0  0  0  0  0  0  0  0  0  0  0  0
   29.6358  -20.5134   -5.0598 C   0  0  0  0  0  0  0  0  0  0  0  0
   29.3475  -19.4803   -4.2011 C   0  0  0  0  0  0  0  0  0  0  0  0
   28.4346  -18.5224   -4.5766 C   0  0  0  0  0  0  0  0  0  0  0  0
   27.8155  -18.6120   -5.8199 C   0  0  0  0  0  0  0  0  0  0  0  0
   25.4896  -20.8358   -6.9603 C   0  0  0  0  0  0  0  0  0  0  0  0
   24.3621  -20.3437   -7.1509 O   0  0  0  0  0  0  0  0  0  0  0  0
   25.8263  -21.3175   -5.7063 O   0  0  0  0  0  0  0  0  0  0  0  0
  2  1  1  1
  3  2  1  0
  4  2  1  0
  5  4  1  0
  5  6  1  6
  7  8  2  0
  7  5  1  0
  9  7  1  0
 10  9  1  0
 10 11  1  6
 12 16  1  0
 12 11  1  0
 13 12  2  0
 14 15  2  0
 14 10  1  0
 17 14  1  0
 18 17  1  0
 18 19  1  1
 20 21  2  0
 20 19  1  0
 22 21  1  0
 23 22  2  0
 24 25  2  0
 24 23  1  0
 25 20  1  0
 26 18  1  0
 27 26  2  0
 28 26  1  0
M  END
$$$$
