LDF.pdb
     RDKit          3D

 28 28  0  0  1  0  0  0  0  0999 V2000
   15.1428  -13.3082  -14.8316 C   0  0  0  0  0  0  0  0  0  0  0  0
   16.5658  -13.4829  -15.3395 C   0  0  2  0  0  0  0  0  0  0  0  0
   17.3227  -14.4681  -14.4756 C   0  0  0  0  0  0  0  0  0  0  0  0
   17.2461  -12.1416  -15.2033 C   0  0  0  0  0  0  0  0  0  0  0  0
   16.5759  -11.0878  -16.0703 C   0  0  2  0  0  0  0  0  0  0  0  0
   16.9265  -11.2479  -17.4744 N   0  0  0  0  0  0  0  0  0  0  0  0
   17.0623   -9.7751  -15.6181 C   0  0  0  0  0  0  0  0  0  0  0  0
   18.2208   -9.4243  -15.9383 O   0  0  0  0  0  0  0  0  0  0  0  0
   16.2769   -8.8713  -14.8264 N   0  0  0  0  0  0  0  0  0  0  0  0
   16.7528   -7.5675  -14.4184 C   0  0  1  0  0  0  0  0  0  0  0  0
   15.9559   -6.4272  -14.9854 C   0  0  0  0  0  0  0  0  0  0  0  0
   16.5523   -5.1557  -14.5212 C   0  0  0  0  0  0  0  0  0  0  0  0
   16.0149   -4.3468  -13.7282 O   0  0  0  0  0  0  0  0  0  0  0  0
   16.8891   -7.5280  -12.9658 C   0  0  0  0  0  0  0  0  0  0  0  0
   15.9638   -7.9214  -12.2349 O   0  0  0  0  0  0  0  0  0  0  0  0
   17.8236   -4.8029  -14.9927 O   0  0  0  0  0  0  0  0  0  0  0  0
   18.0805   -7.0397  -12.3626 N   0  0  0  0  0  0  0  0  0  0  0  0
   18.2685   -6.9542  -10.9445 C   0  0  1  0  0  0  0  0  0  0  0  0
   19.7521   -7.2452  -10.6810 C   0  0  0  0  0  0  0  0  0  0  0  0
   20.5958   -6.6544  -11.7499 C   0  0  0  0  0  0  0  0  0  0  0  0
   21.2190   -7.4224  -12.7073 C   0  0  0  0  0  0  0  0  0  0  0  0
   22.0027   -6.8473  -13.6962 C   0  0  0  0  0  0  0  0  0  0  0  0
   22.1724   -5.4845  -13.7377 C   0  0  0  0  0  0  0  0  0  0  0  0
   21.5594   -4.6966  -12.7914 C   0  0  0  0  0  0  0  0  0  0  0  0
   20.7761   -5.2894  -11.8055 C   0  0  0  0  0  0  0  0  0  0  0  0
   17.9147   -5.6227  -10.4131 C   0  0  0  0  0  0  0  0  0  0  0  0
   17.7149   -4.6749  -11.1951 O   0  0  0  0  0  0  0  0  0  0  0  0
   17.8037   -5.4221   -9.0474 O   0  0  0  0  0  0  0  0  0  0  0  0
  2  1  1  1
  3  2  1  0
  4  2  1  0
  5  4  1  0
  5  6  1  6
  7  8  2  0
  7  5  1  0
  9  7  1  0
 10  9  1  0
 10 11  1  1
 12 16  1  0
 12 11  1  0
 13 12  2  0
 14 15  2  0
 14 10  1  0
 17 14  1  0
 18 17  1  0
 18 19  1  6
 20 21  2  0
 20 19  1  0
 22 21  1  0
 23 22  2  0
 24 25  2  0
 24 23  1  0
 25 20  1  0
 26 18  1  0
 27 26  2  0
 28 26  1  0
M  END
$$$$
