LDF.pdb
     RDKit          3D

 28 28  0  0  1  0  0  0  0  0999 V2000
   28.4767  -17.1791  -16.4267 C   0  0  0  0  0  0  0  0  0  0  0  0
   27.5330  -16.2907  -15.6307 C   0  0  2  0  0  0  0  0  0  0  0  0
   28.2949  -15.1648  -14.9661 C   0  0  0  0  0  0  0  0  0  0  0  0
   26.9433  -17.1490  -14.5372 C   0  0  0  0  0  0  0  0  0  0  0  0
   26.2536  -18.3785  -15.1065 C   0  0  2  0  0  0  0  0  0  0  0  0
   25.1182  -18.0162  -15.9430 N   0  0  0  0  0  0  0  0  0  0  0  0
   25.7576  -19.1682  -13.9688 C   0  0  0  0  0  0  0  0  0  0  0  0
   24.8032  -18.7144  -13.2971 O   0  0  0  0  0  0  0  0  0  0  0  0
   26.3110  -20.4361  -13.5857 N   0  0  0  0  0  0  0  0  0  0  0  0
   25.7180  -21.2771  -12.5689 C   0  0  1  0  0  0  0  0  0  0  0  0
   25.4887  -22.6939  -13.0127 C   0  0  0  0  0  0  0  0  0  0  0  0
   24.0831  -23.0572  -12.7297 C   0  0  0  0  0  0  0  0  0  0  0  0
   23.2258  -22.3012  -12.2143 O   0  0  0  0  0  0  0  0  0  0  0  0
   26.4825  -21.1625  -11.3309 C   0  0  0  0  0  0  0  0  0  0  0  0
   27.6557  -21.5695  -11.2745 O   0  0  0  0  0  0  0  0  0  0  0  0
   23.6484  -24.3487  -13.0555 O   0  0  0  0  0  0  0  0  0  0  0  0
   25.8997  -20.5841  -10.1700 N   0  0  0  0  0  0  0  0  0  0  0  0
   26.4283  -20.7626   -8.8500 C   0  0  1  0  0  0  0  0  0  0  0  0
   27.1415  -19.4542   -8.4832 C   0  0  0  0  0  0  0  0  0  0  0  0
   27.6991  -19.5331   -7.1097 C   0  0  0  0  0  0  0  0  0  0  0  0
   28.6754  -20.4384   -6.7606 C   0  0  0  0  0  0  0  0  0  0  0  0
   29.1808  -20.4932   -5.4704 C   0  0  0  0  0  0  0  0  0  0  0  0
   28.7097  -19.6344   -4.5070 C   0  0  0  0  0  0  0  0  0  0  0  0
   27.7340  -18.7211   -4.8326 C   0  0  0  0  0  0  0  0  0  0  0  0
   27.2374  -18.6789   -6.1320 C   0  0  0  0  0  0  0  0  0  0  0  0
   25.3724  -21.0549   -7.8600 C   0  0  0  0  0  0  0  0  0  0  0  0
   24.1948  -20.7242   -8.0919 O   0  0  0  0  0  0  0  0  0  0  0  0
   25.6852  -21.6960   -6.6730 O   0  0  0  0  0  0  0  0  0  0  0  0
  2  1  1  1
  3  2  1  0
  4  2  1  0
  5  4  1  0
  5  6  1  6
  7  8  2  0
  7  5  1  0
  9  7  1  0
 10  9  1  0
 10 11  1  6
 12 16  1  0
 12 11  1  0
 13 12  2  0
 14 15  2  0
 14 10  1  0
 17 14  1  0
 18 17  1  0
 18 19  1  1
 20 21  2  0
 20 19  1  0
 22 21  1  0
 23 22  2  0
 24 25  2  0
 24 23  1  0
 25 20  1  0
 26 18  1  0
 27 26  2  0
 28 26  1  0
M  END
$$$$
