LDF.pdb
     RDKit          3D

 28 28  0  0  1  0  0  0  0  0999 V2000
   29.5056  -16.5662  -15.7191 C   0  0  0  0  0  0  0  0  0  0  0  0
   28.3761  -17.3866  -16.3230 C   0  0  2  0  0  0  0  0  0  0  0  0
   27.7703  -16.6675  -17.5087 C   0  0  0  0  0  0  0  0  0  0  0  0
   27.3053  -17.5014  -15.2645 C   0  0  0  0  0  0  0  0  0  0  0  0
   26.6490  -18.8726  -15.2841 C   0  0  2  0  0  0  0  0  0  0  0  0
   25.8139  -19.0495  -16.4637 N   0  0  0  0  0  0  0  0  0  0  0  0
   25.7923  -18.9648  -14.0918 C   0  0  0  0  0  0  0  0  0  0  0  0
   24.6819  -18.3863  -14.1076 O   0  0  0  0  0  0  0  0  0  0  0  0
   26.1622  -19.6853  -12.9067 N   0  0  0  0  0  0  0  0  0  0  0  0
   25.1974  -20.1325  -11.9259 C   0  0  1  0  0  0  0  0  0  0  0  0
   24.1499  -21.0540  -12.4831 C   0  0  0  0  0  0  0  0  0  0  0  0
   22.9726  -21.0289  -11.5880 C   0  0  0  0  0  0  0  0  0  0  0  0
   22.5062  -22.0161  -10.9715 O   0  0  0  0  0  0  0  0  0  0  0  0
   25.8949  -20.6672  -10.7606 C   0  0  0  0  0  0  0  0  0  0  0  0
   26.3544  -21.8221  -10.7759 O   0  0  0  0  0  0  0  0  0  0  0  0
   22.3050  -19.8122  -11.3965 O   0  0  0  0  0  0  0  0  0  0  0  0
   26.0606  -19.8778   -9.5896 N   0  0  0  0  0  0  0  0  0  0  0  0
   26.6244  -20.3815   -8.3723 C   0  0  1  0  0  0  0  0  0  0  0  0
   27.1254  -19.1634   -7.5846 C   0  0  0  0  0  0  0  0  0  0  0  0
   27.8754  -19.5961   -6.3790 C   0  0  0  0  0  0  0  0  0  0  0  0
   27.4950  -19.2383   -5.1054 C   0  0  0  0  0  0  0  0  0  0  0  0
   28.2121  -19.6550   -3.9941 C   0  0  0  0  0  0  0  0  0  0  0  0
   29.3281  -20.4416   -4.1472 C   0  0  0  0  0  0  0  0  0  0  0  0
   29.7275  -20.8118   -5.4104 C   0  0  0  0  0  0  0  0  0  0  0  0
   28.9967  -20.3852   -6.5155 C   0  0  0  0  0  0  0  0  0  0  0  0
   25.6384  -21.1304   -7.5676 C   0  0  0  0  0  0  0  0  0  0  0  0
   24.4206  -20.9521   -7.7542 O   0  0  0  0  0  0  0  0  0  0  0  0
   26.0617  -22.0315   -6.6049 O   0  0  0  0  0  0  0  0  0  0  0  0
  2  1  1  1
  3  2  1  0
  4  2  1  0
  5  4  1  0
  5  6  1  6
  7  8  2  0
  7  5  1  0
  9  7  1  0
 10  9  1  0
 10 11  1  6
 12 16  1  0
 12 11  1  0
 13 12  2  0
 14 15  2  0
 14 10  1  0
 17 14  1  0
 18 17  1  0
 18 19  1  1
 20 21  2  0
 20 19  1  0
 22 21  1  0
 23 22  2  0
 24 25  2  0
 24 23  1  0
 25 20  1  0
 26 18  1  0
 27 26  2  0
 28 26  1  0
M  END
$$$$
