LDF.pdb
     RDKit          3D

 28 28  0  0  1  0  0  0  0  0999 V2000
   26.3192  -31.5072   -7.5186 C   0  0  0  0  0  0  0  0  0  0  0  0
   26.9616  -32.8630   -7.7687 C   0  0  2  0  0  0  0  0  0  0  0  0
   26.1816  -33.6386   -8.8079 C   0  0  0  0  0  0  0  0  0  0  0  0
   26.8800  -33.6311   -6.4712 C   0  0  0  0  0  0  0  0  0  0  0  0
   27.7660  -34.8663   -6.4997 C   0  0  2  0  0  0  0  0  0  0  0  0
   27.1255  -35.9683   -7.2037 N   0  0  0  0  0  0  0  0  0  0  0  0
   27.9908  -35.2760   -5.1048 C   0  0  0  0  0  0  0  0  0  0  0  0
   27.0243  -35.7328   -4.4528 O   0  0  0  0  0  0  0  0  0  0  0  0
   29.2638  -35.1797   -4.4484 N   0  0  0  0  0  0  0  0  0  0  0  0
   29.4717  -35.5828   -3.0747 C   0  0  1  0  0  0  0  0  0  0  0  0
   30.9050  -35.8868   -2.7430 C   0  0  0  0  0  0  0  0  0  0  0  0
   31.2370  -37.2306   -3.2645 C   0  0  0  0  0  0  0  0  0  0  0  0
   30.4236  -38.1721   -3.4200 O   0  0  0  0  0  0  0  0  0  0  0  0
   28.8518  -34.6109   -2.1795 C   0  0  0  0  0  0  0  0  0  0  0  0
   29.2222  -33.4244   -2.1833 O   0  0  0  0  0  0  0  0  0  0  0  0
   32.5648  -37.4990   -3.6219 O   0  0  0  0  0  0  0  0  0  0  0  0
   27.8151  -35.0037   -1.2891 N   0  0  0  0  0  0  0  0  0  0  0  0
   27.1590  -34.0973   -0.3938 C   0  0  1  0  0  0  0  0  0  0  0  0
   26.4295  -33.0688   -1.2687 C   0  0  0  0  0  0  0  0  0  0  0  0
   25.5027  -32.2509   -0.4467 C   0  0  0  0  0  0  0  0  0  0  0  0
   25.9207  -31.5559    0.6655 C   0  0  0  0  0  0  0  0  0  0  0  0
   25.0358  -30.7983    1.4178 C   0  0  0  0  0  0  0  0  0  0  0  0
   23.7107  -30.7279    1.0615 C   0  0  0  0  0  0  0  0  0  0  0  0
   23.2700  -31.4141   -0.0462 C   0  0  0  0  0  0  0  0  0  0  0  0
   24.1709  -32.1699   -0.7906 C   0  0  0  0  0  0  0  0  0  0  0  0
   26.1934  -34.7834    0.4878 C   0  0  0  0  0  0  0  0  0  0  0  0
   26.1423  -34.4939    1.6975 O   0  0  0  0  0  0  0  0  0  0  0  0
   25.3428  -35.7488   -0.0245 O   0  0  0  0  0  0  0  0  0  0  0  0
  2  1  1  1
  3  2  1  0
  4  2  1  0
  5  4  1  0
  5  6  1  6
  7  8  2  0
  7  5  1  0
  9  7  1  0
 10  9  1  0
 10 11  1  1
 12 16  1  0
 12 11  1  0
 13 12  2  0
 14 15  2  0
 14 10  1  0
 17 14  1  0
 18 17  1  0
 18 19  1  6
 20 21  2  0
 20 19  1  0
 22 21  1  0
 23 22  2  0
 24 25  2  0
 24 23  1  0
 25 20  1  0
 26 18  1  0
 27 26  2  0
 28 26  1  0
M  END
$$$$
