LDF.pdb
     RDKit          3D

 28 28  0  0  1  0  0  0  0  0999 V2000
   18.4162  -13.7887  -17.7986 C   0  0  0  0  0  0  0  0  0  0  0  0
   19.6839  -14.0773  -17.0092 C   0  0  2  0  0  0  0  0  0  0  0  0
   19.3473  -14.4858  -15.5915 C   0  0  0  0  0  0  0  0  0  0  0  0
   20.4585  -12.7831  -16.9383 C   0  0  0  0  0  0  0  0  0  0  0  0
   20.8730  -12.3068  -18.3213 C   0  0  2  0  0  0  0  0  0  0  0  0
   22.0388  -13.0297  -18.8094 N   0  0  0  0  0  0  0  0  0  0  0  0
   21.2253  -10.8831  -18.2066 C   0  0  0  0  0  0  0  0  0  0  0  0
   22.3695  -10.5817  -17.7971 O   0  0  0  0  0  0  0  0  0  0  0  0
   20.3241   -9.8167  -18.5401 N   0  0  0  0  0  0  0  0  0  0  0  0
   20.7006   -8.4213  -18.4766 C   0  0  1  0  0  0  0  0  0  0  0  0
   20.0941   -7.5803  -19.5636 C   0  0  0  0  0  0  0  0  0  0  0  0
   20.6501   -8.0140  -20.8638 C   0  0  0  0  0  0  0  0  0  0  0  0
   21.8542   -7.9322  -21.2039 O   0  0  0  0  0  0  0  0  0  0  0  0
   20.4607   -7.9097  -17.1308 C   0  0  0  0  0  0  0  0  0  0  0  0
   19.4830   -8.3032  -16.4718 O   0  0  0  0  0  0  0  0  0  0  0  0
   19.7788   -8.5659  -21.8122 O   0  0  0  0  0  0  0  0  0  0  0  0
   21.3398   -6.9540  -16.5514 N   0  0  0  0  0  0  0  0  0  0  0  0
   21.2182   -6.4872  -15.2019 C   0  0  1  0  0  0  0  0  0  0  0  0
   22.6430   -6.4006  -14.6384 C   0  0  0  0  0  0  0  0  0  0  0  0
   23.3229   -7.7163  -14.7388 C   0  0  0  0  0  0  0  0  0  0  0  0
   24.3446   -7.9528  -15.6304 C   0  0  0  0  0  0  0  0  0  0  0  0
   24.9645   -9.1909  -15.7058 C   0  0  0  0  0  0  0  0  0  0  0  0
   24.5647  -10.2150  -14.8818 C   0  0  0  0  0  0  0  0  0  0  0  0
   23.5456  -10.0021  -13.9827 C   0  0  0  0  0  0  0  0  0  0  0  0
   22.9337   -8.7536  -13.9196 C   0  0  0  0  0  0  0  0  0  0  0  0
   20.5652   -5.1651  -15.1247 C   0  0  0  0  0  0  0  0  0  0  0  0
   20.3484   -4.5176  -16.1657 O   0  0  0  0  0  0  0  0  0  0  0  0
   20.1919   -4.6404  -13.8986 O   0  0  0  0  0  0  0  0  0  0  0  0
  2  1  1  6
  3  2  1  0
  4  2  1  0
  5  4  1  0
  5  6  1  1
  7  8  2  0
  7  5  1  0
  9  7  1  0
 10  9  1  0
 10 11  1  6
 12 16  1  0
 12 11  1  0
 13 12  2  0
 14 15  2  0
 14 10  1  0
 17 14  1  0
 18 17  1  0
 18 19  1  6
 20 21  2  0
 20 19  1  0
 22 21  1  0
 23 22  2  0
 24 25  2  0
 24 23  1  0
 25 20  1  0
 26 18  1  0
 27 26  2  0
 28 26  1  0
M  END
$$$$
