LDF.pdb
     RDKit          3D

 28 28  0  0  1  0  0  0  0  0999 V2000
   16.6251  -13.4728  -16.2030 C   0  0  0  0  0  0  0  0  0  0  0  0
   17.8526  -13.8431  -15.3847 C   0  0  2  0  0  0  0  0  0  0  0  0
   17.4995  -13.9605  -13.9179 C   0  0  0  0  0  0  0  0  0  0  0  0
   18.8327  -12.7032  -15.5272 C   0  0  0  0  0  0  0  0  0  0  0  0
   19.0724  -12.3554  -16.9877 C   0  0  2  0  0  0  0  0  0  0  0  0
   20.0270  -13.2652  -17.6050 N   0  0  0  0  0  0  0  0  0  0  0  0
   19.6350  -10.9967  -17.0274 C   0  0  0  0  0  0  0  0  0  0  0  0
   20.8166  -10.8278  -16.6491 O   0  0  0  0  0  0  0  0  0  0  0  0
   18.8992   -9.8496  -17.4784 N   0  0  0  0  0  0  0  0  0  0  0  0
   19.4534   -8.5134  -17.4843 C   0  0  1  0  0  0  0  0  0  0  0  0
   18.8288   -7.6030  -18.5031 C   0  0  0  0  0  0  0  0  0  0  0  0
   19.5394   -6.3060  -18.4781 C   0  0  0  0  0  0  0  0  0  0  0  0
   20.7355   -6.1252  -18.8078 O   0  0  0  0  0  0  0  0  0  0  0  0
   19.4472   -7.9742  -16.1279 C   0  0  0  0  0  0  0  0  0  0  0  0
   18.5127   -8.2339  -15.3506 O   0  0  0  0  0  0  0  0  0  0  0  0
   18.8392   -5.1689  -18.0542 O   0  0  0  0  0  0  0  0  0  0  0  0
   20.5083   -7.1441  -15.6731 N   0  0  0  0  0  0  0  0  0  0  0  0
   20.5304   -6.5315  -14.3777 C   0  0  1  0  0  0  0  0  0  0  0  0
   21.7634   -7.0865  -13.6518 C   0  0  0  0  0  0  0  0  0  0  0  0
   22.9603   -7.0094  -14.5264 C   0  0  0  0  0  0  0  0  0  0  0  0
   23.5341   -5.8116  -14.8880 C   0  0  0  0  0  0  0  0  0  0  0  0
   24.6524   -5.7651  -15.7065 C   0  0  0  0  0  0  0  0  0  0  0  0
   25.2136   -6.9279  -16.1762 C   0  0  0  0  0  0  0  0  0  0  0  0
   24.6575   -8.1369  -15.8281 C   0  0  0  0  0  0  0  0  0  0  0  0
   23.5351   -8.1664  -15.0057 C   0  0  0  0  0  0  0  0  0  0  0  0
   20.6132   -5.0594  -14.4570 C   0  0  0  0  0  0  0  0  0  0  0  0
   20.5161   -4.3751  -13.4216 O   0  0  0  0  0  0  0  0  0  0  0  0
   20.7986   -4.4345  -15.6789 O   0  0  0  0  0  0  0  0  0  0  0  0
  2  1  1  6
  3  2  1  0
  4  2  1  0
  5  4  1  0
  5  6  1  1
  7  8  2  0
  7  5  1  0
  9  7  1  0
 10  9  1  0
 10 11  1  6
 12 16  1  0
 12 11  1  0
 13 12  2  0
 14 15  2  0
 14 10  1  0
 17 14  1  0
 18 17  1  0
 18 19  1  1
 20 21  2  0
 20 19  1  0
 22 21  1  0
 23 22  2  0
 24 25  2  0
 24 23  1  0
 25 20  1  0
 26 18  1  0
 27 26  2  0
 28 26  1  0
M  END
$$$$
