LDF.pdb
     RDKit          3D

 28 28  0  0  1  0  0  0  0  0999 V2000
   28.4967  -17.6575  -16.5202 C   0  0  0  0  0  0  0  0  0  0  0  0
   27.4654  -16.6958  -17.0903 C   0  0  2  0  0  0  0  0  0  0  0  0
   27.8701  -15.2621  -16.8252 C   0  0  0  0  0  0  0  0  0  0  0  0
   26.1748  -16.9492  -16.3484 C   0  0  0  0  0  0  0  0  0  0  0  0
   25.7550  -18.4072  -16.4451 C   0  0  2  0  0  0  0  0  0  0  0  0
   25.7679  -18.8777  -17.8230 N   0  0  0  0  0  0  0  0  0  0  0  0
   24.3778  -18.5008  -15.9364 C   0  0  0  0  0  0  0  0  0  0  0  0
   24.1299  -18.0476  -14.7958 O   0  0  0  0  0  0  0  0  0  0  0  0
   23.2987  -19.0860  -16.6805 N   0  0  0  0  0  0  0  0  0  0  0  0
   21.9701  -19.2574  -16.1343 C   0  0  1  0  0  0  0  0  0  0  0  0
   20.8790  -19.1966  -17.1651 C   0  0  0  0  0  0  0  0  0  0  0  0
   20.8529  -17.8372  -17.7475 C   0  0  0  0  0  0  0  0  0  0  0  0
   20.7026  -16.7723  -17.1029 O   0  0  0  0  0  0  0  0  0  0  0  0
   21.9323  -20.4575  -15.3044 C   0  0  0  0  0  0  0  0  0  0  0  0
   22.4575  -21.5130  -15.6982 O   0  0  0  0  0  0  0  0  0  0  0  0
   21.0068  -17.7012  -19.1334 O   0  0  0  0  0  0  0  0  0  0  0  0
   21.2953  -20.4400  -14.0333 N   0  0  0  0  0  0  0  0  0  0  0  0
   21.1795  -21.5953  -13.1934 C   0  0  1  0  0  0  0  0  0  0  0  0
   21.9619  -21.2842  -11.9103 C   0  0  0  0  0  0  0  0  0  0  0  0
   23.4223  -21.2960  -12.1759 C   0  0  0  0  0  0  0  0  0  0  0  0
   24.1349  -22.4636  -12.3296 C   0  0  0  0  0  0  0  0  0  0  0  0
   25.4993  -22.4491  -12.5770 C   0  0  0  0  0  0  0  0  0  0  0  0
   26.1711  -21.2546  -12.6741 C   0  0  0  0  0  0  0  0  0  0  0  0
   25.4799  -20.0749  -12.5240 C   0  0  0  0  0  0  0  0  0  0  0  0
   24.1107  -20.1066  -12.2761 C   0  0  0  0  0  0  0  0  0  0  0  0
   19.7746  -21.9076  -12.8630 C   0  0  0  0  0  0  0  0  0  0  0  0
   18.8871  -21.0562  -13.0562 O   0  0  0  0  0  0  0  0  0  0  0  0
   19.4381  -23.1444  -12.3386 O   0  0  0  0  0  0  0  0  0  0  0  0
  2  1  1  1
  3  2  1  0
  4  2  1  0
  5  4  1  0
  5  6  1  6
  7  8  2  0
  7  5  1  0
  9  7  1  0
 10  9  1  0
 10 11  1  6
 12 16  1  0
 12 11  1  0
 13 12  2  0
 14 15  2  0
 14 10  1  0
 17 14  1  0
 18 17  1  0
 18 19  1  1
 20 21  2  0
 20 19  1  0
 22 21  1  0
 23 22  2  0
 24 25  2  0
 24 23  1  0
 25 20  1  0
 26 18  1  0
 27 26  2  0
 28 26  1  0
M  END
$$$$
