LDF.pdb
     RDKit          3D

 28 28  0  0  1  0  0  0  0  0999 V2000
   27.1154  -33.3756   -6.8943 C   0  0  0  0  0  0  0  0  0  0  0  0
   26.6497  -32.4455   -8.0040 C   0  0  2  0  0  0  0  0  0  0  0  0
   27.7661  -32.1975   -8.9949 C   0  0  0  0  0  0  0  0  0  0  0  0
   26.3153  -31.1238   -7.3546 C   0  0  0  0  0  0  0  0  0  0  0  0
   25.1883  -31.2700   -6.3447 C   0  0  2  0  0  0  0  0  0  0  0  0
   23.9203  -31.5654   -6.9967 N   0  0  0  0  0  0  0  0  0  0  0  0
   25.0597  -29.9834   -5.6431 C   0  0  0  0  0  0  0  0  0  0  0  0
   24.4361  -29.0552   -6.2064 O   0  0  0  0  0  0  0  0  0  0  0  0
   25.6130  -29.7340   -4.3423 N   0  0  0  0  0  0  0  0  0  0  0  0
   25.3225  -28.5386   -3.5810 C   0  0  1  0  0  0  0  0  0  0  0  0
   25.0611  -28.7967   -2.1244 C   0  0  0  0  0  0  0  0  0  0  0  0
   23.7182  -29.4007   -1.9840 C   0  0  0  0  0  0  0  0  0  0  0  0
   23.4751  -30.5271   -1.4899 O   0  0  0  0  0  0  0  0  0  0  0  0
   26.3557  -27.5375   -3.8273 C   0  0  0  0  0  0  0  0  0  0  0  0
   27.5576  -27.8265   -3.6958 O   0  0  0  0  0  0  0  0  0  0  0  0
   22.6084  -28.6731   -2.4332 O   0  0  0  0  0  0  0  0  0  0  0  0
   26.0061  -26.2168   -4.2213 N   0  0  0  0  0  0  0  0  0  0  0  0
   26.9298  -25.1212   -4.2137 C   0  0  1  0  0  0  0  0  0  0  0  0
   26.4856  -24.1661   -5.3299 C   0  0  0  0  0  0  0  0  0  0  0  0
   27.3029  -22.9272   -5.3102 C   0  0  0  0  0  0  0  0  0  0  0  0
   26.8471  -21.7512   -4.7588 C   0  0  0  0  0  0  0  0  0  0  0  0
   27.6294  -20.6063   -4.7524 C   0  0  0  0  0  0  0  0  0  0  0  0
   28.8880  -20.6265   -5.3031 C   0  0  0  0  0  0  0  0  0  0  0  0
   29.3648  -21.7904   -5.8600 C   0  0  0  0  0  0  0  0  0  0  0  0
   28.5671  -22.9309   -5.8583 C   0  0  0  0  0  0  0  0  0  0  0  0
   26.9436  -24.4107   -2.9193 C   0  0  0  0  0  0  0  0  0  0  0  0
   25.9224  -24.3971   -2.2074 O   0  0  0  0  0  0  0  0  0  0  0  0
   28.0880  -23.7583   -2.4922 O   0  0  0  0  0  0  0  0  0  0  0  0
  2  1  1  1
  3  2  1  0
  4  2  1  0
  5  4  1  0
  5  6  1  6
  7  8  2  0
  7  5  1  0
  9  7  1  0
 10  9  1  0
 10 11  1  1
 12 16  1  0
 12 11  1  0
 13 12  2  0
 14 15  2  0
 14 10  1  0
 17 14  1  0
 18 17  1  0
 18 19  1  6
 20 21  2  0
 20 19  1  0
 22 21  1  0
 23 22  2  0
 24 25  2  0
 24 23  1  0
 25 20  1  0
 26 18  1  0
 27 26  2  0
 28 26  1  0
M  END
$$$$
