LDF.pdb
     RDKit          3D

 28 28  0  0  1  0  0  0  0  0999 V2000
   26.8506  -15.8323  -16.0246 C   0  0  0  0  0  0  0  0  0  0  0  0
   25.7943  -16.9218  -15.9215 C   0  0  2  0  0  0  0  0  0  0  0  0
   24.6177  -16.6100  -16.8204 C   0  0  0  0  0  0  0  0  0  0  0  0
   25.2940  -16.9117  -14.4967 C   0  0  0  0  0  0  0  0  0  0  0  0
   26.4001  -17.2685  -13.5166 C   0  0  2  0  0  0  0  0  0  0  0  0
   27.7096  -17.2372  -14.1526 N   0  0  0  0  0  0  0  0  0  0  0  0
   26.1449  -18.6397  -13.0488 C   0  0  0  0  0  0  0  0  0  0  0  0
   24.9859  -18.9403  -12.6827 O   0  0  0  0  0  0  0  0  0  0  0  0
   27.1574  -19.6556  -12.9894 N   0  0  0  0  0  0  0  0  0  0  0  0
   26.9225  -20.9666  -12.4246 C   0  0  1  0  0  0  0  0  0  0  0  0
   27.5408  -22.0855  -13.2136 C   0  0  0  0  0  0  0  0  0  0  0  0
   27.2263  -21.8858  -14.6450 C   0  0  0  0  0  0  0  0  0  0  0  0
   26.0981  -22.0389  -15.1703 O   0  0  0  0  0  0  0  0  0  0  0  0
   27.2919  -20.9653  -11.0125 C   0  0  0  0  0  0  0  0  0  0  0  0
   28.4871  -20.9234  -10.6736 O   0  0  0  0  0  0  0  0  0  0  0  0
   28.2583  -21.4925  -15.5070 O   0  0  0  0  0  0  0  0  0  0  0  0
   26.2927  -21.0118  -10.0019 N   0  0  0  0  0  0  0  0  0  0  0  0
   26.5900  -21.0806   -8.6018 C   0  0  1  0  0  0  0  0  0  0  0  0
   27.4382  -19.8446   -8.2729 C   0  0  0  0  0  0  0  0  0  0  0  0
   27.8108  -19.8368   -6.8360 C   0  0  0  0  0  0  0  0  0  0  0  0
   27.2973  -18.9213   -5.9455 C   0  0  0  0  0  0  0  0  0  0  0  0
   27.6607  -18.9339   -4.6074 C   0  0  0  0  0  0  0  0  0  0  0  0
   28.5502  -19.8719   -4.1420 C   0  0  0  0  0  0  0  0  0  0  0  0
   29.0765  -20.7970   -5.0134 C   0  0  0  0  0  0  0  0  0  0  0  0
   28.7015  -20.7708   -6.3534 C   0  0  0  0  0  0  0  0  0  0  0  0
   25.3693  -21.0889   -7.7710 C   0  0  0  0  0  0  0  0  0  0  0  0
   24.3339  -20.5340   -8.1829 O   0  0  0  0  0  0  0  0  0  0  0  0
   25.3699  -21.7116   -6.5340 O   0  0  0  0  0  0  0  0  0  0  0  0
  2  1  1  1
  3  2  1  0
  4  2  1  0
  5  4  1  0
  5  6  1  6
  7  8  2  0
  7  5  1  0
  9  7  1  0
 10  9  1  0
 10 11  1  6
 12 16  1  0
 12 11  1  0
 13 12  2  0
 14 15  2  0
 14 10  1  0
 17 14  1  0
 18 17  1  0
 18 19  1  1
 20 21  2  0
 20 19  1  0
 22 21  1  0
 23 22  2  0
 24 25  2  0
 24 23  1  0
 25 20  1  0
 26 18  1  0
 27 26  2  0
 28 26  1  0
M  END
$$$$
