FNH.pdb
     RDKit          3D

 30 31  0  0  1  0  0  0  0  0999 V2000
   24.7183  -20.8781  -10.8649 N   0  0  0  0  0  0  0  0  0  0  0  0
   25.2893  -20.5487  -12.1810 C   0  0  1  0  0  0  0  0  0  0  0  0
   26.6028  -19.8483  -11.8642 C   0  0  0  0  0  0  0  0  0  0  0  0
   27.3381  -19.4157  -13.0670 C   0  0  0  0  0  0  0  0  0  0  0  0
   28.3136  -20.1942  -13.6275 C   0  0  0  0  0  0  0  0  0  0  0  0
   28.9839  -19.7510  -14.7717 C   0  0  0  0  0  0  0  0  0  0  0  0
   28.6342  -18.5278  -15.3030 C   0  0  0  0  0  0  0  0  0  0  0  0
   27.6603  -17.7368  -14.7535 C   0  0  0  0  0  0  0  0  0  0  0  0
   27.0029  -18.1826  -13.6229 C   0  0  0  0  0  0  0  0  0  0  0  0
   25.5380  -21.7850  -12.9616 C   0  0  0  0  0  0  0  0  0  0  0  0
   26.0529  -22.7912  -12.4120 O   0  0  0  0  0  0  0  0  0  0  0  0
   23.4520  -24.4636  -13.7855 N   0  0  0  0  0  0  0  0  0  0  0  0
   23.1806  -24.1845  -15.1507 C   0  0  0  0  0  0  0  0  0  0  0  0
   22.0846  -24.5468  -15.6186 O   0  0  0  0  0  0  0  0  0  0  0  0
   24.2028  -23.4874  -15.9305 C   0  0  0  0  0  0  0  0  0  0  0  0
   25.4032  -23.0393  -15.1530 C   0  0  2  0  0  0  0  0  0  0  0  0
   25.2000  -21.8644  -14.3530 N   0  0  0  0  0  0  0  0  0  0  0  0
   26.6593  -23.0072  -15.9406 C   0  0  0  0  0  0  0  0  0  0  0  0
   26.9767  -22.0304  -16.6689 O   0  0  0  0  0  0  0  0  0  0  0  0
   27.6152  -24.0891  -15.9389 N   0  0  0  0  0  0  0  0  0  0  0  0
   28.7882  -24.0528  -16.7848 C   0  0  1  0  0  0  0  0  0  0  0  0
   29.8048  -25.0549  -16.3186 C   0  0  0  0  0  0  0  0  0  0  0  0
   30.9900  -25.1591  -17.1982 C   0  0  0  0  0  0  0  0  0  0  0  0
   31.8166  -24.1225  -17.5849 C   0  0  0  0  0  0  0  0  0  0  0  0
   32.7803  -24.5895  -18.3798 N   0  0  0  0  0  0  0  0  0  0  0  0
   32.5812  -25.9101  -18.5066 C   0  0  0  0  0  0  0  0  0  0  0  0
   31.4926  -26.2549  -17.7877 N   0  0  0  0  0  0  0  0  0  0  0  0
   28.4329  -24.2597  -18.2170 C   0  0  0  0  0  0  0  0  0  0  0  0
   29.0474  -23.6093  -19.2669 O   0  0  0  0  0  0  0  0  0  0  0  0
   27.5167  -25.0772  -18.4869 O   0  0  0  0  0  0  0  0  0  0  0  0
  2  1  1  1
  3  2  1  0
  3  4  1  0
  4  9  1  0
  4  5  2  0
  5  6  1  0
  6  7  2  0
  8  7  1  0
  9  8  2  0
 10  2  1  0
 11 10  2  0
 13 15  1  0
 13 12  1  0
 14 13  2  0
 16 15  1  6
 16 17  1  0
 17 10  1  0
 18 16  1  0
 19 18  2  0
 20 18  1  0
 21 28  1  0
 21 20  1  0
 21 22  1  1
 22 23  1  0
 23 27  1  0
 23 24  2  0
 24 25  1  0
 26 25  1  0
 27 26  2  0
 28 29  1  0
 30 28  2  0
M  END
$$$$
