FNH.pdb
     RDKit          3D

 30 31  0  0  1  0  0  0  0  0999 V2000
   16.3512  -12.7960    4.5102 N   0  0  0  0  0  0  0  0  0  0  0  0
   16.4696  -14.2583    4.3898 C   0  0  1  0  0  0  0  0  0  0  0  0
   17.5389  -14.4700    3.3279 C   0  0  0  0  0  0  0  0  0  0  0  0
   17.5851  -15.8512    2.8135 C   0  0  0  0  0  0  0  0  0  0  0  0
   16.5520  -16.7249    3.0165 C   0  0  0  0  0  0  0  0  0  0  0  0
   16.6314  -18.0247    2.5075 C   0  0  0  0  0  0  0  0  0  0  0  0
   17.7637  -18.3864    1.8091 C   0  0  0  0  0  0  0  0  0  0  0  0
   18.8064  -17.5236    1.5977 C   0  0  0  0  0  0  0  0  0  0  0  0
   18.7194  -16.2409    2.1041 C   0  0  0  0  0  0  0  0  0  0  0  0
   16.8980  -14.8510    5.6801 C   0  0  0  0  0  0  0  0  0  0  0  0
   17.3743  -14.1231    6.5872 O   0  0  0  0  0  0  0  0  0  0  0  0
   17.8662  -17.7657    9.6950 N   0  0  0  0  0  0  0  0  0  0  0  0
   16.9016  -16.7244    9.6733 C   0  0  0  0  0  0  0  0  0  0  0  0
   16.4962  -16.2753   10.7620 O   0  0  0  0  0  0  0  0  0  0  0  0
   16.4384  -16.2378    8.3741 C   0  0  0  0  0  0  0  0  0  0  0  0
   17.0916  -16.8740    7.1847 C   0  0  2  0  0  0  0  0  0  0  0  0
   16.7810  -16.2592    5.9248 N   0  0  0  0  0  0  0  0  0  0  0  0
   16.9963  -18.3537    7.1589 C   0  0  0  0  0  0  0  0  0  0  0  0
   15.9080  -18.9586    6.9721 O   0  0  0  0  0  0  0  0  0  0  0  0
   18.1376  -19.2175    7.3477 N   0  0  0  0  0  0  0  0  0  0  0  0
   18.2282  -20.4955    6.6758 C   0  0  1  0  0  0  0  0  0  0  0  0
   18.2314  -20.3080    5.1859 C   0  0  0  0  0  0  0  0  0  0  0  0
   16.9965  -20.7786    4.5205 C   0  0  0  0  0  0  0  0  0  0  0  0
   15.8913  -20.0116    4.2077 C   0  0  0  0  0  0  0  0  0  0  0  0
   14.9700  -20.7724    3.6153 N   0  0  0  0  0  0  0  0  0  0  0  0
   15.4708  -22.0150    3.5450 C   0  0  0  0  0  0  0  0  0  0  0  0
   16.7027  -22.0172    4.0956 N   0  0  0  0  0  0  0  0  0  0  0  0
   19.4182  -21.2672    7.1326 C   0  0  0  0  0  0  0  0  0  0  0  0
   19.6004  -22.6147    6.9006 O   0  0  0  0  0  0  0  0  0  0  0  0
   20.3123  -20.6537    7.7690 O   0  0  0  0  0  0  0  0  0  0  0  0
  2  1  1  1
  3  2  1  0
  3  4  1  0
  4  9  1  0
  4  5  2  0
  5  6  1  0
  6  7  2  0
  8  7  1  0
  9  8  2  0
 10  2  1  0
 11 10  2  0
 13 15  1  0
 13 12  1  0
 14 13  2  0
 16 15  1  1
 16 17  1  0
 17 10  1  0
 18 16  1  0
 19 18  2  0
 20 18  1  0
 21 28  1  0
 21 20  1  0
 21 22  1  6
 22 23  1  0
 23 27  1  0
 23 24  2  0
 24 25  1  0
 26 25  1  0
 27 26  2  0
 28 29  1  0
 30 28  2  0
M  END
$$$$
