FNH.pdb
     RDKit          3D

 30 31  0  0  1  0  0  0  0  0999 V2000
   22.6548  -30.0409    1.8655 N   0  0  0  0  0  0  0  0  0  0  0  0
   23.3240  -30.3181    3.1469 C   0  0  1  0  0  0  0  0  0  0  0  0
   22.2143  -30.8243    4.0570 C   0  0  0  0  0  0  0  0  0  0  0  0
   21.2221  -29.7884    4.3989 C   0  0  0  0  0  0  0  0  0  0  0  0
   19.9618  -29.8017    3.8664 C   0  0  0  0  0  0  0  0  0  0  0  0
   19.0478  -28.8046    4.2203 C   0  0  0  0  0  0  0  0  0  0  0  0
   19.4534  -27.8287    5.1057 C   0  0  0  0  0  0  0  0  0  0  0  0
   20.7113  -27.8014    5.6472 C   0  0  0  0  0  0  0  0  0  0  0  0
   21.6082  -28.7908    5.2920 C   0  0  0  0  0  0  0  0  0  0  0  0
   24.3650  -31.3600    2.9725 C   0  0  0  0  0  0  0  0  0  0  0  0
   24.2713  -32.2037    2.0457 O   0  0  0  0  0  0  0  0  0  0  0  0
   29.5407  -33.0993    2.5161 N   0  0  0  0  0  0  0  0  0  0  0  0
   28.9611  -32.9533    3.8037 C   0  0  0  0  0  0  0  0  0  0  0  0
   29.3739  -33.6873    4.7214 O   0  0  0  0  0  0  0  0  0  0  0  0
   27.9121  -31.9495    3.9801 C   0  0  0  0  0  0  0  0  0  0  0  0
   26.5146  -32.4401    3.7513 C   0  0  2  0  0  0  0  0  0  0  0  0
   25.4972  -31.4317    3.8498 N   0  0  0  0  0  0  0  0  0  0  0  0
   26.1820  -33.6874    4.4812 C   0  0  0  0  0  0  0  0  0  0  0  0
   25.4629  -33.6956    5.5147 O   0  0  0  0  0  0  0  0  0  0  0  0
   26.6555  -34.9879    4.0701 N   0  0  0  0  0  0  0  0  0  0  0  0
   25.7472  -36.1050    3.9293 C   0  0  1  0  0  0  0  0  0  0  0  0
   24.3251  -35.6514    4.0940 C   0  0  0  0  0  0  0  0  0  0  0  0
   23.8416  -35.6926    5.4917 C   0  0  0  0  0  0  0  0  0  0  0  0
   24.5295  -36.1877    6.5822 C   0  0  0  0  0  0  0  0  0  0  0  0
   23.7821  -36.0616    7.6795 N   0  0  0  0  0  0  0  0  0  0  0  0
   22.6261  -35.4928    7.3057 C   0  0  0  0  0  0  0  0  0  0  0  0
   22.6637  -35.2691    5.9756 N   0  0  0  0  0  0  0  0  0  0  0  0
   25.9497  -36.8107    2.6327 C   0  0  0  0  0  0  0  0  0  0  0  0
   26.5823  -36.2536    1.5407 O   0  0  0  0  0  0  0  0  0  0  0  0
   25.5179  -37.9866    2.5256 O   0  0  0  0  0  0  0  0  0  0  0  0
  2  1  1  6
  3  2  1  0
  3  4  1  0
  4  9  1  0
  4  5  2  0
  5  6  1  0
  6  7  2  0
  8  7  1  0
  9  8  2  0
 10  2  1  0
 11 10  2  0
 13 15  1  0
 13 12  1  0
 14 13  2  0
 16 15  1  1
 16 17  1  0
 17 10  1  0
 18 16  1  0
 19 18  2  0
 20 18  1  0
 21 28  1  0
 21 20  1  0
 21 22  1  6
 22 23  1  0
 23 27  1  0
 23 24  2  0
 24 25  1  0
 26 25  1  0
 27 26  2  0
 28 29  1  0
 30 28  2  0
M  END
$$$$
