FNH.pdb
     RDKit          3D

 30 31  0  0  1  0  0  0  0  0999 V2000
   16.2445  -13.8610    5.6436 N   0  0  0  0  0  0  0  0  0  0  0  0
   16.8039  -15.2052    5.4272 C   0  0  1  0  0  0  0  0  0  0  0  0
   17.9786  -14.9842    4.4852 C   0  0  0  0  0  0  0  0  0  0  0  0
   18.9852  -14.0474    5.0177 C   0  0  0  0  0  0  0  0  0  0  0  0
   19.8607  -14.4208    6.0005 C   0  0  0  0  0  0  0  0  0  0  0  0
   20.8045  -13.5047    6.4746 C   0  0  0  0  0  0  0  0  0  0  0  0
   20.8207  -12.2391    5.9282 C   0  0  0  0  0  0  0  0  0  0  0  0
   19.9510  -11.8499    4.9441 C   0  0  0  0  0  0  0  0  0  0  0  0
   19.0216  -12.7617    4.4814 C   0  0  0  0  0  0  0  0  0  0  0  0
   17.2720  -15.7839    6.7101 C   0  0  0  0  0  0  0  0  0  0  0  0
   17.4300  -15.0503    7.7184 O   0  0  0  0  0  0  0  0  0  0  0  0
   15.5641  -19.8339    9.9940 N   0  0  0  0  0  0  0  0  0  0  0  0
   16.8654  -19.3276    9.7380 C   0  0  0  0  0  0  0  0  0  0  0  0
   17.6044  -19.0854   10.7110 O   0  0  0  0  0  0  0  0  0  0  0  0
   17.2650  -19.1190    8.3466 C   0  0  0  0  0  0  0  0  0  0  0  0
   17.9403  -17.8108    8.0661 C   0  0  2  0  0  0  0  0  0  0  0  0
   17.5544  -17.1845    6.8330 N   0  0  0  0  0  0  0  0  0  0  0  0
   19.4066  -17.8248    8.2874 C   0  0  0  0  0  0  0  0  0  0  0  0
   20.2177  -18.2471    7.4218 O   0  0  0  0  0  0  0  0  0  0  0  0
   20.0210  -17.3603    9.5084 N   0  0  0  0  0  0  0  0  0  0  0  0
   21.4561  -17.4005    9.6866 C   0  0  1  0  0  0  0  0  0  0  0  0
   21.9568  -16.0911   10.2250 C   0  0  0  0  0  0  0  0  0  0  0  0
   23.4162  -16.0620   10.4670 C   0  0  0  0  0  0  0  0  0  0  0  0
   24.4004  -16.4721    9.5891 C   0  0  0  0  0  0  0  0  0  0  0  0
   25.5994  -16.3012   10.1473 N   0  0  0  0  0  0  0  0  0  0  0  0
   25.3955  -15.7875   11.3697 C   0  0  0  0  0  0  0  0  0  0  0  0
   24.0679  -15.6426   11.5626 N   0  0  0  0  0  0  0  0  0  0  0  0
   21.8649  -18.5410   10.5540 C   0  0  0  0  0  0  0  0  0  0  0  0
   23.0646  -19.2112   10.4339 O   0  0  0  0  0  0  0  0  0  0  0  0
   21.0684  -18.9169   11.4512 O   0  0  0  0  0  0  0  0  0  0  0  0
  2  1  1  1
  3  2  1  0
  3  4  1  0
  4  9  1  0
  4  5  2  0
  5  6  1  0
  6  7  2  0
  8  7  1  0
  9  8  2  0
 10  2  1  0
 11 10  2  0
 13 15  1  0
 13 12  1  0
 14 13  2  0
 16 15  1  6
 16 17  1  0
 17 10  1  0
 18 16  1  0
 19 18  2  0
 20 18  1  0
 21 28  1  0
 21 20  1  0
 21 22  1  1
 22 23  1  0
 23 27  1  0
 23 24  2  0
 24 25  1  0
 26 25  1  0
 27 26  2  0
 28 29  1  0
 30 28  2  0
M  END
$$$$
