FNH.pdb
     RDKit          3D

 30 31  0  0  1  0  0  0  0  0999 V2000
   15.7643  -15.7819    5.3134 N   0  0  0  0  0  0  0  0  0  0  0  0
   16.8105  -16.6082    4.6893 C   0  0  1  0  0  0  0  0  0  0  0  0
   18.0987  -16.1785    5.3763 C   0  0  0  0  0  0  0  0  0  0  0  0
   18.5892  -14.8628    4.9259 C   0  0  0  0  0  0  0  0  0  0  0  0
   18.5983  -14.5178    3.6020 C   0  0  0  0  0  0  0  0  0  0  0  0
   19.0659  -13.2580    3.2159 C   0  0  0  0  0  0  0  0  0  0  0  0
   19.5081  -12.3949    4.1958 C   0  0  0  0  0  0  0  0  0  0  0  0
   19.5056  -12.7255    5.5251 C   0  0  0  0  0  0  0  0  0  0  0  0
   19.0416  -13.9725    5.8978 C   0  0  0  0  0  0  0  0  0  0  0  0
   16.5489  -18.0472    4.9349 C   0  0  0  0  0  0  0  0  0  0  0  0
   15.8385  -18.4074    5.9072 O   0  0  0  0  0  0  0  0  0  0  0  0
   14.7180  -20.1106    2.6644 N   0  0  0  0  0  0  0  0  0  0  0  0
   15.6770  -21.0585    2.2206 C   0  0  0  0  0  0  0  0  0  0  0  0
   15.4722  -21.6400    1.1384 O   0  0  0  0  0  0  0  0  0  0  0  0
   16.8512  -21.2987    3.0589 C   0  0  0  0  0  0  0  0  0  0  0  0
   16.9285  -20.4658    4.3024 C   0  0  2  0  0  0  0  0  0  0  0  0
   17.0952  -19.0577    4.0764 N   0  0  0  0  0  0  0  0  0  0  0  0
   17.8372  -21.0086    5.3411 C   0  0  0  0  0  0  0  0  0  0  0  0
   19.0649  -20.7316    5.3780 O   0  0  0  0  0  0  0  0  0  0  0  0
   17.3914  -21.8968    6.3883 N   0  0  0  0  0  0  0  0  0  0  0  0
   18.3217  -22.4453    7.3509 C   0  0  1  0  0  0  0  0  0  0  0  0
   17.7419  -22.3881    8.7350 C   0  0  0  0  0  0  0  0  0  0  0  0
   17.8127  -21.0483    9.3589 C   0  0  0  0  0  0  0  0  0  0  0  0
   18.9601  -20.3225    9.6126 C   0  0  0  0  0  0  0  0  0  0  0  0
   18.6392  -19.1610   10.1840 N   0  0  0  0  0  0  0  0  0  0  0  0
   17.3029  -19.1342   10.2991 C   0  0  0  0  0  0  0  0  0  0  0  0
   16.8019  -20.2821    9.7971 N   0  0  0  0  0  0  0  0  0  0  0  0
   18.7290  -23.8312    6.9853 C   0  0  0  0  0  0  0  0  0  0  0  0
   18.2547  -24.5098    5.8819 O   0  0  0  0  0  0  0  0  0  0  0  0
   19.5560  -24.4198    7.7271 O   0  0  0  0  0  0  0  0  0  0  0  0
  2  1  1  1
  3  2  1  0
  3  4  1  0
  4  9  1  0
  4  5  2  0
  5  6  1  0
  6  7  2  0
  8  7  1  0
  9  8  2  0
 10  2  1  0
 11 10  2  0
 13 15  1  0
 13 12  1  0
 14 13  2  0
 16 15  1  6
 16 17  1  0
 17 10  1  0
 18 16  1  0
 19 18  2  0
 20 18  1  0
 21 28  1  0
 21 20  1  0
 21 22  1  1
 22 23  1  0
 23 27  1  0
 23 24  2  0
 24 25  1  0
 26 25  1  0
 27 26  2  0
 28 29  1  0
 30 28  2  0
M  END
$$$$
