FNH.pdb
     RDKit          3D

 30 31  0  0  1  0  0  0  0  0999 V2000
   23.3152  -10.4454  -17.2593 N   0  0  0  0  0  0  0  0  0  0  0  0
   23.0565   -9.7799  -15.9721 C   0  0  1  0  0  0  0  0  0  0  0  0
   24.2790   -8.9034  -15.7415 C   0  0  0  0  0  0  0  0  0  0  0  0
   25.5523   -9.6410  -15.8374 C   0  0  0  0  0  0  0  0  0  0  0  0
   26.5437   -9.2482  -16.6945 C   0  0  0  0  0  0  0  0  0  0  0  0
   27.7392   -9.9710  -16.7516 C   0  0  0  0  0  0  0  0  0  0  0  0
   27.8798  -11.0700  -15.9312 C   0  0  0  0  0  0  0  0  0  0  0  0
   26.8968  -11.4761  -15.0680 C   0  0  0  0  0  0  0  0  0  0  0  0
   25.7186  -10.7559  -15.0180 C   0  0  0  0  0  0  0  0  0  0  0  0
   21.8321   -8.9474  -16.0566 C   0  0  0  0  0  0  0  0  0  0  0  0
   21.5711   -8.3049  -17.1048 O   0  0  0  0  0  0  0  0  0  0  0  0
   18.4819  -10.4230  -15.7662 N   0  0  0  0  0  0  0  0  0  0  0  0
   18.0125   -9.8445  -14.5577 C   0  0  0  0  0  0  0  0  0  0  0  0
   17.1152  -10.4388  -13.9308 O   0  0  0  0  0  0  0  0  0  0  0  0
   18.6088   -8.5838  -14.1172 C   0  0  0  0  0  0  0  0  0  0  0  0
   19.7198   -8.0675  -14.9804 C   0  0  2  0  0  0  0  0  0  0  0  0
   20.9207   -8.8541  -14.9532 N   0  0  0  0  0  0  0  0  0  0  0  0
   19.9650   -6.6110  -14.8476 C   0  0  0  0  0  0  0  0  0  0  0  0
   21.0619   -6.1434  -14.4433 O   0  0  0  0  0  0  0  0  0  0  0  0
   18.9701   -5.6147  -15.1669 N   0  0  0  0  0  0  0  0  0  0  0  0
   19.2711   -4.2023  -15.0820 C   0  0  1  0  0  0  0  0  0  0  0  0
   20.4923   -3.8745  -15.8920 C   0  0  0  0  0  0  0  0  0  0  0  0
   20.7859   -2.4266  -15.9737 C   0  0  0  0  0  0  0  0  0  0  0  0
   21.7535   -1.7456  -15.2614 C   0  0  0  0  0  0  0  0  0  0  0  0
   21.7284   -0.4538  -15.5920 N   0  0  0  0  0  0  0  0  0  0  0  0
   20.7583   -0.2996  -16.5057 C   0  0  0  0  0  0  0  0  0  0  0  0
   20.1863   -1.4997  -16.7367 N   0  0  0  0  0  0  0  0  0  0  0  0
   18.1038   -3.3717  -15.4915 C   0  0  0  0  0  0  0  0  0  0  0  0
   17.8385   -2.1132  -14.9927 O   0  0  0  0  0  0  0  0  0  0  0  0
   17.3107   -3.8456  -16.3442 O   0  0  0  0  0  0  0  0  0  0  0  0
  2  1  1  6
  3  2  1  0
  3  4  1  0
  4  9  1  0
  4  5  2  0
  5  6  1  0
  6  7  2  0
  8  7  1  0
  9  8  2  0
 10  2  1  0
 11 10  2  0
 13 15  1  0
 13 12  1  0
 14 13  2  0
 16 15  1  1
 16 17  1  0
 17 10  1  0
 18 16  1  0
 19 18  2  0
 20 18  1  0
 21 28  1  0
 21 20  1  0
 21 22  1  6
 22 23  1  0
 23 27  1  0
 23 24  2  0
 24 25  1  0
 26 25  1  0
 27 26  2  0
 28 29  1  0
 30 28  2  0
M  END
$$$$
