FNH.pdb
     RDKit          3D

 30 31  0  0  1  0  0  0  0  0999 V2000
   25.3212  -20.2910  -10.7378 N   0  0  0  0  0  0  0  0  0  0  0  0
   25.3922  -20.6357  -12.1671 C   0  0  1  0  0  0  0  0  0  0  0  0
   26.3863  -21.7860  -12.2348 C   0  0  0  0  0  0  0  0  0  0  0  0
   27.7668  -21.3841  -11.9073 C   0  0  0  0  0  0  0  0  0  0  0  0
   28.4436  -20.4675  -12.6647 C   0  0  0  0  0  0  0  0  0  0  0  0
   29.7495  -20.1083  -12.3176 C   0  0  0  0  0  0  0  0  0  0  0  0
   30.3183  -20.6984  -11.2090 C   0  0  0  0  0  0  0  0  0  0  0  0
   29.6541  -21.6177  -10.4408 C   0  0  0  0  0  0  0  0  0  0  0  0
   28.3638  -21.9667  -10.7910 C   0  0  0  0  0  0  0  0  0  0  0  0
   24.0634  -21.0712  -12.6612 C   0  0  0  0  0  0  0  0  0  0  0  0
   23.9647  -21.7177  -13.7345 O   0  0  0  0  0  0  0  0  0  0  0  0
   19.1044  -22.1941  -13.1446 N   0  0  0  0  0  0  0  0  0  0  0  0
   19.3246  -22.0675  -11.7479 C   0  0  0  0  0  0  0  0  0  0  0  0
   18.4383  -22.4748  -10.9734 O   0  0  0  0  0  0  0  0  0  0  0  0
   20.5794  -21.4662  -11.2973 C   0  0  0  0  0  0  0  0  0  0  0  0
   21.5503  -21.1241  -12.3865 C   0  0  2  0  0  0  0  0  0  0  0  0
   22.8655  -20.7686  -11.9331 N   0  0  0  0  0  0  0  0  0  0  0  0
   21.0101  -20.2003  -13.4132 C   0  0  0  0  0  0  0  0  0  0  0  0
   20.4018  -19.1389  -13.1156 O   0  0  0  0  0  0  0  0  0  0  0  0
   21.1344  -20.4426  -14.8310 N   0  0  0  0  0  0  0  0  0  0  0  0
   20.6299  -19.4937  -15.7995 C   0  0  1  0  0  0  0  0  0  0  0  0
   21.6131  -19.3119  -16.9200 C   0  0  0  0  0  0  0  0  0  0  0  0
   22.8978  -18.7115  -16.4978 C   0  0  0  0  0  0  0  0  0  0  0  0
   23.0702  -17.7446  -15.5268 C   0  0  0  0  0  0  0  0  0  0  0  0
   24.3649  -17.4441  -15.4174 N   0  0  0  0  0  0  0  0  0  0  0  0
   25.0225  -18.2053  -16.3050 C   0  0  0  0  0  0  0  0  0  0  0  0
   24.1294  -18.9752  -16.9609 N   0  0  0  0  0  0  0  0  0  0  0  0
   19.2887  -19.8967  -16.3084 C   0  0  0  0  0  0  0  0  0  0  0  0
   18.6459  -21.0637  -15.9511 O   0  0  0  0  0  0  0  0  0  0  0  0
   18.7057  -19.1266  -17.1132 O   0  0  0  0  0  0  0  0  0  0  0  0
  2  1  1  1
  3  2  1  0
  3  4  1  0
  4  9  1  0
  4  5  2  0
  5  6  1  0
  6  7  2  0
  8  7  1  0
  9  8  2  0
 10  2  1  0
 11 10  2  0
 13 15  1  0
 13 12  1  0
 14 13  2  0
 16 15  1  1
 16 17  1  0
 17 10  1  0
 18 16  1  0
 19 18  2  0
 20 18  1  0
 21 28  1  0
 21 20  1  0
 21 22  1  6
 22 23  1  0
 23 27  1  0
 23 24  2  0
 24 25  1  0
 26 25  1  0
 27 26  2  0
 28 29  1  0
 30 28  2  0
M  END
$$$$
