FNH.pdb
     RDKit          3D

 30 31  0  0  1  0  0  0  0  0999 V2000
   28.9513  -21.4394   -8.9723 N   0  0  0  0  0  0  0  0  0  0  0  0
   27.5464  -21.0002   -8.9553 C   0  0  1  0  0  0  0  0  0  0  0  0
   27.5767  -19.6464   -8.2608 C   0  0  0  0  0  0  0  0  0  0  0  0
   28.0243  -19.7204   -6.8577 C   0  0  0  0  0  0  0  0  0  0  0  0
   27.1954  -20.1672   -5.8651 C   0  0  0  0  0  0  0  0  0  0  0  0
   27.6595  -20.2281   -4.5476 C   0  0  0  0  0  0  0  0  0  0  0  0
   28.9541  -19.8301   -4.2903 C   0  0  0  0  0  0  0  0  0  0  0  0
   29.7961  -19.3803   -5.2727 C   0  0  0  0  0  0  0  0  0  0  0  0
   29.3292  -19.3235   -6.5720 C   0  0  0  0  0  0  0  0  0  0  0  0
   27.0311  -20.8599  -10.3389 C   0  0  0  0  0  0  0  0  0  0  0  0
   27.8242  -20.8394  -11.3137 O   0  0  0  0  0  0  0  0  0  0  0  0
   24.3832  -23.8848  -14.0182 N   0  0  0  0  0  0  0  0  0  0  0  0
   25.0076  -22.6247  -13.8239 C   0  0  0  0  0  0  0  0  0  0  0  0
   25.0566  -21.8376  -14.7879 O   0  0  0  0  0  0  0  0  0  0  0  0
   25.5579  -22.3219  -12.5031 C   0  0  0  0  0  0  0  0  0  0  0  0
   25.0216  -21.0801  -11.8578 C   0  0  2  0  0  0  0  0  0  0  0  0
   25.6255  -20.7449  -10.5990 N   0  0  0  0  0  0  0  0  0  0  0  0
   23.5412  -20.9942  -11.8437 C   0  0  0  0  0  0  0  0  0  0  0  0
   22.8769  -20.9327  -10.7759 O   0  0  0  0  0  0  0  0  0  0  0  0
   22.7441  -20.9768  -13.0473 N   0  0  0  0  0  0  0  0  0  0  0  0
   21.6226  -20.0740  -13.1894 C   0  0  1  0  0  0  0  0  0  0  0  0
   22.0989  -18.6940  -13.5412 C   0  0  0  0  0  0  0  0  0  0  0  0
   21.0212  -17.6809  -13.5820 C   0  0  0  0  0  0  0  0  0  0  0  0
   19.6740  -17.9098  -13.3820 C   0  0  0  0  0  0  0  0  0  0  0  0
   19.0023  -16.7632  -13.4953 N   0  0  0  0  0  0  0  0  0  0  0  0
   19.9014  -15.8047  -13.7649 C   0  0  0  0  0  0  0  0  0  0  0  0
   21.1281  -16.3641  -13.8172 N   0  0  0  0  0  0  0  0  0  0  0  0
   20.6371  -20.5830  -14.1844 C   0  0  0  0  0  0  0  0  0  0  0  0
   19.2727  -20.5973  -13.9821 O   0  0  0  0  0  0  0  0  0  0  0  0
   21.0746  -21.0270  -15.2763 O   0  0  0  0  0  0  0  0  0  0  0  0
  2  1  1  6
  3  2  1  0
  3  4  1  0
  4  9  1  0
  4  5  2  0
  5  6  1  0
  6  7  2  0
  8  7  1  0
  9  8  2  0
 10  2  1  0
 11 10  2  0
 13 15  1  0
 13 12  1  0
 14 13  2  0
 16 15  1  1
 16 17  1  0
 17 10  1  0
 18 16  1  0
 19 18  2  0
 20 18  1  0
 21 28  1  0
 21 20  1  0
 21 22  1  6
 22 23  1  0
 23 27  1  0
 23 24  2  0
 24 25  1  0
 26 25  1  0
 27 26  2  0
 28 29  1  0
 30 28  2  0
M  END
$$$$
