FNH.pdb
     RDKit          3D

 30 31  0  0  1  0  0  0  0  0999 V2000
   40.6642   -7.8184   -5.6339 N   0  0  0  0  0  0  0  0  0  0  0  0
   39.7740   -8.4786   -6.6026 C   0  0  1  0  0  0  0  0  0  0  0  0
   38.6489   -7.4797   -6.8316 C   0  0  0  0  0  0  0  0  0  0  0  0
   37.6839   -7.4225   -5.7181 C   0  0  0  0  0  0  0  0  0  0  0  0
   37.0123   -8.5371   -5.2957 C   0  0  0  0  0  0  0  0  0  0  0  0
   36.1095   -8.4427   -4.2322 C   0  0  0  0  0  0  0  0  0  0  0  0
   35.9243   -7.2127   -3.6377 C   0  0  0  0  0  0  0  0  0  0  0  0
   36.5887   -6.0876   -4.0490 C   0  0  0  0  0  0  0  0  0  0  0  0
   37.4791   -6.1901   -5.1007 C   0  0  0  0  0  0  0  0  0  0  0  0
   40.4952   -8.7444   -7.8709 C   0  0  0  0  0  0  0  0  0  0  0  0
   41.4943   -8.0525   -8.1913 O   0  0  0  0  0  0  0  0  0  0  0  0
   40.4047  -12.3691  -12.9199 N   0  0  0  0  0  0  0  0  0  0  0  0
   41.0121  -11.4501  -12.0245 C   0  0  0  0  0  0  0  0  0  0  0  0
   42.0177  -10.8267  -12.4137 O   0  0  0  0  0  0  0  0  0  0  0  0
   40.4230  -11.2872  -10.6957 C   0  0  0  0  0  0  0  0  0  0  0  0
   40.5306   -9.9099  -10.1146 C   0  0  2  0  0  0  0  0  0  0  0  0
   40.0751   -9.7898   -8.7582 N   0  0  0  0  0  0  0  0  0  0  0  0
   40.0275   -8.8349  -11.0037 C   0  0  0  0  0  0  0  0  0  0  0  0
   39.7733   -9.0275  -12.2217 O   0  0  0  0  0  0  0  0  0  0  0  0
   39.7917   -7.4853  -10.5483 N   0  0  0  0  0  0  0  0  0  0  0  0
   39.2265   -6.4863  -11.4288 C   0  0  1  0  0  0  0  0  0  0  0  0
   37.8013   -6.8228  -11.7610 C   0  0  0  0  0  0  0  0  0  0  0  0
   37.6474   -7.6263  -12.9940 C   0  0  0  0  0  0  0  0  0  0  0  0
   38.6609   -8.0256  -13.8431 C   0  0  0  0  0  0  0  0  0  0  0  0
   38.1492   -8.7337  -14.8507 N   0  0  0  0  0  0  0  0  0  0  0  0
   36.8230   -8.7926  -14.6576 C   0  0  0  0  0  0  0  0  0  0  0  0
   36.5195   -8.1189  -13.5285 N   0  0  0  0  0  0  0  0  0  0  0  0
   39.3447   -5.1193  -10.8477 C   0  0  0  0  0  0  0  0  0  0  0  0
   38.4547   -4.5874   -9.9379 O   0  0  0  0  0  0  0  0  0  0  0  0
   40.3150   -4.4054  -11.2077 O   0  0  0  0  0  0  0  0  0  0  0  0
  2  1  1  1
  3  2  1  0
  3  4  1  0
  4  9  1  0
  4  5  2  0
  5  6  1  0
  6  7  2  0
  8  7  1  0
  9  8  2  0
 10  2  1  0
 11 10  2  0
 13 15  1  0
 13 12  1  0
 14 13  2  0
 16 15  1  6
 16 17  1  0
 17 10  1  0
 18 16  1  0
 19 18  2  0
 20 18  1  0
 21 28  1  0
 21 20  1  0
 21 22  1  1
 22 23  1  0
 23 27  1  0
 23 24  2  0
 24 25  1  0
 26 25  1  0
 27 26  2  0
 28 29  1  0
 30 28  2  0
M  END
$$$$
