FNH.pdb
     RDKit          3D

 30 31  0  0  1  0  0  0  0  0999 V2000
   12.8762  -10.6638  -10.3437 N   0  0  0  0  0  0  0  0  0  0  0  0
   14.2293  -10.2117   -9.9809 C   0  0  1  0  0  0  0  0  0  0  0  0
   15.1243  -10.7575  -11.0842 C   0  0  0  0  0  0  0  0  0  0  0  0
   15.1958  -12.2303  -11.1022 C   0  0  0  0  0  0  0  0  0  0  0  0
   16.0590  -12.9144  -10.2905 C   0  0  0  0  0  0  0  0  0  0  0  0
   16.0925  -14.3115  -10.3331 C   0  0  0  0  0  0  0  0  0  0  0  0
   15.2431  -14.9608  -11.2035 C   0  0  0  0  0  0  0  0  0  0  0  0
   14.3736  -14.2904  -12.0225 C   0  0  0  0  0  0  0  0  0  0  0  0
   14.3470  -12.9097  -11.9739 C   0  0  0  0  0  0  0  0  0  0  0  0
   14.2896   -8.7301   -9.9521 C   0  0  0  0  0  0  0  0  0  0  0  0
   13.5933   -8.0497  -10.7470 O   0  0  0  0  0  0  0  0  0  0  0  0
   14.0013   -3.5486   -7.9438 N   0  0  0  0  0  0  0  0  0  0  0  0
   15.0965   -4.4460   -7.8413 C   0  0  0  0  0  0  0  0  0  0  0  0
   16.2420   -3.9672   -7.7413 O   0  0  0  0  0  0  0  0  0  0  0  0
   14.8182   -5.8817   -7.8589 C   0  0  0  0  0  0  0  0  0  0  0  0
   15.3515   -6.6205   -9.0488 C   0  0  2  0  0  0  0  0  0  0  0  0
   15.1374   -8.0401   -9.0237 N   0  0  0  0  0  0  0  0  0  0  0  0
   16.7324   -6.2385   -9.4316 C   0  0  0  0  0  0  0  0  0  0  0  0
   17.7479   -6.6856   -8.8365 O   0  0  0  0  0  0  0  0  0  0  0  0
   17.0239   -5.3250  -10.5109 N   0  0  0  0  0  0  0  0  0  0  0  0
   18.3110   -5.3332  -11.1714 C   0  0  1  0  0  0  0  0  0  0  0  0
   18.6556   -6.7191  -11.6360 C   0  0  0  0  0  0  0  0  0  0  0  0
   19.8995   -6.7911  -12.4340 C   0  0  0  0  0  0  0  0  0  0  0  0
   21.0713   -6.1027  -12.1883 C   0  0  0  0  0  0  0  0  0  0  0  0
   21.9781   -6.4150  -13.1149 N   0  0  0  0  0  0  0  0  0  0  0  0
   21.4024   -7.2934  -13.9495 C   0  0  0  0  0  0  0  0  0  0  0  0
   20.1389   -7.5211  -13.5343 N   0  0  0  0  0  0  0  0  0  0  0  0
   18.3529   -4.3538  -12.2935 C   0  0  0  0  0  0  0  0  0  0  0  0
   19.4938   -3.6934  -12.6999 O   0  0  0  0  0  0  0  0  0  0  0  0
   17.2833   -4.1132  -12.9090 O   0  0  0  0  0  0  0  0  0  0  0  0
  2  1  1  6
  3  2  1  0
  3  4  1  0
  4  9  1  0
  4  5  2  0
  5  6  1  0
  6  7  2  0
  8  7  1  0
  9  8  2  0
 10  2  1  0
 11 10  2  0
 13 15  1  0
 13 12  1  0
 14 13  2  0
 16 15  1  1
 16 17  1  0
 17 10  1  0
 18 16  1  0
 19 18  2  0
 20 18  1  0
 21 28  1  0
 21 20  1  0
 21 22  1  6
 22 23  1  0
 23 27  1  0
 23 24  2  0
 24 25  1  0
 26 25  1  0
 27 26  2  0
 28 29  1  0
 30 28  2  0
M  END
$$$$
