FNH.pdb
     RDKit          3D

 30 31  0  0  1  0  0  0  0  0999 V2000
   25.5215  -11.8068  -17.8275 N   0  0  0  0  0  0  0  0  0  0  0  0
   25.1975  -11.5496  -16.4149 C   0  0  1  0  0  0  0  0  0  0  0  0
   26.3852  -10.7575  -15.8876 C   0  0  0  0  0  0  0  0  0  0  0  0
   27.6810  -11.4180  -16.1302 C   0  0  0  0  0  0  0  0  0  0  0  0
   28.6978  -10.7790  -16.7859 C   0  0  0  0  0  0  0  0  0  0  0  0
   29.9139  -11.4377  -16.9911 C   0  0  0  0  0  0  0  0  0  0  0  0
   30.0485  -12.7262  -16.5194 C   0  0  0  0  0  0  0  0  0  0  0  0
   29.0403  -13.3794  -15.8615 C   0  0  0  0  0  0  0  0  0  0  0  0
   27.8418  -12.7210  -15.6629 C   0  0  0  0  0  0  0  0  0  0  0  0
   23.9534  -10.7495  -16.3064 C   0  0  0  0  0  0  0  0  0  0  0  0
   23.6811   -9.8774  -17.1694 O   0  0  0  0  0  0  0  0  0  0  0  0
   20.7205  -12.5844  -16.1040 N   0  0  0  0  0  0  0  0  0  0  0  0
   20.2502  -12.1825  -14.8263 C   0  0  0  0  0  0  0  0  0  0  0  0
   19.4306  -12.9170  -14.2433 O   0  0  0  0  0  0  0  0  0  0  0  0
   20.7546  -10.9288  -14.2667 C   0  0  0  0  0  0  0  0  0  0  0  0
   21.7962  -10.2354  -15.0916 C   0  0  2  0  0  0  0  0  0  0  0  0
   23.0356  -10.9484  -15.2226 N   0  0  0  0  0  0  0  0  0  0  0  0
   21.9728   -8.7997  -14.7646 C   0  0  0  0  0  0  0  0  0  0  0  0
   22.7548   -8.4025  -13.8613 O   0  0  0  0  0  0  0  0  0  0  0  0
   21.2639   -7.7452  -15.4501 N   0  0  0  0  0  0  0  0  0  0  0  0
   21.5030   -6.3540  -15.1334 C   0  0  1  0  0  0  0  0  0  0  0  0
   21.9529   -5.6057  -16.3552 C   0  0  0  0  0  0  0  0  0  0  0  0
   22.2357   -4.1741  -16.1102 C   0  0  0  0  0  0  0  0  0  0  0  0
   22.4020   -3.5711  -14.8789 C   0  0  0  0  0  0  0  0  0  0  0  0
   22.6414   -2.2697  -15.0451 N   0  0  0  0  0  0  0  0  0  0  0  0
   22.6304   -2.0325  -16.3654 C   0  0  0  0  0  0  0  0  0  0  0  0
   22.3837   -3.1910  -17.0116 N   0  0  0  0  0  0  0  0  0  0  0  0
   20.3028   -5.7225  -14.5162 C   0  0  0  0  0  0  0  0  0  0  0  0
   20.3582   -4.7432  -13.5462 O   0  0  0  0  0  0  0  0  0  0  0  0
   19.1689   -6.1047  -14.9020 O   0  0  0  0  0  0  0  0  0  0  0  0
  2  1  1  6
  3  2  1  0
  3  4  1  0
  4  9  1  0
  4  5  2  0
  5  6  1  0
  6  7  2  0
  8  7  1  0
  9  8  2  0
 10  2  1  0
 11 10  2  0
 13 15  1  0
 13 12  1  0
 14 13  2  0
 16 15  1  1
 16 17  1  0
 17 10  1  0
 18 16  1  0
 19 18  2  0
 20 18  1  0
 21 28  1  0
 21 20  1  0
 21 22  1  6
 22 23  1  0
 23 27  1  0
 23 24  2  0
 24 25  1  0
 26 25  1  0
 27 26  2  0
 28 29  1  0
 30 28  2  0
M  END
$$$$
