FNH.pdb
     RDKit          3D

 30 31  0  0  1  0  0  0  0  0999 V2000
   36.1044  -24.3539    4.3585 N   0  0  0  0  0  0  0  0  0  0  0  0
   36.2864  -23.4230    5.4842 C   0  0  1  0  0  0  0  0  0  0  0  0
   34.9195  -23.3550    6.1498 C   0  0  0  0  0  0  0  0  0  0  0  0
   33.9338  -22.5742    5.3797 C   0  0  0  0  0  0  0  0  0  0  0  0
   33.1745  -23.1501    4.3980 C   0  0  0  0  0  0  0  0  0  0  0  0
   32.2463  -22.3768    3.6943 C   0  0  0  0  0  0  0  0  0  0  0  0
   32.1264  -21.0421    4.0181 C   0  0  0  0  0  0  0  0  0  0  0  0
   32.8791  -20.4507    4.9979 C   0  0  0  0  0  0  0  0  0  0  0  0
   33.7940  -21.2225    5.6884 C   0  0  0  0  0  0  0  0  0  0  0  0
   37.2976  -23.9493    6.4329 C   0  0  0  0  0  0  0  0  0  0  0  0
   37.9824  -24.9606    6.1361 O   0  0  0  0  0  0  0  0  0  0  0  0
   40.6827  -23.5549    5.2954 N   0  0  0  0  0  0  0  0  0  0  0  0
   40.4129  -23.9822    6.6220 C   0  0  0  0  0  0  0  0  0  0  0  0
   40.5694  -25.1874    6.8951 O   0  0  0  0  0  0  0  0  0  0  0  0
   39.9666  -22.9837    7.5930 C   0  0  0  0  0  0  0  0  0  0  0  0
   38.7703  -23.3751    8.4066 C   0  0  2  0  0  0  0  0  0  0  0  0
   37.5192  -23.3231    7.7039 N   0  0  0  0  0  0  0  0  0  0  0  0
   38.7190  -22.7497    9.7503 C   0  0  0  0  0  0  0  0  0  0  0  0
   39.0388  -21.5485    9.9504 O   0  0  0  0  0  0  0  0  0  0  0  0
   38.3028  -23.4643   10.9337 N   0  0  0  0  0  0  0  0  0  0  0  0
   37.2444  -22.9583   11.7801 C   0  0  1  0  0  0  0  0  0  0  0  0
   36.0986  -22.4581   10.9483 C   0  0  0  0  0  0  0  0  0  0  0  0
   34.9616  -21.9433   11.7429 C   0  0  0  0  0  0  0  0  0  0  0  0
   34.8924  -21.8681   13.1203 C   0  0  0  0  0  0  0  0  0  0  0  0
   33.7172  -21.3526   13.4832 N   0  0  0  0  0  0  0  0  0  0  0  0
   33.0343  -21.0971   12.3571 C   0  0  0  0  0  0  0  0  0  0  0  0
   33.7920  -21.4567   11.3001 N   0  0  0  0  0  0  0  0  0  0  0  0
   36.7986  -23.9834   12.7654 C   0  0  0  0  0  0  0  0  0  0  0  0
   37.2682  -25.2801   12.7967 O   0  0  0  0  0  0  0  0  0  0  0  0
   35.9417  -23.6473   13.6218 O   0  0  0  0  0  0  0  0  0  0  0  0
  2  1  1  6
  3  2  1  0
  3  4  1  0
  4  9  1  0
  4  5  2  0
  5  6  1  0
  6  7  2  0
  8  7  1  0
  9  8  2  0
 10  2  1  0
 11 10  2  0
 13 15  1  0
 13 12  1  0
 14 13  2  0
 16 15  1  6
 16 17  1  0
 17 10  1  0
 18 16  1  0
 19 18  2  0
 20 18  1  0
 21 28  1  0
 21 20  1  0
 21 22  1  6
 22 23  1  0
 23 27  1  0
 23 24  2  0
 24 25  1  0
 26 25  1  0
 27 26  2  0
 28 29  1  0
 30 28  2  0
M  END
$$$$
