WQL.pdb
     RDKit          3D

 32 33  0  0  1  0  0  0  0  0999 V2000
    6.8996  -17.4855   24.1557 N   0  0  0  0  0  0  0  0  0  0  0  0
    7.9505  -16.4637   24.0733 C   0  0  1  0  0  0  0  0  0  0  0  0
    7.8943  -15.6890   25.3520 C   0  0  0  0  0  0  0  0  0  0  0  0
    6.8250  -14.7096   25.4557 C   0  0  0  0  0  0  0  0  0  0  0  0
    5.5886  -14.9841   26.0411 C   0  0  0  0  0  0  0  0  0  0  0  0
    4.7856  -13.9160   25.9688 N   0  0  0  0  0  0  0  0  0  0  0  0
    5.4796  -12.9396   25.3423 C   0  0  0  0  0  0  0  0  0  0  0  0
    5.1679  -11.6457   25.0085 C   0  0  0  0  0  0  0  0  0  0  0  0
    6.0443  -10.8126   24.3771 C   0  0  0  0  0  0  0  0  0  0  0  0
    7.3000  -11.3010   24.0627 C   0  0  0  0  0  0  0  0  0  0  0  0
    7.6585  -12.5742   24.3701 C   0  0  0  0  0  0  0  0  0  0  0  0
    6.7426  -13.4044   25.0153 C   0  0  0  0  0  0  0  0  0  0  0  0
    9.2362  -17.0385   23.7137 C   0  0  0  0  0  0  0  0  0  0  0  0
    9.4839  -18.2609   23.8239 O   0  0  0  0  0  0  0  0  0  0  0  0
   11.2392  -17.7229   19.5773 N   0  0  0  0  0  0  0  0  0  0  0  0
   12.2324  -16.9463   20.2093 C   0  0  0  0  0  0  0  0  0  0  0  0
   13.4283  -17.3661   20.1325 O   0  0  0  0  0  0  0  0  0  0  0  0
   11.9077  -15.6929   20.9345 C   0  0  0  0  0  0  0  0  0  0  0  0
   12.4770  -15.7890   22.3193 C   0  0  0  0  0  0  0  0  0  0  0  0
   11.6038  -16.6463   23.1710 C   0  0  2  0  0  0  0  0  0  0  0  0
   10.2509  -16.1965   23.2222 N   0  0  0  0  0  0  0  0  0  0  0  0
   12.1018  -16.8220   24.5631 C   0  0  0  0  0  0  0  0  0  0  0  0
   13.3136  -17.0913   24.7235 O   0  0  0  0  0  0  0  0  0  0  0  0
   12.1149  -14.0931   27.8026 C   0  0  0  0  0  0  0  0  0  0  0  0
   10.8583  -14.9095   28.0212 C   0  0  2  0  0  0  0  0  0  0  0  0
    9.9001  -14.3270   28.9899 C   0  0  0  0  0  0  0  0  0  0  0  0
   11.0354  -16.3623   28.0700 C   0  0  0  0  0  0  0  0  0  0  0  0
   11.8269  -17.0209   27.0105 C   0  0  2  0  0  0  0  0  0  0  0  0
   11.2964  -16.7038   25.6955 N   0  0  0  0  0  0  0  0  0  0  0  0
   11.8181  -18.4866   27.1151 C   0  0  0  0  0  0  0  0  0  0  0  0
   11.2770  -19.3737   26.2031 O   0  0  0  0  0  0  0  0  0  0  0  0
   12.3479  -19.0515   28.1396 O   0  0  0  0  0  0  0  0  0  0  0  0
  2  1  1  1
  3  2  1  0
  4  3  1  0
  5  4  2  0
  6  7  1  0
  6  5  1  0
  7 12  2  0
  8  7  1  0
  8  9  2  0
  9 10  1  0
 10 11  2  0
 12  4  1  0
 12 11  1  0
 13  2  1  0
 14 13  2  0
 16 17  2  0
 16 15  1  0
 18 16  1  0
 19 18  1  0
 20 21  1  0
 20 19  1  1
 21 13  1  0
 22 20  1  0
 23 22  2  0
 25 24  1  1
 25 27  1  0
 26 25  1  0
 28 27  1  1
 28 30  1  0
 28 29  1  0
 29 22  1  0
 30 31  1  0
 32 30  2  0
M  END
$$$$
