WQL.pdb
     RDKit          3D

 32 33  0  0  1  0  0  0  0  0999 V2000
    6.3305  -17.4197   25.3895 N   0  0  0  0  0  0  0  0  0  0  0  0
    7.5094  -16.7709   24.8025 C   0  0  1  0  0  0  0  0  0  0  0  0
    7.6535  -15.4477   25.4859 C   0  0  0  0  0  0  0  0  0  0  0  0
    6.9177  -14.3427   24.8936 C   0  0  0  0  0  0  0  0  0  0  0  0
    5.9206  -13.6371   25.5680 C   0  0  0  0  0  0  0  0  0  0  0  0
    5.3891  -12.6989   24.7754 N   0  0  0  0  0  0  0  0  0  0  0  0
    6.0255  -12.7779   23.5853 C   0  0  0  0  0  0  0  0  0  0  0  0
    5.9057  -12.0660   22.4185 C   0  0  0  0  0  0  0  0  0  0  0  0
    6.6770  -12.3100   21.3201 C   0  0  0  0  0  0  0  0  0  0  0  0
    7.6187  -13.3209   21.3938 C   0  0  0  0  0  0  0  0  0  0  0  0
    7.7771  -14.0559   22.5246 C   0  0  0  0  0  0  0  0  0  0  0  0
    6.9748  -13.7854   23.6325 C   0  0  0  0  0  0  0  0  0  0  0  0
    8.6711  -17.6444   24.8186 C   0  0  0  0  0  0  0  0  0  0  0  0
    8.7041  -18.7122   25.4715 O   0  0  0  0  0  0  0  0  0  0  0  0
   13.5064  -17.2049   20.6306 N   0  0  0  0  0  0  0  0  0  0  0  0
   12.1660  -16.8677   20.9110 C   0  0  0  0  0  0  0  0  0  0  0  0
   11.6949  -15.8432   20.3271 O   0  0  0  0  0  0  0  0  0  0  0  0
   11.3328  -17.6659   21.8443 C   0  0  0  0  0  0  0  0  0  0  0  0
   12.0310  -17.7189   23.1712 C   0  0  0  0  0  0  0  0  0  0  0  0
   11.0431  -17.9794   24.2570 C   0  0  2  0  0  0  0  0  0  0  0  0
    9.8105  -17.2845   24.0752 N   0  0  0  0  0  0  0  0  0  0  0  0
   11.5571  -17.6907   25.6242 C   0  0  0  0  0  0  0  0  0  0  0  0
   12.7679  -17.9092   25.8545 O   0  0  0  0  0  0  0  0  0  0  0  0
   11.0738  -13.8848   27.9604 C   0  0  0  0  0  0  0  0  0  0  0  0
    9.9862  -14.8800   28.3069 C   0  0  2  0  0  0  0  0  0  0  0  0
    8.7895  -14.2919   28.9533 C   0  0  0  0  0  0  0  0  0  0  0  0
   10.4385  -16.1737   28.8230 C   0  0  0  0  0  0  0  0  0  0  0  0
   11.3299  -17.0036   27.9867 C   0  0  2  0  0  0  0  0  0  0  0  0
   10.7678  -17.1918   26.6601 N   0  0  0  0  0  0  0  0  0  0  0  0
   11.5445  -18.3489   28.5372 C   0  0  0  0  0  0  0  0  0  0  0  0
   12.2992  -18.6725   29.6495 O   0  0  0  0  0  0  0  0  0  0  0  0
   11.0041  -19.3622   27.9620 O   0  0  0  0  0  0  0  0  0  0  0  0
  2  1  1  1
  3  2  1  0
  4  3  1  0
  5  4  2  0
  6  7  1  0
  6  5  1  0
  7 12  2  0
  8  7  1  0
  8  9  2  0
  9 10  1  0
 10 11  2  0
 12  4  1  0
 12 11  1  0
 13  2  1  0
 14 13  2  0
 16 17  2  0
 16 15  1  0
 18 16  1  0
 19 18  1  0
 20 21  1  0
 20 19  1  6
 21 13  1  0
 22 20  1  0
 23 22  2  0
 25 24  1  1
 25 27  1  0
 26 25  1  0
 28 27  1  1
 28 30  1  0
 28 29  1  0
 29 22  1  0
 30 31  1  0
 32 30  2  0
M  END
$$$$
