WQL.pdb
     RDKit          3D

 32 33  0  0  1  0  0  0  0  0999 V2000
    6.0781  -18.1843   24.3680 N   0  0  0  0  0  0  0  0  0  0  0  0
    7.2752  -17.3718   24.1192 C   0  0  1  0  0  0  0  0  0  0  0  0
    7.3852  -16.4119   25.2615 C   0  0  0  0  0  0  0  0  0  0  0  0
    6.8377  -15.0848   25.0318 C   0  0  0  0  0  0  0  0  0  0  0  0
    5.7546  -14.5689   25.7441 C   0  0  0  0  0  0  0  0  0  0  0  0
    5.4411  -13.3448   25.3036 N   0  0  0  0  0  0  0  0  0  0  0  0
    6.3065  -13.0475   24.3085 C   0  0  0  0  0  0  0  0  0  0  0  0
    6.4630  -11.9406   23.5129 C   0  0  0  0  0  0  0  0  0  0  0  0
    7.4339  -11.8458   22.5595 C   0  0  0  0  0  0  0  0  0  0  0  0
    8.2943  -12.9164   22.3934 C   0  0  0  0  0  0  0  0  0  0  0  0
    8.1820  -14.0357   23.1542 C   0  0  0  0  0  0  0  0  0  0  0  0
    7.1799  -14.1060   24.1213 C   0  0  0  0  0  0  0  0  0  0  0  0
    8.4404  -18.1962   23.8443 C   0  0  0  0  0  0  0  0  0  0  0  0
    8.5794  -19.3477   24.3160 O   0  0  0  0  0  0  0  0  0  0  0  0
   12.6425  -16.2730   19.8336 N   0  0  0  0  0  0  0  0  0  0  0  0
   11.4202  -16.9668   19.9506 C   0  0  0  0  0  0  0  0  0  0  0  0
   10.4991  -16.6538   19.1343 O   0  0  0  0  0  0  0  0  0  0  0  0
   11.2071  -18.0173   20.9769 C   0  0  0  0  0  0  0  0  0  0  0  0
   11.7755  -17.5284   22.2764 C   0  0  0  0  0  0  0  0  0  0  0  0
   10.8301  -17.8257   23.3903 C   0  0  2  0  0  0  0  0  0  0  0  0
    9.4599  -17.6894   23.0172 N   0  0  0  0  0  0  0  0  0  0  0  0
   11.0726  -17.0219   24.6199 C   0  0  0  0  0  0  0  0  0  0  0  0
   11.3714  -15.8143   24.4824 O   0  0  0  0  0  0  0  0  0  0  0  0
    9.6968  -13.4641   28.3489 C   0  0  0  0  0  0  0  0  0  0  0  0
   10.7348  -14.5593   28.2211 C   0  0  2  0  0  0  0  0  0  0  0  0
   12.1196  -14.1432   28.5455 C   0  0  0  0  0  0  0  0  0  0  0  0
   10.5748  -15.4680   27.0840 C   0  0  0  0  0  0  0  0  0  0  0  0
   11.3576  -16.7206   27.0557 C   0  0  2  0  0  0  0  0  0  0  0  0
   10.9859  -17.5374   25.9129 N   0  0  0  0  0  0  0  0  0  0  0  0
   11.1454  -17.5566   28.2453 C   0  0  0  0  0  0  0  0  0  0  0  0
   10.0702  -18.3928   28.4827 O   0  0  0  0  0  0  0  0  0  0  0  0
   12.0127  -17.5421   29.1925 O   0  0  0  0  0  0  0  0  0  0  0  0
  2  1  1  1
  3  2  1  0
  4  3  1  0
  5  4  2  0
  6  7  1  0
  6  5  1  0
  7 12  2  0
  8  7  1  0
  8  9  2  0
  9 10  1  0
 10 11  2  0
 12  4  1  0
 12 11  1  0
 13  2  1  0
 14 13  2  0
 16 17  2  0
 16 15  1  0
 18 16  1  0
 19 18  1  0
 20 21  1  0
 20 19  1  6
 21 13  1  0
 22 20  1  0
 23 22  2  0
 25 24  1  6
 25 27  1  0
 26 25  1  0
 28 27  1  1
 28 30  1  0
 28 29  1  0
 29 22  1  0
 30 31  1  0
 32 30  2  0
M  END
$$$$
