WQL.pdb
     RDKit          3D

 32 33  0  0  1  0  0  0  0  0999 V2000
    6.2635  -18.1508   24.1253 N   0  0  0  0  0  0  0  0  0  0  0  0
    7.1940  -17.0166   24.1798 C   0  0  1  0  0  0  0  0  0  0  0  0
    7.2152  -16.5493   25.6010 C   0  0  0  0  0  0  0  0  0  0  0  0
    6.6118  -15.2508   25.8524 C   0  0  0  0  0  0  0  0  0  0  0  0
    5.4333  -15.0814   26.5799 C   0  0  0  0  0  0  0  0  0  0  0  0
    5.0895  -13.7889   26.6257 N   0  0  0  0  0  0  0  0  0  0  0  0
    6.0292  -13.1038   25.9364 C   0  0  0  0  0  0  0  0  0  0  0  0
    6.1947  -11.7686   25.6666 C   0  0  0  0  0  0  0  0  0  0  0  0
    7.2476  -11.2839   24.9476 C   0  0  0  0  0  0  0  0  0  0  0  0
    8.1852  -12.1838   24.4730 C   0  0  0  0  0  0  0  0  0  0  0  0
    8.0679  -13.5155   24.7112 C   0  0  0  0  0  0  0  0  0  0  0  0
    6.9811  -13.9839   25.4488 C   0  0  0  0  0  0  0  0  0  0  0  0
    8.4775  -17.3412   23.5797 C   0  0  0  0  0  0  0  0  0  0  0  0
    8.9244  -18.5098   23.5322 O   0  0  0  0  0  0  0  0  0  0  0  0
   12.1745  -14.7804   19.4371 N   0  0  0  0  0  0  0  0  0  0  0  0
   13.1200  -15.1854   20.4020 C   0  0  0  0  0  0  0  0  0  0  0  0
   14.3457  -15.0308   20.1086 O   0  0  0  0  0  0  0  0  0  0  0  0
   12.7138  -15.7672   21.7054 C   0  0  0  0  0  0  0  0  0  0  0  0
   11.2597  -15.4678   21.9222 C   0  0  0  0  0  0  0  0  0  0  0  0
   10.6598  -16.4858   22.8315 C   0  0  2  0  0  0  0  0  0  0  0  0
    9.2580  -16.3082   23.0283 N   0  0  0  0  0  0  0  0  0  0  0  0
   11.3218  -16.5727   24.1623 C   0  0  0  0  0  0  0  0  0  0  0  0
   12.5710  -16.6439   24.1930 O   0  0  0  0  0  0  0  0  0  0  0  0
   10.1523  -13.7888   27.2924 C   0  0  0  0  0  0  0  0  0  0  0  0
    9.5231  -15.1030   27.7050 C   0  0  2  0  0  0  0  0  0  0  0  0
    8.5193  -14.9973   28.7898 C   0  0  0  0  0  0  0  0  0  0  0  0
   10.4213  -16.2585   27.7559 C   0  0  0  0  0  0  0  0  0  0  0  0
   11.3515  -16.4895   26.6315 C   0  0  2  0  0  0  0  0  0  0  0  0
   10.6302  -16.5795   25.3734 N   0  0  0  0  0  0  0  0  0  0  0  0
   12.1090  -17.7419   26.7619 C   0  0  0  0  0  0  0  0  0  0  0  0
   13.1310  -17.9964   27.6577 O   0  0  0  0  0  0  0  0  0  0  0  0
   11.8388  -18.7292   25.9861 O   0  0  0  0  0  0  0  0  0  0  0  0
  2  1  1  1
  3  2  1  0
  4  3  1  0
  5  4  2  0
  6  7  1  0
  6  5  1  0
  7 12  2  0
  8  7  1  0
  8  9  2  0
  9 10  1  0
 10 11  2  0
 12  4  1  0
 12 11  1  0
 13  2  1  0
 14 13  2  0
 16 17  2  0
 16 15  1  0
 18 16  1  0
 19 18  1  0
 20 21  1  0
 20 19  1  1
 21 13  1  0
 22 20  1  0
 23 22  2  0
 25 24  1  1
 25 27  1  0
 26 25  1  0
 28 27  1  1
 28 30  1  0
 28 29  1  0
 29 22  1  0
 30 31  1  0
 32 30  2  0
M  END
$$$$
