WQL.pdb
     RDKit          3D

 32 33  0  0  1  0  0  0  0  0999 V2000
    6.7768  -19.5142   23.9903 N   0  0  0  0  0  0  0  0  0  0  0  0
    7.3102  -18.1945   23.6311 C   0  0  1  0  0  0  0  0  0  0  0  0
    6.3823  -17.1824   24.2255 C   0  0  0  0  0  0  0  0  0  0  0  0
    6.5625  -15.8122   23.7745 C   0  0  0  0  0  0  0  0  0  0  0  0
    6.7990  -15.4686   22.4430 C   0  0  0  0  0  0  0  0  0  0  0  0
    6.9603  -14.1458   22.3193 N   0  0  0  0  0  0  0  0  0  0  0  0
    6.8321  -13.6132   23.5552 C   0  0  0  0  0  0  0  0  0  0  0  0
    6.8890  -12.3242   24.0221 C   0  0  0  0  0  0  0  0  0  0  0  0
    6.7128  -12.0047   25.3364 C   0  0  0  0  0  0  0  0  0  0  0  0
    6.4667  -13.0304   26.2316 C   0  0  0  0  0  0  0  0  0  0  0  0
    6.4012  -14.3234   25.8216 C   0  0  0  0  0  0  0  0  0  0  0  0
    6.5856  -14.6217   24.4720 C   0  0  0  0  0  0  0  0  0  0  0  0
    8.7178  -18.0695   23.9714 C   0  0  0  0  0  0  0  0  0  0  0  0
    9.2875  -18.8365   24.7806 O   0  0  0  0  0  0  0  0  0  0  0  0
   14.4161  -16.1919   20.8490 N   0  0  0  0  0  0  0  0  0  0  0  0
   13.6253  -16.7815   21.8570 C   0  0  0  0  0  0  0  0  0  0  0  0
   13.4306  -18.0338   21.7785 O   0  0  0  0  0  0  0  0  0  0  0  0
   13.0413  -15.9854   22.9649 C   0  0  0  0  0  0  0  0  0  0  0  0
   11.5551  -15.9243   22.7685 C   0  0  0  0  0  0  0  0  0  0  0  0
   10.8891  -16.9783   23.5860 C   0  0  2  0  0  0  0  0  0  0  0  0
    9.4800  -17.0483   23.3743 N   0  0  0  0  0  0  0  0  0  0  0  0
   11.1474  -16.8629   25.0478 C   0  0  0  0  0  0  0  0  0  0  0  0
   12.3209  -17.0268   25.4513 O   0  0  0  0  0  0  0  0  0  0  0  0
   11.3147  -13.5586   27.9007 C   0  0  0  0  0  0  0  0  0  0  0  0
    9.8695  -14.0029   27.8145 C   0  0  2  0  0  0  0  0  0  0  0  0
    8.8933  -13.0588   28.4076 C   0  0  0  0  0  0  0  0  0  0  0  0
    9.6200  -15.4282   28.0394 C   0  0  0  0  0  0  0  0  0  0  0  0
   10.5046  -16.4185   27.3918 C   0  0  2  0  0  0  0  0  0  0  0  0
   10.1582  -16.5835   25.9903 N   0  0  0  0  0  0  0  0  0  0  0  0
   10.4119  -17.7537   27.9983 C   0  0  0  0  0  0  0  0  0  0  0  0
   11.1427  -18.2214   29.0748 O   0  0  0  0  0  0  0  0  0  0  0  0
    9.5892  -18.6133   27.5147 O   0  0  0  0  0  0  0  0  0  0  0  0
  2  1  1  1
  3  2  1  0
  4  3  1  0
  5  4  2  0
  6  7  1  0
  6  5  1  0
  7 12  2  0
  8  7  1  0
  8  9  2  0
  9 10  1  0
 10 11  2  0
 12  4  1  0
 12 11  1  0
 13  2  1  0
 14 13  2  0
 16 17  2  0
 16 15  1  0
 18 16  1  0
 19 18  1  0
 20 21  1  0
 20 19  1  6
 21 13  1  0
 22 20  1  0
 23 22  2  0
 25 24  1  1
 25 27  1  0
 26 25  1  0
 28 27  1  1
 28 30  1  0
 28 29  1  0
 29 22  1  0
 30 31  1  0
 32 30  2  0
M  END
$$$$
