WQL.pdb
     RDKit          3D

 32 33  0  0  1  0  0  0  0  0999 V2000
    6.0253  -17.7508   24.9167 N   0  0  0  0  0  0  0  0  0  0  0  0
    7.1152  -16.8412   24.5423 C   0  0  1  0  0  0  0  0  0  0  0  0
    6.9749  -15.6279   25.4064 C   0  0  0  0  0  0  0  0  0  0  0  0
    6.6588  -14.3883   24.7157 C   0  0  0  0  0  0  0  0  0  0  0  0
    5.6947  -13.4852   25.1648 C   0  0  0  0  0  0  0  0  0  0  0  0
    5.5870  -12.4525   24.3206 N   0  0  0  0  0  0  0  0  0  0  0  0
    6.4704  -12.6645   23.3196 C   0  0  0  0  0  0  0  0  0  0  0  0
    6.7985  -11.9409   22.2009 C   0  0  0  0  0  0  0  0  0  0  0  0
    7.7519  -12.3435   21.3123 C   0  0  0  0  0  0  0  0  0  0  0  0
    8.4124  -13.5343   21.5565 C   0  0  0  0  0  0  0  0  0  0  0  0
    8.1251  -14.2888   22.6485 C   0  0  0  0  0  0  0  0  0  0  0  0
    7.1454  -13.8537   23.5403 C   0  0  0  0  0  0  0  0  0  0  0  0
    8.4062  -17.5089   24.5584 C   0  0  0  0  0  0  0  0  0  0  0  0
    8.6440  -18.5014   25.2837 O   0  0  0  0  0  0  0  0  0  0  0  0
   12.9104  -17.6085   20.3298 N   0  0  0  0  0  0  0  0  0  0  0  0
   13.5215  -18.1412   21.4838 C   0  0  0  0  0  0  0  0  0  0  0  0
   14.5963  -18.7965   21.3169 O   0  0  0  0  0  0  0  0  0  0  0  0
   12.9448  -17.9516   22.8380 C   0  0  0  0  0  0  0  0  0  0  0  0
   11.6336  -17.2364   22.6957 C   0  0  0  0  0  0  0  0  0  0  0  0
   10.7713  -17.5122   23.8802 C   0  0  2  0  0  0  0  0  0  0  0  0
    9.4376  -17.0283   23.7305 N   0  0  0  0  0  0  0  0  0  0  0  0
   11.3246  -16.9985   25.1636 C   0  0  0  0  0  0  0  0  0  0  0  0
   12.1188  -16.0323   25.1155 O   0  0  0  0  0  0  0  0  0  0  0  0
   11.8000  -13.9877   27.2744 C   0  0  0  0  0  0  0  0  0  0  0  0
   10.5345  -14.7058   27.6938 C   0  0  2  0  0  0  0  0  0  0  0  0
    9.5065  -13.8395   28.3173 C   0  0  0  0  0  0  0  0  0  0  0  0
   10.7136  -16.0347   28.2823 C   0  0  0  0  0  0  0  0  0  0  0  0
   11.6191  -16.9939   27.6168 C   0  0  2  0  0  0  0  0  0  0  0  0
   11.0087  -17.5318   26.4129 N   0  0  0  0  0  0  0  0  0  0  0  0
   11.9514  -18.1496   28.4611 C   0  0  0  0  0  0  0  0  0  0  0  0
   12.8366  -18.1659   29.5231 O   0  0  0  0  0  0  0  0  0  0  0  0
   11.3963  -19.2843   28.2287 O   0  0  0  0  0  0  0  0  0  0  0  0
  2  1  1  1
  3  2  1  0
  4  3  1  0
  5  4  2  0
  6  7  1  0
  6  5  1  0
  7 12  2  0
  8  7  1  0
  8  9  2  0
  9 10  1  0
 10 11  2  0
 12  4  1  0
 12 11  1  0
 13  2  1  0
 14 13  2  0
 16 17  2  0
 16 15  1  0
 18 16  1  0
 19 18  1  0
 20 21  1  0
 20 19  1  6
 21 13  1  0
 22 20  1  0
 23 22  2  0
 25 24  1  1
 25 27  1  0
 26 25  1  0
 28 27  1  1
 28 30  1  0
 28 29  1  0
 29 22  1  0
 30 31  1  0
 32 30  2  0
M  END
$$$$
