WQL.pdb
     RDKit          3D

 32 33  0  0  1  0  0  0  0  0999 V2000
    9.0817  -17.8524   20.3905 N   0  0  0  0  0  0  0  0  0  0  0  0
    9.1064  -16.9302   21.5326 C   0  0  1  0  0  0  0  0  0  0  0  0
    7.7478  -16.3083   21.6090 C   0  0  0  0  0  0  0  0  0  0  0  0
    7.4776  -15.2506   20.6489 C   0  0  0  0  0  0  0  0  0  0  0  0
    6.8461  -15.4704   19.4243 C   0  0  0  0  0  0  0  0  0  0  0  0
    6.7585  -14.3308   18.7282 N   0  0  0  0  0  0  0  0  0  0  0  0
    7.3253  -13.3615   19.4810 C   0  0  0  0  0  0  0  0  0  0  0  0
    7.5054  -12.0159   19.2816 C   0  0  0  0  0  0  0  0  0  0  0  0
    8.1031  -11.2049   20.2012 C   0  0  0  0  0  0  0  0  0  0  0  0
    8.5443  -11.7712   21.3839 C   0  0  0  0  0  0  0  0  0  0  0  0
    8.3912  -13.0977   21.6306 C   0  0  0  0  0  0  0  0  0  0  0  0
    7.7771  -13.9038   20.6727 C   0  0  0  0  0  0  0  0  0  0  0  0
    9.5978  -17.5762   22.7384 C   0  0  0  0  0  0  0  0  0  0  0  0
    8.8731  -18.2968   23.4616 O   0  0  0  0  0  0  0  0  0  0  0  0
   13.9871  -20.8394   24.1436 N   0  0  0  0  0  0  0  0  0  0  0  0
   13.9327  -20.2186   25.4087 C   0  0  0  0  0  0  0  0  0  0  0  0
   14.4629  -20.8415   26.3800 O   0  0  0  0  0  0  0  0  0  0  0  0
   13.2879  -18.8971   25.6094 C   0  0  0  0  0  0  0  0  0  0  0  0
   12.8426  -18.3825   24.2723 C   0  0  0  0  0  0  0  0  0  0  0  0
   11.4255  -17.9254   24.3482 C   0  0  2  0  0  0  0  0  0  0  0  0
   10.9400  -17.3900   23.1182 N   0  0  0  0  0  0  0  0  0  0  0  0
   11.1654  -16.9400   25.4338 C   0  0  0  0  0  0  0  0  0  0  0  0
   11.8998  -15.9284   25.4967 O   0  0  0  0  0  0  0  0  0  0  0  0
    7.8193  -12.9397   27.1360 C   0  0  0  0  0  0  0  0  0  0  0  0
    9.0238  -13.7974   27.4628 C   0  0  2  0  0  0  0  0  0  0  0  0
   10.3271  -13.2145   27.0660 C   0  0  0  0  0  0  0  0  0  0  0  0
    8.8625  -15.2383   27.2574 C   0  0  0  0  0  0  0  0  0  0  0  0
   10.0260  -16.1241   27.4687 C   0  0  2  0  0  0  0  0  0  0  0  0
   10.1524  -17.0803   26.3820 N   0  0  0  0  0  0  0  0  0  0  0  0
    9.9280  -16.9149   28.7033 C   0  0  0  0  0  0  0  0  0  0  0  0
   10.4435  -16.5764   29.9408 O   0  0  0  0  0  0  0  0  0  0  0  0
    9.3177  -18.0448   28.6848 O   0  0  0  0  0  0  0  0  0  0  0  0
  2  1  1  6
  3  2  1  0
  4  3  1  0
  5  4  2  0
  6  7  1  0
  6  5  1  0
  7 12  2  0
  8  7  1  0
  8  9  2  0
  9 10  1  0
 10 11  2  0
 12  4  1  0
 12 11  1  0
 13  2  1  0
 14 13  2  0
 16 17  2  0
 16 15  1  0
 18 16  1  0
 19 18  1  0
 20 21  1  0
 20 19  1  6
 21 13  1  0
 22 20  1  0
 23 22  2  0
 25 24  1  6
 25 27  1  0
 26 25  1  0
 28 27  1  6
 28 30  1  0
 28 29  1  0
 29 22  1  0
 30 31  1  0
 32 30  2  0
M  END
$$$$
