WQL.pdb
     RDKit          3D

 32 33  0  0  1  0  0  0  0  0999 V2000
   10.1400  -16.1930   20.8156 N   0  0  0  0  0  0  0  0  0  0  0  0
    9.3168  -16.0593   22.0239 C   0  0  1  0  0  0  0  0  0  0  0  0
    7.8979  -16.2725   21.5999 C   0  0  0  0  0  0  0  0  0  0  0  0
    7.4252  -15.4295   20.5139 C   0  0  0  0  0  0  0  0  0  0  0  0
    6.4806  -15.8467   19.5755 C   0  0  0  0  0  0  0  0  0  0  0  0
    6.2578  -14.8850   18.6719 N   0  0  0  0  0  0  0  0  0  0  0  0
    7.0450  -13.8377   19.0047 C   0  0  0  0  0  0  0  0  0  0  0  0
    7.2212  -12.5947   18.4509 C   0  0  0  0  0  0  0  0  0  0  0  0
    8.0763  -11.6675   18.9703 C   0  0  0  0  0  0  0  0  0  0  0  0
    8.7937  -12.0025   20.1049 C   0  0  0  0  0  0  0  0  0  0  0  0
    8.6570  -13.2195   20.6917 C   0  0  0  0  0  0  0  0  0  0  0  0
    7.7760  -14.1485   20.1394 C   0  0  0  0  0  0  0  0  0  0  0  0
    9.8074  -16.8949   23.1073 C   0  0  0  0  0  0  0  0  0  0  0  0
    9.0885  -17.2399   24.0726 O   0  0  0  0  0  0  0  0  0  0  0  0
   15.1975  -20.2475   22.9451 N   0  0  0  0  0  0  0  0  0  0  0  0
   14.1135  -19.9987   22.0779 C   0  0  0  0  0  0  0  0  0  0  0  0
   14.3342  -20.1102   20.8323 O   0  0  0  0  0  0  0  0  0  0  0  0
   12.7705  -19.6231   22.5852 C   0  0  0  0  0  0  0  0  0  0  0  0
   12.9494  -18.7949   23.8234 C   0  0  0  0  0  0  0  0  0  0  0  0
   11.6732  -18.1028   24.1626 C   0  0  2  0  0  0  0  0  0  0  0  0
   11.1426  -17.3385   23.0811 N   0  0  0  0  0  0  0  0  0  0  0  0
   11.7597  -17.2309   25.3664 C   0  0  0  0  0  0  0  0  0  0  0  0
   12.0951  -16.0361   25.2031 O   0  0  0  0  0  0  0  0  0  0  0  0
    8.3288  -13.9868   27.5264 C   0  0  0  0  0  0  0  0  0  0  0  0
    9.5180  -14.7621   28.0537 C   0  0  2  0  0  0  0  0  0  0  0  0
   10.4980  -13.9532   28.8160 C   0  0  0  0  0  0  0  0  0  0  0  0
   10.0680  -15.7833   27.1598 C   0  0  0  0  0  0  0  0  0  0  0  0
   11.0780  -16.7240   27.6867 C   0  0  2  0  0  0  0  0  0  0  0  0
   11.4889  -17.6693   26.6624 N   0  0  0  0  0  0  0  0  0  0  0  0
   10.5816  -17.5273   28.8124 C   0  0  0  0  0  0  0  0  0  0  0  0
    9.6348  -18.5331   28.7517 O   0  0  0  0  0  0  0  0  0  0  0  0
   11.0355  -17.3102   29.9941 O   0  0  0  0  0  0  0  0  0  0  0  0
  2  1  1  6
  3  2  1  0
  4  3  1  0
  5  4  2  0
  6  7  1  0
  6  5  1  0
  7 12  2  0
  8  7  1  0
  8  9  2  0
  9 10  1  0
 10 11  2  0
 12  4  1  0
 12 11  1  0
 13  2  1  0
 14 13  2  0
 16 17  2  0
 16 15  1  0
 18 16  1  0
 19 18  1  0
 20 21  1  0
 20 19  1  6
 21 13  1  0
 22 20  1  0
 23 22  2  0
 25 24  1  6
 25 27  1  0
 26 25  1  0
 28 27  1  6
 28 30  1  0
 28 29  1  0
 29 22  1  0
 30 31  1  0
 32 30  2  0
M  END
$$$$
