WQL.pdb
     RDKit          3D

 32 33  0  0  1  0  0  0  0  0999 V2000
    6.1966  -17.9219   23.8316 N   0  0  0  0  0  0  0  0  0  0  0  0
    7.2372  -16.8920   23.9407 C   0  0  1  0  0  0  0  0  0  0  0  0
    7.2205  -16.4163   25.3591 C   0  0  0  0  0  0  0  0  0  0  0  0
    6.4628  -15.2021   25.6138 C   0  0  0  0  0  0  0  0  0  0  0  0
    5.2960  -15.1730   26.3782 C   0  0  0  0  0  0  0  0  0  0  0  0
    4.7899  -13.9348   26.4186 N   0  0  0  0  0  0  0  0  0  0  0  0
    5.6110  -13.1466   25.6892 C   0  0  0  0  0  0  0  0  0  0  0  0
    5.5941  -11.8062   25.3965 C   0  0  0  0  0  0  0  0  0  0  0  0
    6.5524  -11.2026   24.6362 C   0  0  0  0  0  0  0  0  0  0  0  0
    7.5827  -11.9826   24.1421 C   0  0  0  0  0  0  0  0  0  0  0  0
    7.6458  -13.3141   24.4016 C   0  0  0  0  0  0  0  0  0  0  0  0
    6.6525  -13.9054   25.1814 C   0  0  0  0  0  0  0  0  0  0  0  0
    8.5134  -17.3562   23.4224 C   0  0  0  0  0  0  0  0  0  0  0  0
    8.9594  -18.5030   23.6539 O   0  0  0  0  0  0  0  0  0  0  0  0
   12.7706  -14.1022   19.8636 N   0  0  0  0  0  0  0  0  0  0  0  0
   13.4791  -14.7876   20.8721 C   0  0  0  0  0  0  0  0  0  0  0  0
   14.6883  -14.4481   21.0597 O   0  0  0  0  0  0  0  0  0  0  0  0
   12.8515  -15.8591   21.6848 C   0  0  0  0  0  0  0  0  0  0  0  0
   11.3828  -15.5717   21.7896 C   0  0  0  0  0  0  0  0  0  0  0  0
   10.6953  -16.6848   22.5046 C   0  0  2  0  0  0  0  0  0  0  0  0
    9.2875  -16.4898   22.6285 N   0  0  0  0  0  0  0  0  0  0  0  0
   11.2575  -16.9763   23.8521 C   0  0  0  0  0  0  0  0  0  0  0  0
   10.8128  -17.9689   24.4716 O   0  0  0  0  0  0  0  0  0  0  0  0
   11.4213  -13.9458   28.2847 C   0  0  0  0  0  0  0  0  0  0  0  0
   10.5542  -14.9859   27.6068 C   0  0  2  0  0  0  0  0  0  0  0  0
   10.2006  -16.1481   28.4553 C   0  0  0  0  0  0  0  0  0  0  0  0
   10.8687  -15.2714   26.2053 C   0  0  0  0  0  0  0  0  0  0  0  0
   12.1681  -15.8936   25.8778 C   0  0  2  0  0  0  0  0  0  0  0  0
   12.2490  -16.2078   24.4615 N   0  0  0  0  0  0  0  0  0  0  0  0
   12.3957  -17.1568   26.5931 C   0  0  0  0  0  0  0  0  0  0  0  0
   11.6737  -18.3269   26.4475 O   0  0  0  0  0  0  0  0  0  0  0  0
   13.3443  -17.2342   27.4555 O   0  0  0  0  0  0  0  0  0  0  0  0
  2  1  1  1
  3  2  1  0
  4  3  1  0
  5  4  2  0
  6  7  1  0
  6  5  1  0
  7 12  2  0
  8  7  1  0
  8  9  2  0
  9 10  1  0
 10 11  2  0
 12  4  1  0
 12 11  1  0
 13  2  1  0
 14 13  2  0
 16 17  2  0
 16 15  1  0
 18 16  1  0
 19 18  1  0
 20 21  1  0
 20 19  1  1
 21 13  1  0
 22 20  1  0
 23 22  2  0
 25 24  1  1
 25 27  1  0
 26 25  1  0
 28 27  1  6
 28 30  1  0
 28 29  1  0
 29 22  1  0
 30 31  1  0
 32 30  2  0
M  END
$$$$
