WQL.pdb
     RDKit          3D

 32 33  0  0  1  0  0  0  0  0999 V2000
    8.2248  -18.5233   19.8138 N   0  0  0  0  0  0  0  0  0  0  0  0
    8.5803  -17.4330   20.7305 C   0  0  1  0  0  0  0  0  0  0  0  0
    7.3727  -16.5566   20.8407 C   0  0  0  0  0  0  0  0  0  0  0  0
    7.3031  -15.4488   19.9019 C   0  0  0  0  0  0  0  0  0  0  0  0
    6.8243  -15.5785   18.5978 C   0  0  0  0  0  0  0  0  0  0  0  0
    6.9062  -14.4116   17.9477 N   0  0  0  0  0  0  0  0  0  0  0  0
    7.4335  -13.5134   18.8095 C   0  0  0  0  0  0  0  0  0  0  0  0
    7.7289  -12.1784   18.6951 C   0  0  0  0  0  0  0  0  0  0  0  0
    8.2542  -11.4462   19.7191 C   0  0  0  0  0  0  0  0  0  0  0  0
    8.4970  -12.0845   20.9222 C   0  0  0  0  0  0  0  0  0  0  0  0
    8.2234  -13.4043   21.0878 C   0  0  0  0  0  0  0  0  0  0  0  0
    7.6872  -14.1290   20.0240 C   0  0  0  0  0  0  0  0  0  0  0  0
    9.1396  -17.9340   21.9751 C   0  0  0  0  0  0  0  0  0  0  0  0
    8.5937  -18.8406   22.6441 O   0  0  0  0  0  0  0  0  0  0  0  0
   12.7206  -20.1404   22.0811 N   0  0  0  0  0  0  0  0  0  0  0  0
   12.5089  -20.5136   23.4246 C   0  0  0  0  0  0  0  0  0  0  0  0
   12.5716  -21.7525   23.6956 O   0  0  0  0  0  0  0  0  0  0  0  0
   12.2249  -19.5133   24.4834 C   0  0  0  0  0  0  0  0  0  0  0  0
   12.1876  -18.1540   23.8494 C   0  0  0  0  0  0  0  0  0  0  0  0
   10.7824  -17.6595   23.7860 C   0  0  2  0  0  0  0  0  0  0  0  0
   10.3419  -17.3843   22.4574 N   0  0  0  0  0  0  0  0  0  0  0  0
   10.5241  -16.4622   24.6326 C   0  0  0  0  0  0  0  0  0  0  0  0
   11.4931  -15.7211   24.9127 O   0  0  0  0  0  0  0  0  0  0  0  0
    5.8863  -13.0708   26.9996 C   0  0  0  0  0  0  0  0  0  0  0  0
    7.3647  -13.3859   26.9088 C   0  0  2  0  0  0  0  0  0  0  0  0
    8.2546  -12.2013   26.9330 C   0  0  0  0  0  0  0  0  0  0  0  0
    7.7375  -14.4649   25.9916 C   0  0  0  0  0  0  0  0  0  0  0  0
    9.1159  -14.9948   26.0357 C   0  0  2  0  0  0  0  0  0  0  0  0
    9.2666  -16.1208   25.1298 N   0  0  0  0  0  0  0  0  0  0  0  0
    9.5002  -15.4836   27.3670 C   0  0  0  0  0  0  0  0  0  0  0  0
    9.2766  -16.7497   27.8753 O   0  0  0  0  0  0  0  0  0  0  0  0
   10.1017  -14.6940   28.1822 O   0  0  0  0  0  0  0  0  0  0  0  0
  2  1  1  6
  3  2  1  0
  4  3  1  0
  5  4  2  0
  6  7  1  0
  6  5  1  0
  7 12  2  0
  8  7  1  0
  8  9  2  0
  9 10  1  0
 10 11  2  0
 12  4  1  0
 12 11  1  0
 13  2  1  0
 14 13  2  0
 16 17  2  0
 16 15  1  0
 18 16  1  0
 19 18  1  0
 20 21  1  0
 20 19  1  6
 21 13  1  0
 22 20  1  0
 23 22  2  0
 25 24  1  6
 25 27  1  0
 26 25  1  0
 28 27  1  1
 28 30  1  0
 28 29  1  0
 29 22  1  0
 30 31  1  0
 32 30  2  0
M  END
$$$$
