NSM.pdb
     RDKit          3D

 23 22  0  0  1  0  0  0  0  0999 V2000
   29.9056  -19.9193  -19.3785 N   0  0  0  0  0  0  0  0  0  0  0  0
   28.8461  -19.1798  -19.9450 C   0  0  0  0  0  0  0  0  0  0  0  0
   28.8492  -18.9829  -21.1807 O   0  0  0  0  0  0  0  0  0  0  0  0
   27.7845  -18.6701  -19.0752 C   0  0  0  0  0  0  0  0  0  0  0  0
   28.0852  -18.9023  -17.5995 C   0  0  2  0  0  0  0  0  0  0  0  0
   28.3870  -20.3068  -17.4093 N   0  0  0  0  0  0  0  0  0  0  0  0
   26.8620  -18.6123  -16.7810 C   0  0  0  0  0  0  0  0  0  0  0  0
   26.1080  -19.5289  -16.4154 O   0  0  0  0  0  0  0  0  0  0  0  0
   25.6304  -14.5874  -16.2827 O   0  0  0  0  0  0  0  0  0  0  0  0
   25.3926  -15.4440  -15.1966 C   0  0  0  0  0  0  0  0  0  0  0  0
   25.3767  -16.8796  -15.6666 C   0  0  2  0  0  0  0  0  0  0  0  0
   26.5369  -17.2673  -16.4023 N   0  0  0  0  0  0  0  0  0  0  0  0
   24.0904  -17.1075  -16.3773 C   0  0  0  0  0  0  0  0  0  0  0  0
   24.0647  -17.1968  -17.6265 O   0  0  0  0  0  0  0  0  0  0  0  0
   19.6682  -21.6950  -19.4996 C   0  0  0  0  0  0  0  0  0  0  0  0
   21.0146  -21.1433  -18.4102 S   0  0  0  0  0  0  0  0  0  0  0  0
   20.6600  -19.4453  -17.8056 C   0  0  0  0  0  0  0  0  0  0  0  0
   21.8293  -18.8990  -17.0531 C   0  0  0  0  0  0  0  0  0  0  0  0
   21.6060  -17.5493  -16.4294 C   0  0  2  0  0  0  0  0  0  0  0  0
   22.8517  -17.2335  -15.7028 N   0  0  0  0  0  0  0  0  0  0  0  0
   20.4752  -17.6355  -15.4700 C   0  0  0  0  0  0  0  0  0  0  0  0
   20.7242  -17.6215  -14.2338 O   0  0  0  0  0  0  0  0  0  0  0  0
   19.1455  -17.7308  -15.8305 O   0  0  0  0  0  0  0  0  0  0  0  0
  2  1  1  0
  3  2  2  0
  4  2  1  0
  4  5  1  0
  5  6  1  6
  7  5  1  0
  7 12  1  0
  8  7  2  0
 11 10  1  6
 10  9  1  0
 11 12  1  0
 11 13  1  0
 13 20  1  0
 14 13  2  0
 15 16  1  0
 17 16  1  0
 18 17  1  0
 19 18  1  1
 20 19  1  0
 21 19  1  0
 21 23  1  0
 22 21  2  0
M  END
$$$$
