NSM.pdb
     RDKit          3D

 23 22  0  0  1  0  0  0  0  0999 V2000
   20.5357   -8.7644  -15.9566 N   0  0  0  0  0  0  0  0  0  0  0  0
   21.2122   -8.2004  -14.8546 C   0  0  0  0  0  0  0  0  0  0  0  0
   20.5610   -7.4968  -14.0506 O   0  0  0  0  0  0  0  0  0  0  0  0
   22.6443   -8.4547  -14.6882 C   0  0  0  0  0  0  0  0  0  0  0  0
   23.2298   -9.2457  -15.8516 C   0  0  2  0  0  0  0  0  0  0  0  0
   22.7102  -10.5971  -15.7939 N   0  0  0  0  0  0  0  0  0  0  0  0
   24.7179   -9.3519  -15.6947 C   0  0  0  0  0  0  0  0  0  0  0  0
   25.4260   -8.3337  -15.6291 O   0  0  0  0  0  0  0  0  0  0  0  0
   26.7382  -13.0977  -16.3350 O   0  0  0  0  0  0  0  0  0  0  0  0
   27.1623  -12.2801  -15.2758 C   0  0  0  0  0  0  0  0  0  0  0  0
   26.7654  -10.8468  -15.5406 C   0  0  2  0  0  0  0  0  0  0  0  0
   25.3558  -10.6346  -15.6169 N   0  0  0  0  0  0  0  0  0  0  0  0
   27.5251  -10.3807  -16.7310 C   0  0  0  0  0  0  0  0  0  0  0  0
   26.9713  -10.3248  -17.8532 O   0  0  0  0  0  0  0  0  0  0  0  0
   33.0143   -6.1338  -17.2190 C   0  0  0  0  0  0  0  0  0  0  0  0
   33.3736   -7.8297  -17.7655 S   0  0  0  0  0  0  0  0  0  0  0  0
   31.8578   -8.5785  -18.4839 C   0  0  0  0  0  0  0  0  0  0  0  0
   30.9391   -9.0481  -17.4033 C   0  0  0  0  0  0  0  0  0  0  0  0
   29.6410   -9.6334  -17.8861 C   0  0  2  0  0  0  0  0  0  0  0  0
   28.8829   -9.9833  -16.6688 N   0  0  0  0  0  0  0  0  0  0  0  0
   29.9217  -10.8627  -18.6715 C   0  0  0  0  0  0  0  0  0  0  0  0
   30.1501  -11.9390  -18.0553 O   0  0  0  0  0  0  0  0  0  0  0  0
   29.9523  -10.9230  -20.0509 O   0  0  0  0  0  0  0  0  0  0  0  0
  2  1  1  0
  3  2  2  0
  4  2  1  0
  4  5  1  0
  5  6  1  1
  7  5  1  0
  7 12  1  0
  8  7  2  0
 11 10  1  6
 10  9  1  0
 11 12  1  0
 11 13  1  0
 13 20  1  0
 14 13  2  0
 15 16  1  0
 17 16  1  0
 18 17  1  0
 19 18  1  1
 20 19  1  0
 21 19  1  0
 21 23  1  0
 22 21  2  0
M  END
$$$$
