NSM.pdb
     RDKit          3D

 23 22  0  0  1  0  0  0  0  0999 V2000
   13.8005  -13.2246  -12.2406 N   0  0  0  0  0  0  0  0  0  0  0  0
   14.0215  -13.2956  -10.8491 C   0  0  0  0  0  0  0  0  0  0  0  0
   13.7680  -14.3690  -10.2582 O   0  0  0  0  0  0  0  0  0  0  0  0
   14.5367  -12.1194  -10.1459 C   0  0  0  0  0  0  0  0  0  0  0  0
   14.6763  -10.9119  -11.0648 C   0  0  2  0  0  0  0  0  0  0  0  0
   15.7010  -11.2008  -12.0479 N   0  0  0  0  0  0  0  0  0  0  0  0
   15.1587   -9.7290  -10.2783 C   0  0  0  0  0  0  0  0  0  0  0  0
   14.5233   -9.3161   -9.2945 O   0  0  0  0  0  0  0  0  0  0  0  0
   17.8950   -7.0606  -12.0181 O   0  0  0  0  0  0  0  0  0  0  0  0
   18.1204   -7.3131  -10.6560 C   0  0  0  0  0  0  0  0  0  0  0  0
   16.8671   -7.8675  -10.0205 C   0  0  2  0  0  0  0  0  0  0  0  0
   16.3668   -9.0487  -10.6469 N   0  0  0  0  0  0  0  0  0  0  0  0
   15.8827   -6.7573   -9.9209 C   0  0  0  0  0  0  0  0  0  0  0  0
   15.0775   -6.5396  -10.8556 O   0  0  0  0  0  0  0  0  0  0  0  0
   11.7794   -2.2291   -4.9467 C   0  0  0  0  0  0  0  0  0  0  0  0
   12.9267   -3.6019   -5.2671 S   0  0  0  0  0  0  0  0  0  0  0  0
   13.4719   -3.5515   -7.0206 C   0  0  0  0  0  0  0  0  0  0  0  0
   14.3380   -4.7269   -7.3371 C   0  0  0  0  0  0  0  0  0  0  0  0
   14.8482   -4.7749   -8.7506 C   0  0  2  0  0  0  0  0  0  0  0  0
   15.7990   -5.9033   -8.7945 N   0  0  0  0  0  0  0  0  0  0  0  0
   15.5610   -3.5077   -9.0558 C   0  0  0  0  0  0  0  0  0  0  0  0
   16.8105   -3.4584   -8.8925 O   0  0  0  0  0  0  0  0  0  0  0  0
   14.9528   -2.3559   -9.5145 O   0  0  0  0  0  0  0  0  0  0  0  0
  2  1  1  0
  3  2  2  0
  4  2  1  0
  4  5  1  0
  5  6  1  6
  7  5  1  0
  7 12  1  0
  8  7  2  0
 11 10  1  6
 10  9  1  0
 11 12  1  0
 11 13  1  0
 13 20  1  0
 14 13  2  0
 15 16  1  0
 17 16  1  0
 18 17  1  0
 19 18  1  1
 20 19  1  0
 21 19  1  0
 21 23  1  0
 22 21  2  0
M  END
$$$$
