NSM.pdb
     RDKit          3D

 23 22  0  0  1  0  0  0  0  0999 V2000
   19.6877  -15.1100  -16.8203 N   0  0  0  0  0  0  0  0  0  0  0  0
   18.9000  -14.2078  -16.0747 C   0  0  0  0  0  0  0  0  0  0  0  0
   17.9538  -14.6627  -15.3941 O   0  0  0  0  0  0  0  0  0  0  0  0
   19.2128  -12.7784  -16.1208 C   0  0  0  0  0  0  0  0  0  0  0  0
   17.9922  -11.9303  -16.4566 C   0  0  2  0  0  0  0  0  0  0  0  0
   17.6889  -12.1012  -17.8632 N   0  0  0  0  0  0  0  0  0  0  0  0
   18.3143  -10.4782  -16.2613 C   0  0  0  0  0  0  0  0  0  0  0  0
   19.0289   -9.8691  -17.0741 O   0  0  0  0  0  0  0  0  0  0  0  0
   17.6704   -8.5919  -12.4607 O   0  0  0  0  0  0  0  0  0  0  0  0
   17.3601   -7.8612  -13.6182 C   0  0  0  0  0  0  0  0  0  0  0  0
   18.1287   -8.4117  -14.7965 C   0  0  2  0  0  0  0  0  0  0  0  0
   17.8023   -9.7610  -15.1291 N   0  0  0  0  0  0  0  0  0  0  0  0
   19.5743   -8.1704  -14.5447 C   0  0  0  0  0  0  0  0  0  0  0  0
   20.3692   -9.1337  -14.4470 O   0  0  0  0  0  0  0  0  0  0  0  0
   26.0529   -7.6022  -17.3712 C   0  0  0  0  0  0  0  0  0  0  0  0
   24.2469   -7.7779  -17.2643 S   0  0  0  0  0  0  0  0  0  0  0  0
   23.6539   -7.0764  -15.6735 C   0  0  0  0  0  0  0  0  0  0  0  0
   22.1754   -7.2465  -15.5412 C   0  0  0  0  0  0  0  0  0  0  0  0
   21.5801   -6.6595  -14.2916 C   0  0  2  0  0  0  0  0  0  0  0  0
   20.1237   -6.8728  -14.4041 N   0  0  0  0  0  0  0  0  0  0  0  0
   21.8708   -5.2033  -14.2495 C   0  0  0  0  0  0  0  0  0  0  0  0
   21.0877   -4.4097  -14.8388 O   0  0  0  0  0  0  0  0  0  0  0  0
   22.9515   -4.6370  -13.6025 O   0  0  0  0  0  0  0  0  0  0  0  0
  2  1  1  0
  3  2  2  0
  4  2  1  0
  4  5  1  0
  5  6  1  6
  7  5  1  0
  7 12  1  0
  8  7  2  0
 11 10  1  1
 10  9  1  0
 11 12  1  0
 11 13  1  0
 13 20  1  0
 14 13  2  0
 15 16  1  0
 17 16  1  0
 18 17  1  0
 19 18  1  6
 20 19  1  0
 21 19  1  0
 21 23  1  0
 22 21  2  0
M  END
$$$$
