NSM.pdb
     RDKit          3D

 23 22  0  0  1  0  0  0  0  0999 V2000
   15.3566  -13.8419  -15.5604 N   0  0  0  0  0  0  0  0  0  0  0  0
   16.1032  -13.2428  -14.5241 C   0  0  0  0  0  0  0  0  0  0  0  0
   15.8258  -13.5386  -13.3404 O   0  0  0  0  0  0  0  0  0  0  0  0
   17.1712  -12.3011  -14.8644 C   0  0  0  0  0  0  0  0  0  0  0  0
   17.2379  -12.0190  -16.3604 C   0  0  2  0  0  0  0  0  0  0  0  0
   17.7029  -13.2159  -17.0317 N   0  0  0  0  0  0  0  0  0  0  0  0
   18.2579  -10.9527  -16.6304 C   0  0  0  0  0  0  0  0  0  0  0  0
   19.4543  -11.2425  -16.7950 O   0  0  0  0  0  0  0  0  0  0  0  0
   17.2299   -6.8941  -16.0179 O   0  0  0  0  0  0  0  0  0  0  0  0
   18.0812   -7.1472  -17.1047 C   0  0  0  0  0  0  0  0  0  0  0  0
   18.7659   -8.4815  -16.9229 C   0  0  2  0  0  0  0  0  0  0  0  0
   17.8720   -9.5729  -16.7046 N   0  0  0  0  0  0  0  0  0  0  0  0
   19.8057   -8.3156  -15.8727 C   0  0  0  0  0  0  0  0  0  0  0  0
   19.5625   -8.6329  -14.6855 O   0  0  0  0  0  0  0  0  0  0  0  0
   26.2428  -10.8958  -15.1061 C   0  0  0  0  0  0  0  0  0  0  0  0
   25.9817   -9.2114  -15.7375 S   0  0  0  0  0  0  0  0  0  0  0  0
   24.5694   -8.4359  -14.8551 C   0  0  0  0  0  0  0  0  0  0  0  0
   23.3782   -8.3373  -15.7515 C   0  0  0  0  0  0  0  0  0  0  0  0
   22.1466   -7.7648  -15.1067 C   0  0  2  0  0  0  0  0  0  0  0  0
   21.0974   -7.8030  -16.1445 N   0  0  0  0  0  0  0  0  0  0  0  0
   22.4106   -6.3568  -14.7136 C   0  0  0  0  0  0  0  0  0  0  0  0
   23.0191   -6.1313  -13.6322 O   0  0  0  0  0  0  0  0  0  0  0  0
   22.0363   -5.2521  -15.4529 O   0  0  0  0  0  0  0  0  0  0  0  0
  2  1  1  0
  3  2  2  0
  4  2  1  0
  4  5  1  0
  5  6  1  6
  7  5  1  0
  7 12  1  0
  8  7  2  0
 11 10  1  1
 10  9  1  0
 11 12  1  0
 11 13  1  0
 13 20  1  0
 14 13  2  0
 15 16  1  0
 17 16  1  0
 18 17  1  0
 19 18  1  6
 20 19  1  0
 21 19  1  0
 21 23  1  0
 22 21  2  0
M  END
$$$$
