NSM.pdb
     RDKit          3D

 23 22  0  0  1  0  0  0  0  0999 V2000
   19.9286  -23.5130  -12.9762 N   0  0  0  0  0  0  0  0  0  0  0  0
   20.3051  -22.8114  -14.1408 C   0  0  0  0  0  0  0  0  0  0  0  0
   19.8166  -23.1672  -15.2364 O   0  0  0  0  0  0  0  0  0  0  0  0
   21.2486  -21.6975  -14.0309 C   0  0  0  0  0  0  0  0  0  0  0  0
   21.7660  -21.5164  -12.6091 C   0  0  2  0  0  0  0  0  0  0  0  0
   20.7534  -20.8233  -11.8383 N   0  0  0  0  0  0  0  0  0  0  0  0
   22.9772  -20.6314  -12.6189 C   0  0  0  0  0  0  0  0  0  0  0  0
   22.9622  -19.5375  -13.2066 O   0  0  0  0  0  0  0  0  0  0  0  0
   26.6132  -22.4322  -11.3472 O   0  0  0  0  0  0  0  0  0  0  0  0
   26.5614  -21.0303  -11.2999 C   0  0  0  0  0  0  0  0  0  0  0  0
   25.4847  -20.5229  -12.2300 C   0  0  2  0  0  0  0  0  0  0  0  0
   24.1808  -21.0309  -11.9480 N   0  0  0  0  0  0  0  0  0  0  0  0
   25.9482  -20.7520  -13.6244 C   0  0  0  0  0  0  0  0  0  0  0  0
   25.4273  -21.6504  -14.3249 O   0  0  0  0  0  0  0  0  0  0  0  0
   24.3012  -18.8791  -20.2354 C   0  0  0  0  0  0  0  0  0  0  0  0
   24.3198  -18.8164  -18.4189 S   0  0  0  0  0  0  0  0  0  0  0  0
   25.8952  -19.5257  -17.7951 C   0  0  0  0  0  0  0  0  0  0  0  0
   25.9084  -19.5471  -16.3012 C   0  0  0  0  0  0  0  0  0  0  0  0
   27.2001  -20.0095  -15.6862 C   0  0  2  0  0  0  0  0  0  0  0  0
   26.9779  -19.9893  -14.2269 N   0  0  0  0  0  0  0  0  0  0  0  0
   28.2800  -19.0530  -16.0412 C   0  0  0  0  0  0  0  0  0  0  0  0
   28.4333  -18.0196  -15.3350 O   0  0  0  0  0  0  0  0  0  0  0  0
   29.1481  -19.2085  -17.1040 O   0  0  0  0  0  0  0  0  0  0  0  0
  2  1  1  0
  3  2  2  0
  4  2  1  0
  4  5  1  0
  5  6  1  1
  7  5  1  0
  7 12  1  0
  8  7  2  0
 11 10  1  1
 10  9  1  0
 11 12  1  0
 11 13  1  0
 13 20  1  0
 14 13  2  0
 15 16  1  0
 17 16  1  0
 18 17  1  0
 19 18  1  6
 20 19  1  0
 21 19  1  0
 21 23  1  0
 22 21  2  0
M  END
$$$$
