NSM.pdb
     RDKit          3D

 23 22  0  0  1  0  0  0  0  0999 V2000
   21.0144  -18.2605  -17.7968 N   0  0  0  0  0  0  0  0  0  0  0  0
   19.8210  -17.5136  -17.7059 C   0  0  0  0  0  0  0  0  0  0  0  0
   18.7587  -18.1161  -17.4336 O   0  0  0  0  0  0  0  0  0  0  0  0
   19.8634  -16.0677  -17.9316 C   0  0  0  0  0  0  0  0  0  0  0  0
   19.6418  -15.2759  -16.6486 C   0  0  2  0  0  0  0  0  0  0  0  0
   18.2616  -15.4430  -16.2401 N   0  0  0  0  0  0  0  0  0  0  0  0
   19.8351  -13.8125  -16.9160 C   0  0  0  0  0  0  0  0  0  0  0  0
   20.8717  -13.3953  -17.4581 O   0  0  0  0  0  0  0  0  0  0  0  0
   18.0787   -9.6200  -15.3456 O   0  0  0  0  0  0  0  0  0  0  0  0
   17.7366  -10.6745  -16.2065 C   0  0  0  0  0  0  0  0  0  0  0  0
   18.9767  -11.4435  -16.5973 C   0  0  2  0  0  0  0  0  0  0  0  0
   18.8244  -12.8621  -16.5505 N   0  0  0  0  0  0  0  0  0  0  0  0
   20.1079  -10.9171  -15.7881 C   0  0  0  0  0  0  0  0  0  0  0  0
   20.3377  -11.3782  -14.6463 O   0  0  0  0  0  0  0  0  0  0  0  0
   27.4836  -10.5357  -14.9631 C   0  0  0  0  0  0  0  0  0  0  0  0
   25.9439  -10.9412  -15.8400 S   0  0  0  0  0  0  0  0  0  0  0  0
   24.5815   -9.8804  -15.2131 C   0  0  0  0  0  0  0  0  0  0  0  0
   23.2943  -10.2205  -15.8911 C   0  0  0  0  0  0  0  0  0  0  0  0
   22.1074   -9.4181  -15.4351 C   0  0  2  0  0  0  0  0  0  0  0  0
   20.9690   -9.8911  -16.2473 N   0  0  0  0  0  0  0  0  0  0  0  0
   22.3554   -7.9795  -15.7109 C   0  0  0  0  0  0  0  0  0  0  0  0
   22.0570   -7.5178  -16.8459 O   0  0  0  0  0  0  0  0  0  0  0  0
   22.8966   -7.0886  -14.8051 O   0  0  0  0  0  0  0  0  0  0  0  0
  2  1  1  0
  3  2  2  0
  4  2  1  0
  4  5  1  0
  5  6  1  6
  7  5  1  0
  7 12  1  0
  8  7  2  0
 11 10  1  1
 10  9  1  0
 11 12  1  0
 11 13  1  0
 13 20  1  0
 14 13  2  0
 15 16  1  0
 17 16  1  0
 18 17  1  0
 19 18  1  6
 20 19  1  0
 21 19  1  0
 21 23  1  0
 22 21  2  0
M  END
$$$$
