NSM.pdb
     RDKit          3D

 23 22  0  0  1  0  0  0  0  0999 V2000
   21.6538  -10.9959  -17.6153 N   0  0  0  0  0  0  0  0  0  0  0  0
   22.6123   -9.9834  -17.8309 C   0  0  0  0  0  0  0  0  0  0  0  0
   23.6688  -10.2797  -18.4321 O   0  0  0  0  0  0  0  0  0  0  0  0
   22.3419   -8.6281  -17.3479 C   0  0  0  0  0  0  0  0  0  0  0  0
   21.0658   -8.5541  -16.5185 C   0  0  2  0  0  0  0  0  0  0  0  0
   19.9441   -8.8863  -17.3735 N   0  0  0  0  0  0  0  0  0  0  0  0
   20.8456   -7.1457  -16.0512 C   0  0  0  0  0  0  0  0  0  0  0  0
   20.3642   -6.2900  -16.8116 O   0  0  0  0  0  0  0  0  0  0  0  0
   22.6884   -5.7447  -12.4777 O   0  0  0  0  0  0  0  0  0  0  0  0
   21.3667   -5.3316  -12.7071 C   0  0  0  0  0  0  0  0  0  0  0  0
   21.0405   -5.4416  -14.1780 C   0  0  2  0  0  0  0  0  0  0  0  0
   21.1872   -6.7569  -14.7131 N   0  0  0  0  0  0  0  0  0  0  0  0
   21.8182   -4.3944  -14.8922 C   0  0  0  0  0  0  0  0  0  0  0  0
   22.6682   -4.7150  -15.7548 O   0  0  0  0  0  0  0  0  0  0  0  0
   22.5808   -0.4873  -20.7440 C   0  0  0  0  0  0  0  0  0  0  0  0
   21.8859   -1.6706  -19.5520 S   0  0  0  0  0  0  0  0  0  0  0  0
   22.5021   -1.2792  -17.8663 C   0  0  0  0  0  0  0  0  0  0  0  0
   22.0191   -2.2924  -16.8803 C   0  0  0  0  0  0  0  0  0  0  0  0
   22.3581   -1.9921  -15.4467 C   0  0  2  0  0  0  0  0  0  0  0  0
   21.6492   -3.0101  -14.6464 N   0  0  0  0  0  0  0  0  0  0  0  0
   21.8518   -0.6397  -15.0979 C   0  0  0  0  0  0  0  0  0  0  0  0
   20.6361   -0.5063  -14.7903 O   0  0  0  0  0  0  0  0  0  0  0  0
   22.6216    0.5067  -15.0823 O   0  0  0  0  0  0  0  0  0  0  0  0
  2  1  1  0
  3  2  2  0
  4  2  1  0
  4  5  1  0
  5  6  1  6
  7  5  1  0
  7 12  1  0
  8  7  2  0
 11 10  1  1
 10  9  1  0
 11 12  1  0
 11 13  1  0
 13 20  1  0
 14 13  2  0
 15 16  1  0
 17 16  1  0
 18 17  1  0
 19 18  1  6
 20 19  1  0
 21 19  1  0
 21 23  1  0
 22 21  2  0
M  END
$$$$
