NSM.pdb
     RDKit          3D

 23 22  0  0  1  0  0  0  0  0999 V2000
   14.6973  -12.9253  -15.0475 N   0  0  0  0  0  0  0  0  0  0  0  0
   15.8383  -12.6609  -14.2611 C   0  0  0  0  0  0  0  0  0  0  0  0
   16.0085  -13.3241  -13.2138 O   0  0  0  0  0  0  0  0  0  0  0  0
   16.7800  -11.6264  -14.6925 C   0  0  0  0  0  0  0  0  0  0  0  0
   16.2516  -10.8195  -15.8722 C   0  0  2  0  0  0  0  0  0  0  0  0
   16.2744  -11.6626  -17.0504 N   0  0  0  0  0  0  0  0  0  0  0  0
   17.1715   -9.6679  -16.1518 C   0  0  0  0  0  0  0  0  0  0  0  0
   18.1310   -9.7933  -16.9302 O   0  0  0  0  0  0  0  0  0  0  0  0
   16.1923   -5.7883  -14.6658 O   0  0  0  0  0  0  0  0  0  0  0  0
   16.9714   -5.9457  -15.8226 C   0  0  0  0  0  0  0  0  0  0  0  0
   17.7600   -7.2315  -15.7417 C   0  0  2  0  0  0  0  0  0  0  0  0
   16.9617   -8.3948  -15.5245 N   0  0  0  0  0  0  0  0  0  0  0  0
   18.8457   -7.0330  -14.7450 C   0  0  0  0  0  0  0  0  0  0  0  0
   18.6174   -7.1818  -13.5223 O   0  0  0  0  0  0  0  0  0  0  0  0
   23.6979  -11.3247  -14.6228 C   0  0  0  0  0  0  0  0  0  0  0  0
   23.7637   -9.5581  -15.0455 S   0  0  0  0  0  0  0  0  0  0  0  0
   22.3121   -8.6975  -14.3197 C   0  0  0  0  0  0  0  0  0  0  0  0
   22.4070   -7.2235  -14.5440 C   0  0  0  0  0  0  0  0  0  0  0  0
   21.2091   -6.4359  -14.0911 C   0  0  2  0  0  0  0  0  0  0  0  0
   20.1662   -6.6736  -15.1085 N   0  0  0  0  0  0  0  0  0  0  0  0
   21.5574   -4.9921  -14.0593 C   0  0  0  0  0  0  0  0  0  0  0  0
   22.3864   -4.5854  -13.2004 O   0  0  0  0  0  0  0  0  0  0  0  0
   21.0362   -4.0400  -14.9131 O   0  0  0  0  0  0  0  0  0  0  0  0
  2  1  1  0
  3  2  2  0
  4  2  1  0
  4  5  1  0
  5  6  1  6
  7  5  1  0
  7 12  1  0
  8  7  2  0
 11 10  1  1
 10  9  1  0
 11 12  1  0
 11 13  1  0
 13 20  1  0
 14 13  2  0
 15 16  1  0
 17 16  1  0
 18 17  1  0
 19 18  1  6
 20 19  1  0
 21 19  1  0
 21 23  1  0
 22 21  2  0
M  END
$$$$
