NSM.pdb
     RDKit          3D

 23 22  0  0  1  0  0  0  0  0999 V2000
   15.3080  -14.6426  -16.6060 N   0  0  0  0  0  0  0  0  0  0  0  0
   16.1797  -13.9367  -15.7503 C   0  0  0  0  0  0  0  0  0  0  0  0
   16.3079  -14.3323  -14.5702 O   0  0  0  0  0  0  0  0  0  0  0  0
   16.9012  -12.7723  -16.2668 C   0  0  0  0  0  0  0  0  0  0  0  0
   17.0400  -11.6695  -15.2245 C   0  0  2  0  0  0  0  0  0  0  0  0
   15.7807  -10.9577  -15.1405 N   0  0  0  0  0  0  0  0  0  0  0  0
   18.0664  -10.6723  -15.6748 C   0  0  0  0  0  0  0  0  0  0  0  0
   19.2197  -11.0313  -15.9634 O   0  0  0  0  0  0  0  0  0  0  0  0
   17.3366   -6.5487  -15.1482 O   0  0  0  0  0  0  0  0  0  0  0  0
   17.9992   -6.8907  -16.3374 C   0  0  0  0  0  0  0  0  0  0  0  0
   18.6363   -8.2534  -16.1987 C   0  0  2  0  0  0  0  0  0  0  0  0
   17.7365   -9.2802  -15.7817 N   0  0  0  0  0  0  0  0  0  0  0  0
   19.8414   -8.1028  -15.3404 C   0  0  0  0  0  0  0  0  0  0  0  0
   19.7568   -8.2493  -14.0992 O   0  0  0  0  0  0  0  0  0  0  0  0
   27.3735   -9.9699  -15.0698 C   0  0  0  0  0  0  0  0  0  0  0  0
   25.8165   -9.7752  -15.9873 S   0  0  0  0  0  0  0  0  0  0  0  0
   24.6696   -8.7042  -15.0322 C   0  0  0  0  0  0  0  0  0  0  0  0
   23.3237   -8.6644  -15.6796 C   0  0  0  0  0  0  0  0  0  0  0  0
   22.3205   -7.7744  -14.9999 C   0  0  2  0  0  0  0  0  0  0  0  0
   21.1214   -7.7931  -15.8608 N   0  0  0  0  0  0  0  0  0  0  0  0
   22.8629   -6.3933  -14.9272 C   0  0  0  0  0  0  0  0  0  0  0  0
   22.6205   -5.5944  -15.8724 O   0  0  0  0  0  0  0  0  0  0  0  0
   23.6263   -5.9036  -13.8858 O   0  0  0  0  0  0  0  0  0  0  0  0
  2  1  1  0
  3  2  2  0
  4  2  1  0
  4  5  1  0
  5  6  1  6
  7  5  1  0
  7 12  1  0
  8  7  2  0
 11 10  1  1
 10  9  1  0
 11 12  1  0
 11 13  1  0
 13 20  1  0
 14 13  2  0
 15 16  1  0
 17 16  1  0
 18 17  1  0
 19 18  1  6
 20 19  1  0
 21 19  1  0
 21 23  1  0
 22 21  2  0
M  END
$$$$
