NSM.pdb
     RDKit          3D

 23 22  0  0  1  0  0  0  0  0999 V2000
   19.1049  -19.0821  -14.8363 N   0  0  0  0  0  0  0  0  0  0  0  0
   20.4052  -18.5740  -14.6330 C   0  0  0  0  0  0  0  0  0  0  0  0
   21.2624  -19.3195  -14.1087 O   0  0  0  0  0  0  0  0  0  0  0  0
   20.7078  -17.2005  -15.0393 C   0  0  0  0  0  0  0  0  0  0  0  0
   19.5168  -16.5177  -15.7007 C   0  0  2  0  0  0  0  0  0  0  0  0
   19.1795  -17.2504  -16.9045 N   0  0  0  0  0  0  0  0  0  0  0  0
   19.9019  -15.1344  -16.1349 C   0  0  0  0  0  0  0  0  0  0  0  0
   21.0553  -14.8864  -16.5227 O   0  0  0  0  0  0  0  0  0  0  0  0
   17.4149  -11.8594  -15.1353 O   0  0  0  0  0  0  0  0  0  0  0  0
   18.0154  -11.7995  -16.4025 C   0  0  0  0  0  0  0  0  0  0  0  0
   19.2225  -12.7068  -16.4440 C   0  0  2  0  0  0  0  0  0  0  0  0
   18.9439  -14.0668  -16.1115 N   0  0  0  0  0  0  0  0  0  0  0  0
   20.2893  -12.0765  -15.6218 C   0  0  0  0  0  0  0  0  0  0  0  0
   20.4477  -12.4120  -14.4253 O   0  0  0  0  0  0  0  0  0  0  0  0
   27.7232  -10.4898  -15.1281 C   0  0  0  0  0  0  0  0  0  0  0  0
   26.2646  -10.9404  -16.1147 S   0  0  0  0  0  0  0  0  0  0  0  0
   24.7465  -10.3220  -15.2858 C   0  0  0  0  0  0  0  0  0  0  0  0
   23.5245  -10.8786  -15.9409 C   0  0  0  0  0  0  0  0  0  0  0  0
   22.2256  -10.4919  -15.2900 C   0  0  2  0  0  0  0  0  0  0  0  0
   21.1657  -11.0862  -16.1284 N   0  0  0  0  0  0  0  0  0  0  0  0
   22.0976   -9.0119  -15.2964 C   0  0  0  0  0  0  0  0  0  0  0  0
   21.6060   -8.4485  -16.3119 O   0  0  0  0  0  0  0  0  0  0  0  0
   22.4808   -8.1864  -14.2576 O   0  0  0  0  0  0  0  0  0  0  0  0
  2  1  1  0
  3  2  2  0
  4  2  1  0
  4  5  1  0
  5  6  1  6
  7  5  1  0
  7 12  1  0
  8  7  2  0
 11 10  1  1
 10  9  1  0
 11 12  1  0
 11 13  1  0
 13 20  1  0
 14 13  2  0
 15 16  1  0
 17 16  1  0
 18 17  1  0
 19 18  1  6
 20 19  1  0
 21 19  1  0
 21 23  1  0
 22 21  2  0
M  END
$$$$
