NSM.pdb
     RDKit          3D

 23 22  0  0  1  0  0  0  0  0999 V2000
   16.7231  -13.3546  -15.2277 N   0  0  0  0  0  0  0  0  0  0  0  0
   18.0889  -13.2860  -15.5743 C   0  0  0  0  0  0  0  0  0  0  0  0
   18.8351  -14.2374  -15.2526 O   0  0  0  0  0  0  0  0  0  0  0  0
   18.5859  -12.1121  -16.2942 C   0  0  0  0  0  0  0  0  0  0  0  0
   17.4905  -11.0839  -16.5489 C   0  0  2  0  0  0  0  0  0  0  0  0
   16.7559  -11.4813  -17.7330 N   0  0  0  0  0  0  0  0  0  0  0  0
   18.1072   -9.7510  -16.8548 C   0  0  0  0  0  0  0  0  0  0  0  0
   18.8812   -9.6127  -17.8161 O   0  0  0  0  0  0  0  0  0  0  0  0
   18.0751   -4.9449  -16.0866 O   0  0  0  0  0  0  0  0  0  0  0  0
   17.5141   -6.1781  -15.7198 C   0  0  0  0  0  0  0  0  0  0  0  0
   18.3844   -7.3083  -16.2168 C   0  0  2  0  0  0  0  0  0  0  0  0
   17.8152   -8.6057  -16.0417 N   0  0  0  0  0  0  0  0  0  0  0  0
   19.7326   -7.1391  -15.6124 C   0  0  0  0  0  0  0  0  0  0  0  0
   19.9852   -7.6204  -14.4838 O   0  0  0  0  0  0  0  0  0  0  0  0
   27.3021   -5.5241  -17.3271 C   0  0  0  0  0  0  0  0  0  0  0  0
   25.5827   -5.7868  -17.8548 S   0  0  0  0  0  0  0  0  0  0  0  0
   24.4934   -5.8778  -16.3785 C   0  0  0  0  0  0  0  0  0  0  0  0
   23.0815   -6.1540  -16.7817 C   0  0  0  0  0  0  0  0  0  0  0  0
   22.1160   -6.3095  -15.6397 C   0  0  2  0  0  0  0  0  0  0  0  0
   20.7825   -6.4427  -16.2588 N   0  0  0  0  0  0  0  0  0  0  0  0
   22.1563   -5.0872  -14.7962 C   0  0  0  0  0  0  0  0  0  0  0  0
   21.4595   -4.0920  -15.1342 O   0  0  0  0  0  0  0  0  0  0  0  0
   22.9103   -4.9510  -13.6473 O   0  0  0  0  0  0  0  0  0  0  0  0
  2  1  1  0
  3  2  2  0
  4  2  1  0
  4  5  1  0
  5  6  1  6
  7  5  1  0
  7 12  1  0
  8  7  2  0
 11 10  1  1
 10  9  1  0
 11 12  1  0
 11 13  1  0
 13 20  1  0
 14 13  2  0
 15 16  1  0
 17 16  1  0
 18 17  1  0
 19 18  1  6
 20 19  1  0
 21 19  1  0
 21 23  1  0
 22 21  2  0
M  END
$$$$
