NSM.pdb
     RDKit          3D

 23 22  0  0  1  0  0  0  0  0999 V2000
   27.7017  -21.9725  -11.9559 N   0  0  0  0  0  0  0  0  0  0  0  0
   27.5793  -21.5645  -13.3008 C   0  0  0  0  0  0  0  0  0  0  0  0
   28.6225  -21.3919  -13.9697 O   0  0  0  0  0  0  0  0  0  0  0  0
   26.2450  -21.3577  -13.8667 C   0  0  0  0  0  0  0  0  0  0  0  0
   25.1415  -21.5706  -12.8376 C   0  0  2  0  0  0  0  0  0  0  0  0
   25.0944  -22.9793  -12.5017 N   0  0  0  0  0  0  0  0  0  0  0  0
   23.8116  -21.2297  -13.4423 C   0  0  0  0  0  0  0  0  0  0  0  0
   23.6704  -21.1620  -14.6742 O   0  0  0  0  0  0  0  0  0  0  0  0
   20.8155  -19.5716  -10.9821 O   0  0  0  0  0  0  0  0  0  0  0  0
   20.3471  -20.4281  -11.9905 C   0  0  0  0  0  0  0  0  0  0  0  0
   21.3883  -20.5630  -13.0767 C   0  0  2  0  0  0  0  0  0  0  0  0
   22.6725  -20.9744  -12.6083 N   0  0  0  0  0  0  0  0  0  0  0  0
   21.3923  -19.2974  -13.8575 C   0  0  0  0  0  0  0  0  0  0  0  0
   22.3540  -18.5000  -13.7654 O   0  0  0  0  0  0  0  0  0  0  0  0
   24.7739  -17.6226  -17.3648 C   0  0  0  0  0  0  0  0  0  0  0  0
   23.3855  -17.3707  -18.5105 S   0  0  0  0  0  0  0  0  0  0  0  0
   21.8639  -16.9832  -17.5571 C   0  0  0  0  0  0  0  0  0  0  0  0
   21.6108  -18.0290  -16.5206 C   0  0  0  0  0  0  0  0  0  0  0  0
   20.4446  -17.7516  -15.6132 C   0  0  2  0  0  0  0  0  0  0  0  0
   20.3381  -18.9282  -14.7279 N   0  0  0  0  0  0  0  0  0  0  0  0
   19.2097  -17.6261  -16.4293 C   0  0  0  0  0  0  0  0  0  0  0  0
   18.7685  -16.4741  -16.6912 O   0  0  0  0  0  0  0  0  0  0  0  0
   18.4918  -18.6917  -16.9356 O   0  0  0  0  0  0  0  0  0  0  0  0
  2  1  1  0
  3  2  2  0
  4  2  1  0
  4  5  1  0
  5  6  1  6
  7  5  1  0
  7 12  1  0
  8  7  2  0
 11 10  1  1
 10  9  1  0
 11 12  1  0
 11 13  1  0
 13 20  1  0
 14 13  2  0
 15 16  1  0
 17 16  1  0
 18 17  1  0
 19 18  1  6
 20 19  1  0
 21 19  1  0
 21 23  1  0
 22 21  2  0
M  END
$$$$
