RWF.pdb
     RDKit          3D

 37 39  0  0  1  0  0  0  0  0999 V2000
    4.1700  -21.1123   19.7497 N   0  0  0  0  0  0  0  0  0  0  0  0
    4.6307  -21.2679   18.4155 C   0  0  0  0  0  0  0  0  0  0  0  0
    3.9132  -21.9649   17.5932 N   0  0  0  0  0  0  0  0  0  0  0  0
    5.8474  -20.6879   17.9540 N   0  0  0  0  0  0  0  0  0  0  0  0
    6.3782  -19.4810   18.5882 C   0  0  0  0  0  0  0  0  0  0  0  0
    7.8545  -19.5913   18.8302 C   0  0  0  0  0  0  0  0  0  0  0  0
    8.2980  -18.9124   20.1118 C   0  0  0  0  0  0  0  0  0  0  0  0
    8.8012  -17.5443   19.7288 C   0  0  2  0  0  0  0  0  0  0  0  0
    9.9007  -17.6945   18.8197 N   0  0  0  0  0  0  0  0  0  0  0  0
    9.2081  -16.7171   20.8718 C   0  0  0  0  0  0  0  0  0  0  0  0
   10.3147  -16.9260   21.4612 O   0  0  0  0  0  0  0  0  0  0  0  0
    4.2050  -22.1141   16.6065 N   0  0  0  0  0  0  0  0  0  0  0  0
    8.4234  -15.6522   21.3933 C   0  0  2  0  0  0  0  0  0  0  0  0
    8.7397  -14.9664   22.6323 C   0  0  0  0  0  0  0  0  0  0  0  0
    7.8318  -13.7561   22.7123 C   0  0  0  0  0  0  0  0  0  0  0  0
    8.1130  -12.9373   23.9222 C   0  0  0  0  0  0  0  0  0  0  0  0
    9.1107  -11.9877   24.0789 N   0  0  0  0  0  0  0  0  0  0  0  0
    9.0176  -11.4751   25.3377 C   0  0  0  0  0  0  0  0  0  0  0  0
    8.0138  -12.0450   25.9966 C   0  0  0  0  0  0  0  0  0  0  0  0
    7.5315  -11.8642   27.2753 C   0  0  0  0  0  0  0  0  0  0  0  0
    6.4576  -12.5942   27.7245 C   0  0  0  0  0  0  0  0  0  0  0  0
    5.8793  -13.5042   26.8714 C   0  0  0  0  0  0  0  0  0  0  0  0
    6.3620  -13.6820   25.5986 C   0  0  0  0  0  0  0  0  0  0  0  0
    7.4372  -12.9638   25.1226 C   0  0  0  0  0  0  0  0  0  0  0  0
    8.5976  -15.8639   23.8068 O   0  0  0  0  0  0  0  0  0  0  0  0
    7.6310  -16.6674   23.8663 N   0  0  0  0  0  0  0  0  0  0  0  0
    9.5081  -15.8752   24.9001 C   0  0  1  0  0  0  0  0  0  0  0  0
    9.3442  -16.7525   26.0576 C   0  0  0  0  0  0  0  0  0  0  0  0
    9.1468  -18.1764   25.6117 C   0  0  0  0  0  0  0  0  0  0  0  0
   10.2761  -18.7145   24.8215 C   0  0  0  0  0  0  0  0  0  0  0  0
   11.3804  -17.9039   24.5292 C   0  0  0  0  0  0  0  0  0  0  0  0
   12.4315  -18.4141   23.7961 C   0  0  0  0  0  0  0  0  0  0  0  0
   12.4377  -19.7279   23.3266 C   0  0  0  0  0  0  0  0  0  0  0  0
   11.3447  -20.5013   23.6264 C   0  0  0  0  0  0  0  0  0  0  0  0
   10.2962  -19.9972   24.3561 C   0  0  0  0  0  0  0  0  0  0  0  0
   10.4393  -16.5474   27.0000 O   0  0  0  0  0  0  0  0  0  0  0  0
   11.4026  -15.7470   26.7508 O   0  0  0  0  0  0  0  0  0  0  0  0
  2  1  1  0
  3  2  2  0
  4  2  1  0
  5  4  1  0
  6  7  1  0
  6  5  1  0
  8 10  1  0
  8  7  1  0
  8  9  1  6
 10 12  1  0
 11 10  2  0
 12 13  1  0
 13 24  1  0
 13 14  1  6
 14 15  1  0
 15 23  1  0
 15 16  2  0
 16 17  1  0
 18 17  1  0
 18 19  2  0
 20 19  1  0
 21 20  2  0
 22 23  2  0
 22 21  1  0
 23 18  1  0
 24 25  2  0
 26 27  1  0
 26 24  1  0
 27 35  1  0
 27 28  1  1
 29 28  1  0
 30 29  2  0
 31 30  1  0
 32 31  2  0
 32 33  1  0
 33 34  2  0
 34 29  1  0
 35 36  2  0
 35 37  1  0
M  END
$$$$
