RWF.pdb
     RDKit          3D

 37 39  0  0  1  0  0  0  0  0999 V2000
    9.1816  -13.8611   18.2994 N   0  0  0  0  0  0  0  0  0  0  0  0
    8.1330  -13.5843   17.3827 C   0  0  0  0  0  0  0  0  0  0  0  0
    8.0708  -12.4031   16.8560 N   0  0  0  0  0  0  0  0  0  0  0  0
    7.1532  -14.5551   17.0256 N   0  0  0  0  0  0  0  0  0  0  0  0
    7.1733  -15.8847   17.6356 C   0  0  0  0  0  0  0  0  0  0  0  0
    6.4603  -15.8948   18.9554 C   0  0  0  0  0  0  0  0  0  0  0  0
    7.2710  -15.2665   20.0725 C   0  0  0  0  0  0  0  0  0  0  0  0
    8.0691  -16.3755   20.7088 C   0  0  2  0  0  0  0  0  0  0  0  0
    7.1653  -17.3919   21.1648 N   0  0  0  0  0  0  0  0  0  0  0  0
    8.9243  -15.9341   21.8178 C   0  0  0  0  0  0  0  0  0  0  0  0
    9.7540  -14.9846   21.6577 O   0  0  0  0  0  0  0  0  0  0  0  0
    7.3739  -12.1701   16.1204 N   0  0  0  0  0  0  0  0  0  0  0  0
    8.8939  -16.5137   23.1158 C   0  0  1  0  0  0  0  0  0  0  0  0
    9.7426  -16.0666   24.2045 C   0  0  0  0  0  0  0  0  0  0  0  0
    9.0142  -16.3874   25.4938 C   0  0  0  0  0  0  0  0  0  0  0  0
    7.7933  -15.5532   25.6574 C   0  0  0  0  0  0  0  0  0  0  0  0
    6.4744  -15.9707   25.5697 N   0  0  0  0  0  0  0  0  0  0  0  0
    5.6704  -14.8917   25.7830 C   0  0  0  0  0  0  0  0  0  0  0  0
    6.4030  -13.8048   26.0027 C   0  0  0  0  0  0  0  0  0  0  0  0
    6.0544  -12.4968   26.2635 C   0  0  0  0  0  0  0  0  0  0  0  0
    7.0239  -11.5428   26.4577 C   0  0  0  0  0  0  0  0  0  0  0  0
    8.3432  -11.9234   26.3860 C   0  0  0  0  0  0  0  0  0  0  0  0
    8.6872  -13.2267   26.1260 C   0  0  0  0  0  0  0  0  0  0  0  0
    7.7357  -14.2033   25.9271 C   0  0  0  0  0  0  0  0  0  0  0  0
   11.0891  -16.6894   24.1406 O   0  0  0  0  0  0  0  0  0  0  0  0
   11.1967  -17.9419   24.0864 N   0  0  0  0  0  0  0  0  0  0  0  0
   12.2998  -15.9418   24.1370 C   0  0  1  0  0  0  0  0  0  0  0  0
   13.6132  -16.5632   23.9779 C   0  0  0  0  0  0  0  0  0  0  0  0
   14.4598  -15.7619   23.0258 C   0  0  0  0  0  0  0  0  0  0  0  0
   13.8351  -15.5597   21.6999 C   0  0  0  0  0  0  0  0  0  0  0  0
   13.7694  -16.6173   20.7839 C   0  0  0  0  0  0  0  0  0  0  0  0
   13.1812  -16.4223   19.5515 C   0  0  0  0  0  0  0  0  0  0  0  0
   12.6405  -15.1924   19.1756 C   0  0  0  0  0  0  0  0  0  0  0  0
   12.7174  -14.1728   20.0906 C   0  0  0  0  0  0  0  0  0  0  0  0
   13.3020  -14.3628   21.3187 C   0  0  0  0  0  0  0  0  0  0  0  0
   14.2147  -16.8036   25.2856 O   0  0  0  0  0  0  0  0  0  0  0  0
   15.3545  -17.3657   25.4106 O   0  0  0  0  0  0  0  0  0  0  0  0
  2  1  1  0
  3  2  2  0
  4  2  1  0
  5  4  1  0
  6  7  1  0
  6  5  1  0
  8 10  1  0
  8  7  1  0
  8  9  1  1
 10 12  1  0
 11 10  2  0
 12 13  1  0
 13 24  1  0
 13 14  1  1
 14 15  1  0
 15 23  1  0
 15 16  2  0
 16 17  1  0
 18 17  1  0
 18 19  2  0
 20 19  1  0
 21 20  2  0
 22 23  2  0
 22 21  1  0
 23 18  1  0
 24 25  2  0
 26 27  1  0
 26 24  1  0
 27 35  1  0
 27 28  1  1
 29 28  1  0
 30 29  2  0
 31 30  1  0
 32 31  2  0
 32 33  1  0
 33 34  2  0
 34 29  1  0
 35 36  2  0
 35 37  1  0
M  END
$$$$
