RWF.pdb
     RDKit          3D

 37 39  0  0  1  0  0  0  0  0999 V2000
    9.0921  -21.1402   18.3984 N   0  0  0  0  0  0  0  0  0  0  0  0
    9.8476  -21.0557   17.1991 C   0  0  0  0  0  0  0  0  0  0  0  0
   10.0473  -22.1395   16.5190 N   0  0  0  0  0  0  0  0  0  0  0  0
   10.3904  -19.8279   16.7219 N   0  0  0  0  0  0  0  0  0  0  0  0
   10.2227  -18.5962   17.4933 C   0  0  0  0  0  0  0  0  0  0  0  0
   11.0860  -18.5942   18.7201 C   0  0  0  0  0  0  0  0  0  0  0  0
   10.8936  -17.3591   19.5789 C   0  0  0  0  0  0  0  0  0  0  0  0
   10.8692  -17.8244   21.0123 C   0  0  2  0  0  0  0  0  0  0  0  0
    9.8461  -18.8194   21.1574 N   0  0  0  0  0  0  0  0  0  0  0  0
   10.6578  -16.7456   21.9859 C   0  0  0  0  0  0  0  0  0  0  0  0
   11.4431  -15.7470   22.0267 O   0  0  0  0  0  0  0  0  0  0  0  0
   10.6187  -22.1405   15.6504 N   0  0  0  0  0  0  0  0  0  0  0  0
    9.5938  -16.7321   22.9290 C   0  0  1  0  0  0  0  0  0  0  0  0
    9.3140  -15.6006   23.7932 C   0  0  0  0  0  0  0  0  0  0  0  0
    7.8134  -15.3920   23.7771 C   0  0  0  0  0  0  0  0  0  0  0  0
    7.3213  -15.0462   22.4164 C   0  0  0  0  0  0  0  0  0  0  0  0
    6.5377  -15.8300   21.5838 N   0  0  0  0  0  0  0  0  0  0  0  0
    6.3153  -15.1378   20.4316 C   0  0  0  0  0  0  0  0  0  0  0  0
    6.9142  -13.9523   20.4808 C   0  0  0  0  0  0  0  0  0  0  0  0
    6.9783  -12.9150   19.5751 C   0  0  0  0  0  0  0  0  0  0  0  0
    7.6779  -11.7710   19.8746 C   0  0  0  0  0  0  0  0  0  0  0  0
    8.3088  -11.6872   21.0933 C   0  0  0  0  0  0  0  0  0  0  0  0
    8.2431  -12.7220   21.9930 C   0  0  0  0  0  0  0  0  0  0  0  0
    7.5489  -13.8802   21.7187 C   0  0  0  0  0  0  0  0  0  0  0  0
    9.8450  -15.8136   25.1636 O   0  0  0  0  0  0  0  0  0  0  0  0
    9.9500  -14.8385   25.9519 N   0  0  0  0  0  0  0  0  0  0  0  0
   10.2546  -17.0835   25.6574 C   0  0  1  0  0  0  0  0  0  0  0  0
   10.7435  -17.2825   27.0205 C   0  0  0  0  0  0  0  0  0  0  0  0
    9.7337  -16.7810   28.0175 C   0  0  0  0  0  0  0  0  0  0  0  0
    9.5089  -15.3200   27.9532 C   0  0  0  0  0  0  0  0  0  0  0  0
    8.3113  -14.8142   27.4319 C   0  0  0  0  0  0  0  0  0  0  0  0
    8.1070  -13.4510   27.3797 C   0  0  0  0  0  0  0  0  0  0  0  0
    9.0627  -12.5413   27.8334 C   0  0  0  0  0  0  0  0  0  0  0  0
   10.2268  -13.0621   28.3395 C   0  0  0  0  0  0  0  0  0  0  0  0
   10.4341  -14.4186   28.3934 C   0  0  0  0  0  0  0  0  0  0  0  0
   11.1574  -18.6695   27.2062 O   0  0  0  0  0  0  0  0  0  0  0  0
   11.6102  -19.0945   28.3220 O   0  0  0  0  0  0  0  0  0  0  0  0
  2  1  1  0
  3  2  2  0
  4  2  1  0
  5  4  1  0
  6  7  1  0
  6  5  1  0
  8 10  1  0
  8  7  1  0
  8  9  1  6
 10 12  1  0
 11 10  2  0
 12 13  1  0
 13 24  1  0
 13 14  1  6
 14 15  1  0
 15 23  1  0
 15 16  2  0
 16 17  1  0
 18 17  1  0
 18 19  2  0
 20 19  1  0
 21 20  2  0
 22 23  2  0
 22 21  1  0
 23 18  1  0
 24 25  2  0
 26 27  1  0
 26 24  1  0
 27 35  1  0
 27 28  1  6
 29 28  1  0
 30 29  2  0
 31 30  1  0
 32 31  2  0
 32 33  1  0
 33 34  2  0
 34 29  1  0
 35 36  2  0
 35 37  1  0
M  END
$$$$
