RWF.pdb
     RDKit          3D

 37 39  0  0  1  0  0  0  0  0999 V2000
    7.5833  -13.1005   13.5356 N   0  0  0  0  0  0  0  0  0  0  0  0
    8.4698  -13.9785   14.2139 C   0  0  0  0  0  0  0  0  0  0  0  0
    9.6355  -14.1989   13.6950 N   0  0  0  0  0  0  0  0  0  0  0  0
    8.1226  -14.6212   15.4371 N   0  0  0  0  0  0  0  0  0  0  0  0
    8.6665  -14.1379   16.7063 C   0  0  0  0  0  0  0  0  0  0  0  0
    9.0888  -15.2733   17.5912 C   0  0  0  0  0  0  0  0  0  0  0  0
    9.2540  -14.8648   19.0423 C   0  0  0  0  0  0  0  0  0  0  0  0
    9.9451  -16.0077   19.7409 C   0  0  2  0  0  0  0  0  0  0  0  0
    9.2539  -17.2253   19.4288 N   0  0  0  0  0  0  0  0  0  0  0  0
   10.0395  -15.8466   21.1974 C   0  0  0  0  0  0  0  0  0  0  0  0
   10.5864  -14.8157   21.7010 O   0  0  0  0  0  0  0  0  0  0  0  0
   10.3361  -14.8057   14.1662 N   0  0  0  0  0  0  0  0  0  0  0  0
    9.5435  -16.7987   22.1297 C   0  0  1  0  0  0  0  0  0  0  0  0
    9.5586  -16.5862   23.5650 C   0  0  0  0  0  0  0  0  0  0  0  0
    8.1493  -16.8326   24.0636 C   0  0  0  0  0  0  0  0  0  0  0  0
    7.2550  -15.6792   23.7757 C   0  0  0  0  0  0  0  0  0  0  0  0
    6.4004  -15.5301   22.6944 N   0  0  0  0  0  0  0  0  0  0  0  0
    5.7671  -14.3297   22.8137 C   0  0  0  0  0  0  0  0  0  0  0  0
    6.1697  -13.7012   23.9133 C   0  0  0  0  0  0  0  0  0  0  0  0
    5.8241  -12.4818   24.4555 C   0  0  0  0  0  0  0  0  0  0  0  0
    6.3975  -12.0532   25.6283 C   0  0  0  0  0  0  0  0  0  0  0  0
    7.3195  -12.8664   26.2440 C   0  0  0  0  0  0  0  0  0  0  0  0
    7.6616  -14.0801   25.7015 C   0  0  0  0  0  0  0  0  0  0  0  0
    7.1024  -14.5343   24.5270 C   0  0  0  0  0  0  0  0  0  0  0  0
   10.5603  -17.4527   24.2364 O   0  0  0  0  0  0  0  0  0  0  0  0
   10.6122  -18.6790   23.9592 N   0  0  0  0  0  0  0  0  0  0  0  0
   11.4913  -16.9740   25.2001 C   0  0  2  0  0  0  0  0  0  0  0  0
   11.7350  -17.6538   26.4709 C   0  0  0  0  0  0  0  0  0  0  0  0
   10.6171  -17.3719   27.4384 C   0  0  0  0  0  0  0  0  0  0  0  0
   10.4530  -15.9362   27.7563 C   0  0  0  0  0  0  0  0  0  0  0  0
    9.1715  -15.3848   27.8815 C   0  0  0  0  0  0  0  0  0  0  0  0
    9.0266  -14.0465   28.1827 C   0  0  0  0  0  0  0  0  0  0  0  0
   10.1248  -13.2068   28.3705 C   0  0  0  0  0  0  0  0  0  0  0  0
   11.3689  -13.7712   28.2426 C   0  0  0  0  0  0  0  0  0  0  0  0
   11.5176  -15.1032   27.9429 C   0  0  0  0  0  0  0  0  0  0  0  0
   12.0069  -19.0684   26.2376 O   0  0  0  0  0  0  0  0  0  0  0  0
   12.3598  -19.8520   27.1821 O   0  0  0  0  0  0  0  0  0  0  0  0
  2  1  1  0
  3  2  2  0
  4  2  1  0
  5  4  1  0
  6  7  1  0
  6  5  1  0
  8 10  1  0
  8  7  1  0
  8  9  1  1
 10 12  1  0
 11 10  2  0
 12 13  1  0
 13 24  1  0
 13 14  1  1
 14 15  1  0
 15 23  1  0
 15 16  2  0
 16 17  1  0
 18 17  1  0
 18 19  2  0
 20 19  1  0
 21 20  2  0
 22 23  2  0
 22 21  1  0
 23 18  1  0
 24 25  2  0
 26 27  1  0
 26 24  1  0
 27 35  1  0
 27 28  1  6
 29 28  1  0
 30 29  2  0
 31 30  1  0
 32 31  2  0
 32 33  1  0
 33 34  2  0
 34 29  1  0
 35 36  2  0
 35 37  1  0
M  END
$$$$
