RWF.pdb
     RDKit          3D

 37 39  0  0  1  0  0  0  0  0999 V2000
    9.2663  -13.1492   13.7966 N   0  0  0  0  0  0  0  0  0  0  0  0
    8.8140  -13.8411   14.9512 C   0  0  0  0  0  0  0  0  0  0  0  0
    8.2731  -13.1561   15.9077 N   0  0  0  0  0  0  0  0  0  0  0  0
    8.9346  -15.2537   15.0925 N   0  0  0  0  0  0  0  0  0  0  0  0
    9.5933  -15.8254   16.2671 C   0  0  0  0  0  0  0  0  0  0  0  0
    8.8620  -15.4793   17.5303 C   0  0  0  0  0  0  0  0  0  0  0  0
    8.4182  -16.7004   18.3125 C   0  0  0  0  0  0  0  0  0  0  0  0
    9.5163  -17.0098   19.2976 C   0  0  2  0  0  0  0  0  0  0  0  0
    9.5078  -18.4179   19.5715 N   0  0  0  0  0  0  0  0  0  0  0  0
    9.4195  -16.2563   20.5543 C   0  0  0  0  0  0  0  0  0  0  0  0
    9.8090  -15.0480   20.6167 O   0  0  0  0  0  0  0  0  0  0  0  0
    7.8733  -13.6168   16.7497 N   0  0  0  0  0  0  0  0  0  0  0  0
    8.9000  -16.7996   21.7612 C   0  0  1  0  0  0  0  0  0  0  0  0
    8.7778  -16.0342   22.9879 C   0  0  0  0  0  0  0  0  0  0  0  0
    7.4640  -16.4325   23.6289 C   0  0  0  0  0  0  0  0  0  0  0  0
    7.0450  -15.4596   24.6735 C   0  0  0  0  0  0  0  0  0  0  0  0
    6.4129  -15.7396   25.8750 N   0  0  0  0  0  0  0  0  0  0  0  0
    6.2085  -14.5644   26.5333 C   0  0  0  0  0  0  0  0  0  0  0  0
    6.6757  -13.5460   25.8184 C   0  0  0  0  0  0  0  0  0  0  0  0
    6.7013  -12.1886   26.0573 C   0  0  0  0  0  0  0  0  0  0  0  0
    7.2542  -11.3298   25.1383 C   0  0  0  0  0  0  0  0  0  0  0  0
    7.7783  -11.8552   23.9809 C   0  0  0  0  0  0  0  0  0  0  0  0
    7.7511  -13.2075   23.7458 C   0  0  0  0  0  0  0  0  0  0  0  0
    7.2030  -14.0911   24.6499 C   0  0  0  0  0  0  0  0  0  0  0  0
    9.9394  -16.2513   23.8870 O   0  0  0  0  0  0  0  0  0  0  0  0
   10.9618  -15.5267   23.7737 N   0  0  0  0  0  0  0  0  0  0  0  0
    9.9734  -17.2535   24.8966 C   0  0  1  0  0  0  0  0  0  0  0  0
   11.1067  -17.4252   25.8035 C   0  0  0  0  0  0  0  0  0  0  0  0
   10.6461  -17.3619   27.2350 C   0  0  0  0  0  0  0  0  0  0  0  0
   10.0579  -16.0582   27.6139 C   0  0  0  0  0  0  0  0  0  0  0  0
   10.8755  -14.9287   27.7462 C   0  0  0  0  0  0  0  0  0  0  0  0
   10.3191  -13.7157   28.0950 C   0  0  0  0  0  0  0  0  0  0  0  0
    8.9510  -13.5676   28.3251 C   0  0  0  0  0  0  0  0  0  0  0  0
    8.1719  -14.6888   28.1888 C   0  0  0  0  0  0  0  0  0  0  0  0
    8.7219  -15.8983   27.8416 C   0  0  0  0  0  0  0  0  0  0  0  0
   11.8541  -18.6272   25.4485 O   0  0  0  0  0  0  0  0  0  0  0  0
   12.9266  -18.9589   26.0572 O   0  0  0  0  0  0  0  0  0  0  0  0
  2  1  1  0
  3  2  2  0
  4  2  1  0
  5  4  1  0
  6  7  1  0
  6  5  1  0
  8 10  1  0
  8  7  1  0
  8  9  1  1
 10 12  1  0
 11 10  2  0
 12 13  1  0
 13 24  1  0
 13 14  1  1
 14 15  1  0
 15 23  1  0
 15 16  2  0
 16 17  1  0
 18 17  1  0
 18 19  2  0
 20 19  1  0
 21 20  2  0
 22 23  2  0
 22 21  1  0
 23 18  1  0
 24 25  2  0
 26 27  1  0
 26 24  1  0
 27 35  1  0
 27 28  1  1
 29 28  1  0
 30 29  2  0
 31 30  1  0
 32 31  2  0
 32 33  1  0
 33 34  2  0
 34 29  1  0
 35 36  2  0
 35 37  1  0
M  END
$$$$
