RWF.pdb
     RDKit          3D

 37 39  0  0  1  0  0  0  0  0999 V2000
   15.4813  -20.4639   16.8058 N   0  0  0  0  0  0  0  0  0  0  0  0
   14.3729  -20.4949   15.9187 C   0  0  0  0  0  0  0  0  0  0  0  0
   14.3168  -21.4401   15.0354 N   0  0  0  0  0  0  0  0  0  0  0  0
   13.3277  -19.5278   15.9665 N   0  0  0  0  0  0  0  0  0  0  0  0
   13.3829  -18.4268   16.9283 C   0  0  0  0  0  0  0  0  0  0  0  0
   12.5879  -18.7349   18.1626 C   0  0  0  0  0  0  0  0  0  0  0  0
   12.6791  -17.6460   19.2142 C   0  0  0  0  0  0  0  0  0  0  0  0
   11.3092  -17.0263   19.3199 C   0  0  2  0  0  0  0  0  0  0  0  0
   11.2158  -15.9488   18.3775 N   0  0  0  0  0  0  0  0  0  0  0  0
   10.9758  -16.5427   20.6657 C   0  0  0  0  0  0  0  0  0  0  0  0
   11.6868  -15.6519   21.2284 O   0  0  0  0  0  0  0  0  0  0  0  0
   13.5091  -21.5335   14.3873 N   0  0  0  0  0  0  0  0  0  0  0  0
    9.8685  -17.0160   21.4217 C   0  0  2  0  0  0  0  0  0  0  0  0
    9.5828  -16.5722   22.7733 C   0  0  0  0  0  0  0  0  0  0  0  0
    8.0790  -16.4212   22.8808 C   0  0  0  0  0  0  0  0  0  0  0  0
    7.6645  -14.9937   22.8209 C   0  0  0  0  0  0  0  0  0  0  0  0
    7.6725  -14.1640   21.7104 N   0  0  0  0  0  0  0  0  0  0  0  0
    7.2171  -12.9377   22.0910 C   0  0  0  0  0  0  0  0  0  0  0  0
    6.9175  -12.9365   23.3859 C   0  0  0  0  0  0  0  0  0  0  0  0
    6.4299  -11.9508   24.2171 C   0  0  0  0  0  0  0  0  0  0  0  0
    6.2003  -12.2111   25.5465 C   0  0  0  0  0  0  0  0  0  0  0  0
    6.4676  -13.4723   26.0243 C   0  0  0  0  0  0  0  0  0  0  0  0
    6.9534  -14.4517   25.1940 C   0  0  0  0  0  0  0  0  0  0  0  0
    7.1927  -14.2181   23.8574 C   0  0  0  0  0  0  0  0  0  0  0  0
   10.1353  -17.5080   23.7853 O   0  0  0  0  0  0  0  0  0  0  0  0
   11.2852  -17.9933   23.6261 N   0  0  0  0  0  0  0  0  0  0  0  0
    9.4297  -17.9033   24.9560 C   0  0  1  0  0  0  0  0  0  0  0  0
    9.6608  -17.2924   26.2636 C   0  0  0  0  0  0  0  0  0  0  0  0
    9.6062  -15.7920   26.1576 C   0  0  0  0  0  0  0  0  0  0  0  0
    9.7692  -15.0976   27.4539 C   0  0  0  0  0  0  0  0  0  0  0  0
   10.9174  -15.3108   28.2273 C   0  0  0  0  0  0  0  0  0  0  0  0
   11.0644  -14.6560   29.4325 C   0  0  0  0  0  0  0  0  0  0  0  0
   10.0980  -13.7753   29.9192 C   0  0  0  0  0  0  0  0  0  0  0  0
    8.9830  -13.5836   29.1428 C   0  0  0  0  0  0  0  0  0  0  0  0
    8.8328  -14.2334   27.9423 C   0  0  0  0  0  0  0  0  0  0  0  0
    8.7605  -17.8741   27.2538 O   0  0  0  0  0  0  0  0  0  0  0  0
    9.1967  -18.4340   28.3154 O   0  0  0  0  0  0  0  0  0  0  0  0
  2  1  1  0
  3  2  2  0
  4  2  1  0
  5  4  1  0
  6  7  1  0
  6  5  1  0
  8 10  1  0
  8  7  1  0
  8  9  1  6
 10 12  1  0
 11 10  2  0
 12 13  1  0
 13 24  1  0
 13 14  1  6
 14 15  1  0
 15 23  1  0
 15 16  2  0
 16 17  1  0
 18 17  1  0
 18 19  2  0
 20 19  1  0
 21 20  2  0
 22 23  2  0
 22 21  1  0
 23 18  1  0
 24 25  2  0
 26 27  1  0
 26 24  1  0
 27 35  1  0
 27 28  1  1
 29 28  1  0
 30 29  2  0
 31 30  1  0
 32 31  2  0
 32 33  1  0
 33 34  2  0
 34 29  1  0
 35 36  2  0
 35 37  1  0
M  END
$$$$
