RWF.pdb
     RDKit          3D

 37 39  0  0  1  0  0  0  0  0999 V2000
   11.0775  -21.7655   16.2630 N   0  0  0  0  0  0  0  0  0  0  0  0
   11.4294  -21.1039   15.0568 C   0  0  0  0  0  0  0  0  0  0  0  0
   11.2725  -21.7371   13.9382 N   0  0  0  0  0  0  0  0  0  0  0  0
   11.9462  -19.7764   15.0353 N   0  0  0  0  0  0  0  0  0  0  0  0
   12.2167  -19.0681   16.2866 C   0  0  0  0  0  0  0  0  0  0  0  0
   10.9724  -18.9122   17.1099 C   0  0  0  0  0  0  0  0  0  0  0  0
   11.0392  -17.7401   18.0699 C   0  0  0  0  0  0  0  0  0  0  0  0
   10.7135  -18.2791   19.4392 C   0  0  2  0  0  0  0  0  0  0  0  0
    9.5554  -19.1198   19.3411 N   0  0  0  0  0  0  0  0  0  0  0  0
   10.4910  -17.2392   20.4519 C   0  0  0  0  0  0  0  0  0  0  0  0
   11.3757  -16.3549   20.6774 O   0  0  0  0  0  0  0  0  0  0  0  0
   11.5516  -21.3159   13.0295 N   0  0  0  0  0  0  0  0  0  0  0  0
    9.3081  -17.1415   21.2348 C   0  0  1  0  0  0  0  0  0  0  0  0
    9.1604  -16.2084   22.3362 C   0  0  0  0  0  0  0  0  0  0  0  0
    7.7214  -15.7346   22.3247 C   0  0  0  0  0  0  0  0  0  0  0  0
    7.5620  -14.4441   23.0475 C   0  0  0  0  0  0  0  0  0  0  0  0
    7.9156  -13.1816   22.5973 N   0  0  0  0  0  0  0  0  0  0  0  0
    7.6001  -12.2789   23.5678 C   0  0  0  0  0  0  0  0  0  0  0  0
    7.0633  -12.8949   24.6161 C   0  0  0  0  0  0  0  0  0  0  0  0
    6.5918  -12.4196   25.8211 C   0  0  0  0  0  0  0  0  0  0  0  0
    6.0739  -13.2831   26.7560 C   0  0  0  0  0  0  0  0  0  0  0  0
    6.0379  -14.6255   26.4612 C   0  0  0  0  0  0  0  0  0  0  0  0
    6.5084  -15.0957   25.2602 C   0  0  0  0  0  0  0  0  0  0  0  0
    7.0328  -14.2524   24.3051 C   0  0  0  0  0  0  0  0  0  0  0  0
    9.5474  -16.8239   23.6310 O   0  0  0  0  0  0  0  0  0  0  0  0
    8.8586  -17.7629   24.1075 N   0  0  0  0  0  0  0  0  0  0  0  0
   10.6775  -16.4096   24.3898 C   0  0  2  0  0  0  0  0  0  0  0  0
   10.9026  -16.8338   25.7703 C   0  0  0  0  0  0  0  0  0  0  0  0
    9.6385  -16.6909   26.5747 C   0  0  0  0  0  0  0  0  0  0  0  0
    9.7459  -15.7178   27.6841 C   0  0  0  0  0  0  0  0  0  0  0  0
    9.5599  -14.3508   27.4421 C   0  0  0  0  0  0  0  0  0  0  0  0
    9.6569  -13.4502   28.4824 C   0  0  0  0  0  0  0  0  0  0  0  0
    9.9377  -13.8545   29.7878 C   0  0  0  0  0  0  0  0  0  0  0  0
   10.1154  -15.1987   29.9985 C   0  0  0  0  0  0  0  0  0  0  0  0
   10.0196  -16.0986   28.9656 C   0  0  0  0  0  0  0  0  0  0  0  0
   11.5016  -18.1643   25.7937 O   0  0  0  0  0  0  0  0  0  0  0  0
   11.3880  -18.9724   24.8115 O   0  0  0  0  0  0  0  0  0  0  0  0
  2  1  1  0
  3  2  2  0
  4  2  1  0
  5  4  1  0
  6  7  1  0
  6  5  1  0
  8 10  1  0
  8  7  1  0
  8  9  1  6
 10 12  1  0
 11 10  2  0
 12 13  1  0
 13 24  1  0
 13 14  1  6
 14 15  1  0
 15 23  1  0
 15 16  2  0
 16 17  1  0
 18 17  1  0
 18 19  2  0
 20 19  1  0
 21 20  2  0
 22 23  2  0
 22 21  1  0
 23 18  1  0
 24 25  2  0
 26 27  1  0
 26 24  1  0
 27 35  1  0
 27 28  1  6
 29 28  1  0
 30 29  2  0
 31 30  1  0
 32 31  2  0
 32 33  1  0
 33 34  2  0
 34 29  1  0
 35 36  2  0
 35 37  1  0
M  END
$$$$
