RWF.pdb
     RDKit          3D

 37 39  0  0  1  0  0  0  0  0999 V2000
    8.7097  -12.8896   14.9358 N   0  0  0  0  0  0  0  0  0  0  0  0
    7.6491  -13.8314   15.0045 C   0  0  0  0  0  0  0  0  0  0  0  0
    7.2643  -14.4070   13.9103 N   0  0  0  0  0  0  0  0  0  0  0  0
    6.9980  -14.1620   16.2279 N   0  0  0  0  0  0  0  0  0  0  0  0
    7.5860  -13.7677   17.5082 C   0  0  0  0  0  0  0  0  0  0  0  0
    8.0982  -14.9562   18.2670 C   0  0  0  0  0  0  0  0  0  0  0  0
    8.8655  -14.5754   19.5184 C   0  0  0  0  0  0  0  0  0  0  0  0
    9.2664  -15.8625   20.1925 C   0  0  2  0  0  0  0  0  0  0  0  0
    8.2121  -16.8204   20.0229 N   0  0  0  0  0  0  0  0  0  0  0  0
    9.5822  -15.7153   21.6189 C   0  0  0  0  0  0  0  0  0  0  0  0
   10.4639  -14.8851   22.0048 O   0  0  0  0  0  0  0  0  0  0  0  0
    6.6219  -15.2244   13.9211 N   0  0  0  0  0  0  0  0  0  0  0  0
    8.9486  -16.4643   22.6481 C   0  0  1  0  0  0  0  0  0  0  0  0
    9.2006  -16.2439   24.0600 C   0  0  0  0  0  0  0  0  0  0  0  0
    8.0022  -16.7844   24.8131 C   0  0  0  0  0  0  0  0  0  0  0  0
    7.0015  -15.7191   25.0907 C   0  0  0  0  0  0  0  0  0  0  0  0
    5.6515  -15.8857   25.3576 N   0  0  0  0  0  0  0  0  0  0  0  0
    5.1004  -14.6551   25.5530 C   0  0  0  0  0  0  0  0  0  0  0  0
    6.0246  -13.7085   25.4258 C   0  0  0  0  0  0  0  0  0  0  0  0
    5.9570  -12.3357   25.5314 C   0  0  0  0  0  0  0  0  0  0  0  0
    7.0814  -11.5668   25.3515 C   0  0  0  0  0  0  0  0  0  0  0  0
    8.2691  -12.1975   25.0651 C   0  0  0  0  0  0  0  0  0  0  0  0
    8.3332  -13.5648   24.9604 C   0  0  0  0  0  0  0  0  0  0  0  0
    7.2215  -14.3597   25.1359 C   0  0  0  0  0  0  0  0  0  0  0  0
   10.4756  -16.8701   24.4930 O   0  0  0  0  0  0  0  0  0  0  0  0
   11.0323  -17.7269   23.7587 N   0  0  0  0  0  0  0  0  0  0  0  0
   11.1271  -16.5562   25.7184 C   0  0  1  0  0  0  0  0  0  0  0  0
   12.2662  -17.3181   26.2268 C   0  0  0  0  0  0  0  0  0  0  0  0
   13.0060  -16.5219   27.2680 C   0  0  0  0  0  0  0  0  0  0  0  0
   12.1264  -15.6829   28.1116 C   0  0  0  0  0  0  0  0  0  0  0  0
   11.8253  -16.0748   29.4223 C   0  0  0  0  0  0  0  0  0  0  0  0
   11.0084  -15.2849   30.2042 C   0  0  0  0  0  0  0  0  0  0  0  0
   10.4611  -14.0912   29.7327 C   0  0  0  0  0  0  0  0  0  0  0  0
   10.7714  -13.7297   28.4460 C   0  0  0  0  0  0  0  0  0  0  0  0
   11.5844  -14.5132   27.6642 C   0  0  0  0  0  0  0  0  0  0  0  0
   11.8303  -18.6424   26.6576 O   0  0  0  0  0  0  0  0  0  0  0  0
   10.5940  -18.9506   26.7435 O   0  0  0  0  0  0  0  0  0  0  0  0
  2  1  1  0
  3  2  2  0
  4  2  1  0
  5  4  1  0
  6  7  1  0
  6  5  1  0
  8 10  1  0
  8  7  1  0
  8  9  1  1
 10 12  1  0
 11 10  2  0
 12 13  1  0
 13 24  1  0
 13 14  1  6
 14 15  1  0
 15 23  1  0
 15 16  2  0
 16 17  1  0
 18 17  1  0
 18 19  2  0
 20 19  1  0
 21 20  2  0
 22 23  2  0
 22 21  1  0
 23 18  1  0
 24 25  2  0
 26 27  1  0
 26 24  1  0
 27 35  1  0
 27 28  1  1
 29 28  1  0
 30 29  2  0
 31 30  1  0
 32 31  2  0
 32 33  1  0
 33 34  2  0
 34 29  1  0
 35 36  2  0
 35 37  1  0
M  END
$$$$
