RWF.pdb
     RDKit          3D

 37 39  0  0  1  0  0  0  0  0999 V2000
   10.2755  -14.8974   15.6191 N   0  0  0  0  0  0  0  0  0  0  0  0
    9.0041  -14.3031   15.4027 C   0  0  0  0  0  0  0  0  0  0  0  0
    8.9381  -13.2399   14.6665 N   0  0  0  0  0  0  0  0  0  0  0  0
    7.8068  -14.8325   15.9647 N   0  0  0  0  0  0  0  0  0  0  0  0
    7.6936  -15.0320   17.4096 C   0  0  0  0  0  0  0  0  0  0  0  0
    8.4009  -13.9501   18.1709 C   0  0  0  0  0  0  0  0  0  0  0  0
    8.2427  -14.0812   19.6734 C   0  0  0  0  0  0  0  0  0  0  0  0
    9.0790  -15.2609   20.0985 C   0  0  2  0  0  0  0  0  0  0  0  0
    8.3436  -16.4652   19.8403 N   0  0  0  0  0  0  0  0  0  0  0  0
    9.4935  -15.2214   21.5067 C   0  0  0  0  0  0  0  0  0  0  0  0
   10.1693  -14.2431   21.9558 O   0  0  0  0  0  0  0  0  0  0  0  0
    8.0404  -12.7389   14.5115 N   0  0  0  0  0  0  0  0  0  0  0  0
    9.1825  -16.2399   22.4489 C   0  0  1  0  0  0  0  0  0  0  0  0
    9.3958  -16.0921   23.8765 C   0  0  0  0  0  0  0  0  0  0  0  0
    8.0912  -16.4510   24.5583 C   0  0  0  0  0  0  0  0  0  0  0  0
    7.0710  -15.3814   24.3902 C   0  0  0  0  0  0  0  0  0  0  0  0
    6.0583  -15.3296   23.4451 N   0  0  0  0  0  0  0  0  0  0  0  0
    5.3508  -14.1818   23.6406 C   0  0  0  0  0  0  0  0  0  0  0  0
    5.8555  -13.4949   24.6603 C   0  0  0  0  0  0  0  0  0  0  0  0
    5.4919  -12.2941   25.2314 C   0  0  0  0  0  0  0  0  0  0  0  0
    6.1924  -11.7908   26.3009 C   0  0  0  0  0  0  0  0  0  0  0  0
    7.2592  -12.5107   26.7845 C   0  0  0  0  0  0  0  0  0  0  0  0
    7.6189  -13.7062   26.2135 C   0  0  0  0  0  0  0  0  0  0  0  0
    6.9343  -14.2340   25.1405 C   0  0  0  0  0  0  0  0  0  0  0  0
   10.5330  -16.9219   24.3492 O   0  0  0  0  0  0  0  0  0  0  0  0
   11.1966  -17.6013   23.5239 N   0  0  0  0  0  0  0  0  0  0  0  0
   10.9324  -17.0016   25.7125 C   0  0  1  0  0  0  0  0  0  0  0  0
   12.0363  -17.8456   26.1658 C   0  0  0  0  0  0  0  0  0  0  0  0
   12.6015  -17.3195   27.4577 C   0  0  0  0  0  0  0  0  0  0  0  0
   11.7975  -16.2334   28.0604 C   0  0  0  0  0  0  0  0  0  0  0  0
   11.0498  -16.4716   29.2206 C   0  0  0  0  0  0  0  0  0  0  0  0
   10.3065  -15.4527   29.7793 C   0  0  0  0  0  0  0  0  0  0  0  0
   10.2698  -14.1731   29.2246 C   0  0  0  0  0  0  0  0  0  0  0  0
   11.0109  -13.9656   28.0886 C   0  0  0  0  0  0  0  0  0  0  0  0
   11.7523  -14.9772   27.5293 C   0  0  0  0  0  0  0  0  0  0  0  0
   11.6167  -19.2429   26.1997 O   0  0  0  0  0  0  0  0  0  0  0  0
   10.4044  -19.5881   25.9951 O   0  0  0  0  0  0  0  0  0  0  0  0
  2  1  1  0
  3  2  2  0
  4  2  1  0
  5  4  1  0
  6  7  1  0
  6  5  1  0
  8 10  1  0
  8  7  1  0
  8  9  1  1
 10 12  1  0
 11 10  2  0
 12 13  1  0
 13 24  1  0
 13 14  1  1
 14 15  1  0
 15 23  1  0
 15 16  2  0
 16 17  1  0
 18 17  1  0
 18 19  2  0
 20 19  1  0
 21 20  2  0
 22 23  2  0
 22 21  1  0
 23 18  1  0
 24 25  2  0
 26 27  1  0
 26 24  1  0
 27 35  1  0
 27 28  1  1
 29 28  1  0
 30 29  2  0
 31 30  1  0
 32 31  2  0
 32 33  1  0
 33 34  2  0
 34 29  1  0
 35 36  2  0
 35 37  1  0
M  END
$$$$
