RWF.pdb
     RDKit          3D

 37 39  0  0  1  0  0  0  0  0999 V2000
    7.3520  -17.6990   16.9426 N   0  0  0  0  0  0  0  0  0  0  0  0
    8.1122  -18.5849   17.7513 C   0  0  0  0  0  0  0  0  0  0  0  0
    9.4009  -18.4592   17.7595 N   0  0  0  0  0  0  0  0  0  0  0  0
    7.5096  -19.6008   18.5479 N   0  0  0  0  0  0  0  0  0  0  0  0
    6.0750  -19.5633   18.8325 C   0  0  0  0  0  0  0  0  0  0  0  0
    5.7220  -18.4113   19.7263 C   0  0  0  0  0  0  0  0  0  0  0  0
    4.6022  -18.7347   20.6966 C   0  0  0  0  0  0  0  0  0  0  0  0
    5.2520  -19.0891   22.0096 C   0  0  2  0  0  0  0  0  0  0  0  0
    4.2888  -19.7579   22.8358 N   0  0  0  0  0  0  0  0  0  0  0  0
    5.8116  -17.9371   22.7280 C   0  0  0  0  0  0  0  0  0  0  0  0
    5.2073  -16.8189   22.7297 O   0  0  0  0  0  0  0  0  0  0  0  0
   10.0011  -19.0368   18.3818 N   0  0  0  0  0  0  0  0  0  0  0  0
    7.0331  -17.9787   23.4546 C   0  0  1  0  0  0  0  0  0  0  0  0
    7.7965  -16.7917   23.7919 C   0  0  0  0  0  0  0  0  0  0  0  0
    7.9163  -16.7570   25.3019 C   0  0  0  0  0  0  0  0  0  0  0  0
    7.1679  -15.6117   25.8863 C   0  0  0  0  0  0  0  0  0  0  0  0
    5.8208  -15.5681   26.2104 N   0  0  0  0  0  0  0  0  0  0  0  0
    5.5440  -14.3344   26.7181 C   0  0  0  0  0  0  0  0  0  0  0  0
    6.6414  -13.5848   26.7368 C   0  0  0  0  0  0  0  0  0  0  0  0
    6.8643  -12.2895   27.1524 C   0  0  0  0  0  0  0  0  0  0  0  0
    8.1189  -11.7359   27.0649 C   0  0  0  0  0  0  0  0  0  0  0  0
    9.1405  -12.5020   26.5553 C   0  0  0  0  0  0  0  0  0  0  0  0
    8.9152  -13.7917   26.1421 C   0  0  0  0  0  0  0  0  0  0  0  0
    7.6675  -14.3714   26.2185 C   0  0  0  0  0  0  0  0  0  0  0  0
    9.1181  -16.7799   23.1150 O   0  0  0  0  0  0  0  0  0  0  0  0
    9.7322  -17.8613   22.9236 N   0  0  0  0  0  0  0  0  0  0  0  0
    9.7537  -15.5925   22.6560 C   0  0  1  0  0  0  0  0  0  0  0  0
   10.9628  -15.6087   21.8349 C   0  0  0  0  0  0  0  0  0  0  0  0
   11.0538  -14.3519   21.0118 C   0  0  0  0  0  0  0  0  0  0  0  0
    9.7726  -13.9560   20.3865 C   0  0  0  0  0  0  0  0  0  0  0  0
    8.8785  -14.9343   19.9332 C   0  0  0  0  0  0  0  0  0  0  0  0
    7.6838  -14.5574   19.3557 C   0  0  0  0  0  0  0  0  0  0  0  0
    7.3255  -13.2177   19.2029 C   0  0  0  0  0  0  0  0  0  0  0  0
    8.2184  -12.2791   19.6551 C   0  0  0  0  0  0  0  0  0  0  0  0
    9.4087  -12.6500   20.2308 C   0  0  0  0  0  0  0  0  0  0  0  0
   12.1290  -15.8868   22.6670 O   0  0  0  0  0  0  0  0  0  0  0  0
   12.0534  -15.9308   23.9410 O   0  0  0  0  0  0  0  0  0  0  0  0
  2  1  1  0
  3  2  2  0
  4  2  1  0
  5  4  1  0
  6  7  1  0
  6  5  1  0
  8 10  1  0
  8  7  1  0
  8  9  1  1
 10 12  1  0
 11 10  2  0
 12 13  1  0
 13 24  1  0
 13 14  1  1
 14 15  1  0
 15 23  1  0
 15 16  2  0
 16 17  1  0
 18 17  1  0
 18 19  2  0
 20 19  1  0
 21 20  2  0
 22 23  2  0
 22 21  1  0
 23 18  1  0
 24 25  2  0
 26 27  1  0
 26 24  1  0
 27 35  1  0
 27 28  1  6
 29 28  1  0
 30 29  2  0
 31 30  1  0
 32 31  2  0
 32 33  1  0
 33 34  2  0
 34 29  1  0
 35 36  2  0
 35 37  1  0
M  END
$$$$
