RWF.pdb
     RDKit          3D

 37 39  0  0  1  0  0  0  0  0999 V2000
   13.2573  -19.1962   16.1737 N   0  0  0  0  0  0  0  0  0  0  0  0
   12.2151  -19.8542   15.4685 C   0  0  0  0  0  0  0  0  0  0  0  0
   12.5274  -20.8304   14.6771 N   0  0  0  0  0  0  0  0  0  0  0  0
   10.8470  -19.4792   15.6004 N   0  0  0  0  0  0  0  0  0  0  0  0
   10.4747  -18.3087   16.3952 C   0  0  0  0  0  0  0  0  0  0  0  0
   10.2497  -18.6700   17.8337 C   0  0  0  0  0  0  0  0  0  0  0  0
   10.9841  -17.7570   18.7966 C   0  0  0  0  0  0  0  0  0  0  0  0
   10.5386  -18.1389   20.1849 C   0  0  2  0  0  0  0  0  0  0  0  0
    9.2761  -18.8140   20.0954 N   0  0  0  0  0  0  0  0  0  0  0  0
   10.4331  -17.0039   21.1105 C   0  0  0  0  0  0  0  0  0  0  0  0
   11.4327  -16.2492   21.3266 O   0  0  0  0  0  0  0  0  0  0  0  0
   11.8086  -21.3253   14.1118 N   0  0  0  0  0  0  0  0  0  0  0  0
    9.2444  -16.6693   21.8154 C   0  0  1  0  0  0  0  0  0  0  0  0
    9.1235  -15.4902   22.6524 C   0  0  0  0  0  0  0  0  0  0  0  0
    7.6756  -15.0485   22.5881 C   0  0  0  0  0  0  0  0  0  0  0  0
    7.0932  -14.8750   23.9460 C   0  0  0  0  0  0  0  0  0  0  0  0
    6.6435  -15.8708   24.7991 N   0  0  0  0  0  0  0  0  0  0  0  0
    6.1874  -15.2814   25.9396 C   0  0  0  0  0  0  0  0  0  0  0  0
    6.3206  -13.9612   25.8636 C   0  0  0  0  0  0  0  0  0  0  0  0
    6.0083  -12.9520   26.7491 C   0  0  0  0  0  0  0  0  0  0  0  0
    6.2510  -11.6394   26.4233 C   0  0  0  0  0  0  0  0  0  0  0  0
    6.8099  -11.3594   25.1987 C   0  0  0  0  0  0  0  0  0  0  0  0
    7.1196  -12.3668   24.3190 C   0  0  0  0  0  0  0  0  0  0  0  0
    6.8869  -13.6911   24.6199 C   0  0  0  0  0  0  0  0  0  0  0  0
    9.5772  -15.7555   24.0413 O   0  0  0  0  0  0  0  0  0  0  0  0
    9.6467  -14.8093   24.8678 N   0  0  0  0  0  0  0  0  0  0  0  0
    9.9492  -17.0457   24.5119 C   0  0  2  0  0  0  0  0  0  0  0  0
   10.4897  -17.2744   25.8506 C   0  0  0  0  0  0  0  0  0  0  0  0
    9.6066  -16.6350   26.8882 C   0  0  0  0  0  0  0  0  0  0  0  0
   10.2200  -15.4632   27.5515 C   0  0  0  0  0  0  0  0  0  0  0  0
    9.7633  -14.1712   27.2618 C   0  0  0  0  0  0  0  0  0  0  0  0
   10.3369  -13.0841   27.8878 C   0  0  0  0  0  0  0  0  0  0  0  0
   11.3714  -13.2236   28.8135 C   0  0  0  0  0  0  0  0  0  0  0  0
   11.8005  -14.4994   29.0798 C   0  0  0  0  0  0  0  0  0  0  0  0
   11.2320  -15.5844   28.4588 C   0  0  0  0  0  0  0  0  0  0  0  0
   10.7459  -18.6970   26.0506 O   0  0  0  0  0  0  0  0  0  0  0  0
   10.4311  -19.5689   25.1723 O   0  0  0  0  0  0  0  0  0  0  0  0
  2  1  1  0
  3  2  2  0
  4  2  1  0
  5  4  1  0
  6  7  1  0
  6  5  1  0
  8 10  1  0
  8  7  1  0
  8  9  1  6
 10 12  1  0
 11 10  2  0
 12 13  1  0
 13 24  1  0
 13 14  1  6
 14 15  1  0
 15 23  1  0
 15 16  2  0
 16 17  1  0
 18 17  1  0
 18 19  2  0
 20 19  1  0
 21 20  2  0
 22 23  2  0
 22 21  1  0
 23 18  1  0
 24 25  2  0
 26 27  1  0
 26 24  1  0
 27 35  1  0
 27 28  1  6
 29 28  1  0
 30 29  2  0
 31 30  1  0
 32 31  2  0
 32 33  1  0
 33 34  2  0
 34 29  1  0
 35 36  2  0
 35 37  1  0
M  END
$$$$
