RWF.pdb
     RDKit          3D

 37 39  0  0  1  0  0  0  0  0999 V2000
   11.1863  -16.6389   15.7118 N   0  0  0  0  0  0  0  0  0  0  0  0
    9.8406  -16.7902   16.1393 C   0  0  0  0  0  0  0  0  0  0  0  0
    8.9545  -15.9593   15.6908 N   0  0  0  0  0  0  0  0  0  0  0  0
    9.4349  -17.8175   17.0393 N   0  0  0  0  0  0  0  0  0  0  0  0
   10.4296  -18.6959   17.6551 C   0  0  0  0  0  0  0  0  0  0  0  0
   10.2342  -18.7920   19.1394 C   0  0  0  0  0  0  0  0  0  0  0  0
   11.1194  -17.8375   19.9173 C   0  0  0  0  0  0  0  0  0  0  0  0
   10.8775  -18.1123   21.3794 C   0  0  2  0  0  0  0  0  0  0  0  0
    9.8303  -19.0854   21.4993 N   0  0  0  0  0  0  0  0  0  0  0  0
   10.5403  -16.9171   22.1629 C   0  0  0  0  0  0  0  0  0  0  0  0
   11.3259  -15.9183   22.1915 O   0  0  0  0  0  0  0  0  0  0  0  0
    7.9543  -16.0275   15.9664 N   0  0  0  0  0  0  0  0  0  0  0  0
    9.3482  -16.7855   22.9266 C   0  0  1  0  0  0  0  0  0  0  0  0
    8.9434  -15.5434   23.5582 C   0  0  0  0  0  0  0  0  0  0  0  0
    7.4409  -15.4338   23.3962 C   0  0  0  0  0  0  0  0  0  0  0  0
    7.0569  -15.1971   21.9785 C   0  0  0  0  0  0  0  0  0  0  0  0
    6.3595  -16.0565   21.1440 N   0  0  0  0  0  0  0  0  0  0  0  0
    6.2206  -15.4531   19.9304 C   0  0  0  0  0  0  0  0  0  0  0  0
    6.7916  -14.2530   19.9420 C   0  0  0  0  0  0  0  0  0  0  0  0
    6.9116  -13.2812   18.9718 C   0  0  0  0  0  0  0  0  0  0  0  0
    7.5629  -12.1023   19.2433 C   0  0  0  0  0  0  0  0  0  0  0  0
    8.0891  -11.9172   20.5000 C   0  0  0  0  0  0  0  0  0  0  0  0
    7.9681  -12.8871   21.4641 C   0  0  0  0  0  0  0  0  0  0  0  0
    7.3203  -14.0782   21.2189 C   0  0  0  0  0  0  0  0  0  0  0  0
    9.3688  -15.4877   24.9798 O   0  0  0  0  0  0  0  0  0  0  0  0
    9.2794  -14.4065   25.6172 N   0  0  0  0  0  0  0  0  0  0  0  0
    9.8858  -16.6081   25.6883 C   0  0  2  0  0  0  0  0  0  0  0  0
   10.2997  -16.5369   27.0883 C   0  0  0  0  0  0  0  0  0  0  0  0
    9.2257  -15.8881   27.9195 C   0  0  0  0  0  0  0  0  0  0  0  0
    9.0291  -14.4521   27.6222 C   0  0  0  0  0  0  0  0  0  0  0  0
    7.8076  -14.0007   27.1062 C   0  0  0  0  0  0  0  0  0  0  0  0
    7.6303  -12.6597   26.8361 C   0  0  0  0  0  0  0  0  0  0  0  0
    8.6368  -11.7199   27.0603 C   0  0  0  0  0  0  0  0  0  0  0  0
    9.8235  -12.1875   27.5662 C   0  0  0  0  0  0  0  0  0  0  0  0
   10.0041  -13.5217   27.8367 C   0  0  0  0  0  0  0  0  0  0  0  0
   10.7273  -17.8531   27.5513 O   0  0  0  0  0  0  0  0  0  0  0  0
   10.6626  -18.8853   26.8022 O   0  0  0  0  0  0  0  0  0  0  0  0
  2  1  1  0
  3  2  2  0
  4  2  1  0
  5  4  1  0
  6  7  1  0
  6  5  1  0
  8 10  1  0
  8  7  1  0
  8  9  1  6
 10 12  1  0
 11 10  2  0
 12 13  1  0
 13 24  1  0
 13 14  1  6
 14 15  1  0
 15 23  1  0
 15 16  2  0
 16 17  1  0
 18 17  1  0
 18 19  2  0
 20 19  1  0
 21 20  2  0
 22 23  2  0
 22 21  1  0
 23 18  1  0
 24 25  2  0
 26 27  1  0
 26 24  1  0
 27 35  1  0
 27 28  1  6
 29 28  1  0
 30 29  2  0
 31 30  1  0
 32 31  2  0
 32 33  1  0
 33 34  2  0
 34 29  1  0
 35 36  2  0
 35 37  1  0
M  END
$$$$
