RWF.pdb
     RDKit          3D

 37 39  0  0  1  0  0  0  0  0999 V2000
   12.3742  -17.9944   16.7056 N   0  0  0  0  0  0  0  0  0  0  0  0
   12.0835  -19.3612   16.4527 C   0  0  0  0  0  0  0  0  0  0  0  0
   12.4957  -19.8835   15.3419 N   0  0  0  0  0  0  0  0  0  0  0  0
   11.3582  -20.1718   17.3729 N   0  0  0  0  0  0  0  0  0  0  0  0
    9.8956  -20.1933   17.3456 C   0  0  0  0  0  0  0  0  0  0  0  0
    9.3138  -19.1086   18.2031 C   0  0  0  0  0  0  0  0  0  0  0  0
    8.2810  -19.6210   19.1883 C   0  0  0  0  0  0  0  0  0  0  0  0
    8.8119  -19.3281   20.5682 C   0  0  2  0  0  0  0  0  0  0  0  0
    7.8506  -19.7711   21.5365 N   0  0  0  0  0  0  0  0  0  0  0  0
    9.1336  -17.9134   20.7953 C   0  0  0  0  0  0  0  0  0  0  0  0
    9.9951  -17.3209   20.0727 O   0  0  0  0  0  0  0  0  0  0  0  0
   12.4637  -20.9096   15.1770 N   0  0  0  0  0  0  0  0  0  0  0  0
    8.5276  -17.1198   21.8076 C   0  0  1  0  0  0  0  0  0  0  0  0
    8.8967  -15.7396   22.0611 C   0  0  0  0  0  0  0  0  0  0  0  0
    7.6126  -14.9791   22.3225 C   0  0  0  0  0  0  0  0  0  0  0  0
    7.2044  -15.0646   23.7506 C   0  0  0  0  0  0  0  0  0  0  0  0
    6.7862  -16.1940   24.4370 N   0  0  0  0  0  0  0  0  0  0  0  0
    6.5077  -15.8338   25.7211 C   0  0  0  0  0  0  0  0  0  0  0  0
    6.7248  -14.5341   25.8948 C   0  0  0  0  0  0  0  0  0  0  0  0
    6.5893  -13.7174   26.9970 C   0  0  0  0  0  0  0  0  0  0  0  0
    6.8856  -12.3784   26.9125 C   0  0  0  0  0  0  0  0  0  0  0  0
    7.3182  -11.8764   25.7079 C   0  0  0  0  0  0  0  0  0  0  0  0
    7.4520  -12.6923   24.6120 C   0  0  0  0  0  0  0  0  0  0  0  0
    7.1618  -14.0381   24.6686 C   0  0  0  0  0  0  0  0  0  0  0  0
    9.8634  -15.6283   23.1828 O   0  0  0  0  0  0  0  0  0  0  0  0
   10.6497  -14.6474   23.2354 N   0  0  0  0  0  0  0  0  0  0  0  0
    9.9619  -16.5852   24.2312 C   0  0  1  0  0  0  0  0  0  0  0  0
   11.0507  -16.5814   25.2064 C   0  0  0  0  0  0  0  0  0  0  0  0
   11.2404  -15.2005   25.7742 C   0  0  0  0  0  0  0  0  0  0  0  0
   10.8432  -15.0812   27.1944 C   0  0  0  0  0  0  0  0  0  0  0  0
   10.3546  -13.8653   27.6891 C   0  0  0  0  0  0  0  0  0  0  0  0
    9.9818  -13.7632   29.0132 C   0  0  0  0  0  0  0  0  0  0  0  0
   10.0739  -14.8416   29.8935 C   0  0  0  0  0  0  0  0  0  0  0  0
   10.5553  -16.0214   29.3844 C   0  0  0  0  0  0  0  0  0  0  0  0
   10.9274  -16.1273   28.0667 C   0  0  0  0  0  0  0  0  0  0  0  0
   10.8388  -17.6319   26.1970 O   0  0  0  0  0  0  0  0  0  0  0  0
   11.6591  -17.8306   27.1553 O   0  0  0  0  0  0  0  0  0  0  0  0
  2  1  1  0
  3  2  2  0
  4  2  1  0
  5  4  1  0
  6  7  1  0
  6  5  1  0
  8 10  1  0
  8  7  1  0
  8  9  1  1
 10 12  1  0
 11 10  2  0
 12 13  1  0
 13 24  1  0
 13 14  1  1
 14 15  1  0
 15 23  1  0
 15 16  2  0
 16 17  1  0
 18 17  1  0
 18 19  2  0
 20 19  1  0
 21 20  2  0
 22 23  2  0
 22 21  1  0
 23 18  1  0
 24 25  2  0
 26 27  1  0
 26 24  1  0
 27 35  1  0
 27 28  1  6
 29 28  1  0
 30 29  2  0
 31 30  1  0
 32 31  2  0
 32 33  1  0
 33 34  2  0
 34 29  1  0
 35 36  2  0
 35 37  1  0
M  END
$$$$
