NIE.pdb
     RDKit          3D

 26 25  0  0  1  0  0  0  0  0999 V2000
   20.8077  -14.6714  -19.9741 N   0  0  0  0  0  0  0  0  0  0  0  0
   20.1134  -13.4536  -19.7772 C   0  0  0  0  0  0  0  0  0  0  0  0
   19.2586  -13.0804  -20.6126 O   0  0  0  0  0  0  0  0  0  0  0  0
   20.3960  -12.6355  -18.6003 C   0  0  0  0  0  0  0  0  0  0  0  0
   21.5175  -13.2676  -17.8079 C   0  0  2  0  0  0  0  0  0  0  0  0
   21.0344  -14.4651  -17.1929 N   0  0  0  0  0  0  0  0  0  0  0  0
   21.9458  -12.2522  -16.7865 C   0  0  0  0  0  0  0  0  0  0  0  0
   21.2730  -12.0775  -15.7389 O   0  0  0  0  0  0  0  0  0  0  0  0
   27.0870  -11.9959  -15.6586 C   0  0  0  0  0  0  0  0  0  0  0  0
   25.5740  -11.9487  -15.5770 C   0  0  0  0  0  0  0  0  0  0  0  0
   25.0226  -10.6002  -15.8639 C   0  0  2  0  0  0  0  0  0  0  0  0
   25.6723   -9.5125  -15.0097 C   0  0  0  0  0  0  0  0  0  0  0  0
   23.5336  -10.4946  -15.9244 C   0  0  2  0  0  0  0  0  0  0  0  0
   23.1166  -11.4598  -16.9666 N   0  0  0  0  0  0  0  0  0  0  0  0
   23.0058   -9.1540  -16.2373 C   0  0  0  0  0  0  0  0  0  0  0  0
   23.3714   -8.6187  -17.3342 O   0  0  0  0  0  0  0  0  0  0  0  0
   22.1298   -8.3904  -15.4497 N   0  0  0  0  0  0  0  0  0  0  0  0
   21.6071   -7.0843  -15.8460 C   0  0  1  0  0  0  0  0  0  0  0  0
   20.1201   -7.0231  -15.6337 C   0  0  0  0  0  0  0  0  0  0  0  0
   19.4716   -5.7259  -16.0051 C   0  0  0  0  0  0  0  0  0  0  0  0
   18.0122   -5.7222  -15.8110 C   0  0  0  0  0  0  0  0  0  0  0  0
   17.2906   -4.7487  -16.0741 O   0  0  0  0  0  0  0  0  0  0  0  0
   22.3249   -5.9945  -15.1643 C   0  0  0  0  0  0  0  0  0  0  0  0
   22.9174   -6.1234  -14.0715 O   0  0  0  0  0  0  0  0  0  0  0  0
   17.3405   -6.8537  -15.3028 O   0  0  0  0  0  0  0  0  0  0  0  0
   22.3510   -4.7434  -15.7641 O   0  0  0  0  0  0  0  0  0  0  0  0
  2  1  1  0
  3  2  2  0
  4  2  1  0
  5  6  1  1
  5  4  1  0
  7  5  1  0
  8  7  2  0
  9 10  1  0
 11 12  1  1
 11 10  1  0
 11 13  1  0
 13 14  1  6
 14  7  1  0
 15 13  1  0
 15 16  2  0
 17 15  1  0
 18 17  1  0
 18 19  1  1
 19 20  1  0
 20 21  1  0
 21 25  1  0
 21 22  2  0
 23 18  1  0
 24 23  2  0
 26 23  1  0
M  END
$$$$
