NIE.pdb
     RDKit          3D

 26 25  0  0  1  0  0  0  0  0999 V2000
   17.5210  -11.1079  -21.1868 N   0  0  0  0  0  0  0  0  0  0  0  0
   18.8003  -11.2156  -20.5905 C   0  0  0  0  0  0  0  0  0  0  0  0
   19.7578  -11.6839  -21.2476 O   0  0  0  0  0  0  0  0  0  0  0  0
   19.0002  -10.7802  -19.2104 C   0  0  0  0  0  0  0  0  0  0  0  0
   20.0467  -11.6530  -18.5560 C   0  0  2  0  0  0  0  0  0  0  0  0
   19.4828  -12.9423  -18.3007 N   0  0  0  0  0  0  0  0  0  0  0  0
   20.4483  -10.9605  -17.2845 C   0  0  0  0  0  0  0  0  0  0  0  0
   19.7094  -11.0122  -16.2686 O   0  0  0  0  0  0  0  0  0  0  0  0
   25.0337  -12.0526  -15.4147 C   0  0  0  0  0  0  0  0  0  0  0  0
   23.5946  -11.6111  -15.5937 C   0  0  0  0  0  0  0  0  0  0  0  0
   23.4446  -10.1343  -15.6302 C   0  0  2  0  0  0  0  0  0  0  0  0
   24.1280   -9.4509  -14.4466 C   0  0  0  0  0  0  0  0  0  0  0  0
   22.0693   -9.6165  -15.8989 C   0  0  2  0  0  0  0  0  0  0  0  0
   21.6670  -10.2285  -17.1856 N   0  0  0  0  0  0  0  0  0  0  0  0
   21.9490   -8.1493  -15.9781 C   0  0  0  0  0  0  0  0  0  0  0  0
   22.6667   -7.5454  -16.8406 O   0  0  0  0  0  0  0  0  0  0  0  0
   21.1172   -7.3305  -15.1981 N   0  0  0  0  0  0  0  0  0  0  0  0
   21.0659   -5.8746  -15.3154 C   0  0  1  0  0  0  0  0  0  0  0  0
   19.6459   -5.3874  -15.2390 C   0  0  0  0  0  0  0  0  0  0  0  0
   19.4732   -3.9013  -15.2947 C   0  0  0  0  0  0  0  0  0  0  0  0
   18.0667   -3.4708  -15.2320 C   0  0  0  0  0  0  0  0  0  0  0  0
   17.1158   -4.2582  -15.1173 O   0  0  0  0  0  0  0  0  0  0  0  0
   21.9433   -5.2294  -14.3247 C   0  0  0  0  0  0  0  0  0  0  0  0
   22.4884   -4.1172  -14.4923 O   0  0  0  0  0  0  0  0  0  0  0  0
   17.7173   -2.1059  -15.3007 O   0  0  0  0  0  0  0  0  0  0  0  0
   22.1862   -5.8886  -13.1281 O   0  0  0  0  0  0  0  0  0  0  0  0
  2  1  1  0
  3  2  2  0
  4  2  1  0
  5  6  1  1
  5  4  1  0
  7  5  1  0
  8  7  2  0
  9 10  1  0
 11 12  1  1
 11 10  1  0
 11 13  1  0
 13 14  1  6
 14  7  1  0
 15 13  1  0
 15 16  2  0
 17 15  1  0
 18 17  1  0
 18 19  1  1
 19 20  1  0
 20 21  1  0
 21 25  1  0
 21 22  2  0
 23 18  1  0
 24 23  2  0
 26 23  1  0
M  END
$$$$
