NIE.pdb
     RDKit          3D

 26 25  0  0  1  0  0  0  0  0999 V2000
   13.7382  -12.7466  -15.8234 N   0  0  0  0  0  0  0  0  0  0  0  0
   14.5751  -12.7283  -14.6818 C   0  0  0  0  0  0  0  0  0  0  0  0
   14.1834  -13.2485  -13.6124 O   0  0  0  0  0  0  0  0  0  0  0  0
   15.8933  -12.1027  -14.7543 C   0  0  0  0  0  0  0  0  0  0  0  0
   16.7430  -12.8395  -15.7645 C   0  0  2  0  0  0  0  0  0  0  0  0
   17.0696  -14.1307  -15.2431 N   0  0  0  0  0  0  0  0  0  0  0  0
   17.9709  -12.0020  -15.9839 C   0  0  0  0  0  0  0  0  0  0  0  0
   18.9383  -12.0654  -15.1834 O   0  0  0  0  0  0  0  0  0  0  0  0
   19.7575  -11.9939  -20.8754 C   0  0  0  0  0  0  0  0  0  0  0  0
   19.7408  -11.9306  -19.3608 C   0  0  0  0  0  0  0  0  0  0  0  0
   19.5685  -10.5498  -18.8430 C   0  0  2  0  0  0  0  0  0  0  0  0
   20.6202   -9.5871  -19.3926 C   0  0  0  0  0  0  0  0  0  0  0  0
   19.3583  -10.4182  -17.3698 C   0  0  2  0  0  0  0  0  0  0  0  0
   18.0819  -11.1158  -17.0945 N   0  0  0  0  0  0  0  0  0  0  0  0
   19.2990   -9.0364  -16.8592 C   0  0  0  0  0  0  0  0  0  0  0  0
   18.3044   -8.3213  -17.2101 O   0  0  0  0  0  0  0  0  0  0  0  0
   20.2299   -8.4115  -16.0145 N   0  0  0  0  0  0  0  0  0  0  0  0
   20.1929   -6.9913  -15.6710 C   0  0  1  0  0  0  0  0  0  0  0  0
   21.1589   -6.6907  -14.5592 C   0  0  0  0  0  0  0  0  0  0  0  0
   21.3538   -5.2381  -14.2535 C   0  0  0  0  0  0  0  0  0  0  0  0
   22.3546   -4.9882  -13.2030 C   0  0  0  0  0  0  0  0  0  0  0  0
   22.8113   -5.8774  -12.4693 O   0  0  0  0  0  0  0  0  0  0  0  0
   20.4127   -6.1503  -16.8592 C   0  0  0  0  0  0  0  0  0  0  0  0
   21.2824   -6.3793  -17.7270 O   0  0  0  0  0  0  0  0  0  0  0  0
   22.8597   -3.6920  -12.9695 O   0  0  0  0  0  0  0  0  0  0  0  0
   19.6099   -5.0322  -17.0355 O   0  0  0  0  0  0  0  0  0  0  0  0
  2  1  1  0
  3  2  2  0
  4  2  1  0
  5  6  1  1
  5  4  1  0
  7  5  1  0
  8  7  2  0
  9 10  1  0
 11 12  1  1
 11 10  1  0
 11 13  1  0
 13 14  1  6
 14  7  1  0
 15 13  1  0
 15 16  2  0
 17 15  1  0
 18 17  1  0
 18 19  1  1
 19 20  1  0
 20 21  1  0
 21 25  1  0
 21 22  2  0
 23 18  1  0
 24 23  2  0
 26 23  1  0
M  END
$$$$
