NIE.pdb
     RDKit          3D

 26 25  0  0  1  0  0  0  0  0999 V2000
   16.1927  -11.0169  -19.1428 N   0  0  0  0  0  0  0  0  0  0  0  0
   16.4687  -11.8190  -18.0096 C   0  0  0  0  0  0  0  0  0  0  0  0
   16.5670  -13.0611  -18.1331 O   0  0  0  0  0  0  0  0  0  0  0  0
   16.6382  -11.1957  -16.6992 C   0  0  0  0  0  0  0  0  0  0  0  0
   17.8814  -11.7469  -16.0390 C   0  0  2  0  0  0  0  0  0  0  0  0
   17.5014  -12.7671  -15.1114 N   0  0  0  0  0  0  0  0  0  0  0  0
   18.5494  -10.5907  -15.3502 C   0  0  0  0  0  0  0  0  0  0  0  0
   18.0619  -10.1065  -14.2974 O   0  0  0  0  0  0  0  0  0  0  0  0
   23.7146  -10.7350  -14.5121 C   0  0  0  0  0  0  0  0  0  0  0  0
   22.2337  -10.4295  -14.4033 C   0  0  0  0  0  0  0  0  0  0  0  0
   21.8439   -9.1967  -15.1331 C   0  0  2  0  0  0  0  0  0  0  0  0
   22.7225   -8.0014  -14.7665 C   0  0  0  0  0  0  0  0  0  0  0  0
   20.3852   -8.8746  -15.1538 C   0  0  2  0  0  0  0  0  0  0  0  0
   19.7459  -10.0079  -15.8599 N   0  0  0  0  0  0  0  0  0  0  0  0
   20.0263   -7.6038  -15.8094 C   0  0  0  0  0  0  0  0  0  0  0  0
   20.3376   -7.4663  -17.0373 O   0  0  0  0  0  0  0  0  0  0  0  0
   19.3674   -6.5118  -15.2227 N   0  0  0  0  0  0  0  0  0  0  0  0
   19.0653   -5.2681  -15.9284 C   0  0  1  0  0  0  0  0  0  0  0  0
   17.8696   -4.5910  -15.3188 C   0  0  0  0  0  0  0  0  0  0  0  0
   17.5538   -3.2329  -15.8639 C   0  0  0  0  0  0  0  0  0  0  0  0
   16.4551   -2.5564  -15.1548 C   0  0  0  0  0  0  0  0  0  0  0  0
   15.8625   -3.0501  -14.1840 O   0  0  0  0  0  0  0  0  0  0  0  0
   20.2461   -4.3909  -15.9907 C   0  0  0  0  0  0  0  0  0  0  0  0
   21.0993   -4.3010  -15.0818 O   0  0  0  0  0  0  0  0  0  0  0  0
   16.0072   -1.2791  -15.5517 O   0  0  0  0  0  0  0  0  0  0  0  0
   20.4322   -3.6122  -17.1240 O   0  0  0  0  0  0  0  0  0  0  0  0
  2  1  1  0
  3  2  2  0
  4  2  1  0
  5  6  1  1
  5  4  1  0
  7  5  1  0
  8  7  2  0
  9 10  1  0
 11 12  1  1
 11 10  1  0
 11 13  1  0
 13 14  1  6
 14  7  1  0
 15 13  1  0
 15 16  2  0
 17 15  1  0
 18 17  1  0
 18 19  1  1
 19 20  1  0
 20 21  1  0
 21 25  1  0
 21 22  2  0
 23 18  1  0
 24 23  2  0
 26 23  1  0
M  END
$$$$
