NIE.pdb
     RDKit          3D

 26 25  0  0  1  0  0  0  0  0999 V2000
   19.5311  -15.5616  -17.4090 N   0  0  0  0  0  0  0  0  0  0  0  0
   20.0113  -15.6865  -16.0833 C   0  0  0  0  0  0  0  0  0  0  0  0
   19.6748  -16.6718  -15.3878 O   0  0  0  0  0  0  0  0  0  0  0  0
   20.8981  -14.6657  -15.5300 C   0  0  0  0  0  0  0  0  0  0  0  0
   21.0599  -13.5457  -16.5323 C   0  0  2  0  0  0  0  0  0  0  0  0
   21.8635  -14.0090  -17.6210 N   0  0  0  0  0  0  0  0  0  0  0  0
   21.7163  -12.4085  -15.8019 C   0  0  0  0  0  0  0  0  0  0  0  0
   21.2860  -12.0368  -14.6806 O   0  0  0  0  0  0  0  0  0  0  0  0
   27.0113  -11.7660  -15.6817 C   0  0  0  0  0  0  0  0  0  0  0  0
   25.5381  -11.7297  -15.3258 C   0  0  0  0  0  0  0  0  0  0  0  0
   24.8380  -10.5467  -15.8871 C   0  0  2  0  0  0  0  0  0  0  0  0
   25.5384   -9.2352  -15.5347 C   0  0  0  0  0  0  0  0  0  0  0  0
   23.3581  -10.4992  -15.6886 C   0  0  2  0  0  0  0  0  0  0  0  0
   22.8372  -11.7181  -16.3478 N   0  0  0  0  0  0  0  0  0  0  0  0
   22.6843   -9.3049  -16.2301 C   0  0  0  0  0  0  0  0  0  0  0  0
   22.7543   -9.1087  -17.4872 O   0  0  0  0  0  0  0  0  0  0  0  0
   21.9610   -8.3458  -15.5039 N   0  0  0  0  0  0  0  0  0  0  0  0
   21.3037   -7.1900  -16.1108 C   0  0  1  0  0  0  0  0  0  0  0  0
   19.8929   -7.0595  -15.6083 C   0  0  0  0  0  0  0  0  0  0  0  0
   19.1135   -5.9133  -16.1741 C   0  0  0  0  0  0  0  0  0  0  0  0
   17.7296   -5.8419  -15.6767 C   0  0  0  0  0  0  0  0  0  0  0  0
   17.2669   -6.6211  -14.8304 O   0  0  0  0  0  0  0  0  0  0  0  0
   22.0941   -5.9637  -15.9135 C   0  0  0  0  0  0  0  0  0  0  0  0
   22.6947   -5.6815  -14.8544 O   0  0  0  0  0  0  0  0  0  0  0  0
   16.8343   -4.8590  -16.1481 O   0  0  0  0  0  0  0  0  0  0  0  0
   22.1839   -5.0592  -16.9620 O   0  0  0  0  0  0  0  0  0  0  0  0
  2  1  1  0
  3  2  2  0
  4  2  1  0
  5  6  1  6
  5  4  1  0
  7  5  1  0
  8  7  2  0
  9 10  1  0
 11 12  1  1
 11 10  1  0
 11 13  1  0
 13 14  1  6
 14  7  1  0
 15 13  1  0
 15 16  2  0
 17 15  1  0
 18 17  1  0
 18 19  1  1
 19 20  1  0
 20 21  1  0
 21 25  1  0
 21 22  2  0
 23 18  1  0
 24 23  2  0
 26 23  1  0
M  END
$$$$
