NIE.pdb
     RDKit          3D

 26 25  0  0  1  0  0  0  0  0999 V2000
   22.3383  -17.1282  -17.9565 N   0  0  0  0  0  0  0  0  0  0  0  0
   21.3276  -16.2451  -17.5066 C   0  0  0  0  0  0  0  0  0  0  0  0
   20.1441  -16.4079  -17.8818 O   0  0  0  0  0  0  0  0  0  0  0  0
   21.6677  -15.1463  -16.6059 C   0  0  0  0  0  0  0  0  0  0  0  0
   23.1483  -15.1858  -16.3037 C   0  0  2  0  0  0  0  0  0  0  0  0
   23.4243  -16.3226  -15.4807 N   0  0  0  0  0  0  0  0  0  0  0  0
   23.4770  -13.8987  -15.6017 C   0  0  0  0  0  0  0  0  0  0  0  0
   23.1204  -13.7120  -14.4106 O   0  0  0  0  0  0  0  0  0  0  0  0
   28.2925  -11.9863  -15.9270 C   0  0  0  0  0  0  0  0  0  0  0  0
   26.8863  -12.3129  -15.4640 C   0  0  0  0  0  0  0  0  0  0  0  0
   25.8989  -11.2689  -15.8377 C   0  0  2  0  0  0  0  0  0  0  0  0
   26.3205   -9.8762  -15.3713 C   0  0  0  0  0  0  0  0  0  0  0  0
   24.4666  -11.5810  -15.5496 C   0  0  2  0  0  0  0  0  0  0  0  0
   24.1963  -12.8552  -16.2533 N   0  0  0  0  0  0  0  0  0  0  0  0
   23.4969  -10.5545  -15.9733 C   0  0  0  0  0  0  0  0  0  0  0  0
   23.3033  -10.4082  -17.2242 O   0  0  0  0  0  0  0  0  0  0  0  0
   22.7498   -9.7083  -15.1388 N   0  0  0  0  0  0  0  0  0  0  0  0
   21.7290   -8.7811  -15.6231 C   0  0  1  0  0  0  0  0  0  0  0  0
   20.3684   -9.4180  -15.5711 C   0  0  0  0  0  0  0  0  0  0  0  0
   19.2275   -8.5269  -15.9527 C   0  0  0  0  0  0  0  0  0  0  0  0
   17.9070   -9.1505  -15.7651 C   0  0  0  0  0  0  0  0  0  0  0  0
   17.5138  -10.1274  -16.4198 O   0  0  0  0  0  0  0  0  0  0  0  0
   21.7863   -7.5006  -14.8987 C   0  0  0  0  0  0  0  0  0  0  0  0
   22.3714   -7.3408  -13.8059 O   0  0  0  0  0  0  0  0  0  0  0  0
   16.9965   -8.6578  -14.8071 O   0  0  0  0  0  0  0  0  0  0  0  0
   21.1549   -6.3974  -15.4553 O   0  0  0  0  0  0  0  0  0  0  0  0
  2  1  1  0
  3  2  2  0
  4  2  1  0
  5  6  1  1
  5  4  1  0
  7  5  1  0
  8  7  2  0
  9 10  1  0
 11 12  1  1
 11 10  1  0
 11 13  1  0
 13 14  1  6
 14  7  1  0
 15 13  1  0
 15 16  2  0
 17 15  1  0
 18 17  1  0
 18 19  1  1
 19 20  1  0
 20 21  1  0
 21 25  1  0
 21 22  2  0
 23 18  1  0
 24 23  2  0
 26 23  1  0
M  END
$$$$
