NIE.pdb
     RDKit          3D

 26 25  0  0  1  0  0  0  0  0999 V2000
   29.0944  -19.4594  -16.7112 N   0  0  0  0  0  0  0  0  0  0  0  0
   27.7446  -19.3410  -17.1211 C   0  0  0  0  0  0  0  0  0  0  0  0
   27.4509  -18.6187  -18.1007 O   0  0  0  0  0  0  0  0  0  0  0  0
   26.6981  -20.0618  -16.4003 C   0  0  0  0  0  0  0  0  0  0  0  0
   27.3181  -20.8399  -15.2621 C   0  0  2  0  0  0  0  0  0  0  0  0
   28.0144  -21.9692  -15.7965 N   0  0  0  0  0  0  0  0  0  0  0  0
   26.1888  -21.2578  -14.3634 C   0  0  0  0  0  0  0  0  0  0  0  0
   25.4611  -22.2374  -14.6659 O   0  0  0  0  0  0  0  0  0  0  0  0
   26.8538  -20.6407   -9.0425 C   0  0  0  0  0  0  0  0  0  0  0  0
   26.4482  -21.1964  -10.3934 C   0  0  0  0  0  0  0  0  0  0  0  0
   25.1805  -20.6126  -10.9003 C   0  0  2  0  0  0  0  0  0  0  0  0
   24.0411  -20.7297   -9.8889 C   0  0  0  0  0  0  0  0  0  0  0  0
   24.7829  -21.0001  -12.2872 C   0  0  2  0  0  0  0  0  0  0  0  0
   25.9052  -20.5665  -13.1499 N   0  0  0  0  0  0  0  0  0  0  0  0
   23.5190  -20.4151  -12.7707 C   0  0  0  0  0  0  0  0  0  0  0  0
   23.4545  -19.1458  -12.8614 O   0  0  0  0  0  0  0  0  0  0  0  0
   22.3609  -21.1119  -13.1503 N   0  0  0  0  0  0  0  0  0  0  0  0
   21.1434  -20.4649  -13.6353 C   0  0  1  0  0  0  0  0  0  0  0  0
   20.6367  -21.1512  -14.8731 C   0  0  0  0  0  0  0  0  0  0  0  0
   19.7993  -22.3690  -14.6345 C   0  0  0  0  0  0  0  0  0  0  0  0
   20.0437  -23.4490  -15.6048 C   0  0  0  0  0  0  0  0  0  0  0  0
   19.5318  -24.5750  -15.5169 O   0  0  0  0  0  0  0  0  0  0  0  0
   20.1263  -20.3806  -12.5742 C   0  0  0  0  0  0  0  0  0  0  0  0
   20.1513  -21.0608  -11.5259 O   0  0  0  0  0  0  0  0  0  0  0  0
   20.8941  -23.2556  -16.7135 O   0  0  0  0  0  0  0  0  0  0  0  0
   19.0711  -19.4947  -12.7386 O   0  0  0  0  0  0  0  0  0  0  0  0
  2  1  1  0
  3  2  2  0
  4  2  1  0
  5  6  1  6
  5  4  1  0
  7  5  1  0
  8  7  2  0
  9 10  1  0
 11 12  1  1
 11 10  1  0
 11 13  1  0
 13 14  1  6
 14  7  1  0
 15 13  1  0
 15 16  2  0
 17 15  1  0
 18 17  1  0
 18 19  1  6
 19 20  1  0
 20 21  1  0
 21 25  1  0
 21 22  2  0
 23 18  1  0
 24 23  2  0
 26 23  1  0
M  END
$$$$
