NIE.pdb
     RDKit          3D

 26 25  0  0  1  0  0  0  0  0999 V2000
   27.9706  -26.5836  -17.4069 N   0  0  0  0  0  0  0  0  0  0  0  0
   27.7998  -25.2017  -17.6622 C   0  0  0  0  0  0  0  0  0  0  0  0
   28.0514  -24.7414  -18.7992 O   0  0  0  0  0  0  0  0  0  0  0  0
   27.3306  -24.3165  -16.5990 C   0  0  0  0  0  0  0  0  0  0  0  0
   27.9912  -22.9645  -16.7442 C   0  0  2  0  0  0  0  0  0  0  0  0
   29.3613  -23.0720  -16.3479 N   0  0  0  0  0  0  0  0  0  0  0  0
   27.2297  -22.0182  -15.8599 C   0  0  0  0  0  0  0  0  0  0  0  0
   27.3563  -22.0705  -14.6102 O   0  0  0  0  0  0  0  0  0  0  0  0
   28.2629  -17.2643  -16.3239 C   0  0  0  0  0  0  0  0  0  0  0  0
   27.7508  -18.5929  -15.8036 C   0  0  0  0  0  0  0  0  0  0  0  0
   26.2762  -18.7262  -15.9146 C   0  0  2  0  0  0  0  0  0  0  0  0
   25.5373  -17.5335  -15.3093 C   0  0  0  0  0  0  0  0  0  0  0  0
   25.7001  -20.0449  -15.5132 C   0  0  2  0  0  0  0  0  0  0  0  0
   26.3465  -21.0386  -16.3999 N   0  0  0  0  0  0  0  0  0  0  0  0
   24.2335  -20.1536  -15.6173 C   0  0  0  0  0  0  0  0  0  0  0  0
   23.7125  -20.0038  -16.7704 O   0  0  0  0  0  0  0  0  0  0  0  0
   23.3330  -20.4098  -14.5713 N   0  0  0  0  0  0  0  0  0  0  0  0
   21.8809  -20.4353  -14.7347 C   0  0  1  0  0  0  0  0  0  0  0  0
   21.2569  -21.4052  -13.7705 C   0  0  0  0  0  0  0  0  0  0  0  0
   19.7663  -21.5193  -13.8492 C   0  0  0  0  0  0  0  0  0  0  0  0
   19.2044  -22.5197  -12.9266 C   0  0  0  0  0  0  0  0  0  0  0  0
   19.0621  -22.3236  -11.7106 O   0  0  0  0  0  0  0  0  0  0  0  0
   21.3096  -19.0823  -14.6310 C   0  0  0  0  0  0  0  0  0  0  0  0
   21.7219  -18.2079  -13.8388 O   0  0  0  0  0  0  0  0  0  0  0  0
   18.7877  -23.7858  -13.3884 O   0  0  0  0  0  0  0  0  0  0  0  0
   20.2479  -18.7476  -15.4594 O   0  0  0  0  0  0  0  0  0  0  0  0
  2  1  1  0
  3  2  2  0
  4  2  1  0
  5  6  1  1
  5  4  1  0
  7  5  1  0
  8  7  2  0
  9 10  1  0
 11 12  1  1
 11 10  1  0
 11 13  1  0
 13 14  1  6
 14  7  1  0
 15 13  1  0
 15 16  2  0
 17 15  1  0
 18 17  1  0
 18 19  1  1
 19 20  1  0
 20 21  1  0
 21 25  1  0
 21 22  2  0
 23 18  1  0
 24 23  2  0
 26 23  1  0
M  END
$$$$
