NIE.pdb
     RDKit          3D

 26 25  0  0  1  0  0  0  0  0999 V2000
   29.4301  -19.3901  -16.7552 N   0  0  0  0  0  0  0  0  0  0  0  0
   28.0618  -19.1507  -17.0281 C   0  0  0  0  0  0  0  0  0  0  0  0
   27.7364  -18.3039  -17.8910 O   0  0  0  0  0  0  0  0  0  0  0  0
   27.0333  -19.8922  -16.3024 C   0  0  0  0  0  0  0  0  0  0  0  0
   27.6884  -20.7640  -15.2555 C   0  0  2  0  0  0  0  0  0  0  0  0
   28.3469  -21.8549  -15.9051 N   0  0  0  0  0  0  0  0  0  0  0  0
   26.5910  -21.2396  -14.3460 C   0  0  0  0  0  0  0  0  0  0  0  0
   25.9466  -22.2850  -14.6155 O   0  0  0  0  0  0  0  0  0  0  0  0
   27.3852  -20.6502   -9.0969 C   0  0  0  0  0  0  0  0  0  0  0  0
   26.9539  -21.1918  -10.4455 C   0  0  0  0  0  0  0  0  0  0  0  0
   25.6328  -20.6718  -10.8802 C   0  0  2  0  0  0  0  0  0  0  0  0
   24.5503  -20.8764   -9.8213 C   0  0  0  0  0  0  0  0  0  0  0  0
   25.1936  -21.0521  -12.2566 C   0  0  2  0  0  0  0  0  0  0  0  0
   26.2451  -20.5308  -13.1590 N   0  0  0  0  0  0  0  0  0  0  0  0
   23.8749  -20.5355  -12.6661 C   0  0  0  0  0  0  0  0  0  0  0  0
   23.6932  -19.2755  -12.6112 O   0  0  0  0  0  0  0  0  0  0  0  0
   22.7804  -21.2890  -13.1190 N   0  0  0  0  0  0  0  0  0  0  0  0
   21.4968  -20.7080  -13.5077 C   0  0  1  0  0  0  0  0  0  0  0  0
   20.8919  -21.4772  -14.6488 C   0  0  0  0  0  0  0  0  0  0  0  0
   19.5420  -21.0081  -15.0950 C   0  0  0  0  0  0  0  0  0  0  0  0
   18.9299  -21.8700  -16.1198 C   0  0  0  0  0  0  0  0  0  0  0  0
   17.7571  -21.7479  -16.5032 O   0  0  0  0  0  0  0  0  0  0  0  0
   20.5910  -20.5970  -12.3523 C   0  0  0  0  0  0  0  0  0  0  0  0
   20.5801  -21.3978  -11.3927 O   0  0  0  0  0  0  0  0  0  0  0  0
   19.6633  -22.9059  -16.7352 O   0  0  0  0  0  0  0  0  0  0  0  0
   19.6903  -19.5421  -12.3173 O   0  0  0  0  0  0  0  0  0  0  0  0
  2  1  1  0
  3  2  2  0
  4  2  1  0
  5  6  1  6
  5  4  1  0
  7  5  1  0
  8  7  2  0
  9 10  1  0
 11 12  1  1
 11 10  1  0
 11 13  1  0
 13 14  1  6
 14  7  1  0
 15 13  1  0
 15 16  2  0
 17 15  1  0
 18 17  1  0
 18 19  1  6
 19 20  1  0
 20 21  1  0
 21 25  1  0
 21 22  2  0
 23 18  1  0
 24 23  2  0
 26 23  1  0
M  END
$$$$
