NIE.pdb
     RDKit          3D

 26 25  0  0  1  0  0  0  0  0999 V2000
   31.3669  -35.6557  -16.4292 N   0  0  0  0  0  0  0  0  0  0  0  0
   30.1156  -35.0584  -16.1439 C   0  0  0  0  0  0  0  0  0  0  0  0
   29.2036  -35.7392  -15.6219 O   0  0  0  0  0  0  0  0  0  0  0  0
   29.8916  -33.6496  -16.4590 C   0  0  0  0  0  0  0  0  0  0  0  0
   31.1322  -33.0773  -17.1061 C   0  0  2  0  0  0  0  0  0  0  0  0
   32.1777  -33.0153  -16.1320 N   0  0  0  0  0  0  0  0  0  0  0  0
   30.7613  -31.7115  -17.6106 C   0  0  0  0  0  0  0  0  0  0  0  0
   30.9898  -30.6899  -16.9144 O   0  0  0  0  0  0  0  0  0  0  0  0
   33.0317  -29.9034  -21.5719 C   0  0  0  0  0  0  0  0  0  0  0  0
   32.2038  -30.0197  -20.3073 C   0  0  0  0  0  0  0  0  0  0  0  0
   30.7427  -29.9836  -20.5691 C   0  0  2  0  0  0  0  0  0  0  0  0
   30.3392  -28.8044  -21.4531 C   0  0  0  0  0  0  0  0  0  0  0  0
   29.8542  -30.1642  -19.3817 C   0  0  2  0  0  0  0  0  0  0  0  0
   30.1440  -31.5272  -18.8819 N   0  0  0  0  0  0  0  0  0  0  0  0
   28.4105  -30.0183  -19.6427 C   0  0  0  0  0  0  0  0  0  0  0  0
   27.8721  -30.8432  -20.4510 O   0  0  0  0  0  0  0  0  0  0  0  0
   27.5489  -29.0580  -19.0895 N   0  0  0  0  0  0  0  0  0  0  0  0
   26.1230  -28.9693  -19.3978 C   0  0  1  0  0  0  0  0  0  0  0  0
   25.3407  -28.5786  -18.1751 C   0  0  0  0  0  0  0  0  0  0  0  0
   23.8605  -28.4659  -18.3691 C   0  0  0  0  0  0  0  0  0  0  0  0
   23.1399  -28.0428  -17.1569 C   0  0  0  0  0  0  0  0  0  0  0  0
   23.4082  -28.4625  -16.0214 O   0  0  0  0  0  0  0  0  0  0  0  0
   25.8801  -28.0723  -20.5398 C   0  0  0  0  0  0  0  0  0  0  0  0
   25.0298  -28.2880  -21.4301 O   0  0  0  0  0  0  0  0  0  0  0  0
   22.0799  -27.1147  -17.2244 O   0  0  0  0  0  0  0  0  0  0  0  0
   26.6367  -26.9136  -20.6430 O   0  0  0  0  0  0  0  0  0  0  0  0
  2  1  1  0
  3  2  2  0
  4  2  1  0
  5  6  1  1
  5  4  1  0
  7  5  1  0
  8  7  2  0
  9 10  1  0
 11 12  1  1
 11 10  1  0
 11 13  1  0
 13 14  1  6
 14  7  1  0
 15 13  1  0
 15 16  2  0
 17 15  1  0
 18 17  1  0
 18 19  1  1
 19 20  1  0
 20 21  1  0
 21 25  1  0
 21 22  2  0
 23 18  1  0
 24 23  2  0
 26 23  1  0
M  END
$$$$
