KKC.pdb
     RDKit          3D

 25 24  0  0  1  0  0  0  0  0999 V2000
   10.2719  -14.7791   19.4253 N   0  0  0  0  0  0  0  0  0  0  0  0
    9.0472  -14.1097   19.6969 C   0  0  1  0  0  0  0  0  0  0  0  0
    8.0617  -14.0084   18.5993 C   0  0  0  0  0  0  0  0  0  0  0  0
    8.5951  -14.3074   17.2467 C   0  0  0  0  0  0  0  0  0  0  0  0
    7.5671  -14.0848   16.1766 C   0  0  0  0  0  0  0  0  0  0  0  0
    8.1529  -14.4505   14.7958 C   0  0  0  0  0  0  0  0  0  0  0  0
    7.1622  -14.1822   13.7764 N   0  0  0  0  0  0  0  0  0  0  0  0
    8.4404  -14.7561   20.9095 C   0  0  0  0  0  0  0  0  0  0  0  0
    7.3027  -14.3963   21.3468 O   0  0  0  0  0  0  0  0  0  0  0  0
    9.1083  -15.7894   21.6129 N   0  0  0  0  0  0  0  0  0  0  0  0
    8.5333  -16.3475   22.8689 C   0  0  1  0  0  0  0  0  0  0  0  0
    9.3067  -17.6029   23.2010 C   0  0  0  0  0  0  0  0  0  0  0  0
    8.8851  -18.1957   24.4866 C   0  0  0  0  0  0  0  0  0  0  0  0
    9.5806  -19.5326   24.7565 C   0  0  0  0  0  0  0  0  0  0  0  0
    9.1455  -20.0550   26.1131 C   0  0  0  0  0  0  0  0  0  0  0  0
    9.9472  -21.2015   26.4155 N   0  0  0  0  0  0  0  0  0  0  0  0
    8.7330  -15.3323   23.9138 C   0  0  0  0  0  0  0  0  0  0  0  0
    9.9148  -14.8642   24.0791 O   0  0  0  0  0  0  0  0  0  0  0  0
    7.7501  -14.8027   24.7663 N   0  0  0  0  0  0  0  0  0  0  0  0
    8.0495  -13.8603   25.8396 C   0  0  1  0  0  0  0  0  0  0  0  0
    6.8660  -12.8868   25.8659 C   0  0  0  0  0  0  0  0  0  0  0  0
    7.0011  -11.7091   27.2182 S   0  0  0  0  0  0  0  0  0  0  0  0
    8.1548  -14.5408   27.1470 C   0  0  0  0  0  0  0  0  0  0  0  0
    7.4581  -15.5453   27.3871 O   0  0  0  0  0  0  0  0  0  0  0  0
    9.0387  -14.0356   28.0838 O   0  0  0  0  0  0  0  0  0  0  0  0
  2  1  1  6
  3  2  1  0
  4  3  1  0
  5  4  1  0
  6  5  1  0
  7  6  1  0
  8  9  2  0
  8  2  1  0
 10  8  1  0
 11 12  1  1
 11 10  1  0
 13 12  1  0
 14 13  1  0
 15 16  1  0
 15 14  1  0
 17 11  1  0
 18 17  2  0
 19 17  1  0
 20 19  1  0
 20 21  1  1
 21 22  1  0
 23 25  1  0
 23 20  1  0
 24 23  2  0
M  END
$$$$
