KKC.pdb
     RDKit          3D

 25 24  0  0  1  0  0  0  0  0999 V2000
   11.1874  -18.6556   16.6499 N   0  0  0  0  0  0  0  0  0  0  0  0
   10.1186  -18.7071   17.5862 C   0  0  1  0  0  0  0  0  0  0  0  0
    9.7125  -20.0355   18.0926 C   0  0  0  0  0  0  0  0  0  0  0  0
   10.7921  -20.8142   18.7496 C   0  0  0  0  0  0  0  0  0  0  0  0
   10.3153  -22.1632   19.2015 C   0  0  0  0  0  0  0  0  0  0  0  0
   11.4686  -22.9314   19.8821 C   0  0  0  0  0  0  0  0  0  0  0  0
   10.9475  -24.1507   20.4603 N   0  0  0  0  0  0  0  0  0  0  0  0
   10.4661  -17.7812   18.7170 C   0  0  0  0  0  0  0  0  0  0  0  0
   11.6760  -17.5487   19.0285 O   0  0  0  0  0  0  0  0  0  0  0  0
    9.4637  -17.1314   19.4796 N   0  0  0  0  0  0  0  0  0  0  0  0
    9.8299  -16.1189   20.5092 C   0  0  1  0  0  0  0  0  0  0  0  0
    8.6458  -15.1942   20.6747 C   0  0  0  0  0  0  0  0  0  0  0  0
    8.4910  -14.2736   19.5299 C   0  0  0  0  0  0  0  0  0  0  0  0
    7.1865  -13.4763   19.6082 C   0  0  0  0  0  0  0  0  0  0  0  0
    7.0999  -12.5449   18.4134 C   0  0  0  0  0  0  0  0  0  0  0  0
    5.8335  -11.8803   18.4705 N   0  0  0  0  0  0  0  0  0  0  0  0
   10.0819  -16.8555   21.7567 C   0  0  0  0  0  0  0  0  0  0  0  0
    9.3477  -17.8748   22.0118 O   0  0  0  0  0  0  0  0  0  0  0  0
   11.0627  -16.5631   22.7190 N   0  0  0  0  0  0  0  0  0  0  0  0
   11.2806  -17.3795   23.9087 C   0  0  1  0  0  0  0  0  0  0  0  0
   12.7535  -17.1723   24.2782 C   0  0  0  0  0  0  0  0  0  0  0  0
   13.8518  -17.6622   22.9411 S   0  0  0  0  0  0  0  0  0  0  0  0
   10.4261  -16.9421   25.0322 C   0  0  0  0  0  0  0  0  0  0  0  0
    9.6686  -15.9624   24.8971 O   0  0  0  0  0  0  0  0  0  0  0  0
   10.4920  -17.6440   26.2226 O   0  0  0  0  0  0  0  0  0  0  0  0
  2  1  1  6
  3  2  1  0
  4  3  1  0
  5  4  1  0
  6  5  1  0
  7  6  1  0
  8  9  2  0
  8  2  1  0
 10  8  1  0
 11 12  1  1
 11 10  1  0
 13 12  1  0
 14 13  1  0
 15 16  1  0
 15 14  1  0
 17 11  1  0
 18 17  2  0
 19 17  1  0
 20 19  1  0
 20 21  1  1
 21 22  1  0
 23 25  1  0
 23 20  1  0
 24 23  2  0
M  END
$$$$
