KKC.pdb
     RDKit          3D

 25 24  0  0  1  0  0  0  0  0999 V2000
    5.6535  -17.1127   20.6008 N   0  0  0  0  0  0  0  0  0  0  0  0
    6.7769  -16.4819   21.2022 C   0  0  1  0  0  0  0  0  0  0  0  0
    7.1018  -15.1044   20.7745 C   0  0  0  0  0  0  0  0  0  0  0  0
    7.6834  -14.9900   19.4136 C   0  0  0  0  0  0  0  0  0  0  0  0
    8.0140  -13.5692   19.0625 C   0  0  0  0  0  0  0  0  0  0  0  0
    8.5186  -13.4877   17.6057 C   0  0  0  0  0  0  0  0  0  0  0  0
    8.7338  -12.1002   17.2574 N   0  0  0  0  0  0  0  0  0  0  0  0
    6.5905  -16.5553   22.6910 C   0  0  0  0  0  0  0  0  0  0  0  0
    5.4430  -16.4121   23.2181 O   0  0  0  0  0  0  0  0  0  0  0  0
    7.6814  -16.7864   23.5656 N   0  0  0  0  0  0  0  0  0  0  0  0
    7.4568  -16.9763   25.0261 C   0  0  1  0  0  0  0  0  0  0  0  0
    7.8792  -18.3865   25.3686 C   0  0  0  0  0  0  0  0  0  0  0  0
    7.8144  -18.6527   26.8201 C   0  0  0  0  0  0  0  0  0  0  0  0
    8.3679  -20.0354   27.1743 C   0  0  0  0  0  0  0  0  0  0  0  0
    8.1339  -20.3022   28.6496 C   0  0  0  0  0  0  0  0  0  0  0  0
    8.5450  -21.6465   28.9193 N   0  0  0  0  0  0  0  0  0  0  0  0
    8.3158  -16.0031   25.7168 C   0  0  0  0  0  0  0  0  0  0  0  0
    9.5480  -15.9360   25.3698 O   0  0  0  0  0  0  0  0  0  0  0  0
    7.9268  -15.1153   26.7336 N   0  0  0  0  0  0  0  0  0  0  0  0
    8.8558  -14.2053   27.3959 C   0  0  1  0  0  0  0  0  0  0  0  0
    7.9759  -13.1400   28.0593 C   0  0  0  0  0  0  0  0  0  0  0  0
    6.6468  -12.6023   26.9737 S   0  0  0  0  0  0  0  0  0  0  0  0
    9.6516  -14.8986   28.4300 C   0  0  0  0  0  0  0  0  0  0  0  0
    9.4141  -16.0896   28.7080 O   0  0  0  0  0  0  0  0  0  0  0  0
   10.6550  -14.1946   29.0717 O   0  0  0  0  0  0  0  0  0  0  0  0
  2  1  1  6
  3  2  1  0
  4  3  1  0
  5  4  1  0
  6  5  1  0
  7  6  1  0
  8  9  2  0
  8  2  1  0
 10  8  1  0
 11 12  1  1
 11 10  1  0
 13 12  1  0
 14 13  1  0
 15 16  1  0
 15 14  1  0
 17 11  1  0
 18 17  2  0
 19 17  1  0
 20 19  1  0
 20 21  1  1
 21 22  1  0
 23 25  1  0
 23 20  1  0
 24 23  2  0
M  END
$$$$
