KKC.pdb
     RDKit          3D

 25 24  0  0  1  0  0  0  0  0999 V2000
    8.4068  -18.4584   21.3555 N   0  0  0  0  0  0  0  0  0  0  0  0
    9.6160  -17.8186   20.9679 C   0  0  1  0  0  0  0  0  0  0  0  0
    9.7718  -17.4485   19.5450 C   0  0  0  0  0  0  0  0  0  0  0  0
    9.3487  -18.4897   18.5753 C   0  0  0  0  0  0  0  0  0  0  0  0
    9.5239  -18.0380   17.1552 C   0  0  0  0  0  0  0  0  0  0  0  0
    9.1052  -19.1645   16.1860 C   0  0  0  0  0  0  0  0  0  0  0  0
    9.3002  -18.7136   14.8254 N   0  0  0  0  0  0  0  0  0  0  0  0
    9.7986  -16.6237   21.8598 C   0  0  0  0  0  0  0  0  0  0  0  0
   10.8498  -15.9121   21.7990 O   0  0  0  0  0  0  0  0  0  0  0  0
    8.8107  -16.2418   22.8015 N   0  0  0  0  0  0  0  0  0  0  0  0
    9.0048  -15.0403   23.6606 C   0  0  1  0  0  0  0  0  0  0  0  0
    7.7143  -14.8096   24.4129 C   0  0  0  0  0  0  0  0  0  0  0  0
    7.6748  -13.4833   25.0619 C   0  0  0  0  0  0  0  0  0  0  0  0
    6.3582  -13.2490   25.8071 C   0  0  0  0  0  0  0  0  0  0  0  0
    6.4132  -11.9020   26.5035 C   0  0  0  0  0  0  0  0  0  0  0  0
    5.1454  -11.6844   27.1312 N   0  0  0  0  0  0  0  0  0  0  0  0
   10.0925  -15.3604   24.5970 C   0  0  0  0  0  0  0  0  0  0  0  0
   11.2722  -14.9481   24.3117 O   0  0  0  0  0  0  0  0  0  0  0  0
    9.9793  -16.0791   25.7987 N   0  0  0  0  0  0  0  0  0  0  0  0
   10.6246  -15.6635   27.0399 C   0  0  1  0  0  0  0  0  0  0  0  0
    9.9136  -14.3701   27.4530 C   0  0  0  0  0  0  0  0  0  0  0  0
   10.5707  -13.7101   28.9914 S   0  0  0  0  0  0  0  0  0  0  0  0
   10.4599  -16.6758   28.1036 C   0  0  0  0  0  0  0  0  0  0  0  0
   11.4271  -16.9899   28.8233 O   0  0  0  0  0  0  0  0  0  0  0  0
    9.2157  -17.2566   28.2740 O   0  0  0  0  0  0  0  0  0  0  0  0
  2  1  1  6
  3  2  1  0
  4  3  1  0
  5  4  1  0
  6  5  1  0
  7  6  1  0
  8  9  2  0
  8  2  1  0
 10  8  1  0
 11 12  1  1
 11 10  1  0
 13 12  1  0
 14 13  1  0
 15 16  1  0
 15 14  1  0
 17 11  1  0
 18 17  2  0
 19 17  1  0
 20 19  1  0
 20 21  1  1
 21 22  1  0
 23 25  1  0
 23 20  1  0
 24 23  2  0
M  END
$$$$
