KKC.pdb
     RDKit          3D

 25 24  0  0  1  0  0  0  0  0999 V2000
    5.9734  -16.8623   20.3795 N   0  0  0  0  0  0  0  0  0  0  0  0
    6.8849  -16.0413   21.0985 C   0  0  1  0  0  0  0  0  0  0  0  0
    6.8843  -14.5925   20.8035 C   0  0  0  0  0  0  0  0  0  0  0  0
    7.6759  -14.1937   19.6128 C   0  0  0  0  0  0  0  0  0  0  0  0
    7.6367  -12.7114   19.3840 C   0  0  0  0  0  0  0  0  0  0  0  0
    8.4626  -12.3472   18.1315 C   0  0  0  0  0  0  0  0  0  0  0  0
    8.1967  -13.3173   17.0919 N   0  0  0  0  0  0  0  0  0  0  0  0
    6.6601  -16.2945   22.5621 C   0  0  0  0  0  0  0  0  0  0  0  0
    5.4885  -16.3130   23.0541 O   0  0  0  0  0  0  0  0  0  0  0  0
    7.7402  -16.5223   23.4509 N   0  0  0  0  0  0  0  0  0  0  0  0
    7.4924  -16.7751   24.8980 C   0  0  1  0  0  0  0  0  0  0  0  0
    8.1118  -18.1118   25.2356 C   0  0  0  0  0  0  0  0  0  0  0  0
    7.9676  -18.4495   26.6664 C   0  0  0  0  0  0  0  0  0  0  0  0
    8.5642  -19.8207   26.9945 C   0  0  0  0  0  0  0  0  0  0  0  0
    8.3801  -20.1025   28.4741 C   0  0  0  0  0  0  0  0  0  0  0  0
    8.9949  -21.3638   28.7566 N   0  0  0  0  0  0  0  0  0  0  0  0
    8.1664  -15.6977   25.6377 C   0  0  0  0  0  0  0  0  0  0  0  0
    9.3608  -15.3867   25.2915 O   0  0  0  0  0  0  0  0  0  0  0  0
    7.6335  -14.9511   26.7017 N   0  0  0  0  0  0  0  0  0  0  0  0
    8.3610  -13.8715   27.3610 C   0  0  1  0  0  0  0  0  0  0  0  0
    7.2954  -13.0621   28.1083 C   0  0  0  0  0  0  0  0  0  0  0  0
    5.8653  -12.7248   27.0714 S   0  0  0  0  0  0  0  0  0  0  0  0
    9.3492  -14.3931   28.3279 C   0  0  0  0  0  0  0  0  0  0  0  0
    9.4185  -15.6165   28.5529 O   0  0  0  0  0  0  0  0  0  0  0  0
   10.1840  -13.4939   28.9672 O   0  0  0  0  0  0  0  0  0  0  0  0
  2  1  1  6
  3  2  1  0
  4  3  1  0
  5  4  1  0
  6  5  1  0
  7  6  1  0
  8  9  2  0
  8  2  1  0
 10  8  1  0
 11 12  1  1
 11 10  1  0
 13 12  1  0
 14 13  1  0
 15 16  1  0
 15 14  1  0
 17 11  1  0
 18 17  2  0
 19 17  1  0
 20 19  1  0
 20 21  1  1
 21 22  1  0
 23 25  1  0
 23 20  1  0
 24 23  2  0
M  END
$$$$
