KKC.pdb
     RDKit          3D

 25 24  0  0  1  0  0  0  0  0999 V2000
    9.4147  -18.4930   20.1526 N   0  0  0  0  0  0  0  0  0  0  0  0
    8.3046  -17.6367   19.9161 C   0  0  1  0  0  0  0  0  0  0  0  0
    7.3348  -18.0408   18.8758 C   0  0  0  0  0  0  0  0  0  0  0  0
    7.9332  -18.6529   17.6631 C   0  0  0  0  0  0  0  0  0  0  0  0
    6.8940  -18.9942   16.6360 C   0  0  0  0  0  0  0  0  0  0  0  0
    7.5557  -19.6799   15.4213 C   0  0  0  0  0  0  0  0  0  0  0  0
    6.5433  -19.9562   14.4255 N   0  0  0  0  0  0  0  0  0  0  0  0
    7.6202  -17.4127   21.2345 C   0  0  0  0  0  0  0  0  0  0  0  0
    6.5716  -16.6997   21.3185 O   0  0  0  0  0  0  0  0  0  0  0  0
    8.1131  -17.9848   22.4338 N   0  0  0  0  0  0  0  0  0  0  0  0
    7.4029  -17.7697   23.7256 C   0  0  1  0  0  0  0  0  0  0  0  0
    7.6350  -18.9959   24.5783 C   0  0  0  0  0  0  0  0  0  0  0  0
    7.1294  -18.8231   25.9555 C   0  0  0  0  0  0  0  0  0  0  0  0
    7.4250  -20.0431   26.8317 C   0  0  0  0  0  0  0  0  0  0  0  0
    6.8659  -19.8047   28.2220 C   0  0  0  0  0  0  0  0  0  0  0  0
    7.2804  -20.8955   29.0508 N   0  0  0  0  0  0  0  0  0  0  0  0
    8.0130  -16.5877   24.3526 C   0  0  0  0  0  0  0  0  0  0  0  0
    9.2834  -16.4455   24.2584 O   0  0  0  0  0  0  0  0  0  0  0  0
    7.3431  -15.5719   25.0545 N   0  0  0  0  0  0  0  0  0  0  0  0
    8.0256  -14.4187   25.6325 C   0  0  1  0  0  0  0  0  0  0  0  0
    6.9812  -13.2972   25.6514 C   0  0  0  0  0  0  0  0  0  0  0  0
    7.6407  -11.7838   26.3647 S   0  0  0  0  0  0  0  0  0  0  0  0
    8.4793  -14.6908   27.0122 C   0  0  0  0  0  0  0  0  0  0  0  0
    7.9018  -15.5526   27.7020 O   0  0  0  0  0  0  0  0  0  0  0  0
    9.5505  -13.9692   27.5082 O   0  0  0  0  0  0  0  0  0  0  0  0
  2  1  1  1
  3  2  1  0
  4  3  1  0
  5  4  1  0
  6  5  1  0
  7  6  1  0
  8  9  2  0
  8  2  1  0
 10  8  1  0
 11 12  1  1
 11 10  1  0
 13 12  1  0
 14 13  1  0
 15 16  1  0
 15 14  1  0
 17 11  1  0
 18 17  2  0
 19 17  1  0
 20 19  1  0
 20 21  1  1
 21 22  1  0
 23 25  1  0
 23 20  1  0
 24 23  2  0
M  END
$$$$
