KKC.pdb
     RDKit          3D

 25 24  0  0  1  0  0  0  0  0999 V2000
    5.5419  -16.5038   21.1449 N   0  0  0  0  0  0  0  0  0  0  0  0
    6.7625  -15.8992   21.5527 C   0  0  1  0  0  0  0  0  0  0  0  0
    6.8936  -14.4360   21.3860 C   0  0  0  0  0  0  0  0  0  0  0  0
    6.9630  -13.9678   19.9791 C   0  0  0  0  0  0  0  0  0  0  0  0
    8.3667  -13.6336   19.5678 C   0  0  0  0  0  0  0  0  0  0  0  0
    8.3743  -13.0468   18.1398 C   0  0  0  0  0  0  0  0  0  0  0  0
    9.7239  -12.6537   17.7979 N   0  0  0  0  0  0  0  0  0  0  0  0
    7.0115  -16.3049   22.9775 C   0  0  0  0  0  0  0  0  0  0  0  0
    6.1004  -16.2072   23.8580 O   0  0  0  0  0  0  0  0  0  0  0  0
    8.2670  -16.8113   23.3969 N   0  0  0  0  0  0  0  0  0  0  0  0
    8.5026  -17.1705   24.8234 C   0  0  1  0  0  0  0  0  0  0  0  0
    9.5108  -18.2964   24.8451 C   0  0  0  0  0  0  0  0  0  0  0  0
    9.8022  -18.7596   26.2171 C   0  0  0  0  0  0  0  0  0  0  0  0
   10.9257  -19.7992   26.2444 C   0  0  0  0  0  0  0  0  0  0  0  0
   11.2349  -20.1603   27.6854 C   0  0  0  0  0  0  0  0  0  0  0  0
   12.2386  -21.1807   27.6726 N   0  0  0  0  0  0  0  0  0  0  0  0
    9.0572  -15.9748   25.4752 C   0  0  0  0  0  0  0  0  0  0  0  0
   10.0290  -15.3711   24.8972 O   0  0  0  0  0  0  0  0  0  0  0  0
    8.6275  -15.4047   26.6852 N   0  0  0  0  0  0  0  0  0  0  0  0
    9.2697  -14.2429   27.2913 C   0  0  1  0  0  0  0  0  0  0  0  0
    8.1207  -13.3462   27.7655 C   0  0  0  0  0  0  0  0  0  0  0  0
    6.9489  -13.0089   26.4437 S   0  0  0  0  0  0  0  0  0  0  0  0
   10.1043  -14.6254   28.4492 C   0  0  0  0  0  0  0  0  0  0  0  0
   10.1979  -15.8215   28.7847 O   0  0  0  0  0  0  0  0  0  0  0  0
   10.7696  -13.6284   29.1402 O   0  0  0  0  0  0  0  0  0  0  0  0
  2  1  1  1
  3  2  1  0
  4  3  1  0
  5  4  1  0
  6  5  1  0
  7  6  1  0
  8  9  2  0
  8  2  1  0
 10  8  1  0
 11 12  1  6
 11 10  1  0
 13 12  1  0
 14 13  1  0
 15 16  1  0
 15 14  1  0
 17 11  1  0
 18 17  2  0
 19 17  1  0
 20 19  1  0
 20 21  1  1
 21 22  1  0
 23 25  1  0
 23 20  1  0
 24 23  2  0
M  END
$$$$
