KKC.pdb
     RDKit          3D

 25 24  0  0  1  0  0  0  0  0999 V2000
    5.8160  -17.2669   20.7599 N   0  0  0  0  0  0  0  0  0  0  0  0
    6.9718  -16.5666   21.2017 C   0  0  1  0  0  0  0  0  0  0  0  0
    7.1614  -15.1814   20.7208 C   0  0  0  0  0  0  0  0  0  0  0  0
    7.7633  -15.0627   19.3691 C   0  0  0  0  0  0  0  0  0  0  0  0
    7.8843  -13.6323   18.9326 C   0  0  0  0  0  0  0  0  0  0  0  0
    8.3648  -13.5651   17.4670 C   0  0  0  0  0  0  0  0  0  0  0  0
    8.3777  -12.1839   17.0370 N   0  0  0  0  0  0  0  0  0  0  0  0
    6.9861  -16.6238   22.7028 C   0  0  0  0  0  0  0  0  0  0  0  0
    5.9123  -16.5235   23.3750 O   0  0  0  0  0  0  0  0  0  0  0  0
    8.1920  -16.7913   23.4282 N   0  0  0  0  0  0  0  0  0  0  0  0
    8.1823  -16.8361   24.9173 C   0  0  1  0  0  0  0  0  0  0  0  0
    9.0509  -17.9987   25.3400 C   0  0  0  0  0  0  0  0  0  0  0  0
    9.2346  -18.0559   26.8045 C   0  0  0  0  0  0  0  0  0  0  0  0
   10.0902  -19.2526   27.2283 C   0  0  0  0  0  0  0  0  0  0  0  0
   10.2213  -19.2603   28.7400 C   0  0  0  0  0  0  0  0  0  0  0  0
   11.0522  -20.3691   29.0992 N   0  0  0  0  0  0  0  0  0  0  0  0
    8.7631  -15.5680   25.3830 C   0  0  0  0  0  0  0  0  0  0  0  0
    9.9204  -15.2387   24.9413 O   0  0  0  0  0  0  0  0  0  0  0  0
    8.1754  -14.6544   26.2738 N   0  0  0  0  0  0  0  0  0  0  0  0
    8.8874  -13.5038   26.8205 C   0  0  1  0  0  0  0  0  0  0  0  0
    7.9349  -12.3162   26.6433 C   0  0  0  0  0  0  0  0  0  0  0  0
    6.2120  -12.8240   26.7328 S   0  0  0  0  0  0  0  0  0  0  0  0
    9.1878  -13.6825   28.2563 C   0  0  0  0  0  0  0  0  0  0  0  0
    8.7420  -14.6705   28.8703 O   0  0  0  0  0  0  0  0  0  0  0  0
    9.9688  -12.7320   28.8895 O   0  0  0  0  0  0  0  0  0  0  0  0
  2  1  1  1
  3  2  1  0
  4  3  1  0
  5  4  1  0
  6  5  1  0
  7  6  1  0
  8  9  2  0
  8  2  1  0
 10  8  1  0
 11 12  1  6
 11 10  1  0
 13 12  1  0
 14 13  1  0
 15 16  1  0
 15 14  1  0
 17 11  1  0
 18 17  2  0
 19 17  1  0
 20 19  1  0
 20 21  1  1
 21 22  1  0
 23 25  1  0
 23 20  1  0
 24 23  2  0
M  END
$$$$
