KKC.pdb
     RDKit          3D

 25 24  0  0  1  0  0  0  0  0999 V2000
    9.9443  -21.9298   20.6489 N   0  0  0  0  0  0  0  0  0  0  0  0
   11.1967  -22.5467   20.3795 C   0  0  1  0  0  0  0  0  0  0  0  0
   11.2239  -23.6406   19.3852 C   0  0  0  0  0  0  0  0  0  0  0  0
   10.2315  -23.5171   18.2883 C   0  0  0  0  0  0  0  0  0  0  0  0
   10.2605  -24.7029   17.3694 C   0  0  0  0  0  0  0  0  0  0  0  0
    9.5952  -24.3455   16.0229 C   0  0  0  0  0  0  0  0  0  0  0  0
    9.6698  -25.4896   15.1408 N   0  0  0  0  0  0  0  0  0  0  0  0
   12.1644  -21.4583   20.0114 C   0  0  0  0  0  0  0  0  0  0  0  0
   13.3924  -21.7121   19.8048 O   0  0  0  0  0  0  0  0  0  0  0  0
   11.7501  -20.1094   19.8796 N   0  0  0  0  0  0  0  0  0  0  0  0
   12.7121  -19.0587   19.4437 C   0  0  1  0  0  0  0  0  0  0  0  0
   12.1626  -18.4396   18.1791 C   0  0  0  0  0  0  0  0  0  0  0  0
   12.5951  -19.1656   16.9675 C   0  0  0  0  0  0  0  0  0  0  0  0
   12.0117  -18.5510   15.6925 C   0  0  0  0  0  0  0  0  0  0  0  0
   12.4062  -19.4056   14.5024 C   0  0  0  0  0  0  0  0  0  0  0  0
   11.8350  -18.8121   13.3319 N   0  0  0  0  0  0  0  0  0  0  0  0
   12.7648  -18.0594   20.5213 C   0  0  0  0  0  0  0  0  0  0  0  0
   11.6552  -17.6389   21.0059 O   0  0  0  0  0  0  0  0  0  0  0  0
   13.9216  -17.5060   21.0949 N   0  0  0  0  0  0  0  0  0  0  0  0
   13.8844  -16.4990   22.1505 C   0  0  1  0  0  0  0  0  0  0  0  0
   13.1461  -17.1630   23.3181 C   0  0  0  0  0  0  0  0  0  0  0  0
   13.2146  -16.1584   24.8081 S   0  0  0  0  0  0  0  0  0  0  0  0
   15.2439  -16.1151   22.5837 C   0  0  0  0  0  0  0  0  0  0  0  0
   16.2330  -16.7578   22.1827 O   0  0  0  0  0  0  0  0  0  0  0  0
   15.3834  -15.0348   23.4368 O   0  0  0  0  0  0  0  0  0  0  0  0
  2  1  1  6
  3  2  1  0
  4  3  1  0
  5  4  1  0
  6  5  1  0
  7  6  1  0
  8  9  2  0
  8  2  1  0
 10  8  1  0
 11 12  1  6
 11 10  1  0
 13 12  1  0
 14 13  1  0
 15 16  1  0
 15 14  1  0
 17 11  1  0
 18 17  2  0
 19 17  1  0
 20 19  1  0
 20 21  1  1
 21 22  1  0
 23 25  1  0
 23 20  1  0
 24 23  2  0
M  END
$$$$
