KKC.pdb
     RDKit          3D

 25 24  0  0  1  0  0  0  0  0999 V2000
    8.6323  -15.8795   20.3015 N   0  0  0  0  0  0  0  0  0  0  0  0
    8.5340  -14.6727   21.0469 C   0  0  1  0  0  0  0  0  0  0  0  0
    7.6310  -13.6202   20.5341 C   0  0  0  0  0  0  0  0  0  0  0  0
    6.9979  -13.9188   19.2251 C   0  0  0  0  0  0  0  0  0  0  0  0
    7.9261  -13.6464   18.0780 C   0  0  0  0  0  0  0  0  0  0  0  0
    7.2003  -13.8979   16.7388 C   0  0  0  0  0  0  0  0  0  0  0  0
    8.1685  -13.8696   15.6643 N   0  0  0  0  0  0  0  0  0  0  0  0
    8.1834  -15.0437   22.4597 C   0  0  0  0  0  0  0  0  0  0  0  0
    7.8320  -14.1610   23.3037 O   0  0  0  0  0  0  0  0  0  0  0  0
    8.2296  -16.3874   22.9079 N   0  0  0  0  0  0  0  0  0  0  0  0
    7.8220  -16.7389   24.2971 C   0  0  1  0  0  0  0  0  0  0  0  0
    7.7495  -18.2464   24.3789 C   0  0  0  0  0  0  0  0  0  0  0  0
    7.4377  -18.7179   25.7436 C   0  0  0  0  0  0  0  0  0  0  0  0
    7.3507  -20.2446   25.8164 C   0  0  0  0  0  0  0  0  0  0  0  0
    6.9466  -20.6538   27.2206 C   0  0  0  0  0  0  0  0  0  0  0  0
    6.7136  -22.0660   27.2123 N   0  0  0  0  0  0  0  0  0  0  0  0
    8.8736  -16.2281   25.1891 C   0  0  0  0  0  0  0  0  0  0  0  0
   10.0933  -16.3597   24.8175 O   0  0  0  0  0  0  0  0  0  0  0  0
    8.6859  -15.5934   26.4282 N   0  0  0  0  0  0  0  0  0  0  0  0
    9.7903  -15.1251   27.2592 C   0  0  1  0  0  0  0  0  0  0  0  0
    9.2643  -13.8685   27.9617 C   0  0  0  0  0  0  0  0  0  0  0  0
   10.4783  -13.1813   29.0966 S   0  0  0  0  0  0  0  0  0  0  0  0
   10.1728  -16.1305   28.2723 C   0  0  0  0  0  0  0  0  0  0  0  0
    9.3464  -16.9822   28.6512 O   0  0  0  0  0  0  0  0  0  0  0  0
   11.4592  -16.0978   28.7806 O   0  0  0  0  0  0  0  0  0  0  0  0
  2  1  1  6
  3  2  1  0
  4  3  1  0
  5  4  1  0
  6  5  1  0
  7  6  1  0
  8  9  2  0
  8  2  1  0
 10  8  1  0
 11 12  1  6
 11 10  1  0
 13 12  1  0
 14 13  1  0
 15 16  1  0
 15 14  1  0
 17 11  1  0
 18 17  2  0
 19 17  1  0
 20 19  1  0
 20 21  1  1
 21 22  1  0
 23 25  1  0
 23 20  1  0
 24 23  2  0
M  END
$$$$
