KKC.pdb
     RDKit          3D

 25 24  0  0  1  0  0  0  0  0999 V2000
    8.6910  -16.3670   18.6084 N   0  0  0  0  0  0  0  0  0  0  0  0
    7.7020  -16.4799   19.6237 C   0  0  1  0  0  0  0  0  0  0  0  0
    7.1019  -17.8115   19.8531 C   0  0  0  0  0  0  0  0  0  0  0  0
    8.0732  -18.8978   20.1362 C   0  0  0  0  0  0  0  0  0  0  0  0
    7.3955  -20.2254   20.3081 C   0  0  0  0  0  0  0  0  0  0  0  0
    8.4346  -21.3064   20.6757 C   0  0  0  0  0  0  0  0  0  0  0  0
    7.7550  -22.5688   20.8682 N   0  0  0  0  0  0  0  0  0  0  0  0
    8.2924  -15.9282   20.8901 C   0  0  0  0  0  0  0  0  0  0  0  0
    9.5444  -15.9689   21.1044 O   0  0  0  0  0  0  0  0  0  0  0  0
    7.4815  -15.3421   21.8938 N   0  0  0  0  0  0  0  0  0  0  0  0
    8.0973  -14.7077   23.0929 C   0  0  1  0  0  0  0  0  0  0  0  0
    6.9987  -13.9801   23.8334 C   0  0  0  0  0  0  0  0  0  0  0  0
    7.4772  -13.3807   25.0958 C   0  0  0  0  0  0  0  0  0  0  0  0
    6.3639  -12.6312   25.8323 C   0  0  0  0  0  0  0  0  0  0  0  0
    6.9252  -12.0373   27.1109 C   0  0  0  0  0  0  0  0  0  0  0  0
    5.8605  -11.3485   27.7748 N   0  0  0  0  0  0  0  0  0  0  0  0
    8.6359  -15.7981   23.9195 C   0  0  0  0  0  0  0  0  0  0  0  0
    7.8624  -16.7827   24.1942 O   0  0  0  0  0  0  0  0  0  0  0  0
    9.9341  -15.8854   24.4491 N   0  0  0  0  0  0  0  0  0  0  0  0
   10.4159  -17.0459   25.1912 C   0  0  1  0  0  0  0  0  0  0  0  0
   11.8750  -17.2265   24.7583 C   0  0  0  0  0  0  0  0  0  0  0  0
   12.8407  -15.7338   25.0294 S   0  0  0  0  0  0  0  0  0  0  0  0
   10.3609  -16.8192   26.6504 C   0  0  0  0  0  0  0  0  0  0  0  0
    9.9756  -15.7227   27.0989 O   0  0  0  0  0  0  0  0  0  0  0  0
   10.7452  -17.8478   27.4921 O   0  0  0  0  0  0  0  0  0  0  0  0
  2  1  1  6
  3  2  1  0
  4  3  1  0
  5  4  1  0
  6  5  1  0
  7  6  1  0
  8  9  2  0
  8  2  1  0
 10  8  1  0
 11 12  1  1
 11 10  1  0
 13 12  1  0
 14 13  1  0
 15 16  1  0
 15 14  1  0
 17 11  1  0
 18 17  2  0
 19 17  1  0
 20 19  1  0
 20 21  1  6
 21 22  1  0
 23 25  1  0
 23 20  1  0
 24 23  2  0
M  END
$$$$
