KKC.pdb
     RDKit          3D

 25 24  0  0  1  0  0  0  0  0999 V2000
    8.8551  -18.7558   19.4013 N   0  0  0  0  0  0  0  0  0  0  0  0
   10.0924  -18.1954   18.9808 C   0  0  1  0  0  0  0  0  0  0  0  0
   10.3859  -18.1880   17.5317 C   0  0  0  0  0  0  0  0  0  0  0  0
    9.7562  -19.2870   16.7577 C   0  0  0  0  0  0  0  0  0  0  0  0
   10.3999  -20.6126   17.0405 C   0  0  0  0  0  0  0  0  0  0  0  0
    9.7581  -21.7101   16.1647 C   0  0  0  0  0  0  0  0  0  0  0  0
   10.4195  -22.9698   16.4260 N   0  0  0  0  0  0  0  0  0  0  0  0
   10.1776  -16.8103   19.5561 C   0  0  0  0  0  0  0  0  0  0  0  0
   11.1388  -16.0334   19.2605 O   0  0  0  0  0  0  0  0  0  0  0  0
    9.1940  -16.3148   20.4479 N   0  0  0  0  0  0  0  0  0  0  0  0
    9.2770  -14.9229   20.9726 C   0  0  1  0  0  0  0  0  0  0  0  0
    7.9102  -14.2976   20.8128 C   0  0  0  0  0  0  0  0  0  0  0  0
    7.8774  -13.2948   19.7287 C   0  0  0  0  0  0  0  0  0  0  0  0
    7.5924  -13.9327   18.3666 C   0  0  0  0  0  0  0  0  0  0  0  0
    7.6637  -12.8640   17.2917 C   0  0  0  0  0  0  0  0  0  0  0  0
    7.4882  -13.5078   16.0255 N   0  0  0  0  0  0  0  0  0  0  0  0
    9.6283  -15.0273   22.3967 C   0  0  0  0  0  0  0  0  0  0  0  0
    9.1048  -14.1846   23.2084 O   0  0  0  0  0  0  0  0  0  0  0  0
   10.4888  -15.9720   22.9803 N   0  0  0  0  0  0  0  0  0  0  0  0
   10.5687  -16.1949   24.4203 C   0  0  1  0  0  0  0  0  0  0  0  0
    9.2180  -16.8044   24.8116 C   0  0  0  0  0  0  0  0  0  0  0  0
    9.1919  -17.3170   26.5352 S   0  0  0  0  0  0  0  0  0  0  0  0
   11.6520  -17.1389   24.7650 C   0  0  0  0  0  0  0  0  0  0  0  0
   12.0841  -17.9345   23.9092 O   0  0  0  0  0  0  0  0  0  0  0  0
   12.1649  -17.1131   26.0497 O   0  0  0  0  0  0  0  0  0  0  0  0
  2  1  1  6
  3  2  1  0
  4  3  1  0
  5  4  1  0
  6  5  1  0
  7  6  1  0
  8  9  2  0
  8  2  1  0
 10  8  1  0
 11 12  1  1
 11 10  1  0
 13 12  1  0
 14 13  1  0
 15 16  1  0
 15 14  1  0
 17 11  1  0
 18 17  2  0
 19 17  1  0
 20 19  1  0
 20 21  1  6
 21 22  1  0
 23 25  1  0
 23 20  1  0
 24 23  2  0
M  END
$$$$
