KKC.pdb
     RDKit          3D

 25 24  0  0  1  0  0  0  0  0999 V2000
    6.4048  -17.5158   20.4178 N   0  0  0  0  0  0  0  0  0  0  0  0
    7.5167  -16.7697   20.8960 C   0  0  1  0  0  0  0  0  0  0  0  0
    7.5664  -15.3278   20.5731 C   0  0  0  0  0  0  0  0  0  0  0  0
    7.9533  -15.0101   19.1756 C   0  0  0  0  0  0  0  0  0  0  0  0
    8.0360  -13.5307   18.9390 C   0  0  0  0  0  0  0  0  0  0  0  0
    8.3032  -13.2478   17.4450 C   0  0  0  0  0  0  0  0  0  0  0  0
    8.2890  -11.8181   17.2251 N   0  0  0  0  0  0  0  0  0  0  0  0
    7.6051  -16.9944   22.3787 C   0  0  0  0  0  0  0  0  0  0  0  0
    6.5603  -17.0362   23.1010 O   0  0  0  0  0  0  0  0  0  0  0  0
    8.8514  -17.1686   23.0305 N   0  0  0  0  0  0  0  0  0  0  0  0
    8.9243  -17.2698   24.5150 C   0  0  1  0  0  0  0  0  0  0  0  0
   10.0938  -18.1669   24.8498 C   0  0  0  0  0  0  0  0  0  0  0  0
   10.3278  -18.2609   26.3053 C   0  0  0  0  0  0  0  0  0  0  0  0
   11.4854  -19.2052   26.6397 C   0  0  0  0  0  0  0  0  0  0  0  0
   11.6307  -19.3001   28.1472 C   0  0  0  0  0  0  0  0  0  0  0  0
   12.6683  -20.2459   28.4257 N   0  0  0  0  0  0  0  0  0  0  0  0
    9.1617  -15.9098   25.0211 C   0  0  0  0  0  0  0  0  0  0  0  0
   10.1027  -15.2244   24.4846 O   0  0  0  0  0  0  0  0  0  0  0  0
    8.4530  -15.2616   26.0463 N   0  0  0  0  0  0  0  0  0  0  0  0
    8.7488  -13.9009   26.4829 C   0  0  1  0  0  0  0  0  0  0  0  0
    7.3842  -13.2229   26.6488 C   0  0  0  0  0  0  0  0  0  0  0  0
    7.5361  -11.5906   27.3880 S   0  0  0  0  0  0  0  0  0  0  0  0
    9.4640  -13.8882   27.7758 C   0  0  0  0  0  0  0  0  0  0  0  0
    9.3686  -14.8572   28.5529 O   0  0  0  0  0  0  0  0  0  0  0  0
   10.2326  -12.7823   28.0931 O   0  0  0  0  0  0  0  0  0  0  0  0
  2  1  1  1
  3  2  1  0
  4  3  1  0
  5  4  1  0
  6  5  1  0
  7  6  1  0
  8  9  2  0
  8  2  1  0
 10  8  1  0
 11 12  1  6
 11 10  1  0
 13 12  1  0
 14 13  1  0
 15 16  1  0
 15 14  1  0
 17 11  1  0
 18 17  2  0
 19 17  1  0
 20 19  1  0
 20 21  1  1
 21 22  1  0
 23 25  1  0
 23 20  1  0
 24 23  2  0
M  END
$$$$
