KKC.pdb
     RDKit          3D

 25 24  0  0  1  0  0  0  0  0999 V2000
    9.9464  -14.8354   19.9973 N   0  0  0  0  0  0  0  0  0  0  0  0
    8.9856  -13.8486   20.3506 C   0  0  1  0  0  0  0  0  0  0  0  0
    8.0103  -13.4386   19.3179 C   0  0  0  0  0  0  0  0  0  0  0  0
    7.8976  -14.3600   18.1595 C   0  0  0  0  0  0  0  0  0  0  0  0
    7.4851  -13.6408   16.9089 C   0  0  0  0  0  0  0  0  0  0  0  0
    7.2199  -14.6569   15.7771 C   0  0  0  0  0  0  0  0  0  0  0  0
    6.7782  -13.9454   14.5976 N   0  0  0  0  0  0  0  0  0  0  0  0
    8.2885  -14.3241   21.5934 C   0  0  0  0  0  0  0  0  0  0  0  0
    7.3036  -13.6854   22.0804 O   0  0  0  0  0  0  0  0  0  0  0  0
    8.6980  -15.4995   22.2711 N   0  0  0  0  0  0  0  0  0  0  0  0
    7.9274  -16.0097   23.4396 C   0  0  1  0  0  0  0  0  0  0  0  0
    8.3680  -17.4348   23.6839 C   0  0  0  0  0  0  0  0  0  0  0  0
    7.7120  -18.0279   24.8670 C   0  0  0  0  0  0  0  0  0  0  0  0
    8.2185  -19.4439   25.1533 C   0  0  0  0  0  0  0  0  0  0  0  0
    7.4714  -20.0078   26.3477 C   0  0  0  0  0  0  0  0  0  0  0  0
    7.9467  -21.3396   26.5691 N   0  0  0  0  0  0  0  0  0  0  0  0
    8.2843  -15.1605   24.5858 C   0  0  0  0  0  0  0  0  0  0  0  0
    9.5243  -14.8972   24.7759 O   0  0  0  0  0  0  0  0  0  0  0  0
    7.3976  -14.5887   25.5132 N   0  0  0  0  0  0  0  0  0  0  0  0
    7.8277  -13.6824   26.5732 C   0  0  1  0  0  0  0  0  0  0  0  0
    6.5452  -13.0123   27.0784 C   0  0  0  0  0  0  0  0  0  0  0  0
    5.6659  -12.1713   25.7541 S   0  0  0  0  0  0  0  0  0  0  0  0
    8.4711  -14.4127   27.6850 C   0  0  0  0  0  0  0  0  0  0  0  0
    8.4836  -15.6585   27.6907 O   0  0  0  0  0  0  0  0  0  0  0  0
    9.0514  -13.6811   28.7058 O   0  0  0  0  0  0  0  0  0  0  0  0
  2  1  1  6
  3  2  1  0
  4  3  1  0
  5  4  1  0
  6  5  1  0
  7  6  1  0
  8  9  2  0
  8  2  1  0
 10  8  1  0
 11 12  1  1
 11 10  1  0
 13 12  1  0
 14 13  1  0
 15 16  1  0
 15 14  1  0
 17 11  1  0
 18 17  2  0
 19 17  1  0
 20 19  1  0
 20 21  1  1
 21 22  1  0
 23 25  1  0
 23 20  1  0
 24 23  2  0
M  END
$$$$
