KKC.pdb
     RDKit          3D

 25 24  0  0  1  0  0  0  0  0999 V2000
    9.3940  -18.6826   18.0335 N   0  0  0  0  0  0  0  0  0  0  0  0
    8.7725  -18.4022   19.2812 C   0  0  1  0  0  0  0  0  0  0  0  0
    8.8966  -19.4131   20.3530 C   0  0  0  0  0  0  0  0  0  0  0  0
   10.2145  -20.0921   20.4263 C   0  0  0  0  0  0  0  0  0  0  0  0
   10.2354  -21.1645   21.4755 C   0  0  0  0  0  0  0  0  0  0  0  0
   11.5884  -21.9076   21.4460 C   0  0  0  0  0  0  0  0  0  0  0  0
   11.6417  -22.8357   22.5544 N   0  0  0  0  0  0  0  0  0  0  0  0
    9.2725  -17.0626   19.7418 C   0  0  0  0  0  0  0  0  0  0  0  0
   10.5118  -16.7819   19.7254 O   0  0  0  0  0  0  0  0  0  0  0  0
    8.3870  -16.0607   20.2115 N   0  0  0  0  0  0  0  0  0  0  0  0
    8.8966  -14.7120   20.5864 C   0  0  1  0  0  0  0  0  0  0  0  0
    7.8575  -13.7013   20.1584 C   0  0  0  0  0  0  0  0  0  0  0  0
    7.3101  -13.9955   18.8183 C   0  0  0  0  0  0  0  0  0  0  0  0
    7.9991  -13.1746   17.7251 C   0  0  0  0  0  0  0  0  0  0  0  0
    7.3148  -13.4404   16.3971 C   0  0  0  0  0  0  0  0  0  0  0  0
    7.9356  -12.6068   15.4130 N   0  0  0  0  0  0  0  0  0  0  0  0
    9.0433  -14.7063   22.0496 C   0  0  0  0  0  0  0  0  0  0  0  0
    9.4474  -13.6261   22.6091 O   0  0  0  0  0  0  0  0  0  0  0  0
    8.7790  -15.7749   22.9223 N   0  0  0  0  0  0  0  0  0  0  0  0
    9.1498  -15.7618   24.3337 C   0  0  1  0  0  0  0  0  0  0  0  0
    7.8668  -16.1174   25.0930 C   0  0  0  0  0  0  0  0  0  0  0  0
    8.1641  -16.2967   26.8576 S   0  0  0  0  0  0  0  0  0  0  0  0
   10.1913  -16.7667   24.6315 C   0  0  0  0  0  0  0  0  0  0  0  0
   10.4047  -17.7011   23.8357 O   0  0  0  0  0  0  0  0  0  0  0  0
   10.9128  -16.6403   25.8053 O   0  0  0  0  0  0  0  0  0  0  0  0
  2  1  1  6
  3  2  1  0
  4  3  1  0
  5  4  1  0
  6  5  1  0
  7  6  1  0
  8  9  2  0
  8  2  1  0
 10  8  1  0
 11 12  1  1
 11 10  1  0
 13 12  1  0
 14 13  1  0
 15 16  1  0
 15 14  1  0
 17 11  1  0
 18 17  2  0
 19 17  1  0
 20 19  1  0
 20 21  1  1
 21 22  1  0
 23 25  1  0
 23 20  1  0
 24 23  2  0
M  END
$$$$
