AFD.pdb
     RDKit          3D

 25 25  0  0  1  0  0  0  0  0999 V2000
    7.8745  -13.6801   18.4056 C   0  0  0  0  0  0  0  0  0  0  0  0
    8.1279  -14.9426   19.1986 C   0  0  2  0  0  0  0  0  0  0  0  0
    6.9183  -15.7435   19.1675 N   0  0  0  0  0  0  0  0  0  0  0  0
    8.5073  -14.6476   20.6082 C   0  0  0  0  0  0  0  0  0  0  0  0
    9.6895  -14.3983   20.9503 O   0  0  0  0  0  0  0  0  0  0  0  0
    7.5170  -14.6437   21.6084 N   0  0  0  0  0  0  0  0  0  0  0  0
    7.7888  -14.3804   23.0124 C   0  0  1  0  0  0  0  0  0  0  0  0
    6.4978  -13.8872   23.6566 C   0  0  0  0  0  0  0  0  0  0  0  0
    6.7076  -13.5116   25.0795 C   0  0  0  0  0  0  0  0  0  0  0  0
    7.1093  -12.2352   25.4398 C   0  0  0  0  0  0  0  0  0  0  0  0
    7.3129  -11.8541   26.7492 C   0  0  0  0  0  0  0  0  0  0  0  0
    7.1084  -12.7844   27.7535 C   0  0  0  0  0  0  0  0  0  0  0  0
    6.7099  -14.0604   27.4382 C   0  0  0  0  0  0  0  0  0  0  0  0
    6.5131  -14.4152   26.1142 C   0  0  0  0  0  0  0  0  0  0  0  0
    8.2542  -15.5717   23.7289 C   0  0  0  0  0  0  0  0  0  0  0  0
    7.6713  -16.6630   23.5538 O   0  0  0  0  0  0  0  0  0  0  0  0
    9.3565  -15.4835   24.6124 N   0  0  0  0  0  0  0  0  0  0  0  0
   10.1880  -16.6140   24.9577 C   0  0  1  0  0  0  0  0  0  0  0  0
   11.5243  -16.5236   24.2062 C   0  0  0  0  0  0  0  0  0  0  0  0
   12.3407  -17.7223   24.4910 C   0  0  0  0  0  0  0  0  0  0  0  0
   13.1970  -17.6907   25.4054 O   0  0  0  0  0  0  0  0  0  0  0  0
   10.4336  -16.5985   26.4216 C   0  0  0  0  0  0  0  0  0  0  0  0
   10.0801  -15.5581   27.2471 O   0  0  0  0  0  0  0  0  0  0  0  0
   12.2242  -18.9237   23.7944 O   0  0  0  0  0  0  0  0  0  0  0  0
   11.0038  -17.6134   26.9204 O   0  0  0  0  0  0  0  0  0  0  0  0
  2  4  1  0
  2  1  1  6
  3  2  1  0
  4  5  2  0
  6  7  1  0
  6  4  1  0
  7  8  1  1
  8  9  1  0
  9 10  2  0
 10 11  1  0
 12 11  2  0
 13 12  1  0
 14 13  2  0
 14  9  1  0
 15 17  1  0
 15  7  1  0
 16 15  2  0
 18 17  1  0
 18 19  1  6
 19 20  1  0
 20 21  2  0
 20 24  1  0
 22 18  1  0
 22 23  1  0
 25 22  2  0
M  END
$$$$
