AFD.pdb
     RDKit          3D

 25 25  0  0  1  0  0  0  0  0999 V2000
    7.8250  -12.8845   18.2626 C   0  0  0  0  0  0  0  0  0  0  0  0
    8.1080  -14.1857   18.9795 C   0  0  2  0  0  0  0  0  0  0  0  0
    6.9214  -15.0159   18.8893 N   0  0  0  0  0  0  0  0  0  0  0  0
    8.4694  -13.9671   20.4076 C   0  0  0  0  0  0  0  0  0  0  0  0
    9.5779  -13.4921   20.7577 O   0  0  0  0  0  0  0  0  0  0  0  0
    7.5465  -14.2995   21.4170 N   0  0  0  0  0  0  0  0  0  0  0  0
    7.8188  -14.1578   22.8383 C   0  0  1  0  0  0  0  0  0  0  0  0
    6.5203  -13.7536   23.5276 C   0  0  0  0  0  0  0  0  0  0  0  0
    6.7467  -13.4041   24.9547 C   0  0  0  0  0  0  0  0  0  0  0  0
    6.3125  -14.2291   25.9800 C   0  0  0  0  0  0  0  0  0  0  0  0
    6.5060  -13.9349   27.3131 C   0  0  0  0  0  0  0  0  0  0  0  0
    7.1631  -12.7637   27.6484 C   0  0  0  0  0  0  0  0  0  0  0  0
    7.6093  -11.9188   26.6618 C   0  0  0  0  0  0  0  0  0  0  0  0
    7.4009  -12.2400   25.3311 C   0  0  0  0  0  0  0  0  0  0  0  0
    8.3136  -15.3982   23.4432 C   0  0  0  0  0  0  0  0  0  0  0  0
    7.7060  -16.4701   23.2355 O   0  0  0  0  0  0  0  0  0  0  0  0
    9.4718  -15.3788   24.2566 N   0  0  0  0  0  0  0  0  0  0  0  0
   10.1521  -16.5758   24.6959 C   0  0  1  0  0  0  0  0  0  0  0  0
   11.6444  -16.4825   24.3453 C   0  0  0  0  0  0  0  0  0  0  0  0
   12.3378  -17.7145   24.7764 C   0  0  0  0  0  0  0  0  0  0  0  0
   12.9958  -17.7189   25.8428 O   0  0  0  0  0  0  0  0  0  0  0  0
    9.9892  -16.7074   26.1655 C   0  0  0  0  0  0  0  0  0  0  0  0
   10.2370  -15.6920   27.0580 O   0  0  0  0  0  0  0  0  0  0  0  0
   12.3126  -18.9098   24.0605 O   0  0  0  0  0  0  0  0  0  0  0  0
    9.5980  -17.8296   26.6031 O   0  0  0  0  0  0  0  0  0  0  0  0
  2  4  1  0
  2  1  1  1
  3  2  1  0
  4  5  2  0
  6  7  1  0
  6  4  1  0
  7  8  1  1
  8  9  1  0
  9 10  2  0
 10 11  1  0
 12 11  2  0
 13 12  1  0
 14 13  2  0
 14  9  1  0
 15 17  1  0
 15  7  1  0
 16 15  2  0
 18 17  1  0
 18 19  1  1
 19 20  1  0
 20 21  2  0
 20 24  1  0
 22 18  1  0
 22 23  1  0
 25 22  2  0
M  END
$$$$
