AFD.pdb
     RDKit          3D

 25 25  0  0  1  0  0  0  0  0999 V2000
    9.0491  -18.2249   20.0464 C   0  0  0  0  0  0  0  0  0  0  0  0
    9.1466  -16.7268   19.8636 C   0  0  2  0  0  0  0  0  0  0  0  0
   10.2245  -16.4571   18.9304 N   0  0  0  0  0  0  0  0  0  0  0  0
    9.4005  -16.0244   21.1519 C   0  0  0  0  0  0  0  0  0  0  0  0
   10.5592  -15.7939   21.5775 O   0  0  0  0  0  0  0  0  0  0  0  0
    8.3131  -15.5953   21.9359 N   0  0  0  0  0  0  0  0  0  0  0  0
    8.4571  -14.9252   23.2183 C   0  0  1  0  0  0  0  0  0  0  0  0
    7.1409  -14.2223   23.5318 C   0  0  0  0  0  0  0  0  0  0  0  0
    7.2194  -13.4617   24.8066 C   0  0  0  0  0  0  0  0  0  0  0  0
    6.4935  -13.8438   25.9236 C   0  0  0  0  0  0  0  0  0  0  0  0
    6.5433  -13.1612   27.1206 C   0  0  0  0  0  0  0  0  0  0  0  0
    7.3531  -12.0428   27.2167 C   0  0  0  0  0  0  0  0  0  0  0  0
    8.0887  -11.6311   26.1323 C   0  0  0  0  0  0  0  0  0  0  0  0
    8.0191  -12.3362   24.9426 C   0  0  0  0  0  0  0  0  0  0  0  0
    8.7720  -15.8550   24.3072 C   0  0  0  0  0  0  0  0  0  0  0  0
    8.0714  -16.8773   24.4665 O   0  0  0  0  0  0  0  0  0  0  0  0
    9.8628  -15.5939   25.1707 N   0  0  0  0  0  0  0  0  0  0  0  0
   10.3497  -16.5460   26.1428 C   0  0  1  0  0  0  0  0  0  0  0  0
   11.8855  -16.5390   26.1514 C   0  0  0  0  0  0  0  0  0  0  0  0
   12.3959  -17.4508   25.1061 C   0  0  0  0  0  0  0  0  0  0  0  0
   11.5968  -18.1670   24.4591 O   0  0  0  0  0  0  0  0  0  0  0  0
    9.8387  -16.1653   27.4836 C   0  0  0  0  0  0  0  0  0  0  0  0
    9.9390  -16.9644   28.5972 O   0  0  0  0  0  0  0  0  0  0  0  0
   13.7443  -17.5763   24.7772 O   0  0  0  0  0  0  0  0  0  0  0  0
    9.2805  -15.0332   27.5868 O   0  0  0  0  0  0  0  0  0  0  0  0
  2  4  1  0
  2  1  1  1
  3  2  1  0
  4  5  2  0
  6  7  1  0
  6  4  1  0
  7  8  1  1
  8  9  1  0
  9 10  2  0
 10 11  1  0
 12 11  2  0
 13 12  1  0
 14 13  2  0
 14  9  1  0
 15 17  1  0
 15  7  1  0
 16 15  2  0
 18 17  1  0
 18 19  1  1
 19 20  1  0
 20 21  2  0
 20 24  1  0
 22 18  1  0
 22 23  1  0
 25 22  2  0
M  END
$$$$
