AFD.pdb
     RDKit          3D

 25 25  0  0  1  0  0  0  0  0999 V2000
    8.9755  -18.1586   20.1486 C   0  0  0  0  0  0  0  0  0  0  0  0
    9.0990  -16.6532   20.0732 C   0  0  2  0  0  0  0  0  0  0  0  0
   10.1796  -16.3361   19.1582 N   0  0  0  0  0  0  0  0  0  0  0  0
    9.3679  -16.0495   21.4078 C   0  0  0  0  0  0  0  0  0  0  0  0
   10.5220  -15.9847   21.8985 O   0  0  0  0  0  0  0  0  0  0  0  0
    8.3008  -15.5268   22.1622 N   0  0  0  0  0  0  0  0  0  0  0  0
    8.4459  -15.0030   23.5108 C   0  0  1  0  0  0  0  0  0  0  0  0
    7.1432  -14.3057   23.8870 C   0  0  0  0  0  0  0  0  0  0  0  0
    7.2593  -13.6004   25.1904 C   0  0  0  0  0  0  0  0  0  0  0  0
    8.4382  -13.6139   25.9186 C   0  0  0  0  0  0  0  0  0  0  0  0
    8.5795  -12.9707   27.1300 C   0  0  0  0  0  0  0  0  0  0  0  0
    7.4980  -12.2788   27.6472 C   0  0  0  0  0  0  0  0  0  0  0  0
    6.3116  -12.2411   26.9563 C   0  0  0  0  0  0  0  0  0  0  0  0
    6.1985  -12.8964   25.7418 C   0  0  0  0  0  0  0  0  0  0  0  0
    8.7264  -16.0524   24.4953 C   0  0  0  0  0  0  0  0  0  0  0  0
    7.8594  -16.9196   24.7354 O   0  0  0  0  0  0  0  0  0  0  0  0
    9.9716  -16.0808   25.1678 N   0  0  0  0  0  0  0  0  0  0  0  0
   10.3287  -17.0962   26.1321 C   0  0  1  0  0  0  0  0  0  0  0  0
   11.8049  -17.4820   25.9564 C   0  0  0  0  0  0  0  0  0  0  0  0
   12.0784  -17.7803   24.5348 C   0  0  0  0  0  0  0  0  0  0  0  0
   12.8269  -17.0249   23.8720 O   0  0  0  0  0  0  0  0  0  0  0  0
   10.1101  -16.5577   27.4980 C   0  0  0  0  0  0  0  0  0  0  0  0
   10.1356  -17.3254   28.6376 O   0  0  0  0  0  0  0  0  0  0  0  0
   11.5475  -18.8754   23.8560 O   0  0  0  0  0  0  0  0  0  0  0  0
    9.8882  -15.3148   27.5981 O   0  0  0  0  0  0  0  0  0  0  0  0
  2  4  1  0
  2  1  1  1
  3  2  1  0
  4  5  2  0
  6  7  1  0
  6  4  1  0
  7  8  1  1
  8  9  1  0
  9 10  2  0
 10 11  1  0
 12 11  2  0
 13 12  1  0
 14 13  2  0
 14  9  1  0
 15 17  1  0
 15  7  1  0
 16 15  2  0
 18 17  1  0
 18 19  1  1
 19 20  1  0
 20 21  2  0
 20 24  1  0
 22 18  1  0
 22 23  1  0
 25 22  2  0
M  END
$$$$
