AFD.pdb
     RDKit          3D

 25 25  0  0  1  0  0  0  0  0999 V2000
    8.6493  -18.2211   19.8380 C   0  0  0  0  0  0  0  0  0  0  0  0
    8.6558  -16.7163   19.6877 C   0  0  2  0  0  0  0  0  0  0  0  0
    9.6333  -16.3702   18.6727 N   0  0  0  0  0  0  0  0  0  0  0  0
    8.9861  -16.0307   20.9678 C   0  0  0  0  0  0  0  0  0  0  0  0
   10.1653  -15.9050   21.3808 O   0  0  0  0  0  0  0  0  0  0  0  0
    7.9507  -15.4972   21.7580 N   0  0  0  0  0  0  0  0  0  0  0  0
    8.1665  -14.8520   23.0431 C   0  0  1  0  0  0  0  0  0  0  0  0
    6.8793  -14.1319   23.4296 C   0  0  0  0  0  0  0  0  0  0  0  0
    7.0388  -13.3739   24.6984 C   0  0  0  0  0  0  0  0  0  0  0  0
    6.3635  -13.7416   25.8513 C   0  0  0  0  0  0  0  0  0  0  0  0
    6.4887  -13.0608   27.0438 C   0  0  0  0  0  0  0  0  0  0  0  0
    7.3252  -11.9593   27.0977 C   0  0  0  0  0  0  0  0  0  0  0  0
    8.0125  -11.5623   25.9768 C   0  0  0  0  0  0  0  0  0  0  0  0
    7.8674  -12.2651   24.7926 C   0  0  0  0  0  0  0  0  0  0  0  0
    8.5151  -15.8058   24.1005 C   0  0  0  0  0  0  0  0  0  0  0  0
    7.7785  -16.7940   24.3062 O   0  0  0  0  0  0  0  0  0  0  0  0
    9.6785  -15.6061   24.8816 N   0  0  0  0  0  0  0  0  0  0  0  0
   10.1766  -16.5808   25.8252 C   0  0  1  0  0  0  0  0  0  0  0  0
   11.7121  -16.5928   25.7964 C   0  0  0  0  0  0  0  0  0  0  0  0
   12.1843  -17.2446   24.5567 C   0  0  0  0  0  0  0  0  0  0  0  0
   11.5460  -18.2109   24.0783 O   0  0  0  0  0  0  0  0  0  0  0  0
    9.7031  -16.2173   27.1843 C   0  0  0  0  0  0  0  0  0  0  0  0
    9.0472  -15.0462   27.4796 O   0  0  0  0  0  0  0  0  0  0  0  0
   13.3244  -16.8505   23.8589 O   0  0  0  0  0  0  0  0  0  0  0  0
    9.9264  -17.0486   28.1132 O   0  0  0  0  0  0  0  0  0  0  0  0
  2  4  1  0
  2  1  1  1
  3  2  1  0
  4  5  2  0
  6  7  1  0
  6  4  1  0
  7  8  1  1
  8  9  1  0
  9 10  2  0
 10 11  1  0
 12 11  2  0
 13 12  1  0
 14 13  2  0
 14  9  1  0
 15 17  1  0
 15  7  1  0
 16 15  2  0
 18 17  1  0
 18 19  1  1
 19 20  1  0
 20 21  2  0
 20 24  1  0
 22 18  1  0
 22 23  1  0
 25 22  2  0
M  END
$$$$
