AFD.pdb
     RDKit          3D

 25 25  0  0  1  0  0  0  0  0999 V2000
    9.0936  -18.4005   20.0568 C   0  0  0  0  0  0  0  0  0  0  0  0
    9.1865  -16.9016   19.8787 C   0  0  2  0  0  0  0  0  0  0  0  0
   10.2912  -16.6234   18.9799 N   0  0  0  0  0  0  0  0  0  0  0  0
    9.3954  -16.1991   21.1751 C   0  0  0  0  0  0  0  0  0  0  0  0
   10.5309  -16.0651   21.6943 O   0  0  0  0  0  0  0  0  0  0  0  0
    8.2902  -15.6586   21.8589 N   0  0  0  0  0  0  0  0  0  0  0  0
    8.3826  -15.0089   23.1565 C   0  0  1  0  0  0  0  0  0  0  0  0
    7.0779  -14.2586   23.4004 C   0  0  0  0  0  0  0  0  0  0  0  0
    7.0954  -13.5446   24.7042 C   0  0  0  0  0  0  0  0  0  0  0  0
    7.9234  -12.4548   24.9220 C   0  0  0  0  0  0  0  0  0  0  0  0
    7.9642  -11.7706   26.1183 C   0  0  0  0  0  0  0  0  0  0  0  0
    7.1434  -12.1866   27.1523 C   0  0  0  0  0  0  0  0  0  0  0  0
    6.3080  -13.2625   26.9768 C   0  0  0  0  0  0  0  0  0  0  0  0
    6.2880  -13.9308   25.7642 C   0  0  0  0  0  0  0  0  0  0  0  0
    8.5958  -15.9623   24.2496 C   0  0  0  0  0  0  0  0  0  0  0  0
    7.8004  -16.9140   24.4009 O   0  0  0  0  0  0  0  0  0  0  0  0
    9.6958  -15.8033   25.1261 N   0  0  0  0  0  0  0  0  0  0  0  0
   10.0632  -16.7833   26.1227 C   0  0  1  0  0  0  0  0  0  0  0  0
   11.5859  -16.9840   26.1159 C   0  0  0  0  0  0  0  0  0  0  0  0
   11.9527  -17.9968   25.1038 C   0  0  0  0  0  0  0  0  0  0  0  0
   13.1322  -18.0618   24.6858 O   0  0  0  0  0  0  0  0  0  0  0  0
    9.6272  -16.2974   27.4558 C   0  0  0  0  0  0  0  0  0  0  0  0
    9.2862  -17.1245   28.4991 O   0  0  0  0  0  0  0  0  0  0  0  0
   11.0536  -18.9139   24.5629 O   0  0  0  0  0  0  0  0  0  0  0  0
    9.5725  -15.0430   27.6218 O   0  0  0  0  0  0  0  0  0  0  0  0
  2  4  1  0
  2  1  1  1
  3  2  1  0
  4  5  2  0
  6  7  1  0
  6  4  1  0
  7  8  1  1
  8  9  1  0
  9 10  2  0
 10 11  1  0
 12 11  2  0
 13 12  1  0
 14 13  2  0
 14  9  1  0
 15 17  1  0
 15  7  1  0
 16 15  2  0
 18 17  1  0
 18 19  1  1
 19 20  1  0
 20 21  2  0
 20 24  1  0
 22 18  1  0
 22 23  1  0
 25 22  2  0
M  END
$$$$
