AFD.pdb
     RDKit          3D

 25 25  0  0  1  0  0  0  0  0999 V2000
    9.2034  -18.3607   20.0954 C   0  0  0  0  0  0  0  0  0  0  0  0
    9.0728  -16.8629   19.9324 C   0  0  2  0  0  0  0  0  0  0  0  0
   10.0332  -16.4340   18.9328 N   0  0  0  0  0  0  0  0  0  0  0  0
    9.3131  -16.1407   21.2125 C   0  0  0  0  0  0  0  0  0  0  0  0
   10.4667  -15.8670   21.6261 O   0  0  0  0  0  0  0  0  0  0  0  0
    8.2182  -15.7422   22.0021 N   0  0  0  0  0  0  0  0  0  0  0  0
    8.3489  -15.0292   23.2626 C   0  0  1  0  0  0  0  0  0  0  0  0
    7.0064  -14.3778   23.5756 C   0  0  0  0  0  0  0  0  0  0  0  0
    7.0566  -13.6098   24.8474 C   0  0  0  0  0  0  0  0  0  0  0  0
    6.3321  -14.0048   25.9608 C   0  0  0  0  0  0  0  0  0  0  0  0
    6.3561  -13.3158   27.1549 C   0  0  0  0  0  0  0  0  0  0  0  0
    7.1373  -12.1773   27.2518 C   0  0  0  0  0  0  0  0  0  0  0  0
    7.8706  -11.7524   26.1710 C   0  0  0  0  0  0  0  0  0  0  0  0
    7.8272  -12.4643   24.9841 C   0  0  0  0  0  0  0  0  0  0  0  0
    8.7209  -15.9116   24.3727 C   0  0  0  0  0  0  0  0  0  0  0  0
    8.0053  -16.9003   24.6402 O   0  0  0  0  0  0  0  0  0  0  0  0
    9.8832  -15.6430   25.1345 N   0  0  0  0  0  0  0  0  0  0  0  0
   10.3966  -16.5436   26.1415 C   0  0  1  0  0  0  0  0  0  0  0  0
   11.9318  -16.5483   26.0988 C   0  0  0  0  0  0  0  0  0  0  0  0
   12.3974  -17.3127   24.9225 C   0  0  0  0  0  0  0  0  0  0  0  0
   11.6001  -18.0596   24.3089 O   0  0  0  0  0  0  0  0  0  0  0  0
    9.9331  -16.0852   27.4751 C   0  0  0  0  0  0  0  0  0  0  0  0
    9.2184  -14.9298   27.6827 O   0  0  0  0  0  0  0  0  0  0  0  0
   13.7002  -17.2618   24.4304 O   0  0  0  0  0  0  0  0  0  0  0  0
   10.2236  -16.8159   28.4679 O   0  0  0  0  0  0  0  0  0  0  0  0
  2  4  1  0
  2  1  1  1
  3  2  1  0
  4  5  2  0
  6  7  1  0
  6  4  1  0
  7  8  1  1
  8  9  1  0
  9 10  2  0
 10 11  1  0
 12 11  2  0
 13 12  1  0
 14 13  2  0
 14  9  1  0
 15 17  1  0
 15  7  1  0
 16 15  2  0
 18 17  1  0
 18 19  1  1
 19 20  1  0
 20 21  2  0
 20 24  1  0
 22 18  1  0
 22 23  1  0
 25 22  2  0
M  END
$$$$
