AFD.pdb
     RDKit          3D

 25 25  0  0  1  0  0  0  0  0999 V2000
    9.4044  -18.6115   20.9158 C   0  0  0  0  0  0  0  0  0  0  0  0
    9.1646  -17.1992   20.4311 C   0  0  2  0  0  0  0  0  0  0  0  0
   10.0976  -16.9294   19.3531 N   0  0  0  0  0  0  0  0  0  0  0  0
    9.3420  -16.1993   21.5204 C   0  0  0  0  0  0  0  0  0  0  0  0
   10.4283  -15.6005   21.7159 O   0  0  0  0  0  0  0  0  0  0  0  0
    8.2626  -15.9014   22.3732 N   0  0  0  0  0  0  0  0  0  0  0  0
    8.3077  -14.8780   23.4052 C   0  0  1  0  0  0  0  0  0  0  0  0
    6.8733  -14.5487   23.8036 C   0  0  0  0  0  0  0  0  0  0  0  0
    6.8279  -13.5190   24.8749 C   0  0  0  0  0  0  0  0  0  0  0  0
    7.3107  -12.2367   24.6676 C   0  0  0  0  0  0  0  0  0  0  0  0
    7.2839  -11.2585   25.6390 C   0  0  0  0  0  0  0  0  0  0  0  0
    6.7518  -11.5656   26.8793 C   0  0  0  0  0  0  0  0  0  0  0  0
    6.2627  -12.8252   27.1251 C   0  0  0  0  0  0  0  0  0  0  0  0
    6.3027  -13.7878   26.1305 C   0  0  0  0  0  0  0  0  0  0  0  0
    9.0456  -15.3111   24.5957 C   0  0  0  0  0  0  0  0  0  0  0  0
    9.2996  -14.4845   25.4977 O   0  0  0  0  0  0  0  0  0  0  0  0
    9.4663  -16.6569   24.7199 N   0  0  0  0  0  0  0  0  0  0  0  0
   10.1868  -17.1595   25.8674 C   0  0  1  0  0  0  0  0  0  0  0  0
    9.8683  -18.6484   26.0684 C   0  0  0  0  0  0  0  0  0  0  0  0
   10.6254  -19.1704   27.2255 C   0  0  0  0  0  0  0  0  0  0  0  0
   10.9481  -18.3989   28.1587 O   0  0  0  0  0  0  0  0  0  0  0  0
   11.6422  -16.9849   25.6332 C   0  0  0  0  0  0  0  0  0  0  0  0
   12.5455  -16.6735   26.6211 O   0  0  0  0  0  0  0  0  0  0  0  0
   11.0193  -20.5005   27.3586 O   0  0  0  0  0  0  0  0  0  0  0  0
   12.0564  -17.1360   24.4459 O   0  0  0  0  0  0  0  0  0  0  0  0
  2  4  1  0
  2  1  1  1
  3  2  1  0
  4  5  2  0
  6  7  1  0
  6  4  1  0
  7  8  1  1
  8  9  1  0
  9 10  2  0
 10 11  1  0
 12 11  2  0
 13 12  1  0
 14 13  2  0
 14  9  1  0
 15 17  1  0
 15  7  1  0
 16 15  2  0
 18 17  1  0
 18 19  1  6
 19 20  1  0
 20 21  2  0
 20 24  1  0
 22 18  1  0
 22 23  1  0
 25 22  2  0
M  END
$$$$
