AFD.pdb
     RDKit          3D

 25 25  0  0  1  0  0  0  0  0999 V2000
    8.6449  -18.4990   20.0355 C   0  0  0  0  0  0  0  0  0  0  0  0
    8.6895  -17.0089   19.7812 C   0  0  2  0  0  0  0  0  0  0  0  0
    9.6847  -16.7575   18.7556 N   0  0  0  0  0  0  0  0  0  0  0  0
    9.0242  -16.2437   21.0142 C   0  0  0  0  0  0  0  0  0  0  0  0
   10.2052  -15.9575   21.3305 O   0  0  0  0  0  0  0  0  0  0  0  0
    7.9910  -15.8169   21.8695 N   0  0  0  0  0  0  0  0  0  0  0  0
    8.2176  -15.0996   23.1139 C   0  0  1  0  0  0  0  0  0  0  0  0
    6.9280  -14.3728   23.4790 C   0  0  0  0  0  0  0  0  0  0  0  0
    7.0925  -13.5563   24.7103 C   0  0  0  0  0  0  0  0  0  0  0  0
    6.4172  -13.8661   25.8802 C   0  0  0  0  0  0  0  0  0  0  0  0
    6.5470  -13.1302   27.0390 C   0  0  0  0  0  0  0  0  0  0  0  0
    7.3884  -12.0312   27.0397 C   0  0  0  0  0  0  0  0  0  0  0  0
    8.0759  -11.6907   25.9006 C   0  0  0  0  0  0  0  0  0  0  0  0
    7.9261  -12.4480   24.7511 C   0  0  0  0  0  0  0  0  0  0  0  0
    8.5917  -15.9900   24.2168 C   0  0  0  0  0  0  0  0  0  0  0  0
    7.8353  -16.9339   24.5303 O   0  0  0  0  0  0  0  0  0  0  0  0
    9.8019  -15.7796   24.9202 N   0  0  0  0  0  0  0  0  0  0  0  0
   10.3134  -16.6993   25.9105 C   0  0  1  0  0  0  0  0  0  0  0  0
   11.8474  -16.6300   25.9394 C   0  0  0  0  0  0  0  0  0  0  0  0
   12.3955  -17.1422   24.6659 C   0  0  0  0  0  0  0  0  0  0  0  0
   13.4104  -16.6060   24.1635 O   0  0  0  0  0  0  0  0  0  0  0  0
    9.7690  -16.3236   27.2395 C   0  0  0  0  0  0  0  0  0  0  0  0
    9.7111  -17.1790   28.3136 O   0  0  0  0  0  0  0  0  0  0  0  0
   11.8483  -18.2122   23.9604 O   0  0  0  0  0  0  0  0  0  0  0  0
    9.3373  -15.1403   27.3711 O   0  0  0  0  0  0  0  0  0  0  0  0
  2  4  1  0
  2  1  1  1
  3  2  1  0
  4  5  2  0
  6  7  1  0
  6  4  1  0
  7  8  1  1
  8  9  1  0
  9 10  2  0
 10 11  1  0
 12 11  2  0
 13 12  1  0
 14 13  2  0
 14  9  1  0
 15 17  1  0
 15  7  1  0
 16 15  2  0
 18 17  1  0
 18 19  1  1
 19 20  1  0
 20 21  2  0
 20 24  1  0
 22 18  1  0
 22 23  1  0
 25 22  2  0
M  END
$$$$
