PQY.pdb
     RDKit          3D

 29 30  0  0  1  0  0  0  0  0999 V2000
   27.0348  -22.0177  -16.0891 N   0  0  0  0  0  0  0  0  0  0  0  0
   27.3975  -22.0359  -17.5111 C   0  0  0  0  0  0  0  0  0  0  0  0
   27.4141  -20.5433  -17.8534 C   0  0  0  0  0  0  0  0  0  0  0  0
   27.6380  -19.8494  -16.5490 C   0  0  0  0  0  0  0  0  0  0  0  0
   27.8164  -20.9512  -15.4941 C   0  0  1  0  0  0  0  0  0  0  0  0
   27.1331  -20.5121  -14.2224 C   0  0  0  0  0  0  0  0  0  0  0  0
   27.5756  -19.4701  -13.6233 O   0  0  0  0  0  0  0  0  0  0  0  0
   21.1843  -22.1239  -12.8497 N   0  0  0  0  0  0  0  0  0  0  0  0
   21.4551  -21.1170  -11.8677 C   0  0  0  0  0  0  0  0  0  0  0  0
   20.5681  -20.7228  -11.0863 O   0  0  0  0  0  0  0  0  0  0  0  0
   22.8170  -20.5352  -11.7804 C   0  0  0  0  0  0  0  0  0  0  0  0
   23.7945  -21.1017  -12.7360 C   0  0  0  0  0  0  0  0  0  0  0  0
   25.2123  -20.5939  -12.6326 C   0  0  2  0  0  0  0  0  0  0  0  0
   26.0375  -21.1925  -13.6692 N   0  0  0  0  0  0  0  0  0  0  0  0
   25.7324  -20.9308  -11.2841 C   0  0  0  0  0  0  0  0  0  0  0  0
   25.8947  -22.1240  -10.9862 O   0  0  0  0  0  0  0  0  0  0  0  0
   29.1353  -20.5626   -3.1764 O   0  0  0  0  0  0  0  0  0  0  0  0
   28.7064  -20.2458   -4.4527 C   0  0  0  0  0  0  0  0  0  0  0  0
   29.3526  -20.7574   -5.5539 C   0  0  0  0  0  0  0  0  0  0  0  0
   28.9272  -20.4426   -6.8271 C   0  0  0  0  0  0  0  0  0  0  0  0
   27.8392  -19.6043   -7.0481 C   0  0  0  0  0  0  0  0  0  0  0  0
   27.3864  -19.2273   -8.3987 C   0  0  0  0  0  0  0  0  0  0  0  0
   26.5917  -20.3203   -9.0116 C   0  0  2  0  0  0  0  0  0  0  0  0
   26.0529  -19.9457  -10.3197 N   0  0  0  0  0  0  0  0  0  0  0  0
   25.5017  -20.7592   -8.1205 C   0  0  0  0  0  0  0  0  0  0  0  0
   24.1634  -20.4534   -8.2935 O   0  0  0  0  0  0  0  0  0  0  0  0
   27.1933  -19.0933   -5.9468 C   0  0  0  0  0  0  0  0  0  0  0  0
   27.6102  -19.4008   -4.6692 C   0  0  0  0  0  0  0  0  0  0  0  0
   25.7978  -21.4691   -7.1132 O   0  0  0  0  0  0  0  0  0  0  0  0
  1  5  1  0
  2  1  1  0
  2  3  1  0
  3  4  1  0
  4  5  1  0
  5  6  1  1
  6  7  2  0
  8  9  1  0
  9 11  1  0
 10  9  2  0
 11 12  1  0
 13 12  1  1
 13 15  1  0
 13 14  1  0
 14  6  1  0
 15 24  1  0
 16 15  2  0
 18 17  1  0
 18 19  2  0
 20 19  1  0
 21 20  2  0
 22 21  1  0
 23 22  1  1
 23 25  1  0
 24 23  1  0
 25 29  2  0
 25 26  1  0
 27 28  2  0
 27 21  1  0
 28 18  1  0
M  END
$$$$
