PQY.pdb
     RDKit          3D

 29 30  0  0  1  0  0  0  0  0999 V2000
   27.0777  -21.6837  -16.3737 N   0  0  0  0  0  0  0  0  0  0  0  0
   28.1110  -22.5718  -16.9194 C   0  0  0  0  0  0  0  0  0  0  0  0
   28.6720  -21.7348  -18.0726 C   0  0  0  0  0  0  0  0  0  0  0  0
   28.3462  -20.3201  -17.7184 C   0  0  0  0  0  0  0  0  0  0  0  0
   27.6694  -20.3604  -16.3404 C   0  0  1  0  0  0  0  0  0  0  0  0
   26.5568  -19.3413  -16.3229 C   0  0  0  0  0  0  0  0  0  0  0  0
   26.8508  -18.1164  -16.5547 O   0  0  0  0  0  0  0  0  0  0  0  0
   21.3465  -19.4048  -18.6354 N   0  0  0  0  0  0  0  0  0  0  0  0
   22.5431  -20.0846  -19.0320 C   0  0  0  0  0  0  0  0  0  0  0  0
   22.5061  -21.0491  -19.8202 O   0  0  0  0  0  0  0  0  0  0  0  0
   23.8489  -19.6298  -18.4947 C   0  0  0  0  0  0  0  0  0  0  0  0
   23.7735  -18.4574  -17.5950 C   0  0  0  0  0  0  0  0  0  0  0  0
   24.1554  -18.6872  -16.1527 C   0  0  2  0  0  0  0  0  0  0  0  0
   25.2184  -19.6753  -16.0654 N   0  0  0  0  0  0  0  0  0  0  0  0
   22.9499  -19.1427  -15.4167 C   0  0  0  0  0  0  0  0  0  0  0  0
   22.7157  -20.3588  -15.3462 O   0  0  0  0  0  0  0  0  0  0  0  0
   15.2245  -19.4468  -11.2065 O   0  0  0  0  0  0  0  0  0  0  0  0
   16.4344  -19.0245  -11.7271 C   0  0  0  0  0  0  0  0  0  0  0  0
   17.6197  -19.4548  -11.1774 C   0  0  0  0  0  0  0  0  0  0  0  0
   18.8270  -19.0348  -11.6942 C   0  0  0  0  0  0  0  0  0  0  0  0
   18.8955  -18.1684  -12.7805 C   0  0  0  0  0  0  0  0  0  0  0  0
   20.1727  -17.6799  -13.3295 C   0  0  0  0  0  0  0  0  0  0  0  0
   20.8330  -18.7314  -14.1420 C   0  0  2  0  0  0  0  0  0  0  0  0
   22.0526  -18.2459  -14.7890 N   0  0  0  0  0  0  0  0  0  0  0  0
   19.9127  -19.2915  -15.1491 C   0  0  0  0  0  0  0  0  0  0  0  0
   19.1407  -20.4265  -14.9745 O   0  0  0  0  0  0  0  0  0  0  0  0
   17.7103  -17.7387  -13.3298 C   0  0  0  0  0  0  0  0  0  0  0  0
   16.4975  -18.1517  -12.8210 C   0  0  0  0  0  0  0  0  0  0  0  0
   19.8123  -18.7011  -16.2660 O   0  0  0  0  0  0  0  0  0  0  0  0
  1  5  1  0
  2  1  1  0
  2  3  1  0
  3  4  1  0
  4  5  1  0
  5  6  1  6
  6  7  2  0
  8  9  1  0
  9 11  1  0
 10  9  2  0
 11 12  1  0
 13 12  1  6
 13 15  1  0
 13 14  1  0
 14  6  1  0
 15 24  1  0
 16 15  2  0
 18 17  1  0
 18 19  2  0
 20 19  1  0
 21 20  2  0
 22 21  1  0
 23 22  1  6
 23 25  1  0
 24 23  1  0
 25 29  2  0
 25 26  1  0
 27 28  2  0
 27 21  1  0
 28 18  1  0
M  END
$$$$
