PQY.pdb
     RDKit          3D

 29 30  0  0  1  0  0  0  0  0999 V2000
   27.3742  -20.7694  -15.6819 N   0  0  0  0  0  0  0  0  0  0  0  0
   27.6890  -20.4743  -17.0847 C   0  0  0  0  0  0  0  0  0  0  0  0
   27.3605  -18.9813  -17.1763 C   0  0  0  0  0  0  0  0  0  0  0  0
   27.4622  -18.4758  -15.7738 C   0  0  0  0  0  0  0  0  0  0  0  0
   27.9144  -19.6649  -14.9135 C   0  0  1  0  0  0  0  0  0  0  0  0
   27.1886  -19.6038  -13.5920 C   0  0  0  0  0  0  0  0  0  0  0  0
   27.3434  -18.5634  -12.8610 O   0  0  0  0  0  0  0  0  0  0  0  0
   21.9958  -20.2988  -10.8553 N   0  0  0  0  0  0  0  0  0  0  0  0
   21.9792  -20.2768  -12.2873 C   0  0  0  0  0  0  0  0  0  0  0  0
   21.0334  -19.7612  -12.9137 O   0  0  0  0  0  0  0  0  0  0  0  0
   23.1099  -20.8782  -13.0361 C   0  0  0  0  0  0  0  0  0  0  0  0
   24.2292  -21.3517  -12.1919 C   0  0  0  0  0  0  0  0  0  0  0  0
   25.4075  -20.4192  -12.0472 C   0  0  2  0  0  0  0  0  0  0  0  0
   26.3535  -20.6328  -13.1303 N   0  0  0  0  0  0  0  0  0  0  0  0
   26.0456  -20.6728  -10.7316 C   0  0  0  0  0  0  0  0  0  0  0  0
   26.6890  -21.7210  -10.5707 O   0  0  0  0  0  0  0  0  0  0  0  0
   29.8085  -20.1795   -2.9174 O   0  0  0  0  0  0  0  0  0  0  0  0
   29.1402  -19.8421   -4.0805 C   0  0  0  0  0  0  0  0  0  0  0  0
   28.7164  -18.5508   -4.2932 C   0  0  0  0  0  0  0  0  0  0  0  0
   28.0494  -18.2122   -5.4515 C   0  0  0  0  0  0  0  0  0  0  0  0
   27.7808  -19.1517   -6.4416 C   0  0  0  0  0  0  0  0  0  0  0  0
   27.0412  -18.8213   -7.6726 C   0  0  0  0  0  0  0  0  0  0  0  0
   26.5980  -20.0551   -8.3675 C   0  0  2  0  0  0  0  0  0  0  0  0
   25.9518  -19.7665   -9.6485 N   0  0  0  0  0  0  0  0  0  0  0  0
   25.7019  -20.8604   -7.5170 C   0  0  0  0  0  0  0  0  0  0  0  0
   26.1191  -21.8018   -6.5927 O   0  0  0  0  0  0  0  0  0  0  0  0
   28.2048  -20.4424   -6.2286 C   0  0  0  0  0  0  0  0  0  0  0  0
   28.8720  -20.7924   -5.0742 C   0  0  0  0  0  0  0  0  0  0  0  0
   24.4512  -20.6907   -7.6318 O   0  0  0  0  0  0  0  0  0  0  0  0
  1  5  1  0
  2  1  1  0
  2  3  1  0
  3  4  1  0
  4  5  1  0
  5  6  1  1
  6  7  2  0
  8  9  1  0
  9 11  1  0
 10  9  2  0
 11 12  1  0
 13 12  1  6
 13 15  1  0
 13 14  1  0
 14  6  1  0
 15 24  1  0
 16 15  2  0
 18 17  1  0
 18 19  2  0
 20 19  1  0
 21 20  2  0
 22 21  1  0
 23 22  1  1
 23 25  1  0
 24 23  1  0
 25 29  2  0
 25 26  1  0
 27 28  2  0
 27 21  1  0
 28 18  1  0
M  END
$$$$
