PQY.pdb
     RDKit          3D

 29 30  0  0  1  0  0  0  0  0999 V2000
   25.3876  -17.8581  -18.8261 N   0  0  0  0  0  0  0  0  0  0  0  0
   26.1123  -17.3564  -19.9997 C   0  0  0  0  0  0  0  0  0  0  0  0
   26.4425  -18.6521  -20.7464 C   0  0  0  0  0  0  0  0  0  0  0  0
   25.4261  -19.6407  -20.2744 C   0  0  0  0  0  0  0  0  0  0  0  0
   24.4894  -18.8823  -19.3226 C   0  0  1  0  0  0  0  0  0  0  0  0
   24.1284  -19.7956  -18.1770 C   0  0  0  0  0  0  0  0  0  0  0  0
   23.3017  -20.7489  -18.3969 O   0  0  0  0  0  0  0  0  0  0  0  0
   28.0506  -20.4353  -16.0233 N   0  0  0  0  0  0  0  0  0  0  0  0
   27.5992  -21.7942  -16.0520 C   0  0  0  0  0  0  0  0  0  0  0  0
   28.3293  -22.7075  -16.4832 O   0  0  0  0  0  0  0  0  0  0  0  0
   26.2384  -22.1183  -15.5582 C   0  0  0  0  0  0  0  0  0  0  0  0
   25.4852  -20.9649  -15.0177 C   0  0  0  0  0  0  0  0  0  0  0  0
   24.2679  -20.5284  -15.7964 C   0  0  2  0  0  0  0  0  0  0  0  0
   24.6572  -19.6475  -16.8855 N   0  0  0  0  0  0  0  0  0  0  0  0
   23.3402  -19.8386  -14.8658 C   0  0  0  0  0  0  0  0  0  0  0  0
   23.6202  -18.6929  -14.4816 O   0  0  0  0  0  0  0  0  0  0  0  0
   17.2876  -20.0575  -18.5575 O   0  0  0  0  0  0  0  0  0  0  0  0
   18.1187  -19.6614  -17.5252 C   0  0  0  0  0  0  0  0  0  0  0  0
   19.4330  -19.3386  -17.7712 C   0  0  0  0  0  0  0  0  0  0  0  0
   20.2636  -18.9442  -16.7438 C   0  0  0  0  0  0  0  0  0  0  0  0
   19.8118  -18.8572  -15.4309 C   0  0  0  0  0  0  0  0  0  0  0  0
   20.6885  -18.4701  -14.3115 C   0  0  0  0  0  0  0  0  0  0  0  0
   21.1880  -19.6696  -13.5950 C   0  0  2  0  0  0  0  0  0  0  0  0
   22.1449  -20.4338  -14.3964 N   0  0  0  0  0  0  0  0  0  0  0  0
   20.0788  -20.5399  -13.1626 C   0  0  0  0  0  0  0  0  0  0  0  0
   19.9124  -21.8605  -13.5407 O   0  0  0  0  0  0  0  0  0  0  0  0
   18.4977  -19.1799  -15.1855 C   0  0  0  0  0  0  0  0  0  0  0  0
   17.6585  -19.5759  -16.2049 C   0  0  0  0  0  0  0  0  0  0  0  0
   19.2013  -20.0549  -12.3875 O   0  0  0  0  0  0  0  0  0  0  0  0
  1  5  1  0
  2  1  1  0
  2  3  1  0
  3  4  1  0
  4  5  1  0
  5  6  1  1
  6  7  2  0
  8  9  1  0
  9 11  1  0
 10  9  2  0
 11 12  1  0
 13 12  1  1
 13 15  1  0
 13 14  1  0
 14  6  1  0
 15 24  1  0
 16 15  2  0
 18 17  1  0
 18 19  2  0
 20 19  1  0
 21 20  2  0
 22 21  1  0
 23 22  1  6
 23 25  1  0
 24 23  1  0
 25 29  2  0
 25 26  1  0
 27 28  2  0
 27 21  1  0
 28 18  1  0
M  END
$$$$
