PQY.pdb
     RDKit          3D

 29 30  0  0  1  0  0  0  0  0999 V2000
   28.0673  -21.1180  -15.9782 N   0  0  0  0  0  0  0  0  0  0  0  0
   29.3779  -21.4009  -16.5752 C   0  0  0  0  0  0  0  0  0  0  0  0
   29.6549  -22.8213  -16.0740 C   0  0  0  0  0  0  0  0  0  0  0  0
   28.3089  -23.3925  -15.7662 C   0  0  0  0  0  0  0  0  0  0  0  0
   27.2805  -22.3222  -16.1601 C   0  0  1  0  0  0  0  0  0  0  0  0
   26.1704  -22.3250  -15.1381 C   0  0  0  0  0  0  0  0  0  0  0  0
   25.1737  -23.1074  -15.3253 O   0  0  0  0  0  0  0  0  0  0  0  0
   26.6637  -20.4945   -9.1103 N   0  0  0  0  0  0  0  0  0  0  0  0
   25.3002  -20.9264   -9.1857 C   0  0  0  0  0  0  0  0  0  0  0  0
   24.5986  -21.0299   -8.1609 O   0  0  0  0  0  0  0  0  0  0  0  0
   24.7143  -21.2549  -10.5084 C   0  0  0  0  0  0  0  0  0  0  0  0
   25.6742  -21.2285  -11.6342 C   0  0  0  0  0  0  0  0  0  0  0  0
   25.1282  -21.5845  -12.9958 C   0  0  2  0  0  0  0  0  0  0  0  0
   26.1820  -21.5113  -13.9948 N   0  0  0  0  0  0  0  0  0  0  0  0
   24.0281  -20.6426  -13.3193 C   0  0  0  0  0  0  0  0  0  0  0  0
   24.3014  -19.4492  -13.5193 O   0  0  0  0  0  0  0  0  0  0  0  0
   20.9831  -24.8699  -17.9150 O   0  0  0  0  0  0  0  0  0  0  0  0
   21.1364  -23.6510  -17.2794 C   0  0  0  0  0  0  0  0  0  0  0  0
   22.3825  -23.0838  -17.1476 C   0  0  0  0  0  0  0  0  0  0  0  0
   22.5380  -21.8692  -16.5138 C   0  0  0  0  0  0  0  0  0  0  0  0
   21.4532  -21.1750  -15.9877 C   0  0  0  0  0  0  0  0  0  0  0  0
   21.5980  -19.8920  -15.2776 C   0  0  0  0  0  0  0  0  0  0  0  0
   21.6312  -20.1039  -13.8093 C   0  0  2  0  0  0  0  0  0  0  0  0
   22.6753  -21.0486  -13.4104 N   0  0  0  0  0  0  0  0  0  0  0  0
   20.3213  -20.5500  -13.2994 C   0  0  0  0  0  0  0  0  0  0  0  0
   19.1321  -19.8600  -13.4554 O   0  0  0  0  0  0  0  0  0  0  0  0
   20.2076  -21.7424  -16.1199 C   0  0  0  0  0  0  0  0  0  0  0  0
   20.0405  -22.9565  -16.7512 C   0  0  0  0  0  0  0  0  0  0  0  0
   20.2646  -21.6458  -12.6653 O   0  0  0  0  0  0  0  0  0  0  0  0
  1  5  1  0
  2  1  1  0
  2  3  1  0
  3  4  1  0
  4  5  1  0
  5  6  1  1
  6  7  2  0
  8  9  1  0
  9 11  1  0
 10  9  2  0
 11 12  1  0
 13 12  1  1
 13 15  1  0
 13 14  1  0
 14  6  1  0
 15 24  1  0
 16 15  2  0
 18 17  1  0
 18 19  2  0
 20 19  1  0
 21 20  2  0
 22 21  1  0
 23 22  1  6
 23 25  1  0
 24 23  1  0
 25 29  2  0
 25 26  1  0
 27 28  2  0
 27 21  1  0
 28 18  1  0
M  END
$$$$
