PQY.pdb
     RDKit          3D

 29 30  0  0  1  0  0  0  0  0999 V2000
   28.0637  -19.4478  -18.6549 N   0  0  0  0  0  0  0  0  0  0  0  0
   29.2664  -19.2971  -19.4824 C   0  0  0  0  0  0  0  0  0  0  0  0
   29.2495  -17.7984  -19.7969 C   0  0  0  0  0  0  0  0  0  0  0  0
   28.4404  -17.1822  -18.7020 C   0  0  0  0  0  0  0  0  0  0  0  0
   28.0668  -18.3212  -17.7421 C   0  0  1  0  0  0  0  0  0  0  0  0
   26.6554  -18.0963  -17.2579 C   0  0  0  0  0  0  0  0  0  0  0  0
   26.4249  -17.0864  -16.5046 O   0  0  0  0  0  0  0  0  0  0  0  0
   21.4381  -19.7496  -20.2527 N   0  0  0  0  0  0  0  0  0  0  0  0
   21.9323  -18.4054  -20.2446 C   0  0  0  0  0  0  0  0  0  0  0  0
   21.5463  -17.5710  -21.0859 O   0  0  0  0  0  0  0  0  0  0  0  0
   22.9203  -18.0009  -19.2145 C   0  0  0  0  0  0  0  0  0  0  0  0
   23.2400  -19.0478  -18.2188 C   0  0  0  0  0  0  0  0  0  0  0  0
   24.2318  -18.6763  -17.1430 C   0  0  2  0  0  0  0  0  0  0  0  0
   25.5876  -18.9418  -17.5960 N   0  0  0  0  0  0  0  0  0  0  0  0
   23.9183  -19.4650  -15.9257 C   0  0  0  0  0  0  0  0  0  0  0  0
   24.3910  -20.6064  -15.8139 O   0  0  0  0  0  0  0  0  0  0  0  0
   21.8518  -22.0961   -7.8807 O   0  0  0  0  0  0  0  0  0  0  0  0
   22.1479  -21.3216   -8.9879 C   0  0  0  0  0  0  0  0  0  0  0  0
   21.1600  -20.6076   -9.6253 C   0  0  0  0  0  0  0  0  0  0  0  0
   21.4526  -19.8353  -10.7295 C   0  0  0  0  0  0  0  0  0  0  0  0
   22.7442  -19.7473  -11.2386 C   0  0  0  0  0  0  0  0  0  0  0  0
   23.0754  -18.9552  -12.4362 C   0  0  0  0  0  0  0  0  0  0  0  0
   22.8692  -19.7544  -13.6693 C   0  0  2  0  0  0  0  0  0  0  0  0
   23.1005  -18.9690  -14.8824 N   0  0  0  0  0  0  0  0  0  0  0  0
   21.5231  -20.3557  -13.7031 C   0  0  0  0  0  0  0  0  0  0  0  0
   21.2188  -21.6436  -13.2986 O   0  0  0  0  0  0  0  0  0  0  0  0
   23.7315  -20.4612  -10.6008 C   0  0  0  0  0  0  0  0  0  0  0  0
   23.4504  -21.2369   -9.4964 C   0  0  0  0  0  0  0  0  0  0  0  0
   20.5614  -19.6528  -14.1356 O   0  0  0  0  0  0  0  0  0  0  0  0
  1  5  1  0
  2  1  1  0
  2  3  1  0
  3  4  1  0
  4  5  1  0
  5  6  1  6
  6  7  2  0
  8  9  1  0
  9 11  1  0
 10  9  2  0
 11 12  1  0
 13 12  1  6
 13 15  1  0
 13 14  1  0
 14  6  1  0
 15 24  1  0
 16 15  2  0
 18 17  1  0
 18 19  2  0
 20 19  1  0
 21 20  2  0
 22 21  1  0
 23 22  1  1
 23 25  1  0
 24 23  1  0
 25 29  2  0
 25 26  1  0
 27 28  2  0
 27 21  1  0
 28 18  1  0
M  END
$$$$
