PQY.pdb
     RDKit          3D

 29 30  0  0  1  0  0  0  0  0999 V2000
   27.5900  -20.2903  -16.2405 N   0  0  0  0  0  0  0  0  0  0  0  0
   28.9405  -20.1817  -16.8048 C   0  0  0  0  0  0  0  0  0  0  0  0
   29.6880  -21.2875  -16.0538 C   0  0  0  0  0  0  0  0  0  0  0  0
   28.6262  -22.2422  -15.6132 C   0  0  0  0  0  0  0  0  0  0  0  0
   27.3002  -21.7096  -16.1758 C   0  0  1  0  0  0  0  0  0  0  0  0
   26.2199  -21.9289  -15.1454 C   0  0  0  0  0  0  0  0  0  0  0  0
   25.3948  -22.8919  -15.3254 O   0  0  0  0  0  0  0  0  0  0  0  0
   26.3179  -20.0228   -9.1243 N   0  0  0  0  0  0  0  0  0  0  0  0
   25.0664  -20.7149   -9.2018 C   0  0  0  0  0  0  0  0  0  0  0  0
   24.3716  -20.9072   -8.1853 O   0  0  0  0  0  0  0  0  0  0  0  0
   24.5901  -21.2096  -10.5167 C   0  0  0  0  0  0  0  0  0  0  0  0
   25.5318  -20.9933  -11.6374 C   0  0  0  0  0  0  0  0  0  0  0  0
   25.0464  -21.3839  -13.0125 C   0  0  2  0  0  0  0  0  0  0  0  0
   26.0802  -21.1273  -14.0021 N   0  0  0  0  0  0  0  0  0  0  0  0
   23.8210  -20.6034  -13.3149 C   0  0  0  0  0  0  0  0  0  0  0  0
   23.9007  -19.3675  -13.3848 O   0  0  0  0  0  0  0  0  0  0  0  0
   17.0272  -17.4719  -17.4980 O   0  0  0  0  0  0  0  0  0  0  0  0
   18.0822  -18.2359  -17.0326 C   0  0  0  0  0  0  0  0  0  0  0  0
   17.9108  -19.5742  -16.7648 C   0  0  0  0  0  0  0  0  0  0  0  0
   18.9608  -20.3377  -16.3002 C   0  0  0  0  0  0  0  0  0  0  0  0
   20.2225  -19.7924  -16.0858 C   0  0  0  0  0  0  0  0  0  0  0  0
   21.3509  -20.5801  -15.5591 C   0  0  0  0  0  0  0  0  0  0  0  0
   21.4420  -20.4478  -14.0840 C   0  0  2  0  0  0  0  0  0  0  0  0
   22.5605  -21.2107  -13.5284 N   0  0  0  0  0  0  0  0  0  0  0  0
   20.1818  -20.8443  -13.4285 C   0  0  0  0  0  0  0  0  0  0  0  0
   19.2272  -19.9659  -12.9470 O   0  0  0  0  0  0  0  0  0  0  0  0
   20.3934  -18.4545  -16.3540 C   0  0  0  0  0  0  0  0  0  0  0  0
   19.3506  -17.6814  -16.8182 C   0  0  0  0  0  0  0  0  0  0  0  0
   19.9418  -22.0804  -13.2853 O   0  0  0  0  0  0  0  0  0  0  0  0
  1  5  1  0
  2  1  1  0
  2  3  1  0
  3  4  1  0
  4  5  1  0
  5  6  1  1
  6  7  2  0
  8  9  1  0
  9 11  1  0
 10  9  2  0
 11 12  1  0
 13 12  1  1
 13 15  1  0
 13 14  1  0
 14  6  1  0
 15 24  1  0
 16 15  2  0
 18 17  1  0
 18 19  2  0
 20 19  1  0
 21 20  2  0
 22 21  1  0
 23 22  1  6
 23 25  1  0
 24 23  1  0
 25 29  2  0
 25 26  1  0
 27 28  2  0
 27 21  1  0
 28 18  1  0
M  END
$$$$
