PQY.pdb
     RDKit          3D

 29 30  0  0  1  0  0  0  0  0999 V2000
   15.7499  -22.1222   -0.1022 N   0  0  0  0  0  0  0  0  0  0  0  0
   15.2836  -22.7171   -1.3603 C   0  0  0  0  0  0  0  0  0  0  0  0
   13.9254  -23.2960   -0.9532 C   0  0  0  0  0  0  0  0  0  0  0  0
   13.5123  -22.5071    0.2467 C   0  0  0  0  0  0  0  0  0  0  0  0
   14.6004  -21.4459    0.4667 C   0  0  1  0  0  0  0  0  0  0  0  0
   14.8252  -21.2904    1.9506 C   0  0  0  0  0  0  0  0  0  0  0  0
   13.8804  -20.7956    2.6599 O   0  0  0  0  0  0  0  0  0  0  0  0
   19.0601  -24.4561    5.4232 N   0  0  0  0  0  0  0  0  0  0  0  0
   18.3562  -23.6977    6.4135 C   0  0  0  0  0  0  0  0  0  0  0  0
   18.5745  -23.8640    7.6290 O   0  0  0  0  0  0  0  0  0  0  0  0
   17.3505  -22.6961    5.9821 C   0  0  0  0  0  0  0  0  0  0  0  0
   17.1291  -22.6312    4.5205 C   0  0  0  0  0  0  0  0  0  0  0  0
   16.1788  -21.5667    4.0278 C   0  0  2  0  0  0  0  0  0  0  0  0
   16.0196  -21.6634    2.5859 N   0  0  0  0  0  0  0  0  0  0  0  0
   16.7233  -20.2404    4.4108 C   0  0  0  0  0  0  0  0  0  0  0  0
   17.6688  -19.7709    3.7595 O   0  0  0  0  0  0  0  0  0  0  0  0
   18.8606  -13.4923    2.1113 O   0  0  0  0  0  0  0  0  0  0  0  0
   18.1671  -14.3662    2.9289 C   0  0  0  0  0  0  0  0  0  0  0  0
   17.8651  -15.6366    2.4967 C   0  0  0  0  0  0  0  0  0  0  0  0
   17.1733  -16.5093    3.3097 C   0  0  0  0  0  0  0  0  0  0  0  0
   16.7572  -16.1453    4.5862 C   0  0  0  0  0  0  0  0  0  0  0  0
   15.9885  -17.0486    5.4606 C   0  0  0  0  0  0  0  0  0  0  0  0
   16.8148  -18.2095    5.8746 C   0  0  2  0  0  0  0  0  0  0  0  0
   16.2080  -19.4849    5.4911 N   0  0  0  0  0  0  0  0  0  0  0  0
   17.0827  -18.1906    7.3247 C   0  0  0  0  0  0  0  0  0  0  0  0
   17.7244  -17.1673    7.9998 O   0  0  0  0  0  0  0  0  0  0  0  0
   17.0596  -14.8751    5.0180 C   0  0  0  0  0  0  0  0  0  0  0  0
   17.7502  -13.9941    4.2135 C   0  0  0  0  0  0  0  0  0  0  0  0
   16.7049  -19.1813    8.0187 O   0  0  0  0  0  0  0  0  0  0  0  0
  1  5  1  0
  2  1  1  0
  2  3  1  0
  3  4  1  0
  4  5  1  0
  5  6  1  1
  6  7  2  0
  8  9  1  0
  9 11  1  0
 10  9  2  0
 11 12  1  0
 13 12  1  6
 13 15  1  0
 13 14  1  0
 14  6  1  0
 15 24  1  0
 16 15  2  0
 18 17  1  0
 18 19  2  0
 20 19  1  0
 21 20  2  0
 22 21  1  0
 23 22  1  1
 23 25  1  0
 24 23  1  0
 25 29  2  0
 25 26  1  0
 27 28  2  0
 27 21  1  0
 28 18  1  0
M  END
$$$$
