PQY.pdb
     RDKit          3D

 29 30  0  0  1  0  0  0  0  0999 V2000
   28.9331  -22.9912  -18.1344 N   0  0  0  0  0  0  0  0  0  0  0  0
   30.0813  -23.7097  -18.6998 C   0  0  0  0  0  0  0  0  0  0  0  0
   31.0455  -23.7525  -17.5107 C   0  0  0  0  0  0  0  0  0  0  0  0
   30.1780  -23.6027  -16.3032 C   0  0  0  0  0  0  0  0  0  0  0  0
   28.7297  -23.5477  -16.8110 C   0  0  1  0  0  0  0  0  0  0  0  0
   27.9694  -22.5413  -15.9827 C   0  0  0  0  0  0  0  0  0  0  0  0
   27.8147  -22.7755  -14.7330 O   0  0  0  0  0  0  0  0  0  0  0  0
   26.8523  -16.5525  -17.6359 N   0  0  0  0  0  0  0  0  0  0  0  0
   26.1585  -17.6092  -18.3091 C   0  0  0  0  0  0  0  0  0  0  0  0
   25.6140  -17.4220  -19.4143 O   0  0  0  0  0  0  0  0  0  0  0  0
   26.0890  -18.9500  -17.6783 C   0  0  0  0  0  0  0  0  0  0  0  0
   26.7282  -19.0415  -16.3469 C   0  0  0  0  0  0  0  0  0  0  0  0
   26.7246  -20.3996  -15.6877 C   0  0  2  0  0  0  0  0  0  0  0  0
   27.4266  -21.3637  -16.5193 N   0  0  0  0  0  0  0  0  0  0  0  0
   25.3152  -20.8127  -15.4760 C   0  0  0  0  0  0  0  0  0  0  0  0
   24.7493  -21.4818  -16.3539 O   0  0  0  0  0  0  0  0  0  0  0  0
   17.9572  -23.7279  -11.7860 O   0  0  0  0  0  0  0  0  0  0  0  0
   19.1740  -23.1070  -12.0030 C   0  0  0  0  0  0  0  0  0  0  0  0
   20.2434  -23.8185  -12.4951 C   0  0  0  0  0  0  0  0  0  0  0  0
   21.4575  -23.2019  -12.7117 C   0  0  0  0  0  0  0  0  0  0  0  0
   21.6489  -21.8501  -12.4448 C   0  0  0  0  0  0  0  0  0  0  0  0
   22.9453  -21.1766  -12.6370 C   0  0  0  0  0  0  0  0  0  0  0  0
   23.2438  -21.0119  -14.0812 C   0  0  2  0  0  0  0  0  0  0  0  0
   24.5860  -20.4755  -14.3107 N   0  0  0  0  0  0  0  0  0  0  0  0
   22.2375  -20.1633  -14.7461 C   0  0  0  0  0  0  0  0  0  0  0  0
   21.0527  -20.6200  -15.2960 O   0  0  0  0  0  0  0  0  0  0  0  0
   20.5793  -21.1391  -11.9531 C   0  0  0  0  0  0  0  0  0  0  0  0
   19.3611  -21.7454  -11.7322 C   0  0  0  0  0  0  0  0  0  0  0  0
   22.4619  -18.9189  -14.8308 O   0  0  0  0  0  0  0  0  0  0  0  0
  1  5  1  0
  2  1  1  0
  2  3  1  0
  3  4  1  0
  4  5  1  0
  5  6  1  1
  6  7  2  0
  8  9  1  0
  9 11  1  0
 10  9  2  0
 11 12  1  0
 13 12  1  6
 13 15  1  0
 13 14  1  0
 14  6  1  0
 15 24  1  0
 16 15  2  0
 18 17  1  0
 18 19  2  0
 20 19  1  0
 21 20  2  0
 22 21  1  0
 23 22  1  1
 23 25  1  0
 24 23  1  0
 25 29  2  0
 25 26  1  0
 27 28  2  0
 27 21  1  0
 28 18  1  0
M  END
$$$$
