PQY.pdb
     RDKit          3D

 29 30  0  0  1  0  0  0  0  0999 V2000
   27.8659  -20.5265  -15.7726 N   0  0  0  0  0  0  0  0  0  0  0  0
   28.2312  -20.3387  -17.1817 C   0  0  0  0  0  0  0  0  0  0  0  0
   27.3970  -19.1130  -17.5651 C   0  0  0  0  0  0  0  0  0  0  0  0
   27.1247  -18.4109  -16.2743 C   0  0  0  0  0  0  0  0  0  0  0  0
   27.8625  -19.2015  -15.1839 C   0  0  1  0  0  0  0  0  0  0  0  0
   26.9991  -19.2320  -13.9468 C   0  0  0  0  0  0  0  0  0  0  0  0
   26.7444  -18.1245  -13.3559 O   0  0  0  0  0  0  0  0  0  0  0  0
   22.5280  -23.3965  -13.2906 N   0  0  0  0  0  0  0  0  0  0  0  0
   22.2122  -22.0269  -13.5660 C   0  0  0  0  0  0  0  0  0  0  0  0
   21.0816  -21.6943  -13.9710 O   0  0  0  0  0  0  0  0  0  0  0  0
   23.2508  -20.9871  -13.3637 C   0  0  0  0  0  0  0  0  0  0  0  0
   24.4209  -21.4269  -12.5718 C   0  0  0  0  0  0  0  0  0  0  0  0
   25.4985  -20.3977  -12.3303 C   0  0  2  0  0  0  0  0  0  0  0  0
   26.4640  -20.4163  -13.4172 N   0  0  0  0  0  0  0  0  0  0  0  0
   26.1556  -20.7039  -11.0355 C   0  0  0  0  0  0  0  0  0  0  0  0
   26.6662  -21.8227  -10.8733 O   0  0  0  0  0  0  0  0  0  0  0  0
   29.8612  -20.5627   -3.1109 O   0  0  0  0  0  0  0  0  0  0  0  0
   29.2661  -20.1915   -4.3031 C   0  0  0  0  0  0  0  0  0  0  0  0
   29.7649  -20.6428   -5.5029 C   0  0  0  0  0  0  0  0  0  0  0  0
   29.1739  -20.2737   -6.6927 C   0  0  0  0  0  0  0  0  0  0  0  0
   28.0613  -19.4394   -6.7284 C   0  0  0  0  0  0  0  0  0  0  0  0
   27.4325  -19.0049   -7.9882 C   0  0  0  0  0  0  0  0  0  0  0  0
   26.7835  -20.1492   -8.6747 C   0  0  2  0  0  0  0  0  0  0  0  0
   26.2258  -19.7707   -9.9737 N   0  0  0  0  0  0  0  0  0  0  0  0
   25.7388  -20.7607   -7.8324 C   0  0  0  0  0  0  0  0  0  0  0  0
   25.9715  -21.6612   -6.8079 O   0  0  0  0  0  0  0  0  0  0  0  0
   27.5629  -18.9887   -5.5286 C   0  0  0  0  0  0  0  0  0  0  0  0
   28.1460  -19.3508   -4.3331 C   0  0  0  0  0  0  0  0  0  0  0  0
   24.5302  -20.4499   -8.0535 O   0  0  0  0  0  0  0  0  0  0  0  0
  1  5  1  0
  2  1  1  0
  2  3  1  0
  3  4  1  0
  4  5  1  0
  5  6  1  1
  6  7  2  0
  8  9  1  0
  9 11  1  0
 10  9  2  0
 11 12  1  0
 13 12  1  6
 13 15  1  0
 13 14  1  0
 14  6  1  0
 15 24  1  0
 16 15  2  0
 18 17  1  0
 18 19  2  0
 20 19  1  0
 21 20  2  0
 22 21  1  0
 23 22  1  1
 23 25  1  0
 24 23  1  0
 25 29  2  0
 25 26  1  0
 27 28  2  0
 27 21  1  0
 28 18  1  0
M  END
$$$$
