PQY.pdb
     RDKit          3D

 29 30  0  0  1  0  0  0  0  0999 V2000
   27.7838  -20.3134  -16.4250 N   0  0  0  0  0  0  0  0  0  0  0  0
   28.2379  -20.0016  -17.7854 C   0  0  0  0  0  0  0  0  0  0  0  0
   28.0204  -18.4871  -17.8532 C   0  0  0  0  0  0  0  0  0  0  0  0
   28.0346  -18.0300  -16.4305 C   0  0  0  0  0  0  0  0  0  0  0  0
   28.3292  -19.2719  -15.5765 C   0  0  1  0  0  0  0  0  0  0  0  0
   27.4977  -19.1972  -14.3195 C   0  0  0  0  0  0  0  0  0  0  0  0
   27.7101  -18.2303  -13.5067 O   0  0  0  0  0  0  0  0  0  0  0  0
   21.5592  -22.3945  -12.2465 N   0  0  0  0  0  0  0  0  0  0  0  0
   21.8256  -21.1068  -12.8142 C   0  0  0  0  0  0  0  0  0  0  0  0
   21.0359  -20.5824  -13.6230 O   0  0  0  0  0  0  0  0  0  0  0  0
   23.0639  -20.3858  -12.4301 C   0  0  0  0  0  0  0  0  0  0  0  0
   24.1998  -20.5674  -13.3609 C   0  0  0  0  0  0  0  0  0  0  0  0
   25.4858  -19.8624  -13.0030 C   0  0  2  0  0  0  0  0  0  0  0  0
   26.5047  -20.1370  -14.0030 N   0  0  0  0  0  0  0  0  0  0  0  0
   25.9200  -20.3329  -11.6642 C   0  0  0  0  0  0  0  0  0  0  0  0
   26.2040  -21.5311  -11.5140 O   0  0  0  0  0  0  0  0  0  0  0  0
   29.0446  -20.9045   -3.4999 O   0  0  0  0  0  0  0  0  0  0  0  0
   28.5717  -20.4201   -4.7062 C   0  0  0  0  0  0  0  0  0  0  0  0
   29.4463  -20.0346   -5.6953 C   0  0  0  0  0  0  0  0  0  0  0  0
   28.9773  -19.5508   -6.8983 C   0  0  0  0  0  0  0  0  0  0  0  0
   27.6157  -19.4341   -7.1585 C   0  0  0  0  0  0  0  0  0  0  0  0
   27.0909  -18.8896   -8.4231 C   0  0  0  0  0  0  0  0  0  0  0  0
   26.4993  -19.9668   -9.2547 C   0  0  2  0  0  0  0  0  0  0  0  0
   26.0249  -19.4702  -10.5470 N   0  0  0  0  0  0  0  0  0  0  0  0
   25.4070  -20.6576   -8.5444 C   0  0  0  0  0  0  0  0  0  0  0  0
   25.5705  -21.7395   -7.6975 O   0  0  0  0  0  0  0  0  0  0  0  0
   26.7417  -19.8199   -6.1693 C   0  0  0  0  0  0  0  0  0  0  0  0
   27.1994  -20.3045   -4.9626 C   0  0  0  0  0  0  0  0  0  0  0  0
   24.2219  -20.2420   -8.7146 O   0  0  0  0  0  0  0  0  0  0  0  0
  1  5  1  0
  2  1  1  0
  2  3  1  0
  3  4  1  0
  4  5  1  0
  5  6  1  1
  6  7  2  0
  8  9  1  0
  9 11  1  0
 10  9  2  0
 11 12  1  0
 13 12  1  6
 13 15  1  0
 13 14  1  0
 14  6  1  0
 15 24  1  0
 16 15  2  0
 18 17  1  0
 18 19  2  0
 20 19  1  0
 21 20  2  0
 22 21  1  0
 23 22  1  1
 23 25  1  0
 24 23  1  0
 25 29  2  0
 25 26  1  0
 27 28  2  0
 27 21  1  0
 28 18  1  0
M  END
$$$$
