PQY.pdb
     RDKit          3D

 29 30  0  0  1  0  0  0  0  0999 V2000
   28.3675  -21.9820  -19.1199 N   0  0  0  0  0  0  0  0  0  0  0  0
   29.4396  -22.2159  -20.0945 C   0  0  0  0  0  0  0  0  0  0  0  0
   29.7749  -20.7912  -20.5454 C   0  0  0  0  0  0  0  0  0  0  0  0
   29.3181  -19.9133  -19.4257 C   0  0  0  0  0  0  0  0  0  0  0  0
   28.7951  -20.8474  -18.3247 C   0  0  1  0  0  0  0  0  0  0  0  0
   27.5750  -20.2162  -17.7004 C   0  0  0  0  0  0  0  0  0  0  0  0
   27.7250  -19.1336  -17.0327 O   0  0  0  0  0  0  0  0  0  0  0  0
   22.4397  -19.0607  -20.1684 N   0  0  0  0  0  0  0  0  0  0  0  0
   21.9456  -18.9438  -18.8291 C   0  0  0  0  0  0  0  0  0  0  0  0
   20.9135  -18.2926  -18.5768 O   0  0  0  0  0  0  0  0  0  0  0  0
   22.6765  -19.6115  -17.7243 C   0  0  0  0  0  0  0  0  0  0  0  0
   23.9207  -20.3005  -18.1328 C   0  0  0  0  0  0  0  0  0  0  0  0
   25.1249  -20.1034  -17.2440 C   0  0  2  0  0  0  0  0  0  0  0  0
   26.2871  -20.7609  -17.8192 N   0  0  0  0  0  0  0  0  0  0  0  0
   24.8132  -20.6599  -15.9041 C   0  0  0  0  0  0  0  0  0  0  0  0
   24.5123  -21.8596  -15.8095 O   0  0  0  0  0  0  0  0  0  0  0  0
   23.1133  -21.9164   -7.4284 O   0  0  0  0  0  0  0  0  0  0  0  0
   23.4891  -21.3183   -8.6176 C   0  0  0  0  0  0  0  0  0  0  0  0
   22.5544  -20.6974   -9.4132 C   0  0  0  0  0  0  0  0  0  0  0  0
   22.9265  -20.1010  -10.5994 C   0  0  0  0  0  0  0  0  0  0  0  0
   24.2475  -20.1024  -11.0355 C   0  0  0  0  0  0  0  0  0  0  0  0
   24.6640  -19.5007  -12.3145 C   0  0  0  0  0  0  0  0  0  0  0  0
   24.4186  -20.4354  -13.4405 C   0  0  2  0  0  0  0  0  0  0  0  0
   24.8449  -19.8780  -14.7248 N   0  0  0  0  0  0  0  0  0  0  0  0
   23.0015  -20.8383  -13.5074 C   0  0  0  0  0  0  0  0  0  0  0  0
   21.9756  -20.0528  -14.0026 O   0  0  0  0  0  0  0  0  0  0  0  0
   25.1816  -20.7231  -10.2396 C   0  0  0  0  0  0  0  0  0  0  0  0
   24.8209  -21.3230   -9.0520 C   0  0  0  0  0  0  0  0  0  0  0  0
   22.6827  -21.9879  -13.0799 O   0  0  0  0  0  0  0  0  0  0  0  0
  1  5  1  0
  2  1  1  0
  2  3  1  0
  3  4  1  0
  4  5  1  0
  5  6  1  6
  6  7  2  0
  8  9  1  0
  9 11  1  0
 10  9  2  0
 11 12  1  0
 13 12  1  6
 13 15  1  0
 13 14  1  0
 14  6  1  0
 15 24  1  0
 16 15  2  0
 18 17  1  0
 18 19  2  0
 20 19  1  0
 21 20  2  0
 22 21  1  0
 23 22  1  1
 23 25  1  0
 24 23  1  0
 25 29  2  0
 25 26  1  0
 27 28  2  0
 27 21  1  0
 28 18  1  0
M  END
$$$$
