DEM.pdb
     RDKit          3D

 26 25  0  0  1  0  0  0  0  0999 V2000
   15.5307  -12.9212  -14.0538 N   0  0  0  0  0  0  0  0  0  0  0  0
   15.4781  -11.4923  -14.3308 C   0  0  1  0  0  0  0  0  0  0  0  0
   14.0006  -11.1134  -14.3023 C   0  0  0  0  0  0  0  0  0  0  0  0
   13.3431  -11.8184  -15.4317 C   0  0  0  0  0  0  0  0  0  0  0  0
   13.8229  -11.8202  -16.5920 O   0  0  0  0  0  0  0  0  0  0  0  0
   16.2485  -10.7346  -13.3047 C   0  0  0  0  0  0  0  0  0  0  0  0
   16.2229  -11.1381  -12.1160 O   0  0  0  0  0  0  0  0  0  0  0  0
   12.1674  -12.4908  -15.1889 O   0  0  0  0  0  0  0  0  0  0  0  0
   16.9931   -9.5829  -13.6685 N   0  0  0  0  0  0  0  0  0  0  0  0
   17.8488   -8.8699  -12.6778 C   0  0  1  0  0  0  0  0  0  0  0  0
   18.9763   -8.2293  -13.4154 C   0  0  0  0  0  0  0  0  0  0  0  0
   19.9098   -7.3809  -12.6300 C   0  0  0  0  0  0  0  0  0  0  0  0
   21.0489   -6.8251  -13.3823 C   0  0  0  0  0  0  0  0  0  0  0  0
   21.2942   -5.6056  -13.3001 O   0  0  0  0  0  0  0  0  0  0  0  0
   16.9494   -7.9085  -11.9908 C   0  0  0  0  0  0  0  0  0  0  0  0
   16.1497   -7.1633  -12.6708 O   0  0  0  0  0  0  0  0  0  0  0  0
   21.8245   -7.6445  -14.1611 O   0  0  0  0  0  0  0  0  0  0  0  0
   14.0820   -8.0739   -6.1338 C   0  0  0  0  0  0  0  0  0  0  0  0
   13.1027   -7.0030   -7.2222 S   0  0  0  0  0  0  0  0  0  0  0  0
   14.2846   -6.1634   -8.3432 C   0  0  0  0  0  0  0  0  0  0  0  0
   15.0450   -7.2447   -9.0510 C   0  0  0  0  0  0  0  0  0  0  0  0
   16.0115   -6.6625  -10.0205 C   0  0  2  0  0  0  0  0  0  0  0  0
   16.8678   -7.7134  -10.5932 N   0  0  0  0  0  0  0  0  0  0  0  0
   16.8998   -5.6953   -9.3457 C   0  0  0  0  0  0  0  0  0  0  0  0
   16.4242   -4.4395   -8.9546 O   0  0  0  0  0  0  0  0  0  0  0  0
   18.1091   -5.9180   -9.0809 O   0  0  0  0  0  0  0  0  0  0  0  0
  2  6  1  0
  2  3  1  0
  2  1  1  1
  3  4  1  0
  4  8  1  0
  4  5  2  0
  6  7  2  0
  9 10  1  0
  9  6  1  0
 10 11  1  6
 12 11  1  0
 12 13  1  0
 13 14  2  0
 15 16  2  0
 15 10  1  0
 17 13  1  0
 18 19  1  0
 20 21  1  0
 20 19  1  0
 22 21  1  1
 22 23  1  0
 22 24  1  0
 23 15  1  0
 24 25  1  0
 26 24  2  0
M  END
$$$$
