DEM.pdb
     RDKit          3D

 26 25  0  0  1  0  0  0  0  0999 V2000
   16.9668  -10.9995  -15.2836 N   0  0  0  0  0  0  0  0  0  0  0  0
   18.3583  -11.2401  -15.6403 C   0  0  1  0  0  0  0  0  0  0  0  0
   18.3352  -12.3260  -16.7115 C   0  0  0  0  0  0  0  0  0  0  0  0
   17.9689  -13.5990  -16.0405 C   0  0  0  0  0  0  0  0  0  0  0  0
   17.5980  -13.6431  -14.8418 O   0  0  0  0  0  0  0  0  0  0  0  0
   18.9875   -9.9905  -16.1532 C   0  0  0  0  0  0  0  0  0  0  0  0
   20.1421  -10.0570  -16.6422 O   0  0  0  0  0  0  0  0  0  0  0  0
   18.0412  -14.7663  -16.7656 O   0  0  0  0  0  0  0  0  0  0  0  0
   18.2927   -8.7551  -16.0881 N   0  0  0  0  0  0  0  0  0  0  0  0
   18.9208   -7.4882  -16.5595 C   0  0  1  0  0  0  0  0  0  0  0  0
   17.8395   -6.4787  -16.7527 C   0  0  0  0  0  0  0  0  0  0  0  0
   16.9997   -6.6045  -17.9721 C   0  0  0  0  0  0  0  0  0  0  0  0
   17.6081   -6.1024  -19.2171 C   0  0  0  0  0  0  0  0  0  0  0  0
   16.8854   -5.5380  -20.0618 O   0  0  0  0  0  0  0  0  0  0  0  0
   19.9136   -7.1219  -15.5177 C   0  0  0  0  0  0  0  0  0  0  0  0
   19.5718   -7.0796  -14.2773 O   0  0  0  0  0  0  0  0  0  0  0  0
   18.9523   -6.2578  -19.4375 O   0  0  0  0  0  0  0  0  0  0  0  0
   25.1419  -10.9258  -14.6469 C   0  0  0  0  0  0  0  0  0  0  0  0
   25.1757   -9.1344  -14.9300 S   0  0  0  0  0  0  0  0  0  0  0  0
   23.4740   -8.5195  -14.6396 C   0  0  0  0  0  0  0  0  0  0  0  0
   23.5151   -7.0344  -14.8427 C   0  0  0  0  0  0  0  0  0  0  0  0
   22.1675   -6.4368  -14.6430 C   0  0  2  0  0  0  0  0  0  0  0  0
   21.2700   -6.8000  -15.7513 N   0  0  0  0  0  0  0  0  0  0  0  0
   22.2552   -4.9632  -14.6175 C   0  0  0  0  0  0  0  0  0  0  0  0
   22.7352   -4.2947  -13.4866 O   0  0  0  0  0  0  0  0  0  0  0  0
   21.9166   -4.2224  -15.5759 O   0  0  0  0  0  0  0  0  0  0  0  0
  2  6  1  0
  2  3  1  0
  2  1  1  6
  3  4  1  0
  4  8  1  0
  4  5  2  0
  6  7  2  0
  9 10  1  0
  9  6  1  0
 10 11  1  1
 12 11  1  0
 12 13  1  0
 13 14  2  0
 15 16  2  0
 15 10  1  0
 17 13  1  0
 18 19  1  0
 20 21  1  0
 20 19  1  0
 22 21  1  6
 22 23  1  0
 22 24  1  0
 23 15  1  0
 24 25  1  0
 26 24  2  0
M  END
$$$$
