DEM.pdb
     RDKit          3D

 26 25  0  0  1  0  0  0  0  0999 V2000
   19.0751  -21.3866  -13.3616 N   0  0  0  0  0  0  0  0  0  0  0  0
   20.1825  -20.4502  -13.2274 C   0  0  1  0  0  0  0  0  0  0  0  0
   19.8625  -19.5940  -12.0060 C   0  0  0  0  0  0  0  0  0  0  0  0
   18.6420  -18.8105  -12.3248 C   0  0  0  0  0  0  0  0  0  0  0  0
   18.6517  -17.8554  -13.1398 O   0  0  0  0  0  0  0  0  0  0  0  0
   21.4666  -21.1849  -13.0488 C   0  0  0  0  0  0  0  0  0  0  0  0
   21.4403  -22.3150  -12.5021 O   0  0  0  0  0  0  0  0  0  0  0  0
   17.4637  -19.1502  -11.7007 O   0  0  0  0  0  0  0  0  0  0  0  0
   22.6894  -20.6153  -13.4886 N   0  0  0  0  0  0  0  0  0  0  0  0
   23.9747  -21.3624  -13.3792 C   0  0  1  0  0  0  0  0  0  0  0  0
   24.5188  -21.5525  -14.7551 C   0  0  0  0  0  0  0  0  0  0  0  0
   25.8407  -22.2199  -14.8791 C   0  0  0  0  0  0  0  0  0  0  0  0
   26.3601  -22.3507  -16.2522 C   0  0  0  0  0  0  0  0  0  0  0  0
   25.7272  -21.8324  -17.1930 O   0  0  0  0  0  0  0  0  0  0  0  0
   24.8395  -20.5430  -12.4927 C   0  0  0  0  0  0  0  0  0  0  0  0
   24.3374  -19.5823  -11.7983 O   0  0  0  0  0  0  0  0  0  0  0  0
   27.5248  -23.0355  -16.4849 O   0  0  0  0  0  0  0  0  0  0  0  0
   27.4594  -19.2048   -6.7541 C   0  0  0  0  0  0  0  0  0  0  0  0
   26.1725  -19.6961   -7.9343 S   0  0  0  0  0  0  0  0  0  0  0  0
   26.6782  -21.3158   -8.6265 C   0  0  0  0  0  0  0  0  0  0  0  0
   26.0606  -21.4104   -9.9896 C   0  0  0  0  0  0  0  0  0  0  0  0
   26.8444  -20.6245  -10.9800 C   0  0  2  0  0  0  0  0  0  0  0  0
   26.2313  -20.7141  -12.3148 N   0  0  0  0  0  0  0  0  0  0  0  0
   28.2163  -21.1585  -11.0931 C   0  0  0  0  0  0  0  0  0  0  0  0
   29.3193  -20.3796  -10.7289 O   0  0  0  0  0  0  0  0  0  0  0  0
   28.4886  -22.3131  -11.5111 O   0  0  0  0  0  0  0  0  0  0  0  0
  2  6  1  0
  2  3  1  0
  2  1  1  1
  3  4  1  0
  4  8  1  0
  4  5  2  0
  6  7  2  0
  9 10  1  0
  9  6  1  0
 10 11  1  6
 12 11  1  0
 12 13  1  0
 13 14  2  0
 15 16  2  0
 15 10  1  0
 17 13  1  0
 18 19  1  0
 20 21  1  0
 20 19  1  0
 22 21  1  1
 22 23  1  0
 22 24  1  0
 23 15  1  0
 24 25  1  0
 26 24  2  0
M  END
$$$$
