DEM.pdb
     RDKit          3D

 26 25  0  0  1  0  0  0  0  0999 V2000
   18.8621  -26.0410  -13.3370 N   0  0  0  0  0  0  0  0  0  0  0  0
   17.7945  -25.1760  -13.8200 C   0  0  1  0  0  0  0  0  0  0  0  0
   16.6192  -26.0960  -14.1355 C   0  0  0  0  0  0  0  0  0  0  0  0
   17.0429  -26.9870  -15.2453 C   0  0  0  0  0  0  0  0  0  0  0  0
   17.4993  -28.1392  -15.0437 O   0  0  0  0  0  0  0  0  0  0  0  0
   17.4289  -24.1715  -12.7819 C   0  0  0  0  0  0  0  0  0  0  0  0
   17.4160  -24.5296  -11.5785 O   0  0  0  0  0  0  0  0  0  0  0  0
   16.9275  -26.5256  -16.5365 O   0  0  0  0  0  0  0  0  0  0  0  0
   17.1031  -22.8406  -13.1506 N   0  0  0  0  0  0  0  0  0  0  0  0
   16.7644  -21.8141  -12.1242 C   0  0  1  0  0  0  0  0  0  0  0  0
   16.9482  -20.4669  -12.7379 C   0  0  0  0  0  0  0  0  0  0  0  0
   16.0294  -20.0904  -13.8434 C   0  0  0  0  0  0  0  0  0  0  0  0
   16.2511  -18.7553  -14.4270 C   0  0  0  0  0  0  0  0  0  0  0  0
   16.8551  -18.6599  -15.5134 O   0  0  0  0  0  0  0  0  0  0  0  0
   15.3685  -22.1070  -11.7109 C   0  0  0  0  0  0  0  0  0  0  0  0
   14.5446  -22.6522  -12.5363 O   0  0  0  0  0  0  0  0  0  0  0  0
   15.7968  -17.6365  -13.7778 O   0  0  0  0  0  0  0  0  0  0  0  0
   10.0024  -23.9787   -6.4126 C   0  0  0  0  0  0  0  0  0  0  0  0
   11.7500  -23.7650   -6.8493 S   0  0  0  0  0  0  0  0  0  0  0  0
   11.7908  -22.9308   -8.4804 C   0  0  0  0  0  0  0  0  0  0  0  0
   13.2278  -22.6059   -8.7592 C   0  0  0  0  0  0  0  0  0  0  0  0
   13.3971  -22.1136  -10.1527 C   0  0  2  0  0  0  0  0  0  0  0  0
   14.8149  -21.8413  -10.4377 N   0  0  0  0  0  0  0  0  0  0  0  0
   12.6623  -20.8475  -10.3454 C   0  0  0  0  0  0  0  0  0  0  0  0
   11.3258  -20.8518  -10.7575 O   0  0  0  0  0  0  0  0  0  0  0  0
   13.1639  -19.7089  -10.1610 O   0  0  0  0  0  0  0  0  0  0  0  0
  2  6  1  0
  2  3  1  0
  2  1  1  1
  3  4  1  0
  4  8  1  0
  4  5  2  0
  6  7  2  0
  9 10  1  0
  9  6  1  0
 10 11  1  6
 12 11  1  0
 12 13  1  0
 13 14  2  0
 15 16  2  0
 15 10  1  0
 17 13  1  0
 18 19  1  0
 20 21  1  0
 20 19  1  0
 22 21  1  1
 22 23  1  0
 22 24  1  0
 23 15  1  0
 24 25  1  0
 26 24  2  0
M  END
$$$$
