DEM.pdb
     RDKit          3D

 26 25  0  0  1  0  0  0  0  0999 V2000
   16.5614  -12.5570  -13.9475 N   0  0  0  0  0  0  0  0  0  0  0  0
   15.8167  -11.3254  -13.7234 C   0  0  1  0  0  0  0  0  0  0  0  0
   14.4334  -11.7530  -13.2429 C   0  0  0  0  0  0  0  0  0  0  0  0
   13.7575  -12.4204  -14.3843 C   0  0  0  0  0  0  0  0  0  0  0  0
   13.6845  -11.8940  -15.5218 O   0  0  0  0  0  0  0  0  0  0  0  0
   16.5030  -10.4802  -12.7060 C   0  0  0  0  0  0  0  0  0  0  0  0
   16.4824  -10.8497  -11.5061 O   0  0  0  0  0  0  0  0  0  0  0  0
   13.1945  -13.6591  -14.1789 O   0  0  0  0  0  0  0  0  0  0  0  0
   17.1639   -9.2848  -13.0901 N   0  0  0  0  0  0  0  0  0  0  0  0
   17.8806   -8.4416  -12.0914 C   0  0  1  0  0  0  0  0  0  0  0  0
   18.8730   -7.6008  -12.8219 C   0  0  0  0  0  0  0  0  0  0  0  0
   20.0957   -8.2757  -13.3295 C   0  0  0  0  0  0  0  0  0  0  0  0
   21.0254   -7.4198  -14.0880 C   0  0  0  0  0  0  0  0  0  0  0  0
   21.7395   -6.6040  -13.4725 O   0  0  0  0  0  0  0  0  0  0  0  0
   16.8253   -7.6651  -11.3925 C   0  0  0  0  0  0  0  0  0  0  0  0
   15.7801   -7.2653  -12.0289 O   0  0  0  0  0  0  0  0  0  0  0  0
   21.0985   -7.5241  -15.4531 O   0  0  0  0  0  0  0  0  0  0  0  0
   11.4102   -6.3796   -6.3366 C   0  0  0  0  0  0  0  0  0  0  0  0
   12.6755   -7.4452   -7.0811 S   0  0  0  0  0  0  0  0  0  0  0  0
   13.8447   -6.3435   -7.9627 C   0  0  0  0  0  0  0  0  0  0  0  0
   14.8572   -7.2326   -8.6205 C   0  0  0  0  0  0  0  0  0  0  0  0
   15.7939   -6.4365   -9.4582 C   0  0  2  0  0  0  0  0  0  0  0  0
   16.8416   -7.2992  -10.0272 N   0  0  0  0  0  0  0  0  0  0  0  0
   16.4704   -5.4091   -8.6416 C   0  0  0  0  0  0  0  0  0  0  0  0
   15.7743   -4.2848   -8.1863 O   0  0  0  0  0  0  0  0  0  0  0  0
   17.6812   -5.4639   -8.3053 O   0  0  0  0  0  0  0  0  0  0  0  0
  2  6  1  0
  2  3  1  0
  2  1  1  1
  3  4  1  0
  4  8  1  0
  4  5  2  0
  6  7  2  0
  9 10  1  0
  9  6  1  0
 10 11  1  6
 12 11  1  0
 12 13  1  0
 13 14  2  0
 15 16  2  0
 15 10  1  0
 17 13  1  0
 18 19  1  0
 20 21  1  0
 20 19  1  0
 22 21  1  1
 22 23  1  0
 22 24  1  0
 23 15  1  0
 24 25  1  0
 26 24  2  0
M  END
$$$$
