DEM.pdb
     RDKit          3D

 26 25  0  0  1  0  0  0  0  0999 V2000
   15.6239   -9.5313  -11.1390 N   0  0  0  0  0  0  0  0  0  0  0  0
   16.0406   -9.5212  -12.5346 C   0  0  1  0  0  0  0  0  0  0  0  0
   14.8087   -9.1154  -13.3376 C   0  0  0  0  0  0  0  0  0  0  0  0
   13.8196  -10.2159  -13.2132 C   0  0  0  0  0  0  0  0  0  0  0  0
   14.1599  -11.4243  -13.1887 O   0  0  0  0  0  0  0  0  0  0  0  0
   17.1577   -8.5559  -12.7371 C   0  0  0  0  0  0  0  0  0  0  0  0
   17.2056   -7.5326  -12.0111 O   0  0  0  0  0  0  0  0  0  0  0  0
   12.4856   -9.8908  -13.1219 O   0  0  0  0  0  0  0  0  0  0  0  0
   18.1431   -8.7928  -13.7301 N   0  0  0  0  0  0  0  0  0  0  0  0
   19.2136   -7.7945  -14.0117 C   0  0  1  0  0  0  0  0  0  0  0  0
   20.4672   -8.5371  -14.3321 C   0  0  0  0  0  0  0  0  0  0  0  0
   21.6511   -7.7342  -14.7341 C   0  0  0  0  0  0  0  0  0  0  0  0
   22.8880   -8.5003  -14.9700 C   0  0  0  0  0  0  0  0  0  0  0  0
   23.4657   -8.3976  -16.0699 O   0  0  0  0  0  0  0  0  0  0  0  0
   18.7000   -6.9612  -15.1284 C   0  0  0  0  0  0  0  0  0  0  0  0
   18.1309   -7.5106  -16.1440 O   0  0  0  0  0  0  0  0  0  0  0  0
   23.3910   -9.3143  -13.9881 O   0  0  0  0  0  0  0  0  0  0  0  0
   14.1915   -2.2305  -18.6621 C   0  0  0  0  0  0  0  0  0  0  0  0
   14.6911   -3.2847  -17.2730 S   0  0  0  0  0  0  0  0  0  0  0  0
   16.4838   -3.6087  -17.4712 C   0  0  0  0  0  0  0  0  0  0  0  0
   16.8938   -4.4693  -16.3138 C   0  0  0  0  0  0  0  0  0  0  0  0
   18.3340   -4.8297  -16.4079 C   0  0  2  0  0  0  0  0  0  0  0  0
   18.7678   -5.5511  -15.2008 N   0  0  0  0  0  0  0  0  0  0  0  0
   19.1645   -3.6133  -16.5114 C   0  0  0  0  0  0  0  0  0  0  0  0
   19.1545   -2.8373  -17.6749 O   0  0  0  0  0  0  0  0  0  0  0  0
   19.9180   -3.1968  -15.5944 O   0  0  0  0  0  0  0  0  0  0  0  0
  2  6  1  0
  2  3  1  0
  2  1  1  1
  3  4  1  0
  4  8  1  0
  4  5  2  0
  6  7  2  0
  9 10  1  0
  9  6  1  0
 10 11  1  6
 12 11  1  0
 12 13  1  0
 13 14  2  0
 15 16  2  0
 15 10  1  0
 17 13  1  0
 18 19  1  0
 20 21  1  0
 20 19  1  0
 22 21  1  1
 22 23  1  0
 22 24  1  0
 23 15  1  0
 24 25  1  0
 26 24  2  0
M  END
$$$$
