DEM.pdb
     RDKit          3D

 26 25  0  0  1  0  0  0  0  0999 V2000
   16.3135  -13.4286  -14.4164 N   0  0  0  0  0  0  0  0  0  0  0  0
   15.9233  -12.0461  -14.6571 C   0  0  1  0  0  0  0  0  0  0  0  0
   14.4230  -11.9806  -14.3881 C   0  0  0  0  0  0  0  0  0  0  0  0
   13.7456  -12.7086  -15.4909 C   0  0  0  0  0  0  0  0  0  0  0  0
   14.2698  -12.8500  -16.6230 O   0  0  0  0  0  0  0  0  0  0  0  0
   16.6732  -11.1288  -13.7534 C   0  0  0  0  0  0  0  0  0  0  0  0
   16.9566  -11.5256  -12.5963 O   0  0  0  0  0  0  0  0  0  0  0  0
   12.5000  -13.2437  -15.2547 O   0  0  0  0  0  0  0  0  0  0  0  0
   17.0563   -9.8363  -14.1958 N   0  0  0  0  0  0  0  0  0  0  0  0
   17.8398   -8.9192  -13.3200 C   0  0  1  0  0  0  0  0  0  0  0  0
   18.7378   -8.1038  -14.1884 C   0  0  0  0  0  0  0  0  0  0  0  0
   19.5425   -7.0421  -13.5301 C   0  0  0  0  0  0  0  0  0  0  0  0
   20.8225   -7.4839  -12.9481 C   0  0  0  0  0  0  0  0  0  0  0  0
   20.9444   -7.5237  -11.7081 O   0  0  0  0  0  0  0  0  0  0  0  0
   16.8336   -8.1239  -12.5716 C   0  0  0  0  0  0  0  0  0  0  0  0
   15.8364   -7.5897  -13.1860 O   0  0  0  0  0  0  0  0  0  0  0  0
   21.8622   -7.8444  -13.7659 O   0  0  0  0  0  0  0  0  0  0  0  0
   13.0776   -6.4051   -5.9330 C   0  0  0  0  0  0  0  0  0  0  0  0
   14.4337   -7.3165   -6.7211 S   0  0  0  0  0  0  0  0  0  0  0  0
   14.5990   -6.6550   -8.4221 C   0  0  0  0  0  0  0  0  0  0  0  0
   15.6751   -7.4571   -9.0905 C   0  0  0  0  0  0  0  0  0  0  0  0
   15.7792   -7.1033  -10.5317 C   0  0  2  0  0  0  0  0  0  0  0  0
   16.8494   -7.8782  -11.1797 N   0  0  0  0  0  0  0  0  0  0  0  0
   16.1181   -5.6749  -10.6892 C   0  0  0  0  0  0  0  0  0  0  0  0
   17.3943   -5.2845  -11.1074 O   0  0  0  0  0  0  0  0  0  0  0  0
   15.3143   -4.7334  -10.4667 O   0  0  0  0  0  0  0  0  0  0  0  0
  2  6  1  0
  2  3  1  0
  2  1  1  1
  3  4  1  0
  4  8  1  0
  4  5  2  0
  6  7  2  0
  9 10  1  0
  9  6  1  0
 10 11  1  6
 12 11  1  0
 12 13  1  0
 13 14  2  0
 15 16  2  0
 15 10  1  0
 17 13  1  0
 18 19  1  0
 20 21  1  0
 20 19  1  0
 22 21  1  1
 22 23  1  0
 22 24  1  0
 23 15  1  0
 24 25  1  0
 26 24  2  0
M  END
$$$$
