DEM.pdb
     RDKit          3D

 26 25  0  0  1  0  0  0  0  0999 V2000
   31.4776  -28.3760  -18.2047 N   0  0  0  0  0  0  0  0  0  0  0  0
   31.9974  -29.5818  -18.8349 C   0  0  1  0  0  0  0  0  0  0  0  0
   33.4466  -29.2740  -19.1987 C   0  0  0  0  0  0  0  0  0  0  0  0
   33.4229  -28.3833  -20.3866 C   0  0  0  0  0  0  0  0  0  0  0  0
   32.3516  -27.9656  -20.8908 O   0  0  0  0  0  0  0  0  0  0  0  0
   31.9108  -30.7373  -17.8980 C   0  0  0  0  0  0  0  0  0  0  0  0
   32.9758  -31.2197  -17.4400 O   0  0  0  0  0  0  0  0  0  0  0  0
   34.6219  -28.0077  -20.9478 O   0  0  0  0  0  0  0  0  0  0  0  0
   30.6499  -31.2770  -17.5347 N   0  0  0  0  0  0  0  0  0  0  0  0
   30.5399  -32.3951  -16.5550 C   0  0  1  0  0  0  0  0  0  0  0  0
   29.1297  -32.4505  -16.0715 C   0  0  0  0  0  0  0  0  0  0  0  0
   28.7492  -33.6002  -15.2104 C   0  0  0  0  0  0  0  0  0  0  0  0
   27.3613  -33.5905  -14.7144 C   0  0  0  0  0  0  0  0  0  0  0  0
   26.9474  -34.5599  -14.0486 O   0  0  0  0  0  0  0  0  0  0  0  0
   30.9791  -33.6114  -17.2850 C   0  0  0  0  0  0  0  0  0  0  0  0
   30.6991  -33.7600  -18.5327 O   0  0  0  0  0  0  0  0  0  0  0  0
   26.5410  -32.5261  -14.9858 O   0  0  0  0  0  0  0  0  0  0  0  0
   35.6527  -39.8925  -17.8646 C   0  0  0  0  0  0  0  0  0  0  0  0
   35.0138  -38.5752  -16.7937 S   0  0  0  0  0  0  0  0  0  0  0  0
   33.6780  -37.7353  -17.7256 C   0  0  0  0  0  0  0  0  0  0  0  0
   33.2791  -36.5377  -16.9162 C   0  0  0  0  0  0  0  0  0  0  0  0
   32.1447  -35.8208  -17.5581 C   0  0  2  0  0  0  0  0  0  0  0  0
   31.7157  -34.6825  -16.7298 N   0  0  0  0  0  0  0  0  0  0  0  0
   30.9816  -36.7189  -17.7015 C   0  0  0  0  0  0  0  0  0  0  0  0
   30.8459  -37.5393  -18.8261 O   0  0  0  0  0  0  0  0  0  0  0  0
   30.0566  -36.8115  -16.8543 O   0  0  0  0  0  0  0  0  0  0  0  0
  2  6  1  0
  2  3  1  0
  2  1  1  1
  3  4  1  0
  4  8  1  0
  4  5  2  0
  6  7  2  0
  9 10  1  0
  9  6  1  0
 10 11  1  6
 12 11  1  0
 12 13  1  0
 13 14  2  0
 15 16  2  0
 15 10  1  0
 17 13  1  0
 18 19  1  0
 20 21  1  0
 20 19  1  0
 22 21  1  1
 22 23  1  0
 22 24  1  0
 23 15  1  0
 24 25  1  0
 26 24  2  0
M  END
$$$$
