DEM.pdb
     RDKit          3D

 26 25  0  0  1  0  0  0  0  0999 V2000
   18.5241  -12.0191  -18.2350 N   0  0  0  0  0  0  0  0  0  0  0  0
   18.0473  -11.2509  -17.0931 C   0  0  1  0  0  0  0  0  0  0  0  0
   18.5014  -12.0157  -15.8537 C   0  0  0  0  0  0  0  0  0  0  0  0
   17.5985  -13.1848  -15.7021 C   0  0  0  0  0  0  0  0  0  0  0  0
   16.9697  -13.6770  -16.6712 O   0  0  0  0  0  0  0  0  0  0  0  0
   18.6188   -9.8749  -17.1165 C   0  0  0  0  0  0  0  0  0  0  0  0
   19.7474   -9.7026  -17.6392 O   0  0  0  0  0  0  0  0  0  0  0  0
   17.4519  -13.7418  -14.4524 O   0  0  0  0  0  0  0  0  0  0  0  0
   17.8992   -8.7866  -16.5588 N   0  0  0  0  0  0  0  0  0  0  0  0
   18.4349   -7.3966  -16.6110 C   0  0  1  0  0  0  0  0  0  0  0  0
   17.3172   -6.4573  -16.3042 C   0  0  0  0  0  0  0  0  0  0  0  0
   17.6512   -5.0136  -16.1937 C   0  0  0  0  0  0  0  0  0  0  0  0
   16.8692   -4.2548  -15.2012 C   0  0  0  0  0  0  0  0  0  0  0  0
   17.4523   -3.7658  -14.2137 O   0  0  0  0  0  0  0  0  0  0  0  0
   19.5464   -7.3589  -15.6269 C   0  0  0  0  0  0  0  0  0  0  0  0
   19.6492   -8.2707  -14.7240 O   0  0  0  0  0  0  0  0  0  0  0  0
   15.5180   -4.0932  -15.3676 O   0  0  0  0  0  0  0  0  0  0  0  0
   25.1292  -10.3305  -13.8087 C   0  0  0  0  0  0  0  0  0  0  0  0
   24.8590   -9.0964  -15.1105 S   0  0  0  0  0  0  0  0  0  0  0  0
   23.8530   -7.7558  -14.3695 C   0  0  0  0  0  0  0  0  0  0  0  0
   22.6493   -7.5885  -15.2479 C   0  0  0  0  0  0  0  0  0  0  0  0
   21.7373   -6.5482  -14.7012 C   0  0  2  0  0  0  0  0  0  0  0  0
   20.5632   -6.3786  -15.5721 N   0  0  0  0  0  0  0  0  0  0  0  0
   22.4241   -5.2428  -14.6355 C   0  0  0  0  0  0  0  0  0  0  0  0
   23.4355   -5.0132  -13.6971 O   0  0  0  0  0  0  0  0  0  0  0  0
   22.1614   -4.2719  -15.3906 O   0  0  0  0  0  0  0  0  0  0  0  0
  2  6  1  0
  2  3  1  0
  2  1  1  6
  3  4  1  0
  4  8  1  0
  4  5  2  0
  6  7  2  0
  9 10  1  0
  9  6  1  0
 10 11  1  1
 12 11  1  0
 12 13  1  0
 13 14  2  0
 15 16  2  0
 15 10  1  0
 17 13  1  0
 18 19  1  0
 20 21  1  0
 20 19  1  0
 22 21  1  6
 22 23  1  0
 22 24  1  0
 23 15  1  0
 24 25  1  0
 26 24  2  0
M  END
$$$$
