DEM.pdb
     RDKit          3D

 26 25  0  0  1  0  0  0  0  0999 V2000
   21.5695  -14.1292  -19.8862 N   0  0  0  0  0  0  0  0  0  0  0  0
   21.0141  -13.7452  -18.5957 C   0  0  1  0  0  0  0  0  0  0  0  0
   21.7815  -14.5509  -17.5520 C   0  0  0  0  0  0  0  0  0  0  0  0
   21.2776  -15.9463  -17.6150 C   0  0  0  0  0  0  0  0  0  0  0  0
   20.3880  -16.3025  -18.4263 O   0  0  0  0  0  0  0  0  0  0  0  0
   21.1782  -12.2809  -18.3735 C   0  0  0  0  0  0  0  0  0  0  0  0
   22.0772  -11.6748  -19.0068 O   0  0  0  0  0  0  0  0  0  0  0  0
   21.8102  -16.8748  -16.7503 O   0  0  0  0  0  0  0  0  0  0  0  0
   20.3344  -11.5913  -17.4648 N   0  0  0  0  0  0  0  0  0  0  0  0
   20.4782  -10.1255  -17.2353 C   0  0  1  0  0  0  0  0  0  0  0  0
   19.2652   -9.6489  -16.5094 C   0  0  0  0  0  0  0  0  0  0  0  0
   19.2308   -8.2196  -16.1046 C   0  0  0  0  0  0  0  0  0  0  0  0
   17.9837   -7.7718  -15.4593 C   0  0  0  0  0  0  0  0  0  0  0  0
   17.0806   -8.6029  -15.2406 O   0  0  0  0  0  0  0  0  0  0  0  0
   21.7434   -9.9617  -16.4752 C   0  0  0  0  0  0  0  0  0  0  0  0
   22.1011  -10.8420  -15.6066 O   0  0  0  0  0  0  0  0  0  0  0  0
   17.8251   -6.4563  -15.1071 O   0  0  0  0  0  0  0  0  0  0  0  0
   28.7346  -11.2692  -15.5477 C   0  0  0  0  0  0  0  0  0  0  0  0
   27.0780  -11.3817  -16.2781 S   0  0  0  0  0  0  0  0  0  0  0  0
   26.1064   -9.9803  -15.6071 C   0  0  0  0  0  0  0  0  0  0  0  0
   24.7453  -10.0658  -16.2305 C   0  0  0  0  0  0  0  0  0  0  0  0
   23.9285   -8.8726  -15.8807 C   0  0  2  0  0  0  0  0  0  0  0  0
   22.6511   -8.8867  -16.6111 N   0  0  0  0  0  0  0  0  0  0  0  0
   24.6355   -7.6337  -16.2617 C   0  0  0  0  0  0  0  0  0  0  0  0
   25.6520   -7.1131  -15.4544 O   0  0  0  0  0  0  0  0  0  0  0  0
   24.3865   -6.9747  -17.3037 O   0  0  0  0  0  0  0  0  0  0  0  0
  2  6  1  0
  2  3  1  0
  2  1  1  6
  3  4  1  0
  4  8  1  0
  4  5  2  0
  6  7  2  0
  9 10  1  0
  9  6  1  0
 10 11  1  1
 12 11  1  0
 12 13  1  0
 13 14  2  0
 15 16  2  0
 15 10  1  0
 17 13  1  0
 18 19  1  0
 20 21  1  0
 20 19  1  0
 22 21  1  6
 22 23  1  0
 22 24  1  0
 23 15  1  0
 24 25  1  0
 26 24  2  0
M  END
$$$$
