DEM.pdb
     RDKit          3D

 26 25  0  0  1  0  0  0  0  0999 V2000
   28.3507  -20.5492  -17.3763 N   0  0  0  0  0  0  0  0  0  0  0  0
   27.7758  -21.4596  -16.3954 C   0  0  1  0  0  0  0  0  0  0  0  0
   28.9503  -22.2257  -15.7948 C   0  0  0  0  0  0  0  0  0  0  0  0
   29.5102  -23.0858  -16.8681 C   0  0  0  0  0  0  0  0  0  0  0  0
   28.8032  -23.5406  -17.8007 O   0  0  0  0  0  0  0  0  0  0  0  0
   27.0375  -20.6980  -15.3487 C   0  0  0  0  0  0  0  0  0  0  0  0
   27.5680  -19.6646  -14.8721 O   0  0  0  0  0  0  0  0  0  0  0  0
   30.8517  -23.3898  -16.8311 O   0  0  0  0  0  0  0  0  0  0  0  0
   25.7633  -21.1356  -14.9038 N   0  0  0  0  0  0  0  0  0  0  0  0
   24.9749  -20.3451  -13.9160 C   0  0  1  0  0  0  0  0  0  0  0  0
   23.5357  -20.4264  -14.3002 C   0  0  0  0  0  0  0  0  0  0  0  0
   22.5457  -19.8356  -13.3628 C   0  0  0  0  0  0  0  0  0  0  0  0
   21.1309  -20.0326  -13.7258 C   0  0  0  0  0  0  0  0  0  0  0  0
   20.8522  -20.6739  -14.7579 O   0  0  0  0  0  0  0  0  0  0  0  0
   25.2835  -20.9392  -12.5905 C   0  0  0  0  0  0  0  0  0  0  0  0
   25.2596  -22.2158  -12.4264 O   0  0  0  0  0  0  0  0  0  0  0  0
   20.1388  -19.5139  -12.9343 O   0  0  0  0  0  0  0  0  0  0  0  0
   29.2807  -19.3704   -7.7204 C   0  0  0  0  0  0  0  0  0  0  0  0
   27.7228  -19.5820   -6.8155 S   0  0  0  0  0  0  0  0  0  0  0  0
   26.6591  -20.6688   -7.8380 C   0  0  0  0  0  0  0  0  0  0  0  0
   26.6036  -20.0515   -9.2034 C   0  0  0  0  0  0  0  0  0  0  0  0
   25.8092  -20.8981  -10.1336 C   0  0  2  0  0  0  0  0  0  0  0  0
   25.6232  -20.2161  -11.4243 N   0  0  0  0  0  0  0  0  0  0  0  0
   24.4656  -21.1545   -9.5779 C   0  0  0  0  0  0  0  0  0  0  0  0
   23.3322  -20.5633  -10.1453 O   0  0  0  0  0  0  0  0  0  0  0  0
   24.2450  -21.8971   -8.5870 O   0  0  0  0  0  0  0  0  0  0  0  0
  2  6  1  0
  2  3  1  0
  2  1  1  6
  3  4  1  0
  4  8  1  0
  4  5  2  0
  6  7  2  0
  9 10  1  0
  9  6  1  0
 10 11  1  6
 12 11  1  0
 12 13  1  0
 13 14  2  0
 15 16  2  0
 15 10  1  0
 17 13  1  0
 18 19  1  0
 20 21  1  0
 20 19  1  0
 22 21  1  1
 22 23  1  0
 22 24  1  0
 23 15  1  0
 24 25  1  0
 26 24  2  0
M  END
$$$$
