DEM.pdb
     RDKit          3D

 26 25  0  0  1  0  0  0  0  0999 V2000
   20.4845  -10.6411  -20.1512 N   0  0  0  0  0  0  0  0  0  0  0  0
   21.2574  -10.8065  -18.9278 C   0  0  1  0  0  0  0  0  0  0  0  0
   22.4355  -11.7039  -19.2938 C   0  0  0  0  0  0  0  0  0  0  0  0
   21.9766  -13.1098  -19.1601 C   0  0  0  0  0  0  0  0  0  0  0  0
   22.6086  -14.0723  -19.6608 O   0  0  0  0  0  0  0  0  0  0  0  0
   21.7236   -9.4839  -18.4240 C   0  0  0  0  0  0  0  0  0  0  0  0
   22.5795   -9.4593  -17.5056 O   0  0  0  0  0  0  0  0  0  0  0  0
   20.8173  -13.3569  -18.4614 O   0  0  0  0  0  0  0  0  0  0  0  0
   21.2083   -8.2815  -18.9736 N   0  0  0  0  0  0  0  0  0  0  0  0
   21.6115   -6.9504  -18.4374 C   0  0  1  0  0  0  0  0  0  0  0  0
   20.9729   -5.8984  -19.2806 C   0  0  0  0  0  0  0  0  0  0  0  0
   21.1432   -4.4856  -18.8527 C   0  0  0  0  0  0  0  0  0  0  0  0
   22.3553   -3.8122  -19.3523 C   0  0  0  0  0  0  0  0  0  0  0  0
   22.8223   -2.8491  -18.7131 O   0  0  0  0  0  0  0  0  0  0  0  0
   21.1719   -6.9406  -17.0190 C   0  0  0  0  0  0  0  0  0  0  0  0
   20.0274   -7.4280  -16.6874 O   0  0  0  0  0  0  0  0  0  0  0  0
   22.9563   -4.2442  -20.5064 O   0  0  0  0  0  0  0  0  0  0  0  0
   22.0190   -9.3315   -9.9697 C   0  0  0  0  0  0  0  0  0  0  0  0
   22.5052   -9.2466  -11.7152 S   0  0  0  0  0  0  0  0  0  0  0  0
   21.6977   -7.7596  -12.4188 C   0  0  0  0  0  0  0  0  0  0  0  0
   22.1080   -7.6911  -13.8595 C   0  0  0  0  0  0  0  0  0  0  0  0
   21.4294   -6.5607  -14.5484 C   0  0  2  0  0  0  0  0  0  0  0  0
   21.9157   -6.4293  -15.9311 N   0  0  0  0  0  0  0  0  0  0  0  0
   21.7211   -5.2873  -13.8604 C   0  0  0  0  0  0  0  0  0  0  0  0
   21.1406   -4.9940  -12.6223 O   0  0  0  0  0  0  0  0  0  0  0  0
   22.4860   -4.4002  -14.3187 O   0  0  0  0  0  0  0  0  0  0  0  0
  2  6  1  0
  2  3  1  0
  2  1  1  6
  3  4  1  0
  4  8  1  0
  4  5  2  0
  6  7  2  0
  9 10  1  0
  9  6  1  0
 10 11  1  6
 12 11  1  0
 12 13  1  0
 13 14  2  0
 15 16  2  0
 15 10  1  0
 17 13  1  0
 18 19  1  0
 20 21  1  0
 20 19  1  0
 22 21  1  1
 22 23  1  0
 22 24  1  0
 23 15  1  0
 24 25  1  0
 26 24  2  0
M  END
$$$$
