DEM.pdb
     RDKit          3D

 26 25  0  0  1  0  0  0  0  0999 V2000
   21.6585  -22.8759  -15.0684 N   0  0  0  0  0  0  0  0  0  0  0  0
   20.2768  -22.9570  -14.6148 C   0  0  1  0  0  0  0  0  0  0  0  0
   19.4299  -22.3762  -15.7429 C   0  0  0  0  0  0  0  0  0  0  0  0
   19.6582  -20.9090  -15.7547 C   0  0  0  0  0  0  0  0  0  0  0  0
   20.6383  -20.3871  -16.3409 O   0  0  0  0  0  0  0  0  0  0  0  0
   19.9033  -24.3720  -14.3343 C   0  0  0  0  0  0  0  0  0  0  0  0
   18.7009  -24.6381  -14.0894 O   0  0  0  0  0  0  0  0  0  0  0  0
   18.7591  -20.1007  -15.0976 O   0  0  0  0  0  0  0  0  0  0  0  0
   20.8889  -25.3927  -14.3451 N   0  0  0  0  0  0  0  0  0  0  0  0
   20.5226  -26.8243  -14.1500 C   0  0  1  0  0  0  0  0  0  0  0  0
   21.5159  -27.6610  -14.8841 C   0  0  0  0  0  0  0  0  0  0  0  0
   21.5898  -27.4945  -16.3588 C   0  0  0  0  0  0  0  0  0  0  0  0
   22.7126  -28.1829  -17.0204 C   0  0  0  0  0  0  0  0  0  0  0  0
   23.5855  -28.7326  -16.3203 O   0  0  0  0  0  0  0  0  0  0  0  0
   20.5165  -27.0392  -12.6807 C   0  0  0  0  0  0  0  0  0  0  0  0
   21.6220  -27.0748  -12.0221 O   0  0  0  0  0  0  0  0  0  0  0  0
   22.7904  -28.2140  -18.3889 O   0  0  0  0  0  0  0  0  0  0  0  0
   17.6937  -24.9524   -5.9975 C   0  0  0  0  0  0  0  0  0  0  0  0
   18.5351  -24.7041   -7.5852 S   0  0  0  0  0  0  0  0  0  0  0  0
   18.5373  -26.3235   -8.4430 C   0  0  0  0  0  0  0  0  0  0  0  0
   19.3413  -26.1432   -9.6958 C   0  0  0  0  0  0  0  0  0  0  0  0
   19.4731  -27.4311  -10.4285 C   0  0  2  0  0  0  0  0  0  0  0  0
   19.3648  -27.2150  -11.8801 N   0  0  0  0  0  0  0  0  0  0  0  0
   18.3896  -28.3571  -10.0431 C   0  0  0  0  0  0  0  0  0  0  0  0
   17.1869  -28.3870  -10.7562 O   0  0  0  0  0  0  0  0  0  0  0  0
   18.4622  -29.1609   -9.0784 O   0  0  0  0  0  0  0  0  0  0  0  0
  2  6  1  0
  2  3  1  0
  2  1  1  6
  3  4  1  0
  4  8  1  0
  4  5  2  0
  6  7  2  0
  9 10  1  0
  9  6  1  0
 10 11  1  6
 12 11  1  0
 12 13  1  0
 13 14  2  0
 15 16  2  0
 15 10  1  0
 17 13  1  0
 18 19  1  0
 20 21  1  0
 20 19  1  0
 22 21  1  1
 22 23  1  0
 22 24  1  0
 23 15  1  0
 24 25  1  0
 26 24  2  0
M  END
$$$$
