QLV.pdb
     RDKit          3D

 25 24  0  0  1  0  0  0  0  0999 V2000
    8.3099  -12.0305   18.8559 N   0  0  0  0  0  0  0  0  0  0  0  0
    8.3161  -13.2929   18.1820 C   0  0  0  0  0  0  0  0  0  0  0  0
    8.1394  -13.2809   16.9449 O   0  0  0  0  0  0  0  0  0  0  0  0
    8.5257  -14.5447   18.9506 C   0  0  0  0  0  0  0  0  0  0  0  0
    8.6257  -14.3190   20.4373 C   0  0  0  0  0  0  0  0  0  0  0  0
    8.2159  -15.4958   21.2601 C   0  0  2  0  0  0  0  0  0  0  0  0
    6.7525  -15.5607   21.1933 N   0  0  0  0  0  0  0  0  0  0  0  0
    8.6194  -15.3179   22.7063 C   0  0  0  0  0  0  0  0  0  0  0  0
    9.8523  -15.3096   22.9536 O   0  0  0  0  0  0  0  0  0  0  0  0
    5.7462  -12.0751   26.0166 C   0  0  0  0  0  0  0  0  0  0  0  0
    6.8891  -12.9070   25.4455 C   0  0  1  0  0  0  0  0  0  0  0  0
    8.1569  -12.3094   26.0829 C   0  0  0  0  0  0  0  0  0  0  0  0
    6.8252  -14.3279   25.9015 C   0  0  0  0  0  0  0  0  0  0  0  0
    7.8659  -15.1402   25.1407 C   0  0  2  0  0  0  0  0  0  0  0  0
    7.6546  -15.1697   23.7178 N   0  0  0  0  0  0  0  0  0  0  0  0
    8.1535  -16.4486   25.7482 C   0  0  0  0  0  0  0  0  0  0  0  0
    7.1962  -17.2557   25.8857 O   0  0  0  0  0  0  0  0  0  0  0  0
   10.0978  -19.2174   24.5754 C   0  0  0  0  0  0  0  0  0  0  0  0
   10.6642  -18.9358   25.9512 C   0  0  1  0  0  0  0  0  0  0  0  0
   11.9900  -18.2456   25.7592 C   0  0  0  0  0  0  0  0  0  0  0  0
    9.7405  -18.1105   26.7877 C   0  0  2  0  0  0  0  0  0  0  0  0
    9.4255  -16.8331   26.1749 N   0  0  0  0  0  0  0  0  0  0  0  0
   10.3492  -17.9193   28.1306 C   0  0  0  0  0  0  0  0  0  0  0  0
   10.4486  -18.9212   28.8768 O   0  0  0  0  0  0  0  0  0  0  0  0
   10.8013  -16.6789   28.5676 O   0  0  0  0  0  0  0  0  0  0  0  0
  2  1  1  0
  3  2  2  0
  4  2  1  0
  5  4  1  0
  6  5  1  0
  6  7  1  1
  8  6  1  0
  9  8  2  0
 11 10  1  1
 11 13  1  0
 11 12  1  0
 14 13  1  1
 14 15  1  0
 15  8  1  0
 16 17  2  0
 16 14  1  0
 19 21  1  0
 19 18  1  6
 20 19  1  0
 21 22  1  6
 22 16  1  0
 23 21  1  0
 24 23  2  0
 25 23  1  0
M  END
$$$$
