QLV.pdb
     RDKit          3D

 25 24  0  0  1  0  0  0  0  0999 V2000
    9.0611  -16.7271   17.5460 N   0  0  0  0  0  0  0  0  0  0  0  0
    8.0940  -17.6592   18.0398 C   0  0  0  0  0  0  0  0  0  0  0  0
    7.3204  -18.1758   17.2052 O   0  0  0  0  0  0  0  0  0  0  0  0
    8.0392  -17.9759   19.4884 C   0  0  0  0  0  0  0  0  0  0  0  0
    9.0508  -17.2108   20.3022 C   0  0  0  0  0  0  0  0  0  0  0  0
    8.9792  -17.4788   21.7695 C   0  0  2  0  0  0  0  0  0  0  0  0
    7.6253  -17.9749   22.0360 N   0  0  0  0  0  0  0  0  0  0  0  0
    9.1877  -16.2113   22.5668 C   0  0  0  0  0  0  0  0  0  0  0  0
   10.2796  -15.6103   22.4002 O   0  0  0  0  0  0  0  0  0  0  0  0
    7.4710  -11.7215   24.9322 C   0  0  0  0  0  0  0  0  0  0  0  0
    7.1440  -12.9605   25.7583 C   0  0  1  0  0  0  0  0  0  0  0  0
    5.7761  -12.6504   26.3935 C   0  0  0  0  0  0  0  0  0  0  0  0
    6.9393  -14.1646   24.8986 C   0  0  0  0  0  0  0  0  0  0  0  0
    8.2857  -14.6117   24.3426 C   0  0  2  0  0  0  0  0  0  0  0  0
    8.2018  -15.7363   23.4490 N   0  0  0  0  0  0  0  0  0  0  0  0
    9.3416  -14.7120   25.3618 C   0  0  0  0  0  0  0  0  0  0  0  0
   10.1998  -13.7913   25.4113 O   0  0  0  0  0  0  0  0  0  0  0  0
   10.7157  -14.8677   29.7258 C   0  0  0  0  0  0  0  0  0  0  0  0
    9.8383  -14.8248   28.4925 C   0  0  1  0  0  0  0  0  0  0  0  0
    9.8476  -13.4067   27.9829 C   0  0  0  0  0  0  0  0  0  0  0  0
   10.2931  -15.7818   27.4382 C   0  0  2  0  0  0  0  0  0  0  0  0
    9.4353  -15.7698   26.2675 N   0  0  0  0  0  0  0  0  0  0  0  0
   10.3690  -17.1451   28.0266 C   0  0  0  0  0  0  0  0  0  0  0  0
    9.5238  -17.9919   27.6537 O   0  0  0  0  0  0  0  0  0  0  0  0
   11.3371  -17.4939   28.9619 O   0  0  0  0  0  0  0  0  0  0  0  0
  2  1  1  0
  3  2  2  0
  4  2  1  0
  5  4  1  0
  6  5  1  0
  6  7  1  6
  8  6  1  0
  9  8  2  0
 11 10  1  6
 11 13  1  0
 11 12  1  0
 14 13  1  1
 14 15  1  0
 15  8  1  0
 16 17  2  0
 16 14  1  0
 19 21  1  0
 19 18  1  1
 20 19  1  0
 21 22  1  6
 22 16  1  0
 23 21  1  0
 24 23  2  0
 25 23  1  0
M  END
$$$$
