QLV.pdb
     RDKit          3D

 25 24  0  0  1  0  0  0  0  0999 V2000
    9.4092  -18.4281   18.9625 N   0  0  0  0  0  0  0  0  0  0  0  0
    8.5816  -17.6351   18.1058 C   0  0  0  0  0  0  0  0  0  0  0  0
    8.1519  -18.1770   17.0649 O   0  0  0  0  0  0  0  0  0  0  0  0
    8.2670  -16.2310   18.4680 C   0  0  0  0  0  0  0  0  0  0  0  0
    8.9517  -15.7758   19.7309 C   0  0  0  0  0  0  0  0  0  0  0  0
    8.4369  -16.4289   20.9713 C   0  0  2  0  0  0  0  0  0  0  0  0
    6.9736  -16.3853   20.8875 N   0  0  0  0  0  0  0  0  0  0  0  0
    8.8661  -15.6699   22.2064 C   0  0  0  0  0  0  0  0  0  0  0  0
   10.0979  -15.4544   22.3393 O   0  0  0  0  0  0  0  0  0  0  0  0
    8.4070  -12.1260   26.2599 C   0  0  0  0  0  0  0  0  0  0  0  0
    7.4407  -13.3020   26.3485 C   0  0  1  0  0  0  0  0  0  0  0  0
    6.1600  -12.7035   26.9588 C   0  0  0  0  0  0  0  0  0  0  0  0
    7.0583  -13.8112   24.9975 C   0  0  0  0  0  0  0  0  0  0  0  0
    8.1784  -14.6971   24.4661 C   0  0  2  0  0  0  0  0  0  0  0  0
    7.9255  -15.2308   23.1541 N   0  0  0  0  0  0  0  0  0  0  0  0
    8.6710  -15.6777   25.4457 C   0  0  0  0  0  0  0  0  0  0  0  0
    7.8274  -16.4370   25.9921 O   0  0  0  0  0  0  0  0  0  0  0  0
   12.6544  -18.4326   26.5321 C   0  0  0  0  0  0  0  0  0  0  0  0
   12.0176  -17.2154   25.8951 C   0  0  1  0  0  0  0  0  0  0  0  0
   12.0720  -17.4090   24.4016 C   0  0  0  0  0  0  0  0  0  0  0  0
   10.6144  -16.9986   26.3620 C   0  0  2  0  0  0  0  0  0  0  0  0
   10.0166  -15.8043   25.7940 N   0  0  0  0  0  0  0  0  0  0  0  0
   10.6051  -16.9416   27.8476 C   0  0  0  0  0  0  0  0  0  0  0  0
   10.5986  -15.8122   28.3905 O   0  0  0  0  0  0  0  0  0  0  0  0
   10.6037  -18.0902   28.6316 O   0  0  0  0  0  0  0  0  0  0  0  0
  2  1  1  0
  3  2  2  0
  4  2  1  0
  5  4  1  0
  6  5  1  0
  6  7  1  6
  8  6  1  0
  9  8  2  0
 11 10  1  6
 11 13  1  0
 11 12  1  0
 14 13  1  1
 14 15  1  0
 15  8  1  0
 16 17  2  0
 16 14  1  0
 19 21  1  0
 19 18  1  1
 20 19  1  0
 21 22  1  6
 22 16  1  0
 23 21  1  0
 24 23  2  0
 25 23  1  0
M  END
$$$$
