QLV.pdb
     RDKit          3D

 25 24  0  0  1  0  0  0  0  0999 V2000
   12.5510  -19.0672   19.7583 N   0  0  0  0  0  0  0  0  0  0  0  0
   11.3010  -19.7625   19.8000 C   0  0  0  0  0  0  0  0  0  0  0  0
   11.2388  -20.8620   19.2092 O   0  0  0  0  0  0  0  0  0  0  0  0
   10.1468  -19.1736   20.5229 C   0  0  0  0  0  0  0  0  0  0  0  0
   10.4731  -17.8662   21.1977 C   0  0  0  0  0  0  0  0  0  0  0  0
    9.3353  -16.8997   21.2337 C   0  0  2  0  0  0  0  0  0  0  0  0
    9.4393  -16.0894   20.0160 N   0  0  0  0  0  0  0  0  0  0  0  0
    9.4386  -15.9792   22.4287 C   0  0  0  0  0  0  0  0  0  0  0  0
   10.5423  -15.4036   22.6067 O   0  0  0  0  0  0  0  0  0  0  0  0
    7.5421  -12.1620   25.4798 C   0  0  0  0  0  0  0  0  0  0  0  0
    7.0251  -13.5090   25.9726 C   0  0  1  0  0  0  0  0  0  0  0  0
    5.5858  -13.2225   26.4385 C   0  0  0  0  0  0  0  0  0  0  0  0
    6.9124  -14.5018   24.8624 C   0  0  0  0  0  0  0  0  0  0  0  0
    8.3060  -14.9982   24.4976 C   0  0  2  0  0  0  0  0  0  0  0  0
    8.3472  -15.7833   23.2926 N   0  0  0  0  0  0  0  0  0  0  0  0
    9.0443  -15.5727   25.6328 C   0  0  0  0  0  0  0  0  0  0  0  0
    9.2656  -16.8127   25.6227 O   0  0  0  0  0  0  0  0  0  0  0  0
   11.0819  -14.9223   30.1600 C   0  0  0  0  0  0  0  0  0  0  0  0
   10.2332  -14.4108   29.0150 C   0  0  1  0  0  0  0  0  0  0  0  0
   10.7799  -13.0641   28.6166 C   0  0  0  0  0  0  0  0  0  0  0  0
   10.2169  -15.3531   27.8550 C   0  0  2  0  0  0  0  0  0  0  0  0
    9.5063  -14.8146   26.7098 N   0  0  0  0  0  0  0  0  0  0  0  0
    9.6201  -16.6430   28.2914 C   0  0  0  0  0  0  0  0  0  0  0  0
    8.3706  -16.7204   28.3493 O   0  0  0  0  0  0  0  0  0  0  0  0
   10.4015  -17.7424   28.6298 O   0  0  0  0  0  0  0  0  0  0  0  0
  2  1  1  0
  3  2  2  0
  4  2  1  0
  5  4  1  0
  6  5  1  0
  6  7  1  6
  8  6  1  0
  9  8  2  0
 11 10  1  6
 11 13  1  0
 11 12  1  0
 14 13  1  1
 14 15  1  0
 15  8  1  0
 16 17  2  0
 16 14  1  0
 19 21  1  0
 19 18  1  1
 20 19  1  0
 21 22  1  6
 22 16  1  0
 23 21  1  0
 24 23  2  0
 25 23  1  0
M  END
$$$$
