QLV.pdb
     RDKit          3D

 25 24  0  0  1  0  0  0  0  0999 V2000
    7.8483  -21.0169   20.8125 N   0  0  0  0  0  0  0  0  0  0  0  0
    7.8780  -19.7257   20.1963 C   0  0  0  0  0  0  0  0  0  0  0  0
    8.1307  -19.6821   18.9732 O   0  0  0  0  0  0  0  0  0  0  0  0
    7.6158  -18.5099   21.0054 C   0  0  0  0  0  0  0  0  0  0  0  0
    8.8149  -17.6047   21.1229 C   0  0  0  0  0  0  0  0  0  0  0  0
    8.4928  -16.1509   21.0112 C   0  0  2  0  0  0  0  0  0  0  0  0
    9.2884  -15.6334   19.8934 N   0  0  0  0  0  0  0  0  0  0  0  0
    8.8914  -15.4055   22.2648 C   0  0  0  0  0  0  0  0  0  0  0  0
   10.1196  -15.1926   22.4310 O   0  0  0  0  0  0  0  0  0  0  0  0
    6.5070  -11.4025   26.3517 C   0  0  0  0  0  0  0  0  0  0  0  0
    7.5054  -12.4959   25.9876 C   0  0  1  0  0  0  0  0  0  0  0  0
    7.4166  -13.5017   27.1500 C   0  0  0  0  0  0  0  0  0  0  0  0
    7.0919  -13.2411   24.7610 C   0  0  0  0  0  0  0  0  0  0  0  0
    8.1471  -14.2926   24.4403 C   0  0  2  0  0  0  0  0  0  0  0  0
    7.9275  -14.9758   23.1932 N   0  0  0  0  0  0  0  0  0  0  0  0
    8.4699  -15.1706   25.5754 C   0  0  0  0  0  0  0  0  0  0  0  0
    7.5266  -15.8136   26.1078 O   0  0  0  0  0  0  0  0  0  0  0  0
   12.1066  -18.0524   27.2914 C   0  0  0  0  0  0  0  0  0  0  0  0
   11.6139  -16.8787   26.4714 C   0  0  1  0  0  0  0  0  0  0  0  0
   11.7046  -17.2743   25.0201 C   0  0  0  0  0  0  0  0  0  0  0  0
   10.2218  -16.4753   26.8364 C   0  0  2  0  0  0  0  0  0  0  0  0
    9.7605  -15.3228   26.0845 N   0  0  0  0  0  0  0  0  0  0  0  0
   10.1650  -16.2124   28.2986 C   0  0  0  0  0  0  0  0  0  0  0  0
   10.2228  -15.0208   28.6823 O   0  0  0  0  0  0  0  0  0  0  0  0
   10.0515  -17.2384   29.2305 O   0  0  0  0  0  0  0  0  0  0  0  0
  2  1  1  0
  3  2  2  0
  4  2  1  0
  5  4  1  0
  6  5  1  0
  6  7  1  6
  8  6  1  0
  9  8  2  0
 11 10  1  1
 11 13  1  0
 11 12  1  0
 14 13  1  1
 14 15  1  0
 15  8  1  0
 16 17  2  0
 16 14  1  0
 19 21  1  0
 19 18  1  1
 20 19  1  0
 21 22  1  6
 22 16  1  0
 23 21  1  0
 24 23  2  0
 25 23  1  0
M  END
$$$$
