QLV.pdb
     RDKit          3D

 25 24  0  0  1  0  0  0  0  0999 V2000
    6.7507  -21.0968   26.3111 N   0  0  0  0  0  0  0  0  0  0  0  0
    7.3741  -21.6308   25.1389 C   0  0  0  0  0  0  0  0  0  0  0  0
    7.4195  -22.8751   25.0324 O   0  0  0  0  0  0  0  0  0  0  0  0
    7.9335  -20.7166   24.1127 C   0  0  0  0  0  0  0  0  0  0  0  0
    7.7185  -19.2601   24.4344 C   0  0  0  0  0  0  0  0  0  0  0  0
    7.2876  -18.4362   23.2658 C   0  0  2  0  0  0  0  0  0  0  0  0
    7.8836  -19.0557   22.0779 N   0  0  0  0  0  0  0  0  0  0  0  0
    7.8058  -17.0202   23.3755 C   0  0  0  0  0  0  0  0  0  0  0  0
    8.9289  -16.7864   22.8604 O   0  0  0  0  0  0  0  0  0  0  0  0
    7.4223  -11.8364   24.7660 C   0  0  0  0  0  0  0  0  0  0  0  0
    7.0666  -12.7720   25.9160 C   0  0  1  0  0  0  0  0  0  0  0  0
    5.9374  -12.0452   26.6692 C   0  0  0  0  0  0  0  0  0  0  0  0
    6.4807  -14.0563   25.4280 C   0  0  0  0  0  0  0  0  0  0  0  0
    7.5519  -14.8355   24.6748 C   0  0  2  0  0  0  0  0  0  0  0  0
    7.0600  -16.0207   24.0240 N   0  0  0  0  0  0  0  0  0  0  0  0
    8.7937  -15.0233   25.4404 C   0  0  0  0  0  0  0  0  0  0  0  0
    9.8624  -14.5761   24.9458 O   0  0  0  0  0  0  0  0  0  0  0  0
   11.0951  -14.9541   29.6468 C   0  0  0  0  0  0  0  0  0  0  0  0
    9.9213  -14.8057   28.7018 C   0  0  1  0  0  0  0  0  0  0  0  0
    9.8803  -13.3662   28.2579 C   0  0  0  0  0  0  0  0  0  0  0  0
   10.0139  -15.7306   27.5314 C   0  0  2  0  0  0  0  0  0  0  0  0
    8.8420  -15.6677   26.6775 N   0  0  0  0  0  0  0  0  0  0  0  0
   10.2349  -17.1144   28.0282 C   0  0  0  0  0  0  0  0  0  0  0  0
   11.2993  -17.3522   28.6454 O   0  0  0  0  0  0  0  0  0  0  0  0
    9.3058  -18.1294   27.8272 O   0  0  0  0  0  0  0  0  0  0  0  0
  2  1  1  0
  3  2  2  0
  4  2  1  0
  5  4  1  0
  6  5  1  0
  6  7  1  6
  8  6  1  0
  9  8  2  0
 11 10  1  6
 11 13  1  0
 11 12  1  0
 14 13  1  1
 14 15  1  0
 15  8  1  0
 16 17  2  0
 16 14  1  0
 19 21  1  0
 19 18  1  1
 20 19  1  0
 21 22  1  1
 22 16  1  0
 23 21  1  0
 24 23  2  0
 25 23  1  0
M  END
$$$$
