QLV.pdb
     RDKit          3D

 25 24  0  0  1  0  0  0  0  0999 V2000
   10.7350  -17.3740   18.0310 N   0  0  0  0  0  0  0  0  0  0  0  0
   11.5771  -16.9724   19.1161 C   0  0  0  0  0  0  0  0  0  0  0  0
   12.8102  -17.1037   18.9611 O   0  0  0  0  0  0  0  0  0  0  0  0
   10.9781  -16.4275   20.3594 C   0  0  0  0  0  0  0  0  0  0  0  0
    9.4712  -16.4252   20.3411 C   0  0  0  0  0  0  0  0  0  0  0  0
    8.8470  -16.9800   21.5791 C   0  0  2  0  0  0  0  0  0  0  0  0
    7.3964  -16.9346   21.3697 N   0  0  0  0  0  0  0  0  0  0  0  0
    9.1808  -16.1323   22.7857 C   0  0  0  0  0  0  0  0  0  0  0  0
   10.3933  -16.0638   23.1120 O   0  0  0  0  0  0  0  0  0  0  0  0
    8.3675  -11.8735   26.0800 C   0  0  0  0  0  0  0  0  0  0  0  0
    7.4266  -13.0535   26.2967 C   0  0  1  0  0  0  0  0  0  0  0  0
    6.0925  -12.4105   26.7179 C   0  0  0  0  0  0  0  0  0  0  0  0
    7.1511  -13.7865   25.0249 C   0  0  0  0  0  0  0  0  0  0  0  0
    8.3089  -14.7349   24.7382 C   0  0  2  0  0  0  0  0  0  0  0  0
    8.1765  -15.4576   23.5012 N   0  0  0  0  0  0  0  0  0  0  0  0
    8.6984  -15.5575   25.8938 C   0  0  0  0  0  0  0  0  0  0  0  0
    7.8569  -16.3832   26.3376 O   0  0  0  0  0  0  0  0  0  0  0  0
   12.4196  -17.8976   28.0564 C   0  0  0  0  0  0  0  0  0  0  0  0
   11.8477  -16.9112   27.0600 C   0  0  1  0  0  0  0  0  0  0  0  0
   11.8376  -17.5871   25.7131 C   0  0  0  0  0  0  0  0  0  0  0  0
   10.4797  -16.4461   27.4425 C   0  0  2  0  0  0  0  0  0  0  0  0
    9.9449  -15.4663   26.5149 N   0  0  0  0  0  0  0  0  0  0  0  0
   10.5266  -15.8987   28.8240 C   0  0  0  0  0  0  0  0  0  0  0  0
   10.6016  -14.6551   28.9592 O   0  0  0  0  0  0  0  0  0  0  0  0
   10.4898  -16.7193   29.9461 O   0  0  0  0  0  0  0  0  0  0  0  0
  2  1  1  0
  3  2  2  0
  4  2  1  0
  5  4  1  0
  6  5  1  0
  6  7  1  6
  8  6  1  0
  9  8  2  0
 11 10  1  6
 11 13  1  0
 11 12  1  0
 14 13  1  1
 14 15  1  0
 15  8  1  0
 16 17  2  0
 16 14  1  0
 19 21  1  0
 19 18  1  1
 20 19  1  0
 21 22  1  6
 22 16  1  0
 23 21  1  0
 24 23  2  0
 25 23  1  0
M  END
$$$$
