QLV.pdb
     RDKit          3D

 25 24  0  0  1  0  0  0  0  0999 V2000
   10.4002  -17.2059   17.4616 N   0  0  0  0  0  0  0  0  0  0  0  0
    9.0597  -17.2441   17.9609 C   0  0  0  0  0  0  0  0  0  0  0  0
    8.5502  -18.3703   18.1446 O   0  0  0  0  0  0  0  0  0  0  0  0
    8.3335  -15.9800   18.2378 C   0  0  0  0  0  0  0  0  0  0  0  0
    8.7045  -15.3595   19.5601 C   0  0  0  0  0  0  0  0  0  0  0  0
    8.2042  -16.1139   20.7477 C   0  0  2  0  0  0  0  0  0  0  0  0
    6.7403  -16.0455   20.6975 N   0  0  0  0  0  0  0  0  0  0  0  0
    8.6671  -15.4728   22.0364 C   0  0  0  0  0  0  0  0  0  0  0  0
    9.9093  -15.3874   22.2123 O   0  0  0  0  0  0  0  0  0  0  0  0
    8.4677  -11.9880   26.1440 C   0  0  0  0  0  0  0  0  0  0  0  0
    7.3820  -13.0574   26.1884 C   0  0  1  0  0  0  0  0  0  0  0  0
    6.1538  -12.3361   26.7733 C   0  0  0  0  0  0  0  0  0  0  0  0
    6.9870  -13.5068   24.8199 C   0  0  0  0  0  0  0  0  0  0  0  0
    8.0162  -14.5084   24.3105 C   0  0  2  0  0  0  0  0  0  0  0  0
    7.7449  -14.9984   22.9852 N   0  0  0  0  0  0  0  0  0  0  0  0
    8.3655  -15.5470   25.2919 C   0  0  0  0  0  0  0  0  0  0  0  0
    7.4435  -16.2999   25.7041 O   0  0  0  0  0  0  0  0  0  0  0  0
   12.0776  -18.5755   26.4730 C   0  0  0  0  0  0  0  0  0  0  0  0
   11.5038  -17.3474   25.7981 C   0  0  1  0  0  0  0  0  0  0  0  0
   11.4390  -17.6353   24.3203 C   0  0  0  0  0  0  0  0  0  0  0  0
   10.1594  -16.9789   26.3373 C   0  0  2  0  0  0  0  0  0  0  0  0
    9.6586  -15.7348   25.7824 N   0  0  0  0  0  0  0  0  0  0  0  0
   10.2397  -16.9045   27.8200 C   0  0  0  0  0  0  0  0  0  0  0  0
   10.4081  -15.7775   28.3417 O   0  0  0  0  0  0  0  0  0  0  0  0
   10.1343  -18.0343   28.6238 O   0  0  0  0  0  0  0  0  0  0  0  0
  2  1  1  0
  3  2  2  0
  4  2  1  0
  5  4  1  0
  6  5  1  0
  6  7  1  1
  8  6  1  0
  9  8  2  0
 11 10  1  6
 11 13  1  0
 11 12  1  0
 14 13  1  1
 14 15  1  0
 15  8  1  0
 16 17  2  0
 16 14  1  0
 19 21  1  0
 19 18  1  1
 20 19  1  0
 21 22  1  6
 22 16  1  0
 23 21  1  0
 24 23  2  0
 25 23  1  0
M  END
$$$$
