QLV.pdb
     RDKit          3D

 25 24  0  0  1  0  0  0  0  0999 V2000
   11.3237  -16.7529   14.1862 N   0  0  0  0  0  0  0  0  0  0  0  0
   10.5710  -15.7563   14.8848 C   0  0  0  0  0  0  0  0  0  0  0  0
    9.9019  -14.9576   14.1948 O   0  0  0  0  0  0  0  0  0  0  0  0
   10.6066  -15.7015   16.3672 C   0  0  0  0  0  0  0  0  0  0  0  0
   11.5109  -16.7406   16.9783 C   0  0  0  0  0  0  0  0  0  0  0  0
   10.9734  -17.3551   18.2287 C   0  0  2  0  0  0  0  0  0  0  0  0
    9.6161  -17.8140   17.9163 N   0  0  0  0  0  0  0  0  0  0  0  0
   10.8875  -16.3378   19.3438 C   0  0  0  0  0  0  0  0  0  0  0  0
   11.9699  -15.8269   19.7292 O   0  0  0  0  0  0  0  0  0  0  0  0
    6.5248  -13.0232   19.4683 C   0  0  0  0  0  0  0  0  0  0  0  0
    7.8895  -13.6882   19.6089 C   0  0  1  0  0  0  0  0  0  0  0  0
    8.8878  -12.5164   19.6428 C   0  0  0  0  0  0  0  0  0  0  0  0
    8.0328  -14.3938   20.9175 C   0  0  0  0  0  0  0  0  0  0  0  0
    9.4065  -15.0503   20.9792 C   0  0  2  0  0  0  0  0  0  0  0  0
    9.6520  -15.9871   19.9151 N   0  0  0  0  0  0  0  0  0  0  0  0
    9.7712  -15.5318   22.3204 C   0  0  0  0  0  0  0  0  0  0  0  0
    9.4771  -14.8044   23.3059 O   0  0  0  0  0  0  0  0  0  0  0  0
   11.2362  -19.3727   25.1656 C   0  0  0  0  0  0  0  0  0  0  0  0
   11.0151  -18.7712   23.7937 C   0  0  1  0  0  0  0  0  0  0  0  0
    9.9269  -19.5691   23.1228 C   0  0  0  0  0  0  0  0  0  0  0  0
   10.6604  -17.3208   23.8599 C   0  0  2  0  0  0  0  0  0  0  0  0
   10.4215  -16.7453   22.5491 N   0  0  0  0  0  0  0  0  0  0  0  0
   11.7448  -16.5923   24.5697 C   0  0  0  0  0  0  0  0  0  0  0  0
   12.6522  -16.0737   23.8782 O   0  0  0  0  0  0  0  0  0  0  0  0
   11.7738  -16.4763   25.9552 O   0  0  0  0  0  0  0  0  0  0  0  0
  2  1  1  0
  3  2  2  0
  4  2  1  0
  5  4  1  0
  6  5  1  0
  6  7  1  6
  8  6  1  0
  9  8  2  0
 11 10  1  1
 11 13  1  0
 11 12  1  0
 14 13  1  1
 14 15  1  0
 15  8  1  0
 16 17  2  0
 16 14  1  0
 19 21  1  0
 19 18  1  1
 20 19  1  0
 21 22  1  6
 22 16  1  0
 23 21  1  0
 24 23  2  0
 25 23  1  0
M  END
$$$$
