QLV.pdb
     RDKit          3D

 25 24  0  0  1  0  0  0  0  0999 V2000
    8.5564  -12.4618   17.9835 N   0  0  0  0  0  0  0  0  0  0  0  0
    8.1872  -13.7130   17.3952 C   0  0  0  0  0  0  0  0  0  0  0  0
    7.6376  -13.6769   16.2735 O   0  0  0  0  0  0  0  0  0  0  0  0
    8.4598  -14.9817   18.1148 C   0  0  0  0  0  0  0  0  0  0  0  0
    9.0597  -14.7722   19.4813 C   0  0  0  0  0  0  0  0  0  0  0  0
    8.5033  -15.6729   20.5345 C   0  0  2  0  0  0  0  0  0  0  0  0
    7.0489  -15.6815   20.3482 N   0  0  0  0  0  0  0  0  0  0  0  0
    8.8031  -15.1444   21.9189 C   0  0  0  0  0  0  0  0  0  0  0  0
   10.0151  -15.0630   22.2440 O   0  0  0  0  0  0  0  0  0  0  0  0
    8.0938  -12.3275   26.3609 C   0  0  0  0  0  0  0  0  0  0  0  0
    6.9553  -13.3237   26.1713 C   0  0  1  0  0  0  0  0  0  0  0  0
    5.7036  -12.5782   26.6695 C   0  0  0  0  0  0  0  0  0  0  0  0
    6.7130  -13.6240   24.7284 C   0  0  0  0  0  0  0  0  0  0  0  0
    7.8663  -14.4659   24.1965 C   0  0  2  0  0  0  0  0  0  0  0  0
    7.7694  -14.7651   22.7925 N   0  0  0  0  0  0  0  0  0  0  0  0
    8.2003  -15.6164   25.0500 C   0  0  0  0  0  0  0  0  0  0  0  0
    7.2764  -16.4233   25.3365 O   0  0  0  0  0  0  0  0  0  0  0  0
   11.6846  -18.8430   26.3366 C   0  0  0  0  0  0  0  0  0  0  0  0
   11.2229  -17.5738   25.6519 C   0  0  1  0  0  0  0  0  0  0  0  0
   11.1497  -17.8608   24.1743 C   0  0  0  0  0  0  0  0  0  0  0  0
    9.9085  -17.0918   26.1754 C   0  0  2  0  0  0  0  0  0  0  0  0
    9.4810  -15.8529   25.5520 N   0  0  0  0  0  0  0  0  0  0  0  0
   10.0059  -16.9375   27.6510 C   0  0  0  0  0  0  0  0  0  0  0  0
   10.4184  -15.8424   28.0994 O   0  0  0  0  0  0  0  0  0  0  0  0
    9.6565  -17.9602   28.5261 O   0  0  0  0  0  0  0  0  0  0  0  0
  2  1  1  0
  3  2  2  0
  4  2  1  0
  5  4  1  0
  6  5  1  0
  6  7  1  6
  8  6  1  0
  9  8  2  0
 11 10  1  6
 11 13  1  0
 11 12  1  0
 14 13  1  1
 14 15  1  0
 15  8  1  0
 16 17  2  0
 16 14  1  0
 19 21  1  0
 19 18  1  1
 20 19  1  0
 21 22  1  6
 22 16  1  0
 23 21  1  0
 24 23  2  0
 25 23  1  0
M  END
$$$$
