QLV.pdb
     RDKit          3D

 25 24  0  0  1  0  0  0  0  0999 V2000
    7.4022  -18.4183   18.0880 N   0  0  0  0  0  0  0  0  0  0  0  0
    8.6839  -17.7821   18.0962 C   0  0  0  0  0  0  0  0  0  0  0  0
    8.9696  -17.0600   17.1170 O   0  0  0  0  0  0  0  0  0  0  0  0
    9.6111  -17.9930   19.2353 C   0  0  0  0  0  0  0  0  0  0  0  0
    9.5242  -16.9104   20.2800 C   0  0  0  0  0  0  0  0  0  0  0  0
    9.5535  -17.4166   21.6846 C   0  0  2  0  0  0  0  0  0  0  0  0
    8.2411  -18.0203   21.9364 N   0  0  0  0  0  0  0  0  0  0  0  0
    9.7544  -16.2861   22.6682 C   0  0  0  0  0  0  0  0  0  0  0  0
   10.8734  -15.7127   22.6513 O   0  0  0  0  0  0  0  0  0  0  0  0
    5.6364  -12.9210   25.4079 C   0  0  0  0  0  0  0  0  0  0  0  0
    6.8609  -13.4092   24.6418 C   0  0  1  0  0  0  0  0  0  0  0  0
    7.9012  -12.2887   24.8230 C   0  0  0  0  0  0  0  0  0  0  0  0
    7.4546  -14.6315   25.2618 C   0  0  0  0  0  0  0  0  0  0  0  0
    8.7980  -14.9193   24.6027 C   0  0  2  0  0  0  0  0  0  0  0  0
    8.7330  -15.9027   23.5546 N   0  0  0  0  0  0  0  0  0  0  0  0
    9.8968  -15.1122   25.5614 C   0  0  0  0  0  0  0  0  0  0  0  0
   10.8451  -14.2833   25.5428 O   0  0  0  0  0  0  0  0  0  0  0  0
   10.8500  -15.0724   30.0023 C   0  0  0  0  0  0  0  0  0  0  0  0
   10.1099  -15.0947   28.6815 C   0  0  1  0  0  0  0  0  0  0  0  0
   10.2069  -13.7129   28.0880 C   0  0  0  0  0  0  0  0  0  0  0  0
   10.6514  -16.1255   27.7443 C   0  0  2  0  0  0  0  0  0  0  0  0
    9.9366  -16.1608   26.4817 N   0  0  0  0  0  0  0  0  0  0  0  0
   10.6118  -17.4524   28.4138 C   0  0  0  0  0  0  0  0  0  0  0  0
    9.7981  -18.3022   27.9822 O   0  0  0  0  0  0  0  0  0  0  0  0
   11.4405  -17.7646   29.4860 O   0  0  0  0  0  0  0  0  0  0  0  0
  2  1  1  0
  3  2  2  0
  4  2  1  0
  5  4  1  0
  6  5  1  0
  6  7  1  1
  8  6  1  0
  9  8  2  0
 11 10  1  1
 11 13  1  0
 11 12  1  0
 14 13  1  1
 14 15  1  0
 15  8  1  0
 16 17  2  0
 16 14  1  0
 19 21  1  0
 19 18  1  1
 20 19  1  0
 21 22  1  6
 22 16  1  0
 23 21  1  0
 24 23  2  0
 25 23  1  0
M  END
$$$$
