QLV.pdb
     RDKit          3D

 25 24  0  0  1  0  0  0  0  0999 V2000
   13.0426  -17.3865   16.5112 N   0  0  0  0  0  0  0  0  0  0  0  0
   12.1593  -18.5120   16.5413 C   0  0  0  0  0  0  0  0  0  0  0  0
   12.2454  -19.3312   15.6015 O   0  0  0  0  0  0  0  0  0  0  0  0
   11.1932  -18.6688   17.6566 C   0  0  0  0  0  0  0  0  0  0  0  0
   11.2081  -17.5120   18.6222 C   0  0  0  0  0  0  0  0  0  0  0  0
   10.5396  -17.7995   19.9262 C   0  0  2  0  0  0  0  0  0  0  0  0
    9.1878  -18.2687   19.6059 N   0  0  0  0  0  0  0  0  0  0  0  0
   10.4227  -16.5485   20.7673 C   0  0  0  0  0  0  0  0  0  0  0  0
   11.4925  -16.0715   21.2248 O   0  0  0  0  0  0  0  0  0  0  0  0
    6.5728  -13.0729   19.3662 C   0  0  0  0  0  0  0  0  0  0  0  0
    7.8199  -13.7410   19.9344 C   0  0  1  0  0  0  0  0  0  0  0  0
    8.9288  -12.6844   19.7774 C   0  0  0  0  0  0  0  0  0  0  0  0
    7.6950  -13.9973   21.4005 C   0  0  0  0  0  0  0  0  0  0  0  0
    8.8880  -14.8251   21.8626 C   0  0  2  0  0  0  0  0  0  0  0  0
    9.1736  -15.9554   21.0194 N   0  0  0  0  0  0  0  0  0  0  0  0
    8.8806  -15.1180   23.3041 C   0  0  0  0  0  0  0  0  0  0  0  0
    8.7605  -14.1491   24.1000 O   0  0  0  0  0  0  0  0  0  0  0  0
    6.3807  -16.6175   25.2253 C   0  0  0  0  0  0  0  0  0  0  0  0
    7.6002  -17.4575   25.5415 C   0  0  1  0  0  0  0  0  0  0  0  0
    7.4832  -18.7356   24.7516 C   0  0  0  0  0  0  0  0  0  0  0  0
    8.8768  -16.7446   25.2317 C   0  0  2  0  0  0  0  0  0  0  0  0
    8.9994  -16.4073   23.8254 N   0  0  0  0  0  0  0  0  0  0  0  0
   10.0183  -17.5869   25.6768 C   0  0  0  0  0  0  0  0  0  0  0  0
   10.8110  -18.0087   24.8026 O   0  0  0  0  0  0  0  0  0  0  0  0
   10.2215  -17.9100   27.0140 O   0  0  0  0  0  0  0  0  0  0  0  0
  2  1  1  0
  3  2  2  0
  4  2  1  0
  5  4  1  0
  6  5  1  0
  6  7  1  6
  8  6  1  0
  9  8  2  0
 11 10  1  1
 11 13  1  0
 11 12  1  0
 14 13  1  6
 14 15  1  0
 15  8  1  0
 16 17  2  0
 16 14  1  0
 19 21  1  0
 19 18  1  6
 20 19  1  0
 21 22  1  6
 22 16  1  0
 23 21  1  0
 24 23  2  0
 25 23  1  0
M  END
$$$$
