QLV.pdb
     RDKit          3D

 25 24  0  0  1  0  0  0  0  0999 V2000
    8.0958  -12.3540   18.1719 N   0  0  0  0  0  0  0  0  0  0  0  0
    7.8763  -13.6859   17.6968 C   0  0  0  0  0  0  0  0  0  0  0  0
    7.7125  -13.8339   16.4667 O   0  0  0  0  0  0  0  0  0  0  0  0
    7.8499  -14.8209   18.6522 C   0  0  0  0  0  0  0  0  0  0  0  0
    8.1910  -14.4172   20.0635 C   0  0  0  0  0  0  0  0  0  0  0  0
    8.6093  -15.5538   20.9371 C   0  0  2  0  0  0  0  0  0  0  0  0
    7.4289  -16.4081   21.1015 N   0  0  0  0  0  0  0  0  0  0  0  0
    9.0370  -15.0644   22.3022 C   0  0  0  0  0  0  0  0  0  0  0  0
   10.1158  -14.4210   22.3609 O   0  0  0  0  0  0  0  0  0  0  0  0
    5.4437  -12.6403   25.8212 C   0  0  0  0  0  0  0  0  0  0  0  0
    6.6211  -13.1407   24.9920 C   0  0  1  0  0  0  0  0  0  0  0  0
    7.7467  -12.1274   25.2698 C   0  0  0  0  0  0  0  0  0  0  0  0
    7.1222  -14.4614   25.4771 C   0  0  0  0  0  0  0  0  0  0  0  0
    8.4314  -14.7860   24.7682 C   0  0  2  0  0  0  0  0  0  0  0  0
    8.2588  -15.3218   23.4441 N   0  0  0  0  0  0  0  0  0  0  0  0
    9.3924  -15.5170   25.6082 C   0  0  0  0  0  0  0  0  0  0  0  0
   10.0370  -16.4608   25.0785 O   0  0  0  0  0  0  0  0  0  0  0  0
   11.8752  -15.7824   29.9479 C   0  0  0  0  0  0  0  0  0  0  0  0
   10.6968  -15.2602   29.1532 C   0  0  1  0  0  0  0  0  0  0  0  0
   10.8167  -13.7588   29.1048 C   0  0  0  0  0  0  0  0  0  0  0  0
   10.6360  -15.8429   27.7781 C   0  0  2  0  0  0  0  0  0  0  0  0
    9.6208  -15.2160   26.9518 N   0  0  0  0  0  0  0  0  0  0  0  0
   10.4026  -17.3073   27.8862 C   0  0  0  0  0  0  0  0  0  0  0  0
    9.2218  -17.7196   27.8075 O   0  0  0  0  0  0  0  0  0  0  0  0
   11.4440  -18.2106   28.0689 O   0  0  0  0  0  0  0  0  0  0  0  0
  2  1  1  0
  3  2  2  0
  4  2  1  0
  5  4  1  0
  6  5  1  0
  6  7  1  1
  8  6  1  0
  9  8  2  0
 11 10  1  1
 11 13  1  0
 11 12  1  0
 14 13  1  1
 14 15  1  0
 15  8  1  0
 16 17  2  0
 16 14  1  0
 19 21  1  0
 19 18  1  6
 20 19  1  0
 21 22  1  6
 22 16  1  0
 23 21  1  0
 24 23  2  0
 25 23  1  0
M  END
$$$$
