DDS.pdb
     RDKit          3D

 23 22  0  0  1  0  0  0  0  0999 V2000
   21.3388  -11.8060  -17.3076 N   0  0  0  0  0  0  0  0  0  0  0  0
   21.4197  -10.4836  -17.8955 C   0  0  1  0  0  0  0  0  0  0  0  0
   20.5720  -10.3747  -19.1264 C   0  0  0  0  0  0  0  0  0  0  0  0
   21.2958  -10.8565  -20.3037 C   0  0  0  0  0  0  0  0  0  0  0  0
   22.5495  -10.8083  -20.3211 O   0  0  0  0  0  0  0  0  0  0  0  0
   21.0554   -9.4878  -16.8599 C   0  0  0  0  0  0  0  0  0  0  0  0
   20.0457   -9.6726  -16.1154 O   0  0  0  0  0  0  0  0  0  0  0  0
   20.5581  -11.3612  -21.3841 O   0  0  0  0  0  0  0  0  0  0  0  0
   21.7891   -8.2940  -16.6360 N   0  0  0  0  0  0  0  0  0  0  0  0
   21.4842   -7.3074  -15.6279 C   0  0  1  0  0  0  0  0  0  0  0  0
   22.6907   -6.6248  -15.0758 C   0  0  0  0  0  0  0  0  0  0  0  0
   22.3286   -5.6789  -13.9957 C   0  0  0  0  0  0  0  0  0  0  0  0
   22.6234   -4.4653  -14.0773 O   0  0  0  0  0  0  0  0  0  0  0  0
   20.4475   -6.3490  -16.0940 C   0  0  0  0  0  0  0  0  0  0  0  0
   20.6625   -5.6820  -17.1338 O   0  0  0  0  0  0  0  0  0  0  0  0
   21.6517   -6.0761  -12.8477 O   0  0  0  0  0  0  0  0  0  0  0  0
   15.9992   -4.4763  -15.7578 O   0  0  0  0  0  0  0  0  0  0  0  0
   16.8901   -5.3870  -15.2096 C   0  0  0  0  0  0  0  0  0  0  0  0
   18.2422   -5.1758  -15.8612 C   0  0  2  0  0  0  0  0  0  0  0  0
   19.2195   -6.1495  -15.4177 N   0  0  0  0  0  0  0  0  0  0  0  0
   18.7332   -3.7975  -15.6884 C   0  0  0  0  0  0  0  0  0  0  0  0
   18.3925   -2.8251  -16.5962 O   0  0  0  0  0  0  0  0  0  0  0  0
   19.4591   -3.5098  -14.7182 O   0  0  0  0  0  0  0  0  0  0  0  0
  2  1  1  1
  3  2  1  0
  4  8  1  0
  4  3  1  0
  5  4  2  0
  6  2  1  0
  7  6  2  0
  9  6  1  0
 10 14  1  0
 10  9  1  0
 10 11  1  6
 12 13  2  0
 12 11  1  0
 14 20  1  0
 15 14  2  0
 16 12  1  0
 18 17  1  0
 19 18  1  1
 19 21  1  0
 20 19  1  0
 21 23  2  0
 21 22  1  0
M  END
$$$$
