DDS.pdb
     RDKit          3D

 23 22  0  0  1  0  0  0  0  0999 V2000
   17.0257  -12.2879  -15.6902 N   0  0  0  0  0  0  0  0  0  0  0  0
   16.9282  -10.8454  -15.5875 C   0  0  1  0  0  0  0  0  0  0  0  0
   16.1478  -10.4303  -14.3773 C   0  0  0  0  0  0  0  0  0  0  0  0
   14.7642  -10.9001  -14.4613 C   0  0  0  0  0  0  0  0  0  0  0  0
   14.0171  -10.4630  -15.3697 O   0  0  0  0  0  0  0  0  0  0  0  0
   18.2985  -10.2810  -15.6059 C   0  0  0  0  0  0  0  0  0  0  0  0
   19.1946  -10.7396  -14.8348 O   0  0  0  0  0  0  0  0  0  0  0  0
   14.3141  -11.8320  -13.5153 O   0  0  0  0  0  0  0  0  0  0  0  0
   18.6917   -9.2198  -16.4622 N   0  0  0  0  0  0  0  0  0  0  0  0
   20.0010   -8.6135  -16.4874 C   0  0  1  0  0  0  0  0  0  0  0  0
   20.5689   -8.4753  -17.8603 C   0  0  0  0  0  0  0  0  0  0  0  0
   20.7189   -9.7938  -18.5174 C   0  0  0  0  0  0  0  0  0  0  0  0
   21.4497  -10.6806  -18.0215 O   0  0  0  0  0  0  0  0  0  0  0  0
   20.0294   -7.3373  -15.7252 C   0  0  0  0  0  0  0  0  0  0  0  0
   19.0575   -6.5511  -15.8232 O   0  0  0  0  0  0  0  0  0  0  0  0
   20.0684  -10.1185  -19.7028 O   0  0  0  0  0  0  0  0  0  0  0  0
   21.8618   -6.7544  -12.1895 O   0  0  0  0  0  0  0  0  0  0  0  0
   22.1498   -5.7040  -13.0481 C   0  0  0  0  0  0  0  0  0  0  0  0
   21.1205   -5.7077  -14.1607 C   0  0  2  0  0  0  0  0  0  0  0  0
   21.1072   -6.9614  -14.8872 N   0  0  0  0  0  0  0  0  0  0  0  0
   21.2780   -4.5572  -15.0675 C   0  0  0  0  0  0  0  0  0  0  0  0
   20.8123   -3.3193  -14.6983 O   0  0  0  0  0  0  0  0  0  0  0  0
   21.8343   -4.7038  -16.1721 O   0  0  0  0  0  0  0  0  0  0  0  0
  2  1  1  1
  3  2  1  0
  4  8  1  0
  4  3  1  0
  5  4  2  0
  6  2  1  0
  7  6  2  0
  9  6  1  0
 10 14  1  0
 10  9  1  0
 10 11  1  6
 12 13  2  0
 12 11  1  0
 14 20  1  0
 15 14  2  0
 16 12  1  0
 18 17  1  0
 19 18  1  1
 19 21  1  0
 20 19  1  0
 21 23  2  0
 21 22  1  0
M  END
$$$$
