DDS.pdb
     RDKit          3D

 23 22  0  0  1  0  0  0  0  0999 V2000
   17.8705  -11.9934  -16.4569 N   0  0  0  0  0  0  0  0  0  0  0  0
   17.5982  -10.7127  -15.8352 C   0  0  1  0  0  0  0  0  0  0  0  0
   17.0276  -10.8780  -14.4594 C   0  0  0  0  0  0  0  0  0  0  0  0
   15.6145  -11.2539  -14.5214 C   0  0  0  0  0  0  0  0  0  0  0  0
   15.0613  -11.3968  -15.6386 O   0  0  0  0  0  0  0  0  0  0  0  0
   18.8459   -9.9128  -15.8448 C   0  0  0  0  0  0  0  0  0  0  0  0
   19.7374  -10.0992  -14.9625 O   0  0  0  0  0  0  0  0  0  0  0  0
   14.9179  -11.4440  -13.3194 O   0  0  0  0  0  0  0  0  0  0  0  0
   19.1217   -8.9127  -16.8129 N   0  0  0  0  0  0  0  0  0  0  0  0
   20.2867   -8.0610  -16.8198 C   0  0  1  0  0  0  0  0  0  0  0  0
   20.7522   -7.6966  -18.1898 C   0  0  0  0  0  0  0  0  0  0  0  0
   21.2189   -8.8875  -18.9357 C   0  0  0  0  0  0  0  0  0  0  0  0
   20.9500   -9.0331  -20.1494 O   0  0  0  0  0  0  0  0  0  0  0  0
   20.1039   -6.8743  -15.9429 C   0  0  0  0  0  0  0  0  0  0  0  0
   18.9985   -6.2824  -15.9469 O   0  0  0  0  0  0  0  0  0  0  0  0
   21.9699   -9.8963  -18.3423 O   0  0  0  0  0  0  0  0  0  0  0  0
   22.0963   -6.2240  -12.4745 O   0  0  0  0  0  0  0  0  0  0  0  0
   22.0341   -5.0607  -13.2271 C   0  0  0  0  0  0  0  0  0  0  0  0
   20.9243   -5.2171  -14.2475 C   0  0  2  0  0  0  0  0  0  0  0  0
   21.1232   -6.3744  -15.0966 N   0  0  0  0  0  0  0  0  0  0  0  0
   20.7210   -3.9918  -15.0399 C   0  0  0  0  0  0  0  0  0  0  0  0
   20.0517   -2.9227  -14.4972 O   0  0  0  0  0  0  0  0  0  0  0  0
   21.1558   -3.9218  -16.2048 O   0  0  0  0  0  0  0  0  0  0  0  0
  2  1  1  1
  3  2  1  0
  4  8  1  0
  4  3  1  0
  5  4  2  0
  6  2  1  0
  7  6  2  0
  9  6  1  0
 10 14  1  0
 10  9  1  0
 10 11  1  6
 12 13  2  0
 12 11  1  0
 14 20  1  0
 15 14  2  0
 16 12  1  0
 18 17  1  0
 19 18  1  1
 19 21  1  0
 20 19  1  0
 21 23  2  0
 21 22  1  0
M  END
$$$$
