DDS.pdb
     RDKit          3D

 23 22  0  0  1  0  0  0  0  0999 V2000
   22.7989  -11.7776  -17.6199 N   0  0  0  0  0  0  0  0  0  0  0  0
   21.7460  -11.1252  -18.3726 C   0  0  1  0  0  0  0  0  0  0  0  0
   20.5286  -11.9921  -18.4827 C   0  0  0  0  0  0  0  0  0  0  0  0
   20.8677  -13.3003  -19.0445 C   0  0  0  0  0  0  0  0  0  0  0  0
   20.6684  -14.3357  -18.3643 O   0  0  0  0  0  0  0  0  0  0  0  0
   21.4606   -9.8156  -17.7399 C   0  0  0  0  0  0  0  0  0  0  0  0
   20.5583   -9.0573  -18.2074 O   0  0  0  0  0  0  0  0  0  0  0  0
   21.4094  -13.3550  -20.3367 O   0  0  0  0  0  0  0  0  0  0  0  0
   22.1563   -9.3336  -16.6009 N   0  0  0  0  0  0  0  0  0  0  0  0
   21.9408   -8.0505  -15.9766 C   0  0  1  0  0  0  0  0  0  0  0  0
   21.8479   -8.1181  -14.4889 C   0  0  0  0  0  0  0  0  0  0  0  0
   21.5639   -6.7873  -13.9050 C   0  0  0  0  0  0  0  0  0  0  0  0
   20.4611   -6.2252  -14.0902 O   0  0  0  0  0  0  0  0  0  0  0  0
   22.9274   -7.0407  -16.4431 C   0  0  0  0  0  0  0  0  0  0  0  0
   24.1425   -7.3488  -16.4712 O   0  0  0  0  0  0  0  0  0  0  0  0
   22.4891   -6.0961  -13.1304 O   0  0  0  0  0  0  0  0  0  0  0  0
   23.8753   -2.7679  -18.5104 O   0  0  0  0  0  0  0  0  0  0  0  0
   22.8807   -3.5569  -17.9520 C   0  0  0  0  0  0  0  0  0  0  0  0
   23.5361   -4.7760  -17.3341 C   0  0  2  0  0  0  0  0  0  0  0  0
   22.5614   -5.7381  -16.8606 N   0  0  0  0  0  0  0  0  0  0  0  0
   24.4984   -4.4147  -16.2786 C   0  0  0  0  0  0  0  0  0  0  0  0
   25.8468   -4.4401  -16.5366 O   0  0  0  0  0  0  0  0  0  0  0  0
   24.0917   -4.0850  -15.1486 O   0  0  0  0  0  0  0  0  0  0  0  0
  2  1  1  1
  3  2  1  0
  4  8  1  0
  4  3  1  0
  5  4  2  0
  6  2  1  0
  7  6  2  0
  9  6  1  0
 10 14  1  0
 10  9  1  0
 10 11  1  1
 12 13  2  0
 12 11  1  0
 14 20  1  0
 15 14  2  0
 16 12  1  0
 18 17  1  0
 19 18  1  1
 19 21  1  0
 20 19  1  0
 21 23  2  0
 21 22  1  0
M  END
$$$$
