DDS.pdb
     RDKit          3D

 23 22  0  0  1  0  0  0  0  0999 V2000
   15.1664  -12.1481  -13.3224 N   0  0  0  0  0  0  0  0  0  0  0  0
   15.3184  -10.7070  -13.3508 C   0  0  1  0  0  0  0  0  0  0  0  0
   14.6944  -10.0630  -12.1500 C   0  0  0  0  0  0  0  0  0  0  0  0
   13.2512  -10.3043  -12.1184 C   0  0  0  0  0  0  0  0  0  0  0  0
   12.6001  -10.2997  -13.1910 O   0  0  0  0  0  0  0  0  0  0  0  0
   16.7602  -10.3908  -13.4852 C   0  0  0  0  0  0  0  0  0  0  0  0
   17.6271  -11.0462  -12.8320 O   0  0  0  0  0  0  0  0  0  0  0  0
   12.6372  -10.5351  -10.8791 O   0  0  0  0  0  0  0  0  0  0  0  0
   17.2562   -9.3633  -14.3290 N   0  0  0  0  0  0  0  0  0  0  0  0
   18.6510   -9.1099  -14.5987 C   0  0  1  0  0  0  0  0  0  0  0  0
   18.9708   -9.0158  -16.0531 C   0  0  0  0  0  0  0  0  0  0  0  0
   20.4233   -8.8332  -16.2754 C   0  0  0  0  0  0  0  0  0  0  0  0
   20.8729   -7.7648  -16.7476 O   0  0  0  0  0  0  0  0  0  0  0  0
   19.1566   -7.9452  -13.8250 C   0  0  0  0  0  0  0  0  0  0  0  0
   18.5347   -6.8583  -13.8903 O   0  0  0  0  0  0  0  0  0  0  0  0
   21.3567   -9.8201  -15.9780 O   0  0  0  0  0  0  0  0  0  0  0  0
   22.0421   -6.0766  -10.4580 O   0  0  0  0  0  0  0  0  0  0  0  0
   21.8136   -7.2049  -11.2316 C   0  0  0  0  0  0  0  0  0  0  0  0
   20.8379   -6.8343  -12.3307 C   0  0  2  0  0  0  0  0  0  0  0  0
   20.3143   -8.0015  -13.0115 N   0  0  0  0  0  0  0  0  0  0  0  0
   21.4120   -5.8649  -13.2800 C   0  0  0  0  0  0  0  0  0  0  0  0
   22.0988   -6.3052  -14.3845 O   0  0  0  0  0  0  0  0  0  0  0  0
   21.2761   -4.6425  -13.0837 O   0  0  0  0  0  0  0  0  0  0  0  0
  2  1  1  1
  3  2  1  0
  4  8  1  0
  4  3  1  0
  5  4  2  0
  6  2  1  0
  7  6  2  0
  9  6  1  0
 10 14  1  0
 10  9  1  0
 10 11  1  6
 12 13  2  0
 12 11  1  0
 14 20  1  0
 15 14  2  0
 16 12  1  0
 18 17  1  0
 19 18  1  1
 19 21  1  0
 20 19  1  0
 21 23  2  0
 21 22  1  0
M  END
$$$$
