DDS.pdb
     RDKit          3D

 23 22  0  0  1  0  0  0  0  0999 V2000
   17.7785  -11.0840  -17.6222 N   0  0  0  0  0  0  0  0  0  0  0  0
   17.7495  -10.3678  -16.3624 C   0  0  1  0  0  0  0  0  0  0  0  0
   18.2611  -11.2132  -15.2357 C   0  0  0  0  0  0  0  0  0  0  0  0
   17.3627  -12.3394  -14.9778 C   0  0  0  0  0  0  0  0  0  0  0  0
   16.1277  -12.1370  -14.8880 O   0  0  0  0  0  0  0  0  0  0  0  0
   18.5114   -9.1067  -16.5232 C   0  0  0  0  0  0  0  0  0  0  0  0
   19.7754   -9.1003  -16.4219 O   0  0  0  0  0  0  0  0  0  0  0  0
   17.9163  -13.6201  -14.8381 O   0  0  0  0  0  0  0  0  0  0  0  0
   17.8980   -7.8560  -16.7936 N   0  0  0  0  0  0  0  0  0  0  0  0
   18.6023   -6.6253  -17.0619 C   0  0  1  0  0  0  0  0  0  0  0  0
   17.8078   -5.6433  -17.8562 C   0  0  0  0  0  0  0  0  0  0  0  0
   17.5782   -6.1261  -19.2370 C   0  0  0  0  0  0  0  0  0  0  0  0
   18.5167   -6.1846  -20.0629 O   0  0  0  0  0  0  0  0  0  0  0  0
   19.1663   -6.0339  -15.8198 C   0  0  0  0  0  0  0  0  0  0  0  0
   18.3826   -5.5502  -14.9689 O   0  0  0  0  0  0  0  0  0  0  0  0
   16.3286   -6.5357  -19.6894 O   0  0  0  0  0  0  0  0  0  0  0  0
   23.1598   -6.5088  -14.5759 O   0  0  0  0  0  0  0  0  0  0  0  0
   22.1149   -6.3455  -13.6786 C   0  0  0  0  0  0  0  0  0  0  0  0
   21.0830   -5.4362  -14.3156 C   0  0  2  0  0  0  0  0  0  0  0  0
   20.5550   -5.9888  -15.5468 N   0  0  0  0  0  0  0  0  0  0  0  0
   21.5927   -4.0677  -14.5103 C   0  0  0  0  0  0  0  0  0  0  0  0
   21.6997   -3.5451  -15.7756 O   0  0  0  0  0  0  0  0  0  0  0  0
   21.9284   -3.3802  -13.5275 O   0  0  0  0  0  0  0  0  0  0  0  0
  2  1  1  6
  3  2  1  0
  4  8  1  0
  4  3  1  0
  5  4  2  0
  6  2  1  0
  7  6  2  0
  9  6  1  0
 10 14  1  0
 10  9  1  0
 10 11  1  1
 12 13  2  0
 12 11  1  0
 14 20  1  0
 15 14  2  0
 16 12  1  0
 18 17  1  0
 19 18  1  6
 19 21  1  0
 20 19  1  0
 21 23  2  0
 21 22  1  0
M  END
$$$$
