DDS.pdb
     RDKit          3D

 23 22  0  0  1  0  0  0  0  0999 V2000
   17.0671  -11.4883  -16.8212 N   0  0  0  0  0  0  0  0  0  0  0  0
   17.2696  -10.9734  -15.4815 C   0  0  1  0  0  0  0  0  0  0  0  0
   18.0728  -11.9203  -14.6425 C   0  0  0  0  0  0  0  0  0  0  0  0
   17.3530  -13.1784  -14.4399 C   0  0  0  0  0  0  0  0  0  0  0  0
   16.1216  -13.1543  -14.1998 O   0  0  0  0  0  0  0  0  0  0  0  0
   17.8912   -9.6318  -15.5845 C   0  0  0  0  0  0  0  0  0  0  0  0
   18.8878   -9.4402  -16.3448 O   0  0  0  0  0  0  0  0  0  0  0  0
   18.0692  -14.3811  -14.5213 O   0  0  0  0  0  0  0  0  0  0  0  0
   17.4284   -8.5021  -14.8611 N   0  0  0  0  0  0  0  0  0  0  0  0
   17.9642   -7.1668  -14.9728 C   0  0  1  0  0  0  0  0  0  0  0  0
   16.9670   -6.0964  -14.6791 C   0  0  0  0  0  0  0  0  0  0  0  0
   15.8936   -6.0647  -15.6985 C   0  0  0  0  0  0  0  0  0  0  0  0
   14.7109   -6.3414  -15.3968 O   0  0  0  0  0  0  0  0  0  0  0  0
   19.2181   -7.0115  -14.1891 C   0  0  0  0  0  0  0  0  0  0  0  0
   19.1989   -7.2582  -12.9599 O   0  0  0  0  0  0  0  0  0  0  0  0
   16.1320   -5.7314  -17.0274 O   0  0  0  0  0  0  0  0  0  0  0  0
   22.6482   -8.4170  -14.9334 O   0  0  0  0  0  0  0  0  0  0  0  0
   22.8586   -7.0595  -14.7418 C   0  0  0  0  0  0  0  0  0  0  0  0
   21.6659   -6.4978  -13.9938 C   0  0  2  0  0  0  0  0  0  0  0  0
   20.4430   -6.5955  -14.7651 N   0  0  0  0  0  0  0  0  0  0  0  0
   21.9023   -5.1214  -13.5243 C   0  0  0  0  0  0  0  0  0  0  0  0
   22.5928   -4.8995  -12.3583 O   0  0  0  0  0  0  0  0  0  0  0  0
   21.4764   -4.1545  -14.1837 O   0  0  0  0  0  0  0  0  0  0  0  0
  2  1  1  6
  3  2  1  0
  4  8  1  0
  4  3  1  0
  5  4  2  0
  6  2  1  0
  7  6  2  0
  9  6  1  0
 10 14  1  0
 10  9  1  0
 10 11  1  1
 12 13  2  0
 12 11  1  0
 14 20  1  0
 15 14  2  0
 16 12  1  0
 18 17  1  0
 19 18  1  6
 19 21  1  0
 20 19  1  0
 21 23  2  0
 21 22  1  0
M  END
$$$$
