DDS.pdb
     RDKit          3D

 23 22  0  0  1  0  0  0  0  0999 V2000
   18.8982  -11.6666  -15.8688 N   0  0  0  0  0  0  0  0  0  0  0  0
   20.0752  -12.0054  -16.6439 C   0  0  1  0  0  0  0  0  0  0  0  0
   19.7551  -12.9831  -17.7336 C   0  0  0  0  0  0  0  0  0  0  0  0
   18.6668  -12.4873  -18.5773 C   0  0  0  0  0  0  0  0  0  0  0  0
   18.4891  -12.9875  -19.7142 O   0  0  0  0  0  0  0  0  0  0  0  0
   20.6740  -10.7510  -17.1584 C   0  0  0  0  0  0  0  0  0  0  0  0
   21.7520  -10.7781  -17.8256 O   0  0  0  0  0  0  0  0  0  0  0  0
   17.8503  -11.4599  -18.0833 O   0  0  0  0  0  0  0  0  0  0  0  0
   20.1001   -9.4706  -16.9465 N   0  0  0  0  0  0  0  0  0  0  0  0
   20.6376   -8.2263  -17.4419 C   0  0  1  0  0  0  0  0  0  0  0  0
   20.0157   -7.7739  -18.7206 C   0  0  0  0  0  0  0  0  0  0  0  0
   20.6860   -6.5634  -19.2478 C   0  0  0  0  0  0  0  0  0  0  0  0
   21.9169   -6.5561  -19.4740 O   0  0  0  0  0  0  0  0  0  0  0  0
   20.6286   -7.1698  -16.3959 C   0  0  0  0  0  0  0  0  0  0  0  0
   19.6868   -7.1442  -15.5684 O   0  0  0  0  0  0  0  0  0  0  0  0
   19.9996   -5.3845  -19.5178 O   0  0  0  0  0  0  0  0  0  0  0  0
   23.0782   -3.8530  -13.8826 O   0  0  0  0  0  0  0  0  0  0  0  0
   23.0628   -4.6055  -15.0476 C   0  0  0  0  0  0  0  0  0  0  0  0
   21.7038   -5.2664  -15.1650 C   0  0  2  0  0  0  0  0  0  0  0  0
   21.6380   -6.1827  -16.2857 N   0  0  0  0  0  0  0  0  0  0  0  0
   20.6085   -4.2819  -15.2045 C   0  0  0  0  0  0  0  0  0  0  0  0
   19.9502   -3.9360  -14.0501 O   0  0  0  0  0  0  0  0  0  0  0  0
   20.2761   -3.7601  -16.2854 O   0  0  0  0  0  0  0  0  0  0  0  0
  2  1  1  6
  3  2  1  0
  4  8  1  0
  4  3  1  0
  5  4  2  0
  6  2  1  0
  7  6  2  0
  9  6  1  0
 10 14  1  0
 10  9  1  0
 10 11  1  6
 12 13  2  0
 12 11  1  0
 14 20  1  0
 15 14  2  0
 16 12  1  0
 18 17  1  0
 19 18  1  6
 19 21  1  0
 20 19  1  0
 21 23  2  0
 21 22  1  0
M  END
$$$$
