DDS.pdb
     RDKit          3D

 23 22  0  0  1  0  0  0  0  0999 V2000
   16.4584  -11.5656  -16.7864 N   0  0  0  0  0  0  0  0  0  0  0  0
   16.5459  -10.8771  -15.5140 C   0  0  1  0  0  0  0  0  0  0  0  0
   17.2140  -11.7240  -14.4737 C   0  0  0  0  0  0  0  0  0  0  0  0
   16.4079  -12.9061  -14.1657 C   0  0  0  0  0  0  0  0  0  0  0  0
   16.9208  -14.0469  -14.2647 O   0  0  0  0  0  0  0  0  0  0  0  0
   17.2365   -9.5832  -15.7283 C   0  0  0  0  0  0  0  0  0  0  0  0
   18.3011   -9.5272  -16.4150 O   0  0  0  0  0  0  0  0  0  0  0  0
   15.0763  -12.7239  -13.7662 O   0  0  0  0  0  0  0  0  0  0  0  0
   16.7686   -8.3539  -15.1961 N   0  0  0  0  0  0  0  0  0  0  0  0
   17.4135   -7.0744  -15.3679 C   0  0  1  0  0  0  0  0  0  0  0  0
   16.4972   -5.9128  -15.1745 C   0  0  0  0  0  0  0  0  0  0  0  0
   17.1947   -4.6292  -15.4163 C   0  0  0  0  0  0  0  0  0  0  0  0
   17.7040   -4.3734  -16.5306 O   0  0  0  0  0  0  0  0  0  0  0  0
   18.6510   -6.9695  -14.5505 C   0  0  0  0  0  0  0  0  0  0  0  0
   18.6195   -7.3403  -13.3531 O   0  0  0  0  0  0  0  0  0  0  0  0
   17.3228   -3.6500  -14.4373 O   0  0  0  0  0  0  0  0  0  0  0  0
   23.2542   -7.5465  -14.2251 O   0  0  0  0  0  0  0  0  0  0  0  0
   22.1280   -7.4513  -15.0289 C   0  0  0  0  0  0  0  0  0  0  0  0
   21.1172   -6.5696  -14.3230 C   0  0  2  0  0  0  0  0  0  0  0  0
   19.8734   -6.4680  -15.0598 N   0  0  0  0  0  0  0  0  0  0  0  0
   21.6670   -5.2410  -14.0017 C   0  0  0  0  0  0  0  0  0  0  0  0
   22.4413   -5.0678  -12.8810 O   0  0  0  0  0  0  0  0  0  0  0  0
   21.4312   -4.2706  -14.7458 O   0  0  0  0  0  0  0  0  0  0  0  0
  2  1  1  6
  3  2  1  0
  4  8  1  0
  4  3  1  0
  5  4  2  0
  6  2  1  0
  7  6  2  0
  9  6  1  0
 10 14  1  0
 10  9  1  0
 10 11  1  1
 12 13  2  0
 12 11  1  0
 14 20  1  0
 15 14  2  0
 16 12  1  0
 18 17  1  0
 19 18  1  6
 19 21  1  0
 20 19  1  0
 21 23  2  0
 21 22  1  0
M  END
$$$$
