DDS.pdb
     RDKit          3D

 23 22  0  0  1  0  0  0  0  0999 V2000
   16.3534  -13.7599  -16.9255 N   0  0  0  0  0  0  0  0  0  0  0  0
   17.3345  -12.8355  -16.3929 C   0  0  1  0  0  0  0  0  0  0  0  0
   18.6937  -13.0780  -16.9756 C   0  0  0  0  0  0  0  0  0  0  0  0
   19.4535  -14.0216  -16.1545 C   0  0  0  0  0  0  0  0  0  0  0  0
   18.9631  -14.4377  -15.0771 O   0  0  0  0  0  0  0  0  0  0  0  0
   16.8506  -11.4539  -16.6252 C   0  0  0  0  0  0  0  0  0  0  0  0
   16.3187  -11.1351  -17.7313 O   0  0  0  0  0  0  0  0  0  0  0  0
   20.7167  -14.4340  -16.6023 O   0  0  0  0  0  0  0  0  0  0  0  0
   16.9459  -10.4226  -15.6552 N   0  0  0  0  0  0  0  0  0  0  0  0
   16.4516   -9.0770  -15.8212 C   0  0  1  0  0  0  0  0  0  0  0  0
   15.4328   -8.6851  -14.8038 C   0  0  0  0  0  0  0  0  0  0  0  0
   14.2791   -9.6132  -14.8103 C   0  0  0  0  0  0  0  0  0  0  0  0
   14.0131  -10.3165  -13.8097 O   0  0  0  0  0  0  0  0  0  0  0  0
   17.5618   -8.0938  -15.9275 C   0  0  0  0  0  0  0  0  0  0  0  0
   18.4875   -8.1314  -15.0825 O   0  0  0  0  0  0  0  0  0  0  0  0
   13.4382   -9.7555  -15.9087 O   0  0  0  0  0  0  0  0  0  0  0  0
   19.7986   -4.5272  -18.3259 O   0  0  0  0  0  0  0  0  0  0  0  0
   18.7155   -5.3935  -18.3300 C   0  0  0  0  0  0  0  0  0  0  0  0
   18.7020   -6.1390  -17.0103 C   0  0  2  0  0  0  0  0  0  0  0  0
   17.6275   -7.1091  -16.9429 N   0  0  0  0  0  0  0  0  0  0  0  0
   18.6800   -5.2244  -15.8555 C   0  0  0  0  0  0  0  0  0  0  0  0
   17.5966   -5.2047  -15.0119 O   0  0  0  0  0  0  0  0  0  0  0  0
   19.6441   -4.4660  -15.6407 O   0  0  0  0  0  0  0  0  0  0  0  0
  2  1  1  6
  3  2  1  0
  4  8  1  0
  4  3  1  0
  5  4  2  0
  6  2  1  0
  7  6  2  0
  9  6  1  0
 10 14  1  0
 10  9  1  0
 10 11  1  1
 12 13  2  0
 12 11  1  0
 14 20  1  0
 15 14  2  0
 16 12  1  0
 18 17  1  0
 19 18  1  6
 19 21  1  0
 20 19  1  0
 21 23  2  0
 21 22  1  0
M  END
$$$$
