DDS.pdb
     RDKit          3D

 23 22  0  0  1  0  0  0  0  0999 V2000
   17.6252  -11.3680  -17.1072 N   0  0  0  0  0  0  0  0  0  0  0  0
   17.2260  -10.4364  -16.0710 C   0  0  1  0  0  0  0  0  0  0  0  0
   17.5175  -10.9750  -14.7033 C   0  0  0  0  0  0  0  0  0  0  0  0
   16.6830  -12.1416  -14.4122 C   0  0  0  0  0  0  0  0  0  0  0  0
   17.2190  -13.2690  -14.2859 O   0  0  0  0  0  0  0  0  0  0  0  0
   17.8911   -9.1371  -16.3280 C   0  0  0  0  0  0  0  0  0  0  0  0
   19.0876   -9.0974  -16.7461 O   0  0  0  0  0  0  0  0  0  0  0  0
   15.2986  -11.9600  -14.2828 O   0  0  0  0  0  0  0  0  0  0  0  0
   17.2545   -7.8844  -16.1301 N   0  0  0  0  0  0  0  0  0  0  0  0
   17.8872   -6.5966  -16.2848 C   0  0  1  0  0  0  0  0  0  0  0  0
   16.9303   -5.4941  -16.5932 C   0  0  0  0  0  0  0  0  0  0  0  0
   17.6398   -4.2200  -16.8502 C   0  0  0  0  0  0  0  0  0  0  0  0
   17.0790   -3.1192  -16.6499 O   0  0  0  0  0  0  0  0  0  0  0  0
   18.7743   -6.2795  -15.1345 C   0  0  0  0  0  0  0  0  0  0  0  0
   18.2986   -6.3140  -13.9749 O   0  0  0  0  0  0  0  0  0  0  0  0
   18.9475   -4.1724  -17.3208 O   0  0  0  0  0  0  0  0  0  0  0  0
   22.9149   -6.6002  -13.0123 O   0  0  0  0  0  0  0  0  0  0  0  0
   22.1129   -6.8348  -14.1193 C   0  0  0  0  0  0  0  0  0  0  0  0
   21.0256   -5.7791  -14.1470 C   0  0  2  0  0  0  0  0  0  0  0  0
   20.1404   -5.9376  -15.2834 N   0  0  0  0  0  0  0  0  0  0  0  0
   21.5745   -4.4138  -14.0735 C   0  0  0  0  0  0  0  0  0  0  0  0
   21.9122   -3.8708  -12.8584 O   0  0  0  0  0  0  0  0  0  0  0  0
   21.7339   -3.7477  -15.1137 O   0  0  0  0  0  0  0  0  0  0  0  0
  2  1  1  6
  3  2  1  0
  4  8  1  0
  4  3  1  0
  5  4  2  0
  6  2  1  0
  7  6  2  0
  9  6  1  0
 10 14  1  0
 10  9  1  0
 10 11  1  1
 12 13  2  0
 12 11  1  0
 14 20  1  0
 15 14  2  0
 16 12  1  0
 18 17  1  0
 19 18  1  6
 19 21  1  0
 20 19  1  0
 21 23  2  0
 21 22  1  0
M  END
$$$$
