VCS.pdb
     RDKit          3D

 20 19  0  0  1  0  0  0  0  0999 V2000
   19.7418   -8.5283  -19.4280 C   0  0  0  0  0  0  0  0  0  0  0  0
   19.1836   -9.9050  -19.1648 C   0  0  1  0  0  0  0  0  0  0  0  0
   18.8963  -10.6240  -20.4399 C   0  0  0  0  0  0  0  0  0  0  0  0
   20.0642  -10.6838  -18.2165 C   0  0  2  0  0  0  0  0  0  0  0  0
   19.3817  -11.9232  -17.9166 N   0  0  0  0  0  0  0  0  0  0  0  0
   20.3726   -9.9514  -16.9823 C   0  0  0  0  0  0  0  0  0  0  0  0
   19.5375   -9.7821  -16.0569 O   0  0  0  0  0  0  0  0  0  0  0  0
   21.6599   -9.3998  -16.7980 N   0  0  0  0  0  0  0  0  0  0  0  0
   22.0818   -8.7598  -15.5696 C   0  0  1  0  0  0  0  0  0  0  0  0
   23.4960   -9.1583  -15.1843 C   0  0  0  0  0  0  0  0  0  0  0  0
   23.6242  -10.8976  -14.7741 S   0  0  0  0  0  0  0  0  0  0  0  0
   22.0282   -7.2921  -15.7556 C   0  0  0  0  0  0  0  0  0  0  0  0
   22.5147   -6.7814  -16.7894 O   0  0  0  0  0  0  0  0  0  0  0  0
   19.0139   -5.1409  -15.4733 O   0  0  0  0  0  0  0  0  0  0  0  0
   19.9079   -4.6067  -14.5410 C   0  0  0  0  0  0  0  0  0  0  0  0
   21.3011   -4.9868  -15.0245 C   0  0  2  0  0  0  0  0  0  0  0  0
   21.4439   -6.4120  -14.8083 N   0  0  0  0  0  0  0  0  0  0  0  0
   22.3484   -4.2769  -14.2605 C   0  0  0  0  0  0  0  0  0  0  0  0
   22.6860   -2.9890  -14.5743 O   0  0  0  0  0  0  0  0  0  0  0  0
   22.9331   -4.8564  -13.3180 O   0  0  0  0  0  0  0  0  0  0  0  0
  2  1  1  6
  3  2  1  0
  4  6  1  0
  4  2  1  0
  4  5  1  1
  6  7  2  0
  8  9  1  0
  8  6  1  0
  9 12  1  0
 10 11  1  0
  9 10  1  6
 12 13  2  0
 12 17  1  0
 14 15  1  0
 16 15  1  1
 16 18  1  0
 17 16  1  0
 18 20  2  0
 18 19  1  0
M  END
$$$$
