VCS.pdb
     RDKit          3D

 20 19  0  0  1  0  0  0  0  0999 V2000
   26.6816   -9.6358  -15.8363 C   0  0  0  0  0  0  0  0  0  0  0  0
   26.0626  -10.9606  -16.2073 C   0  0  1  0  0  0  0  0  0  0  0  0
   26.7924  -12.0949  -15.5700 C   0  0  0  0  0  0  0  0  0  0  0  0
   24.5768  -10.9691  -15.9360 C   0  0  2  0  0  0  0  0  0  0  0  0
   24.0893  -12.2927  -16.2558 N   0  0  0  0  0  0  0  0  0  0  0  0
   23.8452   -9.9502  -16.6987 C   0  0  0  0  0  0  0  0  0  0  0  0
   23.6815  -10.0103  -17.9446 O   0  0  0  0  0  0  0  0  0  0  0  0
   23.2881   -8.8388  -16.0281 N   0  0  0  0  0  0  0  0  0  0  0  0
   22.5534   -7.7895  -16.7034 C   0  0  1  0  0  0  0  0  0  0  0  0
   21.0547   -8.0323  -16.6569 C   0  0  0  0  0  0  0  0  0  0  0  0
   20.5144   -8.6444  -15.0621 S   0  0  0  0  0  0  0  0  0  0  0  0
   22.8535   -6.4988  -16.0434 C   0  0  0  0  0  0  0  0  0  0  0  0
   23.3986   -6.4921  -14.9169 O   0  0  0  0  0  0  0  0  0  0  0  0
   25.1848   -2.9158  -15.8977 O   0  0  0  0  0  0  0  0  0  0  0  0
   24.6417   -4.1404  -16.2966 C   0  0  0  0  0  0  0  0  0  0  0  0
   23.1307   -3.9923  -16.1774 C   0  0  2  0  0  0  0  0  0  0  0  0
   22.5517   -5.2415  -16.6276 N   0  0  0  0  0  0  0  0  0  0  0  0
   22.6285   -2.8943  -17.0298 C   0  0  0  0  0  0  0  0  0  0  0  0
   22.5603   -1.6156  -16.5488 O   0  0  0  0  0  0  0  0  0  0  0  0
   22.2617   -3.1334  -18.2022 O   0  0  0  0  0  0  0  0  0  0  0  0
  2  1  1  1
  3  2  1  0
  4  6  1  0
  4  2  1  0
  4  5  1  6
  6  7  2  0
  8  9  1  0
  8  6  1  0
  9 12  1  0
 10 11  1  0
  9 10  1  1
 12 13  2  0
 12 17  1  0
 14 15  1  0
 16 15  1  6
 16 18  1  0
 17 16  1  0
 18 20  2  0
 18 19  1  0
M  END
$$$$
