VCS.pdb
     RDKit          3D

 20 19  0  0  1  0  0  0  0  0999 V2000
   18.5609  -11.3834  -19.8949 C   0  0  0  0  0  0  0  0  0  0  0  0
   18.9202  -10.6449  -18.6294 C   0  0  1  0  0  0  0  0  0  0  0  0
   17.7291   -9.9619  -18.0462 C   0  0  0  0  0  0  0  0  0  0  0  0
   19.6399  -11.5445  -17.6527 C   0  0  2  0  0  0  0  0  0  0  0  0
   18.7193  -12.5951  -17.2779 N   0  0  0  0  0  0  0  0  0  0  0  0
   20.1255  -10.8337  -16.4636 C   0  0  0  0  0  0  0  0  0  0  0  0
   19.4051  -10.6046  -15.4580 O   0  0  0  0  0  0  0  0  0  0  0  0
   21.4603  -10.3737  -16.4186 N   0  0  0  0  0  0  0  0  0  0  0  0
   22.0031   -9.6166  -15.3101 C   0  0  1  0  0  0  0  0  0  0  0  0
   23.4325  -10.0236  -14.9969 C   0  0  0  0  0  0  0  0  0  0  0  0
   23.5218  -11.6105  -14.1701 S   0  0  0  0  0  0  0  0  0  0  0  0
   21.9767   -8.1781  -15.6589 C   0  0  0  0  0  0  0  0  0  0  0  0
   22.3875   -7.8060  -16.7809 O   0  0  0  0  0  0  0  0  0  0  0  0
   19.8156   -4.0587  -15.3364 O   0  0  0  0  0  0  0  0  0  0  0  0
   19.9063   -5.4231  -15.0468 C   0  0  0  0  0  0  0  0  0  0  0  0
   21.3841   -5.7785  -15.1406 C   0  0  2  0  0  0  0  0  0  0  0  0
   21.5020   -7.1751  -14.7745 N   0  0  0  0  0  0  0  0  0  0  0  0
   22.1934   -4.9666  -14.2077 C   0  0  0  0  0  0  0  0  0  0  0  0
   22.7539   -3.7881  -14.6175 O   0  0  0  0  0  0  0  0  0  0  0  0
   22.3692   -5.3582  -13.0322 O   0  0  0  0  0  0  0  0  0  0  0  0
  2  1  1  6
  3  2  1  0
  4  6  1  0
  4  2  1  0
  4  5  1  1
  6  7  2  0
  8  9  1  0
  8  6  1  0
  9 12  1  0
 10 11  1  0
  9 10  1  6
 12 13  2  0
 12 17  1  0
 14 15  1  0
 16 15  1  1
 16 18  1  0
 17 16  1  0
 18 20  2  0
 18 19  1  0
M  END
$$$$
