VCS.pdb
     RDKit          3D

 20 19  0  0  1  0  0  0  0  0999 V2000
   19.1109  -10.3534  -18.5528 C   0  0  0  0  0  0  0  0  0  0  0  0
   19.0849   -9.1606  -17.6294 C   0  0  1  0  0  0  0  0  0  0  0  0
   17.7874   -8.4309  -17.7263 C   0  0  0  0  0  0  0  0  0  0  0  0
   19.4563   -9.5492  -16.2179 C   0  0  2  0  0  0  0  0  0  0  0  0
   18.4566  -10.4853  -15.7531 N   0  0  0  0  0  0  0  0  0  0  0  0
   19.5513   -8.4002  -15.3092 C   0  0  0  0  0  0  0  0  0  0  0  0
   18.5973   -8.0167  -14.5844 O   0  0  0  0  0  0  0  0  0  0  0  0
   20.7588   -7.6722  -15.2241 N   0  0  0  0  0  0  0  0  0  0  0  0
   20.9253   -6.5046  -14.3841 C   0  0  1  0  0  0  0  0  0  0  0  0
   22.3102   -6.4514  -13.7625 C   0  0  0  0  0  0  0  0  0  0  0  0
   22.5962   -4.9248  -12.8693 S   0  0  0  0  0  0  0  0  0  0  0  0
   20.7202   -5.2925  -15.2090 C   0  0  0  0  0  0  0  0  0  0  0  0
   21.3610   -5.1539  -16.2748 O   0  0  0  0  0  0  0  0  0  0  0  0
   17.9870   -1.4290  -16.0878 O   0  0  0  0  0  0  0  0  0  0  0  0
   18.2188   -2.5364  -15.2671 C   0  0  0  0  0  0  0  0  0  0  0  0
   19.5775   -3.0894  -15.6760 C   0  0  2  0  0  0  0  0  0  0  0  0
   19.8186   -4.2564  -14.8524 N   0  0  0  0  0  0  0  0  0  0  0  0
   20.6531   -2.1035  -15.4403 C   0  0  0  0  0  0  0  0  0  0  0  0
   21.0308   -1.2364  -16.4285 O   0  0  0  0  0  0  0  0  0  0  0  0
   21.2251   -2.0593  -14.3281 O   0  0  0  0  0  0  0  0  0  0  0  0
  2  1  1  6
  3  2  1  0
  4  6  1  0
  4  2  1  0
  4  5  1  1
  6  7  2  0
  8  9  1  0
  8  6  1  0
  9 12  1  0
 10 11  1  0
  9 10  1  6
 12 13  2  0
 12 17  1  0
 14 15  1  0
 16 15  1  1
 16 18  1  0
 17 16  1  0
 18 20  2  0
 18 19  1  0
M  END
$$$$
