VCS.pdb
     RDKit          3D

 20 19  0  0  1  0  0  0  0  0999 V2000
   24.0990  -12.6629  -15.4289 C   0  0  0  0  0  0  0  0  0  0  0  0
   23.5061  -11.3130  -15.7489 C   0  0  1  0  0  0  0  0  0  0  0  0
   24.2765  -10.6266  -16.8263 C   0  0  0  0  0  0  0  0  0  0  0  0
   22.0266  -11.4156  -16.0350 C   0  0  2  0  0  0  0  0  0  0  0  0
   21.8762  -12.1914  -17.2464 N   0  0  0  0  0  0  0  0  0  0  0  0
   21.3737  -10.1082  -16.1737 C   0  0  0  0  0  0  0  0  0  0  0  0
   21.1881   -9.5471  -17.2843 O   0  0  0  0  0  0  0  0  0  0  0  0
   20.9225   -9.4247  -15.0228 N   0  0  0  0  0  0  0  0  0  0  0  0
   20.2216   -8.1587  -15.0739 C   0  0  1  0  0  0  0  0  0  0  0  0
   18.9459   -8.1880  -14.2501 C   0  0  0  0  0  0  0  0  0  0  0  0
   17.6945   -9.2474  -14.9722 S   0  0  0  0  0  0  0  0  0  0  0  0
   21.1124   -7.1007  -14.5460 C   0  0  0  0  0  0  0  0  0  0  0  0
   21.7573   -7.3037  -13.4929 O   0  0  0  0  0  0  0  0  0  0  0  0
   23.3126   -2.8911  -15.3581 O   0  0  0  0  0  0  0  0  0  0  0  0
   22.5193   -3.9232  -15.8670 C   0  0  0  0  0  0  0  0  0  0  0  0
   22.1639   -4.8086  -14.6800 C   0  0  2  0  0  0  0  0  0  0  0  0
   21.2805   -5.8422  -15.1795 N   0  0  0  0  0  0  0  0  0  0  0  0
   21.4623   -4.0430  -13.6283 C   0  0  0  0  0  0  0  0  0  0  0  0
   22.1640   -3.4456  -12.6174 O   0  0  0  0  0  0  0  0  0  0  0  0
   20.2156   -3.9385  -13.6602 O   0  0  0  0  0  0  0  0  0  0  0  0
  2  1  1  6
  3  2  1  0
  4  6  1  0
  4  2  1  0
  4  5  1  6
  6  7  2  0
  8  9  1  0
  8  6  1  0
  9 12  1  0
 10 11  1  0
  9 10  1  1
 12 13  2  0
 12 17  1  0
 14 15  1  0
 16 15  1  6
 16 18  1  0
 17 16  1  0
 18 20  2  0
 18 19  1  0
M  END
$$$$
