VCS.pdb
     RDKit          3D

 20 19  0  0  1  0  0  0  0  0999 V2000
   22.3279   -7.9255  -18.9600 C   0  0  0  0  0  0  0  0  0  0  0  0
   21.5327   -9.2044  -18.8698 C   0  0  1  0  0  0  0  0  0  0  0  0
   22.0940  -10.2538  -19.7693 C   0  0  0  0  0  0  0  0  0  0  0  0
   21.3776   -9.6561  -17.4369 C   0  0  2  0  0  0  0  0  0  0  0  0
   20.6023  -10.8770  -17.4530 N   0  0  0  0  0  0  0  0  0  0  0  0
   20.7392   -8.6492  -16.5804 C   0  0  0  0  0  0  0  0  0  0  0  0
   19.5026   -8.4184  -16.5957 O   0  0  0  0  0  0  0  0  0  0  0  0
   21.5259   -7.8886  -15.6872 N   0  0  0  0  0  0  0  0  0  0  0  0
   20.9658   -6.9599  -14.7278 C   0  0  1  0  0  0  0  0  0  0  0  0
   21.2553   -7.3845  -13.2984 C   0  0  0  0  0  0  0  0  0  0  0  0
   20.2852   -8.8067  -12.8021 S   0  0  0  0  0  0  0  0  0  0  0  0
   21.5546   -5.6220  -14.9620 C   0  0  0  0  0  0  0  0  0  0  0  0
   22.7703   -5.5214  -15.2415 O   0  0  0  0  0  0  0  0  0  0  0  0
   19.6860   -2.7073  -16.7391 O   0  0  0  0  0  0  0  0  0  0  0  0
   20.1926   -2.2083  -15.5358 C   0  0  0  0  0  0  0  0  0  0  0  0
   21.3596   -3.1120  -15.1606 C   0  0  2  0  0  0  0  0  0  0  0  0
   20.8030   -4.4208  -14.8859 N   0  0  0  0  0  0  0  0  0  0  0  0
   22.0539   -2.6209  -13.9518 C   0  0  0  0  0  0  0  0  0  0  0  0
   22.8362   -1.5002  -14.0058 O   0  0  0  0  0  0  0  0  0  0  0  0
   21.9267   -3.2336  -12.8680 O   0  0  0  0  0  0  0  0  0  0  0  0
  2  1  1  1
  3  2  1  0
  4  6  1  0
  4  2  1  0
  4  5  1  6
  6  7  2  0
  8  9  1  0
  8  6  1  0
  9 12  1  0
 10 11  1  0
  9 10  1  1
 12 13  2  0
 12 17  1  0
 14 15  1  0
 16 15  1  1
 16 18  1  0
 17 16  1  0
 18 20  2  0
 18 19  1  0
M  END
$$$$
