VCS.pdb
     RDKit          3D

 20 19  0  0  1  0  0  0  0  0999 V2000
   25.3162  -11.6664  -16.0125 C   0  0  0  0  0  0  0  0  0  0  0  0
   24.4892  -12.8020  -16.5625 C   0  0  1  0  0  0  0  0  0  0  0  0
   24.9824  -14.1192  -16.0654 C   0  0  0  0  0  0  0  0  0  0  0  0
   23.0154  -12.5774  -16.3198 C   0  0  2  0  0  0  0  0  0  0  0  0
   22.3128  -13.7237  -16.8528 N   0  0  0  0  0  0  0  0  0  0  0  0
   22.5138  -11.3368  -16.9232 C   0  0  0  0  0  0  0  0  0  0  0  0
   22.1906  -11.2440  -18.1355 O   0  0  0  0  0  0  0  0  0  0  0  0
   22.3774  -10.1766  -16.1291 N   0  0  0  0  0  0  0  0  0  0  0  0
   21.8270   -8.9331  -16.6265 C   0  0  1  0  0  0  0  0  0  0  0  0
   20.3136   -8.9930  -16.7399 C   0  0  0  0  0  0  0  0  0  0  0  0
   19.5493   -9.6877  -15.2759 S   0  0  0  0  0  0  0  0  0  0  0  0
   22.1981   -7.8432  -15.6959 C   0  0  0  0  0  0  0  0  0  0  0  0
   22.2887   -8.0801  -14.4705 O   0  0  0  0  0  0  0  0  0  0  0  0
   23.9441   -3.3604  -15.2813 O   0  0  0  0  0  0  0  0  0  0  0  0
   23.3657   -4.3084  -16.1299 C   0  0  0  0  0  0  0  0  0  0  0  0
   22.9593   -5.4781  -15.2435 C   0  0  2  0  0  0  0  0  0  0  0  0
   22.4627   -6.5163  -16.1233 N   0  0  0  0  0  0  0  0  0  0  0  0
   21.8879   -5.0928  -14.3012 C   0  0  0  0  0  0  0  0  0  0  0  0
   22.1934   -4.6518  -13.0429 O   0  0  0  0  0  0  0  0  0  0  0  0
   20.6898   -5.1695  -14.6547 O   0  0  0  0  0  0  0  0  0  0  0  0
  2  1  1  1
  3  2  1  0
  4  6  1  0
  4  2  1  0
  4  5  1  6
  6  7  2  0
  8  9  1  0
  8  6  1  0
  9 12  1  0
 10 11  1  0
  9 10  1  1
 12 13  2  0
 12 17  1  0
 14 15  1  0
 16 15  1  6
 16 18  1  0
 17 16  1  0
 18 20  2  0
 18 19  1  0
M  END
$$$$
