VCS.pdb
     RDKit          3D

 20 19  0  0  1  0  0  0  0  0999 V2000
   18.4179  -12.3710  -17.6052 C   0  0  0  0  0  0  0  0  0  0  0  0
   19.8713  -11.9667  -17.5878 C   0  0  1  0  0  0  0  0  0  0  0  0
   20.6740  -12.7966  -18.5325 C   0  0  0  0  0  0  0  0  0  0  0  0
   20.0316  -10.4803  -17.8026 C   0  0  2  0  0  0  0  0  0  0  0  0
   21.4475  -10.2154  -17.9326 N   0  0  0  0  0  0  0  0  0  0  0  0
   19.4519   -9.6751  -16.7207 C   0  0  0  0  0  0  0  0  0  0  0  0
   18.2479   -9.7642  -16.3672 O   0  0  0  0  0  0  0  0  0  0  0  0
   20.2608   -8.7484  -16.0262 N   0  0  0  0  0  0  0  0  0  0  0  0
   19.7788   -7.9419  -14.9245 C   0  0  1  0  0  0  0  0  0  0  0  0
   20.8547   -7.7219  -13.8752 C   0  0  0  0  0  0  0  0  0  0  0  0
   20.3319   -8.2489  -12.2446 S   0  0  0  0  0  0  0  0  0  0  0  0
   19.3437   -6.6287  -15.4517 C   0  0  0  0  0  0  0  0  0  0  0  0
   20.1024   -5.9845  -16.2103 O   0  0  0  0  0  0  0  0  0  0  0  0
   15.7665   -5.2241  -14.3580 O   0  0  0  0  0  0  0  0  0  0  0  0
   16.0488   -4.9419  -15.6975 C   0  0  0  0  0  0  0  0  0  0  0  0
   17.5663   -4.8697  -15.8042 C   0  0  2  0  0  0  0  0  0  0  0  0
   18.0883   -6.0460  -15.1391 N   0  0  0  0  0  0  0  0  0  0  0  0
   18.0963   -3.6634  -15.1348 C   0  0  0  0  0  0  0  0  0  0  0  0
   18.8755   -3.7742  -14.0160 O   0  0  0  0  0  0  0  0  0  0  0  0
   17.8317   -2.5293  -15.5932 O   0  0  0  0  0  0  0  0  0  0  0  0
  2  1  1  6
  3  2  1  0
  4  6  1  0
  4  2  1  0
  4  5  1  1
  6  7  2  0
  8  9  1  0
  8  6  1  0
  9 12  1  0
 10 11  1  0
  9 10  1  1
 12 13  2  0
 12 17  1  0
 14 15  1  0
 16 15  1  1
 16 18  1  0
 17 16  1  0
 18 20  2  0
 18 19  1  0
M  END
$$$$
