VCS.pdb
     RDKit          3D

 20 19  0  0  1  0  0  0  0  0999 V2000
   17.4013  -12.2427  -15.9298 C   0  0  0  0  0  0  0  0  0  0  0  0
   15.9587  -12.6406  -15.7385 C   0  0  1  0  0  0  0  0  0  0  0  0
   15.7330  -14.0606  -16.1359 C   0  0  0  0  0  0  0  0  0  0  0  0
   15.4800  -12.3201  -14.3422 C   0  0  2  0  0  0  0  0  0  0  0  0
   14.0812  -12.6817  -14.2742 N   0  0  0  0  0  0  0  0  0  0  0  0
   15.6682  -10.9108  -13.9771 C   0  0  0  0  0  0  0  0  0  0  0  0
   15.0627   -9.9666  -14.5466 O   0  0  0  0  0  0  0  0  0  0  0  0
   16.5655  -10.5693  -12.9409 N   0  0  0  0  0  0  0  0  0  0  0  0
   16.8942   -9.2028  -12.5925 C   0  0  1  0  0  0  0  0  0  0  0  0
   16.7849   -8.9615  -11.0968 C   0  0  0  0  0  0  0  0  0  0  0  0
   15.1380   -9.2918  -10.4736 S   0  0  0  0  0  0  0  0  0  0  0  0
   18.2817   -8.9226  -13.0260 C   0  0  0  0  0  0  0  0  0  0  0  0
   19.1256   -9.8466  -13.0349 O   0  0  0  0  0  0  0  0  0  0  0  0
   21.3055   -8.0152  -15.8979 O   0  0  0  0  0  0  0  0  0  0  0  0
   20.0287   -8.1901  -15.3567 C   0  0  0  0  0  0  0  0  0  0  0  0
   20.0064   -7.3939  -14.0587 C   0  0  2  0  0  0  0  0  0  0  0  0
   18.7190   -7.6381  -13.4410 N   0  0  0  0  0  0  0  0  0  0  0  0
   20.1510   -5.9452  -14.3131 C   0  0  0  0  0  0  0  0  0  0  0  0
   21.3578   -5.3253  -14.1385 O   0  0  0  0  0  0  0  0  0  0  0  0
   19.1627   -5.2773  -14.6915 O   0  0  0  0  0  0  0  0  0  0  0  0
  2  1  1  1
  3  2  1  0
  4  6  1  0
  4  2  1  0
  4  5  1  6
  6  7  2  0
  8  9  1  0
  8  6  1  0
  9 12  1  0
 10 11  1  0
  9 10  1  1
 12 13  2  0
 12 17  1  0
 14 15  1  0
 16 15  1  6
 16 18  1  0
 17 16  1  0
 18 20  2  0
 18 19  1  0
M  END
$$$$
