VCS.pdb
     RDKit          3D

 20 19  0  0  1  0  0  0  0  0999 V2000
   20.7667  -12.7917  -16.1296 C   0  0  0  0  0  0  0  0  0  0  0  0
   20.2081  -11.3952  -16.0113 C   0  0  1  0  0  0  0  0  0  0  0  0
   20.2408  -10.6877  -17.3242 C   0  0  0  0  0  0  0  0  0  0  0  0
   18.8447  -11.4011  -15.3614 C   0  0  2  0  0  0  0  0  0  0  0  0
   17.9758  -12.2039  -16.1934 N   0  0  0  0  0  0  0  0  0  0  0  0
   18.2871  -10.0556  -15.1781 C   0  0  0  0  0  0  0  0  0  0  0  0
   17.5835   -9.4791  -16.0472 O   0  0  0  0  0  0  0  0  0  0  0  0
   18.5361   -9.3512  -13.9793 N   0  0  0  0  0  0  0  0  0  0  0  0
   18.0452   -8.0125  -13.7274 C   0  0  1  0  0  0  0  0  0  0  0  0
   16.9017   -8.0111  -12.7277 C   0  0  0  0  0  0  0  0  0  0  0  0
   17.3199   -8.8764  -11.2156 S   0  0  0  0  0  0  0  0  0  0  0  0
   19.1551   -7.1923  -13.1916 C   0  0  0  0  0  0  0  0  0  0  0  0
   19.9787   -7.7062  -12.4019 O   0  0  0  0  0  0  0  0  0  0  0  0
   22.8483   -5.0721  -13.5539 O   0  0  0  0  0  0  0  0  0  0  0  0
   21.7156   -5.8622  -13.7694 C   0  0  0  0  0  0  0  0  0  0  0  0
   20.5393   -5.0801  -13.2005 C   0  0  2  0  0  0  0  0  0  0  0  0
   19.3426   -5.8270  -13.5296 N   0  0  0  0  0  0  0  0  0  0  0  0
   20.4467   -3.7334  -13.8023 C   0  0  0  0  0  0  0  0  0  0  0  0
   19.5729   -3.4873  -14.8256 O   0  0  0  0  0  0  0  0  0  0  0  0
   21.1725   -2.8082  -13.3741 O   0  0  0  0  0  0  0  0  0  0  0  0
  2  1  1  6
  3  2  1  0
  4  6  1  0
  4  2  1  0
  4  5  1  6
  6  7  2  0
  8  9  1  0
  8  6  1  0
  9 12  1  0
 10 11  1  0
  9 10  1  1
 12 13  2  0
 12 17  1  0
 14 15  1  0
 16 15  1  6
 16 18  1  0
 17 16  1  0
 18 20  2  0
 18 19  1  0
M  END
$$$$
