VCS.pdb
     RDKit          3D

 20 19  0  0  1  0  0  0  0  0999 V2000
   19.7152  -11.9696  -19.6439 C   0  0  0  0  0  0  0  0  0  0  0  0
   19.2565  -10.8656  -18.7237 C   0  0  1  0  0  0  0  0  0  0  0  0
   18.0129  -11.2513  -17.9956 C   0  0  0  0  0  0  0  0  0  0  0  0
   20.3723  -10.4078  -17.8145 C   0  0  2  0  0  0  0  0  0  0  0  0
   20.8346  -11.5676  -17.0845 N   0  0  0  0  0  0  0  0  0  0  0  0
   19.9631   -9.3438  -16.8896 C   0  0  0  0  0  0  0  0  0  0  0  0
   19.6442   -8.1878  -17.2699 O   0  0  0  0  0  0  0  0  0  0  0  0
   19.9160   -9.6017  -15.5016 N   0  0  0  0  0  0  0  0  0  0  0  0
   19.4776   -8.6254  -14.5263 C   0  0  1  0  0  0  0  0  0  0  0  0
   18.9386   -9.2876  -13.2701 C   0  0  0  0  0  0  0  0  0  0  0  0
   18.6376   -8.1082  -11.9555 S   0  0  0  0  0  0  0  0  0  0  0  0
   20.6277   -7.7669  -14.1631 C   0  0  0  0  0  0  0  0  0  0  0  0
   21.7475   -8.2868  -13.9585 O   0  0  0  0  0  0  0  0  0  0  0  0
   23.6021   -5.9417  -15.3506 O   0  0  0  0  0  0  0  0  0  0  0  0
   22.2476   -5.6445  -15.5259 C   0  0  0  0  0  0  0  0  0  0  0  0
   21.6689   -5.4664  -14.1286 C   0  0  2  0  0  0  0  0  0  0  0  0
   20.5310   -6.3574  -14.0310 N   0  0  0  0  0  0  0  0  0  0  0  0
   21.2132   -4.0779  -13.9076 C   0  0  0  0  0  0  0  0  0  0  0  0
   22.0619   -3.1423  -13.3827 O   0  0  0  0  0  0  0  0  0  0  0  0
   20.0413   -3.7524  -14.2023 O   0  0  0  0  0  0  0  0  0  0  0  0
  2  1  1  1
  3  2  1  0
  4  6  1  0
  4  2  1  0
  4  5  1  1
  6  7  2  0
  8  9  1  0
  8  6  1  0
  9 12  1  0
 10 11  1  0
  9 10  1  1
 12 13  2  0
 12 17  1  0
 14 15  1  0
 16 15  1  6
 16 18  1  0
 17 16  1  0
 18 20  2  0
 18 19  1  0
M  END
$$$$
