FMW.pdb
     RDKit          3D

 34 36  0  0  1  0  0  0  0  0999 V2000
   27.7274  -19.1923  -16.1696 N   0  0  0  0  0  0  0  0  0  0  0  0
   28.1168  -18.3822  -15.0418 C   0  0  1  0  0  0  0  0  0  0  0  0
   27.9885  -16.9396  -15.5263 C   0  0  0  0  0  0  0  0  0  0  0  0
   28.9006  -16.8047  -16.6924 C   0  0  0  0  0  0  0  0  0  0  0  0
   30.2863  -16.9077  -16.5317 C   0  0  0  0  0  0  0  0  0  0  0  0
   31.1630  -16.7929  -17.5994 C   0  0  0  0  0  0  0  0  0  0  0  0
   30.6720  -16.5695  -18.8683 C   0  0  0  0  0  0  0  0  0  0  0  0
   29.2993  -16.4638  -19.0552 C   0  0  0  0  0  0  0  0  0  0  0  0
   28.4536  -16.5821  -17.9761 C   0  0  0  0  0  0  0  0  0  0  0  0
   27.2931  -18.6100  -13.8370 C   0  0  0  0  0  0  0  0  0  0  0  0
   27.3525  -17.8265  -12.8934 O   0  0  0  0  0  0  0  0  0  0  0  0
   20.4735  -21.9037  -11.5013 C   0  0  0  0  0  0  0  0  0  0  0  0
   21.7477  -21.7749  -12.7762 S   0  0  0  0  0  0  0  0  0  0  0  0
   23.1924  -20.8405  -12.1727 C   0  0  0  0  0  0  0  0  0  0  0  0
   24.2358  -20.6957  -13.2615 C   0  0  0  0  0  0  0  0  0  0  0  0
   25.4671  -19.9784  -12.7725 C   0  0  2  0  0  0  0  0  0  0  0  0
   26.4414  -19.7127  -13.7732 N   0  0  0  0  0  0  0  0  0  0  0  0
   26.0358  -20.8111  -11.6935 C   0  0  0  0  0  0  0  0  0  0  0  0
   26.3357  -22.0079  -11.9579 O   0  0  0  0  0  0  0  0  0  0  0  0
   26.2451  -20.3132  -10.3788 N   0  0  0  0  0  0  0  0  0  0  0  0
   26.3836  -21.2569   -9.2577 C   0  0  1  0  0  0  0  0  0  0  0  0
   27.6889  -21.0602   -8.5913 C   0  0  0  0  0  0  0  0  0  0  0  0
   27.6009  -20.1214   -7.4680 C   0  0  0  0  0  0  0  0  0  0  0  0
   26.8911  -18.9647   -7.3686 C   0  0  0  0  0  0  0  0  0  0  0  0
   27.1500  -18.3914   -6.1632 N   0  0  0  0  0  0  0  0  0  0  0  0
   28.0163  -19.1659   -5.4827 C   0  0  0  0  0  0  0  0  0  0  0  0
   28.5842  -19.0429   -4.2101 C   0  0  0  0  0  0  0  0  0  0  0  0
   29.4367  -19.9883   -3.7152 C   0  0  0  0  0  0  0  0  0  0  0  0
   29.7272  -21.0889   -4.5320 C   0  0  0  0  0  0  0  0  0  0  0  0
   29.1710  -21.2048   -5.7829 C   0  0  0  0  0  0  0  0  0  0  0  0
   28.3106  -20.2447   -6.2703 C   0  0  0  0  0  0  0  0  0  0  0  0
   25.1649  -21.1402   -8.4701 C   0  0  0  0  0  0  0  0  0  0  0  0
   24.3152  -20.2635   -8.7207 O   0  0  0  0  0  0  0  0  0  0  0  0
   24.8586  -21.9915   -7.3870 O   0  0  0  0  0  0  0  0  0  0  0  0
  2  1  1  6
  3  2  1  0
  4  3  1  0
  4  5  2  0
  6  5  1  0
  7  6  2  0
  8  9  2  0
  8  7  1  0
  9  4  1  0
 10 11  2  0
 10  2  1  0
 13 12  1  0
 14 13  1  0
 15 14  1  0
 16 15  1  6
 16 17  1  0
 17 10  1  0
 18 16  1  0
 19 18  2  0
 20 18  1  0
 21 20  1  0
 22 23  1  0
 21 22  1  1
 23 31  1  0
 24 23  2  0
 24 25  1  0
 25 26  1  0
 26 27  1  0
 27 28  2  0
 29 28  1  0
 30 29  2  0
 31 26  2  0
 31 30  1  0
 32 34  1  0
 32 21  1  0
 33 32  2  0
M  END
$$$$
