FMW.pdb
     RDKit          3D

 34 36  0  0  1  0  0  0  0  0999 V2000
   27.4036  -18.2672  -20.7755 N   0  0  0  0  0  0  0  0  0  0  0  0
   27.0359  -17.9285  -19.4228 C   0  0  1  0  0  0  0  0  0  0  0  0
   26.0264  -16.7906  -19.5590 C   0  0  0  0  0  0  0  0  0  0  0  0
   26.7700  -15.6338  -20.1236 C   0  0  0  0  0  0  0  0  0  0  0  0
   26.4012  -15.0785  -21.3534 C   0  0  0  0  0  0  0  0  0  0  0  0
   27.0701  -13.9961  -21.9039 C   0  0  0  0  0  0  0  0  0  0  0  0
   28.1359  -13.4356  -21.2325 C   0  0  0  0  0  0  0  0  0  0  0  0
   28.5222  -13.9681  -20.0087 C   0  0  0  0  0  0  0  0  0  0  0  0
   27.8391  -15.0429  -19.4873 C   0  0  0  0  0  0  0  0  0  0  0  0
   26.4595  -19.0582  -18.6657 C   0  0  0  0  0  0  0  0  0  0  0  0
   25.6328  -19.7960  -19.1948 O   0  0  0  0  0  0  0  0  0  0  0  0
   27.4177  -23.8753  -15.3829 C   0  0  0  0  0  0  0  0  0  0  0  0
   28.4617  -22.8266  -16.4201 S   0  0  0  0  0  0  0  0  0  0  0  0
   28.6298  -21.1554  -15.7104 C   0  0  0  0  0  0  0  0  0  0  0  0
   27.2795  -20.6036  -15.3015 C   0  0  0  0  0  0  0  0  0  0  0  0
   26.3980  -20.3272  -16.4918 C   0  0  2  0  0  0  0  0  0  0  0  0
   26.8596  -19.2922  -17.3501 N   0  0  0  0  0  0  0  0  0  0  0  0
   25.0594  -20.0077  -15.9560 C   0  0  0  0  0  0  0  0  0  0  0  0
   24.9421  -19.0025  -15.2024 O   0  0  0  0  0  0  0  0  0  0  0  0
   23.9137  -20.7945  -16.2535 N   0  0  0  0  0  0  0  0  0  0  0  0
   22.6196  -20.4552  -15.6394 C   0  0  1  0  0  0  0  0  0  0  0  0
   21.8411  -19.5886  -16.5501 C   0  0  0  0  0  0  0  0  0  0  0  0
   20.4952  -19.3136  -16.0365 C   0  0  0  0  0  0  0  0  0  0  0  0
   20.0565  -18.2582  -15.2980 C   0  0  0  0  0  0  0  0  0  0  0  0
   18.7428  -18.4443  -15.0010 N   0  0  0  0  0  0  0  0  0  0  0  0
   18.3281  -19.6059  -15.5415 C   0  0  0  0  0  0  0  0  0  0  0  0
   17.0843  -20.2463  -15.5472 C   0  0  0  0  0  0  0  0  0  0  0  0
   16.8959  -21.4327  -16.1971 C   0  0  0  0  0  0  0  0  0  0  0  0
   17.9981  -21.9907  -16.8579 C   0  0  0  0  0  0  0  0  0  0  0  0
   19.2193  -21.3614  -16.8472 C   0  0  0  0  0  0  0  0  0  0  0  0
   19.3962  -20.1634  -16.1890 C   0  0  0  0  0  0  0  0  0  0  0  0
   22.0363  -21.7113  -15.1909 C   0  0  0  0  0  0  0  0  0  0  0  0
   21.4059  -21.7842  -14.1182 O   0  0  0  0  0  0  0  0  0  0  0  0
   22.1372  -22.9156  -15.9196 O   0  0  0  0  0  0  0  0  0  0  0  0
  2  1  1  6
  3  2  1  0
  4  3  1  0
  4  5  2  0
  6  5  1  0
  7  6  2  0
  8  9  2  0
  8  7  1  0
  9  4  1  0
 10 11  2  0
 10  2  1  0
 13 12  1  0
 14 13  1  0
 15 14  1  0
 16 15  1  1
 16 17  1  0
 17 10  1  0
 18 16  1  0
 19 18  2  0
 20 18  1  0
 21 20  1  0
 22 23  1  0
 21 22  1  6
 23 31  1  0
 24 23  2  0
 24 25  1  0
 25 26  1  0
 26 27  1  0
 27 28  2  0
 29 28  1  0
 30 29  2  0
 31 26  2  0
 31 30  1  0
 32 34  1  0
 32 21  1  0
 33 32  2  0
M  END
$$$$
