FMW.pdb
     RDKit          3D

 34 36  0  0  1  0  0  0  0  0999 V2000
   26.0190  -18.1050  -16.6309 N   0  0  0  0  0  0  0  0  0  0  0  0
   26.4583  -18.5872  -15.3447 C   0  0  1  0  0  0  0  0  0  0  0  0
   27.6311  -17.6867  -14.9627 C   0  0  0  0  0  0  0  0  0  0  0  0
   28.7238  -17.9886  -15.9243 C   0  0  0  0  0  0  0  0  0  0  0  0
   29.4338  -19.1912  -15.8449 C   0  0  0  0  0  0  0  0  0  0  0  0
   30.4537  -19.5052  -16.7299 C   0  0  0  0  0  0  0  0  0  0  0  0
   30.7938  -18.6158  -17.7269 C   0  0  0  0  0  0  0  0  0  0  0  0
   30.1036  -17.4141  -17.8280 C   0  0  0  0  0  0  0  0  0  0  0  0
   29.0959  -17.1300  -16.9351 C   0  0  0  0  0  0  0  0  0  0  0  0
   25.4060  -18.5521  -14.3087 C   0  0  0  0  0  0  0  0  0  0  0  0
   24.5488  -17.6732  -14.3313 O   0  0  0  0  0  0  0  0  0  0  0  0
   22.3643  -24.2192  -14.6632 C   0  0  0  0  0  0  0  0  0  0  0  0
   21.9704  -22.6641  -13.8314 S   0  0  0  0  0  0  0  0  0  0  0  0
   23.4851  -21.7882  -13.3187 C   0  0  0  0  0  0  0  0  0  0  0  0
   23.1537  -20.4256  -12.7455 C   0  0  0  0  0  0  0  0  0  0  0  0
   24.3879  -19.6834  -12.3028 C   0  0  2  0  0  0  0  0  0  0  0  0
   25.3812  -19.5224  -13.3071 N   0  0  0  0  0  0  0  0  0  0  0  0
   24.9275  -20.4225  -11.1437 C   0  0  0  0  0  0  0  0  0  0  0  0
   25.4716  -21.5422  -11.3501 O   0  0  0  0  0  0  0  0  0  0  0  0
   24.8458  -19.9202   -9.8166 N   0  0  0  0  0  0  0  0  0  0  0  0
   25.3321  -20.7428   -8.6969 C   0  0  1  0  0  0  0  0  0  0  0  0
   25.9516  -19.8793   -7.6687 C   0  0  0  0  0  0  0  0  0  0  0  0
   27.3835  -20.1520   -7.5065 C   0  0  0  0  0  0  0  0  0  0  0  0
   28.2522  -20.7302   -8.3798 C   0  0  0  0  0  0  0  0  0  0  0  0
   29.4718  -20.8295   -7.7869 N   0  0  0  0  0  0  0  0  0  0  0  0
   29.4007  -20.3197   -6.5424 C   0  0  0  0  0  0  0  0  0  0  0  0
   30.3600  -20.1664   -5.5357 C   0  0  0  0  0  0  0  0  0  0  0  0
   30.0508  -19.5863   -4.3385 C   0  0  0  0  0  0  0  0  0  0  0  0
   28.7321  -19.1517   -4.1513 C   0  0  0  0  0  0  0  0  0  0  0  0
   27.7915  -19.3073   -5.1404 C   0  0  0  0  0  0  0  0  0  0  0  0
   28.1164  -19.8927   -6.3451 C   0  0  0  0  0  0  0  0  0  0  0  0
   24.2281  -21.6118   -8.3162 C   0  0  0  0  0  0  0  0  0  0  0  0
   23.0444  -21.2805   -8.5226 O   0  0  0  0  0  0  0  0  0  0  0  0
   24.4087  -22.8676   -7.6984 O   0  0  0  0  0  0  0  0  0  0  0  0
  2  1  1  6
  3  2  1  0
  4  3  1  0
  4  5  2  0
  6  5  1  0
  7  6  2  0
  8  9  2  0
  8  7  1  0
  9  4  1  0
 10 11  2  0
 10  2  1  0
 13 12  1  0
 14 13  1  0
 15 14  1  0
 16 15  1  6
 16 17  1  0
 17 10  1  0
 18 16  1  0
 19 18  2  0
 20 18  1  0
 21 20  1  0
 22 23  1  0
 21 22  1  1
 23 31  1  0
 24 23  2  0
 24 25  1  0
 25 26  1  0
 26 27  1  0
 27 28  2  0
 29 28  1  0
 30 29  2  0
 31 26  2  0
 31 30  1  0
 32 34  1  0
 32 21  1  0
 33 32  2  0
M  END
$$$$
