FMW.pdb
     RDKit          3D

 34 36  0  0  1  0  0  0  0  0999 V2000
   32.6756  -34.3252  -16.4044 N   0  0  0  0  0  0  0  0  0  0  0  0
   32.6057  -33.2274  -17.3370 C   0  0  1  0  0  0  0  0  0  0  0  0
   33.3134  -33.7288  -18.5940 C   0  0  0  0  0  0  0  0  0  0  0  0
   34.7673  -33.7352  -18.2840 C   0  0  0  0  0  0  0  0  0  0  0  0
   35.5146  -32.5539  -18.3374 C   0  0  0  0  0  0  0  0  0  0  0  0
   36.8702  -32.5253  -18.0481 C   0  0  0  0  0  0  0  0  0  0  0  0
   37.5201  -33.6887  -17.6948 C   0  0  0  0  0  0  0  0  0  0  0  0
   36.8006  -34.8756  -17.6337 C   0  0  0  0  0  0  0  0  0  0  0  0
   35.4560  -34.8731  -17.9263 C   0  0  0  0  0  0  0  0  0  0  0  0
   31.2259  -32.7981  -17.6432 C   0  0  0  0  0  0  0  0  0  0  0  0
   30.3240  -33.6285  -17.7135 O   0  0  0  0  0  0  0  0  0  0  0  0
   26.0015  -30.3233  -16.6008 C   0  0  0  0  0  0  0  0  0  0  0  0
   27.4309  -31.1905  -15.9151 S   0  0  0  0  0  0  0  0  0  0  0  0
   28.9076  -30.1211  -15.9026 C   0  0  0  0  0  0  0  0  0  0  0  0
   29.2836  -29.7023  -17.3091 C   0  0  0  0  0  0  0  0  0  0  0  0
   29.6806  -30.8791  -18.1620 C   0  0  2  0  0  0  0  0  0  0  0  0
   30.9450  -31.4471  -17.8461 N   0  0  0  0  0  0  0  0  0  0  0  0
   29.6502  -30.4104  -19.5621 C   0  0  0  0  0  0  0  0  0  0  0  0
   30.6340  -29.7470  -19.9913 O   0  0  0  0  0  0  0  0  0  0  0  0
   28.5546  -30.6737  -20.4285 N   0  0  0  0  0  0  0  0  0  0  0  0
   28.5519  -30.1107  -21.7886 C   0  0  1  0  0  0  0  0  0  0  0  0
   28.9419  -31.1501  -22.7654 C   0  0  0  0  0  0  0  0  0  0  0  0
   28.9398  -30.6446  -24.1421 C   0  0  0  0  0  0  0  0  0  0  0  0
   29.9405  -30.0370  -24.8356 C   0  0  0  0  0  0  0  0  0  0  0  0
   29.4755  -29.6880  -26.0647 N   0  0  0  0  0  0  0  0  0  0  0  0
   28.1875  -30.0658  -26.1732 C   0  0  0  0  0  0  0  0  0  0  0  0
   27.2643  -29.9605  -27.2191 C   0  0  0  0  0  0  0  0  0  0  0  0
   25.9943  -30.4489  -27.1012 C   0  0  0  0  0  0  0  0  0  0  0  0
   25.6454  -31.0586  -25.8890 C   0  0  0  0  0  0  0  0  0  0  0  0
   26.5530  -31.1569  -24.8624 C   0  0  0  0  0  0  0  0  0  0  0  0
   27.8323  -30.6615  -24.9943 C   0  0  0  0  0  0  0  0  0  0  0  0
   27.2727  -29.4351  -21.9506 C   0  0  0  0  0  0  0  0  0  0  0  0
   27.0378  -28.7273  -22.9492 O   0  0  0  0  0  0  0  0  0  0  0  0
   26.2239  -29.5276  -21.0109 O   0  0  0  0  0  0  0  0  0  0  0  0
  2  1  1  1
  3  2  1  0
  4  3  1  0
  4  5  2  0
  6  5  1  0
  7  6  2  0
  8  9  2  0
  8  7  1  0
  9  4  1  0
 10 11  2  0
 10  2  1  0
 13 12  1  0
 14 13  1  0
 15 14  1  0
 16 15  1  1
 16 17  1  0
 17 10  1  0
 18 16  1  0
 19 18  2  0
 20 18  1  0
 21 20  1  0
 22 23  1  0
 21 22  1  6
 23 31  1  0
 24 23  2  0
 24 25  1  0
 25 26  1  0
 26 27  1  0
 27 28  2  0
 29 28  1  0
 30 29  2  0
 31 26  2  0
 31 30  1  0
 32 34  1  0
 32 21  1  0
 33 32  2  0
M  END
$$$$
