FMW.pdb
     RDKit          3D

 34 36  0  0  1  0  0  0  0  0999 V2000
   27.9312   -9.5854  -20.4872 N   0  0  0  0  0  0  0  0  0  0  0  0
   27.6067   -9.5954  -19.0821 C   0  0  1  0  0  0  0  0  0  0  0  0
   26.4400   -8.6207  -18.9373 C   0  0  0  0  0  0  0  0  0  0  0  0
   26.9870   -7.2659  -19.2118 C   0  0  0  0  0  0  0  0  0  0  0  0
   27.7138   -6.5772  -18.2350 C   0  0  0  0  0  0  0  0  0  0  0  0
   28.2422   -5.3157  -18.4617 C   0  0  0  0  0  0  0  0  0  0  0  0
   28.0552   -4.7039  -19.6830 C   0  0  0  0  0  0  0  0  0  0  0  0
   27.3373   -5.3668  -20.6707 C   0  0  0  0  0  0  0  0  0  0  0  0
   26.8247   -6.6183  -20.4165 C   0  0  0  0  0  0  0  0  0  0  0  0
   27.2454  -10.9320  -18.5676 C   0  0  0  0  0  0  0  0  0  0  0  0
   26.6336  -11.7218  -19.2816 O   0  0  0  0  0  0  0  0  0  0  0  0
   27.5100  -17.0721  -15.3594 C   0  0  0  0  0  0  0  0  0  0  0  0
   27.8646  -15.4403  -16.0499 S   0  0  0  0  0  0  0  0  0  0  0  0
   27.7693  -14.1468  -14.7683 C   0  0  0  0  0  0  0  0  0  0  0  0
   28.0726  -12.7827  -15.3536 C   0  0  0  0  0  0  0  0  0  0  0  0
   27.2952  -12.5249  -16.6182 C   0  0  2  0  0  0  0  0  0  0  0  0
   27.6052  -11.3009  -17.2715 N   0  0  0  0  0  0  0  0  0  0  0  0
   25.8663  -12.5761  -16.2489 C   0  0  0  0  0  0  0  0  0  0  0  0
   25.3871  -11.6181  -15.5818 O   0  0  0  0  0  0  0  0  0  0  0  0
   25.0259  -13.6638  -16.6107 N   0  0  0  0  0  0  0  0  0  0  0  0
   23.6293  -13.6890  -16.1463 C   0  0  1  0  0  0  0  0  0  0  0  0
   22.7466  -13.0894  -17.1700 C   0  0  0  0  0  0  0  0  0  0  0  0
   21.3267  -13.2549  -16.8421 C   0  0  0  0  0  0  0  0  0  0  0  0
   20.5572  -14.3757  -16.8978 C   0  0  0  0  0  0  0  0  0  0  0  0
   19.2822  -14.0520  -16.5538 N   0  0  0  0  0  0  0  0  0  0  0  0
   19.2208  -12.7361  -16.2742 C   0  0  0  0  0  0  0  0  0  0  0  0
   18.1675  -11.9136  -15.8603 C   0  0  0  0  0  0  0  0  0  0  0  0
   18.3566  -10.5843  -15.6103 C   0  0  0  0  0  0  0  0  0  0  0  0
   19.6476  -10.0697  -15.7875 C   0  0  0  0  0  0  0  0  0  0  0  0
   20.6790  -10.8792  -16.1978 C   0  0  0  0  0  0  0  0  0  0  0  0
   20.4757  -12.2198  -16.4453 C   0  0  0  0  0  0  0  0  0  0  0  0
   23.3695  -15.0503  -15.7009 C   0  0  0  0  0  0  0  0  0  0  0  0
   23.9416  -16.0233  -16.2295 O   0  0  0  0  0  0  0  0  0  0  0  0
   22.4705  -15.3660  -14.6599 O   0  0  0  0  0  0  0  0  0  0  0  0
  2  1  1  6
  3  2  1  0
  4  3  1  0
  4  5  2  0
  6  5  1  0
  7  6  2  0
  8  9  2  0
  8  7  1  0
  9  4  1  0
 10 11  2  0
 10  2  1  0
 13 12  1  0
 14 13  1  0
 15 14  1  0
 16 15  1  1
 16 17  1  0
 17 10  1  0
 18 16  1  0
 19 18  2  0
 20 18  1  0
 21 20  1  0
 22 23  1  0
 21 22  1  6
 23 31  1  0
 24 23  2  0
 24 25  1  0
 25 26  1  0
 26 27  1  0
 27 28  2  0
 29 28  1  0
 30 29  2  0
 31 26  2  0
 31 30  1  0
 32 34  1  0
 32 21  1  0
 33 32  2  0
M  END
$$$$
