FMW.pdb
     RDKit          3D

 34 36  0  0  1  0  0  0  0  0999 V2000
   26.2934  -19.7148  -18.1292 N   0  0  0  0  0  0  0  0  0  0  0  0
   26.1715  -19.9076  -16.7053 C   0  0  1  0  0  0  0  0  0  0  0  0
   26.0874  -18.4996  -16.1199 C   0  0  0  0  0  0  0  0  0  0  0  0
   27.3608  -17.8196  -16.4748 C   0  0  0  0  0  0  0  0  0  0  0  0
   27.3547  -16.5373  -17.0337 C   0  0  0  0  0  0  0  0  0  0  0  0
   28.5247  -15.8739  -17.3699 C   0  0  0  0  0  0  0  0  0  0  0  0
   29.7432  -16.4817  -17.1542 C   0  0  0  0  0  0  0  0  0  0  0  0
   29.7770  -17.7552  -16.5997 C   0  0  0  0  0  0  0  0  0  0  0  0
   28.5992  -18.3889  -16.2762 C   0  0  0  0  0  0  0  0  0  0  0  0
   24.9959  -20.7127  -16.3156 C   0  0  0  0  0  0  0  0  0  0  0  0
   24.0423  -20.8206  -17.0816 O   0  0  0  0  0  0  0  0  0  0  0  0
   24.1818  -26.4809  -16.6444 C   0  0  0  0  0  0  0  0  0  0  0  0
   25.7974  -25.7491  -16.2985 S   0  0  0  0  0  0  0  0  0  0  0  0
   25.6319  -24.2126  -15.3308 C   0  0  0  0  0  0  0  0  0  0  0  0
   24.2130  -23.6854  -15.3920 C   0  0  0  0  0  0  0  0  0  0  0  0
   24.0660  -22.3730  -14.6668 C   0  0  2  0  0  0  0  0  0  0  0  0
   24.9714  -21.3573  -15.0790 N   0  0  0  0  0  0  0  0  0  0  0  0
   24.2275  -22.6690  -13.2290 C   0  0  0  0  0  0  0  0  0  0  0  0
   23.4173  -23.4723  -12.6900 O   0  0  0  0  0  0  0  0  0  0  0  0
   25.2513  -22.0763  -12.4410 N   0  0  0  0  0  0  0  0  0  0  0  0
   24.8896  -21.1397  -11.3646 C   0  0  1  0  0  0  0  0  0  0  0  0
   25.8734  -20.0374  -11.3036 C   0  0  0  0  0  0  0  0  0  0  0  0
   27.1331  -20.4537  -10.6786 C   0  0  0  0  0  0  0  0  0  0  0  0
   28.2597  -20.9461  -11.2616 C   0  0  0  0  0  0  0  0  0  0  0  0
   29.1623  -21.2476  -10.2904 N   0  0  0  0  0  0  0  0  0  0  0  0
   28.6322  -20.9530   -9.0880 C   0  0  0  0  0  0  0  0  0  0  0  0
   29.1407  -21.0549   -7.7887 C   0  0  0  0  0  0  0  0  0  0  0  0
   28.4092  -20.6632   -6.7039 C   0  0  0  0  0  0  0  0  0  0  0  0
   27.1241  -20.1569   -6.9385 C   0  0  0  0  0  0  0  0  0  0  0  0
   26.6261  -20.0618   -8.2153 C   0  0  0  0  0  0  0  0  0  0  0  0
   27.3750  -20.4589   -9.3022 C   0  0  0  0  0  0  0  0  0  0  0  0
   23.4824  -20.8195  -11.5549 C   0  0  0  0  0  0  0  0  0  0  0  0
   23.0419  -20.4815  -12.6707 O   0  0  0  0  0  0  0  0  0  0  0  0
   22.5302  -20.8661  -10.5144 O   0  0  0  0  0  0  0  0  0  0  0  0
  2  1  1  6
  3  2  1  0
  4  3  1  0
  4  5  2  0
  6  5  1  0
  7  6  2  0
  8  9  2  0
  8  7  1  0
  9  4  1  0
 10 11  2  0
 10  2  1  0
 13 12  1  0
 14 13  1  0
 15 14  1  0
 16 15  1  6
 16 17  1  0
 17 10  1  0
 18 16  1  0
 19 18  2  0
 20 18  1  0
 21 20  1  0
 22 23  1  0
 21 22  1  6
 23 31  1  0
 24 23  2  0
 24 25  1  0
 25 26  1  0
 26 27  1  0
 27 28  2  0
 29 28  1  0
 30 29  2  0
 31 26  2  0
 31 30  1  0
 32 34  1  0
 32 21  1  0
 33 32  2  0
M  END
$$$$
