FMW.pdb
     RDKit          3D

 34 36  0  0  1  0  0  0  0  0999 V2000
   26.7547  -19.0155  -15.7541 N   0  0  0  0  0  0  0  0  0  0  0  0
   26.8466  -18.6226  -14.3696 C   0  0  1  0  0  0  0  0  0  0  0  0
   25.6123  -17.7590  -14.1193 C   0  0  0  0  0  0  0  0  0  0  0  0
   25.7584  -16.5565  -14.9811 C   0  0  0  0  0  0  0  0  0  0  0  0
   26.6386  -15.5278  -14.6293 C   0  0  0  0  0  0  0  0  0  0  0  0
   26.8023  -14.3968  -15.4142 C   0  0  0  0  0  0  0  0  0  0  0  0
   26.0826  -14.2636  -16.5826 C   0  0  0  0  0  0  0  0  0  0  0  0
   25.2018  -15.2714  -16.9550 C   0  0  0  0  0  0  0  0  0  0  0  0
   25.0604  -16.3825  -16.1557 C   0  0  0  0  0  0  0  0  0  0  0  0
   26.8920  -19.7636  -13.4325 C   0  0  0  0  0  0  0  0  0  0  0  0
   26.0541  -20.6578  -13.5103 O   0  0  0  0  0  0  0  0  0  0  0  0
   32.2732  -21.0656   -9.5764 C   0  0  0  0  0  0  0  0  0  0  0  0
   31.3458  -22.6112   -9.7045 S   0  0  0  0  0  0  0  0  0  0  0  0
   29.6051  -22.3010  -10.1495 C   0  0  0  0  0  0  0  0  0  0  0  0
   29.4933  -21.1423  -11.1191 C   0  0  0  0  0  0  0  0  0  0  0  0
   28.0616  -20.8464  -11.4833 C   0  0  2  0  0  0  0  0  0  0  0  0
   27.8917  -19.8294  -12.4621 N   0  0  0  0  0  0  0  0  0  0  0  0
   27.3760  -20.4855  -10.2261 C   0  0  0  0  0  0  0  0  0  0  0  0
   27.9666  -19.7096   -9.4252 O   0  0  0  0  0  0  0  0  0  0  0  0
   26.0889  -20.9869   -9.8909 N   0  0  0  0  0  0  0  0  0  0  0  0
   25.7627  -21.2688   -8.4835 C   0  0  1  0  0  0  0  0  0  0  0  0
   25.6504  -20.0024   -7.7285 C   0  0  0  0  0  0  0  0  0  0  0  0
   26.9443  -19.5549   -7.2028 C   0  0  0  0  0  0  0  0  0  0  0  0
   27.7789  -18.5919   -7.6802 C   0  0  0  0  0  0  0  0  0  0  0  0
   28.8946  -18.5519   -6.9041 N   0  0  0  0  0  0  0  0  0  0  0  0
   28.7884  -19.4759   -5.9302 C   0  0  0  0  0  0  0  0  0  0  0  0
   29.6374  -19.8284   -4.8755 C   0  0  0  0  0  0  0  0  0  0  0  0
   29.2967  -20.8025   -3.9809 C   0  0  0  0  0  0  0  0  0  0  0  0
   28.0631  -21.4423   -4.1594 C   0  0  0  0  0  0  0  0  0  0  0  0
   27.2334  -21.0966   -5.1983 C   0  0  0  0  0  0  0  0  0  0  0  0
   27.5879  -20.1105   -6.0936 C   0  0  0  0  0  0  0  0  0  0  0  0
   24.6298  -22.1829   -8.5001 C   0  0  0  0  0  0  0  0  0  0  0  0
   24.1799  -22.6348   -9.5709 O   0  0  0  0  0  0  0  0  0  0  0  0
   23.9690  -22.6181   -7.3315 O   0  0  0  0  0  0  0  0  0  0  0  0
  2  1  1  6
  3  2  1  0
  4  3  1  0
  4  5  2  0
  6  5  1  0
  7  6  2  0
  8  9  2  0
  8  7  1  0
  9  4  1  0
 10 11  2  0
 10  2  1  0
 13 12  1  0
 14 13  1  0
 15 14  1  0
 16 15  1  1
 16 17  1  0
 17 10  1  0
 18 16  1  0
 19 18  2  0
 20 18  1  0
 21 20  1  0
 22 23  1  0
 21 22  1  1
 23 31  1  0
 24 23  2  0
 24 25  1  0
 25 26  1  0
 26 27  1  0
 27 28  2  0
 29 28  1  0
 30 29  2  0
 31 26  2  0
 31 30  1  0
 32 34  1  0
 32 21  1  0
 33 32  2  0
M  END
$$$$
