FMW.pdb
     RDKit          3D

 34 36  0  0  1  0  0  0  0  0999 V2000
   19.4541  -20.8932  -13.4704 N   0  0  0  0  0  0  0  0  0  0  0  0
   20.7579  -20.2780  -13.5087 C   0  0  1  0  0  0  0  0  0  0  0  0
   20.5157  -18.8123  -13.1549 C   0  0  0  0  0  0  0  0  0  0  0  0
   19.7659  -18.2226  -14.2951 C   0  0  0  0  0  0  0  0  0  0  0  0
   20.4404  -17.7473  -15.4246 C   0  0  0  0  0  0  0  0  0  0  0  0
   19.7703  -17.1977  -16.5066 C   0  0  0  0  0  0  0  0  0  0  0  0
   18.3946  -17.1080  -16.4870 C   0  0  0  0  0  0  0  0  0  0  0  0
   17.7005  -17.5734  -15.3770 C   0  0  0  0  0  0  0  0  0  0  0  0
   18.3930  -18.1140  -14.3179 C   0  0  0  0  0  0  0  0  0  0  0  0
   21.7294  -20.8919  -12.5806 C   0  0  0  0  0  0  0  0  0  0  0  0
   21.3671  -21.7700  -11.8024 O   0  0  0  0  0  0  0  0  0  0  0  0
   23.9175  -24.5569  -15.7735 C   0  0  0  0  0  0  0  0  0  0  0  0
   25.5045  -24.4692  -14.9137 S   0  0  0  0  0  0  0  0  0  0  0  0
   25.4428  -23.2772  -13.5353 C   0  0  0  0  0  0  0  0  0  0  0  0
   24.2577  -22.3446  -13.6798 C   0  0  0  0  0  0  0  0  0  0  0  0
   24.2115  -21.3150  -12.5808 C   0  0  2  0  0  0  0  0  0  0  0  0
   23.0616  -20.4791  -12.5925 N   0  0  0  0  0  0  0  0  0  0  0  0
   25.4453  -20.5132  -12.7064 C   0  0  0  0  0  0  0  0  0  0  0  0
   25.8314  -20.1886  -13.8631 O   0  0  0  0  0  0  0  0  0  0  0  0
   26.2070  -20.1078  -11.5769 N   0  0  0  0  0  0  0  0  0  0  0  0
   27.6323  -20.4663  -11.4949 C   0  0  1  0  0  0  0  0  0  0  0  0
   27.8514  -21.4098  -10.3776 C   0  0  0  0  0  0  0  0  0  0  0  0
   27.1771  -20.9786   -9.1486 C   0  0  0  0  0  0  0  0  0  0  0  0
   25.8452  -20.8686   -8.8929 C   0  0  0  0  0  0  0  0  0  0  0  0
   25.6772  -20.3791   -7.6355 N   0  0  0  0  0  0  0  0  0  0  0  0
   26.8851  -20.1745   -7.0763 C   0  0  0  0  0  0  0  0  0  0  0  0
   27.2670  -19.7066   -5.8143 C   0  0  0  0  0  0  0  0  0  0  0  0
   28.5819  -19.6055   -5.4592 C   0  0  0  0  0  0  0  0  0  0  0  0
   29.5397  -19.9846   -6.4088 C   0  0  0  0  0  0  0  0  0  0  0  0
   29.1616  -20.4399   -7.6486 C   0  0  0  0  0  0  0  0  0  0  0  0
   27.8311  -20.5391   -7.9944 C   0  0  0  0  0  0  0  0  0  0  0  0
   28.0350  -20.8578  -12.8379 C   0  0  0  0  0  0  0  0  0  0  0  0
   28.6601  -21.9165  -13.0420 O   0  0  0  0  0  0  0  0  0  0  0  0
   27.7547  -20.0865  -13.9859 O   0  0  0  0  0  0  0  0  0  0  0  0
  2  1  1  1
  3  2  1  0
  4  3  1  0
  4  5  2  0
  6  5  1  0
  7  6  2  0
  8  9  2  0
  8  7  1  0
  9  4  1  0
 10 11  2  0
 10  2  1  0
 13 12  1  0
 14 13  1  0
 15 14  1  0
 16 15  1  6
 16 17  1  0
 17 10  1  0
 18 16  1  0
 19 18  2  0
 20 18  1  0
 21 20  1  0
 22 23  1  0
 21 22  1  1
 23 31  1  0
 24 23  2  0
 24 25  1  0
 25 26  1  0
 26 27  1  0
 27 28  2  0
 29 28  1  0
 30 29  2  0
 31 26  2  0
 31 30  1  0
 32 34  1  0
 32 21  1  0
 33 32  2  0
M  END
$$$$
