FMW.pdb
     RDKit          3D

 34 36  0  0  1  0  0  0  0  0999 V2000
   25.1475  -17.6606  -15.9855 N   0  0  0  0  0  0  0  0  0  0  0  0
   25.9754  -18.3857  -15.0535 C   0  0  1  0  0  0  0  0  0  0  0  0
   26.9283  -17.3423  -14.4742 C   0  0  0  0  0  0  0  0  0  0  0  0
   27.9112  -17.0298  -15.5448 C   0  0  0  0  0  0  0  0  0  0  0  0
   28.0715  -15.7196  -16.0076 C   0  0  0  0  0  0  0  0  0  0  0  0
   28.9834  -15.3945  -16.9999 C   0  0  0  0  0  0  0  0  0  0  0  0
   29.7663  -16.3810  -17.5610 C   0  0  0  0  0  0  0  0  0  0  0  0
   29.6270  -17.6907  -17.1187 C   0  0  0  0  0  0  0  0  0  0  0  0
   28.7133  -17.9831  -16.1321 C   0  0  0  0  0  0  0  0  0  0  0  0
   25.2120  -19.0567  -13.9817 C   0  0  0  0  0  0  0  0  0  0  0  0
   24.2851  -18.4723  -13.4275 O   0  0  0  0  0  0  0  0  0  0  0  0
   24.8758  -25.0495  -14.9886 C   0  0  0  0  0  0  0  0  0  0  0  0
   23.8275  -23.6287  -15.3731 S   0  0  0  0  0  0  0  0  0  0  0  0
   23.4215  -22.6822  -13.8685 C   0  0  0  0  0  0  0  0  0  0  0  0
   24.6300  -22.5623  -12.9628 C   0  0  0  0  0  0  0  0  0  0  0  0
   24.9144  -21.1314  -12.5864 C   0  0  2  0  0  0  0  0  0  0  0  0
   25.5393  -20.3585  -13.6029 N   0  0  0  0  0  0  0  0  0  0  0  0
   25.7522  -21.1770  -11.3711 C   0  0  0  0  0  0  0  0  0  0  0  0
   27.0047  -21.1045  -11.5062 O   0  0  0  0  0  0  0  0  0  0  0  0
   25.1970  -21.3072  -10.0692 N   0  0  0  0  0  0  0  0  0  0  0  0
   26.0912  -21.3991   -8.9035 C   0  0  1  0  0  0  0  0  0  0  0  0
   26.9979  -20.2315   -8.8703 C   0  0  0  0  0  0  0  0  0  0  0  0
   28.1305  -20.4359   -7.9612 C   0  0  0  0  0  0  0  0  0  0  0  0
   29.2883  -21.1191   -8.1715 C   0  0  0  0  0  0  0  0  0  0  0  0
   30.0293  -21.0910   -7.0318 N   0  0  0  0  0  0  0  0  0  0  0  0
   29.3643  -20.3955   -6.0897 C   0  0  0  0  0  0  0  0  0  0  0  0
   29.6855  -20.0606   -4.7699 C   0  0  0  0  0  0  0  0  0  0  0  0
   28.8439  -19.3097   -3.9998 C   0  0  0  0  0  0  0  0  0  0  0  0
   27.6401  -18.8877   -4.5791 C   0  0  0  0  0  0  0  0  0  0  0  0
   27.3258  -19.2215   -5.8741 C   0  0  0  0  0  0  0  0  0  0  0  0
   28.1844  -19.9785   -6.6417 C   0  0  0  0  0  0  0  0  0  0  0  0
   25.2397  -21.6638   -7.7529 C   0  0  0  0  0  0  0  0  0  0  0  0
   25.6100  -22.4223   -6.8360 O   0  0  0  0  0  0  0  0  0  0  0  0
   23.9585  -21.0947   -7.5907 O   0  0  0  0  0  0  0  0  0  0  0  0
  2  1  1  6
  3  2  1  0
  4  3  1  0
  4  5  2  0
  6  5  1  0
  7  6  2  0
  8  9  2  0
  8  7  1  0
  9  4  1  0
 10 11  2  0
 10  2  1  0
 13 12  1  0
 14 13  1  0
 15 14  1  0
 16 15  1  6
 16 17  1  0
 17 10  1  0
 18 16  1  0
 19 18  2  0
 20 18  1  0
 21 20  1  0
 22 23  1  0
 21 22  1  1
 23 31  1  0
 24 23  2  0
 24 25  1  0
 25 26  1  0
 26 27  1  0
 27 28  2  0
 29 28  1  0
 30 29  2  0
 31 26  2  0
 31 30  1  0
 32 34  1  0
 32 21  1  0
 33 32  2  0
M  END
$$$$
