FMW.pdb
     RDKit          3D

 34 36  0  0  1  0  0  0  0  0999 V2000
   28.0395  -21.7916  -16.6190 N   0  0  0  0  0  0  0  0  0  0  0  0
   27.5891  -20.7735  -15.7023 C   0  0  1  0  0  0  0  0  0  0  0  0
   26.8766  -19.7416  -16.5740 C   0  0  0  0  0  0  0  0  0  0  0  0
   27.9185  -18.7835  -17.0285 C   0  0  0  0  0  0  0  0  0  0  0  0
   28.5035  -18.9105  -18.2927 C   0  0  0  0  0  0  0  0  0  0  0  0
   29.4728  -18.0302  -18.7484 C   0  0  0  0  0  0  0  0  0  0  0  0
   29.8866  -16.9900  -17.9436 C   0  0  0  0  0  0  0  0  0  0  0  0
   29.3208  -16.8413  -16.6834 C   0  0  0  0  0  0  0  0  0  0  0  0
   28.3607  -17.7307  -16.2583 C   0  0  0  0  0  0  0  0  0  0  0  0
   26.6910  -21.2834  -14.6463 C   0  0  0  0  0  0  0  0  0  0  0  0
   25.9837  -22.2642  -14.8602 O   0  0  0  0  0  0  0  0  0  0  0  0
   25.9266  -18.8118   -7.8061 C   0  0  0  0  0  0  0  0  0  0  0  0
   26.2376  -20.5485   -8.1968 S   0  0  0  0  0  0  0  0  0  0  0  0
   25.5038  -21.0050   -9.8023 C   0  0  0  0  0  0  0  0  0  0  0  0
   26.4356  -20.6502  -10.9429 C   0  0  0  0  0  0  0  0  0  0  0  0
   25.8618  -21.0347  -12.2819 C   0  0  2  0  0  0  0  0  0  0  0  0
   26.6507  -20.6548  -13.4019 N   0  0  0  0  0  0  0  0  0  0  0  0
   24.5194  -20.4234  -12.3531 C   0  0  0  0  0  0  0  0  0  0  0  0
   24.4311  -19.2161  -12.7093 O   0  0  0  0  0  0  0  0  0  0  0  0
   23.3377  -21.1433  -12.0279 N   0  0  0  0  0  0  0  0  0  0  0  0
   22.0392  -20.6799  -12.5435 C   0  0  1  0  0  0  0  0  0  0  0  0
   22.1052  -20.5281  -14.0129 C   0  0  0  0  0  0  0  0  0  0  0  0
   20.8143  -20.1350  -14.5873 C   0  0  0  0  0  0  0  0  0  0  0  0
   19.6288  -19.9063  -13.9598 C   0  0  0  0  0  0  0  0  0  0  0  0
   18.6848  -19.6161  -14.8943 N   0  0  0  0  0  0  0  0  0  0  0  0
   19.2479  -19.6523  -16.1170 C   0  0  0  0  0  0  0  0  0  0  0  0
   18.7301  -19.4171  -17.3952 C   0  0  0  0  0  0  0  0  0  0  0  0
   19.5178  -19.4915  -18.5085 C   0  0  0  0  0  0  0  0  0  0  0  0
   20.8681  -19.8170  -18.3253 C   0  0  0  0  0  0  0  0  0  0  0  0
   21.3727  -20.0513  -17.0692 C   0  0  0  0  0  0  0  0  0  0  0  0
   20.5678  -19.9714  -15.9532 C   0  0  0  0  0  0  0  0  0  0  0  0
   21.0320  -21.5606  -11.9700 C   0  0  0  0  0  0  0  0  0  0  0  0
   21.2474  -22.7794  -11.8235 O   0  0  0  0  0  0  0  0  0  0  0  0
   19.7631  -21.1124  -11.5452 O   0  0  0  0  0  0  0  0  0  0  0  0
  2  1  1  6
  3  2  1  0
  4  3  1  0
  4  5  2  0
  6  5  1  0
  7  6  2  0
  8  9  2  0
  8  7  1  0
  9  4  1  0
 10 11  2  0
 10  2  1  0
 13 12  1  0
 14 13  1  0
 15 14  1  0
 16 15  1  1
 16 17  1  0
 17 10  1  0
 18 16  1  0
 19 18  2  0
 20 18  1  0
 21 20  1  0
 22 23  1  0
 21 22  1  6
 23 31  1  0
 24 23  2  0
 24 25  1  0
 25 26  1  0
 26 27  1  0
 27 28  2  0
 29 28  1  0
 30 29  2  0
 31 26  2  0
 31 30  1  0
 32 34  1  0
 32 21  1  0
 33 32  2  0
M  END
$$$$
