FMW.pdb
     RDKit          3D

 34 36  0  0  1  0  0  0  0  0999 V2000
   27.9095  -21.1405  -15.9758 N   0  0  0  0  0  0  0  0  0  0  0  0
   27.7707  -20.4335  -14.7265 C   0  0  1  0  0  0  0  0  0  0  0  0
   27.1776  -19.0772  -15.1020 C   0  0  0  0  0  0  0  0  0  0  0  0
   28.1838  -18.4018  -15.9630 C   0  0  0  0  0  0  0  0  0  0  0  0
   27.8064  -17.8074  -17.1717 C   0  0  0  0  0  0  0  0  0  0  0  0
   28.7191  -17.1648  -17.9940 C   0  0  0  0  0  0  0  0  0  0  0  0
   30.0460  -17.0995  -17.6254 C   0  0  0  0  0  0  0  0  0  0  0  0
   30.4469  -17.6816  -16.4293 C   0  0  0  0  0  0  0  0  0  0  0  0
   29.5182  -18.3126  -15.6337 C   0  0  0  0  0  0  0  0  0  0  0  0
   26.9156  -21.1303  -13.7441 C   0  0  0  0  0  0  0  0  0  0  0  0
   26.1037  -21.9707  -14.1212 O   0  0  0  0  0  0  0  0  0  0  0  0
   27.9183  -20.4602   -7.2634 C   0  0  0  0  0  0  0  0  0  0  0  0
   26.1692  -20.9134   -7.2376 S   0  0  0  0  0  0  0  0  0  0  0  0
   25.5538  -21.2638   -8.9178 C   0  0  0  0  0  0  0  0  0  0  0  0
   26.5568  -20.8221   -9.9638 C   0  0  0  0  0  0  0  0  0  0  0  0
   26.1091  -21.1720  -11.3592 C   0  0  2  0  0  0  0  0  0  0  0  0
   27.0349  -20.8387  -12.3854 N   0  0  0  0  0  0  0  0  0  0  0  0
   24.8201  -20.4830  -11.5703 C   0  0  0  0  0  0  0  0  0  0  0  0
   24.7502  -19.2518  -11.3028 O   0  0  0  0  0  0  0  0  0  0  0  0
   23.6664  -21.1590  -12.0522 N   0  0  0  0  0  0  0  0  0  0  0  0
   22.4228  -20.4045  -12.2772 C   0  0  1  0  0  0  0  0  0  0  0  0
   22.6742  -19.2840  -13.2088 C   0  0  0  0  0  0  0  0  0  0  0  0
   22.0180  -19.4841  -14.5050 C   0  0  0  0  0  0  0  0  0  0  0  0
   20.6988  -19.3869  -14.8241 C   0  0  0  0  0  0  0  0  0  0  0  0
   20.5381  -19.7087  -16.1354 N   0  0  0  0  0  0  0  0  0  0  0  0
   21.7385  -20.0097  -16.6666 C   0  0  0  0  0  0  0  0  0  0  0  0
   22.1253  -20.3828  -17.9582 C   0  0  0  0  0  0  0  0  0  0  0  0
   23.4338  -20.6186  -18.2706 C   0  0  0  0  0  0  0  0  0  0  0  0
   24.3793  -20.4769  -17.2464 C   0  0  0  0  0  0  0  0  0  0  0  0
   23.9958  -20.1142  -15.9781 C   0  0  0  0  0  0  0  0  0  0  0  0
   22.6721  -19.8773  -15.6758 C   0  0  0  0  0  0  0  0  0  0  0  0
   21.4023  -21.3864  -12.6142 C   0  0  0  0  0  0  0  0  0  0  0  0
   21.7079  -22.5049  -13.0713 O   0  0  0  0  0  0  0  0  0  0  0  0
   20.0199  -21.1530  -12.4527 O   0  0  0  0  0  0  0  0  0  0  0  0
  2  1  1  6
  3  2  1  0
  4  3  1  0
  4  5  2  0
  6  5  1  0
  7  6  2  0
  8  9  2  0
  8  7  1  0
  9  4  1  0
 10 11  2  0
 10  2  1  0
 13 12  1  0
 14 13  1  0
 15 14  1  0
 16 15  1  1
 16 17  1  0
 17 10  1  0
 18 16  1  0
 19 18  2  0
 20 18  1  0
 21 20  1  0
 22 23  1  0
 21 22  1  6
 23 31  1  0
 24 23  2  0
 24 25  1  0
 25 26  1  0
 26 27  1  0
 27 28  2  0
 29 28  1  0
 30 29  2  0
 31 26  2  0
 31 30  1  0
 32 34  1  0
 32 21  1  0
 33 32  2  0
M  END
$$$$
