FMW.pdb
     RDKit          3D

 34 36  0  0  1  0  0  0  0  0999 V2000
   15.4471  -15.0653    4.2935 N   0  0  0  0  0  0  0  0  0  0  0  0
   16.3544  -16.1635    4.0687 C   0  0  1  0  0  0  0  0  0  0  0  0
   17.5666  -15.8631    4.9475 C   0  0  0  0  0  0  0  0  0  0  0  0
   18.3090  -14.7627    4.2784 C   0  0  0  0  0  0  0  0  0  0  0  0
   18.4659  -13.5219    4.9051 C   0  0  0  0  0  0  0  0  0  0  0  0
   19.1576  -12.4778    4.3107 C   0  0  0  0  0  0  0  0  0  0  0  0
   19.7157  -12.6489    3.0616 C   0  0  0  0  0  0  0  0  0  0  0  0
   19.5748  -13.8719    2.4177 C   0  0  0  0  0  0  0  0  0  0  0  0
   18.8826  -14.8899    3.0326 C   0  0  0  0  0  0  0  0  0  0  0  0
   15.7783  -17.4836    4.3965 C   0  0  0  0  0  0  0  0  0  0  0  0
   14.9858  -17.5954    5.3277 O   0  0  0  0  0  0  0  0  0  0  0  0
   14.3946  -21.7279   -1.1062 C   0  0  0  0  0  0  0  0  0  0  0  0
   15.6016  -21.8311    0.2347 S   0  0  0  0  0  0  0  0  0  0  0  0
   15.1901  -20.6748    1.5831 C   0  0  0  0  0  0  0  0  0  0  0  0
   16.0687  -20.9202    2.7926 C   0  0  0  0  0  0  0  0  0  0  0  0
   15.7738  -19.9542    3.9106 C   0  0  2  0  0  0  0  0  0  0  0  0
   16.1292  -18.6038    3.6433 N   0  0  0  0  0  0  0  0  0  0  0  0
   16.4882  -20.4599    5.1000 C   0  0  0  0  0  0  0  0  0  0  0  0
   17.6719  -20.0693    5.2966 O   0  0  0  0  0  0  0  0  0  0  0  0
   15.8925  -21.3699    6.0150 N   0  0  0  0  0  0  0  0  0  0  0  0
   16.6658  -21.8472    7.1729 C   0  0  1  0  0  0  0  0  0  0  0  0
   15.8874  -21.6511    8.4147 C   0  0  0  0  0  0  0  0  0  0  0  0
   16.5788  -22.1873    9.5918 C   0  0  0  0  0  0  0  0  0  0  0  0
   17.6975  -21.7269   10.2148 C   0  0  0  0  0  0  0  0  0  0  0  0
   18.0111  -22.5688   11.2354 N   0  0  0  0  0  0  0  0  0  0  0  0
   17.1064  -23.5653   11.2797 C   0  0  0  0  0  0  0  0  0  0  0  0
   16.9626  -24.6640   12.1339 C   0  0  0  0  0  0  0  0  0  0  0  0
   15.9286  -25.5452   11.9944 C   0  0  0  0  0  0  0  0  0  0  0  0
   15.0146  -25.3118   10.9585 C   0  0  0  0  0  0  0  0  0  0  0  0
   15.1608  -24.2342   10.1189 C   0  0  0  0  0  0  0  0  0  0  0  0
   16.2078  -23.3509   10.2711 C   0  0  0  0  0  0  0  0  0  0  0  0
   17.1281  -23.1854    6.8342 C   0  0  0  0  0  0  0  0  0  0  0  0
   16.5360  -23.8773    5.9832 O   0  0  0  0  0  0  0  0  0  0  0  0
   18.2565  -23.7885    7.4295 O   0  0  0  0  0  0  0  0  0  0  0  0
  2  1  1  1
  3  2  1  0
  4  3  1  0
  4  5  2  0
  6  5  1  0
  7  6  2  0
  8  9  2  0
  8  7  1  0
  9  4  1  0
 10 11  2  0
 10  2  1  0
 13 12  1  0
 14 13  1  0
 15 14  1  0
 16 15  1  6
 16 17  1  0
 17 10  1  0
 18 16  1  0
 19 18  2  0
 20 18  1  0
 21 20  1  0
 22 23  1  0
 21 22  1  1
 23 31  1  0
 24 23  2  0
 24 25  1  0
 25 26  1  0
 26 27  1  0
 27 28  2  0
 29 28  1  0
 30 29  2  0
 31 26  2  0
 31 30  1  0
 32 34  1  0
 32 21  1  0
 33 32  2  0
M  END
$$$$
