FMW.pdb
     RDKit          3D

 34 36  0  0  1  0  0  0  0  0999 V2000
   27.7128  -21.2351  -16.3368 N   0  0  0  0  0  0  0  0  0  0  0  0
   27.5754  -20.4243  -15.1521 C   0  0  1  0  0  0  0  0  0  0  0  0
   26.8302  -19.1730  -15.6119 C   0  0  0  0  0  0  0  0  0  0  0  0
   27.7499  -18.4484  -16.5279 C   0  0  0  0  0  0  0  0  0  0  0  0
   28.9903  -17.9855  -16.0763 C   0  0  0  0  0  0  0  0  0  0  0  0
   29.8728  -17.3121  -16.9067 C   0  0  0  0  0  0  0  0  0  0  0  0
   29.5345  -17.0815  -18.2232 C   0  0  0  0  0  0  0  0  0  0  0  0
   28.3083  -17.5314  -18.6970 C   0  0  0  0  0  0  0  0  0  0  0  0
   27.4529  -18.1969  -17.8491 C   0  0  0  0  0  0  0  0  0  0  0  0
   26.8508  -21.0975  -14.0550 C   0  0  0  0  0  0  0  0  0  0  0  0
   25.9542  -21.8971  -14.3090 O   0  0  0  0  0  0  0  0  0  0  0  0
   26.0945  -21.3416   -6.0865 C   0  0  0  0  0  0  0  0  0  0  0  0
   27.0294  -20.7351   -7.5091 S   0  0  0  0  0  0  0  0  0  0  0  0
   26.2436  -21.2353   -9.0765 C   0  0  0  0  0  0  0  0  0  0  0  0
   27.0786  -20.7992  -10.2630 C   0  0  0  0  0  0  0  0  0  0  0  0
   26.4248  -21.1511  -11.5740 C   0  0  2  0  0  0  0  0  0  0  0  0
   27.1896  -20.8303  -12.7287 N   0  0  0  0  0  0  0  0  0  0  0  0
   25.1242  -20.4519  -11.5941 C   0  0  0  0  0  0  0  0  0  0  0  0
   25.1003  -19.2266  -11.2937 O   0  0  0  0  0  0  0  0  0  0  0  0
   23.9110  -21.1121  -11.9296 N   0  0  0  0  0  0  0  0  0  0  0  0
   22.6604  -20.3396  -12.0064 C   0  0  1  0  0  0  0  0  0  0  0  0
   22.8467  -19.1643  -12.8841 C   0  0  0  0  0  0  0  0  0  0  0  0
   22.0723  -19.2719  -14.1250 C   0  0  0  0  0  0  0  0  0  0  0  0
   20.7565  -19.5753  -14.2929 C   0  0  0  0  0  0  0  0  0  0  0  0
   20.4801  -19.6143  -15.6236 N   0  0  0  0  0  0  0  0  0  0  0  0
   21.6013  -19.3370  -16.3160 C   0  0  0  0  0  0  0  0  0  0  0  0
   21.8548  -19.2334  -17.6879 C   0  0  0  0  0  0  0  0  0  0  0  0
   23.0943  -18.9104  -18.1618 C   0  0  0  0  0  0  0  0  0  0  0  0
   24.1092  -18.6892  -17.2215 C   0  0  0  0  0  0  0  0  0  0  0  0
   23.8581  -18.7956  -15.8750 C   0  0  0  0  0  0  0  0  0  0  0  0
   22.6023  -19.1205  -15.4093 C   0  0  0  0  0  0  0  0  0  0  0  0
   21.6071  -21.2942  -12.3200 C   0  0  0  0  0  0  0  0  0  0  0  0
   21.8384  -22.3097  -13.0046 O   0  0  0  0  0  0  0  0  0  0  0  0
   20.2734  -21.1469  -11.8829 O   0  0  0  0  0  0  0  0  0  0  0  0
  2  1  1  6
  3  2  1  0
  4  3  1  0
  4  5  2  0
  6  5  1  0
  7  6  2  0
  8  9  2  0
  8  7  1  0
  9  4  1  0
 10 11  2  0
 10  2  1  0
 13 12  1  0
 14 13  1  0
 15 14  1  0
 16 15  1  1
 16 17  1  0
 17 10  1  0
 18 16  1  0
 19 18  2  0
 20 18  1  0
 21 20  1  0
 22 23  1  0
 21 22  1  6
 23 31  1  0
 24 23  2  0
 24 25  1  0
 25 26  1  0
 26 27  1  0
 27 28  2  0
 29 28  1  0
 30 29  2  0
 31 26  2  0
 31 30  1  0
 32 34  1  0
 32 21  1  0
 33 32  2  0
M  END
$$$$
