FMW.pdb
     RDKit          3D

 34 36  0  0  1  0  0  0  0  0999 V2000
   21.0274   -4.2502  -20.8823 N   0  0  0  0  0  0  0  0  0  0  0  0
   20.0099   -4.6203  -19.9297 C   0  0  1  0  0  0  0  0  0  0  0  0
   19.8855   -6.1375  -20.0512 C   0  0  0  0  0  0  0  0  0  0  0  0
   19.1716   -6.4002  -21.3284 C   0  0  0  0  0  0  0  0  0  0  0  0
   17.7739   -6.3822  -21.3826 C   0  0  0  0  0  0  0  0  0  0  0  0
   17.0786   -6.6169  -22.5588 C   0  0  0  0  0  0  0  0  0  0  0  0
   17.7696   -6.8787  -23.7228 C   0  0  0  0  0  0  0  0  0  0  0  0
   19.1585   -6.9020  -23.6961 C   0  0  0  0  0  0  0  0  0  0  0  0
   19.8213   -6.6652  -22.5136 C   0  0  0  0  0  0  0  0  0  0  0  0
   20.3268   -4.2256  -18.5420 C   0  0  0  0  0  0  0  0  0  0  0  0
   21.4880   -4.2538  -18.1439 O   0  0  0  0  0  0  0  0  0  0  0  0
   17.4966   -0.6128  -12.0224 C   0  0  0  0  0  0  0  0  0  0  0  0
   17.2020   -1.1348  -13.7271 S   0  0  0  0  0  0  0  0  0  0  0  0
   18.5873   -2.1382  -14.3584 C   0  0  0  0  0  0  0  0  0  0  0  0
   18.3174   -2.6015  -15.7753 C   0  0  0  0  0  0  0  0  0  0  0  0
   19.4416   -3.4452  -16.3178 C   0  0  2  0  0  0  0  0  0  0  0  0
   19.3070   -3.8137  -17.6843 N   0  0  0  0  0  0  0  0  0  0  0  0
   19.5200   -4.6420  -15.4561 C   0  0  0  0  0  0  0  0  0  0  0  0
   18.6639   -5.5542  -15.6216 O   0  0  0  0  0  0  0  0  0  0  0  0
   20.5143   -4.7919  -14.4516 N   0  0  0  0  0  0  0  0  0  0  0  0
   20.6061   -6.0558  -13.7026 C   0  0  1  0  0  0  0  0  0  0  0  0
   21.9933   -6.2657  -13.2357 C   0  0  0  0  0  0  0  0  0  0  0  0
   22.1272   -7.4823  -12.4278 C   0  0  0  0  0  0  0  0  0  0  0  0
   22.3591   -8.7608  -12.8321 C   0  0  0  0  0  0  0  0  0  0  0  0
   22.3539   -9.5748  -11.7430 N   0  0  0  0  0  0  0  0  0  0  0  0
   22.1241   -8.8362  -10.6407 C   0  0  0  0  0  0  0  0  0  0  0  0
   22.0377   -9.1750   -9.2861 C   0  0  0  0  0  0  0  0  0  0  0  0
   21.8160   -8.2284   -8.3269 C   0  0  0  0  0  0  0  0  0  0  0  0
   21.6733   -6.9002   -8.7492 C   0  0  0  0  0  0  0  0  0  0  0  0
   21.7547   -6.5711  -10.0806 C   0  0  0  0  0  0  0  0  0  0  0  0
   21.9806   -7.5356  -11.0389 C   0  0  0  0  0  0  0  0  0  0  0  0
   19.5285   -6.0321  -12.7242 C   0  0  0  0  0  0  0  0  0  0  0  0
   19.2085   -4.9781  -12.1409 O   0  0  0  0  0  0  0  0  0  0  0  0
   18.7801   -7.1745  -12.3689 O   0  0  0  0  0  0  0  0  0  0  0  0
  2  1  1  6
  3  2  1  0
  4  3  1  0
  4  5  2  0
  6  5  1  0
  7  6  2  0
  8  9  2  0
  8  7  1  0
  9  4  1  0
 10 11  2  0
 10  2  1  0
 13 12  1  0
 14 13  1  0
 15 14  1  0
 16 15  1  1
 16 17  1  0
 17 10  1  0
 18 16  1  0
 19 18  2  0
 20 18  1  0
 21 20  1  0
 22 23  1  0
 21 22  1  1
 23 31  1  0
 24 23  2  0
 24 25  1  0
 25 26  1  0
 26 27  1  0
 27 28  2  0
 29 28  1  0
 30 29  2  0
 31 26  2  0
 31 30  1  0
 32 34  1  0
 32 21  1  0
 33 32  2  0
M  END
$$$$
