QED.pdb
     RDKit          3D

 27 26  0  0  1  0  0  0  0  0999 V2000
   17.5876  -14.2437   10.7610 N   0  0  0  0  0  0  0  0  0  0  0  0
   17.0064  -15.5452   10.6240 C   0  0  0  0  0  0  0  0  0  0  0  0
   17.7984  -16.4916   10.4406 O   0  0  0  0  0  0  0  0  0  0  0  0
   15.5610  -15.7257   10.6940 C   0  0  0  0  0  0  0  0  0  0  0  0
   14.9947  -15.4774   12.0567 C   0  0  0  0  0  0  0  0  0  0  0  0
   13.5203  -15.6516   12.1366 C   0  0  2  0  0  0  0  0  0  0  0  0
   12.7462  -14.9617   11.1508 N   0  0  0  0  0  0  0  0  0  0  0  0
   13.0410  -15.3194   13.5292 C   0  0  0  0  0  0  0  0  0  0  0  0
   13.2706  -14.1684   14.0149 O   0  0  0  0  0  0  0  0  0  0  0  0
   12.3388  -16.2043   14.3590 N   0  0  0  0  0  0  0  0  0  0  0  0
   12.0044  -15.8585   15.7418 C   0  0  1  0  0  0  0  0  0  0  0  0
   10.8763  -16.6586   16.2589 C   0  0  0  0  0  0  0  0  0  0  0  0
    9.6219  -16.4190   15.4723 C   0  0  0  0  0  0  0  0  0  0  0  0
    8.4820  -17.2422   16.0265 C   0  0  0  0  0  0  0  0  0  0  0  0
    7.3651  -17.0957   15.4969 O   0  0  0  0  0  0  0  0  0  0  0  0
   13.2004  -15.9409   16.5932 C   0  0  0  0  0  0  0  0  0  0  0  0
   14.3555  -16.1877   16.1964 O   0  0  0  0  0  0  0  0  0  0  0  0
    8.6325  -18.1259   17.0699 O   0  0  0  0  0  0  0  0  0  0  0  0
   13.0815  -15.7263   18.0155 N   0  0  0  0  0  0  0  0  0  0  0  0
   14.2694  -15.5675   18.8688 C   0  0  1  0  0  0  0  0  0  0  0  0
   15.0341  -14.4247   18.2967 C   0  0  0  0  0  0  0  0  0  0  0  0
   16.2446  -14.0206   19.0037 C   0  0  0  0  0  0  0  0  0  0  0  0
   16.5780  -14.7487   20.0037 O   0  0  0  0  0  0  0  0  0  0  0  0
   13.8391  -15.3740   20.2791 C   0  0  0  0  0  0  0  0  0  0  0  0
   12.5011  -15.2738   20.5925 O   0  0  0  0  0  0  0  0  0  0  0  0
   17.0697  -12.9636   18.7381 O   0  0  0  0  0  0  0  0  0  0  0  0
   14.6489  -15.2919   21.2424 O   0  0  0  0  0  0  0  0  0  0  0  0
  2  4  1  0
  2  1  1  0
  3  2  2  0
  5  6  1  0
  5  4  1  0
  6  7  1  6
  6  8  1  0
  8  9  2  0
 10  8  1  0
 10 11  1  0
 11 16  1  0
 11 12  1  1
 13 12  1  0
 13 14  1  0
 14 15  2  0
 16 17  2  0
 18 14  1  0
 19 20  1  0
 19 16  1  0
 20 24  1  0
 20 21  1  6
 22 21  1  0
 23 22  2  0
 24 27  2  0
 24 25  1  0
 26 22  1  0
M  END
$$$$
