QED.pdb
     RDKit          3D

 27 26  0  0  1  0  0  0  0  0999 V2000
    1.9562  -21.2073   23.2654 N   0  0  0  0  0  0  0  0  0  0  0  0
    1.5140  -20.2536   22.2932 C   0  0  0  0  0  0  0  0  0  0  0  0
    0.2821  -20.1732   22.1129 O   0  0  0  0  0  0  0  0  0  0  0  0
    2.4752  -19.4355   21.5627 C   0  0  0  0  0  0  0  0  0  0  0  0
    3.8994  -19.7375   21.9088 C   0  0  0  0  0  0  0  0  0  0  0  0
    4.8818  -18.8288   21.2610 C   0  0  2  0  0  0  0  0  0  0  0  0
    5.0335  -18.9651   19.8448 N   0  0  0  0  0  0  0  0  0  0  0  0
    6.2158  -18.9363   21.9597 C   0  0  0  0  0  0  0  0  0  0  0  0
    6.6403  -20.0742   22.3318 O   0  0  0  0  0  0  0  0  0  0  0  0
    7.0544  -17.8489   22.2409 N   0  0  0  0  0  0  0  0  0  0  0  0
    8.3353  -18.0245   22.9280 C   0  0  1  0  0  0  0  0  0  0  0  0
    9.3028  -16.9640   22.5826 C   0  0  0  0  0  0  0  0  0  0  0  0
   10.5939  -17.1292   23.3278 C   0  0  0  0  0  0  0  0  0  0  0  0
   11.5857  -16.0664   22.9142 C   0  0  0  0  0  0  0  0  0  0  0  0
   11.9536  -15.2610   23.7891 O   0  0  0  0  0  0  0  0  0  0  0  0
    8.1246  -18.1552   24.3774 C   0  0  0  0  0  0  0  0  0  0  0  0
    7.3763  -17.4366   25.0675 O   0  0  0  0  0  0  0  0  0  0  0  0
   12.0835  -15.9611   21.6362 O   0  0  0  0  0  0  0  0  0  0  0  0
    8.8192  -19.1863   25.1105 N   0  0  0  0  0  0  0  0  0  0  0  0
    8.7115  -19.2913   26.5740 C   0  0  1  0  0  0  0  0  0  0  0  0
    8.2688  -20.6857   26.8525 C   0  0  0  0  0  0  0  0  0  0  0  0
    8.2229  -21.0966   28.2517 C   0  0  0  0  0  0  0  0  0  0  0  0
    7.8358  -22.2982   28.4696 O   0  0  0  0  0  0  0  0  0  0  0  0
   10.0149  -18.9260   27.1901 C   0  0  0  0  0  0  0  0  0  0  0  0
   10.1643  -18.9293   28.5598 O   0  0  0  0  0  0  0  0  0  0  0  0
    8.5386  -20.3642   29.3620 O   0  0  0  0  0  0  0  0  0  0  0  0
   11.0297  -18.6009   26.5156 O   0  0  0  0  0  0  0  0  0  0  0  0
  2  4  1  0
  2  1  1  0
  3  2  2  0
  5  6  1  0
  5  4  1  0
  6  7  1  6
  6  8  1  0
  8  9  2  0
 10  8  1  0
 10 11  1  0
 11 16  1  0
 11 12  1  1
 13 12  1  0
 13 14  1  0
 14 15  2  0
 16 17  2  0
 18 14  1  0
 19 20  1  0
 19 16  1  0
 20 24  1  0
 20 21  1  6
 22 21  1  0
 23 22  2  0
 24 27  2  0
 24 25  1  0
 26 22  1  0
M  END
$$$$
