QED.pdb
     RDKit          3D

 27 26  0  0  1  0  0  0  0  0999 V2000
    6.7202  -12.5247   18.6354 N   0  0  0  0  0  0  0  0  0  0  0  0
    6.8568  -13.1197   17.3401 C   0  0  0  0  0  0  0  0  0  0  0  0
    6.2364  -12.5705   16.4074 O   0  0  0  0  0  0  0  0  0  0  0  0
    7.6805  -14.3081   17.1505 C   0  0  0  0  0  0  0  0  0  0  0  0
    8.2801  -14.8265   18.4197 C   0  0  0  0  0  0  0  0  0  0  0  0
    9.0980  -16.0551   18.2411 C   0  0  2  0  0  0  0  0  0  0  0  0
    8.6180  -17.0023   17.2821 N   0  0  0  0  0  0  0  0  0  0  0  0
    9.3315  -16.7129   19.5797 C   0  0  0  0  0  0  0  0  0  0  0  0
    8.3385  -17.0357   20.3030 O   0  0  0  0  0  0  0  0  0  0  0  0
   10.5953  -17.0087   20.1090 N   0  0  0  0  0  0  0  0  0  0  0  0
   10.8039  -18.1435   21.0102 C   0  0  1  0  0  0  0  0  0  0  0  0
   10.4096  -19.4254   20.3927 C   0  0  0  0  0  0  0  0  0  0  0  0
    9.5143  -20.2217   21.2950 C   0  0  0  0  0  0  0  0  0  0  0  0
    9.7519  -21.7023   21.1071 C   0  0  0  0  0  0  0  0  0  0  0  0
    9.0875  -22.4792   21.8173 O   0  0  0  0  0  0  0  0  0  0  0  0
   12.1868  -18.1521   21.5101 C   0  0  0  0  0  0  0  0  0  0  0  0
   13.1456  -18.7425   20.9763 O   0  0  0  0  0  0  0  0  0  0  0  0
   10.6545  -22.2084   20.2007 O   0  0  0  0  0  0  0  0  0  0  0  0
   12.5151  -17.4320   22.7170 N   0  0  0  0  0  0  0  0  0  0  0  0
   13.8587  -16.8740   22.9354 C   0  0  1  0  0  0  0  0  0  0  0  0
   14.1275  -15.9868   21.7699 C   0  0  0  0  0  0  0  0  0  0  0  0
   15.4542  -15.3848   21.6907 C   0  0  0  0  0  0  0  0  0  0  0  0
   16.2475  -15.6493   22.6613 O   0  0  0  0  0  0  0  0  0  0  0  0
   13.8967  -16.1856   24.2531 C   0  0  0  0  0  0  0  0  0  0  0  0
   15.0992  -15.9533   24.8843 O   0  0  0  0  0  0  0  0  0  0  0  0
   15.9608  -14.5729   20.7146 O   0  0  0  0  0  0  0  0  0  0  0  0
   12.8616  -15.7862   24.8529 O   0  0  0  0  0  0  0  0  0  0  0  0
  2  4  1  0
  2  1  1  0
  3  2  2  0
  5  6  1  0
  5  4  1  0
  6  7  1  6
  6  8  1  0
  8  9  2  0
 10  8  1  0
 10 11  1  0
 11 16  1  0
 11 12  1  6
 13 12  1  0
 13 14  1  0
 14 15  2  0
 16 17  2  0
 18 14  1  0
 19 20  1  0
 19 16  1  0
 20 24  1  0
 20 21  1  6
 22 21  1  0
 23 22  2  0
 24 27  2  0
 24 25  1  0
 26 22  1  0
M  END
$$$$
