QED.pdb
     RDKit          3D

 27 26  0  0  1  0  0  0  0  0999 V2000
    8.7100  -12.7749   15.9640 N   0  0  0  0  0  0  0  0  0  0  0  0
    7.4220  -13.3491   16.2124 C   0  0  0  0  0  0  0  0  0  0  0  0
    6.8780  -13.9315   15.2524 O   0  0  0  0  0  0  0  0  0  0  0  0
    6.7995  -13.2397   17.5267 C   0  0  0  0  0  0  0  0  0  0  0  0
    7.7825  -13.2552   18.6548 C   0  0  0  0  0  0  0  0  0  0  0  0
    8.8024  -14.3319   18.5498 C   0  0  2  0  0  0  0  0  0  0  0  0
    8.6945  -15.1988   17.4166 N   0  0  0  0  0  0  0  0  0  0  0  0
    8.8433  -15.1244   19.8341 C   0  0  0  0  0  0  0  0  0  0  0  0
    8.9005  -14.5149   20.9470 O   0  0  0  0  0  0  0  0  0  0  0  0
    8.8215  -16.5241   19.9039 N   0  0  0  0  0  0  0  0  0  0  0  0
    8.9247  -17.2310   21.1820 C   0  0  1  0  0  0  0  0  0  0  0  0
    8.1392  -18.4811   21.1923 C   0  0  0  0  0  0  0  0  0  0  0  0
    6.7076  -18.2378   20.8169 C   0  0  0  0  0  0  0  0  0  0  0  0
    5.9517  -19.5437   20.7306 C   0  0  0  0  0  0  0  0  0  0  0  0
    4.8463  -19.5994   21.3002 O   0  0  0  0  0  0  0  0  0  0  0  0
   10.3359  -17.4404   21.5381 C   0  0  0  0  0  0  0  0  0  0  0  0
   11.1432  -18.1514   20.9092 O   0  0  0  0  0  0  0  0  0  0  0  0
    6.4312  -20.6455   20.0610 O   0  0  0  0  0  0  0  0  0  0  0  0
   10.8824  -16.7910   22.7055 N   0  0  0  0  0  0  0  0  0  0  0  0
   12.2778  -17.0057   23.1194 C   0  0  1  0  0  0  0  0  0  0  0  0
   13.0791  -15.9712   22.4083 C   0  0  0  0  0  0  0  0  0  0  0  0
   14.5249  -16.0085   22.6009 C   0  0  0  0  0  0  0  0  0  0  0  0
   15.0250  -17.1586   22.8628 O   0  0  0  0  0  0  0  0  0  0  0  0
   12.3662  -16.9389   24.6025 C   0  0  0  0  0  0  0  0  0  0  0  0
   11.2621  -16.5967   25.3523 O   0  0  0  0  0  0  0  0  0  0  0  0
   15.4161  -14.9739   22.5394 O   0  0  0  0  0  0  0  0  0  0  0  0
   13.4252  -17.1836   25.2422 O   0  0  0  0  0  0  0  0  0  0  0  0
  2  4  1  0
  2  1  1  0
  3  2  2  0
  5  6  1  0
  5  4  1  0
  6  7  1  6
  6  8  1  0
  8  9  2  0
 10  8  1  0
 10 11  1  0
 11 16  1  0
 11 12  1  6
 13 12  1  0
 13 14  1  0
 14 15  2  0
 16 17  2  0
 18 14  1  0
 19 20  1  0
 19 16  1  0
 20 24  1  0
 20 21  1  6
 22 21  1  0
 23 22  2  0
 24 27  2  0
 24 25  1  0
 26 22  1  0
M  END
$$$$
