QED.pdb
     RDKit          3D

 27 26  0  0  1  0  0  0  0  0999 V2000
    8.3251  -12.5331   21.1212 N   0  0  0  0  0  0  0  0  0  0  0  0
    7.5708  -12.5389   19.9041 C   0  0  0  0  0  0  0  0  0  0  0  0
    6.4596  -11.9725   19.9355 O   0  0  0  0  0  0  0  0  0  0  0  0
    8.0957  -13.1849   18.7065 C   0  0  0  0  0  0  0  0  0  0  0  0
    9.4854  -13.7137   18.8751 C   0  0  0  0  0  0  0  0  0  0  0  0
   10.0134  -14.4120   17.6734 C   0  0  2  0  0  0  0  0  0  0  0  0
    9.1434  -15.3705   17.0638 N   0  0  0  0  0  0  0  0  0  0  0  0
   11.3568  -15.0250   17.9875 C   0  0  0  0  0  0  0  0  0  0  0  0
   11.4749  -16.2888   18.0361 O   0  0  0  0  0  0  0  0  0  0  0  0
   12.5249  -14.2917   18.2373 N   0  0  0  0  0  0  0  0  0  0  0  0
   13.8420  -14.9307   18.2635 C   0  0  1  0  0  0  0  0  0  0  0  0
   14.8248  -14.2160   17.4249 C   0  0  0  0  0  0  0  0  0  0  0  0
   14.8523  -14.7537   16.0250 C   0  0  0  0  0  0  0  0  0  0  0  0
   16.2764  -14.9611   15.5635 C   0  0  0  0  0  0  0  0  0  0  0  0
   17.0038  -13.9534   15.4938 O   0  0  0  0  0  0  0  0  0  0  0  0
   14.2968  -15.1084   19.6505 C   0  0  0  0  0  0  0  0  0  0  0  0
   15.3817  -15.6137   19.9972 O   0  0  0  0  0  0  0  0  0  0  0  0
   16.7839  -16.1944   15.2262 O   0  0  0  0  0  0  0  0  0  0  0  0
   13.4534  -14.6784   20.7399 N   0  0  0  0  0  0  0  0  0  0  0  0
   13.8732  -14.8325   22.1415 C   0  0  1  0  0  0  0  0  0  0  0  0
   12.8743  -15.7407   22.7701 C   0  0  0  0  0  0  0  0  0  0  0  0
   13.1396  -16.1665   24.1401 C   0  0  0  0  0  0  0  0  0  0  0  0
   14.3210  -15.9362   24.5788 O   0  0  0  0  0  0  0  0  0  0  0  0
   15.2722  -15.3354   22.1829 C   0  0  0  0  0  0  0  0  0  0  0  0
   16.2276  -14.6789   22.9275 O   0  0  0  0  0  0  0  0  0  0  0  0
   12.2903  -16.7816   25.0171 O   0  0  0  0  0  0  0  0  0  0  0  0
   15.6553  -16.3613   21.5572 O   0  0  0  0  0  0  0  0  0  0  0  0
  2  4  1  0
  2  1  1  0
  3  2  2  0
  5  6  1  0
  5  4  1  0
  6  7  1  1
  6  8  1  0
  8  9  2  0
 10  8  1  0
 10 11  1  0
 11 16  1  0
 11 12  1  6
 13 12  1  0
 13 14  1  0
 14 15  2  0
 16 17  2  0
 18 14  1  0
 19 20  1  0
 19 16  1  0
 20 24  1  0
 20 21  1  6
 22 21  1  0
 23 22  2  0
 24 27  2  0
 24 25  1  0
 26 22  1  0
M  END
$$$$
