QED.pdb
     RDKit          3D

 27 26  0  0  1  0  0  0  0  0999 V2000
    7.8192  -12.4505   20.9757 N   0  0  0  0  0  0  0  0  0  0  0  0
    7.2599  -13.3884   20.0496 C   0  0  0  0  0  0  0  0  0  0  0  0
    6.0511  -13.6610   20.1956 O   0  0  0  0  0  0  0  0  0  0  0  0
    8.0839  -13.9826   19.0033 C   0  0  0  0  0  0  0  0  0  0  0  0
    9.5172  -13.5565   19.0595 C   0  0  0  0  0  0  0  0  0  0  0  0
   10.3352  -14.0439   17.9176 C   0  0  2  0  0  0  0  0  0  0  0  0
    9.8374  -15.1934   17.2263 N   0  0  0  0  0  0  0  0  0  0  0  0
   11.7611  -14.2581   18.3648 C   0  0  0  0  0  0  0  0  0  0  0  0
   12.3702  -13.3333   18.9871 O   0  0  0  0  0  0  0  0  0  0  0  0
   12.4940  -15.4324   18.1445 N   0  0  0  0  0  0  0  0  0  0  0  0
   13.8810  -15.5675   18.5933 C   0  0  1  0  0  0  0  0  0  0  0  0
   14.8299  -14.9007   17.6795 C   0  0  0  0  0  0  0  0  0  0  0  0
   16.2531  -15.1495   18.0821 C   0  0  0  0  0  0  0  0  0  0  0  0
   17.2036  -14.5157   17.0927 C   0  0  0  0  0  0  0  0  0  0  0  0
   18.2713  -14.0602   17.5420 O   0  0  0  0  0  0  0  0  0  0  0  0
   14.0146  -15.1138   19.9857 C   0  0  0  0  0  0  0  0  0  0  0  0
   13.6242  -14.0171   20.4299 O   0  0  0  0  0  0  0  0  0  0  0  0
   16.9362  -14.4271   15.7462 O   0  0  0  0  0  0  0  0  0  0  0  0
   14.6437  -15.9727   20.9601 N   0  0  0  0  0  0  0  0  0  0  0  0
   14.2153  -15.9778   22.3676 C   0  0  1  0  0  0  0  0  0  0  0  0
   12.7569  -16.2792   22.3501 C   0  0  0  0  0  0  0  0  0  0  0  0
   12.0874  -16.3758   23.6428 C   0  0  0  0  0  0  0  0  0  0  0  0
   12.8482  -16.3241   24.6723 O   0  0  0  0  0  0  0  0  0  0  0  0
   15.0359  -16.9580   23.1274 C   0  0  0  0  0  0  0  0  0  0  0  0
   15.9916  -17.7143   22.4847 O   0  0  0  0  0  0  0  0  0  0  0  0
   10.7518  -16.5160   23.8983 O   0  0  0  0  0  0  0  0  0  0  0  0
   14.9091  -17.1496   24.3675 O   0  0  0  0  0  0  0  0  0  0  0  0
  2  4  1  0
  2  1  1  0
  3  2  2  0
  5  6  1  0
  5  4  1  0
  6  7  1  1
  6  8  1  0
  8  9  2  0
 10  8  1  0
 10 11  1  0
 11 16  1  0
 11 12  1  6
 13 12  1  0
 13 14  1  0
 14 15  2  0
 16 17  2  0
 18 14  1  0
 19 20  1  0
 19 16  1  0
 20 24  1  0
 20 21  1  6
 22 21  1  0
 23 22  2  0
 24 27  2  0
 24 25  1  0
 26 22  1  0
M  END
$$$$
