QED.pdb
     RDKit          3D

 27 26  0  0  1  0  0  0  0  0999 V2000
    7.8364  -17.3237   16.0064 N   0  0  0  0  0  0  0  0  0  0  0  0
    8.7359  -16.2515   15.7037 C   0  0  0  0  0  0  0  0  0  0  0  0
    9.4112  -16.3694   14.6613 O   0  0  0  0  0  0  0  0  0  0  0  0
    8.8409  -15.0964   16.5877 C   0  0  0  0  0  0  0  0  0  0  0  0
    7.9082  -15.1536   17.7565 C   0  0  0  0  0  0  0  0  0  0  0  0
    7.9094  -13.9213   18.5882 C   0  0  2  0  0  0  0  0  0  0  0  0
    7.7615  -12.6830   17.8869 N   0  0  0  0  0  0  0  0  0  0  0  0
    9.1354  -13.9001   19.4689 C   0  0  0  0  0  0  0  0  0  0  0  0
   10.1244  -13.1687   19.1517 O   0  0  0  0  0  0  0  0  0  0  0  0
    9.2785  -14.6441   20.6482 N   0  0  0  0  0  0  0  0  0  0  0  0
   10.4717  -14.5291   21.4888 C   0  0  1  0  0  0  0  0  0  0  0  0
   10.2571  -15.0846   22.8399 C   0  0  0  0  0  0  0  0  0  0  0  0
   10.3065  -16.5836   22.8358 C   0  0  0  0  0  0  0  0  0  0  0  0
   10.0968  -17.1258   24.2308 C   0  0  0  0  0  0  0  0  0  0  0  0
   10.3391  -16.3591   25.1810 O   0  0  0  0  0  0  0  0  0  0  0  0
   11.6354  -15.1163   20.8082 C   0  0  0  0  0  0  0  0  0  0  0  0
   11.6164  -16.1356   20.0917 O   0  0  0  0  0  0  0  0  0  0  0  0
    9.6582  -18.4055   24.4805 O   0  0  0  0  0  0  0  0  0  0  0  0
   12.9325  -14.4993   20.9492 N   0  0  0  0  0  0  0  0  0  0  0  0
   14.1186  -15.0445   20.2707 C   0  0  1  0  0  0  0  0  0  0  0  0
   14.6083  -13.9632   19.3713 C   0  0  0  0  0  0  0  0  0  0  0  0
   15.7641  -14.2722   18.5362 C   0  0  0  0  0  0  0  0  0  0  0  0
   16.1865  -15.4805   18.5903 O   0  0  0  0  0  0  0  0  0  0  0  0
   15.1060  -15.4901   21.2895 C   0  0  0  0  0  0  0  0  0  0  0  0
   16.1707  -16.2863   20.9276 O   0  0  0  0  0  0  0  0  0  0  0  0
   16.4566  -13.4382   17.7035 O   0  0  0  0  0  0  0  0  0  0  0  0
   15.0293  -15.1756   22.5085 O   0  0  0  0  0  0  0  0  0  0  0  0
  2  4  1  0
  2  1  1  0
  3  2  2  0
  5  6  1  0
  5  4  1  0
  6  7  1  6
  6  8  1  0
  8  9  2  0
 10  8  1  0
 10 11  1  0
 11 16  1  0
 11 12  1  1
 13 12  1  0
 13 14  1  0
 14 15  2  0
 16 17  2  0
 18 14  1  0
 19 20  1  0
 19 16  1  0
 20 24  1  0
 20 21  1  6
 22 21  1  0
 23 22  2  0
 24 27  2  0
 24 25  1  0
 26 22  1  0
M  END
$$$$
