QED.pdb
     RDKit          3D

 27 26  0  0  1  0  0  0  0  0999 V2000
    6.7995  -13.0210   18.4538 N   0  0  0  0  0  0  0  0  0  0  0  0
    7.1690  -13.2530   17.0900 C   0  0  0  0  0  0  0  0  0  0  0  0
    6.4212  -12.7626   16.2199 O   0  0  0  0  0  0  0  0  0  0  0  0
    8.3593  -14.0297   16.7633 C   0  0  0  0  0  0  0  0  0  0  0  0
    9.0518  -14.5925   17.9645 C   0  0  0  0  0  0  0  0  0  0  0  0
    8.6542  -15.9877   18.2898 C   0  0  2  0  0  0  0  0  0  0  0  0
    7.2719  -16.1985   18.5934 N   0  0  0  0  0  0  0  0  0  0  0  0
    9.5369  -16.5278   19.3890 C   0  0  0  0  0  0  0  0  0  0  0  0
    9.2724  -16.2514   20.6003 O   0  0  0  0  0  0  0  0  0  0  0  0
   10.6615  -17.3375   19.1781 N   0  0  0  0  0  0  0  0  0  0  0  0
   11.4681  -17.8371   20.2932 C   0  0  1  0  0  0  0  0  0  0  0  0
   11.6489  -19.3015   20.2378 C   0  0  0  0  0  0  0  0  0  0  0  0
   11.8872  -19.8812   21.6005 C   0  0  0  0  0  0  0  0  0  0  0  0
   12.1009  -21.3747   21.5124 C   0  0  0  0  0  0  0  0  0  0  0  0
   13.0284  -21.8570   22.1880 O   0  0  0  0  0  0  0  0  0  0  0  0
   12.7421  -17.1070   20.3703 C   0  0  0  0  0  0  0  0  0  0  0  0
   13.4167  -16.7237   19.3953 O   0  0  0  0  0  0  0  0  0  0  0  0
   11.3250  -22.1990   20.7309 O   0  0  0  0  0  0  0  0  0  0  0  0
   13.3028  -16.7821   21.6599 N   0  0  0  0  0  0  0  0  0  0  0  0
   14.5720  -16.0480   21.7812 C   0  0  1  0  0  0  0  0  0  0  0  0
   14.3575  -14.7440   21.0946 C   0  0  0  0  0  0  0  0  0  0  0  0
   15.3429  -14.3566   20.0909 C   0  0  0  0  0  0  0  0  0  0  0  0
   16.3000  -15.1859   19.8971 O   0  0  0  0  0  0  0  0  0  0  0  0
   14.9377  -15.9328   23.2181 C   0  0  0  0  0  0  0  0  0  0  0  0
   14.0283  -16.2659   24.1981 O   0  0  0  0  0  0  0  0  0  0  0  0
   15.3783  -13.2212   19.3303 O   0  0  0  0  0  0  0  0  0  0  0  0
   16.0675  -15.5347   23.6127 O   0  0  0  0  0  0  0  0  0  0  0  0
  2  4  1  0
  2  1  1  0
  3  2  2  0
  5  6  1  0
  5  4  1  0
  6  7  1  1
  6  8  1  0
  8  9  2  0
 10  8  1  0
 10 11  1  0
 11 16  1  0
 11 12  1  6
 13 12  1  0
 13 14  1  0
 14 15  2  0
 16 17  2  0
 18 14  1  0
 19 20  1  0
 19 16  1  0
 20 24  1  0
 20 21  1  1
 22 21  1  0
 23 22  2  0
 24 27  2  0
 24 25  1  0
 26 22  1  0
M  END
$$$$
