QED.pdb
     RDKit          3D

 27 26  0  0  1  0  0  0  0  0999 V2000
    7.1855  -14.5323   15.9540 N   0  0  0  0  0  0  0  0  0  0  0  0
    7.6040  -13.4050   16.7314 C   0  0  0  0  0  0  0  0  0  0  0  0
    8.5269  -12.7130   16.2559 O   0  0  0  0  0  0  0  0  0  0  0  0
    6.9708  -13.1073   18.0110 C   0  0  0  0  0  0  0  0  0  0  0  0
    7.8370  -13.4176   19.1911 C   0  0  0  0  0  0  0  0  0  0  0  0
    8.2885  -14.8329   19.2506 C   0  0  2  0  0  0  0  0  0  0  0  0
    7.2968  -15.8268   18.9752 N   0  0  0  0  0  0  0  0  0  0  0  0
    8.9662  -15.0981   20.5733 C   0  0  0  0  0  0  0  0  0  0  0  0
    9.9194  -14.3491   20.9523 O   0  0  0  0  0  0  0  0  0  0  0  0
    8.6191  -16.1363   21.4487 N   0  0  0  0  0  0  0  0  0  0  0  0
    9.3915  -16.4078   22.6625 C   0  0  1  0  0  0  0  0  0  0  0  0
    8.7348  -17.4068   23.5291 C   0  0  0  0  0  0  0  0  0  0  0  0
    7.5531  -18.0348   22.8518 C   0  0  0  0  0  0  0  0  0  0  0  0
    6.9975  -19.1625   23.6906 C   0  0  0  0  0  0  0  0  0  0  0  0
    6.8394  -20.2629   23.1307 O   0  0  0  0  0  0  0  0  0  0  0  0
   10.7741  -16.7713   22.3184 C   0  0  0  0  0  0  0  0  0  0  0  0
   11.1307  -17.3574   21.2782 O   0  0  0  0  0  0  0  0  0  0  0  0
    6.6686  -19.0185   25.0186 O   0  0  0  0  0  0  0  0  0  0  0  0
   11.8464  -16.4449   23.2276 N   0  0  0  0  0  0  0  0  0  0  0  0
   13.2562  -16.5539   22.8210 C   0  0  1  0  0  0  0  0  0  0  0  0
   13.4186  -15.6373   21.6586 C   0  0  0  0  0  0  0  0  0  0  0  0
   14.7726  -15.4534   21.1472 C   0  0  0  0  0  0  0  0  0  0  0  0
   15.5855  -16.4216   21.3550 O   0  0  0  0  0  0  0  0  0  0  0  0
   14.1285  -16.2339   23.9822 C   0  0  0  0  0  0  0  0  0  0  0  0
   13.5777  -15.8199   25.1753 O   0  0  0  0  0  0  0  0  0  0  0  0
   15.2875  -14.3800   20.4754 O   0  0  0  0  0  0  0  0  0  0  0  0
   15.3863  -16.3194   23.9444 O   0  0  0  0  0  0  0  0  0  0  0  0
  2  4  1  0
  2  1  1  0
  3  2  2  0
  5  6  1  0
  5  4  1  0
  6  7  1  1
  6  8  1  0
  8  9  2  0
 10  8  1  0
 10 11  1  0
 11 16  1  0
 11 12  1  6
 13 12  1  0
 13 14  1  0
 14 15  2  0
 16 17  2  0
 18 14  1  0
 19 20  1  0
 19 16  1  0
 20 24  1  0
 20 21  1  6
 22 21  1  0
 23 22  2  0
 24 27  2  0
 24 25  1  0
 26 22  1  0
M  END
$$$$
