QED.pdb
     RDKit          3D

 27 26  0  0  1  0  0  0  0  0999 V2000
    5.7874  -13.6260   18.3890 N   0  0  0  0  0  0  0  0  0  0  0  0
    7.0216  -13.7801   17.6796 C   0  0  0  0  0  0  0  0  0  0  0  0
    6.9355  -13.9944   16.4535 O   0  0  0  0  0  0  0  0  0  0  0  0
    8.2981  -13.6915   18.3793 C   0  0  0  0  0  0  0  0  0  0  0  0
    8.1581  -13.3952   19.8393 C   0  0  0  0  0  0  0  0  0  0  0  0
    9.4549  -13.2825   20.5576 C   0  0  2  0  0  0  0  0  0  0  0  0
   10.3774  -12.3127   20.0519 N   0  0  0  0  0  0  0  0  0  0  0  0
   10.1027  -14.6423   20.6596 C   0  0  0  0  0  0  0  0  0  0  0  0
    9.4069  -15.6451   21.0114 O   0  0  0  0  0  0  0  0  0  0  0  0
   11.4534  -14.9003   20.3881 N   0  0  0  0  0  0  0  0  0  0  0  0
   12.0216  -16.2426   20.5257 C   0  0  1  0  0  0  0  0  0  0  0  0
   13.0553  -16.5172   19.5078 C   0  0  0  0  0  0  0  0  0  0  0  0
   13.4880  -17.9531   19.5324 C   0  0  0  0  0  0  0  0  0  0  0  0
   14.5258  -18.2134   18.4649 C   0  0  0  0  0  0  0  0  0  0  0  0
   15.7195  -18.0628   18.7839 O   0  0  0  0  0  0  0  0  0  0  0  0
   12.5017  -16.4565   21.8991 C   0  0  0  0  0  0  0  0  0  0  0  0
   13.1980  -15.6579   22.5548 O   0  0  0  0  0  0  0  0  0  0  0  0
   14.2047  -18.6016   17.1849 O   0  0  0  0  0  0  0  0  0  0  0  0
   12.1667  -17.6778   22.5913 N   0  0  0  0  0  0  0  0  0  0  0  0
   12.6003  -17.9175   23.9766 C   0  0  1  0  0  0  0  0  0  0  0  0
   11.3692  -18.2755   24.7343 C   0  0  0  0  0  0  0  0  0  0  0  0
   11.5303  -18.5702   26.1541 C   0  0  0  0  0  0  0  0  0  0  0  0
   12.7026  -18.3815   26.6352 O   0  0  0  0  0  0  0  0  0  0  0  0
   13.6547  -18.9663   23.9869 C   0  0  0  0  0  0  0  0  0  0  0  0
   14.7414  -18.8545   24.8265 O   0  0  0  0  0  0  0  0  0  0  0  0
   10.5918  -19.0237   27.0385 O   0  0  0  0  0  0  0  0  0  0  0  0
   13.6179  -19.9888   23.2496 O   0  0  0  0  0  0  0  0  0  0  0  0
  2  4  1  0
  2  1  1  0
  3  2  2  0
  5  6  1  0
  5  4  1  0
  6  7  1  6
  6  8  1  0
  8  9  2  0
 10  8  1  0
 10 11  1  0
 11 16  1  0
 11 12  1  6
 13 12  1  0
 13 14  1  0
 14 15  2  0
 16 17  2  0
 18 14  1  0
 19 20  1  0
 19 16  1  0
 20 24  1  0
 20 21  1  1
 22 21  1  0
 23 22  2  0
 24 27  2  0
 24 25  1  0
 26 22  1  0
M  END
$$$$
