QED.pdb
     RDKit          3D

 27 26  0  0  1  0  0  0  0  0999 V2000
    7.3189  -11.9137   20.0883 N   0  0  0  0  0  0  0  0  0  0  0  0
    7.0294  -13.2183   19.5740 C   0  0  0  0  0  0  0  0  0  0  0  0
    5.9373  -13.7192   19.9105 O   0  0  0  0  0  0  0  0  0  0  0  0
    7.9813  -13.9050   18.7085 C   0  0  0  0  0  0  0  0  0  0  0  0
    9.1942  -13.0884   18.3904 C   0  0  0  0  0  0  0  0  0  0  0  0
   10.2527  -13.8401   17.6658 C   0  0  2  0  0  0  0  0  0  0  0  0
    9.8407  -14.5366   16.4858 N   0  0  0  0  0  0  0  0  0  0  0  0
   10.9647  -14.7684   18.6199 C   0  0  0  0  0  0  0  0  0  0  0  0
   10.4752  -14.9809   19.7727 O   0  0  0  0  0  0  0  0  0  0  0  0
   12.1607  -15.4394   18.3303 N   0  0  0  0  0  0  0  0  0  0  0  0
   12.8358  -16.2712   19.3284 C   0  0  1  0  0  0  0  0  0  0  0  0
   12.7004  -17.7122   19.0364 C   0  0  0  0  0  0  0  0  0  0  0  0
   11.2920  -18.1873   19.2375 C   0  0  0  0  0  0  0  0  0  0  0  0
   11.1962  -19.6778   19.0066 C   0  0  0  0  0  0  0  0  0  0  0  0
   10.6428  -20.3556   19.8919 O   0  0  0  0  0  0  0  0  0  0  0  0
   14.2358  -15.8491   19.4835 C   0  0  0  0  0  0  0  0  0  0  0  0
   14.8974  -15.2130   18.6409 O   0  0  0  0  0  0  0  0  0  0  0  0
   11.6870  -20.2958   17.8799 O   0  0  0  0  0  0  0  0  0  0  0  0
   14.9501  -16.1738   20.6948 N   0  0  0  0  0  0  0  0  0  0  0  0
   16.3587  -15.7915   20.8801 C   0  0  1  0  0  0  0  0  0  0  0  0
   16.4034  -14.3104   20.7310 C   0  0  0  0  0  0  0  0  0  0  0  0
   17.7235  -13.6960   20.6385 C   0  0  0  0  0  0  0  0  0  0  0  0
   18.7167  -14.5048   20.6129 O   0  0  0  0  0  0  0  0  0  0  0  0
   16.8342  -16.2909   22.1977 C   0  0  0  0  0  0  0  0  0  0  0  0
   16.0488  -16.1515   23.3212 O   0  0  0  0  0  0  0  0  0  0  0  0
   18.0386  -12.3672   20.5770 O   0  0  0  0  0  0  0  0  0  0  0  0
   17.9510  -16.8540   22.3600 O   0  0  0  0  0  0  0  0  0  0  0  0
  2  4  1  0
  2  1  1  0
  3  2  2  0
  5  6  1  0
  5  4  1  0
  6  7  1  6
  6  8  1  0
  8  9  2  0
 10  8  1  0
 10 11  1  0
 11 16  1  0
 11 12  1  6
 13 12  1  0
 13 14  1  0
 14 15  2  0
 16 17  2  0
 18 14  1  0
 19 20  1  0
 19 16  1  0
 20 24  1  0
 20 21  1  1
 22 21  1  0
 23 22  2  0
 24 27  2  0
 24 25  1  0
 26 22  1  0
M  END
$$$$
