QED.pdb
     RDKit          3D

 27 26  0  0  1  0  0  0  0  0999 V2000
    7.9659  -13.0471   16.4248 N   0  0  0  0  0  0  0  0  0  0  0  0
    7.1687  -13.8787   17.2753 C   0  0  0  0  0  0  0  0  0  0  0  0
    5.9521  -13.6090   17.3352 O   0  0  0  0  0  0  0  0  0  0  0  0
    7.7740  -14.9735   18.0248 C   0  0  0  0  0  0  0  0  0  0  0  0
    9.2309  -15.1586   17.7375 C   0  0  0  0  0  0  0  0  0  0  0  0
    9.8552  -16.2784   18.4904 C   0  0  2  0  0  0  0  0  0  0  0  0
    9.0200  -17.4106   18.7508 N   0  0  0  0  0  0  0  0  0  0  0  0
   10.4705  -15.7563   19.7663 C   0  0  0  0  0  0  0  0  0  0  0  0
   11.2298  -14.7388   19.7273 O   0  0  0  0  0  0  0  0  0  0  0  0
   10.2664  -16.3187   21.0339 N   0  0  0  0  0  0  0  0  0  0  0  0
   10.8806  -15.7491   22.2347 C   0  0  1  0  0  0  0  0  0  0  0  0
    9.8991  -15.5432   23.3184 C   0  0  0  0  0  0  0  0  0  0  0  0
    9.6841  -16.7957   24.1151 C   0  0  0  0  0  0  0  0  0  0  0  0
    8.7316  -16.5399   25.2602 C   0  0  0  0  0  0  0  0  0  0  0  0
    8.5546  -17.4681   26.0704 O   0  0  0  0  0  0  0  0  0  0  0  0
   12.0325  -16.5610   22.6542 C   0  0  0  0  0  0  0  0  0  0  0  0
   12.1580  -17.7874   22.4728 O   0  0  0  0  0  0  0  0  0  0  0  0
    8.0701  -15.3463   25.4338 O   0  0  0  0  0  0  0  0  0  0  0  0
   13.1380  -15.9337   23.3379 N   0  0  0  0  0  0  0  0  0  0  0  0
   14.3351  -16.6980   23.7219 C   0  0  1  0  0  0  0  0  0  0  0  0
   15.4576  -15.7194   23.7370 C   0  0  0  0  0  0  0  0  0  0  0  0
   16.7711  -16.2155   23.3404 C   0  0  0  0  0  0  0  0  0  0  0  0
   17.6989  -15.3363   23.2550 O   0  0  0  0  0  0  0  0  0  0  0  0
   14.0905  -17.3724   25.0246 C   0  0  0  0  0  0  0  0  0  0  0  0
   13.2006  -16.8379   25.9305 O   0  0  0  0  0  0  0  0  0  0  0  0
   17.1403  -17.4984   23.0462 O   0  0  0  0  0  0  0  0  0  0  0  0
   14.6664  -18.4409   25.3671 O   0  0  0  0  0  0  0  0  0  0  0  0
  2  4  1  0
  2  1  1  0
  3  2  2  0
  5  6  1  0
  5  4  1  0
  6  7  1  1
  6  8  1  0
  8  9  2  0
 10  8  1  0
 10 11  1  0
 11 16  1  0
 11 12  1  1
 13 12  1  0
 13 14  1  0
 14 15  2  0
 16 17  2  0
 18 14  1  0
 19 20  1  0
 19 16  1  0
 20 24  1  0
 20 21  1  1
 22 21  1  0
 23 22  2  0
 24 27  2  0
 24 25  1  0
 26 22  1  0
M  END
$$$$
