WYH.pdb
     RDKit          3D

 37 40  0  0  1  0  0  0  0  0999 V2000
    8.3907  -16.0201   20.7478 N   0  0  0  0  0  0  0  0  0  0  0  0
    8.4240  -16.0023   22.1823 C   0  0  1  0  0  0  0  0  0  0  0  0
    7.1248  -16.3636   22.8200 C   0  0  0  0  0  0  0  0  0  0  0  0
    6.8718  -15.5594   24.0221 C   0  0  0  0  0  0  0  0  0  0  0  0
    6.4548  -16.0592   25.2326 C   0  0  0  0  0  0  0  0  0  0  0  0
    6.3491  -15.0480   26.1052 N   0  0  0  0  0  0  0  0  0  0  0  0
    6.6913  -13.9037   25.4755 C   0  0  0  0  0  0  0  0  0  0  0  0
    6.7438  -12.6020   25.9169 C   0  0  0  0  0  0  0  0  0  0  0  0
    7.1205  -11.5759   25.0820 C   0  0  0  0  0  0  0  0  0  0  0  0
    7.4473  -11.8733   23.7863 C   0  0  0  0  0  0  0  0  0  0  0  0
    7.4038  -13.1663   23.3175 C   0  0  0  0  0  0  0  0  0  0  0  0
    7.0235  -14.2042   24.1623 C   0  0  0  0  0  0  0  0  0  0  0  0
    9.5542  -16.8303   22.6879 C   0  0  0  0  0  0  0  0  0  0  0  0
    9.5013  -18.0892   22.6210 O   0  0  0  0  0  0  0  0  0  0  0  0
   10.7163  -15.2916   31.0037 O   0  0  0  0  0  0  0  0  0  0  0  0
   10.5008  -15.3234   29.6150 C   0  0  0  0  0  0  0  0  0  0  0  0
   11.4260  -14.7266   28.7844 C   0  0  0  0  0  0  0  0  0  0  0  0
   11.2203  -14.7541   27.4116 C   0  0  0  0  0  0  0  0  0  0  0  0
   10.1116  -15.3647   26.8653 C   0  0  0  0  0  0  0  0  0  0  0  0
    9.9525  -15.3458   25.4026 C   0  0  0  0  0  0  0  0  0  0  0  0
   10.9390  -16.2555   24.6869 C   0  0  2  0  0  0  0  0  0  0  0  0
   10.7033  -16.2180   23.2502 N   0  0  0  0  0  0  0  0  0  0  0  0
   10.9182  -17.6420   25.1961 C   0  0  0  0  0  0  0  0  0  0  0  0
    9.8490  -18.1824   25.5245 O   0  0  0  0  0  0  0  0  0  0  0  0
    9.1822  -15.9629   27.6868 C   0  0  0  0  0  0  0  0  0  0  0  0
    9.4026  -15.9275   29.0643 C   0  0  0  0  0  0  0  0  0  0  0  0
   12.1342  -18.3836   25.3178 N   0  0  0  0  0  0  0  0  0  0  0  0
   12.1460  -19.7357   25.8885 C   0  0  1  0  0  0  0  0  0  0  0  0
   13.3269  -20.5115   25.3529 C   0  0  0  0  0  0  0  0  0  0  0  0
   13.1433  -20.7436   23.9026 C   0  0  0  0  0  0  0  0  0  0  0  0
   11.9014  -20.9087   23.2815 C   0  0  0  0  0  0  0  0  0  0  0  0
   12.1045  -21.0948   21.9745 N   0  0  0  0  0  0  0  0  0  0  0  0
   13.4258  -21.0564   21.7275 C   0  0  0  0  0  0  0  0  0  0  0  0
   14.0320  -20.8429   22.9085 N   0  0  0  0  0  0  0  0  0  0  0  0
   12.1167  -19.6587   27.3639 C   0  0  0  0  0  0  0  0  0  0  0  0
   12.3387  -18.5455   27.9492 O   0  0  0  0  0  0  0  0  0  0  0  0
   11.8601  -20.7248   28.2016 O   0  0  0  0  0  0  0  0  0  0  0  0
  2  1  1  6
  3  4  1  0
  3  2  1  0
  4  5  2  0
  6  5  1  0
  7  6  1  0
  8  7  2  0
  9  8  1  0
 10 11  1  0
 10  9  2  0
 11 12  2  0
 12  4  1  0
 12  7  1  0
 13  2  1  0
 13 14  2  0
 15 16  1  0
 16 17  2  0
 17 18  1  0
 19 20  1  0
 19 18  2  0
 21 20  1  1
 21 23  1  0
 21 22  1  0
 22 13  1  0
 23 27  1  0
 24 23  2  0
 25 19  1  0
 26 25  2  0
 26 16  1  0
 27 28  1  0
 28 35  1  0
 28 29  1  1
 30 34  1  0
 30 29  1  0
 31 30  2  0
 32 31  1  0
 32 33  1  0
 33 34  2  0
 35 36  2  0
 35 37  1  0
M  END
$$$$
