WYH.pdb
     RDKit          3D

 37 40  0  0  1  0  0  0  0  0999 V2000
    6.0310  -18.1430   24.0747 N   0  0  0  0  0  0  0  0  0  0  0  0
    6.6807  -16.8686   24.1894 C   0  0  1  0  0  0  0  0  0  0  0  0
    6.9146  -16.4358   25.5976 C   0  0  0  0  0  0  0  0  0  0  0  0
    6.3371  -15.1113   25.8579 C   0  0  0  0  0  0  0  0  0  0  0  0
    4.9943  -14.8470   25.9851 C   0  0  0  0  0  0  0  0  0  0  0  0
    4.8323  -13.5418   26.2408 N   0  0  0  0  0  0  0  0  0  0  0  0
    6.0504  -12.9604   26.2799 C   0  0  0  0  0  0  0  0  0  0  0  0
    6.4305  -11.6566   26.4980 C   0  0  0  0  0  0  0  0  0  0  0  0
    7.7543  -11.2834   26.4847 C   0  0  0  0  0  0  0  0  0  0  0  0
    8.7019  -12.2425   26.2477 C   0  0  0  0  0  0  0  0  0  0  0  0
    8.3506  -13.5545   26.0265 C   0  0  0  0  0  0  0  0  0  0  0  0
    7.0117  -13.9320   26.0408 C   0  0  0  0  0  0  0  0  0  0  0  0
    7.9264  -16.8432   23.3733 C   0  0  0  0  0  0  0  0  0  0  0  0
    8.6122  -17.8918   23.2248 O   0  0  0  0  0  0  0  0  0  0  0  0
    6.7436  -14.1063   16.6764 O   0  0  0  0  0  0  0  0  0  0  0  0
    7.5021  -14.1067   17.8598 C   0  0  0  0  0  0  0  0  0  0  0  0
    8.2688  -15.2137   18.1581 C   0  0  0  0  0  0  0  0  0  0  0  0
    9.0210  -15.2214   19.3251 C   0  0  0  0  0  0  0  0  0  0  0  0
    9.0156  -14.1466   20.1883 C   0  0  0  0  0  0  0  0  0  0  0  0
    9.8282  -14.2285   21.4122 C   0  0  0  0  0  0  0  0  0  0  0  0
    9.6761  -15.5567   22.1373 C   0  0  2  0  0  0  0  0  0  0  0  0
    8.3588  -15.6435   22.7524 N   0  0  0  0  0  0  0  0  0  0  0  0
   10.7455  -15.7983   23.1274 C   0  0  0  0  0  0  0  0  0  0  0  0
   10.5635  -15.5541   24.3317 O   0  0  0  0  0  0  0  0  0  0  0  0
    8.2528  -13.0371   19.8988 C   0  0  0  0  0  0  0  0  0  0  0  0
    7.5023  -13.0437   18.7224 C   0  0  0  0  0  0  0  0  0  0  0  0
   12.0097  -16.3193   22.7105 N   0  0  0  0  0  0  0  0  0  0  0  0
   12.7343  -17.3002   23.5271 C   0  0  1  0  0  0  0  0  0  0  0  0
   11.8420  -18.4825   23.8259 C   0  0  0  0  0  0  0  0  0  0  0  0
   11.3097  -18.3591   25.2014 C   0  0  0  0  0  0  0  0  0  0  0  0
   10.9801  -19.4440   26.0197 C   0  0  0  0  0  0  0  0  0  0  0  0
   10.5347  -18.9723   27.1872 N   0  0  0  0  0  0  0  0  0  0  0  0
   10.5636  -17.6282   27.1553 C   0  0  0  0  0  0  0  0  0  0  0  0
   11.0357  -17.2821   25.9449 N   0  0  0  0  0  0  0  0  0  0  0  0
   13.9981  -17.6746   22.8590 C   0  0  0  0  0  0  0  0  0  0  0  0
   14.1190  -17.5306   21.5958 O   0  0  0  0  0  0  0  0  0  0  0  0
   15.1059  -18.1865   23.5032 O   0  0  0  0  0  0  0  0  0  0  0  0
  2  1  1  1
  3  4  1  0
  3  2  1  0
  4  5  2  0
  6  5  1  0
  7  6  1  0
  8  7  2  0
  9  8  1  0
 10 11  1  0
 10  9  2  0
 11 12  2  0
 12  4  1  0
 12  7  1  0
 13  2  1  0
 13 14  2  0
 15 16  1  0
 16 17  2  0
 17 18  1  0
 19 20  1  0
 19 18  2  0
 21 20  1  1
 21 23  1  0
 21 22  1  0
 22 13  1  0
 23 27  1  0
 24 23  2  0
 25 19  1  0
 26 25  2  0
 26 16  1  0
 27 28  1  0
 28 35  1  0
 28 29  1  6
 30 34  1  0
 30 29  1  0
 31 30  2  0
 32 31  1  0
 32 33  1  0
 33 34  2  0
 35 36  2  0
 35 37  1  0
M  END
$$$$
