WYH.pdb
     RDKit          3D

 37 40  0  0  1  0  0  0  0  0999 V2000
    6.8650  -18.9290   25.6575 N   0  0  0  0  0  0  0  0  0  0  0  0
    7.2198  -17.5447   25.5269 C   0  0  1  0  0  0  0  0  0  0  0  0
    8.2889  -17.1049   26.4697 C   0  0  0  0  0  0  0  0  0  0  0  0
    7.7802  -16.1356   27.4480 C   0  0  0  0  0  0  0  0  0  0  0  0
    7.1855  -16.4595   28.6440 C   0  0  0  0  0  0  0  0  0  0  0  0
    6.8676  -15.3293   29.2896 N   0  0  0  0  0  0  0  0  0  0  0  0
    7.2480  -14.2815   28.5277 C   0  0  0  0  0  0  0  0  0  0  0  0
    7.1449  -12.9246   28.7284 C   0  0  0  0  0  0  0  0  0  0  0  0
    7.6026  -12.0244   27.7946 C   0  0  0  0  0  0  0  0  0  0  0  0
    8.1706  -12.5054   26.6458 C   0  0  0  0  0  0  0  0  0  0  0  0
    8.2870  -13.8576   26.4184 C   0  0  0  0  0  0  0  0  0  0  0  0
    7.8247  -14.7681   27.3632 C   0  0  0  0  0  0  0  0  0  0  0  0
    7.5443  -17.2210   24.1097 C   0  0  0  0  0  0  0  0  0  0  0  0
    8.0819  -18.0867   23.3657 O   0  0  0  0  0  0  0  0  0  0  0  0
    8.0735  -12.9502   16.4218 O   0  0  0  0  0  0  0  0  0  0  0  0
    7.8595  -13.2461   17.7792 C   0  0  0  0  0  0  0  0  0  0  0  0
    6.9588  -14.2366   18.1101 C   0  0  0  0  0  0  0  0  0  0  0  0
    6.7421  -14.5348   19.4487 C   0  0  0  0  0  0  0  0  0  0  0  0
    7.4086  -13.8611   20.4499 C   0  0  0  0  0  0  0  0  0  0  0  0
    7.1212  -14.2221   21.8471 C   0  0  0  0  0  0  0  0  0  0  0  0
    7.7147  -15.5641   22.2470 C   0  0  2  0  0  0  0  0  0  0  0  0
    7.2545  -15.9389   23.5770 N   0  0  0  0  0  0  0  0  0  0  0  0
    9.1894  -15.5894   22.1647 C   0  0  0  0  0  0  0  0  0  0  0  0
    9.8856  -15.1776   23.1075 O   0  0  0  0  0  0  0  0  0  0  0  0
    8.3096  -12.8702   20.1290 C   0  0  0  0  0  0  0  0  0  0  0  0
    8.5170  -12.5818   18.7796 C   0  0  0  0  0  0  0  0  0  0  0  0
    9.8377  -16.0909   20.9935 N   0  0  0  0  0  0  0  0  0  0  0  0
   11.2193  -16.5833   21.0414 C   0  0  1  0  0  0  0  0  0  0  0  0
   11.2966  -17.9637   20.4315 C   0  0  0  0  0  0  0  0  0  0  0  0
   12.7043  -18.4209   20.4312 C   0  0  0  0  0  0  0  0  0  0  0  0
   13.8067  -17.5794   20.6100 C   0  0  0  0  0  0  0  0  0  0  0  0
   14.9167  -18.3202   20.5552 N   0  0  0  0  0  0  0  0  0  0  0  0
   14.5754  -19.6045   20.3486 C   0  0  0  0  0  0  0  0  0  0  0  0
   13.2332  -19.6392   20.2773 N   0  0  0  0  0  0  0  0  0  0  0  0
   12.1232  -15.6075   20.3976 C   0  0  0  0  0  0  0  0  0  0  0  0
   13.3781  -15.8386   20.3444 O   0  0  0  0  0  0  0  0  0  0  0  0
   11.7174  -14.4196   19.8244 O   0  0  0  0  0  0  0  0  0  0  0  0
  2  1  1  6
  3  4  1  0
  3  2  1  0
  4  5  2  0
  6  5  1  0
  7  6  1  0
  8  7  2  0
  9  8  1  0
 10 11  1  0
 10  9  2  0
 11 12  2  0
 12  4  1  0
 12  7  1  0
 13  2  1  0
 13 14  2  0
 15 16  1  0
 16 17  2  0
 17 18  1  0
 19 20  1  0
 19 18  2  0
 21 20  1  1
 21 23  1  0
 21 22  1  0
 22 13  1  0
 23 27  1  0
 24 23  2  0
 25 19  1  0
 26 25  2  0
 26 16  1  0
 27 28  1  0
 28 35  1  0
 28 29  1  6
 30 34  1  0
 30 29  1  0
 31 30  2  0
 32 31  1  0
 32 33  1  0
 33 34  2  0
 35 36  2  0
 35 37  1  0
M  END
$$$$
