WYH.pdb
     RDKit          3D

 37 40  0  0  1  0  0  0  0  0999 V2000
    7.8074  -17.3513   24.0019 N   0  0  0  0  0  0  0  0  0  0  0  0
    8.4294  -16.4119   23.1131 C   0  0  1  0  0  0  0  0  0  0  0  0
    7.6873  -15.1246   22.9810 C   0  0  0  0  0  0  0  0  0  0  0  0
    7.2603  -14.6114   24.2886 C   0  0  0  0  0  0  0  0  0  0  0  0
    6.7788  -15.3819   25.3199 C   0  0  0  0  0  0  0  0  0  0  0  0
    6.5104  -14.5877   26.3649 N   0  0  0  0  0  0  0  0  0  0  0  0
    6.8112  -13.3165   26.0229 C   0  0  0  0  0  0  0  0  0  0  0  0
    6.7145  -12.1375   26.7248 C   0  0  0  0  0  0  0  0  0  0  0  0
    7.0781  -10.9360   26.1625 C   0  0  0  0  0  0  0  0  0  0  0  0
    7.5444  -10.9305   24.8755 C   0  0  0  0  0  0  0  0  0  0  0  0
    7.6518  -12.0948   24.1498 C   0  0  0  0  0  0  0  0  0  0  0  0
    7.2848  -13.3101   24.7188 C   0  0  0  0  0  0  0  0  0  0  0  0
    9.8571  -16.2085   23.4855 C   0  0  0  0  0  0  0  0  0  0  0  0
   10.5426  -15.3147   22.9168 O   0  0  0  0  0  0  0  0  0  0  0  0
    9.1669  -14.3338   30.0865 O   0  0  0  0  0  0  0  0  0  0  0  0
    9.8907  -15.1020   29.1581 C   0  0  0  0  0  0  0  0  0  0  0  0
   10.4314  -14.4760   28.0546 C   0  0  0  0  0  0  0  0  0  0  0  0
   11.1479  -15.2280   27.1332 C   0  0  0  0  0  0  0  0  0  0  0  0
   11.3281  -16.5845   27.3006 C   0  0  0  0  0  0  0  0  0  0  0  0
   12.0891  -17.3202   26.2786 C   0  0  0  0  0  0  0  0  0  0  0  0
   11.8521  -16.7958   24.8708 C   0  0  2  0  0  0  0  0  0  0  0  0
   10.4656  -17.0136   24.4820 N   0  0  0  0  0  0  0  0  0  0  0  0
   12.7824  -17.3705   23.8777 C   0  0  0  0  0  0  0  0  0  0  0  0
   13.9967  -17.4625   24.1231 O   0  0  0  0  0  0  0  0  0  0  0  0
   10.7916  -17.2181   28.3993 C   0  0  0  0  0  0  0  0  0  0  0  0
   10.0743  -16.4493   29.3167 C   0  0  0  0  0  0  0  0  0  0  0  0
   12.2950  -17.8309   22.6151 N   0  0  0  0  0  0  0  0  0  0  0  0
   13.2030  -18.3952   21.6097 C   0  0  1  0  0  0  0  0  0  0  0  0
   12.4068  -19.0521   20.5062 C   0  0  0  0  0  0  0  0  0  0  0  0
   13.3353  -19.6044   19.4944 C   0  0  0  0  0  0  0  0  0  0  0  0
   14.5813  -20.1658   19.7908 C   0  0  0  0  0  0  0  0  0  0  0  0
   15.1482  -20.5624   18.6482 N   0  0  0  0  0  0  0  0  0  0  0  0
   14.3191  -20.2801   17.6278 C   0  0  0  0  0  0  0  0  0  0  0  0
   13.2307  -19.7017   18.1650 N   0  0  0  0  0  0  0  0  0  0  0  0
   14.1260  -17.3491   21.1226 C   0  0  0  0  0  0  0  0  0  0  0  0
   13.6978  -16.1622   20.9246 O   0  0  0  0  0  0  0  0  0  0  0  0
   15.4646  -17.5462   20.8512 O   0  0  0  0  0  0  0  0  0  0  0  0
  2  1  1  1
  3  4  1  0
  3  2  1  0
  4  5  2  0
  6  5  1  0
  7  6  1  0
  8  7  2  0
  9  8  1  0
 10 11  1  0
 10  9  2  0
 11 12  2  0
 12  4  1  0
 12  7  1  0
 13  2  1  0
 13 14  2  0
 15 16  1  0
 16 17  2  0
 17 18  1  0
 19 20  1  0
 19 18  2  0
 21 20  1  1
 21 23  1  0
 21 22  1  0
 22 13  1  0
 23 27  1  0
 24 23  2  0
 25 19  1  0
 26 25  2  0
 26 16  1  0
 27 28  1  0
 28 35  1  0
 28 29  1  6
 30 34  1  0
 30 29  1  0
 31 30  2  0
 32 31  1  0
 32 33  1  0
 33 34  2  0
 35 36  2  0
 35 37  1  0
M  END
$$$$
