WYH.pdb
     RDKit          3D

 37 40  0  0  1  0  0  0  0  0999 V2000
    6.1283  -18.8428   24.8224 N   0  0  0  0  0  0  0  0  0  0  0  0
    6.6212  -17.5045   24.9809 C   0  0  1  0  0  0  0  0  0  0  0  0
    6.9146  -17.1337   26.3957 C   0  0  0  0  0  0  0  0  0  0  0  0
    6.8399  -15.6816   26.5994 C   0  0  0  0  0  0  0  0  0  0  0  0
    5.7669  -14.8916   26.2626 C   0  0  0  0  0  0  0  0  0  0  0  0
    6.0349  -13.6259   26.6109 N   0  0  0  0  0  0  0  0  0  0  0  0
    7.2648  -13.5878   27.1669 C   0  0  0  0  0  0  0  0  0  0  0  0
    8.0013  -12.5444   27.6777 C   0  0  0  0  0  0  0  0  0  0  0  0
    9.2599  -12.7411   28.1965 C   0  0  0  0  0  0  0  0  0  0  0  0
    9.7765  -14.0088   28.1971 C   0  0  0  0  0  0  0  0  0  0  0  0
    9.0622  -15.0714   27.6927 C   0  0  0  0  0  0  0  0  0  0  0  0
    7.7889  -14.8726   27.1687 C   0  0  0  0  0  0  0  0  0  0  0  0
    7.7826  -17.2664   24.0792 C   0  0  0  0  0  0  0  0  0  0  0  0
    8.3204  -18.2288   23.4655 O   0  0  0  0  0  0  0  0  0  0  0  0
    7.4993  -13.3871   17.1747 O   0  0  0  0  0  0  0  0  0  0  0  0
    7.9071  -13.5860   18.5051 C   0  0  0  0  0  0  0  0  0  0  0  0
    9.2383  -13.8393   18.7620 C   0  0  0  0  0  0  0  0  0  0  0  0
    9.6488  -14.0365   20.0736 C   0  0  0  0  0  0  0  0  0  0  0  0
    8.7533  -13.9842   21.1204 C   0  0  0  0  0  0  0  0  0  0  0  0
    9.2570  -14.2138   22.4837 C   0  0  0  0  0  0  0  0  0  0  0  0
    9.2892  -15.6861   22.8639 C   0  0  2  0  0  0  0  0  0  0  0  0
    8.2996  -15.9583   23.8973 N   0  0  0  0  0  0  0  0  0  0  0  0
   10.6316  -16.1457   23.2748 C   0  0  0  0  0  0  0  0  0  0  0  0
   11.0967  -15.8376   24.3847 O   0  0  0  0  0  0  0  0  0  0  0  0
    7.4221  -13.7322   20.8734 C   0  0  0  0  0  0  0  0  0  0  0  0
    7.0245  -13.5358   19.5504 C   0  0  0  0  0  0  0  0  0  0  0  0
   11.4166  -16.9555   22.3964 N   0  0  0  0  0  0  0  0  0  0  0  0
   12.8101  -17.2898   22.7129 C   0  0  1  0  0  0  0  0  0  0  0  0
   13.0789  -18.7411   22.3892 C   0  0  0  0  0  0  0  0  0  0  0  0
   12.2893  -19.6003   23.2997 C   0  0  0  0  0  0  0  0  0  0  0  0
   12.2742  -19.4694   24.6918 C   0  0  0  0  0  0  0  0  0  0  0  0
   11.4588  -20.4002   25.1945 N   0  0  0  0  0  0  0  0  0  0  0  0
   10.9476  -21.1255   24.1840 C   0  0  0  0  0  0  0  0  0  0  0  0
   11.4647  -20.6226   23.0494 N   0  0  0  0  0  0  0  0  0  0  0  0
   13.7210  -16.3565   22.0179 C   0  0  0  0  0  0  0  0  0  0  0  0
   14.9830  -16.4494   22.1906 O   0  0  0  0  0  0  0  0  0  0  0  0
   13.3149  -15.3521   21.1632 O   0  0  0  0  0  0  0  0  0  0  0  0
  2  1  1  1
  3  4  1  0
  3  2  1  0
  4  5  2  0
  6  5  1  0
  7  6  1  0
  8  7  2  0
  9  8  1  0
 10 11  1  0
 10  9  2  0
 11 12  2  0
 12  4  1  0
 12  7  1  0
 13  2  1  0
 13 14  2  0
 15 16  1  0
 16 17  2  0
 17 18  1  0
 19 20  1  0
 19 18  2  0
 21 20  1  1
 21 23  1  0
 21 22  1  0
 22 13  1  0
 23 27  1  0
 24 23  2  0
 25 19  1  0
 26 25  2  0
 26 16  1  0
 27 28  1  0
 28 35  1  0
 28 29  1  6
 30 34  1  0
 30 29  1  0
 31 30  2  0
 32 31  1  0
 32 33  1  0
 33 34  2  0
 35 36  2  0
 35 37  1  0
M  END
$$$$
