WYH.pdb
     RDKit          3D

 37 40  0  0  1  0  0  0  0  0999 V2000
    8.5491  -17.4511   21.3558 N   0  0  0  0  0  0  0  0  0  0  0  0
    8.4895  -16.0588   21.6984 C   0  0  1  0  0  0  0  0  0  0  0  0
    7.1058  -15.5560   21.9390 C   0  0  0  0  0  0  0  0  0  0  0  0
    7.0976  -14.1164   22.2275 C   0  0  0  0  0  0  0  0  0  0  0  0
    7.2696  -13.1232   21.2931 C   0  0  0  0  0  0  0  0  0  0  0  0
    7.1803  -11.9341   21.9039 N   0  0  0  0  0  0  0  0  0  0  0  0
    6.9536  -12.1455   23.2181 C   0  0  0  0  0  0  0  0  0  0  0  0
    6.7917  -11.2700   24.2666 C   0  0  0  0  0  0  0  0  0  0  0  0
    6.5746  -11.7185   25.5486 C   0  0  0  0  0  0  0  0  0  0  0  0
    6.5212  -13.0684   25.7692 C   0  0  0  0  0  0  0  0  0  0  0  0
    6.6797  -13.9673   24.7393 C   0  0  0  0  0  0  0  0  0  0  0  0
    6.8985  -13.5137   23.4425 C   0  0  0  0  0  0  0  0  0  0  0  0
    9.4069  -15.7613   22.8334 C   0  0  0  0  0  0  0  0  0  0  0  0
   10.3925  -14.9906   22.6706 O   0  0  0  0  0  0  0  0  0  0  0  0
   11.7313  -15.7769   31.4331 O   0  0  0  0  0  0  0  0  0  0  0  0
   11.0850  -15.7528   30.1851 C   0  0  0  0  0  0  0  0  0  0  0  0
   10.8138  -14.5338   29.5999 C   0  0  0  0  0  0  0  0  0  0  0  0
   10.1759  -14.5017   28.3671 C   0  0  0  0  0  0  0  0  0  0  0  0
    9.8096  -15.6623   27.7194 C   0  0  0  0  0  0  0  0  0  0  0  0
    9.1269  -15.5527   26.4206 C   0  0  0  0  0  0  0  0  0  0  0  0
   10.0097  -15.9580   25.2504 C   0  0  2  0  0  0  0  0  0  0  0  0
    9.1869  -16.3380   24.1103 N   0  0  0  0  0  0  0  0  0  0  0  0
   10.9701  -17.0259   25.5961 C   0  0  0  0  0  0  0  0  0  0  0  0
   10.6948  -17.8720   26.4629 O   0  0  0  0  0  0  0  0  0  0  0  0
   10.0760  -16.8841   28.2963 C   0  0  0  0  0  0  0  0  0  0  0  0
   10.7178  -16.9004   29.5352 C   0  0  0  0  0  0  0  0  0  0  0  0
   12.2349  -17.1001   24.9340 N   0  0  0  0  0  0  0  0  0  0  0  0
   12.6456  -18.3106   24.2130 C   0  0  1  0  0  0  0  0  0  0  0  0
   11.6047  -18.6738   23.1796 C   0  0  0  0  0  0  0  0  0  0  0  0
   11.9711  -19.9605   22.5466 C   0  0  0  0  0  0  0  0  0  0  0  0
   13.2313  -20.2455   22.0118 C   0  0  0  0  0  0  0  0  0  0  0  0
   13.2126  -21.4899   21.5269 N   0  0  0  0  0  0  0  0  0  0  0  0
   11.9925  -22.0189   21.7272 C   0  0  0  0  0  0  0  0  0  0  0  0
   11.2607  -21.0752   22.3449 N   0  0  0  0  0  0  0  0  0  0  0  0
   13.9957  -18.1220   23.6428 C   0  0  0  0  0  0  0  0  0  0  0  0
   14.4155  -16.9466   23.3717 O   0  0  0  0  0  0  0  0  0  0  0  0
   14.8814  -19.1433   23.3654 O   0  0  0  0  0  0  0  0  0  0  0  0
  2  1  1  1
  3  4  1  0
  3  2  1  0
  4  5  2  0
  6  5  1  0
  7  6  1  0
  8  7  2  0
  9  8  1  0
 10 11  1  0
 10  9  2  0
 11 12  2  0
 12  4  1  0
 12  7  1  0
 13  2  1  0
 13 14  2  0
 15 16  1  0
 16 17  2  0
 17 18  1  0
 19 20  1  0
 19 18  2  0
 21 20  1  1
 21 23  1  0
 21 22  1  0
 22 13  1  0
 23 27  1  0
 24 23  2  0
 25 19  1  0
 26 25  2  0
 26 16  1  0
 27 28  1  0
 28 35  1  0
 28 29  1  6
 30 34  1  0
 30 29  1  0
 31 30  2  0
 32 31  1  0
 32 33  1  0
 33 34  2  0
 35 36  2  0
 35 37  1  0
M  END
$$$$
