WYH.pdb
     RDKit          3D

 37 40  0  0  1  0  0  0  0  0999 V2000
    6.2853  -17.1050   23.8950 N   0  0  0  0  0  0  0  0  0  0  0  0
    7.5961  -16.5357   23.7643 C   0  0  1  0  0  0  0  0  0  0  0  0
    8.0510  -15.7866   24.9713 C   0  0  0  0  0  0  0  0  0  0  0  0
    7.0409  -14.8195   25.4186 C   0  0  0  0  0  0  0  0  0  0  0  0
    5.7556  -15.1353   25.7892 C   0  0  0  0  0  0  0  0  0  0  0  0
    5.1241  -14.0135   26.1604 N   0  0  0  0  0  0  0  0  0  0  0  0
    5.9827  -12.9790   26.0344 C   0  0  0  0  0  0  0  0  0  0  0  0
    5.8295  -11.6337   26.2769 C   0  0  0  0  0  0  0  0  0  0  0  0
    6.8582  -10.7452   26.0667 C   0  0  0  0  0  0  0  0  0  0  0  0
    8.0541  -11.2261   25.6058 C   0  0  0  0  0  0  0  0  0  0  0  0
    8.2358  -12.5669   25.3547 C   0  0  0  0  0  0  0  0  0  0  0  0
    7.1955  -13.4657   25.5681 C   0  0  0  0  0  0  0  0  0  0  0  0
    8.5753  -17.5739   23.3380 C   0  0  0  0  0  0  0  0  0  0  0  0
    8.7331  -18.6208   24.0245 O   0  0  0  0  0  0  0  0  0  0  0  0
    7.0678  -13.2684   17.1280 O   0  0  0  0  0  0  0  0  0  0  0  0
    7.6282  -13.7162   18.3368 C   0  0  0  0  0  0  0  0  0  0  0  0
    7.3988  -12.9892   19.4861 C   0  0  0  0  0  0  0  0  0  0  0  0
    7.9488  -13.4253   20.6840 C   0  0  0  0  0  0  0  0  0  0  0  0
    8.7177  -14.5679   20.7456 C   0  0  0  0  0  0  0  0  0  0  0  0
    9.2779  -14.9645   22.0471 C   0  0  0  0  0  0  0  0  0  0  0  0
   10.1515  -16.2066   21.9631 C   0  0  2  0  0  0  0  0  0  0  0  0
    9.3425  -17.4020   22.1576 N   0  0  0  0  0  0  0  0  0  0  0  0
   11.2913  -16.1738   22.9021 C   0  0  0  0  0  0  0  0  0  0  0  0
   12.2633  -15.4283   22.6960 O   0  0  0  0  0  0  0  0  0  0  0  0
    8.9524  -15.3001   19.6031 C   0  0  0  0  0  0  0  0  0  0  0  0
    8.3930  -14.8496   18.4067 C   0  0  0  0  0  0  0  0  0  0  0  0
   11.2905  -17.0036   24.0662 N   0  0  0  0  0  0  0  0  0  0  0  0
   12.3072  -16.8458   25.1128 C   0  0  1  0  0  0  0  0  0  0  0  0
   11.9965  -15.6304   25.9550 C   0  0  0  0  0  0  0  0  0  0  0  0
   11.4265  -16.0646   27.2501 C   0  0  0  0  0  0  0  0  0  0  0  0
   10.9228  -17.3449   27.5003 C   0  0  0  0  0  0  0  0  0  0  0  0
   10.4934  -17.3901   28.7642 N   0  0  0  0  0  0  0  0  0  0  0  0
   10.6996  -16.1920   29.3391 C   0  0  0  0  0  0  0  0  0  0  0  0
   11.2644  -15.4085   28.4038 N   0  0  0  0  0  0  0  0  0  0  0  0
   12.4152  -18.0916   25.9002 C   0  0  0  0  0  0  0  0  0  0  0  0
   13.2854  -18.1851   26.8304 O   0  0  0  0  0  0  0  0  0  0  0  0
   11.6280  -19.2097   25.7143 O   0  0  0  0  0  0  0  0  0  0  0  0
  2  1  1  1
  3  4  1  0
  3  2  1  0
  4  5  2  0
  6  5  1  0
  7  6  1  0
  8  7  2  0
  9  8  1  0
 10 11  1  0
 10  9  2  0
 11 12  2  0
 12  4  1  0
 12  7  1  0
 13  2  1  0
 13 14  2  0
 15 16  1  0
 16 17  2  0
 17 18  1  0
 19 20  1  0
 19 18  2  0
 21 20  1  1
 21 23  1  0
 21 22  1  0
 22 13  1  0
 23 27  1  0
 24 23  2  0
 25 19  1  0
 26 25  2  0
 26 16  1  0
 27 28  1  0
 28 35  1  0
 28 29  1  1
 30 34  1  0
 30 29  1  0
 31 30  2  0
 32 31  1  0
 32 33  1  0
 33 34  2  0
 35 36  2  0
 35 37  1  0
M  END
$$$$
