WYH.pdb
     RDKit          3D

 37 40  0  0  1  0  0  0  0  0999 V2000
    6.8108  -17.4399   25.9219 N   0  0  0  0  0  0  0  0  0  0  0  0
    7.1656  -16.2767   25.1601 C   0  0  1  0  0  0  0  0  0  0  0  0
    8.4706  -15.6719   25.5559 C   0  0  0  0  0  0  0  0  0  0  0  0
    8.3249  -14.7881   26.7192 C   0  0  0  0  0  0  0  0  0  0  0  0
    8.9846  -14.9422   27.9150 C   0  0  0  0  0  0  0  0  0  0  0  0
    8.6298  -13.9453   28.7368 N   0  0  0  0  0  0  0  0  0  0  0  0
    7.7509  -13.1509   28.0891 C   0  0  0  0  0  0  0  0  0  0  0  0
    7.0893  -12.0119   28.4855 C   0  0  0  0  0  0  0  0  0  0  0  0
    6.2174  -11.3596   27.6452 C   0  0  0  0  0  0  0  0  0  0  0  0
    6.0144  -11.8678   26.3904 C   0  0  0  0  0  0  0  0  0  0  0  0
    6.6626  -13.0055   25.9671 C   0  0  0  0  0  0  0  0  0  0  0  0
    7.5452  -13.6648   26.8167 C   0  0  0  0  0  0  0  0  0  0  0  0
    7.0938  -16.5670   23.7010 C   0  0  0  0  0  0  0  0  0  0  0  0
    7.4214  -17.7032   23.2608 O   0  0  0  0  0  0  0  0  0  0  0  0
    8.5126  -13.8874   15.4120 O   0  0  0  0  0  0  0  0  0  0  0  0
    8.0897  -13.9374   16.7515 C   0  0  0  0  0  0  0  0  0  0  0  0
    7.3802  -15.0380   17.1844 C   0  0  0  0  0  0  0  0  0  0  0  0
    6.9593  -15.0948   18.5063 C   0  0  0  0  0  0  0  0  0  0  0  0
    7.2364  -14.0746   19.3911 C   0  0  0  0  0  0  0  0  0  0  0  0
    6.7495  -14.1970   20.7742 C   0  0  0  0  0  0  0  0  0  0  0  0
    7.3059  -15.4163   21.4931 C   0  0  2  0  0  0  0  0  0  0  0  0
    6.6571  -15.5739   22.7875 N   0  0  0  0  0  0  0  0  0  0  0  0
    8.7761  -15.3819   21.6326 C   0  0  0  0  0  0  0  0  0  0  0  0
    9.3050  -15.0301   22.7001 O   0  0  0  0  0  0  0  0  0  0  0  0
    7.9439  -12.9716   18.9677 C   0  0  0  0  0  0  0  0  0  0  0  0
    8.3605  -12.9287   17.6366 C   0  0  0  0  0  0  0  0  0  0  0  0
    9.6133  -15.7551   20.5357 N   0  0  0  0  0  0  0  0  0  0  0  0
   10.8113  -16.5780   20.7395 C   0  0  1  0  0  0  0  0  0  0  0  0
   10.4513  -17.8345   21.4976 C   0  0  0  0  0  0  0  0  0  0  0  0
   11.6793  -18.6196   21.7556 C   0  0  0  0  0  0  0  0  0  0  0  0
   12.9636  -18.2246   21.3684 C   0  0  0  0  0  0  0  0  0  0  0  0
   13.8299  -19.1626   21.7604 N   0  0  0  0  0  0  0  0  0  0  0  0
   13.1572  -20.1457   22.3844 C   0  0  0  0  0  0  0  0  0  0  0  0
   11.8596  -19.7941   22.3686 N   0  0  0  0  0  0  0  0  0  0  0  0
   11.4646  -16.8446   19.4411 C   0  0  0  0  0  0  0  0  0  0  0  0
   12.5899  -17.4476   19.4049 O   0  0  0  0  0  0  0  0  0  0  0  0
   10.9475  -16.4865   18.2128 O   0  0  0  0  0  0  0  0  0  0  0  0
  2  1  1  1
  3  4  1  0
  3  2  1  0
  4  5  2  0
  6  5  1  0
  7  6  1  0
  8  7  2  0
  9  8  1  0
 10 11  1  0
 10  9  2  0
 11 12  2  0
 12  4  1  0
 12  7  1  0
 13  2  1  0
 13 14  2  0
 15 16  1  0
 16 17  2  0
 17 18  1  0
 19 20  1  0
 19 18  2  0
 21 20  1  1
 21 23  1  0
 21 22  1  0
 22 13  1  0
 23 27  1  0
 24 23  2  0
 25 19  1  0
 26 25  2  0
 26 16  1  0
 27 28  1  0
 28 35  1  0
 28 29  1  6
 30 34  1  0
 30 29  1  0
 31 30  2  0
 32 31  1  0
 32 33  1  0
 33 34  2  0
 35 36  2  0
 35 37  1  0
M  END
$$$$
