WYH.pdb
     RDKit          3D

 37 40  0  0  1  0  0  0  0  0999 V2000
    9.4889  -16.1972   20.9000 N   0  0  0  0  0  0  0  0  0  0  0  0
    8.4136  -15.6270   21.6602 C   0  0  1  0  0  0  0  0  0  0  0  0
    7.0714  -15.8074   21.0348 C   0  0  0  0  0  0  0  0  0  0  0  0
    7.0028  -15.1736   19.7123 C   0  0  0  0  0  0  0  0  0  0  0  0
    6.5736  -15.7917   18.5622 C   0  0  0  0  0  0  0  0  0  0  0  0
    6.6214  -14.9109   17.5536 N   0  0  0  0  0  0  0  0  0  0  0  0
    7.0754  -13.7343   18.0360 C   0  0  0  0  0  0  0  0  0  0  0  0
    7.3105  -12.5273   17.4196 C   0  0  0  0  0  0  0  0  0  0  0  0
    7.7902  -11.4453   18.1204 C   0  0  0  0  0  0  0  0  0  0  0  0
    8.0338  -11.5892   19.4597 C   0  0  0  0  0  0  0  0  0  0  0  0
    7.8078  -12.7848   20.1025 C   0  0  0  0  0  0  0  0  0  0  0  0
    7.3218  -13.8790   19.3938 C   0  0  0  0  0  0  0  0  0  0  0  0
    8.4543  -16.1138   23.0672 C   0  0  0  0  0  0  0  0  0  0  0  0
    7.4182  -16.0717   23.7860 O   0  0  0  0  0  0  0  0  0  0  0  0
   10.8729  -14.6977   31.0919 O   0  0  0  0  0  0  0  0  0  0  0  0
   10.4416  -15.1310   29.8262 C   0  0  0  0  0  0  0  0  0  0  0  0
    9.9683  -14.1968   28.9289 C   0  0  0  0  0  0  0  0  0  0  0  0
    9.5406  -14.6170   27.6766 C   0  0  0  0  0  0  0  0  0  0  0  0
    9.5802  -15.9468   27.3148 C   0  0  0  0  0  0  0  0  0  0  0  0
    9.1005  -16.3216   25.9753 C   0  0  0  0  0  0  0  0  0  0  0  0
   10.1571  -16.1442   24.8958 C   0  0  2  0  0  0  0  0  0  0  0  0
    9.6546  -16.6307   23.6183 N   0  0  0  0  0  0  0  0  0  0  0  0
   11.4453  -16.7797   25.2406 C   0  0  0  0  0  0  0  0  0  0  0  0
   12.0999  -16.3963   26.2243 O   0  0  0  0  0  0  0  0  0  0  0  0
   10.0509  -16.8868   28.2044 C   0  0  0  0  0  0  0  0  0  0  0  0
   10.4773  -16.4494   29.4590 C   0  0  0  0  0  0  0  0  0  0  0  0
   11.9577  -17.8496   24.4429 N   0  0  0  0  0  0  0  0  0  0  0  0
   13.2220  -18.5130   24.7827 C   0  0  1  0  0  0  0  0  0  0  0  0
   13.1198  -19.9939   24.5002 C   0  0  0  0  0  0  0  0  0  0  0  0
   11.8803  -20.5245   25.1107 C   0  0  0  0  0  0  0  0  0  0  0  0
   11.6473  -20.5954   26.4877 C   0  0  0  0  0  0  0  0  0  0  0  0
   10.4352  -21.1210   26.6843 N   0  0  0  0  0  0  0  0  0  0  0  0
    9.8773  -21.3917   25.4911 C   0  0  0  0  0  0  0  0  0  0  0  0
   10.7701  -21.0222   24.5562 N   0  0  0  0  0  0  0  0  0  0  0  0
   14.3400  -17.8574   24.0729 C   0  0  0  0  0  0  0  0  0  0  0  0
   15.5376  -18.2605   24.2586 O   0  0  0  0  0  0  0  0  0  0  0  0
   14.2018  -16.8055   23.1905 O   0  0  0  0  0  0  0  0  0  0  0  0
  2  1  1  6
  3  4  1  0
  3  2  1  0
  4  5  2  0
  6  5  1  0
  7  6  1  0
  8  7  2  0
  9  8  1  0
 10 11  1  0
 10  9  2  0
 11 12  2  0
 12  4  1  0
 12  7  1  0
 13  2  1  0
 13 14  2  0
 15 16  1  0
 16 17  2  0
 17 18  1  0
 19 20  1  0
 19 18  2  0
 21 20  1  1
 21 23  1  0
 21 22  1  0
 22 13  1  0
 23 27  1  0
 24 23  2  0
 25 19  1  0
 26 25  2  0
 26 16  1  0
 27 28  1  0
 28 35  1  0
 28 29  1  6
 30 34  1  0
 30 29  1  0
 31 30  2  0
 32 31  1  0
 32 33  1  0
 33 34  2  0
 35 36  2  0
 35 37  1  0
M  END
$$$$
