WYH.pdb
     RDKit          3D

 37 40  0  0  1  0  0  0  0  0999 V2000
    6.6250  -17.1432   23.6173 N   0  0  0  0  0  0  0  0  0  0  0  0
    7.6774  -16.1700   23.6861 C   0  0  1  0  0  0  0  0  0  0  0  0
    8.1641  -15.9054   25.0712 C   0  0  0  0  0  0  0  0  0  0  0  0
    7.2879  -14.9646   25.7803 C   0  0  0  0  0  0  0  0  0  0  0  0
    6.0648  -15.2803   26.3219 C   0  0  0  0  0  0  0  0  0  0  0  0
    5.5573  -14.1889   26.9106 N   0  0  0  0  0  0  0  0  0  0  0  0
    6.4346  -13.1742   26.7564 C   0  0  0  0  0  0  0  0  0  0  0  0
    6.3891  -11.8612   27.1639 C   0  0  0  0  0  0  0  0  0  0  0  0
    7.4133  -10.9870   26.8834 C   0  0  0  0  0  0  0  0  0  0  0  0
    8.4944  -11.4494   26.1825 C   0  0  0  0  0  0  0  0  0  0  0  0
    8.5669  -12.7577   25.7623 C   0  0  0  0  0  0  0  0  0  0  0  0
    7.5313  -13.6421   26.0467 C   0  0  0  0  0  0  0  0  0  0  0  0
    8.7828  -16.5306   22.7553 C   0  0  0  0  0  0  0  0  0  0  0  0
    8.9478  -17.7289   22.3962 O   0  0  0  0  0  0  0  0  0  0  0  0
    6.1685  -13.7065   17.3326 O   0  0  0  0  0  0  0  0  0  0  0  0
    7.3378  -13.9267   18.0810 C   0  0  0  0  0  0  0  0  0  0  0  0
    7.9572  -15.1564   18.0009 C   0  0  0  0  0  0  0  0  0  0  0  0
    9.1127  -15.3815   18.7370 C   0  0  0  0  0  0  0  0  0  0  0  0
    9.6506  -14.4016   19.5439 C   0  0  0  0  0  0  0  0  0  0  0  0
   10.8710  -14.7138   20.3041 C   0  0  0  0  0  0  0  0  0  0  0  0
   10.6851  -15.8683   21.2765 C   0  0  2  0  0  0  0  0  0  0  0  0
    9.6635  -15.5355   22.2598 N   0  0  0  0  0  0  0  0  0  0  0  0
   11.9440  -16.2785   21.9314 C   0  0  0  0  0  0  0  0  0  0  0  0
   13.0061  -16.3324   21.2895 O   0  0  0  0  0  0  0  0  0  0  0  0
    9.0388  -13.1708   19.6304 C   0  0  0  0  0  0  0  0  0  0  0  0
    7.8784  -12.9593   18.8848 C   0  0  0  0  0  0  0  0  0  0  0  0
   11.9566  -16.6201   23.3195 N   0  0  0  0  0  0  0  0  0  0  0  0
   13.2139  -16.9053   24.0208 C   0  0  1  0  0  0  0  0  0  0  0  0
   14.1268  -15.7031   23.9529 C   0  0  0  0  0  0  0  0  0  0  0  0
   15.0272  -15.8372   22.7859 C   0  0  0  0  0  0  0  0  0  0  0  0
   15.2420  -17.0301   22.0886 C   0  0  0  0  0  0  0  0  0  0  0  0
   16.1057  -16.7907   21.0983 N   0  0  0  0  0  0  0  0  0  0  0  0
   16.4565  -15.4928   21.1284 C   0  0  0  0  0  0  0  0  0  0  0  0
   15.7914  -14.9382   22.1569 N   0  0  0  0  0  0  0  0  0  0  0  0
   12.9298  -17.3475   25.4018 C   0  0  0  0  0  0  0  0  0  0  0  0
   13.8902  -17.5299   26.2237 O   0  0  0  0  0  0  0  0  0  0  0  0
   11.6682  -17.5909   25.9053 O   0  0  0  0  0  0  0  0  0  0  0  0
  2  1  1  1
  3  4  1  0
  3  2  1  0
  4  5  2  0
  6  5  1  0
  7  6  1  0
  8  7  2  0
  9  8  1  0
 10 11  1  0
 10  9  2  0
 11 12  2  0
 12  4  1  0
 12  7  1  0
 13  2  1  0
 13 14  2  0
 15 16  1  0
 16 17  2  0
 17 18  1  0
 19 20  1  0
 19 18  2  0
 21 20  1  6
 21 23  1  0
 21 22  1  0
 22 13  1  0
 23 27  1  0
 24 23  2  0
 25 19  1  0
 26 25  2  0
 26 16  1  0
 27 28  1  0
 28 35  1  0
 28 29  1  1
 30 34  1  0
 30 29  1  0
 31 30  2  0
 32 31  1  0
 32 33  1  0
 33 34  2  0
 35 36  2  0
 35 37  1  0
M  END
$$$$
