WYH.pdb
     RDKit          3D

 37 40  0  0  1  0  0  0  0  0999 V2000
   10.2404  -14.3494   23.1424 N   0  0  0  0  0  0  0  0  0  0  0  0
    9.5633  -15.3967   23.8523 C   0  0  1  0  0  0  0  0  0  0  0  0
    8.1520  -15.6056   23.4164 C   0  0  0  0  0  0  0  0  0  0  0  0
    7.3269  -14.4187   23.6728 C   0  0  0  0  0  0  0  0  0  0  0  0
    6.3643  -13.9282   22.8232 C   0  0  0  0  0  0  0  0  0  0  0  0
    5.7971  -12.8528   23.3863 N   0  0  0  0  0  0  0  0  0  0  0  0
    6.3798  -12.6422   24.5860 C   0  0  0  0  0  0  0  0  0  0  0  0
    6.1687  -11.6782   25.5442 C   0  0  0  0  0  0  0  0  0  0  0  0
    6.8990  -11.6529   26.7095 C   0  0  0  0  0  0  0  0  0  0  0  0
    7.8530  -12.6151   26.9047 C   0  0  0  0  0  0  0  0  0  0  0  0
    8.0856  -13.5916   25.9634 C   0  0  0  0  0  0  0  0  0  0  0  0
    7.3463  -13.6177   24.7851 C   0  0  0  0  0  0  0  0  0  0  0  0
   10.3615  -16.6536   23.8133 C   0  0  0  0  0  0  0  0  0  0  0  0
   11.2337  -16.8268   22.9181 O   0  0  0  0  0  0  0  0  0  0  0  0
   13.9728  -24.2393   26.6285 O   0  0  0  0  0  0  0  0  0  0  0  0
   13.1913  -23.0770   26.5089 C   0  0  0  0  0  0  0  0  0  0  0  0
   11.8637  -23.2015   26.1566 C   0  0  0  0  0  0  0  0  0  0  0  0
   11.0852  -22.0582   26.0367 C   0  0  0  0  0  0  0  0  0  0  0  0
   11.6132  -20.8048   26.2623 C   0  0  0  0  0  0  0  0  0  0  0  0
   10.7324  -19.6365   26.1061 C   0  0  0  0  0  0  0  0  0  0  0  0
   11.0759  -18.7935   24.8878 C   0  0  2  0  0  0  0  0  0  0  0  0
   10.1539  -17.6714   24.7790 N   0  0  0  0  0  0  0  0  0  0  0  0
   11.1135  -19.5778   23.6365 C   0  0  0  0  0  0  0  0  0  0  0  0
   10.0700  -20.0350   23.1415 O   0  0  0  0  0  0  0  0  0  0  0  0
   12.9378  -20.6708   26.6141 C   0  0  0  0  0  0  0  0  0  0  0  0
   13.7076  -21.8288   26.7310 C   0  0  0  0  0  0  0  0  0  0  0  0
   12.3574  -19.8216   22.9755 N   0  0  0  0  0  0  0  0  0  0  0  0
   12.4166  -20.5895   21.7263 C   0  0  1  0  0  0  0  0  0  0  0  0
   13.1709  -19.8083   20.6756 C   0  0  0  0  0  0  0  0  0  0  0  0
   12.2695  -18.8006   20.0733 C   0  0  0  0  0  0  0  0  0  0  0  0
   10.8936  -18.7301   20.3128 C   0  0  0  0  0  0  0  0  0  0  0  0
   10.3954  -17.7064   19.6143 N   0  0  0  0  0  0  0  0  0  0  0  0
   11.3932  -17.1141   18.9347 C   0  0  0  0  0  0  0  0  0  0  0  0
   12.5155  -17.7937   19.2287 N   0  0  0  0  0  0  0  0  0  0  0  0
   12.9895  -21.9268   21.9852 C   0  0  0  0  0  0  0  0  0  0  0  0
   13.0862  -22.7745   21.0348 O   0  0  0  0  0  0  0  0  0  0  0  0
   13.4492  -22.3609   23.2118 O   0  0  0  0  0  0  0  0  0  0  0  0
  2  1  1  6
  3  4  1  0
  3  2  1  0
  4  5  2  0
  6  5  1  0
  7  6  1  0
  8  7  2  0
  9  8  1  0
 10 11  1  0
 10  9  2  0
 11 12  2  0
 12  4  1  0
 12  7  1  0
 13  2  1  0
 13 14  2  0
 15 16  1  0
 16 17  2  0
 17 18  1  0
 19 20  1  0
 19 18  2  0
 21 20  1  1
 21 23  1  0
 21 22  1  0
 22 13  1  0
 23 27  1  0
 24 23  2  0
 25 19  1  0
 26 25  2  0
 26 16  1  0
 27 28  1  0
 28 35  1  0
 28 29  1  6
 30 34  1  0
 30 29  1  0
 31 30  2  0
 32 31  1  0
 32 33  1  0
 33 34  2  0
 35 36  2  0
 35 37  1  0
M  END
$$$$
