WYH.pdb
     RDKit          3D

 37 40  0  0  1  0  0  0  0  0999 V2000
    5.6733  -17.0116   23.7897 N   0  0  0  0  0  0  0  0  0  0  0  0
    7.0398  -16.5764   23.7402 C   0  0  1  0  0  0  0  0  0  0  0  0
    7.6492  -16.3496   25.0827 C   0  0  0  0  0  0  0  0  0  0  0  0
    6.8910  -15.3608   25.8593 C   0  0  0  0  0  0  0  0  0  0  0  0
    5.8369  -15.6513   26.6921 C   0  0  0  0  0  0  0  0  0  0  0  0
    5.4022  -14.5148   27.2529 N   0  0  0  0  0  0  0  0  0  0  0  0
    6.1599  -13.4957   26.7939 C   0  0  0  0  0  0  0  0  0  0  0  0
    6.1220  -12.1451   27.0513 C   0  0  0  0  0  0  0  0  0  0  0  0
    7.0041  -11.2757   26.4531 C   0  0  0  0  0  0  0  0  0  0  0  0
    7.9339  -11.7815   25.5850 C   0  0  0  0  0  0  0  0  0  0  0  0
    7.9950  -13.1282   25.3088 C   0  0  0  0  0  0  0  0  0  0  0  0
    7.1032  -14.0077   25.9145 C   0  0  0  0  0  0  0  0  0  0  0  0
    7.8506  -17.4987   22.8973 C   0  0  0  0  0  0  0  0  0  0  0  0
    7.9648  -18.7151   23.2126 O   0  0  0  0  0  0  0  0  0  0  0  0
    6.8406  -12.0931   18.1680 O   0  0  0  0  0  0  0  0  0  0  0  0
    7.5802  -12.7902   19.1391 C   0  0  0  0  0  0  0  0  0  0  0  0
    6.9088  -13.5935   20.0368 C   0  0  0  0  0  0  0  0  0  0  0  0
    7.6324  -14.2854   20.9987 C   0  0  0  0  0  0  0  0  0  0  0  0
    9.0053  -14.1845   21.0729 C   0  0  0  0  0  0  0  0  0  0  0  0
    9.7060  -14.9374   22.1250 C   0  0  0  0  0  0  0  0  0  0  0  0
    9.8268  -16.4209   21.8124 C   0  0  2  0  0  0  0  0  0  0  0  0
    8.5041  -17.0250   21.7311 N   0  0  0  0  0  0  0  0  0  0  0  0
   10.6866  -17.1438   22.7717 C   0  0  0  0  0  0  0  0  0  0  0  0
   10.2893  -18.1838   23.3227 O   0  0  0  0  0  0  0  0  0  0  0  0
    9.6842  -13.3845   20.1809 C   0  0  0  0  0  0  0  0  0  0  0  0
    8.9436  -12.6955   19.2197 C   0  0  0  0  0  0  0  0  0  0  0  0
   11.9936  -16.6536   23.0799 N   0  0  0  0  0  0  0  0  0  0  0  0
   13.1694  -17.0946   22.3204 C   0  0  1  0  0  0  0  0  0  0  0  0
   12.9181  -16.9314   20.8393 C   0  0  0  0  0  0  0  0  0  0  0  0
   12.4677  -18.2229   20.2738 C   0  0  0  0  0  0  0  0  0  0  0  0
   12.2009  -18.4400   18.9184 C   0  0  0  0  0  0  0  0  0  0  0  0
   11.8206  -19.7107   18.7612 N   0  0  0  0  0  0  0  0  0  0  0  0
   11.8314  -20.3217   19.9591 C   0  0  0  0  0  0  0  0  0  0  0  0
   12.2258  -19.4017   20.8567 N   0  0  0  0  0  0  0  0  0  0  0  0
   14.3712  -16.3763   22.7929 C   0  0  0  0  0  0  0  0  0  0  0  0
   15.5046  -16.6023   22.2492 O   0  0  0  0  0  0  0  0  0  0  0  0
   14.3804  -15.4442   23.8104 O   0  0  0  0  0  0  0  0  0  0  0  0
  2  1  1  1
  3  4  1  0
  3  2  1  0
  4  5  2  0
  6  5  1  0
  7  6  1  0
  8  7  2  0
  9  8  1  0
 10 11  1  0
 10  9  2  0
 11 12  2  0
 12  4  1  0
 12  7  1  0
 13  2  1  0
 13 14  2  0
 15 16  1  0
 16 17  2  0
 17 18  1  0
 19 20  1  0
 19 18  2  0
 21 20  1  1
 21 23  1  0
 21 22  1  0
 22 13  1  0
 23 27  1  0
 24 23  2  0
 25 19  1  0
 26 25  2  0
 26 16  1  0
 27 28  1  0
 28 35  1  0
 28 29  1  6
 30 34  1  0
 30 29  1  0
 31 30  2  0
 32 31  1  0
 32 33  1  0
 33 34  2  0
 35 36  2  0
 35 37  1  0
M  END
$$$$
