WYH.pdb
     RDKit          3D

 37 40  0  0  1  0  0  0  0  0999 V2000
    8.6273  -16.6030   22.5187 N   0  0  0  0  0  0  0  0  0  0  0  0
    9.0136  -15.2454   22.7777 C   0  0  1  0  0  0  0  0  0  0  0  0
    7.8826  -14.2747   22.7166 C   0  0  0  0  0  0  0  0  0  0  0  0
    7.2544  -14.2612   21.3896 C   0  0  0  0  0  0  0  0  0  0  0  0
    6.0785  -14.8953   21.0667 C   0  0  0  0  0  0  0  0  0  0  0  0
    5.7940  -14.6510   19.7804 N   0  0  0  0  0  0  0  0  0  0  0  0
    6.7690  -13.8693   19.2689 C   0  0  0  0  0  0  0  0  0  0  0  0
    6.9510  -13.3475   18.0093 C   0  0  0  0  0  0  0  0  0  0  0  0
    8.0436  -12.5689   17.7063 C   0  0  0  0  0  0  0  0  0  0  0  0
    8.9607  -12.3171   18.6910 C   0  0  0  0  0  0  0  0  0  0  0  0
    8.8042  -12.8259   19.9599 C   0  0  0  0  0  0  0  0  0  0  0  0
    7.6986  -13.6128   20.2666 C   0  0  0  0  0  0  0  0  0  0  0  0
    9.7716  -15.1540   24.0566 C   0  0  0  0  0  0  0  0  0  0  0  0
   10.0232  -14.0287   24.5688 O   0  0  0  0  0  0  0  0  0  0  0  0
    9.1450  -14.1058   30.1727 O   0  0  0  0  0  0  0  0  0  0  0  0
    9.8710  -14.8133   29.1990 C   0  0  0  0  0  0  0  0  0  0  0  0
    9.3166  -15.9518   28.6527 C   0  0  0  0  0  0  0  0  0  0  0  0
   10.0275  -16.6560   27.6901 C   0  0  0  0  0  0  0  0  0  0  0  0
   11.2733  -16.2394   27.2718 C   0  0  0  0  0  0  0  0  0  0  0  0
   11.9740  -17.0408   26.2561 C   0  0  0  0  0  0  0  0  0  0  0  0
   11.6427  -16.6166   24.8336 C   0  0  2  0  0  0  0  0  0  0  0  0
   10.2203  -16.3268   24.7158 N   0  0  0  0  0  0  0  0  0  0  0  0
   12.0726  -17.6044   23.8229 C   0  0  0  0  0  0  0  0  0  0  0  0
   11.2402  -18.3118   23.2314 O   0  0  0  0  0  0  0  0  0  0  0  0
   11.8349  -15.1039   27.8119 C   0  0  0  0  0  0  0  0  0  0  0  0
   11.1086  -14.4066   28.7781 C   0  0  0  0  0  0  0  0  0  0  0  0
   13.4589  -17.7597   23.5106 N   0  0  0  0  0  0  0  0  0  0  0  0
   13.9925  -17.3624   22.2024 C   0  0  1  0  0  0  0  0  0  0  0  0
   13.5750  -15.9456   21.8835 C   0  0  0  0  0  0  0  0  0  0  0  0
   14.1184  -15.5607   20.5616 C   0  0  0  0  0  0  0  0  0  0  0  0
   13.9725  -16.3213   19.3973 C   0  0  0  0  0  0  0  0  0  0  0  0
   14.5802  -15.6802   18.3954 N   0  0  0  0  0  0  0  0  0  0  0  0
   15.1115  -14.5379   18.8657 C   0  0  0  0  0  0  0  0  0  0  0  0
   14.8188  -14.4887   20.1770 N   0  0  0  0  0  0  0  0  0  0  0  0
   15.4564  -17.5615   22.1753 C   0  0  0  0  0  0  0  0  0  0  0  0
   16.1498  -17.3415   23.2251 O   0  0  0  0  0  0  0  0  0  0  0  0
   16.1723  -17.9814   21.0728 O   0  0  0  0  0  0  0  0  0  0  0  0
  2  1  1  1
  3  4  1  0
  3  2  1  0
  4  5  2  0
  6  5  1  0
  7  6  1  0
  8  7  2  0
  9  8  1  0
 10 11  1  0
 10  9  2  0
 11 12  2  0
 12  4  1  0
 12  7  1  0
 13  2  1  0
 13 14  2  0
 15 16  1  0
 16 17  2  0
 17 18  1  0
 19 20  1  0
 19 18  2  0
 21 20  1  1
 21 23  1  0
 21 22  1  0
 22 13  1  0
 23 27  1  0
 24 23  2  0
 25 19  1  0
 26 25  2  0
 26 16  1  0
 27 28  1  0
 28 35  1  0
 28 29  1  1
 30 34  1  0
 30 29  1  0
 31 30  2  0
 32 31  1  0
 32 33  1  0
 33 34  2  0
 35 36  2  0
 35 37  1  0
M  END
$$$$
