WYH.pdb
     RDKit          3D

 37 40  0  0  1  0  0  0  0  0999 V2000
    7.7055  -16.8160   22.0930 N   0  0  0  0  0  0  0  0  0  0  0  0
    8.2859  -15.5047   22.1471 C   0  0  1  0  0  0  0  0  0  0  0  0
    7.2829  -14.4052   22.2486 C   0  0  0  0  0  0  0  0  0  0  0  0
    6.7118  -14.3189   23.5984 C   0  0  0  0  0  0  0  0  0  0  0  0
    6.1978  -15.3784   24.3071 C   0  0  0  0  0  0  0  0  0  0  0  0
    5.7876  -14.9398   25.5048 N   0  0  0  0  0  0  0  0  0  0  0  0
    6.0290  -13.6134   25.5789 C   0  0  0  0  0  0  0  0  0  0  0  0
    5.7925  -12.6993   26.5792 C   0  0  0  0  0  0  0  0  0  0  0  0
    6.1198  -11.3717   26.4299 C   0  0  0  0  0  0  0  0  0  0  0  0
    6.6928  -10.9675   25.2542 C   0  0  0  0  0  0  0  0  0  0  0  0
    6.9410  -11.8599   24.2366 C   0  0  0  0  0  0  0  0  0  0  0  0
    6.6106  -13.2029   24.3880 C   0  0  0  0  0  0  0  0  0  0  0  0
    9.3160  -15.4343   23.2207 C   0  0  0  0  0  0  0  0  0  0  0  0
   10.0754  -14.4306   23.3100 O   0  0  0  0  0  0  0  0  0  0  0  0
   13.0300  -15.9484   31.0886 O   0  0  0  0  0  0  0  0  0  0  0  0
   12.1883  -16.0371   29.9663 C   0  0  0  0  0  0  0  0  0  0  0  0
   11.6725  -17.2676   29.6173 C   0  0  0  0  0  0  0  0  0  0  0  0
   10.8401  -17.3633   28.5102 C   0  0  0  0  0  0  0  0  0  0  0  0
   10.5209  -16.2545   27.7557 C   0  0  0  0  0  0  0  0  0  0  0  0
    9.6418  -16.4320   26.5892 C   0  0  0  0  0  0  0  0  0  0  0  0
   10.3925  -16.3807   25.2676 C   0  0  2  0  0  0  0  0  0  0  0  0
    9.4579  -16.4910   24.1560 N   0  0  0  0  0  0  0  0  0  0  0  0
   11.4599  -17.3973   25.1714 C   0  0  0  0  0  0  0  0  0  0  0  0
   11.1833  -18.6078   25.1362 O   0  0  0  0  0  0  0  0  0  0  0  0
   11.0315  -15.0218   28.0965 C   0  0  0  0  0  0  0  0  0  0  0  0
   11.8663  -14.9412   29.2117 C   0  0  0  0  0  0  0  0  0  0  0  0
   12.8319  -16.9993   25.1170 N   0  0  0  0  0  0  0  0  0  0  0  0
   13.6408  -17.2222   23.9129 C   0  0  1  0  0  0  0  0  0  0  0  0
   12.9095  -16.7035   22.6967 C   0  0  0  0  0  0  0  0  0  0  0  0
   13.7136  -16.9825   21.4858 C   0  0  0  0  0  0  0  0  0  0  0  0
   14.4737  -16.0255   20.8062 C   0  0  0  0  0  0  0  0  0  0  0  0
   15.0682  -16.6185   19.7674 N   0  0  0  0  0  0  0  0  0  0  0  0
   14.7228  -17.9181   19.7494 C   0  0  0  0  0  0  0  0  0  0  0  0
   13.9039  -18.1131   20.7978 N   0  0  0  0  0  0  0  0  0  0  0  0
   14.9804  -16.6242   24.0898 C   0  0  0  0  0  0  0  0  0  0  0  0
   15.8972  -16.8466   23.2289 O   0  0  0  0  0  0  0  0  0  0  0  0
   15.3460  -15.8130   25.1446 O   0  0  0  0  0  0  0  0  0  0  0  0
  2  1  1  1
  3  4  1  0
  3  2  1  0
  4  5  2  0
  6  5  1  0
  7  6  1  0
  8  7  2  0
  9  8  1  0
 10 11  1  0
 10  9  2  0
 11 12  2  0
 12  4  1  0
 12  7  1  0
 13  2  1  0
 13 14  2  0
 15 16  1  0
 16 17  2  0
 17 18  1  0
 19 20  1  0
 19 18  2  0
 21 20  1  1
 21 23  1  0
 21 22  1  0
 22 13  1  0
 23 27  1  0
 24 23  2  0
 25 19  1  0
 26 25  2  0
 26 16  1  0
 27 28  1  0
 28 35  1  0
 28 29  1  6
 30 34  1  0
 30 29  1  0
 31 30  2  0
 32 31  1  0
 32 33  1  0
 33 34  2  0
 35 36  2  0
 35 37  1  0
M  END
$$$$
