VEP.pdb
     RDKit          3D

 24 24  0  0  1  0  0  0  0  0999 V2000
   14.8124  -13.1551  -17.1123 C   0  0  0  0  0  0  0  0  0  0  0  0
   14.3320  -12.2837  -16.0038 C   0  0  2  0  0  0  0  0  0  0  0  0
   12.8283  -12.2255  -15.9679 C   0  0  0  0  0  0  0  0  0  0  0  0
   14.9584  -10.9128  -15.9841 C   0  0  2  0  0  0  0  0  0  0  0  0
   14.4312  -10.2027  -17.1561 N   0  0  0  0  0  0  0  0  0  0  0  0
   16.4214  -10.9321  -16.0064 C   0  0  0  0  0  0  0  0  0  0  0  0
   17.0482  -11.4194  -15.0384 O   0  0  0  0  0  0  0  0  0  0  0  0
   17.1614  -10.4132  -17.0964 N   0  0  0  0  0  0  0  0  0  0  0  0
   18.6313  -10.2665  -17.0163 C   0  0  1  0  0  0  0  0  0  0  0  0
   19.1255  -10.4326  -18.4408 C   0  0  0  0  0  0  0  0  0  0  0  0
   20.6166  -10.3573  -18.4484 C   0  0  0  0  0  0  0  0  0  0  0  0
   21.1572  -10.4772  -19.8546 C   0  0  0  0  0  0  0  0  0  0  0  0
   21.0500  -11.5734  -20.4562 O   0  0  0  0  0  0  0  0  0  0  0  0
   18.9819   -8.9246  -16.5022 C   0  0  0  0  0  0  0  0  0  0  0  0
   18.3288   -7.9635  -17.0794 O   0  0  0  0  0  0  0  0  0  0  0  0
   21.7653   -9.4293  -20.5062 O   0  0  0  0  0  0  0  0  0  0  0  0
   19.9124   -8.6299  -15.4927 N   0  0  0  0  0  0  0  0  0  0  0  0
   20.6734   -9.6873  -14.8044 C   0  0  0  0  0  0  0  0  0  0  0  0
   21.8197   -8.9378  -14.1440 C   0  0  0  0  0  0  0  0  0  0  0  0
   21.1504   -7.6362  -13.7175 C   0  0  0  0  0  0  0  0  0  0  0  0
   20.2942   -7.3522  -14.9601 C   0  0  1  0  0  0  0  0  0  0  0  0
   21.1254   -6.5795  -15.9279 C   0  0  0  0  0  0  0  0  0  0  0  0
   21.6336   -7.2013  -17.0385 O   0  0  0  0  0  0  0  0  0  0  0  0
   21.3403   -5.3802  -15.7042 O   0  0  0  0  0  0  0  0  0  0  0  0
  2  1  1  6
  2  3  1  0
  4  2  1  0
  4  6  1  0
  4  5  1  6
  6  7  2  0
  8  6  1  0
  8  9  1  0
  9 10  1  6
 10 11  1  0
 12 16  1  0
 12 11  1  0
 13 12  2  0
 14  9  1  0
 14 15  2  0
 17 21  1  0
 17 14  1  0
 18 17  1  0
 19 20  1  0
 19 18  1  0
 20 21  1  0
 21 22  1  6
 22 24  2  0
 22 23  1  0
M  END
$$$$
