VEP.pdb
     RDKit          3D

 24 24  0  0  1  0  0  0  0  0999 V2000
   18.4829  -12.5760  -17.5472 C   0  0  0  0  0  0  0  0  0  0  0  0
   18.0526  -12.7786  -16.1356 C   0  0  2  0  0  0  0  0  0  0  0  0
   16.8319  -13.6561  -16.0578 C   0  0  0  0  0  0  0  0  0  0  0  0
   17.8892  -11.5005  -15.3534 C   0  0  2  0  0  0  0  0  0  0  0  0
   16.6027  -10.9265  -15.7669 N   0  0  0  0  0  0  0  0  0  0  0  0
   18.9738  -10.5400  -15.5593 C   0  0  0  0  0  0  0  0  0  0  0  0
   20.1382  -10.8375  -15.2085 O   0  0  0  0  0  0  0  0  0  0  0  0
   18.7502   -9.2717  -16.1479 N   0  0  0  0  0  0  0  0  0  0  0  0
   19.8640   -8.3184  -16.3459 C   0  0  1  0  0  0  0  0  0  0  0  0
   19.8363   -7.9762  -17.8235 C   0  0  0  0  0  0  0  0  0  0  0  0
   20.6206   -9.0018  -18.5732 C   0  0  0  0  0  0  0  0  0  0  0  0
   19.9052   -9.4100  -19.8404 C   0  0  0  0  0  0  0  0  0  0  0  0
   19.9435  -10.6116  -20.2005 O   0  0  0  0  0  0  0  0  0  0  0  0
   19.6453   -7.1034  -15.5312 C   0  0  0  0  0  0  0  0  0  0  0  0
   18.4180   -6.6830  -15.5497 O   0  0  0  0  0  0  0  0  0  0  0  0
   19.2101   -8.5146  -20.6198 O   0  0  0  0  0  0  0  0  0  0  0  0
   20.6098   -6.4123  -14.7801 N   0  0  0  0  0  0  0  0  0  0  0  0
   22.0145   -6.8534  -14.7251 C   0  0  0  0  0  0  0  0  0  0  0  0
   22.7562   -5.6363  -14.1954 C   0  0  0  0  0  0  0  0  0  0  0  0
   21.7627   -5.0657  -13.1898 C   0  0  0  0  0  0  0  0  0  0  0  0
   20.4549   -5.2319  -13.9773 C   0  0  1  0  0  0  0  0  0  0  0  0
   20.2642   -4.0156  -14.8193 C   0  0  0  0  0  0  0  0  0  0  0  0
   20.5142   -4.0725  -16.1656 O   0  0  0  0  0  0  0  0  0  0  0  0
   19.8801   -2.9700  -14.2775 O   0  0  0  0  0  0  0  0  0  0  0  0
  2  1  1  6
  2  3  1  0
  4  2  1  0
  4  6  1  0
  4  5  1  6
  6  7  2  0
  8  6  1  0
  8  9  1  0
  9 10  1  6
 10 11  1  0
 12 16  1  0
 12 11  1  0
 13 12  2  0
 14  9  1  0
 14 15  2  0
 17 21  1  0
 17 14  1  0
 18 17  1  0
 19 20  1  0
 19 18  1  0
 20 21  1  0
 21 22  1  6
 22 24  2  0
 22 23  1  0
M  END
$$$$
