VEP.pdb
     RDKit          3D

 24 24  0  0  1  0  0  0  0  0999 V2000
   13.2139   -7.4810  -10.1547 C   0  0  0  0  0  0  0  0  0  0  0  0
   13.8549   -8.6213   -9.4422 C   0  0  2  0  0  0  0  0  0  0  0  0
   13.2556   -8.8169   -8.0752 C   0  0  0  0  0  0  0  0  0  0  0  0
   15.3602   -8.5533   -9.4026 C   0  0  2  0  0  0  0  0  0  0  0  0
   15.6982   -7.4188   -8.5341 N   0  0  0  0  0  0  0  0  0  0  0  0
   15.9787   -8.3982  -10.7197 C   0  0  0  0  0  0  0  0  0  0  0  0
   15.8190   -9.2873  -11.5864 O   0  0  0  0  0  0  0  0  0  0  0  0
   16.7602   -7.2652  -11.0522 N   0  0  0  0  0  0  0  0  0  0  0  0
   17.4001   -7.1461  -12.3806 C   0  0  1  0  0  0  0  0  0  0  0  0
   16.5089   -6.2045  -13.1681 C   0  0  0  0  0  0  0  0  0  0  0  0
   17.0783   -6.0298  -14.5372 C   0  0  0  0  0  0  0  0  0  0  0  0
   16.2036   -5.1265  -15.3757 C   0  0  0  0  0  0  0  0  0  0  0  0
   16.7068   -4.5386  -16.3636 O   0  0  0  0  0  0  0  0  0  0  0  0
   18.7579   -6.5761  -12.2426 C   0  0  0  0  0  0  0  0  0  0  0  0
   18.7970   -5.5067  -11.5088 O   0  0  0  0  0  0  0  0  0  0  0  0
   14.8717   -4.9207  -15.0996 O   0  0  0  0  0  0  0  0  0  0  0  0
   19.9401   -7.0779  -12.8106 N   0  0  0  0  0  0  0  0  0  0  0  0
   19.9363   -8.2484  -13.7056 C   0  0  0  0  0  0  0  0  0  0  0  0
   21.2851   -8.1752  -14.4038 C   0  0  0  0  0  0  0  0  0  0  0  0
   22.1965   -7.6680  -13.2920 C   0  0  0  0  0  0  0  0  0  0  0  0
   21.2871   -6.6037  -12.6608 C   0  0  1  0  0  0  0  0  0  0  0  0
   21.5022   -5.3203  -13.3897 C   0  0  0  0  0  0  0  0  0  0  0  0
   22.5910   -4.5423  -13.0936 O   0  0  0  0  0  0  0  0  0  0  0  0
   20.6834   -4.9823  -14.2556 O   0  0  0  0  0  0  0  0  0  0  0  0
  2  1  1  1
  2  3  1  0
  4  2  1  0
  4  6  1  0
  4  5  1  1
  6  7  2  0
  8  6  1  0
  8  9  1  0
  9 10  1  6
 10 11  1  0
 12 16  1  0
 12 11  1  0
 13 12  2  0
 14  9  1  0
 14 15  2  0
 17 21  1  0
 17 14  1  0
 18 17  1  0
 19 20  1  0
 19 18  1  0
 20 21  1  0
 21 22  1  6
 22 24  2  0
 22 23  1  0
M  END
$$$$
