VEP.pdb
     RDKit          3D

 24 24  0  0  1  0  0  0  0  0999 V2000
   22.1940  -12.3696  -17.4689 C   0  0  0  0  0  0  0  0  0  0  0  0
   21.5203  -11.7511  -16.2932 C   0  0  2  0  0  0  0  0  0  0  0  0
   20.0507  -11.5496  -16.5499 C   0  0  0  0  0  0  0  0  0  0  0  0
   22.1902  -10.4982  -15.7897 C   0  0  2  0  0  0  0  0  0  0  0  0
   23.5486  -10.8890  -15.3927 N   0  0  0  0  0  0  0  0  0  0  0  0
   21.4887   -9.8615  -14.6744 C   0  0  0  0  0  0  0  0  0  0  0  0
   21.4279  -10.4447  -13.5684 O   0  0  0  0  0  0  0  0  0  0  0  0
   20.8694   -8.5947  -14.8036 N   0  0  0  0  0  0  0  0  0  0  0  0
   20.1281   -7.9920  -13.6741 C   0  0  1  0  0  0  0  0  0  0  0  0
   20.3261   -6.4953  -13.8223 C   0  0  0  0  0  0  0  0  0  0  0  0
   21.6761   -6.1310  -13.2989 C   0  0  0  0  0  0  0  0  0  0  0  0
   21.9238   -4.6457  -13.4286 C   0  0  0  0  0  0  0  0  0  0  0  0
   22.2912   -4.1847  -14.5365 O   0  0  0  0  0  0  0  0  0  0  0  0
   18.6921   -8.3337  -13.7672 C   0  0  0  0  0  0  0  0  0  0  0  0
   18.2197   -8.2558  -14.9732 O   0  0  0  0  0  0  0  0  0  0  0  0
   21.7624   -3.7733  -12.3772 O   0  0  0  0  0  0  0  0  0  0  0  0
   17.8508   -8.7170  -12.7102 N   0  0  0  0  0  0  0  0  0  0  0  0
   18.3476   -8.8458  -11.3291 C   0  0  0  0  0  0  0  0  0  0  0  0
   17.0818   -8.8431  -10.4867 C   0  0  0  0  0  0  0  0  0  0  0  0
   16.1099   -9.6254  -11.3628 C   0  0  0  0  0  0  0  0  0  0  0  0
   16.4509   -9.0355  -12.7389 C   0  0  1  0  0  0  0  0  0  0  0  0
   15.6141   -7.8173  -12.9402 C   0  0  0  0  0  0  0  0  0  0  0  0
   14.2870   -7.9465  -13.2569 O   0  0  0  0  0  0  0  0  0  0  0  0
   16.1427   -6.7040  -12.8155 O   0  0  0  0  0  0  0  0  0  0  0  0
  2  1  1  6
  2  3  1  0
  4  2  1  0
  4  6  1  0
  4  5  1  1
  6  7  2  0
  8  6  1  0
  8  9  1  0
  9 10  1  6
 10 11  1  0
 12 16  1  0
 12 11  1  0
 13 12  2  0
 14  9  1  0
 14 15  2  0
 17 21  1  0
 17 14  1  0
 18 17  1  0
 19 20  1  0
 19 18  1  0
 20 21  1  0
 21 22  1  1
 22 24  2  0
 22 23  1  0
M  END
$$$$
