VEP.pdb
     RDKit          3D

 24 24  0  0  1  0  0  0  0  0999 V2000
   21.9150  -13.0789  -19.4993 C   0  0  0  0  0  0  0  0  0  0  0  0
   23.1517  -12.4144  -19.9969 C   0  0  2  0  0  0  0  0  0  0  0  0
   24.1948  -13.4263  -20.3894 C   0  0  0  0  0  0  0  0  0  0  0  0
   23.6984  -11.3595  -19.0693 C   0  0  2  0  0  0  0  0  0  0  0  0
   24.2398  -12.0744  -17.9068 N   0  0  0  0  0  0  0  0  0  0  0  0
   22.7053  -10.3696  -18.6508 C   0  0  0  0  0  0  0  0  0  0  0  0
   22.1424   -9.6562  -19.5119 O   0  0  0  0  0  0  0  0  0  0  0  0
   22.3545  -10.1882  -17.2910 N   0  0  0  0  0  0  0  0  0  0  0  0
   21.3783   -9.1519  -16.8893 C   0  0  1  0  0  0  0  0  0  0  0  0
   20.3486   -9.8809  -16.0471 C   0  0  0  0  0  0  0  0  0  0  0  0
   19.3777  -10.5641  -16.9525 C   0  0  0  0  0  0  0  0  0  0  0  0
   18.3040  -11.2721  -16.1590 C   0  0  0  0  0  0  0  0  0  0  0  0
   18.2509  -11.0984  -14.9172 O   0  0  0  0  0  0  0  0  0  0  0  0
   22.0486   -8.1030  -16.0904 C   0  0  0  0  0  0  0  0  0  0  0  0
   22.9141   -8.5717  -15.2450 O   0  0  0  0  0  0  0  0  0  0  0  0
   17.3773  -12.1036  -16.7441 O   0  0  0  0  0  0  0  0  0  0  0  0
   21.8335   -6.7179  -16.1753 N   0  0  0  0  0  0  0  0  0  0  0  0
   20.8335   -6.1415  -17.0911 C   0  0  0  0  0  0  0  0  0  0  0  0
   20.6304   -4.7298  -16.5641 C   0  0  0  0  0  0  0  0  0  0  0  0
   22.0374   -4.3459  -16.1203 C   0  0  0  0  0  0  0  0  0  0  0  0
   22.4783   -5.6571  -15.4537 C   0  0  1  0  0  0  0  0  0  0  0  0
   22.0442   -5.6196  -14.0272 C   0  0  0  0  0  0  0  0  0  0  0  0
   20.9665   -6.3635  -13.6228 O   0  0  0  0  0  0  0  0  0  0  0  0
   22.6739   -4.9095  -13.2312 O   0  0  0  0  0  0  0  0  0  0  0  0
  2  1  1  1
  2  3  1  0
  4  2  1  0
  4  6  1  0
  4  5  1  1
  6  7  2  0
  8  6  1  0
  8  9  1  0
  9 10  1  1
 10 11  1  0
 12 16  1  0
 12 11  1  0
 13 12  2  0
 14  9  1  0
 14 15  2  0
 17 21  1  0
 17 14  1  0
 18 17  1  0
 19 20  1  0
 19 18  1  0
 20 21  1  0
 21 22  1  1
 22 24  2  0
 22 23  1  0
M  END
$$$$
