VEP.pdb
     RDKit          3D

 24 24  0  0  1  0  0  0  0  0999 V2000
   18.7730  -18.1760  -15.9538 C   0  0  0  0  0  0  0  0  0  0  0  0
   19.9309  -19.1125  -15.9253 C   0  0  2  0  0  0  0  0  0  0  0  0
   19.9110  -20.0412  -17.1099 C   0  0  0  0  0  0  0  0  0  0  0  0
   20.0918  -19.8516  -14.6215 C   0  0  2  0  0  0  0  0  0  0  0  0
   19.0112  -19.3813  -13.7459 N   0  0  0  0  0  0  0  0  0  0  0  0
   21.3952  -19.6519  -13.9870 C   0  0  0  0  0  0  0  0  0  0  0  0
   21.4972  -18.8661  -13.0178 O   0  0  0  0  0  0  0  0  0  0  0  0
   22.5581  -20.3237  -14.4356 N   0  0  0  0  0  0  0  0  0  0  0  0
   23.8335  -20.2137  -13.6941 C   0  0  1  0  0  0  0  0  0  0  0  0
   23.7553  -21.2716  -12.6098 C   0  0  0  0  0  0  0  0  0  0  0  0
   24.9677  -21.1691  -11.7444 C   0  0  0  0  0  0  0  0  0  0  0  0
   26.0484  -22.1159  -12.2130 C   0  0  0  0  0  0  0  0  0  0  0  0
   27.2349  -21.7097  -12.2592 O   0  0  0  0  0  0  0  0  0  0  0  0
   24.9729  -20.4845  -14.5975 C   0  0  0  0  0  0  0  0  0  0  0  0
   24.9786  -21.6913  -15.0741 O   0  0  0  0  0  0  0  0  0  0  0  0
   25.7844  -23.4114  -12.5930 O   0  0  0  0  0  0  0  0  0  0  0  0
   25.9885  -19.5850  -14.9596 N   0  0  0  0  0  0  0  0  0  0  0  0
   26.2841  -18.3835  -14.1596 C   0  0  0  0  0  0  0  0  0  0  0  0
   27.6656  -17.9622  -14.6351 C   0  0  0  0  0  0  0  0  0  0  0  0
   27.6047  -18.2804  -16.1247 C   0  0  0  0  0  0  0  0  0  0  0  0
   26.8816  -19.6344  -16.0830 C   0  0  1  0  0  0  0  0  0  0  0  0
   27.9095  -20.7030  -15.9214 C   0  0  0  0  0  0  0  0  0  0  0  0
   28.6698  -21.0856  -16.9956 O   0  0  0  0  0  0  0  0  0  0  0  0
   28.0549  -21.2265  -14.8082 O   0  0  0  0  0  0  0  0  0  0  0  0
  2  1  1  1
  2  3  1  0
  4  2  1  0
  4  6  1  0
  4  5  1  1
  6  7  2  0
  8  6  1  0
  8  9  1  0
  9 10  1  1
 10 11  1  0
 12 16  1  0
 12 11  1  0
 13 12  2  0
 14  9  1  0
 14 15  2  0
 17 21  1  0
 17 14  1  0
 18 17  1  0
 19 20  1  0
 19 18  1  0
 20 21  1  0
 21 22  1  1
 22 24  2  0
 22 23  1  0
M  END
$$$$
