VEP.pdb
     RDKit          3D

 24 24  0  0  1  0  0  0  0  0999 V2000
   17.0423  -11.4817    7.6897 C   0  0  0  0  0  0  0  0  0  0  0  0
   18.3724  -10.8488    7.4683 C   0  0  2  0  0  0  0  0  0  0  0  0
   18.3127   -9.8243    6.3670 C   0  0  0  0  0  0  0  0  0  0  0  0
   19.4968  -11.8335    7.2733 C   0  0  2  0  0  0  0  0  0  0  0  0
   19.4807  -12.2004    5.8518 N   0  0  0  0  0  0  0  0  0  0  0  0
   19.3903  -13.0251    8.1159 C   0  0  0  0  0  0  0  0  0  0  0  0
   19.2117  -12.8971    9.3484 O   0  0  0  0  0  0  0  0  0  0  0  0
   19.4833  -14.3327    7.5804 N   0  0  0  0  0  0  0  0  0  0  0  0
   19.3578  -15.5218    8.4514 C   0  0  1  0  0  0  0  0  0  0  0  0
   18.7442  -16.5952    7.5726 C   0  0  0  0  0  0  0  0  0  0  0  0
   17.2897  -16.3064    7.3989 C   0  0  0  0  0  0  0  0  0  0  0  0
   16.6429  -17.3188    6.4819 C   0  0  0  0  0  0  0  0  0  0  0  0
   17.3721  -18.1257    5.8558 O   0  0  0  0  0  0  0  0  0  0  0  0
   20.6918  -15.9465    8.9287 C   0  0  0  0  0  0  0  0  0  0  0  0
   21.6138  -15.8720    8.0187 O   0  0  0  0  0  0  0  0  0  0  0  0
   15.2808  -17.3931    6.3041 O   0  0  0  0  0  0  0  0  0  0  0  0
   21.0175  -16.3955   10.2187 N   0  0  0  0  0  0  0  0  0  0  0  0
   20.0242  -16.4200   11.3068 C   0  0  0  0  0  0  0  0  0  0  0  0
   20.6453  -17.3423   12.3439 C   0  0  0  0  0  0  0  0  0  0  0  0
   22.1257  -16.9938   12.2399 C   0  0  0  0  0  0  0  0  0  0  0  0
   22.2722  -16.8866   10.7151 C   0  0  1  0  0  0  0  0  0  0  0  0
   22.5795  -18.2458   10.1833 C   0  0  0  0  0  0  0  0  0  0  0  0
   23.8458  -18.7556   10.3060 O   0  0  0  0  0  0  0  0  0  0  0  0
   21.6740  -18.8906    9.6367 O   0  0  0  0  0  0  0  0  0  0  0  0
  2  1  1  6
  2  3  1  0
  4  2  1  0
  4  6  1  0
  4  5  1  6
  6  7  2  0
  8  6  1  0
  8  9  1  0
  9 10  1  6
 10 11  1  0
 12 16  1  0
 12 11  1  0
 13 12  2  0
 14  9  1  0
 14 15  2  0
 17 21  1  0
 17 14  1  0
 18 17  1  0
 19 20  1  0
 19 18  1  0
 20 21  1  0
 21 22  1  6
 22 24  2  0
 22 23  1  0
M  END
$$$$
