VEP.pdb
     RDKit          3D

 24 24  0  0  1  0  0  0  0  0999 V2000
   29.5609  -19.4179  -13.1157 C   0  0  0  0  0  0  0  0  0  0  0  0
   28.8276  -20.6647  -13.4711 C   0  0  2  0  0  0  0  0  0  0  0  0
   29.3799  -21.2833  -14.7274 C   0  0  0  0  0  0  0  0  0  0  0  0
   27.3299  -20.5032  -13.5235 C   0  0  2  0  0  0  0  0  0  0  0  0
   27.0492  -19.6397  -14.6773 N   0  0  0  0  0  0  0  0  0  0  0  0
   26.7543  -19.9379  -12.3027 C   0  0  0  0  0  0  0  0  0  0  0  0
   26.6311  -18.6968  -12.1943 O   0  0  0  0  0  0  0  0  0  0  0  0
   26.3270  -20.7543  -11.2276 N   0  0  0  0  0  0  0  0  0  0  0  0
   25.6590  -20.1669  -10.0455 C   0  0  1  0  0  0  0  0  0  0  0  0
   24.1932  -20.5266  -10.1977 C   0  0  0  0  0  0  0  0  0  0  0  0
   23.4232  -19.9054   -9.0795 C   0  0  0  0  0  0  0  0  0  0  0  0
   21.9514  -20.2306   -9.1901 C   0  0  0  0  0  0  0  0  0  0  0  0
   21.5719  -21.4093   -8.9865 O   0  0  0  0  0  0  0  0  0  0  0  0
   26.2083  -20.7559   -8.8050 C   0  0  0  0  0  0  0  0  0  0  0  0
   26.0891  -22.0467   -8.7493 O   0  0  0  0  0  0  0  0  0  0  0  0
   21.0053  -19.2833   -9.5064 O   0  0  0  0  0  0  0  0  0  0  0  0
   26.8167  -20.0636   -7.7455 N   0  0  0  0  0  0  0  0  0  0  0  0
   26.9321  -18.5947   -7.7416 C   0  0  0  0  0  0  0  0  0  0  0  0
   27.2333  -18.2586   -6.2896 C   0  0  0  0  0  0  0  0  0  0  0  0
   28.1351  -19.4144   -5.8715 C   0  0  0  0  0  0  0  0  0  0  0  0
   27.4032  -20.5854   -6.5432 C   0  0  1  0  0  0  0  0  0  0  0  0
   26.3643  -21.0855   -5.5970 C   0  0  0  0  0  0  0  0  0  0  0  0
   26.7407  -21.7687   -4.4701 O   0  0  0  0  0  0  0  0  0  0  0  0
   25.1717  -20.8700   -5.8532 O   0  0  0  0  0  0  0  0  0  0  0  0
  2  1  1  6
  2  3  1  0
  4  2  1  0
  4  6  1  0
  4  5  1  6
  6  7  2  0
  8  6  1  0
  8  9  1  0
  9 10  1  6
 10 11  1  0
 12 16  1  0
 12 11  1  0
 13 12  2  0
 14  9  1  0
 14 15  2  0
 17 21  1  0
 17 14  1  0
 18 17  1  0
 19 20  1  0
 19 18  1  0
 20 21  1  0
 21 22  1  1
 22 24  2  0
 22 23  1  0
M  END
$$$$
