VEP.pdb
     RDKit          3D

 24 24  0  0  1  0  0  0  0  0999 V2000
   17.2620  -13.8351  -18.8409 C   0  0  0  0  0  0  0  0  0  0  0  0
   16.9061  -13.2257  -17.5292 C   0  0  2  0  0  0  0  0  0  0  0  0
   15.7622  -12.2572  -17.6699 C   0  0  0  0  0  0  0  0  0  0  0  0
   18.0762  -12.6258  -16.7924 C   0  0  2  0  0  0  0  0  0  0  0  0
   18.6044  -13.6868  -15.9257 N   0  0  0  0  0  0  0  0  0  0  0  0
   17.7337  -11.4396  -16.0071 C   0  0  0  0  0  0  0  0  0  0  0  0
   16.8857  -11.5285  -15.0904 O   0  0  0  0  0  0  0  0  0  0  0  0
   18.3344  -10.1805  -16.2501 N   0  0  0  0  0  0  0  0  0  0  0  0
   18.0474   -9.0202  -15.3784 C   0  0  1  0  0  0  0  0  0  0  0  0
   19.2804   -8.8616  -14.5092 C   0  0  0  0  0  0  0  0  0  0  0  0
   20.4881   -9.2180  -15.3115 C   0  0  0  0  0  0  0  0  0  0  0  0
   21.7525   -8.9933  -14.5148 C   0  0  0  0  0  0  0  0  0  0  0  0
   22.8600   -9.2513  -15.0457 O   0  0  0  0  0  0  0  0  0  0  0  0
   17.8351   -7.8075  -16.1982 C   0  0  0  0  0  0  0  0  0  0  0  0
   18.5780   -7.7659  -17.2610 O   0  0  0  0  0  0  0  0  0  0  0  0
   21.7401   -8.5151  -13.2249 O   0  0  0  0  0  0  0  0  0  0  0  0
   16.9394   -6.7598  -15.9298 N   0  0  0  0  0  0  0  0  0  0  0  0
   16.0097   -6.8056  -14.7876 C   0  0  0  0  0  0  0  0  0  0  0  0
   15.5686   -5.3600  -14.6210 C   0  0  0  0  0  0  0  0  0  0  0  0
   15.4827   -4.8807  -16.0656 C   0  0  0  0  0  0  0  0  0  0  0  0
   16.7514   -5.5267  -16.6410 C   0  0  1  0  0  0  0  0  0  0  0  0
   17.8890   -4.5871  -16.4223 C   0  0  0  0  0  0  0  0  0  0  0  0
   18.8625   -4.8963  -15.5085 O   0  0  0  0  0  0  0  0  0  0  0  0
   17.9291   -3.5371  -17.0782 O   0  0  0  0  0  0  0  0  0  0  0  0
  2  1  1  6
  2  3  1  0
  4  2  1  0
  4  6  1  0
  4  5  1  1
  6  7  2  0
  8  6  1  0
  8  9  1  0
  9 10  1  1
 10 11  1  0
 12 16  1  0
 12 11  1  0
 13 12  2  0
 14  9  1  0
 14 15  2  0
 17 21  1  0
 17 14  1  0
 18 17  1  0
 19 20  1  0
 19 18  1  0
 20 21  1  0
 21 22  1  1
 22 24  2  0
 22 23  1  0
M  END
$$$$
