VEP.pdb
     RDKit          3D

 24 24  0  0  1  0  0  0  0  0999 V2000
   27.3463  -25.7293  -15.8672 C   0  0  0  0  0  0  0  0  0  0  0  0
   26.8804  -25.1983  -17.1785 C   0  0  2  0  0  0  0  0  0  0  0  0
   27.0213  -26.2296  -18.2660 C   0  0  0  0  0  0  0  0  0  0  0  0
   27.4960  -23.8765  -17.5603 C   0  0  2  0  0  0  0  0  0  0  0  0
   28.9330  -24.1255  -17.7297 N   0  0  0  0  0  0  0  0  0  0  0  0
   27.2676  -22.8142  -16.5801 C   0  0  0  0  0  0  0  0  0  0  0  0
   28.1853  -22.4923  -15.7919 O   0  0  0  0  0  0  0  0  0  0  0  0
   26.0311  -22.1299  -16.4908 N   0  0  0  0  0  0  0  0  0  0  0  0
   25.8529  -21.0012  -15.5512 C   0  0  1  0  0  0  0  0  0  0  0  0
   25.2619  -19.8799  -16.3845 C   0  0  0  0  0  0  0  0  0  0  0  0
   25.0024  -18.7046  -15.5011 C   0  0  0  0  0  0  0  0  0  0  0  0
   23.5516  -18.2865  -15.5693 C   0  0  0  0  0  0  0  0  0  0  0  0
   23.1744  -17.2884  -14.9086 O   0  0  0  0  0  0  0  0  0  0  0  0
   24.9223  -21.3833  -14.4669 C   0  0  0  0  0  0  0  0  0  0  0  0
   23.8563  -21.9895  -14.8908 O   0  0  0  0  0  0  0  0  0  0  0  0
   22.6222  -18.9580  -16.3295 O   0  0  0  0  0  0  0  0  0  0  0  0
   25.0970  -21.1553  -13.0924 N   0  0  0  0  0  0  0  0  0  0  0  0
   26.2547  -20.4089  -12.5694 C   0  0  0  0  0  0  0  0  0  0  0  0
   25.8360  -20.0335  -11.1567 C   0  0  0  0  0  0  0  0  0  0  0  0
   25.0551  -21.2656  -10.7138 C   0  0  0  0  0  0  0  0  0  0  0  0
   24.2624  -21.5590  -11.9958 C   0  0  1  0  0  0  0  0  0  0  0  0
   22.9975  -20.7699  -11.9483 C   0  0  0  0  0  0  0  0  0  0  0  0
   22.8742  -19.6335  -12.7043 O   0  0  0  0  0  0  0  0  0  0  0  0
   22.0768  -21.1634  -11.2190 O   0  0  0  0  0  0  0  0  0  0  0  0
  2  1  1  1
  2  3  1  0
  4  2  1  0
  4  6  1  0
  4  5  1  1
  6  7  2  0
  8  6  1  0
  8  9  1  0
  9 10  1  6
 10 11  1  0
 12 16  1  0
 12 11  1  0
 13 12  2  0
 14  9  1  0
 14 15  2  0
 17 21  1  0
 17 14  1  0
 18 17  1  0
 19 20  1  0
 19 18  1  0
 20 21  1  0
 21 22  1  1
 22 24  2  0
 22 23  1  0
M  END
$$$$
