VEP.pdb
     RDKit          3D

 24 24  0  0  1  0  0  0  0  0999 V2000
   16.1803  -11.4210  -14.1856 C   0  0  0  0  0  0  0  0  0  0  0  0
   15.8553  -11.4641  -15.6386 C   0  0  2  0  0  0  0  0  0  0  0  0
   14.5556  -12.1822  -15.8860 C   0  0  0  0  0  0  0  0  0  0  0  0
   16.9727  -11.9894  -16.5031 C   0  0  2  0  0  0  0  0  0  0  0  0
   17.2048  -13.3755  -16.0784 N   0  0  0  0  0  0  0  0  0  0  0  0
   18.2064  -11.2076  -16.4124 C   0  0  0  0  0  0  0  0  0  0  0  0
   19.0852  -11.5333  -15.5825 O   0  0  0  0  0  0  0  0  0  0  0  0
   18.4437  -10.0830  -17.2394 N   0  0  0  0  0  0  0  0  0  0  0  0
   19.6869   -9.2919  -17.1088 C   0  0  1  0  0  0  0  0  0  0  0  0
   19.9921   -8.7970  -18.5099 C   0  0  0  0  0  0  0  0  0  0  0  0
   21.2220   -7.9516  -18.4681 C   0  0  0  0  0  0  0  0  0  0  0  0
   21.5366   -7.3862  -19.8339 C   0  0  0  0  0  0  0  0  0  0  0  0
   21.9499   -8.1593  -20.7319 O   0  0  0  0  0  0  0  0  0  0  0  0
   19.4702   -8.1498  -16.1944 C   0  0  0  0  0  0  0  0  0  0  0  0
   18.3583   -7.5176  -16.4121 O   0  0  0  0  0  0  0  0  0  0  0  0
   21.3879   -6.0523  -20.1355 O   0  0  0  0  0  0  0  0  0  0  0  0
   20.3263   -7.7246  -15.1657 N   0  0  0  0  0  0  0  0  0  0  0  0
   21.6039   -8.4038  -14.8874 C   0  0  0  0  0  0  0  0  0  0  0  0
   22.3710   -7.4005  -14.0408 C   0  0  0  0  0  0  0  0  0  0  0  0
   21.2661   -6.7859  -13.1891 C   0  0  0  0  0  0  0  0  0  0  0  0
   20.1624   -6.6342  -14.2458 C   0  0  1  0  0  0  0  0  0  0  0  0
   20.3441   -5.3155  -14.9186 C   0  0  0  0  0  0  0  0  0  0  0  0
   19.9744   -4.1643  -14.2734 O   0  0  0  0  0  0  0  0  0  0  0  0
   20.8303   -5.2897  -16.0576 O   0  0  0  0  0  0  0  0  0  0  0  0
  2  1  1  1
  2  3  1  0
  4  2  1  0
  4  6  1  0
  4  5  1  1
  6  7  2  0
  8  6  1  0
  8  9  1  0
  9 10  1  6
 10 11  1  0
 12 16  1  0
 12 11  1  0
 13 12  2  0
 14  9  1  0
 14 15  2  0
 17 21  1  0
 17 14  1  0
 18 17  1  0
 19 20  1  0
 19 18  1  0
 20 21  1  0
 21 22  1  6
 22 24  2  0
 22 23  1  0
M  END
$$$$
