VEP.pdb
     RDKit          3D

 24 24  0  0  1  0  0  0  0  0999 V2000
   23.6818  -13.3211  -19.2956 C   0  0  0  0  0  0  0  0  0  0  0  0
   24.0539  -13.3356  -17.8534 C   0  0  2  0  0  0  0  0  0  0  0  0
   22.9677  -13.9558  -17.0158 C   0  0  0  0  0  0  0  0  0  0  0  0
   24.4946  -11.9969  -17.3189 C   0  0  2  0  0  0  0  0  0  0  0  0
   25.0581  -12.2508  -15.9871 N   0  0  0  0  0  0  0  0  0  0  0  0
   23.4186  -11.0079  -17.2449 C   0  0  0  0  0  0  0  0  0  0  0  0
   22.9229  -10.5532  -18.3007 O   0  0  0  0  0  0  0  0  0  0  0  0
   22.9127  -10.5417  -16.0072 N   0  0  0  0  0  0  0  0  0  0  0  0
   21.8080   -9.5590  -15.9590 C   0  0  1  0  0  0  0  0  0  0  0  0
   20.7178  -10.2264  -15.1423 C   0  0  0  0  0  0  0  0  0  0  0  0
   19.6920  -10.7880  -16.0704 C   0  0  0  0  0  0  0  0  0  0  0  0
   18.5211  -11.3568  -15.3024 C   0  0  0  0  0  0  0  0  0  0  0  0
   17.8116  -10.5835  -14.6143 O   0  0  0  0  0  0  0  0  0  0  0  0
   22.2605   -8.3162  -15.2969 C   0  0  0  0  0  0  0  0  0  0  0  0
   22.9737   -8.5274  -14.2339 O   0  0  0  0  0  0  0  0  0  0  0  0
   18.1989  -12.6940  -15.3263 O   0  0  0  0  0  0  0  0  0  0  0  0
   21.9941   -7.0008  -15.7102 N   0  0  0  0  0  0  0  0  0  0  0  0
   21.1145   -6.7091  -16.8557 C   0  0  0  0  0  0  0  0  0  0  0  0
   20.7680   -5.2389  -16.6817 C   0  0  0  0  0  0  0  0  0  0  0  0
   22.0736   -4.6611  -16.1472 C   0  0  0  0  0  0  0  0  0  0  0  0
   22.4731   -5.7651  -15.1575 C   0  0  1  0  0  0  0  0  0  0  0  0
   21.8310   -5.4644  -13.8453 C   0  0  0  0  0  0  0  0  0  0  0  0
   22.3886   -4.5304  -13.0115 O   0  0  0  0  0  0  0  0  0  0  0  0
   20.7971   -6.0719  -13.5347 O   0  0  0  0  0  0  0  0  0  0  0  0
  2  1  1  6
  2  3  1  0
  4  2  1  0
  4  6  1  0
  4  5  1  1
  6  7  2  0
  8  6  1  0
  8  9  1  0
  9 10  1  1
 10 11  1  0
 12 16  1  0
 12 11  1  0
 13 12  2  0
 14  9  1  0
 14 15  2  0
 17 21  1  0
 17 14  1  0
 18 17  1  0
 19 20  1  0
 19 18  1  0
 20 21  1  0
 21 22  1  1
 22 24  2  0
 22 23  1  0
M  END
$$$$
