VEP.pdb
     RDKit          3D

 24 24  0  0  1  0  0  0  0  0999 V2000
   22.5939  -13.9375  -17.8462 C   0  0  0  0  0  0  0  0  0  0  0  0
   23.8038  -13.2929  -18.4287 C   0  0  2  0  0  0  0  0  0  0  0  0
   24.9389  -14.2739  -18.5522 C   0  0  0  0  0  0  0  0  0  0  0  0
   24.2190  -12.0223  -17.7320 C   0  0  2  0  0  0  0  0  0  0  0  0
   24.7387  -12.4239  -16.4189 N   0  0  0  0  0  0  0  0  0  0  0  0
   23.1358  -11.0497  -17.5837 C   0  0  0  0  0  0  0  0  0  0  0  0
   22.6292  -10.5282  -18.6029 O   0  0  0  0  0  0  0  0  0  0  0  0
   22.6348  -10.6734  -16.3139 N   0  0  0  0  0  0  0  0  0  0  0  0
   21.5840   -9.6399  -16.1869 C   0  0  1  0  0  0  0  0  0  0  0  0
   20.4150  -10.3414  -15.5216 C   0  0  0  0  0  0  0  0  0  0  0  0
   19.2695   -9.3888  -15.4250 C   0  0  0  0  0  0  0  0  0  0  0  0
   18.0656  -10.0524  -14.7969 C   0  0  0  0  0  0  0  0  0  0  0  0
   17.4165   -9.4310  -13.9208 O   0  0  0  0  0  0  0  0  0  0  0  0
   22.0651   -8.5255  -15.3418 C   0  0  0  0  0  0  0  0  0  0  0  0
   22.5563   -8.9138  -14.2054 O   0  0  0  0  0  0  0  0  0  0  0  0
   17.6494  -11.3159  -15.1473 O   0  0  0  0  0  0  0  0  0  0  0  0
   22.0349   -7.1580  -15.6597 N   0  0  0  0  0  0  0  0  0  0  0  0
   21.4881   -6.6692  -16.9377 C   0  0  0  0  0  0  0  0  0  0  0  0
   21.2548   -5.1874  -16.6891 C   0  0  0  0  0  0  0  0  0  0  0  0
   22.4440   -4.8168  -15.8103 C   0  0  0  0  0  0  0  0  0  0  0  0
   22.4853   -6.0387  -14.8812 C   0  0  1  0  0  0  0  0  0  0  0  0
   21.5798   -5.7725  -13.7263 C   0  0  0  0  0  0  0  0  0  0  0  0
   22.0065   -4.9777  -12.6945 O   0  0  0  0  0  0  0  0  0  0  0  0
   20.4503   -6.2810  -13.7251 O   0  0  0  0  0  0  0  0  0  0  0  0
  2  1  1  1
  2  3  1  0
  4  2  1  0
  4  6  1  0
  4  5  1  1
  6  7  2  0
  8  6  1  0
  8  9  1  0
  9 10  1  1
 10 11  1  0
 12 16  1  0
 12 11  1  0
 13 12  2  0
 14  9  1  0
 14 15  2  0
 17 21  1  0
 17 14  1  0
 18 17  1  0
 19 20  1  0
 19 18  1  0
 20 21  1  0
 21 22  1  1
 22 24  2  0
 22 23  1  0
M  END
$$$$
