SCP.pdb
     RDKit          3D

 20 20  0  0  1  0  0  0  0  0999 V2000
   28.5338  -11.6798  -15.9998 O   0  0  0  0  0  0  0  0  0  0  0  0
   27.5490  -10.7940  -16.4148 C   0  0  0  0  0  0  0  0  0  0  0  0
   26.2594  -11.5756  -16.5751 C   0  0  2  0  0  0  0  0  0  0  0  0
   26.3738  -12.4909  -17.7152 N   0  0  0  0  0  0  0  0  0  0  0  0
   25.1334  -10.6310  -16.8174 C   0  0  0  0  0  0  0  0  0  0  0  0
   24.9216  -10.2193  -17.9956 O   0  0  0  0  0  0  0  0  0  0  0  0
   24.2611  -10.1468  -15.8130 N   0  0  0  0  0  0  0  0  0  0  0  0
   23.1551   -9.2518  -16.0874 C   0  0  1  0  0  0  0  0  0  0  0  0
   21.9016   -9.9827  -15.6587 C   0  0  0  0  0  0  0  0  0  0  0  0
   22.0347  -10.3757  -13.9105 S   0  0  0  0  0  0  0  0  0  0  0  0
   23.3610   -7.9769  -15.3942 C   0  0  0  0  0  0  0  0  0  0  0  0
   24.2093   -7.8972  -14.4515 O   0  0  0  0  0  0  0  0  0  0  0  0
   22.6573   -6.7931  -15.7142 N   0  0  0  0  0  0  0  0  0  0  0  0
   21.5809   -6.6258  -16.7012 C   0  0  0  0  0  0  0  0  0  0  0  0
   21.6543   -5.2073  -17.1724 C   0  0  0  0  0  0  0  0  0  0  0  0
   22.8328   -4.6274  -16.4205 C   0  0  0  0  0  0  0  0  0  0  0  0
   22.8189   -5.4630  -15.1574 C   0  0  1  0  0  0  0  0  0  0  0  0
   21.6519   -5.0803  -14.3171 C   0  0  0  0  0  0  0  0  0  0  0  0
   21.6646   -4.0490  -13.4051 O   0  0  0  0  0  0  0  0  0  0  0  0
   20.5943   -5.7382  -14.4493 O   0  0  0  0  0  0  0  0  0  0  0  0
  1  2  1  0
  2  3  1  0
  3  4  1  6
  5  3  1  0
  6  5  2  0
  7  5  1  0
  8 11  1  0
  8  7  1  0
  9 10  1  0
  8  9  1  1
 11 12  2  0
 13 11  1  0
 13 14  1  0
 15 14  1  0
 16 17  1  0
 16 15  1  0
 17 18  1  1
 17 13  1  0
 18 19  1  0
 20 18  2  0
M  END
$$$$
