SCP.pdb
     RDKit          3D

 20 20  0  0  1  0  0  0  0  0999 V2000
   27.7863  -20.9672  -13.7785 O   0  0  0  0  0  0  0  0  0  0  0  0
   27.6536  -21.7144  -12.6163 C   0  0  0  0  0  0  0  0  0  0  0  0
   26.2440  -21.5141  -12.0942 C   0  0  2  0  0  0  0  0  0  0  0  0
   25.4212  -20.8722  -13.1245 N   0  0  0  0  0  0  0  0  0  0  0  0
   26.2813  -20.6440  -10.8858 C   0  0  0  0  0  0  0  0  0  0  0  0
   26.2794  -19.3869  -11.0355 O   0  0  0  0  0  0  0  0  0  0  0  0
   26.3186  -21.1212   -9.5535 N   0  0  0  0  0  0  0  0  0  0  0  0
   26.4115  -20.2480   -8.4009 C   0  0  1  0  0  0  0  0  0  0  0  0
   25.0211  -20.1789   -7.8080 C   0  0  0  0  0  0  0  0  0  0  0  0
   24.6816  -21.7244   -6.9569 S   0  0  0  0  0  0  0  0  0  0  0  0
   27.4249  -20.7549   -7.4712 C   0  0  0  0  0  0  0  0  0  0  0  0
   27.9346  -21.9045   -7.6536 O   0  0  0  0  0  0  0  0  0  0  0  0
   27.8877  -20.0279   -6.3504 N   0  0  0  0  0  0  0  0  0  0  0  0
   27.4825  -18.6813   -5.9221 C   0  0  0  0  0  0  0  0  0  0  0  0
   28.6548  -18.0954   -5.1997 C   0  0  0  0  0  0  0  0  0  0  0  0
   29.7168  -19.1704   -5.2829 C   0  0  0  0  0  0  0  0  0  0  0  0
   28.8668  -20.4220   -5.3546 C   0  0  1  0  0  0  0  0  0  0  0  0
   28.2285  -20.6697   -4.0334 C   0  0  0  0  0  0  0  0  0  0  0  0
   28.8982  -21.1577   -2.9338 O   0  0  0  0  0  0  0  0  0  0  0  0
   27.0070  -20.4182   -3.9169 O   0  0  0  0  0  0  0  0  0  0  0  0
  1  2  1  0
  2  3  1  0
  3  4  1  6
  5  3  1  0
  6  5  2  0
  7  5  1  0
  8 11  1  0
  8  7  1  0
  9 10  1  0
  8  9  1  1
 11 12  2  0
 13 11  1  0
 13 14  1  0
 15 14  1  0
 16 17  1  0
 16 15  1  0
 17 18  1  1
 17 13  1  0
 18 19  1  0
 20 18  2  0
M  END
$$$$
