SCP.pdb
     RDKit          3D

 20 20  0  0  1  0  0  0  0  0999 V2000
   16.1190  -10.4378  -18.5482 O   0  0  0  0  0  0  0  0  0  0  0  0
   16.9024  -10.5042  -17.4043 C   0  0  0  0  0  0  0  0  0  0  0  0
   18.2178  -11.1587  -17.7799 C   0  0  2  0  0  0  0  0  0  0  0  0
   18.1315  -12.6058  -17.5590 N   0  0  0  0  0  0  0  0  0  0  0  0
   19.3095  -10.5993  -16.9349 C   0  0  0  0  0  0  0  0  0  0  0  0
   19.3963  -10.9635  -15.7256 O   0  0  0  0  0  0  0  0  0  0  0  0
   20.2800   -9.6728  -17.3865 N   0  0  0  0  0  0  0  0  0  0  0  0
   21.3127   -9.1255  -16.5300 C   0  0  1  0  0  0  0  0  0  0  0  0
   22.5953   -9.1686  -17.3314 C   0  0  0  0  0  0  0  0  0  0  0  0
   23.8986   -8.3869  -16.3728 S   0  0  0  0  0  0  0  0  0  0  0  0
   20.9356   -7.7785  -16.0919 C   0  0  0  0  0  0  0  0  0  0  0  0
   20.3725   -6.9813  -16.9054 O   0  0  0  0  0  0  0  0  0  0  0  0
   21.1634   -7.2919  -14.7841 N   0  0  0  0  0  0  0  0  0  0  0  0
   21.8360   -7.9802  -13.6729 C   0  0  0  0  0  0  0  0  0  0  0  0
   21.2416   -7.4330  -12.4132 C   0  0  0  0  0  0  0  0  0  0  0  0
   20.2012   -6.4442  -12.8931 C   0  0  0  0  0  0  0  0  0  0  0  0
   20.7946   -6.0083  -14.2167 C   0  0  1  0  0  0  0  0  0  0  0  0
   21.9914   -5.1582  -13.9727 C   0  0  0  0  0  0  0  0  0  0  0  0
   21.9339   -3.8563  -13.5285 O   0  0  0  0  0  0  0  0  0  0  0  0
   23.1192   -5.6600  -14.1852 O   0  0  0  0  0  0  0  0  0  0  0  0
  1  2  1  0
  2  3  1  0
  3  4  1  1
  5  3  1  0
  6  5  2  0
  7  5  1  0
  8 11  1  0
  8  7  1  0
  9 10  1  0
  8  9  1  6
 11 12  2  0
 13 11  1  0
 13 14  1  0
 15 14  1  0
 16 17  1  0
 16 15  1  0
 17 18  1  1
 17 13  1  0
 18 19  1  0
 20 18  2  0
M  END
$$$$
