SCP.pdb
     RDKit          3D

 20 20  0  0  1  0  0  0  0  0999 V2000
   24.2367  -12.4459  -18.8034 O   0  0  0  0  0  0  0  0  0  0  0  0
   23.4045  -11.3500  -18.6214 C   0  0  0  0  0  0  0  0  0  0  0  0
   22.3397  -11.7381  -17.6137 C   0  0  2  0  0  0  0  0  0  0  0  0
   21.3762  -12.6502  -18.2384 N   0  0  0  0  0  0  0  0  0  0  0  0
   21.6261  -10.5155  -17.1501 C   0  0  0  0  0  0  0  0  0  0  0  0
   20.8454   -9.9212  -17.9500 O   0  0  0  0  0  0  0  0  0  0  0  0
   21.7534   -9.9531  -15.8572 N   0  0  0  0  0  0  0  0  0  0  0  0
   21.0651   -8.7461  -15.4463 C   0  0  1  0  0  0  0  0  0  0  0  0
   20.5310   -9.0146  -14.0564 C   0  0  0  0  0  0  0  0  0  0  0  0
   19.8347   -7.4922  -13.4039 S   0  0  0  0  0  0  0  0  0  0  0  0
   21.9788   -7.6022  -15.5165 C   0  0  0  0  0  0  0  0  0  0  0  0
   23.1995   -7.7446  -15.1937 O   0  0  0  0  0  0  0  0  0  0  0  0
   21.5806   -6.3108  -15.9323 N   0  0  0  0  0  0  0  0  0  0  0  0
   20.2332   -5.8651  -16.3153 C   0  0  0  0  0  0  0  0  0  0  0  0
   20.4183   -4.7448  -17.2902 C   0  0  0  0  0  0  0  0  0  0  0  0
   21.9198   -4.6263  -17.4382 C   0  0  0  0  0  0  0  0  0  0  0  0
   22.3908   -5.1168  -16.0848 C   0  0  1  0  0  0  0  0  0  0  0  0
   22.0661   -4.1034  -15.0446 C   0  0  0  0  0  0  0  0  0  0  0  0
   21.0695   -4.2544  -14.1066 O   0  0  0  0  0  0  0  0  0  0  0  0
   22.7421   -3.0492  -15.0229 O   0  0  0  0  0  0  0  0  0  0  0  0
  1  2  1  0
  2  3  1  0
  3  4  1  6
  5  3  1  0
  6  5  2  0
  7  5  1  0
  8 11  1  0
  8  7  1  0
  9 10  1  0
  8  9  1  1
 11 12  2  0
 13 11  1  0
 13 14  1  0
 15 14  1  0
 16 17  1  0
 16 15  1  0
 17 18  1  1
 17 13  1  0
 18 19  1  0
 20 18  2  0
M  END
$$$$
