SCP.pdb
     RDKit          3D

 20 20  0  0  1  0  0  0  0  0999 V2000
   25.5380  -16.9800  -16.3701 O   0  0  0  0  0  0  0  0  0  0  0  0
   26.2170  -16.4857  -15.2650 C   0  0  0  0  0  0  0  0  0  0  0  0
   27.4511  -17.3422  -15.0573 C   0  0  2  0  0  0  0  0  0  0  0  0
   28.1336  -17.5461  -16.3392 N   0  0  0  0  0  0  0  0  0  0  0  0
   27.0496  -18.6645  -14.5013 C   0  0  0  0  0  0  0  0  0  0  0  0
   26.9458  -19.6530  -15.2853 O   0  0  0  0  0  0  0  0  0  0  0  0
   26.7694  -18.9097  -13.1355 N   0  0  0  0  0  0  0  0  0  0  0  0
   26.2076  -20.1550  -12.6525 C   0  0  1  0  0  0  0  0  0  0  0  0
   26.3652  -20.1361  -11.1478 C   0  0  0  0  0  0  0  0  0  0  0  0
   24.7774  -20.5179  -10.3986 S   0  0  0  0  0  0  0  0  0  0  0  0
   24.8171  -20.2814  -13.0986 C   0  0  0  0  0  0  0  0  0  0  0  0
   24.1516  -19.2426  -13.4027 O   0  0  0  0  0  0  0  0  0  0  0  0
   24.1460  -21.5202  -13.2169 N   0  0  0  0  0  0  0  0  0  0  0  0
   24.5501  -22.8188  -12.6591 C   0  0  0  0  0  0  0  0  0  0  0  0
   23.9921  -23.8648  -13.5724 C   0  0  0  0  0  0  0  0  0  0  0  0
   23.2969  -23.0747  -14.6601 C   0  0  0  0  0  0  0  0  0  0  0  0
   22.9066  -21.8179  -13.9103 C   0  0  1  0  0  0  0  0  0  0  0  0
   21.8094  -22.1264  -12.9535 C   0  0  0  0  0  0  0  0  0  0  0  0
   20.4830  -22.2267  -13.3089 O   0  0  0  0  0  0  0  0  0  0  0  0
   22.1136  -22.3055  -11.7518 O   0  0  0  0  0  0  0  0  0  0  0  0
  1  2  1  0
  2  3  1  0
  3  4  1  6
  5  3  1  0
  6  5  2  0
  7  5  1  0
  8 11  1  0
  8  7  1  0
  9 10  1  0
  8  9  1  1
 11 12  2  0
 13 11  1  0
 13 14  1  0
 15 14  1  0
 16 17  1  0
 16 15  1  0
 17 18  1  1
 17 13  1  0
 18 19  1  0
 20 18  2  0
M  END
$$$$
