SCP.pdb
     RDKit          3D

 20 20  0  0  1  0  0  0  0  0999 V2000
   19.1982   -8.9369  -19.8458 O   0  0  0  0  0  0  0  0  0  0  0  0
   18.6970  -10.1671  -19.4433 C   0  0  0  0  0  0  0  0  0  0  0  0
   19.7856  -10.8793  -18.6639 C   0  0  2  0  0  0  0  0  0  0  0  0
   19.3598  -12.2487  -18.3575 N   0  0  0  0  0  0  0  0  0  0  0  0
   20.0420  -10.1504  -17.3904 C   0  0  0  0  0  0  0  0  0  0  0  0
   19.1081  -10.0529  -16.5414 O   0  0  0  0  0  0  0  0  0  0  0  0
   21.2745   -9.5451  -17.0457 N   0  0  0  0  0  0  0  0  0  0  0  0
   21.4874   -8.8323  -15.8023 C   0  0  1  0  0  0  0  0  0  0  0  0
   22.8166   -9.3113  -15.2609 C   0  0  0  0  0  0  0  0  0  0  0  0
   22.5172  -10.6615  -14.1139 S   0  0  0  0  0  0  0  0  0  0  0  0
   21.4335   -7.3870  -16.0401 C   0  0  0  0  0  0  0  0  0  0  0  0
   21.9355   -6.8995  -17.1007 O   0  0  0  0  0  0  0  0  0  0  0  0
   20.8419   -6.4705  -15.1406 N   0  0  0  0  0  0  0  0  0  0  0  0
   20.1667   -6.7670  -13.8690 C   0  0  0  0  0  0  0  0  0  0  0  0
   19.1574   -5.6818  -13.6616 C   0  0  0  0  0  0  0  0  0  0  0  0
   19.2970   -4.8063  -14.8881 C   0  0  0  0  0  0  0  0  0  0  0  0
   20.7523   -5.0260  -15.2453 C   0  0  1  0  0  0  0  0  0  0  0  0
   21.6210   -4.3537  -14.2413 C   0  0  0  0  0  0  0  0  0  0  0  0
   22.3086   -5.0173  -13.2501 O   0  0  0  0  0  0  0  0  0  0  0  0
   21.7318   -3.1076  -14.3038 O   0  0  0  0  0  0  0  0  0  0  0  0
  1  2  1  0
  2  3  1  0
  3  4  1  1
  5  3  1  0
  6  5  2  0
  7  5  1  0
  8 11  1  0
  8  7  1  0
  9 10  1  0
  8  9  1  6
 11 12  2  0
 13 11  1  0
 13 14  1  0
 15 14  1  0
 16 17  1  0
 16 15  1  0
 17 18  1  1
 17 13  1  0
 18 19  1  0
 20 18  2  0
M  END
$$$$
