SCP.pdb
     RDKit          3D

 20 20  0  0  1  0  0  0  0  0999 V2000
   22.6084  -32.9335   -8.9560 O   0  0  0  0  0  0  0  0  0  0  0  0
   23.5844  -33.7582   -8.4137 C   0  0  0  0  0  0  0  0  0  0  0  0
   24.9346  -33.2449   -8.8753 C   0  0  2  0  0  0  0  0  0  0  0  0
   25.3103  -33.9012  -10.1318 N   0  0  0  0  0  0  0  0  0  0  0  0
   25.9613  -33.5477   -7.8394 C   0  0  0  0  0  0  0  0  0  0  0  0
   26.7934  -34.4771   -8.0546 O   0  0  0  0  0  0  0  0  0  0  0  0
   26.0839  -32.8633   -6.6063 N   0  0  0  0  0  0  0  0  0  0  0  0
   27.0665  -33.2122   -5.6001 C   0  0  1  0  0  0  0  0  0  0  0  0
   26.9343  -32.1796   -4.5021 C   0  0  0  0  0  0  0  0  0  0  0  0
   25.2684  -32.2609   -3.8340 S   0  0  0  0  0  0  0  0  0  0  0  0
   26.8480  -34.5884   -5.1453 C   0  0  0  0  0  0  0  0  0  0  0  0
   25.7194  -35.1440   -5.3245 O   0  0  0  0  0  0  0  0  0  0  0  0
   27.8397  -35.3631   -4.5008 N   0  0  0  0  0  0  0  0  0  0  0  0
   29.1978  -34.9491   -4.1201 C   0  0  0  0  0  0  0  0  0  0  0  0
   30.0403  -36.1857   -4.1437 C   0  0  0  0  0  0  0  0  0  0  0  0
   29.0864  -37.2760   -4.5815 C   0  0  0  0  0  0  0  0  0  0  0  0
   27.7679  -36.7436   -4.0597 C   0  0  1  0  0  0  0  0  0  0  0  0
   27.7422  -36.8389   -2.5749 C   0  0  0  0  0  0  0  0  0  0  0  0
   27.8883  -35.7608   -1.7312 O   0  0  0  0  0  0  0  0  0  0  0  0
   27.5773  -37.9704   -2.0636 O   0  0  0  0  0  0  0  0  0  0  0  0
  1  2  1  0
  2  3  1  0
  3  4  1  6
  5  3  1  0
  6  5  2  0
  7  5  1  0
  8 11  1  0
  8  7  1  0
  9 10  1  0
  8  9  1  1
 11 12  2  0
 13 11  1  0
 13 14  1  0
 15 14  1  0
 16 17  1  0
 16 15  1  0
 17 18  1  1
 17 13  1  0
 18 19  1  0
 20 18  2  0
M  END
$$$$
