SCP.pdb
     RDKit          3D

 20 20  0  0  1  0  0  0  0  0999 V2000
   22.9128  -12.1766  -18.6092 O   0  0  0  0  0  0  0  0  0  0  0  0
   22.1003  -11.0825  -18.3457 C   0  0  0  0  0  0  0  0  0  0  0  0
   20.9567  -11.5544  -17.4686 C   0  0  2  0  0  0  0  0  0  0  0  0
   19.9231  -12.1822  -18.2981 N   0  0  0  0  0  0  0  0  0  0  0  0
   20.3675  -10.3890  -16.7519 C   0  0  0  0  0  0  0  0  0  0  0  0
   19.5512   -9.6409  -17.3657 O   0  0  0  0  0  0  0  0  0  0  0  0
   20.6532  -10.0440  -15.4090 N   0  0  0  0  0  0  0  0  0  0  0  0
   20.0741   -8.8933  -14.7456 C   0  0  1  0  0  0  0  0  0  0  0  0
   19.5471   -9.3902  -13.4172 C   0  0  0  0  0  0  0  0  0  0  0  0
   19.1460   -7.9712  -12.3906 S   0  0  0  0  0  0  0  0  0  0  0  0
   21.0767   -7.8312  -14.6226 C   0  0  0  0  0  0  0  0  0  0  0  0
   22.2832   -8.1258  -14.3540 O   0  0  0  0  0  0  0  0  0  0  0  0
   20.7821   -6.4583  -14.7882 N   0  0  0  0  0  0  0  0  0  0  0  0
   19.4627   -5.8377  -14.9749 C   0  0  0  0  0  0  0  0  0  0  0  0
   19.6897   -4.5895  -15.7686 C   0  0  0  0  0  0  0  0  0  0  0  0
   21.1810   -4.5799  -16.0262 C   0  0  0  0  0  0  0  0  0  0  0  0
   21.6958   -5.3314  -14.8162 C   0  0  1  0  0  0  0  0  0  0  0  0
   21.5505   -4.4838  -13.6017 C   0  0  0  0  0  0  0  0  0  0  0  0
   22.4230   -3.4763  -13.2566 O   0  0  0  0  0  0  0  0  0  0  0  0
   20.5737   -4.7023  -12.8487 O   0  0  0  0  0  0  0  0  0  0  0  0
  1  2  1  0
  2  3  1  0
  3  4  1  6
  5  3  1  0
  6  5  2  0
  7  5  1  0
  8 11  1  0
  8  7  1  0
  9 10  1  0
  8  9  1  1
 11 12  2  0
 13 11  1  0
 13 14  1  0
 15 14  1  0
 16 17  1  0
 16 15  1  0
 17 18  1  1
 17 13  1  0
 18 19  1  0
 20 18  2  0
M  END
$$$$
