SCP.pdb
     RDKit          3D

 20 20  0  0  1  0  0  0  0  0999 V2000
   17.2643  -13.8574  -18.5987 O   0  0  0  0  0  0  0  0  0  0  0  0
   17.4434  -13.0624  -17.4750 C   0  0  0  0  0  0  0  0  0  0  0  0
   18.7781  -13.4288  -16.8552 C   0  0  2  0  0  0  0  0  0  0  0  0
   18.6578  -14.7025  -16.1385 N   0  0  0  0  0  0  0  0  0  0  0  0
   19.1888  -12.3652  -15.8967 C   0  0  0  0  0  0  0  0  0  0  0  0
   18.4799  -12.1601  -14.8681 O   0  0  0  0  0  0  0  0  0  0  0  0
   20.3347  -11.5476  -16.0471 N   0  0  0  0  0  0  0  0  0  0  0  0
   20.6411  -10.4415  -15.1626 C   0  0  1  0  0  0  0  0  0  0  0  0
   22.1421  -10.4543  -14.9717 C   0  0  0  0  0  0  0  0  0  0  0  0
   22.6126   -9.0065  -14.0174 S   0  0  0  0  0  0  0  0  0  0  0  0
   20.1293   -9.1913  -15.7313 C   0  0  0  0  0  0  0  0  0  0  0  0
   20.2568   -8.9608  -16.9744 O   0  0  0  0  0  0  0  0  0  0  0  0
   19.4831   -8.1937  -14.9656 N   0  0  0  0  0  0  0  0  0  0  0  0
   19.1703   -8.2240  -13.5296 C   0  0  0  0  0  0  0  0  0  0  0  0
   17.9535   -7.3732  -13.3427 C   0  0  0  0  0  0  0  0  0  0  0  0
   17.6076   -6.9084  -14.7408 C   0  0  0  0  0  0  0  0  0  0  0  0
   18.9718   -6.9067  -15.3988 C   0  0  1  0  0  0  0  0  0  0  0  0
   19.7879   -5.7872  -14.8555 C   0  0  0  0  0  0  0  0  0  0  0  0
   20.8952   -5.9586  -14.0555 O   0  0  0  0  0  0  0  0  0  0  0  0
   19.4444   -4.6180  -15.1453 O   0  0  0  0  0  0  0  0  0  0  0  0
  1  2  1  0
  2  3  1  0
  3  4  1  1
  5  3  1  0
  6  5  2  0
  7  5  1  0
  8 11  1  0
  8  7  1  0
  9 10  1  0
  8  9  1  6
 11 12  2  0
 13 11  1  0
 13 14  1  0
 15 14  1  0
 16 17  1  0
 16 15  1  0
 17 18  1  1
 17 13  1  0
 18 19  1  0
 20 18  2  0
M  END
$$$$
