SCP.pdb
     RDKit          3D

 20 20  0  0  1  0  0  0  0  0999 V2000
   21.1102  -12.6840  -20.6588 O   0  0  0  0  0  0  0  0  0  0  0  0
   21.5671  -13.0518  -19.4008 C   0  0  0  0  0  0  0  0  0  0  0  0
   20.3944  -13.6286  -18.6314 C   0  0  2  0  0  0  0  0  0  0  0  0
   19.6563  -14.5661  -19.4839 N   0  0  0  0  0  0  0  0  0  0  0  0
   19.4839  -12.5259  -18.2145 C   0  0  0  0  0  0  0  0  0  0  0  0
   18.6103  -12.1106  -19.0312 O   0  0  0  0  0  0  0  0  0  0  0  0
   19.5177  -11.8916  -16.9493 N   0  0  0  0  0  0  0  0  0  0  0  0
   18.6280  -10.8087  -16.5812 C   0  0  1  0  0  0  0  0  0  0  0  0
   18.2804  -11.0221  -15.1242 C   0  0  0  0  0  0  0  0  0  0  0  0
   17.3972   -9.5761  -14.5262 S   0  0  0  0  0  0  0  0  0  0  0  0
   19.2719   -9.5201  -16.8516 C   0  0  0  0  0  0  0  0  0  0  0  0
   20.5357   -9.4137  -16.7738 O   0  0  0  0  0  0  0  0  0  0  0  0
   18.5588   -8.3513  -17.2044 N   0  0  0  0  0  0  0  0  0  0  0  0
   17.1060   -8.1992  -17.3681 C   0  0  0  0  0  0  0  0  0  0  0  0
   16.9041   -7.1019  -18.3655 C   0  0  0  0  0  0  0  0  0  0  0  0
   18.3079   -6.6907  -18.7535 C   0  0  0  0  0  0  0  0  0  0  0  0
   19.0747   -7.0257  -17.4910 C   0  0  1  0  0  0  0  0  0  0  0  0
   18.7171   -6.0596  -16.4171 C   0  0  0  0  0  0  0  0  0  0  0  0
   19.2105   -4.7766  -16.3395 O   0  0  0  0  0  0  0  0  0  0  0  0
   17.9179   -6.4392  -15.5305 O   0  0  0  0  0  0  0  0  0  0  0  0
  1  2  1  0
  2  3  1  0
  3  4  1  6
  5  3  1  0
  6  5  2  0
  7  5  1  0
  8 11  1  0
  8  7  1  0
  9 10  1  0
  8  9  1  1
 11 12  2  0
 13 11  1  0
 13 14  1  0
 15 14  1  0
 16 17  1  0
 16 15  1  0
 17 18  1  1
 17 13  1  0
 18 19  1  0
 20 18  2  0
M  END
$$$$
