SCP.pdb
     RDKit          3D

 20 20  0  0  1  0  0  0  0  0999 V2000
   16.9652  -10.3588  -17.1660 O   0  0  0  0  0  0  0  0  0  0  0  0
   17.2352   -9.1958  -16.4580 C   0  0  0  0  0  0  0  0  0  0  0  0
   18.2679   -9.5271  -15.3980 C   0  0  2  0  0  0  0  0  0  0  0  0
   17.6626  -10.3736  -14.3648 N   0  0  0  0  0  0  0  0  0  0  0  0
   18.7587   -8.2674  -14.7725 C   0  0  0  0  0  0  0  0  0  0  0  0
   17.9700   -7.5975  -14.0434 O   0  0  0  0  0  0  0  0  0  0  0  0
   20.0662   -7.7484  -14.9313 N   0  0  0  0  0  0  0  0  0  0  0  0
   20.4838   -6.4716  -14.3883 C   0  0  1  0  0  0  0  0  0  0  0  0
   21.8019   -6.7192  -13.6879 C   0  0  0  0  0  0  0  0  0  0  0  0
   22.4756   -5.1409  -13.1557 S   0  0  0  0  0  0  0  0  0  0  0  0
   20.5633   -5.4753  -15.4604 C   0  0  0  0  0  0  0  0  0  0  0  0
   20.9599   -5.8191  -16.6176 O   0  0  0  0  0  0  0  0  0  0  0  0
   20.2174   -4.1153  -15.2879 N   0  0  0  0  0  0  0  0  0  0  0  0
   19.7788   -3.4485  -14.0535 C   0  0  0  0  0  0  0  0  0  0  0  0
   18.9032   -2.3103  -14.4745 C   0  0  0  0  0  0  0  0  0  0  0  0
   18.8651   -2.4104  -15.9841 C   0  0  0  0  0  0  0  0  0  0  0  0
   20.2074   -3.0498  -16.2729 C   0  0  1  0  0  0  0  0  0  0  0  0
   21.2950   -2.0661  -16.0201 C   0  0  0  0  0  0  0  0  0  0  0  0
   21.6623   -1.0791  -16.9069 O   0  0  0  0  0  0  0  0  0  0  0  0
   21.9128   -2.1426  -14.9332 O   0  0  0  0  0  0  0  0  0  0  0  0
  1  2  1  0
  2  3  1  0
  3  4  1  1
  5  3  1  0
  6  5  2  0
  7  5  1  0
  8 11  1  0
  8  7  1  0
  9 10  1  0
  8  9  1  6
 11 12  2  0
 13 11  1  0
 13 14  1  0
 15 14  1  0
 16 17  1  0
 16 15  1  0
 17 18  1  1
 17 13  1  0
 18 19  1  0
 20 18  2  0
M  END
$$$$
