SCP.pdb
     RDKit          3D

 20 20  0  0  1  0  0  0  0  0999 V2000
   22.9112   -2.7309  -17.0685 O   0  0  0  0  0  0  0  0  0  0  0  0
   23.2272   -3.8790  -16.3553 C   0  0  0  0  0  0  0  0  0  0  0  0
   21.9484   -4.4057  -15.7333 C   0  0  2  0  0  0  0  0  0  0  0  0
   21.8475   -3.9458  -14.3445 N   0  0  0  0  0  0  0  0  0  0  0  0
   21.9625   -5.8951  -15.7555 C   0  0  0  0  0  0  0  0  0  0  0  0
   23.0759   -6.4972  -15.7666 O   0  0  0  0  0  0  0  0  0  0  0  0
   20.8042   -6.7090  -15.7646 N   0  0  0  0  0  0  0  0  0  0  0  0
   20.8470   -8.1505  -15.6232 C   0  0  1  0  0  0  0  0  0  0  0  0
   21.2036   -8.4245  -14.1786 C   0  0  0  0  0  0  0  0  0  0  0  0
   21.0509  -10.1885  -13.8734 S   0  0  0  0  0  0  0  0  0  0  0  0
   19.5655   -8.7305  -16.0350 C   0  0  0  0  0  0  0  0  0  0  0  0
   18.4769   -8.2206  -15.6233 O   0  0  0  0  0  0  0  0  0  0  0  0
   19.4561   -9.8542  -16.8861 N   0  0  0  0  0  0  0  0  0  0  0  0
   20.5398  -10.7118  -17.3872 C   0  0  0  0  0  0  0  0  0  0  0  0
   20.0787  -11.2516  -18.7045 C   0  0  0  0  0  0  0  0  0  0  0  0
   18.7154  -10.6257  -18.9050 C   0  0  0  0  0  0  0  0  0  0  0  0
   18.2628  -10.4355  -17.4722 C   0  0  1  0  0  0  0  0  0  0  0  0
   17.9491  -11.7582  -16.8668 C   0  0  0  0  0  0  0  0  0  0  0  0
   18.6868  -12.3389  -15.8598 O   0  0  0  0  0  0  0  0  0  0  0  0
   16.9522  -12.3795  -17.3016 O   0  0  0  0  0  0  0  0  0  0  0  0
  1  2  1  0
  2  3  1  0
  3  4  1  1
  5  3  1  0
  6  5  2  0
  7  5  1  0
  8 11  1  0
  8  7  1  0
  9 10  1  0
  8  9  1  1
 11 12  2  0
 13 11  1  0
 13 14  1  0
 15 14  1  0
 16 17  1  0
 16 15  1  0
 17 18  1  1
 17 13  1  0
 18 19  1  0
 20 18  2  0
M  END
$$$$
