SCP.pdb
     RDKit          3D

 20 20  0  0  1  0  0  0  0  0999 V2000
   16.0789  -12.2759  -16.4664 O   0  0  0  0  0  0  0  0  0  0  0  0
   16.3747  -12.5418  -15.1366 C   0  0  0  0  0  0  0  0  0  0  0  0
   16.3229  -11.2295  -14.3783 C   0  0  2  0  0  0  0  0  0  0  0  0
   15.0233  -10.5849  -14.5929 N   0  0  0  0  0  0  0  0  0  0  0  0
   17.4027  -10.3290  -14.8704 C   0  0  0  0  0  0  0  0  0  0  0  0
   18.6072  -10.7057  -14.7717 O   0  0  0  0  0  0  0  0  0  0  0  0
   17.1844   -9.0576  -15.4534 N   0  0  0  0  0  0  0  0  0  0  0  0
   18.2561   -8.2193  -15.9517 C   0  0  1  0  0  0  0  0  0  0  0  0
   17.6060   -7.1871  -16.8468 C   0  0  0  0  0  0  0  0  0  0  0  0
   18.8246   -5.9318  -17.2561 S   0  0  0  0  0  0  0  0  0  0  0  0
   19.0009   -7.6417  -14.8292 C   0  0  0  0  0  0  0  0  0  0  0  0
   18.3911   -7.3194  -13.7621 O   0  0  0  0  0  0  0  0  0  0  0  0
   20.3958   -7.4123  -14.8550 N   0  0  0  0  0  0  0  0  0  0  0  0
   21.3109   -7.5618  -15.9957 C   0  0  0  0  0  0  0  0  0  0  0  0
   22.6517   -7.8983  -15.4226 C   0  0  0  0  0  0  0  0  0  0  0  0
   22.4134   -7.9529  -13.9290 C   0  0  0  0  0  0  0  0  0  0  0  0
   21.2640   -6.9785  -13.7763 C   0  0  1  0  0  0  0  0  0  0  0  0
   21.7523   -5.5902  -13.9968 C   0  0  0  0  0  0  0  0  0  0  0  0
   22.4487   -4.8606  -13.0597 O   0  0  0  0  0  0  0  0  0  0  0  0
   21.5140   -5.0546  -15.1038 O   0  0  0  0  0  0  0  0  0  0  0  0
  1  2  1  0
  2  3  1  0
  3  4  1  6
  5  3  1  0
  6  5  2  0
  7  5  1  0
  8 11  1  0
  8  7  1  0
  9 10  1  0
  8  9  1  1
 11 12  2  0
 13 11  1  0
 13 14  1  0
 15 14  1  0
 16 17  1  0
 16 15  1  0
 17 18  1  6
 17 13  1  0
 18 19  1  0
 20 18  2  0
M  END
$$$$
