SCP.pdb
     RDKit          3D

 20 20  0  0  1  0  0  0  0  0999 V2000
   19.5245  -10.5587  -20.2351 O   0  0  0  0  0  0  0  0  0  0  0  0
   19.2946   -9.8401  -19.0701 C   0  0  0  0  0  0  0  0  0  0  0  0
   20.6002   -9.7721  -18.3015 C   0  0  2  0  0  0  0  0  0  0  0  0
   20.8997  -11.0836  -17.7177 N   0  0  0  0  0  0  0  0  0  0  0  0
   20.4813   -8.7663  -17.2093 C   0  0  0  0  0  0  0  0  0  0  0  0
   19.8530   -9.0775  -16.1553 O   0  0  0  0  0  0  0  0  0  0  0  0
   21.0277   -7.4612  -17.2565 N   0  0  0  0  0  0  0  0  0  0  0  0
   20.9449   -6.5265  -16.1524 C   0  0  1  0  0  0  0  0  0  0  0  0
   21.7135   -7.1518  -15.0088 C   0  0  0  0  0  0  0  0  0  0  0  0
   21.8100   -5.9645  -13.6638 S   0  0  0  0  0  0  0  0  0  0  0  0
   21.4622   -5.2189  -16.5657 C   0  0  0  0  0  0  0  0  0  0  0  0
   22.5455   -5.1449  -17.2257 O   0  0  0  0  0  0  0  0  0  0  0  0
   20.8164   -3.9963  -16.2702 N   0  0  0  0  0  0  0  0  0  0  0  0
   19.6598   -3.7802  -15.3890 C   0  0  0  0  0  0  0  0  0  0  0  0
   18.9441   -2.5763  -15.9162 C   0  0  0  0  0  0  0  0  0  0  0  0
   19.7463   -2.1718  -17.1340 C   0  0  0  0  0  0  0  0  0  0  0  0
   21.1277   -2.6651  -16.7565 C   0  0  1  0  0  0  0  0  0  0  0  0
   21.6868   -1.8087  -15.6756 C   0  0  0  0  0  0  0  0  0  0  0  0
   22.3255   -0.6091  -15.8959 O   0  0  0  0  0  0  0  0  0  0  0  0
   21.5678   -2.2056  -14.4936 O   0  0  0  0  0  0  0  0  0  0  0  0
  1  2  1  0
  2  3  1  0
  3  4  1  1
  5  3  1  0
  6  5  2  0
  7  5  1  0
  8 11  1  0
  8  7  1  0
  9 10  1  0
  8  9  1  1
 11 12  2  0
 13 11  1  0
 13 14  1  0
 15 14  1  0
 16 17  1  0
 16 15  1  0
 17 18  1  1
 17 13  1  0
 18 19  1  0
 20 18  2  0
M  END
$$$$
