SCP.pdb
     RDKit          3D

 20 20  0  0  1  0  0  0  0  0999 V2000
   26.3640  -18.3606  -16.2288 O   0  0  0  0  0  0  0  0  0  0  0  0
   27.2375  -17.9259  -15.2415 C   0  0  0  0  0  0  0  0  0  0  0  0
   28.1857  -19.0666  -14.9257 C   0  0  2  0  0  0  0  0  0  0  0  0
   28.7307  -19.6164  -16.1712 N   0  0  0  0  0  0  0  0  0  0  0  0
   27.4485  -20.1381  -14.1995 C   0  0  0  0  0  0  0  0  0  0  0  0
   26.9760  -21.1109  -14.8575 O   0  0  0  0  0  0  0  0  0  0  0  0
   27.2300  -20.1561  -12.8009 N   0  0  0  0  0  0  0  0  0  0  0  0
   26.1550  -20.9002  -12.1760 C   0  0  1  0  0  0  0  0  0  0  0  0
   26.1866  -20.5381  -10.7072 C   0  0  0  0  0  0  0  0  0  0  0  0
   24.7247  -21.2195   -9.9156 S   0  0  0  0  0  0  0  0  0  0  0  0
   24.8832  -20.5869  -12.8337 C   0  0  0  0  0  0  0  0  0  0  0  0
   24.6283  -19.3930  -13.1858 O   0  0  0  0  0  0  0  0  0  0  0  0
   23.8902  -21.5544  -13.1113 N   0  0  0  0  0  0  0  0  0  0  0  0
   23.8746  -22.9681  -12.7088 C   0  0  0  0  0  0  0  0  0  0  0  0
   23.0850  -23.6969  -13.7504 C   0  0  0  0  0  0  0  0  0  0  0  0
   22.7021  -22.6222  -14.7448 C   0  0  0  0  0  0  0  0  0  0  0  0
   22.6538  -21.3979  -13.8544 C   0  0  1  0  0  0  0  0  0  0  0  0
   21.4680  -21.4770  -12.9588 C   0  0  0  0  0  0  0  0  0  0  0  0
   21.5276  -21.8395  -11.6320 O   0  0  0  0  0  0  0  0  0  0  0  0
   20.3479  -21.1962  -13.4442 O   0  0  0  0  0  0  0  0  0  0  0  0
  1  2  1  0
  2  3  1  0
  3  4  1  6
  5  3  1  0
  6  5  2  0
  7  5  1  0
  8 11  1  0
  8  7  1  0
  9 10  1  0
  8  9  1  1
 11 12  2  0
 13 11  1  0
 13 14  1  0
 15 14  1  0
 16 17  1  0
 16 15  1  0
 17 18  1  1
 17 13  1  0
 18 19  1  0
 20 18  2  0
M  END
$$$$
