NWE.pdb
     RDKit          3D

 32 33  0  0  1  0  0  0  0  0999 V2000
   29.4593  -19.0634  -16.0671 N   0  0  0  0  0  0  0  0  0  0  0  0
   28.1469  -19.3151  -16.5465 C   0  0  0  0  0  0  0  0  0  0  0  0
   27.8481  -18.8035  -17.6762 O   0  0  0  0  0  0  0  0  0  0  0  0
   27.1650  -20.1289  -15.7835 C   0  0  0  0  0  0  0  0  0  0  0  0
   27.7052  -20.5338  -14.4315 C   0  0  2  0  0  0  0  0  0  0  0  0
   28.7348  -21.5230  -14.5873 N   0  0  0  0  0  0  0  0  0  0  0  0
   26.6346  -21.0808  -13.5534 C   0  0  0  0  0  0  0  0  0  0  0  0
   25.9916  -22.1158  -13.8852 O   0  0  0  0  0  0  0  0  0  0  0  0
   26.3470  -20.4236  -12.3387 N   0  0  0  0  0  0  0  0  0  0  0  0
   25.2786  -20.6880  -11.4247 C   0  0  1  0  0  0  0  0  0  0  0  0
   25.5336  -20.1255  -10.0400 C   0  0  0  0  0  0  0  0  0  0  0  0
   26.8847  -20.5375   -9.5977 C   0  0  0  0  0  0  0  0  0  0  0  0
   27.8234  -21.3355  -10.1981 C   0  0  0  0  0  0  0  0  0  0  0  0
   28.9200  -21.4242   -9.3902 N   0  0  0  0  0  0  0  0  0  0  0  0
   28.7372  -20.7109   -8.2771 C   0  0  0  0  0  0  0  0  0  0  0  0
   29.5537  -20.4907   -7.1737 C   0  0  0  0  0  0  0  0  0  0  0  0
   29.0730  -19.6846   -6.1677 C   0  0  0  0  0  0  0  0  0  0  0  0
   27.8366  -19.1242   -6.2579 C   0  0  0  0  0  0  0  0  0  0  0  0
   27.0347  -19.3540   -7.3654 C   0  0  0  0  0  0  0  0  0  0  0  0
   27.4710  -20.1443   -8.3804 C   0  0  0  0  0  0  0  0  0  0  0  0
   23.9338  -20.4138  -11.9439 C   0  0  0  0  0  0  0  0  0  0  0  0
   23.6911  -19.2013  -12.2562 O   0  0  0  0  0  0  0  0  0  0  0  0
   22.9546  -21.4042  -12.0982 N   0  0  0  0  0  0  0  0  0  0  0  0
   21.6692  -21.0995  -12.7473 C   0  0  1  0  0  0  0  0  0  0  0  0
   21.2661  -22.2233  -13.6429 C   0  0  0  0  0  0  0  0  0  0  0  0
   20.0154  -22.8969  -13.1723 C   0  0  0  0  0  0  0  0  0  0  0  0
   19.0703  -22.9899  -14.3260 C   0  0  0  0  0  0  0  0  0  0  0  0
   19.4418  -23.5158  -15.3892 O   0  0  0  0  0  0  0  0  0  0  0  0
   20.6769  -20.8957  -11.6831 C   0  0  0  0  0  0  0  0  0  0  0  0
   20.8588  -21.3027  -10.5231 O   0  0  0  0  0  0  0  0  0  0  0  0
   17.8001  -22.4889  -14.1874 O   0  0  0  0  0  0  0  0  0  0  0  0
   19.4938  -20.2317  -11.9581 O   0  0  0  0  0  0  0  0  0  0  0  0
  1  2  1  0
  2  3  2  0
  4  2  1  0
  5  6  1  6
  5  4  1  0
  7  5  1  0
  8  7  2  0
  9  7  1  0
 10  9  1  0
 11 12  1  0
 10 11  1  1
 12 20  1  0
 12 13  2  0
 13 14  1  0
 15 14  1  0
 15 16  2  0
 17 16  1  0
 18 17  2  0
 19 20  2  0
 19 18  1  0
 20 15  1  0
 21 22  2  0
 21 10  1  0
 23 21  1  0
 24 23  1  0
 24 25  1  6
 26 25  1  0
 27 26  1  0
 28 27  2  0
 29 24  1  0
 30 29  2  0
 31 27  1  0
 32 29  1  0
M  END
$$$$
