NWE.pdb
     RDKit          3D

 32 33  0  0  1  0  0  0  0  0999 V2000
   28.8246  -19.1834  -16.7196 N   0  0  0  0  0  0  0  0  0  0  0  0
   28.9742  -20.5693  -16.4507 C   0  0  0  0  0  0  0  0  0  0  0  0
   29.7669  -21.2129  -17.2153 O   0  0  0  0  0  0  0  0  0  0  0  0
   28.2523  -21.2457  -15.3416 C   0  0  0  0  0  0  0  0  0  0  0  0
   27.3628  -20.2857  -14.5861 C   0  0  2  0  0  0  0  0  0  0  0  0
   28.1617  -19.3182  -13.8872 N   0  0  0  0  0  0  0  0  0  0  0  0
   26.4935  -20.9959  -13.6082 C   0  0  0  0  0  0  0  0  0  0  0  0
   26.0365  -22.1451  -13.8640 O   0  0  0  0  0  0  0  0  0  0  0  0
   26.1858  -20.3641  -12.3849 N   0  0  0  0  0  0  0  0  0  0  0  0
   25.2460  -20.7801  -11.3897 C   0  0  1  0  0  0  0  0  0  0  0  0
   25.5539  -20.2182  -10.0155 C   0  0  0  0  0  0  0  0  0  0  0  0
   26.9182  -20.6366   -9.6224 C   0  0  0  0  0  0  0  0  0  0  0  0
   27.8514  -21.3943  -10.2805 C   0  0  0  0  0  0  0  0  0  0  0  0
   28.9660  -21.5104   -9.5011 N   0  0  0  0  0  0  0  0  0  0  0  0
   28.8001  -20.8540   -8.3509 C   0  0  0  0  0  0  0  0  0  0  0  0
   29.6379  -20.6789   -7.2554 C   0  0  0  0  0  0  0  0  0  0  0  0
   29.1712  -19.9280   -6.2014 C   0  0  0  0  0  0  0  0  0  0  0  0
   27.9277  -19.3773   -6.2382 C   0  0  0  0  0  0  0  0  0  0  0  0
   27.1045  -19.5616   -7.3385 C   0  0  0  0  0  0  0  0  0  0  0  0
   27.5266  -20.2968   -8.3998 C   0  0  0  0  0  0  0  0  0  0  0  0
   23.8360  -20.6678  -11.7801 C   0  0  0  0  0  0  0  0  0  0  0  0
   23.2983  -19.5236  -11.6121 O   0  0  0  0  0  0  0  0  0  0  0  0
   23.0990  -21.7362  -12.3086 N   0  0  0  0  0  0  0  0  0  0  0  0
   21.6985  -21.5544  -12.7230 C   0  0  1  0  0  0  0  0  0  0  0  0
   21.2053  -22.7786  -13.4200 C   0  0  0  0  0  0  0  0  0  0  0  0
   19.7858  -22.6358  -13.8713 C   0  0  0  0  0  0  0  0  0  0  0  0
   19.7873  -22.3262  -15.3332 C   0  0  0  0  0  0  0  0  0  0  0  0
   19.3313  -21.2426  -15.7366 O   0  0  0  0  0  0  0  0  0  0  0  0
   20.9123  -21.2892  -11.5105 C   0  0  0  0  0  0  0  0  0  0  0  0
   21.2219  -21.7648  -10.4049 O   0  0  0  0  0  0  0  0  0  0  0  0
   20.2967  -23.2523  -16.2086 O   0  0  0  0  0  0  0  0  0  0  0  0
   19.7864  -20.4866  -11.5775 O   0  0  0  0  0  0  0  0  0  0  0  0
  1  2  1  0
  2  3  2  0
  4  2  1  0
  5  6  1  1
  5  4  1  0
  7  5  1  0
  8  7  2  0
  9  7  1  0
 10  9  1  0
 11 12  1  0
 10 11  1  1
 12 20  1  0
 12 13  2  0
 13 14  1  0
 15 14  1  0
 15 16  2  0
 17 16  1  0
 18 17  2  0
 19 20  2  0
 19 18  1  0
 20 15  1  0
 21 22  2  0
 21 10  1  0
 23 21  1  0
 24 23  1  0
 24 25  1  1
 26 25  1  0
 27 26  1  0
 28 27  2  0
 29 24  1  0
 30 29  2  0
 31 27  1  0
 32 29  1  0
M  END
$$$$
