NWE.pdb
     RDKit          3D

 32 33  0  0  1  0  0  0  0  0999 V2000
   28.1269  -19.5428  -18.3736 N   0  0  0  0  0  0  0  0  0  0  0  0
   27.0680  -19.1506  -17.5131 C   0  0  0  0  0  0  0  0  0  0  0  0
   26.6975  -17.9323  -17.5888 O   0  0  0  0  0  0  0  0  0  0  0  0
   26.4179  -20.0982  -16.5706 C   0  0  0  0  0  0  0  0  0  0  0  0
   26.0185  -19.4185  -15.2814 C   0  0  2  0  0  0  0  0  0  0  0  0
   27.1834  -18.9231  -14.6029 N   0  0  0  0  0  0  0  0  0  0  0  0
   25.2858  -20.3454  -14.3756 C   0  0  0  0  0  0  0  0  0  0  0  0
   24.7679  -21.4084  -14.8191 O   0  0  0  0  0  0  0  0  0  0  0  0
   25.1777  -20.0184  -13.0077 N   0  0  0  0  0  0  0  0  0  0  0  0
   24.4730  -20.7279  -11.9845 C   0  0  1  0  0  0  0  0  0  0  0  0
   24.8763  -20.3023  -10.5863 C   0  0  0  0  0  0  0  0  0  0  0  0
   26.2807  -20.7056  -10.3500 C   0  0  0  0  0  0  0  0  0  0  0  0
   27.1919  -21.3157  -11.1720 C   0  0  0  0  0  0  0  0  0  0  0  0
   28.3640  -21.4871  -10.4939 N   0  0  0  0  0  0  0  0  0  0  0  0
   28.2575  -21.0097   -9.2521 C   0  0  0  0  0  0  0  0  0  0  0  0
   29.1657  -20.9517   -8.2011 C   0  0  0  0  0  0  0  0  0  0  0  0
   28.7486  -20.3818   -7.0204 C   0  0  0  0  0  0  0  0  0  0  0  0
   27.4855  -19.8926   -6.8938 C   0  0  0  0  0  0  0  0  0  0  0  0
   26.5918  -19.9584   -7.9517 C   0  0  0  0  0  0  0  0  0  0  0  0
   26.9632  -20.5138   -9.1344 C   0  0  0  0  0  0  0  0  0  0  0  0
   23.0229  -20.8297  -12.1843 C   0  0  0  0  0  0  0  0  0  0  0  0
   22.3788  -19.7290  -12.1801 O   0  0  0  0  0  0  0  0  0  0  0  0
   22.3582  -22.0492  -12.3710 N   0  0  0  0  0  0  0  0  0  0  0  0
   20.9160  -22.0852  -12.6631 C   0  0  1  0  0  0  0  0  0  0  0  0
   20.5393  -23.4127  -13.2317 C   0  0  0  0  0  0  0  0  0  0  0  0
   19.0623  -23.5389  -13.4354 C   0  0  0  0  0  0  0  0  0  0  0  0
   18.7036  -22.8453  -14.7094 C   0  0  0  0  0  0  0  0  0  0  0  0
   18.0274  -21.8029  -14.6771 O   0  0  0  0  0  0  0  0  0  0  0  0
   20.2058  -21.8349  -11.4015 C   0  0  0  0  0  0  0  0  0  0  0  0
   19.0337  -21.4230  -11.3733 O   0  0  0  0  0  0  0  0  0  0  0  0
   19.1317  -23.3774  -15.8998 O   0  0  0  0  0  0  0  0  0  0  0  0
   20.8427  -22.0580  -10.1928 O   0  0  0  0  0  0  0  0  0  0  0  0
  1  2  1  0
  2  3  2  0
  4  2  1  0
  5  6  1  1
  5  4  1  0
  7  5  1  0
  8  7  2  0
  9  7  1  0
 10  9  1  0
 11 12  1  0
 10 11  1  1
 12 20  1  0
 12 13  2  0
 13 14  1  0
 15 14  1  0
 15 16  2  0
 17 16  1  0
 18 17  2  0
 19 20  2  0
 19 18  1  0
 20 15  1  0
 21 22  2  0
 21 10  1  0
 23 21  1  0
 24 23  1  0
 24 25  1  1
 26 25  1  0
 27 26  1  0
 28 27  2  0
 29 24  1  0
 30 29  2  0
 31 27  1  0
 32 29  1  0
M  END
$$$$
