NWE.pdb
     RDKit          3D

 32 33  0  0  1  0  0  0  0  0999 V2000
   27.3245  -22.1197  -19.3070 N   0  0  0  0  0  0  0  0  0  0  0  0
   26.4872  -23.2479  -19.1032 C   0  0  0  0  0  0  0  0  0  0  0  0
   26.4744  -24.1201  -20.0341 O   0  0  0  0  0  0  0  0  0  0  0  0
   25.6651  -23.4159  -17.8765 C   0  0  0  0  0  0  0  0  0  0  0  0
   25.7441  -22.2017  -16.9802 C   0  0  2  0  0  0  0  0  0  0  0  0
   27.0957  -22.0018  -16.5376 N   0  0  0  0  0  0  0  0  0  0  0  0
   24.8584  -22.3379  -15.7913 C   0  0  0  0  0  0  0  0  0  0  0  0
   25.3255  -22.6977  -14.6745 O   0  0  0  0  0  0  0  0  0  0  0  0
   23.4829  -22.0576  -15.9301 N   0  0  0  0  0  0  0  0  0  0  0  0
   22.5863  -21.5331  -14.9463 C   0  0  1  0  0  0  0  0  0  0  0  0
   23.1269  -20.2971  -14.2542 C   0  0  0  0  0  0  0  0  0  0  0  0
   22.2048  -19.9201  -13.1595 C   0  0  0  0  0  0  0  0  0  0  0  0
   21.8471  -20.5849  -12.0157 C   0  0  0  0  0  0  0  0  0  0  0  0
   20.9538  -19.8260  -11.3162 N   0  0  0  0  0  0  0  0  0  0  0  0
   20.7105  -18.6822  -11.9594 C   0  0  0  0  0  0  0  0  0  0  0  0
   19.8912  -17.6023  -11.6508 C   0  0  0  0  0  0  0  0  0  0  0  0
   19.8591  -16.5460  -12.5317 C   0  0  0  0  0  0  0  0  0  0  0  0
   20.6090  -16.5655  -13.6667 C   0  0  0  0  0  0  0  0  0  0  0  0
   21.4209  -17.6504  -13.9598 C   0  0  0  0  0  0  0  0  0  0  0  0
   21.4810  -18.7141  -13.1171 C   0  0  0  0  0  0  0  0  0  0  0  0
   21.1891  -21.4143  -15.3786 C   0  0  0  0  0  0  0  0  0  0  0  0
   20.9709  -20.6241  -16.3555 O   0  0  0  0  0  0  0  0  0  0  0  0
   20.1368  -22.1145  -14.7734 N   0  0  0  0  0  0  0  0  0  0  0  0
   18.7512  -21.9450  -15.2399 C   0  0  1  0  0  0  0  0  0  0  0  0
   17.9169  -23.1037  -14.8055 C   0  0  0  0  0  0  0  0  0  0  0  0
   17.9718  -24.2348  -15.7837 C   0  0  0  0  0  0  0  0  0  0  0  0
   17.1014  -25.3377  -15.2747 C   0  0  0  0  0  0  0  0  0  0  0  0
   17.4994  -26.0615  -14.3459 O   0  0  0  0  0  0  0  0  0  0  0  0
   18.2449  -20.6906  -14.6666 C   0  0  0  0  0  0  0  0  0  0  0  0
   18.2958  -20.4529  -13.4478 O   0  0  0  0  0  0  0  0  0  0  0  0
   15.8693  -25.5310  -15.8476 O   0  0  0  0  0  0  0  0  0  0  0  0
   17.6889  -19.7276  -15.4912 O   0  0  0  0  0  0  0  0  0  0  0  0
  1  2  1  0
  2  3  2  0
  4  2  1  0
  5  6  1  1
  5  4  1  0
  7  5  1  0
  8  7  2  0
  9  7  1  0
 10  9  1  0
 11 12  1  0
 10 11  1  6
 12 20  1  0
 12 13  2  0
 13 14  1  0
 15 14  1  0
 15 16  2  0
 17 16  1  0
 18 17  2  0
 19 20  2  0
 19 18  1  0
 20 15  1  0
 21 22  2  0
 21 10  1  0
 23 21  1  0
 24 23  1  0
 24 25  1  1
 26 25  1  0
 27 26  1  0
 28 27  2  0
 29 24  1  0
 30 29  2  0
 31 27  1  0
 32 29  1  0
M  END
$$$$
