NWE.pdb
     RDKit          3D

 32 33  0  0  1  0  0  0  0  0999 V2000
   28.6954  -20.7056  -18.7866 N   0  0  0  0  0  0  0  0  0  0  0  0
   28.3991  -20.1483  -17.5149 C   0  0  0  0  0  0  0  0  0  0  0  0
   29.0210  -19.0783  -17.2058 O   0  0  0  0  0  0  0  0  0  0  0  0
   27.4194  -20.7680  -16.5849 C   0  0  0  0  0  0  0  0  0  0  0  0
   28.0439  -21.0866  -15.2462 C   0  0  2  0  0  0  0  0  0  0  0  0
   29.0144  -22.1354  -15.3911 N   0  0  0  0  0  0  0  0  0  0  0  0
   27.0213  -21.5051  -14.2484 C   0  0  0  0  0  0  0  0  0  0  0  0
   26.4287  -22.6151  -14.3561 O   0  0  0  0  0  0  0  0  0  0  0  0
   26.7219  -20.6402  -13.1750 N   0  0  0  0  0  0  0  0  0  0  0  0
   25.7008  -20.7860  -12.1836 C   0  0  1  0  0  0  0  0  0  0  0  0
   25.9910  -20.0033  -10.9178 C   0  0  0  0  0  0  0  0  0  0  0  0
   27.1925  -20.5733  -10.2679 C   0  0  0  0  0  0  0  0  0  0  0  0
   28.2503  -21.2724  -10.7879 C   0  0  0  0  0  0  0  0  0  0  0  0
   29.1151  -21.5924   -9.7815 N   0  0  0  0  0  0  0  0  0  0  0  0
   28.6641  -21.1271   -8.6147 C   0  0  0  0  0  0  0  0  0  0  0  0
   29.1846  -21.1945   -7.3273 C   0  0  0  0  0  0  0  0  0  0  0  0
   28.4711  -20.5997   -6.3125 C   0  0  0  0  0  0  0  0  0  0  0  0
   27.2943  -19.9672   -6.5693 C   0  0  0  0  0  0  0  0  0  0  0  0
   26.7890  -19.9091   -7.8590 C   0  0  0  0  0  0  0  0  0  0  0  0
   27.4617  -20.4842   -8.8896 C   0  0  0  0  0  0  0  0  0  0  0  0
   24.3276  -20.6361  -12.6785 C   0  0  0  0  0  0  0  0  0  0  0  0
   24.0850  -19.5750  -13.3431 O   0  0  0  0  0  0  0  0  0  0  0  0
   23.3222  -21.5852  -12.4500 N   0  0  0  0  0  0  0  0  0  0  0  0
   21.9477  -21.3571  -12.9246 C   0  0  1  0  0  0  0  0  0  0  0  0
   21.2088  -22.6515  -13.0019 C   0  0  0  0  0  0  0  0  0  0  0  0
   19.8067  -22.4705  -13.4923 C   0  0  0  0  0  0  0  0  0  0  0  0
   19.1848  -23.8209  -13.6438 C   0  0  0  0  0  0  0  0  0  0  0  0
   19.8579  -24.8409  -13.4170 O   0  0  0  0  0  0  0  0  0  0  0  0
   21.3015  -20.4407  -11.9752 C   0  0  0  0  0  0  0  0  0  0  0  0
   21.6341  -20.3856  -10.7791 O   0  0  0  0  0  0  0  0  0  0  0  0
   17.8718  -23.9086  -14.0334 O   0  0  0  0  0  0  0  0  0  0  0  0
   20.2870  -19.6022  -12.4042 O   0  0  0  0  0  0  0  0  0  0  0  0
  1  2  1  0
  2  3  2  0
  4  2  1  0
  5  6  1  6
  5  4  1  0
  7  5  1  0
  8  7  2  0
  9  7  1  0
 10  9  1  0
 11 12  1  0
 10 11  1  1
 12 20  1  0
 12 13  2  0
 13 14  1  0
 15 14  1  0
 15 16  2  0
 17 16  1  0
 18 17  2  0
 19 20  2  0
 19 18  1  0
 20 15  1  0
 21 22  2  0
 21 10  1  0
 23 21  1  0
 24 23  1  0
 24 25  1  1
 26 25  1  0
 27 26  1  0
 28 27  2  0
 29 24  1  0
 30 29  2  0
 31 27  1  0
 32 29  1  0
M  END
$$$$
