NWE.pdb
     RDKit          3D

 32 33  0  0  1  0  0  0  0  0999 V2000
   29.0475  -17.7942  -15.3902 N   0  0  0  0  0  0  0  0  0  0  0  0
   28.5927  -19.0475  -15.8779 C   0  0  0  0  0  0  0  0  0  0  0  0
   28.7394  -19.2568  -17.1277 O   0  0  0  0  0  0  0  0  0  0  0  0
   27.9773  -20.0691  -14.9910 C   0  0  0  0  0  0  0  0  0  0  0  0
   27.8461  -19.5701  -13.5707 C   0  0  2  0  0  0  0  0  0  0  0  0
   29.1467  -19.3488  -13.0029 N   0  0  0  0  0  0  0  0  0  0  0  0
   27.1004  -20.5345  -12.7161 C   0  0  0  0  0  0  0  0  0  0  0  0
   26.7783  -21.6736  -13.1558 O   0  0  0  0  0  0  0  0  0  0  0  0
   26.7570  -20.1563  -11.4012 N   0  0  0  0  0  0  0  0  0  0  0  0
   25.6795  -20.6443  -10.5964 C   0  0  1  0  0  0  0  0  0  0  0  0
   25.8329  -20.2940   -9.1292 C   0  0  0  0  0  0  0  0  0  0  0  0
   27.1799  -20.7087   -8.6768 C   0  0  0  0  0  0  0  0  0  0  0  0
   28.1279  -21.4953   -9.2773 C   0  0  0  0  0  0  0  0  0  0  0  0
   29.2151  -21.5927   -8.4577 N   0  0  0  0  0  0  0  0  0  0  0  0
   29.0169  -20.8960   -7.3368 C   0  0  0  0  0  0  0  0  0  0  0  0
   29.8196  -20.6895   -6.2206 C   0  0  0  0  0  0  0  0  0  0  0  0
   29.3246  -19.8993   -5.2090 C   0  0  0  0  0  0  0  0  0  0  0  0
   28.0878  -19.3411   -5.3059 C   0  0  0  0  0  0  0  0  0  0  0  0
   27.2998  -19.5571   -6.4260 C   0  0  0  0  0  0  0  0  0  0  0  0
   27.7505  -20.3314   -7.4470 C   0  0  0  0  0  0  0  0  0  0  0  0
   24.3378  -20.3928  -11.1347 C   0  0  0  0  0  0  0  0  0  0  0  0
   23.9735  -19.1715  -11.1813 O   0  0  0  0  0  0  0  0  0  0  0  0
   23.4858  -21.4131  -11.5784 N   0  0  0  0  0  0  0  0  0  0  0  0
   22.1916  -21.0964  -12.2039 C   0  0  1  0  0  0  0  0  0  0  0  0
   21.6941  -22.2705  -12.9793 C   0  0  0  0  0  0  0  0  0  0  0  0
   20.3034  -22.0592  -13.4899 C   0  0  0  0  0  0  0  0  0  0  0  0
   20.2995  -22.3193  -14.9614 C   0  0  0  0  0  0  0  0  0  0  0  0
   20.6778  -23.4206  -15.3960 O   0  0  0  0  0  0  0  0  0  0  0  0
   21.2567  -20.7459  -11.1261 C   0  0  0  0  0  0  0  0  0  0  0  0
   21.2970  -21.2947  -10.0118 O   0  0  0  0  0  0  0  0  0  0  0  0
   19.8745  -21.3286  -15.8109 O   0  0  0  0  0  0  0  0  0  0  0  0
   20.2912  -19.7762  -11.3355 O   0  0  0  0  0  0  0  0  0  0  0  0
  1  2  1  0
  2  3  2  0
  4  2  1  0
  5  6  1  1
  5  4  1  0
  7  5  1  0
  8  7  2  0
  9  7  1  0
 10  9  1  0
 11 12  1  0
 10 11  1  1
 12 20  1  0
 12 13  2  0
 13 14  1  0
 15 14  1  0
 15 16  2  0
 17 16  1  0
 18 17  2  0
 19 20  2  0
 19 18  1  0
 20 15  1  0
 21 22  2  0
 21 10  1  0
 23 21  1  0
 24 23  1  0
 24 25  1  1
 26 25  1  0
 27 26  1  0
 28 27  2  0
 29 24  1  0
 30 29  2  0
 31 27  1  0
 32 29  1  0
M  END
$$$$
