NWE.pdb
     RDKit          3D

 32 33  0  0  1  0  0  0  0  0999 V2000
   29.9106  -21.3509  -18.4393 N   0  0  0  0  0  0  0  0  0  0  0  0
   28.5351  -21.0565  -18.6318 C   0  0  0  0  0  0  0  0  0  0  0  0
   28.2216  -20.5131  -19.7425 O   0  0  0  0  0  0  0  0  0  0  0  0
   27.5063  -21.3597  -17.6030 C   0  0  0  0  0  0  0  0  0  0  0  0
   28.1121  -22.0127  -16.3823 C   0  0  2  0  0  0  0  0  0  0  0  0
   28.3871  -23.3971  -16.6480 N   0  0  0  0  0  0  0  0  0  0  0  0
   27.2103  -21.9142  -15.2018 C   0  0  0  0  0  0  0  0  0  0  0  0
   26.0025  -22.2750  -15.2786 O   0  0  0  0  0  0  0  0  0  0  0  0
   27.7264  -21.4099  -13.9897 N   0  0  0  0  0  0  0  0  0  0  0  0
   27.0344  -21.2045  -12.7545 C   0  0  1  0  0  0  0  0  0  0  0  0
   27.9285  -20.6512  -11.6620 C   0  0  0  0  0  0  0  0  0  0  0  0
   27.1254  -20.4722  -10.4316 C   0  0  0  0  0  0  0  0  0  0  0  0
   25.7690  -20.4682  -10.2354 C   0  0  0  0  0  0  0  0  0  0  0  0
   25.5076  -20.2577   -8.9123 N   0  0  0  0  0  0  0  0  0  0  0  0
   26.6458  -20.1235   -8.2284 C   0  0  0  0  0  0  0  0  0  0  0  0
   26.8947  -19.9028   -6.8786 C   0  0  0  0  0  0  0  0  0  0  0  0
   28.2060  -19.8150   -6.4716 C   0  0  0  0  0  0  0  0  0  0  0  0
   29.2212  -19.9417   -7.3683 C   0  0  0  0  0  0  0  0  0  0  0  0
   28.9558  -20.1615   -8.7113 C   0  0  0  0  0  0  0  0  0  0  0  0
   27.6752  -20.2538   -9.1548 C   0  0  0  0  0  0  0  0  0  0  0  0
   25.7409  -20.5220  -12.8723 C   0  0  0  0  0  0  0  0  0  0  0  0
   25.7885  -19.2646  -13.0800 O   0  0  0  0  0  0  0  0  0  0  0  0
   24.5111  -21.1857  -12.7673 N   0  0  0  0  0  0  0  0  0  0  0  0
   23.2512  -20.4940  -13.0843 C   0  0  1  0  0  0  0  0  0  0  0  0
   22.7944  -20.8608  -14.4570 C   0  0  0  0  0  0  0  0  0  0  0  0
   21.4736  -20.2435  -14.7942 C   0  0  0  0  0  0  0  0  0  0  0  0
   21.1135  -20.6392  -16.1895 C   0  0  0  0  0  0  0  0  0  0  0  0
   21.8627  -21.3957  -16.8308 O   0  0  0  0  0  0  0  0  0  0  0  0
   22.2616  -20.8998  -12.0769 C   0  0  0  0  0  0  0  0  0  0  0  0
   22.3224  -21.9962  -11.4949 O   0  0  0  0  0  0  0  0  0  0  0  0
   19.9528  -20.1556  -16.7394 O   0  0  0  0  0  0  0  0  0  0  0  0
   21.2191  -20.0500  -11.7494 O   0  0  0  0  0  0  0  0  0  0  0  0
  1  2  1  0
  2  3  2  0
  4  2  1  0
  5  6  1  6
  5  4  1  0
  7  5  1  0
  8  7  2  0
  9  7  1  0
 10  9  1  0
 11 12  1  0
 10 11  1  1
 12 20  1  0
 12 13  2  0
 13 14  1  0
 15 14  1  0
 15 16  2  0
 17 16  1  0
 18 17  2  0
 19 20  2  0
 19 18  1  0
 20 15  1  0
 21 22  2  0
 21 10  1  0
 23 21  1  0
 24 23  1  0
 24 25  1  6
 26 25  1  0
 27 26  1  0
 28 27  2  0
 29 24  1  0
 30 29  2  0
 31 27  1  0
 32 29  1  0
M  END
$$$$
