NWE.pdb
     RDKit          3D

 32 33  0  0  1  0  0  0  0  0999 V2000
   21.8066  -14.7277  -19.2536 N   0  0  0  0  0  0  0  0  0  0  0  0
   21.3929  -13.7696  -18.2910 C   0  0  0  0  0  0  0  0  0  0  0  0
   20.4743  -14.1357  -17.4851 O   0  0  0  0  0  0  0  0  0  0  0  0
   21.9896  -12.4105  -18.2157 C   0  0  0  0  0  0  0  0  0  0  0  0
   22.8427  -12.1069  -19.4255 C   0  0  2  0  0  0  0  0  0  0  0  0
   23.9778  -12.9860  -19.4626 N   0  0  0  0  0  0  0  0  0  0  0  0
   23.3200  -10.6967  -19.4213 C   0  0  0  0  0  0  0  0  0  0  0  0
   24.4334  -10.3922  -18.9091 O   0  0  0  0  0  0  0  0  0  0  0  0
   22.5072   -9.7000  -20.0009 N   0  0  0  0  0  0  0  0  0  0  0  0
   22.7991   -8.3089  -20.1640 C   0  0  1  0  0  0  0  0  0  0  0  0
   21.9571   -7.6513  -21.2399 C   0  0  0  0  0  0  0  0  0  0  0  0
   22.5122   -6.3099  -21.5285 C   0  0  0  0  0  0  0  0  0  0  0  0
   23.7946   -5.9048  -21.7924 C   0  0  0  0  0  0  0  0  0  0  0  0
   23.8069   -4.5542  -21.9902 N   0  0  0  0  0  0  0  0  0  0  0  0
   22.5756   -4.0544  -21.8666 C   0  0  0  0  0  0  0  0  0  0  0  0
   22.0865   -2.7581  -21.9810 C   0  0  0  0  0  0  0  0  0  0  0  0
   20.7371   -2.5607  -21.7995 C   0  0  0  0  0  0  0  0  0  0  0  0
   19.9141   -3.6067  -21.5175 C   0  0  0  0  0  0  0  0  0  0  0  0
   20.4180   -4.8936  -21.4067 C   0  0  0  0  0  0  0  0  0  0  0  0
   21.7444   -5.1317  -21.5778 C   0  0  0  0  0  0  0  0  0  0  0  0
   22.8832   -7.5407  -18.9167 C   0  0  0  0  0  0  0  0  0  0  0  0
   22.0558   -7.8660  -18.0023 O   0  0  0  0  0  0  0  0  0  0  0  0
   23.8067   -6.5064  -18.7137 N   0  0  0  0  0  0  0  0  0  0  0  0
   23.8610   -5.7844  -17.4322 C   0  0  1  0  0  0  0  0  0  0  0  0
   25.1763   -5.0944  -17.2860 C   0  0  0  0  0  0  0  0  0  0  0  0
   25.2976   -4.3870  -15.9729 C   0  0  0  0  0  0  0  0  0  0  0  0
   26.6541   -3.7642  -15.8993 C   0  0  0  0  0  0  0  0  0  0  0  0
   27.4965   -4.0106  -16.7793 O   0  0  0  0  0  0  0  0  0  0  0  0
   22.7572   -4.8147  -17.4271 C   0  0  0  0  0  0  0  0  0  0  0  0
   22.1292   -4.5226  -18.4590 O   0  0  0  0  0  0  0  0  0  0  0  0
   26.9449   -2.9254  -14.8527 O   0  0  0  0  0  0  0  0  0  0  0  0
   22.3871   -4.1937  -16.2466 O   0  0  0  0  0  0  0  0  0  0  0  0
  1  2  1  0
  2  3  2  0
  4  2  1  0
  5  6  1  1
  5  4  1  0
  7  5  1  0
  8  7  2  0
  9  7  1  0
 10  9  1  0
 11 12  1  0
 10 11  1  6
 12 20  1  0
 12 13  2  0
 13 14  1  0
 15 14  1  0
 15 16  2  0
 17 16  1  0
 18 17  2  0
 19 20  2  0
 19 18  1  0
 20 15  1  0
 21 22  2  0
 21 10  1  0
 23 21  1  0
 24 23  1  0
 24 25  1  6
 26 25  1  0
 27 26  1  0
 28 27  2  0
 29 24  1  0
 30 29  2  0
 31 27  1  0
 32 29  1  0
M  END
$$$$
