NWE.pdb
     RDKit          3D

 32 33  0  0  1  0  0  0  0  0999 V2000
   26.3460  -20.3719  -18.2827 N   0  0  0  0  0  0  0  0  0  0  0  0
   26.9509  -20.0406  -17.0418 C   0  0  0  0  0  0  0  0  0  0  0  0
   26.2591  -19.3205  -16.2481 O   0  0  0  0  0  0  0  0  0  0  0  0
   28.3155  -20.5015  -16.6753 C   0  0  0  0  0  0  0  0  0  0  0  0
   28.2808  -21.8205  -15.9386 C   0  0  2  0  0  0  0  0  0  0  0  0
   27.8898  -22.8749  -16.8320 N   0  0  0  0  0  0  0  0  0  0  0  0
   27.3364  -21.7829  -14.7884 C   0  0  0  0  0  0  0  0  0  0  0  0
   26.1853  -22.2943  -14.8795 O   0  0  0  0  0  0  0  0  0  0  0  0
   27.7473  -21.1649  -13.5886 N   0  0  0  0  0  0  0  0  0  0  0  0
   27.0275  -21.0664  -12.3562 C   0  0  1  0  0  0  0  0  0  0  0  0
   27.8636  -20.4934  -11.2285 C   0  0  0  0  0  0  0  0  0  0  0  0
   27.0616  -20.5054   -9.9846 C   0  0  0  0  0  0  0  0  0  0  0  0
   25.7218  -20.7090   -9.7801 C   0  0  0  0  0  0  0  0  0  0  0  0
   25.4526  -20.6171   -8.4450 N   0  0  0  0  0  0  0  0  0  0  0  0
   26.5697  -20.3605   -7.7614 C   0  0  0  0  0  0  0  0  0  0  0  0
   26.8044  -20.1863   -6.4022 C   0  0  0  0  0  0  0  0  0  0  0  0
   28.0953  -19.9342   -5.9988 C   0  0  0  0  0  0  0  0  0  0  0  0
   29.1047  -19.8596   -6.9079 C   0  0  0  0  0  0  0  0  0  0  0  0
   28.8537  -20.0357   -8.2600 C   0  0  0  0  0  0  0  0  0  0  0  0
   27.5932  -20.2857   -8.7003 C   0  0  0  0  0  0  0  0  0  0  0  0
   25.6865  -20.4809  -12.4642 C   0  0  0  0  0  0  0  0  0  0  0  0
   25.6396  -19.2387  -12.7492 O   0  0  0  0  0  0  0  0  0  0  0  0
   24.5101  -21.2176  -12.2712 N   0  0  0  0  0  0  0  0  0  0  0  0
   23.1965  -20.6410  -12.6003 C   0  0  1  0  0  0  0  0  0  0  0  0
   22.4993  -21.4919  -13.6089 C   0  0  0  0  0  0  0  0  0  0  0  0
   22.6648  -20.9656  -14.9999 C   0  0  0  0  0  0  0  0  0  0  0  0
   22.1223  -19.5739  -15.0424 C   0  0  0  0  0  0  0  0  0  0  0  0
   21.0548  -19.3080  -14.4640 O   0  0  0  0  0  0  0  0  0  0  0  0
   22.4238  -20.5677  -11.3527 C   0  0  0  0  0  0  0  0  0  0  0  0
   21.7055  -19.5919  -11.0765 O   0  0  0  0  0  0  0  0  0  0  0  0
   22.8197  -18.6088  -15.7249 O   0  0  0  0  0  0  0  0  0  0  0  0
   22.4823  -21.6072  -10.4404 O   0  0  0  0  0  0  0  0  0  0  0  0
  1  2  1  0
  2  3  2  0
  4  2  1  0
  5  6  1  6
  5  4  1  0
  7  5  1  0
  8  7  2  0
  9  7  1  0
 10  9  1  0
 11 12  1  0
 10 11  1  1
 12 20  1  0
 12 13  2  0
 13 14  1  0
 15 14  1  0
 15 16  2  0
 17 16  1  0
 18 17  2  0
 19 20  2  0
 19 18  1  0
 20 15  1  0
 21 22  2  0
 21 10  1  0
 23 21  1  0
 24 23  1  0
 24 25  1  6
 26 25  1  0
 27 26  1  0
 28 27  2  0
 29 24  1  0
 30 29  2  0
 31 27  1  0
 32 29  1  0
M  END
$$$$
