NWE.pdb
     RDKit          3D

 32 33  0  0  1  0  0  0  0  0999 V2000
   10.6846  -15.3361    8.6758 N   0  0  0  0  0  0  0  0  0  0  0  0
   11.2117  -16.3704    9.4931 C   0  0  0  0  0  0  0  0  0  0  0  0
   10.7898  -16.4131   10.6962 O   0  0  0  0  0  0  0  0  0  0  0  0
   12.2017  -17.3564    8.9866 C   0  0  0  0  0  0  0  0  0  0  0  0
   12.5495  -17.1054    7.5376 C   0  0  2  0  0  0  0  0  0  0  0  0
   11.7193  -17.9086    6.6842 N   0  0  0  0  0  0  0  0  0  0  0  0
   13.9785  -17.4123    7.2544 C   0  0  0  0  0  0  0  0  0  0  0  0
   14.3685  -18.6053    7.1146 O   0  0  0  0  0  0  0  0  0  0  0  0
   14.8958  -16.3464    7.1434 N   0  0  0  0  0  0  0  0  0  0  0  0
   16.3051  -16.4169    6.9073 C   0  0  1  0  0  0  0  0  0  0  0  0
   16.8416  -15.2049    6.1710 C   0  0  0  0  0  0  0  0  0  0  0  0
   17.0779  -15.5705    4.7563 C   0  0  0  0  0  0  0  0  0  0  0  0
   16.7463  -16.6979    4.0511 C   0  0  0  0  0  0  0  0  0  0  0  0
   17.1870  -16.5691    2.7657 N   0  0  0  0  0  0  0  0  0  0  0  0
   17.7975  -15.3941    2.5984 C   0  0  0  0  0  0  0  0  0  0  0  0
   18.3982  -14.8124    1.4878 C   0  0  0  0  0  0  0  0  0  0  0  0
   18.9478  -13.5598    1.6352 C   0  0  0  0  0  0  0  0  0  0  0  0
   18.9003  -12.9174    2.8335 C   0  0  0  0  0  0  0  0  0  0  0  0
   18.2976  -13.5117    3.9316 C   0  0  0  0  0  0  0  0  0  0  0  0
   17.7436  -14.7477    3.8289 C   0  0  0  0  0  0  0  0  0  0  0  0
   17.1105  -16.8183    8.0663 C   0  0  0  0  0  0  0  0  0  0  0  0
   17.0934  -16.0220    9.0623 O   0  0  0  0  0  0  0  0  0  0  0  0
   17.8634  -17.9996    8.1050 N   0  0  0  0  0  0  0  0  0  0  0  0
   18.5956  -18.3879    9.3213 C   0  0  1  0  0  0  0  0  0  0  0  0
   18.4293  -19.8487    9.5775 C   0  0  0  0  0  0  0  0  0  0  0  0
   17.3030  -20.1298   10.5218 C   0  0  0  0  0  0  0  0  0  0  0  0
   17.2510  -21.6034   10.7644 C   0  0  0  0  0  0  0  0  0  0  0  0
   18.0598  -22.3535   10.1918 O   0  0  0  0  0  0  0  0  0  0  0  0
   20.0098  -18.0507    9.1093 C   0  0  0  0  0  0  0  0  0  0  0  0
   20.4497  -17.7156    7.9964 O   0  0  0  0  0  0  0  0  0  0  0  0
   16.3034  -22.1032   11.6221 O   0  0  0  0  0  0  0  0  0  0  0  0
   20.8996  -18.1011   10.1686 O   0  0  0  0  0  0  0  0  0  0  0  0
  1  2  1  0
  2  3  2  0
  4  2  1  0
  5  6  1  6
  5  4  1  0
  7  5  1  0
  8  7  2  0
  9  7  1  0
 10  9  1  0
 11 12  1  0
 10 11  1  1
 12 20  1  0
 12 13  2  0
 13 14  1  0
 15 14  1  0
 15 16  2  0
 17 16  1  0
 18 17  2  0
 19 20  2  0
 19 18  1  0
 20 15  1  0
 21 22  2  0
 21 10  1  0
 23 21  1  0
 24 23  1  0
 24 25  1  6
 26 25  1  0
 27 26  1  0
 28 27  2  0
 29 24  1  0
 30 29  2  0
 31 27  1  0
 32 29  1  0
M  END
$$$$
