NWE.pdb
     RDKit          3D

 32 33  0  0  1  0  0  0  0  0999 V2000
   28.0430  -22.5162  -18.7111 N   0  0  0  0  0  0  0  0  0  0  0  0
   27.6297  -21.5399  -17.7668 C   0  0  0  0  0  0  0  0  0  0  0  0
   28.0824  -20.3594  -17.9365 O   0  0  0  0  0  0  0  0  0  0  0  0
   26.7193  -21.8627  -16.6372 C   0  0  0  0  0  0  0  0  0  0  0  0
   27.3129  -21.4580  -15.3078 C   0  0  2  0  0  0  0  0  0  0  0  0
   28.5478  -22.1568  -15.0851 N   0  0  0  0  0  0  0  0  0  0  0  0
   26.3828  -21.7437  -14.1810 C   0  0  0  0  0  0  0  0  0  0  0  0
   25.7761  -22.8488  -14.1073 O   0  0  0  0  0  0  0  0  0  0  0  0
   26.1877  -20.7577  -13.1911 N   0  0  0  0  0  0  0  0  0  0  0  0
   25.2890  -20.7911  -12.0785 C   0  0  1  0  0  0  0  0  0  0  0  0
   25.7615  -19.9449  -10.9125 C   0  0  0  0  0  0  0  0  0  0  0  0
   26.9789  -20.5599  -10.3375 C   0  0  0  0  0  0  0  0  0  0  0  0
   27.9618  -21.3198  -10.9159 C   0  0  0  0  0  0  0  0  0  0  0  0
   28.8817  -21.6617   -9.9671 N   0  0  0  0  0  0  0  0  0  0  0  0
   28.5394  -21.1522   -8.7820 C   0  0  0  0  0  0  0  0  0  0  0  0
   29.1486  -21.2195   -7.5342 C   0  0  0  0  0  0  0  0  0  0  0  0
   28.5399  -20.5708   -6.4847 C   0  0  0  0  0  0  0  0  0  0  0  0
   27.3786  -19.8869   -6.6708 C   0  0  0  0  0  0  0  0  0  0  0  0
   26.7839  -19.8296   -7.9219 C   0  0  0  0  0  0  0  0  0  0  0  0
   27.3518  -20.4569   -8.9846 C   0  0  0  0  0  0  0  0  0  0  0  0
   23.8732  -20.6066  -12.4170 C   0  0  0  0  0  0  0  0  0  0  0  0
   23.5887  -19.5547  -13.0794 O   0  0  0  0  0  0  0  0  0  0  0  0
   22.8717  -21.5148  -12.0479 N   0  0  0  0  0  0  0  0  0  0  0  0
   21.4746  -21.3061  -12.4613 C   0  0  1  0  0  0  0  0  0  0  0  0
   20.8227  -22.6170  -12.7510 C   0  0  0  0  0  0  0  0  0  0  0  0
   19.4164  -22.4513  -13.2349 C   0  0  0  0  0  0  0  0  0  0  0  0
   18.8400  -23.8090  -13.4750 C   0  0  0  0  0  0  0  0  0  0  0  0
   17.8191  -24.1649  -12.8618 O   0  0  0  0  0  0  0  0  0  0  0  0
   20.7901  -20.6121  -11.3620 C   0  0  0  0  0  0  0  0  0  0  0  0
   21.2048  -20.6580  -10.1914 O   0  0  0  0  0  0  0  0  0  0  0  0
   19.4543  -24.6427  -14.3756 O   0  0  0  0  0  0  0  0  0  0  0  0
   19.6445  -19.8772  -11.6145 O   0  0  0  0  0  0  0  0  0  0  0  0
  1  2  1  0
  2  3  2  0
  4  2  1  0
  5  6  1  1
  5  4  1  0
  7  5  1  0
  8  7  2  0
  9  7  1  0
 10  9  1  0
 11 12  1  0
 10 11  1  1
 12 20  1  0
 12 13  2  0
 13 14  1  0
 15 14  1  0
 15 16  2  0
 17 16  1  0
 18 17  2  0
 19 20  2  0
 19 18  1  0
 20 15  1  0
 21 22  2  0
 21 10  1  0
 23 21  1  0
 24 23  1  0
 24 25  1  1
 26 25  1  0
 27 26  1  0
 28 27  2  0
 29 24  1  0
 30 29  2  0
 31 27  1  0
 32 29  1  0
M  END
$$$$
