NWE.pdb
     RDKit          3D

 32 33  0  0  1  0  0  0  0  0999 V2000
   29.3823  -20.3775  -18.0458 N   0  0  0  0  0  0  0  0  0  0  0  0
   28.1977  -19.6495  -17.7591 C   0  0  0  0  0  0  0  0  0  0  0  0
   28.0000  -18.5942  -18.4479 O   0  0  0  0  0  0  0  0  0  0  0  0
   27.2321  -20.0826  -16.7156 C   0  0  0  0  0  0  0  0  0  0  0  0
   27.7310  -21.2926  -15.9601 C   0  0  2  0  0  0  0  0  0  0  0  0
   27.6844  -22.4547  -16.8029 N   0  0  0  0  0  0  0  0  0  0  0  0
   26.9233  -21.5474  -14.7357 C   0  0  0  0  0  0  0  0  0  0  0  0
   25.8152  -22.1491  -14.8054 O   0  0  0  0  0  0  0  0  0  0  0  0
   27.4157  -21.1053  -13.4899 N   0  0  0  0  0  0  0  0  0  0  0  0
   26.7581  -21.1390  -12.2198 C   0  0  1  0  0  0  0  0  0  0  0  0
   27.6978  -20.8675  -11.0612 C   0  0  0  0  0  0  0  0  0  0  0  0
   26.8963  -20.6530   -9.8355 C   0  0  0  0  0  0  0  0  0  0  0  0
   25.5510  -20.7794   -9.6068 C   0  0  0  0  0  0  0  0  0  0  0  0
   25.2853  -20.4640   -8.3055 N   0  0  0  0  0  0  0  0  0  0  0  0
   26.4102  -20.1346   -7.6674 C   0  0  0  0  0  0  0  0  0  0  0  0
   26.6508  -19.7497   -6.3533 C   0  0  0  0  0  0  0  0  0  0  0  0
   27.9491  -19.4755   -5.9902 C   0  0  0  0  0  0  0  0  0  0  0  0
   28.9600  -19.5804   -6.8946 C   0  0  0  0  0  0  0  0  0  0  0  0
   28.7030  -19.9655   -8.2015 C   0  0  0  0  0  0  0  0  0  0  0  0
   27.4351  -20.2446   -8.6013 C   0  0  0  0  0  0  0  0  0  0  0  0
   25.4953  -20.3946  -12.1533 C   0  0  0  0  0  0  0  0  0  0  0  0
   25.5969  -19.1252  -12.0853 O   0  0  0  0  0  0  0  0  0  0  0  0
   24.2384  -21.0143  -12.1622 N   0  0  0  0  0  0  0  0  0  0  0  0
   23.0148  -20.2346  -12.4100 C   0  0  1  0  0  0  0  0  0  0  0  0
   22.8390  -20.0048  -13.8741 C   0  0  0  0  0  0  0  0  0  0  0  0
   21.6044  -19.2148  -14.1755 C   0  0  0  0  0  0  0  0  0  0  0  0
   21.4786  -19.0889  -15.6592 C   0  0  0  0  0  0  0  0  0  0  0  0
   21.9119  -19.9916  -16.3956 O   0  0  0  0  0  0  0  0  0  0  0  0
   21.8873  -21.0000  -11.8607 C   0  0  0  0  0  0  0  0  0  0  0  0
   20.8943  -20.4461  -11.3592 O   0  0  0  0  0  0  0  0  0  0  0  0
   20.8818  -17.9698  -16.1835 O   0  0  0  0  0  0  0  0  0  0  0  0
   21.9099  -22.3838  -11.8916 O   0  0  0  0  0  0  0  0  0  0  0  0
  1  2  1  0
  2  3  2  0
  4  2  1  0
  5  6  1  6
  5  4  1  0
  7  5  1  0
  8  7  2  0
  9  7  1  0
 10  9  1  0
 11 12  1  0
 10 11  1  1
 12 20  1  0
 12 13  2  0
 13 14  1  0
 15 14  1  0
 15 16  2  0
 17 16  1  0
 18 17  2  0
 19 20  2  0
 19 18  1  0
 20 15  1  0
 21 22  2  0
 21 10  1  0
 23 21  1  0
 24 23  1  0
 24 25  1  6
 26 25  1  0
 27 26  1  0
 28 27  2  0
 29 24  1  0
 30 29  2  0
 31 27  1  0
 32 29  1  0
M  END
$$$$
