NWE.pdb
     RDKit          3D

 32 33  0  0  1  0  0  0  0  0999 V2000
   28.4070  -21.8691  -18.7355 N   0  0  0  0  0  0  0  0  0  0  0  0
   28.2698  -20.9382  -17.6725 C   0  0  0  0  0  0  0  0  0  0  0  0
   28.9727  -19.8767  -17.7540 O   0  0  0  0  0  0  0  0  0  0  0  0
   27.3601  -21.1752  -16.5215 C   0  0  0  0  0  0  0  0  0  0  0  0
   28.0952  -21.1001  -15.2033 C   0  0  2  0  0  0  0  0  0  0  0  0
   29.0722  -22.1498  -15.1222 N   0  0  0  0  0  0  0  0  0  0  0  0
   27.1637  -21.2127  -14.0474 C   0  0  0  0  0  0  0  0  0  0  0  0
   25.9254  -21.3815  -14.2286 O   0  0  0  0  0  0  0  0  0  0  0  0
   27.6863  -21.1281  -12.7398 N   0  0  0  0  0  0  0  0  0  0  0  0
   26.9680  -21.1118  -11.5027 C   0  0  1  0  0  0  0  0  0  0  0  0
   27.8480  -20.7793  -10.3136 C   0  0  0  0  0  0  0  0  0  0  0  0
   26.9920  -20.6066   -9.1185 C   0  0  0  0  0  0  0  0  0  0  0  0
   25.6524  -20.8279   -8.9319 C   0  0  0  0  0  0  0  0  0  0  0  0
   25.3206  -20.5144   -7.6455 N   0  0  0  0  0  0  0  0  0  0  0  0
   26.3964  -20.0945   -6.9764 C   0  0  0  0  0  0  0  0  0  0  0  0
   26.5637  -19.6744   -5.6618 C   0  0  0  0  0  0  0  0  0  0  0  0
   27.8256  -19.3007   -5.2609 C   0  0  0  0  0  0  0  0  0  0  0  0
   28.8715  -19.3442   -6.1299 C   0  0  0  0  0  0  0  0  0  0  0  0
   28.6876  -19.7656   -7.4379 C   0  0  0  0  0  0  0  0  0  0  0  0
   27.4576  -20.1424   -7.8743 C   0  0  0  0  0  0  0  0  0  0  0  0
   25.6975  -20.3781  -11.5308 C   0  0  0  0  0  0  0  0  0  0  0  0
   25.7864  -19.1068  -11.5769 O   0  0  0  0  0  0  0  0  0  0  0  0
   24.4466  -21.0095  -11.5093 N   0  0  0  0  0  0  0  0  0  0  0  0
   23.2277  -20.2819  -11.8980 C   0  0  1  0  0  0  0  0  0  0  0  0
   23.0139  -20.3864  -13.3713 C   0  0  0  0  0  0  0  0  0  0  0  0
   21.8148  -19.6131  -13.8222 C   0  0  0  0  0  0  0  0  0  0  0  0
   21.6578  -19.8079  -15.2955 C   0  0  0  0  0  0  0  0  0  0  0  0
   21.1512  -20.8563  -15.7303 O   0  0  0  0  0  0  0  0  0  0  0  0
   22.1055  -20.8801  -11.1620 C   0  0  0  0  0  0  0  0  0  0  0  0
   21.9928  -22.1087  -11.0129 O   0  0  0  0  0  0  0  0  0  0  0  0
   22.0795  -18.8169  -16.1461 O   0  0  0  0  0  0  0  0  0  0  0  0
   21.1302  -20.0687  -10.6081 O   0  0  0  0  0  0  0  0  0  0  0  0
  1  2  1  0
  2  3  2  0
  4  2  1  0
  5  6  1  6
  5  4  1  0
  7  5  1  0
  8  7  2  0
  9  7  1  0
 10  9  1  0
 11 12  1  0
 10 11  1  1
 12 20  1  0
 12 13  2  0
 13 14  1  0
 15 14  1  0
 15 16  2  0
 17 16  1  0
 18 17  2  0
 19 20  2  0
 19 18  1  0
 20 15  1  0
 21 22  2  0
 21 10  1  0
 23 21  1  0
 24 23  1  0
 24 25  1  6
 26 25  1  0
 27 26  1  0
 28 27  2  0
 29 24  1  0
 30 29  2  0
 31 27  1  0
 32 29  1  0
M  END
$$$$
