FPR.pdb
     RDKit          3D

 30 31  0  0  1  0  0  0  0  0999 V2000
   20.5097  -10.2185  -15.2427 N   0  0  0  0  0  0  0  0  0  0  0  0
   19.9790   -8.9056  -15.2746 C   0  0  1  0  0  0  0  0  0  0  0  0
   18.6557   -8.7698  -16.0068 C   0  0  0  0  0  0  0  0  0  0  0  0
   18.7865   -9.1649  -17.4583 C   0  0  0  0  0  0  0  0  0  0  0  0
   18.3574  -10.4142  -17.8365 C   0  0  0  0  0  0  0  0  0  0  0  0
   18.4584  -10.8369  -19.1431 C   0  0  0  0  0  0  0  0  0  0  0  0
   19.0022   -9.9717  -20.0635 C   0  0  0  0  0  0  0  0  0  0  0  0
   19.4385   -8.7050  -19.6872 C   0  0  0  0  0  0  0  0  0  0  0  0
   19.3246   -8.3114  -18.3747 C   0  0  0  0  0  0  0  0  0  0  0  0
   19.9340   -8.2093  -13.9637 C   0  0  0  0  0  0  0  0  0  0  0  0
   19.3103   -8.7022  -12.9943 O   0  0  0  0  0  0  0  0  0  0  0  0
   20.5943   -6.9408  -13.7277 N   0  0  0  0  0  0  0  0  0  0  0  0
   21.5480   -6.3757  -14.6538 C   0  0  0  0  0  0  0  0  0  0  0  0
   22.0342   -5.0993  -14.0170 C   0  0  0  0  0  0  0  0  0  0  0  0
   20.9709   -4.7379  -13.0246 C   0  0  0  0  0  0  0  0  0  0  0  0
   20.4750   -6.0959  -12.5956 C   0  0  1  0  0  0  0  0  0  0  0  0
   19.1018   -5.9634  -12.0405 C   0  0  0  0  0  0  0  0  0  0  0  0
   18.1269   -6.0923  -12.8116 O   0  0  0  0  0  0  0  0  0  0  0  0
   13.2095  -10.6138   -9.4098 N   0  0  0  0  0  0  0  0  0  0  0  0
   12.6839   -9.3947   -8.9005 C   0  0  0  0  0  0  0  0  0  0  0  0
   11.4501   -9.3405   -8.4870 N   0  0  0  0  0  0  0  0  0  0  0  0
   13.4781   -8.2139   -8.8284 N   0  0  0  0  0  0  0  0  0  0  0  0
   14.8346   -8.2760   -9.3193 C   0  0  0  0  0  0  0  0  0  0  0  0
   15.4591   -6.8861   -9.3655 C   0  0  0  0  0  0  0  0  0  0  0  0
   16.8612   -6.9261   -9.8968 C   0  0  0  0  0  0  0  0  0  0  0  0
   17.4584   -5.5749  -10.1441 C   0  0  2  0  0  0  0  0  0  0  0  0
   18.8225   -5.6989  -10.6842 N   0  0  0  0  0  0  0  0  0  0  0  0
   17.5868   -4.8409   -8.8823 C   0  0  0  0  0  0  0  0  0  0  0  0
   18.8218   -4.5838   -8.3369 O   0  0  0  0  0  0  0  0  0  0  0  0
   16.5714   -4.4397   -8.2865 O   0  0  0  0  0  0  0  0  0  0  0  0
  2  1  1  1
  2  3  1  0
  2 10  1  0
  3  4  1  0
  4  5  2  0
  4  9  1  0
  5  6  1  0
  6  7  2  0
  8  7  1  0
  9  8  2  0
 10 12  1  0
 11 10  2  0
 12 16  1  0
 12 13  1  0
 13 14  1  0
 15 14  1  0
 16 15  1  0
 17 27  1  0
 16 17  1  6
 18 17  2  0
 20 19  1  0
 20 22  1  0
 21 20  2  0
 22 23  1  0
 23 24  1  0
 24 25  1  0
 26 25  1  1
 26 27  1  0
 26 28  1  0
 28 29  1  0
 30 28  2  0
M  END
$$$$
