FPR.pdb
     RDKit          3D

 30 31  0  0  1  0  0  0  0  0999 V2000
   27.4329  -20.8043  -20.1180 N   0  0  0  0  0  0  0  0  0  0  0  0
   26.6261  -20.0129  -19.2640 C   0  0  1  0  0  0  0  0  0  0  0  0
   25.1550  -19.9676  -19.6373 C   0  0  0  0  0  0  0  0  0  0  0  0
   24.9441  -19.2743  -20.9619 C   0  0  0  0  0  0  0  0  0  0  0  0
   24.5429  -20.0289  -22.0377 C   0  0  0  0  0  0  0  0  0  0  0  0
   24.3429  -19.4569  -23.2742 C   0  0  0  0  0  0  0  0  0  0  0  0
   24.5558  -18.1045  -23.4044 C   0  0  0  0  0  0  0  0  0  0  0  0
   24.9619  -17.3343  -22.3188 C   0  0  0  0  0  0  0  0  0  0  0  0
   25.1536  -17.9342  -21.0965 C   0  0  0  0  0  0  0  0  0  0  0  0
   26.7975  -20.2729  -17.8119 C   0  0  0  0  0  0  0  0  0  0  0  0
   26.6547  -21.4270  -17.3435 O   0  0  0  0  0  0  0  0  0  0  0  0
   27.1327  -19.2291  -16.8637 N   0  0  0  0  0  0  0  0  0  0  0  0
   27.5761  -17.9173  -17.2750 C   0  0  0  0  0  0  0  0  0  0  0  0
   27.8702  -17.1644  -16.0031 C   0  0  0  0  0  0  0  0  0  0  0  0
   27.0980  -17.8889  -14.9425 C   0  0  0  0  0  0  0  0  0  0  0  0
   27.1369  -19.3090  -15.4483 C   0  0  1  0  0  0  0  0  0  0  0  0
   26.0111  -20.0737  -14.8492 C   0  0  0  0  0  0  0  0  0  0  0  0
   24.9111  -20.0873  -15.4421 O   0  0  0  0  0  0  0  0  0  0  0  0
   22.4618  -22.4206   -8.1095 N   0  0  0  0  0  0  0  0  0  0  0  0
   22.8635  -21.0786   -7.8657 C   0  0  0  0  0  0  0  0  0  0  0  0
   22.0266  -20.2359   -7.3311 N   0  0  0  0  0  0  0  0  0  0  0  0
   24.1727  -20.6218   -8.1938 N   0  0  0  0  0  0  0  0  0  0  0  0
   24.9363  -21.3810   -9.1558 C   0  0  0  0  0  0  0  0  0  0  0  0
   24.4879  -21.0627  -10.5776 C   0  0  0  0  0  0  0  0  0  0  0  0
   25.2734  -21.8384  -11.5930 C   0  0  0  0  0  0  0  0  0  0  0  0
   24.9599  -21.4770  -13.0124 C   0  0  2  0  0  0  0  0  0  0  0  0
   26.1031  -20.7945  -13.6411 N   0  0  0  0  0  0  0  0  0  0  0  0
   23.8455  -20.5266  -13.0571 C   0  0  0  0  0  0  0  0  0  0  0  0
   22.5528  -20.9609  -13.2282 O   0  0  0  0  0  0  0  0  0  0  0  0
   24.0590  -19.3069  -12.9399 O   0  0  0  0  0  0  0  0  0  0  0  0
  2  1  1  6
  2  3  1  0
  2 10  1  0
  3  4  1  0
  4  5  2  0
  4  9  1  0
  5  6  1  0
  6  7  2  0
  8  7  1  0
  9  8  2  0
 10 12  1  0
 11 10  2  0
 12 16  1  0
 12 13  1  0
 13 14  1  0
 15 14  1  0
 16 15  1  0
 17 27  1  0
 16 17  1  1
 18 17  2  0
 20 19  1  0
 20 22  1  0
 21 20  2  0
 22 23  1  0
 23 24  1  0
 24 25  1  0
 26 25  1  1
 26 27  1  0
 26 28  1  0
 28 29  1  0
 30 28  2  0
M  END
$$$$
