FPR.pdb
     RDKit          3D

 30 31  0  0  1  0  0  0  0  0999 V2000
   22.8384  -16.4661  -17.8151 N   0  0  0  0  0  0  0  0  0  0  0  0
   23.9182  -16.1922  -16.9402 C   0  0  1  0  0  0  0  0  0  0  0  0
   23.5229  -15.9552  -15.4934 C   0  0  0  0  0  0  0  0  0  0  0  0
   22.4438  -14.9050  -15.3824 C   0  0  0  0  0  0  0  0  0  0  0  0
   22.8116  -13.5822  -15.4350 C   0  0  0  0  0  0  0  0  0  0  0  0
   21.8756  -12.5777  -15.3300 C   0  0  0  0  0  0  0  0  0  0  0  0
   20.5571  -12.9350  -15.1706 C   0  0  0  0  0  0  0  0  0  0  0  0
   20.1778  -14.2728  -15.1168 C   0  0  0  0  0  0  0  0  0  0  0  0
   21.1355  -15.2535  -15.2244 C   0  0  0  0  0  0  0  0  0  0  0  0
   25.0606  -17.1368  -17.0303 C   0  0  0  0  0  0  0  0  0  0  0  0
   24.8977  -18.3644  -16.8346 O   0  0  0  0  0  0  0  0  0  0  0  0
   26.4092  -16.7071  -17.3427 N   0  0  0  0  0  0  0  0  0  0  0  0
   26.7061  -15.3931  -17.8642 C   0  0  0  0  0  0  0  0  0  0  0  0
   28.1940  -15.3711  -18.1026 C   0  0  0  0  0  0  0  0  0  0  0  0
   28.7368  -16.4646  -17.2333 C   0  0  0  0  0  0  0  0  0  0  0  0
   27.6057  -17.4618  -17.2495 C   0  0  1  0  0  0  0  0  0  0  0  0
   27.7124  -18.3435  -16.0569 C   0  0  0  0  0  0  0  0  0  0  0  0
   27.7599  -17.8186  -14.9238 O   0  0  0  0  0  0  0  0  0  0  0  0
   25.7891  -21.9837   -9.7471 N   0  0  0  0  0  0  0  0  0  0  0  0
   24.8941  -21.1732  -10.4981 C   0  0  0  0  0  0  0  0  0  0  0  0
   24.1539  -20.2888   -9.8932 N   0  0  0  0  0  0  0  0  0  0  0  0
   24.7814  -21.3020  -11.9127 N   0  0  0  0  0  0  0  0  0  0  0  0
   25.5273  -22.3546  -12.5611 C   0  0  0  0  0  0  0  0  0  0  0  0
   26.8678  -21.8361  -13.0691 C   0  0  0  0  0  0  0  0  0  0  0  0
   26.7079  -21.0110  -14.3115 C   0  0  0  0  0  0  0  0  0  0  0  0
   28.0030  -20.6091  -14.9476 C   0  0  2  0  0  0  0  0  0  0  0  0
   27.7638  -19.7510  -16.1198 N   0  0  0  0  0  0  0  0  0  0  0  0
   28.7084  -21.7921  -15.4479 C   0  0  0  0  0  0  0  0  0  0  0  0
   29.4401  -22.5895  -14.6007 O   0  0  0  0  0  0  0  0  0  0  0  0
   28.6522  -22.0896  -16.6542 O   0  0  0  0  0  0  0  0  0  0  0  0
  2  1  1  6
  2  3  1  0
  2 10  1  0
  3  4  1  0
  4  5  2  0
  4  9  1  0
  5  6  1  0
  6  7  2  0
  8  7  1  0
  9  8  2  0
 10 12  1  0
 11 10  2  0
 12 16  1  0
 12 13  1  0
 13 14  1  0
 15 14  1  0
 16 15  1  0
 17 27  1  0
 16 17  1  1
 18 17  2  0
 20 19  1  0
 20 22  1  0
 21 20  2  0
 22 23  1  0
 23 24  1  0
 24 25  1  0
 26 25  1  6
 26 27  1  0
 26 28  1  0
 28 29  1  0
 30 28  2  0
M  END
$$$$
