FPR.pdb
     RDKit          3D

 30 31  0  0  1  0  0  0  0  0999 V2000
   25.7378  -18.8925   -8.0555 N   0  0  0  0  0  0  0  0  0  0  0  0
   26.6393  -19.7032   -8.7879 C   0  0  1  0  0  0  0  0  0  0  0  0
   27.1293  -20.9378   -8.0523 C   0  0  0  0  0  0  0  0  0  0  0  0
   27.7915  -20.5734   -6.7452 C   0  0  0  0  0  0  0  0  0  0  0  0
   29.1481  -20.3559   -6.7384 C   0  0  0  0  0  0  0  0  0  0  0  0
   29.8115  -20.0298   -5.5766 C   0  0  0  0  0  0  0  0  0  0  0  0
   29.0771  -19.9269   -4.4184 C   0  0  0  0  0  0  0  0  0  0  0  0
   27.7028  -20.1457   -4.4184 C   0  0  0  0  0  0  0  0  0  0  0  0
   27.0684  -20.4700   -5.5943 C   0  0  0  0  0  0  0  0  0  0  0  0
   26.2063  -20.0440  -10.1670 C   0  0  0  0  0  0  0  0  0  0  0  0
   24.9999  -20.2659  -10.4265 O   0  0  0  0  0  0  0  0  0  0  0  0
   27.1330  -20.1409  -11.2773 N   0  0  0  0  0  0  0  0  0  0  0  0
   28.5602  -19.9878  -11.1153 C   0  0  0  0  0  0  0  0  0  0  0  0
   29.1463  -20.1008  -12.4991 C   0  0  0  0  0  0  0  0  0  0  0  0
   28.1028  -20.8204  -13.2988 C   0  0  0  0  0  0  0  0  0  0  0  0
   26.8300  -20.3406  -12.6478 C   0  0  1  0  0  0  0  0  0  0  0  0
   25.7406  -21.3140  -12.9249 C   0  0  0  0  0  0  0  0  0  0  0  0
   25.6997  -22.3743  -12.2647 O   0  0  0  0  0  0  0  0  0  0  0  0
   17.8726  -22.9011  -11.7279 N   0  0  0  0  0  0  0  0  0  0  0  0
   18.7419  -23.0738  -10.6161 C   0  0  0  0  0  0  0  0  0  0  0  0
   18.3651  -23.7988   -9.6019 N   0  0  0  0  0  0  0  0  0  0  0  0
   20.0313  -22.4684  -10.5779 N   0  0  0  0  0  0  0  0  0  0  0  0
   20.3931  -21.5713  -11.6499 C   0  0  0  0  0  0  0  0  0  0  0  0
   21.3349  -22.2547  -12.6348 C   0  0  0  0  0  0  0  0  0  0  0  0
   22.6818  -21.5951  -12.6620 C   0  0  0  0  0  0  0  0  0  0  0  0
   23.4650  -21.8593  -13.9111 C   0  0  2  0  0  0  0  0  0  0  0  0
   24.7369  -21.1178  -13.8954 N   0  0  0  0  0  0  0  0  0  0  0  0
   22.7277  -21.3754  -15.0813 C   0  0  0  0  0  0  0  0  0  0  0  0
   22.6451  -20.0318  -15.3584 O   0  0  0  0  0  0  0  0  0  0  0  0
   22.1641  -22.1816  -15.8423 O   0  0  0  0  0  0  0  0  0  0  0  0
  2  1  1  1
  2  3  1  0
  2 10  1  0
  3  4  1  0
  4  5  2  0
  4  9  1  0
  5  6  1  0
  6  7  2  0
  8  7  1  0
  9  8  2  0
 10 12  1  0
 11 10  2  0
 12 16  1  0
 12 13  1  0
 13 14  1  0
 15 14  1  0
 16 15  1  0
 17 27  1  0
 16 17  1  1
 18 17  2  0
 20 19  1  0
 20 22  1  0
 21 20  2  0
 22 23  1  0
 23 24  1  0
 24 25  1  0
 26 25  1  1
 26 27  1  0
 26 28  1  0
 28 29  1  0
 30 28  2  0
M  END
$$$$
