FPR.pdb
     RDKit          3D

 30 31  0  0  1  0  0  0  0  0999 V2000
   17.5712  -26.8774    2.9006 N   0  0  0  0  0  0  0  0  0  0  0  0
   17.5725  -27.7682    1.7993 C   0  0  1  0  0  0  0  0  0  0  0  0
   16.7009  -28.9993    1.9733 C   0  0  0  0  0  0  0  0  0  0  0  0
   17.2176  -29.8880    3.0793 C   0  0  0  0  0  0  0  0  0  0  0  0
   16.5785  -29.8565    4.2951 C   0  0  0  0  0  0  0  0  0  0  0  0
   17.0075  -30.6362    5.3459 C   0  0  0  0  0  0  0  0  0  0  0  0
   18.0971  -31.4509    5.1453 C   0  0  0  0  0  0  0  0  0  0  0  0
   18.7489  -31.4878    3.9163 C   0  0  0  0  0  0  0  0  0  0  0  0
   18.2971  -30.6974    2.8859 C   0  0  0  0  0  0  0  0  0  0  0  0
   17.3415  -27.1373    0.4749 C   0  0  0  0  0  0  0  0  0  0  0  0
   16.3563  -26.3861    0.2830 O   0  0  0  0  0  0  0  0  0  0  0  0
   18.2225  -27.3471   -0.6568 N   0  0  0  0  0  0  0  0  0  0  0  0
   19.4643  -28.0774   -0.5513 C   0  0  0  0  0  0  0  0  0  0  0  0
   20.0948  -28.0176   -1.9189 C   0  0  0  0  0  0  0  0  0  0  0  0
   18.9605  -27.7133   -2.8499 C   0  0  0  0  0  0  0  0  0  0  0  0
   18.0671  -26.8646   -1.9807 C   0  0  1  0  0  0  0  0  0  0  0  0
   16.6803  -26.9054   -2.5158 C   0  0  0  0  0  0  0  0  0  0  0  0
   15.8887  -27.7627   -2.0687 O   0  0  0  0  0  0  0  0  0  0  0  0
   12.1563  -20.6907   -4.9184 N   0  0  0  0  0  0  0  0  0  0  0  0
   12.5153  -20.9386   -3.5650 C   0  0  0  0  0  0  0  0  0  0  0  0
   11.6841  -20.6433   -2.6069 N   0  0  0  0  0  0  0  0  0  0  0  0
   13.7752  -21.5083   -3.2212 N   0  0  0  0  0  0  0  0  0  0  0  0
   14.3719  -22.4456   -4.1435 C   0  0  0  0  0  0  0  0  0  0  0  0
   13.7739  -23.8366   -3.9663 C   0  0  0  0  0  0  0  0  0  0  0  0
   14.4857  -24.8565   -4.8047 C   0  0  0  0  0  0  0  0  0  0  0  0
   14.8343  -26.1141   -4.0697 C   0  0  2  0  0  0  0  0  0  0  0  0
   16.1923  -26.0295   -3.5069 N   0  0  0  0  0  0  0  0  0  0  0  0
   14.8482  -27.2516   -4.9933 C   0  0  0  0  0  0  0  0  0  0  0  0
   13.6822  -27.7329   -5.5391 O   0  0  0  0  0  0  0  0  0  0  0  0
   15.9236  -27.7983   -5.2956 O   0  0  0  0  0  0  0  0  0  0  0  0
  2  1  1  1
  2  3  1  0
  2 10  1  0
  3  4  1  0
  4  5  2  0
  4  9  1  0
  5  6  1  0
  6  7  2  0
  8  7  1  0
  9  8  2  0
 10 12  1  0
 11 10  2  0
 12 16  1  0
 12 13  1  0
 13 14  1  0
 15 14  1  0
 16 15  1  0
 17 27  1  0
 16 17  1  6
 18 17  2  0
 20 19  1  0
 20 22  1  0
 21 20  2  0
 22 23  1  0
 23 24  1  0
 24 25  1  0
 26 25  1  6
 26 27  1  0
 26 28  1  0
 28 29  1  0
 30 28  2  0
M  END
$$$$
