FPR.pdb
     RDKit          3D

 30 31  0  0  1  0  0  0  0  0999 V2000
  -42.4856  -19.5685   41.1805 N   0  0  0  0  0  0  0  0  0  0  0  0
  -43.5266  -18.8663   40.5250 C   0  0  1  0  0  0  0  0  0  0  0  0
  -43.6653  -19.1678   39.0433 C   0  0  0  0  0  0  0  0  0  0  0  0
  -44.3598  -18.0422   38.3150 C   0  0  0  0  0  0  0  0  0  0  0  0
  -44.3190  -18.0291   36.9417 C   0  0  0  0  0  0  0  0  0  0  0  0
  -44.9249  -17.0248   36.2205 C   0  0  0  0  0  0  0  0  0  0  0  0
  -45.5750  -16.0309   36.9139 C   0  0  0  0  0  0  0  0  0  0  0  0
  -45.6203  -16.0382   38.3048 C   0  0  0  0  0  0  0  0  0  0  0  0
  -45.0056  -17.0546   38.9973 C   0  0  0  0  0  0  0  0  0  0  0  0
  -44.8472  -18.9156   41.2025 C   0  0  0  0  0  0  0  0  0  0  0  0
  -45.7828  -18.1619   40.8443 O   0  0  0  0  0  0  0  0  0  0  0  0
  -45.1314  -19.8195   42.2994 N   0  0  0  0  0  0  0  0  0  0  0  0
  -45.2520  -19.3700   43.6669 C   0  0  0  0  0  0  0  0  0  0  0  0
  -45.4899  -20.6105   44.4888 C   0  0  0  0  0  0  0  0  0  0  0  0
  -46.0055  -21.6235   43.5120 C   0  0  0  0  0  0  0  0  0  0  0  0
  -45.2843  -21.2280   42.2480 C   0  0  1  0  0  0  0  0  0  0  0  0
  -46.0346  -21.7456   41.0731 C   0  0  0  0  0  0  0  0  0  0  0  0
  -47.2655  -21.9327   41.1810 O   0  0  0  0  0  0  0  0  0  0  0  0
  -47.1371  -27.1856   38.3445 N   0  0  0  0  0  0  0  0  0  0  0  0
  -47.0686  -25.7876   38.5948 C   0  0  0  0  0  0  0  0  0  0  0  0
  -46.1615  -25.3146   39.4007 N   0  0  0  0  0  0  0  0  0  0  0  0
  -47.9760  -24.8760   37.9816 N   0  0  0  0  0  0  0  0  0  0  0  0
  -47.5028  -24.0944   36.8635 C   0  0  0  0  0  0  0  0  0  0  0  0
  -47.9200  -22.6352   37.0062 C   0  0  0  0  0  0  0  0  0  0  0  0
  -47.2188  -21.9681   38.1523 C   0  0  0  0  0  0  0  0  0  0  0  0
  -46.1259  -22.7917   38.7611 C   0  0  2  0  0  0  0  0  0  0  0  0
  -45.4423  -22.0430   39.8288 N   0  0  0  0  0  0  0  0  0  0  0  0
  -45.1017  -23.0930   37.7573 C   0  0  0  0  0  0  0  0  0  0  0  0
  -44.3252  -24.2226   37.8571 O   0  0  0  0  0  0  0  0  0  0  0  0
  -44.9226  -22.3237   36.7966 O   0  0  0  0  0  0  0  0  0  0  0  0
  2  1  1  1
  2  3  1  0
  2 10  1  0
  3  4  1  0
  4  5  2  0
  4  9  1  0
  5  6  1  0
  6  7  2  0
  8  7  1  0
  9  8  2  0
 10 12  1  0
 11 10  2  0
 12 16  1  0
 12 13  1  0
 13 14  1  0
 15 14  1  0
 16 15  1  0
 17 27  1  0
 16 17  1  6
 18 17  2  0
 20 19  1  0
 20 22  1  0
 21 20  2  0
 22 23  1  0
 23 24  1  0
 24 25  1  0
 26 25  1  6
 26 27  1  0
 26 28  1  0
 28 29  1  0
 30 28  2  0
M  END
$$$$
