FPR.pdb
     RDKit          3D

 30 31  0  0  1  0  0  0  0  0999 V2000
   28.3904  -20.6083   -8.7855 N   0  0  0  0  0  0  0  0  0  0  0  0
   26.9800  -20.7251   -8.7244 C   0  0  1  0  0  0  0  0  0  0  0  0
   26.3304  -20.0071   -7.5547 C   0  0  0  0  0  0  0  0  0  0  0  0
   27.2091  -20.0469   -6.3275 C   0  0  0  0  0  0  0  0  0  0  0  0
   27.7887  -18.8765   -5.9007 C   0  0  0  0  0  0  0  0  0  0  0  0
   28.6075  -18.8492   -4.7941 C   0  0  0  0  0  0  0  0  0  0  0  0
   28.8308  -20.0293   -4.1241 C   0  0  0  0  0  0  0  0  0  0  0  0
   28.2467  -21.2182   -4.5509 C   0  0  0  0  0  0  0  0  0  0  0  0
   27.4337  -21.2137   -5.6596 C   0  0  0  0  0  0  0  0  0  0  0  0
   26.2653  -20.4290   -9.9920 C   0  0  0  0  0  0  0  0  0  0  0  0
   25.1132  -19.9348   -9.9809 O   0  0  0  0  0  0  0  0  0  0  0  0
   26.8429  -20.6889  -11.2958 N   0  0  0  0  0  0  0  0  0  0  0  0
   28.2390  -21.0115  -11.4781 C   0  0  0  0  0  0  0  0  0  0  0  0
   28.4393  -21.1492  -12.9654 C   0  0  0  0  0  0  0  0  0  0  0  0
   27.0689  -21.4107  -13.5132 C   0  0  0  0  0  0  0  0  0  0  0  0
   26.2010  -20.6301  -12.5585 C   0  0  1  0  0  0  0  0  0  0  0  0
   24.8177  -21.1743  -12.5968 C   0  0  0  0  0  0  0  0  0  0  0  0
   24.5737  -22.2389  -11.9896 O   0  0  0  0  0  0  0  0  0  0  0  0
   17.8328  -21.4118  -11.9346 N   0  0  0  0  0  0  0  0  0  0  0  0
   17.7393  -20.8454  -10.6337 C   0  0  0  0  0  0  0  0  0  0  0  0
   16.8495  -21.2900   -9.7929 N   0  0  0  0  0  0  0  0  0  0  0  0
   18.6021  -19.7908  -10.2169 N   0  0  0  0  0  0  0  0  0  0  0  0
   19.5822  -19.3022  -11.1579 C   0  0  0  0  0  0  0  0  0  0  0  0
   20.4223  -20.4480  -11.7105 C   0  0  0  0  0  0  0  0  0  0  0  0
   21.4579  -19.9587  -12.6791 C   0  0  0  0  0  0  0  0  0  0  0  0
   22.3565  -21.0348  -13.2062 C   0  0  2  0  0  0  0  0  0  0  0  0
   23.7485  -20.5610  -13.2812 N   0  0  0  0  0  0  0  0  0  0  0  0
   21.9733  -21.3866  -14.5761 C   0  0  0  0  0  0  0  0  0  0  0  0
   22.6008  -20.8115  -15.6552 O   0  0  0  0  0  0  0  0  0  0  0  0
   21.0689  -22.2159  -14.7787 O   0  0  0  0  0  0  0  0  0  0  0  0
  2  1  1  6
  2  3  1  0
  2 10  1  0
  3  4  1  0
  4  5  2  0
  4  9  1  0
  5  6  1  0
  6  7  2  0
  8  7  1  0
  9  8  2  0
 10 12  1  0
 11 10  2  0
 12 16  1  0
 12 13  1  0
 13 14  1  0
 15 14  1  0
 16 15  1  0
 17 27  1  0
 16 17  1  1
 18 17  2  0
 20 19  1  0
 20 22  1  0
 21 20  2  0
 22 23  1  0
 23 24  1  0
 24 25  1  0
 26 25  1  6
 26 27  1  0
 26 28  1  0
 28 29  1  0
 30 28  2  0
M  END
$$$$
