FPR.pdb
     RDKit          3D

 30 31  0  0  1  0  0  0  0  0999 V2000
   28.6167  -21.1225   -8.2954 N   0  0  0  0  0  0  0  0  0  0  0  0
   27.2726  -20.6764   -8.3227 C   0  0  1  0  0  0  0  0  0  0  0  0
   26.9927  -19.4425   -7.4831 C   0  0  0  0  0  0  0  0  0  0  0  0
   27.7290  -19.4941   -6.1659 C   0  0  0  0  0  0  0  0  0  0  0  0
   28.9304  -18.8354   -6.0628 C   0  0  0  0  0  0  0  0  0  0  0  0
   29.6541  -18.8527   -4.8915 C   0  0  0  0  0  0  0  0  0  0  0  0
   29.1404  -19.5495   -3.8229 C   0  0  0  0  0  0  0  0  0  0  0  0
   27.9241  -20.2186   -3.9205 C   0  0  0  0  0  0  0  0  0  0  0  0
   27.2244  -20.1831   -5.1036 C   0  0  0  0  0  0  0  0  0  0  0  0
   26.6776  -20.5432   -9.6768 C   0  0  0  0  0  0  0  0  0  0  0  0
   25.4616  -20.2745   -9.8219 O   0  0  0  0  0  0  0  0  0  0  0  0
   27.4498  -20.7131  -10.8916 N   0  0  0  0  0  0  0  0  0  0  0  0
   28.8770  -20.9360  -10.8817 C   0  0  0  0  0  0  0  0  0  0  0  0
   29.2937  -21.0017  -12.3285 C   0  0  0  0  0  0  0  0  0  0  0  0
   28.0359  -21.3309  -13.0742 C   0  0  0  0  0  0  0  0  0  0  0  0
   26.9894  -20.6470  -12.2308 C   0  0  1  0  0  0  0  0  0  0  0  0
   25.6671  -21.2790  -12.4827 C   0  0  0  0  0  0  0  0  0  0  0  0
   25.2868  -22.1986  -11.7268 O   0  0  0  0  0  0  0  0  0  0  0  0
   18.3354  -21.5250  -12.2866 N   0  0  0  0  0  0  0  0  0  0  0  0
   18.4390  -20.7737  -11.0839 C   0  0  0  0  0  0  0  0  0  0  0  0
   17.5523  -20.9271  -10.1424 N   0  0  0  0  0  0  0  0  0  0  0  0
   19.4989  -19.8445  -10.8753 N   0  0  0  0  0  0  0  0  0  0  0  0
   20.4032  -19.5875  -11.9713 C   0  0  0  0  0  0  0  0  0  0  0  0
   21.1957  -20.8404  -12.3262 C   0  0  0  0  0  0  0  0  0  0  0  0
   22.6690  -20.5651  -12.3878 C   0  0  0  0  0  0  0  0  0  0  0  0
   23.3624  -21.2129  -13.5466 C   0  0  2  0  0  0  0  0  0  0  0  0
   24.8021  -20.9047  -13.5311 N   0  0  0  0  0  0  0  0  0  0  0  0
   22.8461  -20.6759  -14.8085 C   0  0  0  0  0  0  0  0  0  0  0  0
   23.2316  -19.4360  -15.2591 O   0  0  0  0  0  0  0  0  0  0  0  0
   22.0471  -21.3414  -15.4907 O   0  0  0  0  0  0  0  0  0  0  0  0
  2  1  1  6
  2  3  1  0
  2 10  1  0
  3  4  1  0
  4  5  2  0
  4  9  1  0
  5  6  1  0
  6  7  2  0
  8  7  1  0
  9  8  2  0
 10 12  1  0
 11 10  2  0
 12 16  1  0
 12 13  1  0
 13 14  1  0
 15 14  1  0
 16 15  1  0
 17 27  1  0
 16 17  1  1
 18 17  2  0
 20 19  1  0
 20 22  1  0
 21 20  2  0
 22 23  1  0
 23 24  1  0
 24 25  1  0
 26 25  1  1
 26 27  1  0
 26 28  1  0
 28 29  1  0
 30 28  2  0
M  END
$$$$
