FPR.pdb
     RDKit          3D

 30 31  0  0  1  0  0  0  0  0999 V2000
   25.9307  -19.4173  -17.1088 N   0  0  0  0  0  0  0  0  0  0  0  0
   26.4955  -18.9172  -15.9099 C   0  0  1  0  0  0  0  0  0  0  0  0
   26.1341  -17.4785  -15.5858 C   0  0  0  0  0  0  0  0  0  0  0  0
   26.6852  -16.5260  -16.6197 C   0  0  0  0  0  0  0  0  0  0  0  0
   25.8341  -16.0466  -17.5859 C   0  0  0  0  0  0  0  0  0  0  0  0
   26.2784  -15.1827  -18.5617 C   0  0  0  0  0  0  0  0  0  0  0  0
   27.6023  -14.8105  -18.5435 C   0  0  0  0  0  0  0  0  0  0  0  0
   28.4696  -15.2922  -17.5677 C   0  0  0  0  0  0  0  0  0  0  0  0
   27.9964  -16.1538  -16.6063 C   0  0  0  0  0  0  0  0  0  0  0  0
   26.3255  -19.7882  -14.7191 C   0  0  0  0  0  0  0  0  0  0  0  0
   25.1845  -20.1388  -14.3358 O   0  0  0  0  0  0  0  0  0  0  0  0
   27.4459  -20.2770  -13.9401 N   0  0  0  0  0  0  0  0  0  0  0  0
   28.7902  -20.3398  -14.4650 C   0  0  0  0  0  0  0  0  0  0  0  0
   29.6307  -20.9504  -13.3732 C   0  0  0  0  0  0  0  0  0  0  0  0
   28.8457  -20.7269  -12.1162 C   0  0  0  0  0  0  0  0  0  0  0  0
   27.4268  -20.7980  -12.6218 C   0  0  1  0  0  0  0  0  0  0  0  0
   26.5309  -20.0900  -11.6692 C   0  0  0  0  0  0  0  0  0  0  0  0
   26.3824  -18.8550  -11.7886 O   0  0  0  0  0  0  0  0  0  0  0  0
   19.3059  -20.1385  -13.4430 N   0  0  0  0  0  0  0  0  0  0  0  0
   19.8684  -21.4333  -13.2726 C   0  0  0  0  0  0  0  0  0  0  0  0
   19.3135  -22.4640  -13.8436 N   0  0  0  0  0  0  0  0  0  0  0  0
   21.0374  -21.6395  -12.4845 N   0  0  0  0  0  0  0  0  0  0  0  0
   21.6715  -20.4845  -11.8938 C   0  0  0  0  0  0  0  0  0  0  0  0
   22.8973  -20.8929  -11.0847 C   0  0  0  0  0  0  0  0  0  0  0  0
   23.6131  -19.7002  -10.5234 C   0  0  0  0  0  0  0  0  0  0  0  0
   24.8568  -20.0389   -9.7605 C   0  0  2  0  0  0  0  0  0  0  0  0
   25.8282  -20.7277  -10.6265 N   0  0  0  0  0  0  0  0  0  0  0  0
   24.5453  -20.9741   -8.6763 C   0  0  0  0  0  0  0  0  0  0  0  0
   25.0171  -22.2648   -8.6990 O   0  0  0  0  0  0  0  0  0  0  0  0
   23.8449  -20.6072   -7.7163 O   0  0  0  0  0  0  0  0  0  0  0  0
  2  1  1  6
  2  3  1  0
  2 10  1  0
  3  4  1  0
  4  5  2  0
  4  9  1  0
  5  6  1  0
  6  7  2  0
  8  7  1  0
  9  8  2  0
 10 12  1  0
 11 10  2  0
 12 16  1  0
 12 13  1  0
 13 14  1  0
 15 14  1  0
 16 15  1  0
 17 27  1  0
 16 17  1  1
 18 17  2  0
 20 19  1  0
 20 22  1  0
 21 20  2  0
 22 23  1  0
 23 24  1  0
 24 25  1  0
 26 25  1  6
 26 27  1  0
 26 28  1  0
 28 29  1  0
 30 28  2  0
M  END
$$$$
