FPR.pdb
     RDKit          3D

 30 31  0  0  1  0  0  0  0  0999 V2000
   25.8131  -19.1763   -7.4440 N   0  0  0  0  0  0  0  0  0  0  0  0
   26.8303  -19.7238   -8.2638 C   0  0  1  0  0  0  0  0  0  0  0  0
   27.5790  -20.8960   -7.6545 C   0  0  0  0  0  0  0  0  0  0  0  0
   28.4504  -20.4543   -6.5033 C   0  0  0  0  0  0  0  0  0  0  0  0
   27.8741  -19.7294   -5.4883 C   0  0  0  0  0  0  0  0  0  0  0  0
   28.6175  -19.2897   -4.4158 C   0  0  0  0  0  0  0  0  0  0  0  0
   29.9578  -19.5967   -4.3873 C   0  0  0  0  0  0  0  0  0  0  0  0
   30.5477  -20.3306   -5.4120 C   0  0  0  0  0  0  0  0  0  0  0  0
   29.7793  -20.7558   -6.4699 C   0  0  0  0  0  0  0  0  0  0  0  0
   26.4249  -20.0215   -9.6611 C   0  0  0  0  0  0  0  0  0  0  0  0
   25.2144  -20.1111   -9.9748 O   0  0  0  0  0  0  0  0  0  0  0  0
   27.3843  -20.2245  -10.7284 N   0  0  0  0  0  0  0  0  0  0  0  0
   28.8103  -20.1181  -10.5236 C   0  0  0  0  0  0  0  0  0  0  0  0
   29.4384  -20.3408  -11.8753 C   0  0  0  0  0  0  0  0  0  0  0  0
   28.3938  -21.0672  -12.6674 C   0  0  0  0  0  0  0  0  0  0  0  0
   27.1205  -20.4976  -12.0943 C   0  0  1  0  0  0  0  0  0  0  0  0
   26.0015  -21.4425  -12.3513 C   0  0  0  0  0  0  0  0  0  0  0  0
   25.9298  -22.4883  -11.6709 O   0  0  0  0  0  0  0  0  0  0  0  0
   18.6424  -20.9142  -14.2311 N   0  0  0  0  0  0  0  0  0  0  0  0
   19.5406  -20.1338  -15.0096 C   0  0  0  0  0  0  0  0  0  0  0  0
   19.2808  -19.9012  -16.2645 N   0  0  0  0  0  0  0  0  0  0  0  0
   20.7333  -19.5914  -14.4498 N   0  0  0  0  0  0  0  0  0  0  0  0
   21.0091  -19.8502  -13.0563 C   0  0  0  0  0  0  0  0  0  0  0  0
   22.4684  -20.2428  -12.8558 C   0  0  0  0  0  0  0  0  0  0  0  0
   22.6504  -21.7315  -12.8836 C   0  0  0  0  0  0  0  0  0  0  0  0
   23.9017  -22.1799  -13.5740 C   0  0  2  0  0  0  0  0  0  0  0  0
   25.0024  -21.2345  -13.3240 N   0  0  0  0  0  0  0  0  0  0  0  0
   23.7004  -22.1935  -15.0254 C   0  0  0  0  0  0  0  0  0  0  0  0
   22.9473  -23.1743  -15.6252 O   0  0  0  0  0  0  0  0  0  0  0  0
   24.2132  -21.3109  -15.7359 O   0  0  0  0  0  0  0  0  0  0  0  0
  2  1  1  1
  2  3  1  0
  2 10  1  0
  3  4  1  0
  4  5  2  0
  4  9  1  0
  5  6  1  0
  6  7  2  0
  8  7  1  0
  9  8  2  0
 10 12  1  0
 11 10  2  0
 12 16  1  0
 12 13  1  0
 13 14  1  0
 15 14  1  0
 16 15  1  0
 17 27  1  0
 16 17  1  1
 18 17  2  0
 20 19  1  0
 20 22  1  0
 21 20  2  0
 22 23  1  0
 23 24  1  0
 24 25  1  0
 26 25  1  1
 26 27  1  0
 26 28  1  0
 28 29  1  0
 30 28  2  0
M  END
$$$$
