FPR.pdb
     RDKit          3D

 30 31  0  0  1  0  0  0  0  0999 V2000
   18.8676  -10.4872  -16.6420 N   0  0  0  0  0  0  0  0  0  0  0  0
   17.6545   -9.7615  -16.5529 C   0  0  1  0  0  0  0  0  0  0  0  0
   16.5160  -10.5025  -15.8744 C   0  0  0  0  0  0  0  0  0  0  0  0
   16.2426  -11.8265  -16.5467 C   0  0  0  0  0  0  0  0  0  0  0  0
   16.5195  -12.9804  -15.8541 C   0  0  0  0  0  0  0  0  0  0  0  0
   16.3010  -14.2184  -16.4160 C   0  0  0  0  0  0  0  0  0  0  0  0
   15.7959  -14.2696  -17.6942 C   0  0  0  0  0  0  0  0  0  0  0  0
   15.5131  -13.1047  -18.4011 C   0  0  0  0  0  0  0  0  0  0  0  0
   15.7420  -11.8831  -17.8133 C   0  0  0  0  0  0  0  0  0  0  0  0
   17.7809   -8.3808  -16.0206 C   0  0  0  0  0  0  0  0  0  0  0  0
   18.2506   -8.1724  -14.8771 O   0  0  0  0  0  0  0  0  0  0  0  0
   17.3760   -7.2108  -16.7744 N   0  0  0  0  0  0  0  0  0  0  0  0
   17.0427   -7.2670  -18.1788 C   0  0  0  0  0  0  0  0  0  0  0  0
   16.7358   -5.8489  -18.5864 C   0  0  0  0  0  0  0  0  0  0  0  0
   16.4050   -5.1458  -17.3049 C   0  0  0  0  0  0  0  0  0  0  0  0
   17.2853   -5.8715  -16.3187 C   0  0  1  0  0  0  0  0  0  0  0  0
   16.7321   -5.6998  -14.9491 C   0  0  0  0  0  0  0  0  0  0  0  0
   15.8913   -6.5252  -14.5328 O   0  0  0  0  0  0  0  0  0  0  0  0
   21.7791   -5.5465   -8.8517 N   0  0  0  0  0  0  0  0  0  0  0  0
   21.4989   -6.6492   -9.7044 C   0  0  0  0  0  0  0  0  0  0  0  0
   22.2829   -7.6892   -9.7021 N   0  0  0  0  0  0  0  0  0  0  0  0
   20.3700   -6.6503  -10.5738 N   0  0  0  0  0  0  0  0  0  0  0  0
   19.5225   -5.4813  -10.5890 C   0  0  0  0  0  0  0  0  0  0  0  0
   18.4331   -5.6144  -11.6470 C   0  0  0  0  0  0  0  0  0  0  0  0
   17.5501   -4.4026  -11.6884 C   0  0  0  0  0  0  0  0  0  0  0  0
   16.4940   -4.4538  -12.7494 C   0  0  2  0  0  0  0  0  0  0  0  0
   17.0982   -4.6544  -14.0770 N   0  0  0  0  0  0  0  0  0  0  0  0
   15.7831   -3.1742  -12.8163 C   0  0  0  0  0  0  0  0  0  0  0  0
   14.8050   -2.8606  -11.9031 O   0  0  0  0  0  0  0  0  0  0  0  0
   16.0591   -2.3516  -13.7074 O   0  0  0  0  0  0  0  0  0  0  0  0
  2  1  1  1
  2  3  1  0
  2 10  1  0
  3  4  1  0
  4  5  2  0
  4  9  1  0
  5  6  1  0
  6  7  2  0
  8  7  1  0
  9  8  2  0
 10 12  1  0
 11 10  2  0
 12 16  1  0
 12 13  1  0
 13 14  1  0
 15 14  1  0
 16 15  1  0
 17 27  1  0
 16 17  1  1
 18 17  2  0
 20 19  1  0
 20 22  1  0
 21 20  2  0
 22 23  1  0
 23 24  1  0
 24 25  1  0
 26 25  1  1
 26 27  1  0
 26 28  1  0
 28 29  1  0
 30 28  2  0
M  END
$$$$
