FPR.pdb
     RDKit          3D

 30 31  0  0  1  0  0  0  0  0999 V2000
   26.0180  -20.7547  -17.0225 N   0  0  0  0  0  0  0  0  0  0  0  0
   25.8848  -20.0429  -15.8052 C   0  0  1  0  0  0  0  0  0  0  0  0
   25.0582  -18.7724  -15.8961 C   0  0  0  0  0  0  0  0  0  0  0  0
   25.6840  -17.7748  -16.8410 C   0  0  0  0  0  0  0  0  0  0  0  0
   26.9622  -17.3425  -16.5820 C   0  0  0  0  0  0  0  0  0  0  0  0
   27.5842  -16.4267  -17.4008 C   0  0  0  0  0  0  0  0  0  0  0  0
   26.8893  -15.9542  -18.4896 C   0  0  0  0  0  0  0  0  0  0  0  0
   25.5945  -16.3880  -18.7577 C   0  0  0  0  0  0  0  0  0  0  0  0
   24.9998  -17.3032  -17.9216 C   0  0  0  0  0  0  0  0  0  0  0  0
   25.4738  -20.8608  -14.6358 C   0  0  0  0  0  0  0  0  0  0  0  0
   24.4895  -21.6342  -14.7053 O   0  0  0  0  0  0  0  0  0  0  0  0
   26.1704  -20.8163  -13.3654 N   0  0  0  0  0  0  0  0  0  0  0  0
   27.5234  -20.3270  -13.2365 C   0  0  0  0  0  0  0  0  0  0  0  0
   27.8879  -20.5012  -11.7847 C   0  0  0  0  0  0  0  0  0  0  0  0
   26.5743  -20.5913  -11.0687 C   0  0  0  0  0  0  0  0  0  0  0  0
   25.7048  -21.2615  -12.1025 C   0  0  1  0  0  0  0  0  0  0  0  0
   24.2774  -20.9660  -11.8085 C   0  0  0  0  0  0  0  0  0  0  0  0
   23.7549  -19.9541  -12.3229 O   0  0  0  0  0  0  0  0  0  0  0  0
   18.1313  -24.9850   -6.6130 N   0  0  0  0  0  0  0  0  0  0  0  0
   17.3960  -24.1030   -7.4516 C   0  0  0  0  0  0  0  0  0  0  0  0
   16.0948  -24.0884   -7.3984 N   0  0  0  0  0  0  0  0  0  0  0  0
   18.0497  -23.2223   -8.3612 N   0  0  0  0  0  0  0  0  0  0  0  0
   19.4808  -23.3410   -8.5126 C   0  0  0  0  0  0  0  0  0  0  0  0
   20.0156  -22.2783   -9.4657 C   0  0  0  0  0  0  0  0  0  0  0  0
   21.4837  -22.4510   -9.7205 C   0  0  0  0  0  0  0  0  0  0  0  0
   22.0634  -21.4363  -10.6574 C   0  0  2  0  0  0  0  0  0  0  0  0
   23.4631  -21.7621  -10.9774 N   0  0  0  0  0  0  0  0  0  0  0  0
   22.0895  -20.1172  -10.0199 C   0  0  0  0  0  0  0  0  0  0  0  0
   21.0603  -19.2244  -10.2007 O   0  0  0  0  0  0  0  0  0  0  0  0
   23.0511  -19.7884   -9.3028 O   0  0  0  0  0  0  0  0  0  0  0  0
  2  1  1  6
  2  3  1  0
  2 10  1  0
  3  4  1  0
  4  5  2  0
  4  9  1  0
  5  6  1  0
  6  7  2  0
  8  7  1  0
  9  8  2  0
 10 12  1  0
 11 10  2  0
 12 16  1  0
 12 13  1  0
 13 14  1  0
 15 14  1  0
 16 15  1  0
 17 27  1  0
 16 17  1  1
 18 17  2  0
 20 19  1  0
 20 22  1  0
 21 20  2  0
 22 23  1  0
 23 24  1  0
 24 25  1  0
 26 25  1  1
 26 27  1  0
 26 28  1  0
 28 29  1  0
 30 28  2  0
M  END
$$$$
