FPR.pdb
     RDKit          3D

 30 31  0  0  1  0  0  0  0  0999 V2000
   27.4335  -20.3897  -16.4084 N   0  0  0  0  0  0  0  0  0  0  0  0
   27.8569  -19.7548  -15.2151 C   0  0  1  0  0  0  0  0  0  0  0  0
   27.6186  -18.2558  -15.1707 C   0  0  0  0  0  0  0  0  0  0  0  0
   28.2734  -17.5594  -16.3395 C   0  0  0  0  0  0  0  0  0  0  0  0
   27.4713  -16.9040  -17.2423 C   0  0  0  0  0  0  0  0  0  0  0  0
   28.0073  -16.2581  -18.3339 C   0  0  0  0  0  0  0  0  0  0  0  0
   29.3725  -16.2862  -18.4972 C   0  0  0  0  0  0  0  0  0  0  0  0
   30.1907  -16.9479  -17.5865 C   0  0  0  0  0  0  0  0  0  0  0  0
   29.6260  -17.5839  -16.5062 C   0  0  0  0  0  0  0  0  0  0  0  0
   27.4017  -20.4019  -13.9583 C   0  0  0  0  0  0  0  0  0  0  0  0
   26.1939  -20.6887  -13.7829 O   0  0  0  0  0  0  0  0  0  0  0  0
   28.3071  -20.7349  -12.8765 N   0  0  0  0  0  0  0  0  0  0  0  0
   29.7366  -20.8320  -13.0602 C   0  0  0  0  0  0  0  0  0  0  0  0
   30.2963  -21.2480  -11.7242 C   0  0  0  0  0  0  0  0  0  0  0  0
   29.2403  -20.8664  -10.7316 C   0  0  0  0  0  0  0  0  0  0  0  0
   27.9785  -21.0560  -11.5353 C   0  0  1  0  0  0  0  0  0  0  0  0
   26.8876  -20.2439  -10.9340 C   0  0  0  0  0  0  0  0  0  0  0  0
   26.9744  -18.9978  -10.9733 O   0  0  0  0  0  0  0  0  0  0  0  0
   18.5588  -20.8961  -11.7065 N   0  0  0  0  0  0  0  0  0  0  0  0
   19.3515  -22.0319  -12.0282 C   0  0  0  0  0  0  0  0  0  0  0  0
   18.8008  -23.0737  -12.5828 N   0  0  0  0  0  0  0  0  0  0  0  0
   20.7500  -22.0647  -11.7577 N   0  0  0  0  0  0  0  0  0  0  0  0
   21.3753  -20.8606  -11.2637 C   0  0  0  0  0  0  0  0  0  0  0  0
   22.8850  -21.0400  -11.1510 C   0  0  0  0  0  0  0  0  0  0  0  0
   23.5628  -19.7732  -10.7200 C   0  0  0  0  0  0  0  0  0  0  0  0
   24.6676  -19.9793   -9.7299 C   0  0  2  0  0  0  0  0  0  0  0  0
   25.7464  -20.7931  -10.3145 N   0  0  0  0  0  0  0  0  0  0  0  0
   24.1747  -20.7304   -8.5723 C   0  0  0  0  0  0  0  0  0  0  0  0
   24.5557  -22.0340   -8.3613 O   0  0  0  0  0  0  0  0  0  0  0  0
   23.3999  -20.1922   -7.7617 O   0  0  0  0  0  0  0  0  0  0  0  0
  2  1  1  6
  2  3  1  0
  2 10  1  0
  3  4  1  0
  4  5  2  0
  4  9  1  0
  5  6  1  0
  6  7  2  0
  8  7  1  0
  9  8  2  0
 10 12  1  0
 11 10  2  0
 12 16  1  0
 12 13  1  0
 13 14  1  0
 15 14  1  0
 16 15  1  0
 17 27  1  0
 16 17  1  1
 18 17  2  0
 20 19  1  0
 20 22  1  0
 21 20  2  0
 22 23  1  0
 23 24  1  0
 24 25  1  0
 26 25  1  6
 26 27  1  0
 26 28  1  0
 28 29  1  0
 30 28  2  0
M  END
$$$$
