SQC.pdb
     RDKit          3D

 22 21  0  0  1  0  0  0  0  0999 V2000
   13.9636   -8.5956  -11.8345 O   0  0  0  0  0  0  0  0  0  0  0  0
   14.6687   -9.5330  -12.6078 C   0  0  0  0  0  0  0  0  0  0  0  0
   15.9955   -9.7715  -11.9448 C   0  0  2  0  0  0  0  0  0  0  0  0
   15.9414  -10.1247  -10.5649 N   0  0  0  0  0  0  0  0  0  0  0  0
   16.8726   -8.5740  -12.1609 C   0  0  0  0  0  0  0  0  0  0  0  0
   17.0517   -7.7360  -11.2183 O   0  0  0  0  0  0  0  0  0  0  0  0
   21.6948   -8.3363  -16.0369 N   0  0  0  0  0  0  0  0  0  0  0  0
   21.6802   -8.7895  -14.6783 C   0  0  0  0  0  0  0  0  0  0  0  0
   22.5957   -9.5180  -14.2503 O   0  0  0  0  0  0  0  0  0  0  0  0
   20.5548   -8.3642  -13.8472 C   0  0  0  0  0  0  0  0  0  0  0  0
   19.5380   -7.4625  -14.4233 C   0  0  0  0  0  0  0  0  0  0  0  0
   18.3595   -7.1811  -13.5551 C   0  0  2  0  0  0  0  0  0  0  0  0
   17.5201   -8.3268  -13.3886 N   0  0  0  0  0  0  0  0  0  0  0  0
   17.5745   -6.0784  -14.1962 C   0  0  0  0  0  0  0  0  0  0  0  0
   16.6261   -6.3805  -14.9404 O   0  0  0  0  0  0  0  0  0  0  0  0
   17.9087   -4.7298  -13.9558 N   0  0  0  0  0  0  0  0  0  0  0  0
   17.1873   -3.6185  -14.5412 C   0  0  1  0  0  0  0  0  0  0  0  0
   15.9544   -3.2979  -13.7394 C   0  0  0  0  0  0  0  0  0  0  0  0
   15.2165   -1.7360  -14.2427 S   0  0  0  0  0  0  0  0  0  0  0  0
   18.0486   -2.4298  -14.6738 C   0  0  0  0  0  0  0  0  0  0  0  0
   17.7353   -1.3745  -15.5103 O   0  0  0  0  0  0  0  0  0  0  0  0
   19.1046   -2.3751  -14.0015 O   0  0  0  0  0  0  0  0  0  0  0  0
  1  2  1  0
  3  5  1  0
  3  4  1  1
  3  2  1  0
  5  6  2  0
  7  8  1  0
  8 10  1  0
  9  8  2  0
 10 11  1  0
 12 11  1  6
 12 14  1  0
 13 12  1  0
 13  5  1  0
 14 15  2  0
 14 16  1  0
 16 17  1  0
 17 20  1  0
 17 18  1  1
 19 18  1  0
 20 22  2  0
 20 21  1  0
M  END
$$$$
