SQC.pdb
     RDKit          3D

 22 21  0  0  1  0  0  0  0  0999 V2000
   18.0154  -14.0583  -14.5751 O   0  0  0  0  0  0  0  0  0  0  0  0
   18.4189  -12.7303  -14.7932 C   0  0  0  0  0  0  0  0  0  0  0  0
   19.0046  -12.6484  -16.1742 C   0  0  2  0  0  0  0  0  0  0  0  0
   20.1631  -13.4470  -16.4017 N   0  0  0  0  0  0  0  0  0  0  0  0
   19.2667  -11.2101  -16.5099 C   0  0  0  0  0  0  0  0  0  0  0  0
   20.2831  -10.8933  -17.2093 O   0  0  0  0  0  0  0  0  0  0  0  0
   14.9218   -7.0867  -17.8688 N   0  0  0  0  0  0  0  0  0  0  0  0
   15.5128   -8.1209  -18.6639 C   0  0  0  0  0  0  0  0  0  0  0  0
   14.9464   -8.5160  -19.7008 O   0  0  0  0  0  0  0  0  0  0  0  0
   16.7823   -8.6760  -18.1966 C   0  0  0  0  0  0  0  0  0  0  0  0
   17.3729   -8.1615  -16.9454 C   0  0  0  0  0  0  0  0  0  0  0  0
   18.6349   -8.8235  -16.5082 C   0  0  2  0  0  0  0  0  0  0  0  0
   18.4215  -10.1693  -16.0741 N   0  0  0  0  0  0  0  0  0  0  0  0
   19.2025   -8.0207  -15.3785 C   0  0  0  0  0  0  0  0  0  0  0  0
   18.7514   -8.2041  -14.2350 O   0  0  0  0  0  0  0  0  0  0  0  0
   20.2264   -7.0802  -15.6136 N   0  0  0  0  0  0  0  0  0  0  0  0
   20.7769   -6.2324  -14.5761 C   0  0  1  0  0  0  0  0  0  0  0  0
   22.2161   -6.5813  -14.3065 C   0  0  0  0  0  0  0  0  0  0  0  0
   22.9710   -5.4457  -13.1326 S   0  0  0  0  0  0  0  0  0  0  0  0
   20.6402   -4.8058  -14.9201 C   0  0  0  0  0  0  0  0  0  0  0  0
   20.5966   -4.3573  -16.2272 O   0  0  0  0  0  0  0  0  0  0  0  0
   20.5599   -3.9689  -13.9910 O   0  0  0  0  0  0  0  0  0  0  0  0
  1  2  1  0
  3  5  1  0
  3  4  1  1
  3  2  1  0
  5  6  2  0
  7  8  1  0
  8 10  1  0
  9  8  2  0
 10 11  1  0
 12 11  1  1
 12 14  1  0
 13 12  1  0
 13  5  1  0
 14 15  2  0
 14 16  1  0
 16 17  1  0
 17 20  1  0
 17 18  1  6
 19 18  1  0
 20 22  2  0
 20 21  1  0
M  END
$$$$
