SQC.pdb
     RDKit          3D

 22 21  0  0  1  0  0  0  0  0999 V2000
   28.3068  -21.9362  -16.3478 O   0  0  0  0  0  0  0  0  0  0  0  0
   28.3127  -20.8801  -17.2743 C   0  0  0  0  0  0  0  0  0  0  0  0
   26.8849  -20.5087  -17.5577 C   0  0  2  0  0  0  0  0  0  0  0  0
   26.6928  -19.5201  -18.5664 N   0  0  0  0  0  0  0  0  0  0  0  0
   26.2201  -20.1063  -16.2747 C   0  0  0  0  0  0  0  0  0  0  0  0
   26.4224  -18.9466  -15.7878 O   0  0  0  0  0  0  0  0  0  0  0  0
   20.5525  -21.4229  -13.9712 N   0  0  0  0  0  0  0  0  0  0  0  0
   21.1734  -20.6503  -12.9374 C   0  0  0  0  0  0  0  0  0  0  0  0
   20.5032  -20.2462  -11.9680 O   0  0  0  0  0  0  0  0  0  0  0  0
   22.5999  -20.3652  -13.0855 C   0  0  0  0  0  0  0  0  0  0  0  0
   23.3164  -20.8848  -14.2668 C   0  0  0  0  0  0  0  0  0  0  0  0
   24.7714  -20.5675  -14.3295 C   0  0  2  0  0  0  0  0  0  0  0  0
   25.3644  -20.9739  -15.5657 N   0  0  0  0  0  0  0  0  0  0  0  0
   25.4426  -21.2822  -13.1974 C   0  0  0  0  0  0  0  0  0  0  0  0
   25.4720  -22.5246  -13.2143 O   0  0  0  0  0  0  0  0  0  0  0  0
   26.0270  -20.5558  -12.1395 N   0  0  0  0  0  0  0  0  0  0  0  0
   26.5794  -21.1843  -10.9572 C   0  0  1  0  0  0  0  0  0  0  0  0
   27.9306  -20.6093  -10.6263 C   0  0  0  0  0  0  0  0  0  0  0  0
   29.0478  -20.6726  -12.0353 S   0  0  0  0  0  0  0  0  0  0  0  0
   25.6642  -21.0639   -9.8082 C   0  0  0  0  0  0  0  0  0  0  0  0
   25.8730  -21.7361   -8.6181 O   0  0  0  0  0  0  0  0  0  0  0  0
   24.6594  -20.3231   -9.9157 O   0  0  0  0  0  0  0  0  0  0  0  0
  1  2  1  0
  3  5  1  0
  3  4  1  6
  3  2  1  0
  5  6  2  0
  7  8  1  0
  8 10  1  0
  9  8  2  0
 10 11  1  0
 12 11  1  6
 12 14  1  0
 13 12  1  0
 13  5  1  0
 14 15  2  0
 14 16  1  0
 16 17  1  0
 17 20  1  0
 17 18  1  1
 19 18  1  0
 20 22  2  0
 20 21  1  0
M  END
$$$$
