SQC.pdb
     RDKit          3D

 22 21  0  0  1  0  0  0  0  0999 V2000
   15.7343  -13.9996  -11.1251 O   0  0  0  0  0  0  0  0  0  0  0  0
   15.9897  -12.6870  -11.5561 C   0  0  0  0  0  0  0  0  0  0  0  0
   15.0162  -11.7773  -10.8621 C   0  0  2  0  0  0  0  0  0  0  0  0
   13.6400  -12.0097  -11.1517 N   0  0  0  0  0  0  0  0  0  0  0  0
   15.3930  -10.3526  -11.1420 C   0  0  0  0  0  0  0  0  0  0  0  0
   15.0283   -9.7981  -12.2293 O   0  0  0  0  0  0  0  0  0  0  0  0
   15.1978   -5.5779   -7.2524 N   0  0  0  0  0  0  0  0  0  0  0  0
   15.6749   -4.9800   -8.4633 C   0  0  0  0  0  0  0  0  0  0  0  0
   15.7388   -3.7402   -8.5678 O   0  0  0  0  0  0  0  0  0  0  0  0
   16.0655   -5.8852   -9.5432 C   0  0  0  0  0  0  0  0  0  0  0  0
   15.9977   -7.3423   -9.3176 C   0  0  0  0  0  0  0  0  0  0  0  0
   16.3882   -8.1932  -10.4775 C   0  0  2  0  0  0  0  0  0  0  0  0
   16.1521   -9.5830  -10.2370 N   0  0  0  0  0  0  0  0  0  0  0  0
   17.8475   -7.9736  -10.7326 C   0  0  0  0  0  0  0  0  0  0  0  0
   18.6691   -8.6793  -10.1229 O   0  0  0  0  0  0  0  0  0  0  0  0
   18.2731   -6.9872  -11.6459 N   0  0  0  0  0  0  0  0  0  0  0  0
   19.6446   -6.8622  -12.0948 C   0  0  1  0  0  0  0  0  0  0  0  0
   20.1002   -8.1213  -12.7825 C   0  0  0  0  0  0  0  0  0  0  0  0
   21.7522   -7.9458  -13.4735 S   0  0  0  0  0  0  0  0  0  0  0  0
   19.8163   -5.6935  -12.9763 C   0  0  0  0  0  0  0  0  0  0  0  0
   20.9983   -4.9793  -13.0419 O   0  0  0  0  0  0  0  0  0  0  0  0
   18.8532   -5.3354  -13.6935 O   0  0  0  0  0  0  0  0  0  0  0  0
  1  2  1  0
  3  5  1  0
  3  4  1  6
  3  2  1  0
  5  6  2  0
  7  8  1  0
  8 10  1  0
  9  8  2  0
 10 11  1  0
 12 11  1  1
 12 14  1  0
 13 12  1  0
 13  5  1  0
 14 15  2  0
 14 16  1  0
 16 17  1  0
 17 20  1  0
 17 18  1  6
 19 18  1  0
 20 22  2  0
 20 21  1  0
M  END
$$$$
