SQC.pdb
     RDKit          3D

 22 21  0  0  1  0  0  0  0  0999 V2000
   13.3450  -11.3099  -12.5757 O   0  0  0  0  0  0  0  0  0  0  0  0
   14.1144  -11.4023  -13.7475 C   0  0  0  0  0  0  0  0  0  0  0  0
   15.5603  -11.2756  -13.3598 C   0  0  2  0  0  0  0  0  0  0  0  0
   15.9979  -12.1430  -12.3168 N   0  0  0  0  0  0  0  0  0  0  0  0
   15.8541   -9.8425  -13.0281 C   0  0  0  0  0  0  0  0  0  0  0  0
   15.6135   -8.9279  -13.8816 O   0  0  0  0  0  0  0  0  0  0  0  0
   15.0821   -6.8123   -7.6377 N   0  0  0  0  0  0  0  0  0  0  0  0
   15.8645   -5.8797   -8.3922 C   0  0  0  0  0  0  0  0  0  0  0  0
   16.1131   -4.7502   -7.9291 O   0  0  0  0  0  0  0  0  0  0  0  0
   16.3362   -6.3164   -9.7057 C   0  0  0  0  0  0  0  0  0  0  0  0
   16.0833   -7.7065  -10.1329 C   0  0  0  0  0  0  0  0  0  0  0  0
   16.6056   -8.0721  -11.4803 C   0  0  2  0  0  0  0  0  0  0  0  0
   16.3994   -9.4534  -11.7876 N   0  0  0  0  0  0  0  0  0  0  0  0
   18.0729   -7.7727  -11.4965 C   0  0  0  0  0  0  0  0  0  0  0  0
   18.8453   -8.5592  -10.9225 O   0  0  0  0  0  0  0  0  0  0  0  0
   18.5608   -6.6230  -12.1511 N   0  0  0  0  0  0  0  0  0  0  0  0
   19.9628   -6.4174  -12.4515 C   0  0  1  0  0  0  0  0  0  0  0  0
   20.5447   -7.6210  -13.1433 C   0  0  0  0  0  0  0  0  0  0  0  0
   22.2740   -7.3737  -13.5743 S   0  0  0  0  0  0  0  0  0  0  0  0
   20.1659   -5.2012  -13.2589 C   0  0  0  0  0  0  0  0  0  0  0  0
   21.3227   -4.4472  -13.1889 O   0  0  0  0  0  0  0  0  0  0  0  0
   19.2543   -4.8385  -14.0384 O   0  0  0  0  0  0  0  0  0  0  0  0
  1  2  1  0
  3  5  1  0
  3  4  1  1
  3  2  1  0
  5  6  2  0
  7  8  1  0
  8 10  1  0
  9  8  2  0
 10 11  1  0
 12 11  1  1
 12 14  1  0
 13 12  1  0
 13  5  1  0
 14 15  2  0
 14 16  1  0
 16 17  1  0
 17 20  1  0
 17 18  1  6
 19 18  1  0
 20 22  2  0
 20 21  1  0
M  END
$$$$
