SQC.pdb
     RDKit          3D

 22 21  0  0  1  0  0  0  0  0999 V2000
   15.3742   -6.6461   -7.9265 O   0  0  0  0  0  0  0  0  0  0  0  0
   15.0104   -6.8178   -9.2726 C   0  0  0  0  0  0  0  0  0  0  0  0
   14.9842   -8.2926   -9.5576 C   0  0  2  0  0  0  0  0  0  0  0  0
   14.7781   -9.1361   -8.4272 N   0  0  0  0  0  0  0  0  0  0  0  0
   16.2362   -8.6713  -10.2919 C   0  0  0  0  0  0  0  0  0  0  0  0
   17.1795   -9.2687   -9.6786 O   0  0  0  0  0  0  0  0  0  0  0  0
   19.1900  -11.6992  -16.1083 N   0  0  0  0  0  0  0  0  0  0  0  0
   18.1058  -10.9358  -15.5670 C   0  0  0  0  0  0  0  0  0  0  0  0
   17.0031  -10.9143  -16.1464 O   0  0  0  0  0  0  0  0  0  0  0  0
   18.3638  -10.1973  -14.3316 C   0  0  0  0  0  0  0  0  0  0  0  0
   17.2240   -9.6360  -13.5802 C   0  0  0  0  0  0  0  0  0  0  0  0
   17.5771   -8.8624  -12.3559 C   0  0  2  0  0  0  0  0  0  0  0  0
   16.4216   -8.3871  -11.6602 N   0  0  0  0  0  0  0  0  0  0  0  0
   18.4165   -7.6968  -12.7801 C   0  0  0  0  0  0  0  0  0  0  0  0
   17.9515   -6.5518  -12.6487 O   0  0  0  0  0  0  0  0  0  0  0  0
   19.7051   -7.9010  -13.3150 N   0  0  0  0  0  0  0  0  0  0  0  0
   20.5817   -6.8160  -13.7056 C   0  0  1  0  0  0  0  0  0  0  0  0
   21.1204   -6.1003  -12.4958 C   0  0  0  0  0  0  0  0  0  0  0  0
   22.3480   -4.8629  -12.9422 S   0  0  0  0  0  0  0  0  0  0  0  0
   21.6811   -7.2960  -14.5618 C   0  0  0  0  0  0  0  0  0  0  0  0
   21.9888   -8.6374  -14.6941 O   0  0  0  0  0  0  0  0  0  0  0  0
   22.3615   -6.4546  -15.1938 O   0  0  0  0  0  0  0  0  0  0  0  0
  1  2  1  0
  3  5  1  0
  3  4  1  1
  3  2  1  0
  5  6  2  0
  7  8  1  0
  8 10  1  0
  9  8  2  0
 10 11  1  0
 12 11  1  6
 12 14  1  0
 13 12  1  0
 13  5  1  0
 14 15  2  0
 14 16  1  0
 16 17  1  0
 17 20  1  0
 17 18  1  1
 19 18  1  0
 20 22  2  0
 20 21  1  0
M  END
$$$$
