SQC.pdb
     RDKit          3D

 22 21  0  0  1  0  0  0  0  0999 V2000
   27.3307  -23.3304  -15.6079 O   0  0  0  0  0  0  0  0  0  0  0  0
   26.5279  -22.9649  -16.7014 C   0  0  0  0  0  0  0  0  0  0  0  0
   26.7420  -21.5007  -16.9602 C   0  0  2  0  0  0  0  0  0  0  0  0
   27.9825  -20.9679  -16.5028 N   0  0  0  0  0  0  0  0  0  0  0  0
   25.5842  -20.7302  -16.3981 C   0  0  0  0  0  0  0  0  0  0  0  0
   25.7925  -19.7366  -15.6286 O   0  0  0  0  0  0  0  0  0  0  0  0
   22.1149  -17.2632  -17.5764 N   0  0  0  0  0  0  0  0  0  0  0  0
   20.9975  -17.8036  -16.8619 C   0  0  0  0  0  0  0  0  0  0  0  0
   20.1283  -17.0455  -16.3907 O   0  0  0  0  0  0  0  0  0  0  0  0
   20.9413  -19.2574  -16.7157 C   0  0  0  0  0  0  0  0  0  0  0  0
   22.0865  -20.0691  -17.1726 C   0  0  0  0  0  0  0  0  0  0  0  0
   23.1673  -20.2820  -16.1685 C   0  0  2  0  0  0  0  0  0  0  0  0
   24.2456  -21.0651  -16.6872 N   0  0  0  0  0  0  0  0  0  0  0  0
   22.5637  -20.9846  -14.9917 C   0  0  0  0  0  0  0  0  0  0  0  0
   22.3831  -22.2123  -15.0623 O   0  0  0  0  0  0  0  0  0  0  0  0
   22.2113  -20.2637  -13.8322 N   0  0  0  0  0  0  0  0  0  0  0  0
   21.7198  -20.8959  -12.6252 C   0  0  1  0  0  0  0  0  0  0  0  0
   21.8151  -19.9577  -11.4519 C   0  0  0  0  0  0  0  0  0  0  0  0
   20.5938  -18.6400  -11.5481 S   0  0  0  0  0  0  0  0  0  0  0  0
   20.3381  -21.3795  -12.7971 C   0  0  0  0  0  0  0  0  0  0  0  0
   19.5543  -21.0211  -13.8782 O   0  0  0  0  0  0  0  0  0  0  0  0
   19.8574  -22.1452  -11.9294 O   0  0  0  0  0  0  0  0  0  0  0  0
  1  2  1  0
  3  5  1  0
  3  4  1  1
  3  2  1  0
  5  6  2  0
  7  8  1  0
  8 10  1  0
  9  8  2  0
 10 11  1  0
 12 11  1  6
 12 14  1  0
 13 12  1  0
 13  5  1  0
 14 15  2  0
 14 16  1  0
 16 17  1  0
 17 20  1  0
 17 18  1  1
 19 18  1  0
 20 22  2  0
 20 21  1  0
M  END
$$$$
