SQC.pdb
     RDKit          3D

 22 21  0  0  1  0  0  0  0  0999 V2000
   30.8592  -20.4364   -8.5536 O   0  0  0  0  0  0  0  0  0  0  0  0
   30.7581  -20.4167   -9.9548 C   0  0  0  0  0  0  0  0  0  0  0  0
   30.2250  -21.7501  -10.3963 C   0  0  2  0  0  0  0  0  0  0  0  0
   31.1500  -22.5868  -11.0863 N   0  0  0  0  0  0  0  0  0  0  0  0
   28.9823  -21.5355  -11.2086 C   0  0  0  0  0  0  0  0  0  0  0  0
   29.0266  -21.6267  -12.4785 O   0  0  0  0  0  0  0  0  0  0  0  0
   22.9075  -20.5098   -9.1885 N   0  0  0  0  0  0  0  0  0  0  0  0
   22.8071  -20.7178  -10.6019 C   0  0  0  0  0  0  0  0  0  0  0  0
   21.6916  -20.7280  -11.1567 O   0  0  0  0  0  0  0  0  0  0  0  0
   24.0561  -20.9190  -11.3352 C   0  0  0  0  0  0  0  0  0  0  0  0
   25.3265  -20.9769  -10.5858 C   0  0  0  0  0  0  0  0  0  0  0  0
   26.5577  -21.1182  -11.4140 C   0  0  2  0  0  0  0  0  0  0  0  0
   27.7401  -21.2276  -10.6172 N   0  0  0  0  0  0  0  0  0  0  0  0
   26.6587  -19.9077  -12.2900 C   0  0  0  0  0  0  0  0  0  0  0  0
   26.9674  -18.8224  -11.7690 O   0  0  0  0  0  0  0  0  0  0  0  0
   26.4089  -20.0043  -13.6744 N   0  0  0  0  0  0  0  0  0  0  0  0
   26.5275  -18.8808  -14.5810 C   0  0  1  0  0  0  0  0  0  0  0  0
   27.9111  -18.8113  -15.1699 C   0  0  0  0  0  0  0  0  0  0  0  0
   28.0569  -17.4885  -16.3809 S   0  0  0  0  0  0  0  0  0  0  0  0
   25.5089  -18.9396  -15.6446 C   0  0  0  0  0  0  0  0  0  0  0  0
   25.2731  -17.8850  -16.5070 O   0  0  0  0  0  0  0  0  0  0  0  0
   24.8320  -19.9866  -15.7709 O   0  0  0  0  0  0  0  0  0  0  0  0
  1  2  1  0
  3  5  1  0
  3  4  1  6
  3  2  1  0
  5  6  2  0
  7  8  1  0
  8 10  1  0
  9  8  2  0
 10 11  1  0
 12 11  1  1
 12 14  1  0
 13 12  1  0
 13  5  1  0
 14 15  2  0
 14 16  1  0
 16 17  1  0
 17 20  1  0
 17 18  1  6
 19 18  1  0
 20 22  2  0
 20 21  1  0
M  END
$$$$
