SQC.pdb
     RDKit          3D

 22 21  0  0  1  0  0  0  0  0999 V2000
   14.1589  -13.5432  -17.5053 O   0  0  0  0  0  0  0  0  0  0  0  0
   14.5959  -12.4962  -16.6767 C   0  0  0  0  0  0  0  0  0  0  0  0
   16.0879  -12.6083  -16.5418 C   0  0  2  0  0  0  0  0  0  0  0  0
   16.5675  -13.8309  -15.9877 N   0  0  0  0  0  0  0  0  0  0  0  0
   16.5992  -11.4288  -15.7689 C   0  0  0  0  0  0  0  0  0  0  0  0
   16.0745  -11.1240  -14.6488 O   0  0  0  0  0  0  0  0  0  0  0  0
   22.3239   -8.6470  -15.7863 N   0  0  0  0  0  0  0  0  0  0  0  0
   21.5172   -7.7700  -14.9917 C   0  0  0  0  0  0  0  0  0  0  0  0
   22.0362   -6.8037  -14.4008 O   0  0  0  0  0  0  0  0  0  0  0  0
   20.0885   -8.0708  -14.9110 C   0  0  0  0  0  0  0  0  0  0  0  0
   19.5587   -9.2377  -15.6434 C   0  0  0  0  0  0  0  0  0  0  0  0
   18.0970   -9.4862  -15.4895 C   0  0  2  0  0  0  0  0  0  0  0  0
   17.6562  -10.6223  -16.2378 N   0  0  0  0  0  0  0  0  0  0  0  0
   17.3745   -8.2648  -15.9680 C   0  0  0  0  0  0  0  0  0  0  0  0
   17.1950   -8.1221  -17.1896 O   0  0  0  0  0  0  0  0  0  0  0  0
   16.9100   -7.3025  -15.0479 N   0  0  0  0  0  0  0  0  0  0  0  0
   16.3510   -6.0279  -15.4492 C   0  0  1  0  0  0  0  0  0  0  0  0
   14.8817   -5.9624  -15.1289 C   0  0  0  0  0  0  0  0  0  0  0  0
   14.2367   -4.2900  -15.2859 S   0  0  0  0  0  0  0  0  0  0  0  0
   17.0730   -4.9048  -14.8247 C   0  0  0  0  0  0  0  0  0  0  0  0
   18.0199   -5.0889  -13.8343 O   0  0  0  0  0  0  0  0  0  0  0  0
   16.8178   -3.7394  -15.2079 O   0  0  0  0  0  0  0  0  0  0  0  0
  1  2  1  0
  3  5  1  0
  3  4  1  1
  3  2  1  0
  5  6  2  0
  7  8  1  0
  8 10  1  0
  9  8  2  0
 10 11  1  0
 12 11  1  6
 12 14  1  0
 13 12  1  0
 13  5  1  0
 14 15  2  0
 14 16  1  0
 16 17  1  0
 17 20  1  0
 17 18  1  1
 19 18  1  0
 20 22  2  0
 20 21  1  0
M  END
$$$$
