SQC.pdb
     RDKit          3D

 22 21  0  0  1  0  0  0  0  0999 V2000
   25.2639  -12.6381  -15.4940 O   0  0  0  0  0  0  0  0  0  0  0  0
   24.7084  -11.4176  -15.9131 C   0  0  0  0  0  0  0  0  0  0  0  0
   23.3517  -11.7041  -16.4912 C   0  0  2  0  0  0  0  0  0  0  0  0
   23.3448  -12.4139  -17.7273 N   0  0  0  0  0  0  0  0  0  0  0  0
   22.5863  -10.4189  -16.6032 C   0  0  0  0  0  0  0  0  0  0  0  0
   22.9005   -9.5649  -17.4946 O   0  0  0  0  0  0  0  0  0  0  0  0
   16.4791   -9.4247  -15.4181 N   0  0  0  0  0  0  0  0  0  0  0  0
   16.9748   -8.1053  -15.6725 C   0  0  0  0  0  0  0  0  0  0  0  0
   16.1888   -7.1404  -15.7306 O   0  0  0  0  0  0  0  0  0  0  0  0
   18.4176   -7.9616  -15.8619 C   0  0  0  0  0  0  0  0  0  0  0  0
   19.2840   -9.1452  -15.6967 C   0  0  0  0  0  0  0  0  0  0  0  0
   20.7361   -8.9213  -15.9482 C   0  0  2  0  0  0  0  0  0  0  0  0
   21.5125  -10.1049  -15.7452 N   0  0  0  0  0  0  0  0  0  0  0  0
   21.2020   -7.8536  -15.0069 C   0  0  0  0  0  0  0  0  0  0  0  0
   21.2351   -8.1080  -13.7908 O   0  0  0  0  0  0  0  0  0  0  0  0
   21.5938   -6.5905  -15.4961 N   0  0  0  0  0  0  0  0  0  0  0  0
   22.0302   -5.5089  -14.6371 C   0  0  1  0  0  0  0  0  0  0  0  0
   22.8958   -4.5384  -15.3953 C   0  0  0  0  0  0  0  0  0  0  0  0
   24.3602   -5.3355  -16.0717 S   0  0  0  0  0  0  0  0  0  0  0  0
   20.8839   -4.8166  -14.0215 C   0  0  0  0  0  0  0  0  0  0  0  0
   19.5748   -5.0897  -14.3725 O   0  0  0  0  0  0  0  0  0  0  0  0
   21.1063   -3.9480  -13.1461 O   0  0  0  0  0  0  0  0  0  0  0  0
  1  2  1  0
  3  5  1  0
  3  4  1  6
  3  2  1  0
  5  6  2  0
  7  8  1  0
  8 10  1  0
  9  8  2  0
 10 11  1  0
 12 11  1  1
 12 14  1  0
 13 12  1  0
 13  5  1  0
 14 15  2  0
 14 16  1  0
 16 17  1  0
 17 20  1  0
 17 18  1  6
 19 18  1  0
 20 22  2  0
 20 21  1  0
M  END
$$$$
