SQC.pdb
     RDKit          3D

 22 21  0  0  1  0  0  0  0  0999 V2000
   19.5121  -10.6118  -15.6689 O   0  0  0  0  0  0  0  0  0  0  0  0
   19.5045  -10.9116  -14.2964 C   0  0  0  0  0  0  0  0  0  0  0  0
   18.2462  -11.6769  -13.9995 C   0  0  2  0  0  0  0  0  0  0  0  0
   17.9630  -12.7634  -14.8777 N   0  0  0  0  0  0  0  0  0  0  0  0
   17.0938  -10.7187  -13.9381 C   0  0  0  0  0  0  0  0  0  0  0  0
   16.3206  -10.5855  -14.9417 O   0  0  0  0  0  0  0  0  0  0  0  0
   13.3971   -9.5244   -9.0665 N   0  0  0  0  0  0  0  0  0  0  0  0
   12.7755   -8.8573  -10.1710 C   0  0  0  0  0  0  0  0  0  0  0  0
   11.6024   -8.4484  -10.0771 O   0  0  0  0  0  0  0  0  0  0  0  0
   13.5742   -8.6946  -11.3849 C   0  0  0  0  0  0  0  0  0  0  0  0
   14.9383   -9.2571  -11.4269 C   0  0  0  0  0  0  0  0  0  0  0  0
   15.6522   -9.1208  -12.7283 C   0  0  2  0  0  0  0  0  0  0  0  0
   16.8231   -9.9390  -12.7951 N   0  0  0  0  0  0  0  0  0  0  0  0
   16.0405   -7.6831  -12.8863 C   0  0  0  0  0  0  0  0  0  0  0  0
   17.0285   -7.2630  -12.2600 O   0  0  0  0  0  0  0  0  0  0  0  0
   15.2981   -6.8305  -13.7292 N   0  0  0  0  0  0  0  0  0  0  0  0
   15.6733   -5.4571  -13.9958 C   0  0  1  0  0  0  0  0  0  0  0  0
   15.5282   -5.1364  -15.4593 C   0  0  0  0  0  0  0  0  0  0  0  0
   16.9293   -5.7335  -16.4172 S   0  0  0  0  0  0  0  0  0  0  0  0
   14.8894   -4.5175  -13.1742 C   0  0  0  0  0  0  0  0  0  0  0  0
   15.3917   -3.2998  -12.7542 O   0  0  0  0  0  0  0  0  0  0  0  0
   13.7230   -4.8360  -12.8453 O   0  0  0  0  0  0  0  0  0  0  0  0
  1  2  1  0
  3  5  1  0
  3  4  1  6
  3  2  1  0
  5  6  2  0
  7  8  1  0
  8 10  1  0
  9  8  2  0
 10 11  1  0
 12 11  1  1
 12 14  1  0
 13 12  1  0
 13  5  1  0
 14 15  2  0
 14 16  1  0
 16 17  1  0
 17 20  1  0
 17 18  1  6
 19 18  1  0
 20 22  2  0
 20 21  1  0
M  END
$$$$
