SQC.pdb
     RDKit          3D

 22 21  0  0  1  0  0  0  0  0999 V2000
   18.7577  -13.0601  -14.1261 O   0  0  0  0  0  0  0  0  0  0  0  0
   18.0301  -11.8840  -14.3739 C   0  0  0  0  0  0  0  0  0  0  0  0
   16.5805  -12.1751  -14.1077 C   0  0  2  0  0  0  0  0  0  0  0  0
   15.8132  -12.5748  -15.2405 N   0  0  0  0  0  0  0  0  0  0  0  0
   15.9607  -10.9907  -13.4272 C   0  0  0  0  0  0  0  0  0  0  0  0
   15.6024   -9.9773  -14.1110 O   0  0  0  0  0  0  0  0  0  0  0  0
   11.8189  -11.0837   -8.8710 N   0  0  0  0  0  0  0  0  0  0  0  0
   12.1197   -9.6848   -8.9342 C   0  0  0  0  0  0  0  0  0  0  0  0
   11.3914   -8.8596   -8.3503 O   0  0  0  0  0  0  0  0  0  0  0  0
   13.2959   -9.2916   -9.7088 C   0  0  0  0  0  0  0  0  0  0  0  0
   14.1157  -10.3386  -10.3495 C   0  0  0  0  0  0  0  0  0  0  0  0
   15.0233   -9.8720  -11.4360 C   0  0  2  0  0  0  0  0  0  0  0  0
   15.7545  -10.9461  -12.0333 N   0  0  0  0  0  0  0  0  0  0  0  0
   15.9825   -8.8897  -10.8378 C   0  0  0  0  0  0  0  0  0  0  0  0
   16.9390   -9.3237  -10.1735 O   0  0  0  0  0  0  0  0  0  0  0  0
   15.7992   -7.5046  -11.0287 N   0  0  0  0  0  0  0  0  0  0  0  0
   16.6781   -6.5035  -10.4599 C   0  0  1  0  0  0  0  0  0  0  0  0
   16.8365   -5.3354  -11.3960 C   0  0  0  0  0  0  0  0  0  0  0  0
   17.7488   -3.9854  -10.6326 S   0  0  0  0  0  0  0  0  0  0  0  0
   16.1977   -6.0550   -9.1406 C   0  0  0  0  0  0  0  0  0  0  0  0
   17.0562   -5.7645   -8.0965 O   0  0  0  0  0  0  0  0  0  0  0  0
   14.9638   -5.9321   -8.9606 O   0  0  0  0  0  0  0  0  0  0  0  0
  1  2  1  0
  3  5  1  0
  3  4  1  6
  3  2  1  0
  5  6  2  0
  7  8  1  0
  8 10  1  0
  9  8  2  0
 10 11  1  0
 12 11  1  1
 12 14  1  0
 13 12  1  0
 13  5  1  0
 14 15  2  0
 14 16  1  0
 16 17  1  0
 17 20  1  0
 17 18  1  6
 19 18  1  0
 20 22  2  0
 20 21  1  0
M  END
$$$$
