SQC.pdb
     RDKit          3D

 22 21  0  0  1  0  0  0  0  0999 V2000
   28.1278  -11.1802  -15.5025 O   0  0  0  0  0  0  0  0  0  0  0  0
   27.1305  -10.2700  -15.8907 C   0  0  0  0  0  0  0  0  0  0  0  0
   26.4563  -10.8207  -17.1151 C   0  0  2  0  0  0  0  0  0  0  0  0
   27.2859  -10.9620  -18.2657 N   0  0  0  0  0  0  0  0  0  0  0  0
   25.2455   -9.9903  -17.4222 C   0  0  0  0  0  0  0  0  0  0  0  0
   25.2243   -9.2527  -18.4605 O   0  0  0  0  0  0  0  0  0  0  0  0
   19.5046  -11.7176  -17.9111 N   0  0  0  0  0  0  0  0  0  0  0  0
   19.3751  -10.2982  -18.0515 C   0  0  0  0  0  0  0  0  0  0  0  0
   18.3010   -9.8019  -18.4416 O   0  0  0  0  0  0  0  0  0  0  0  0
   20.5477   -9.4877  -17.7256 C   0  0  0  0  0  0  0  0  0  0  0  0
   21.7877  -10.1616  -17.2930 C   0  0  0  0  0  0  0  0  0  0  0  0
   22.9308   -9.2618  -16.9678 C   0  0  2  0  0  0  0  0  0  0  0  0
   24.1050   -9.9871  -16.5934 N   0  0  0  0  0  0  0  0  0  0  0  0
   22.5079   -8.3802  -15.8334 C   0  0  0  0  0  0  0  0  0  0  0  0
   22.7024   -8.7749  -14.6710 O   0  0  0  0  0  0  0  0  0  0  0  0
   21.9040   -7.1312  -16.0853 N   0  0  0  0  0  0  0  0  0  0  0  0
   21.6066   -6.1704  -15.0429 C   0  0  1  0  0  0  0  0  0  0  0  0
   22.8731   -5.6349  -14.4305 C   0  0  0  0  0  0  0  0  0  0  0  0
   22.5379   -4.3488  -13.2177 S   0  0  0  0  0  0  0  0  0  0  0  0
   20.7656   -5.0714  -15.5501 C   0  0  0  0  0  0  0  0  0  0  0  0
   20.1247   -4.1782  -14.7117 O   0  0  0  0  0  0  0  0  0  0  0  0
   20.6280   -4.9429  -16.7889 O   0  0  0  0  0  0  0  0  0  0  0  0
  1  2  1  0
  3  5  1  0
  3  4  1  6
  3  2  1  0
  5  6  2  0
  7  8  1  0
  8 10  1  0
  9  8  2  0
 10 11  1  0
 12 11  1  1
 12 14  1  0
 13 12  1  0
 13  5  1  0
 14 15  2  0
 14 16  1  0
 16 17  1  0
 17 20  1  0
 17 18  1  6
 19 18  1  0
 20 22  2  0
 20 21  1  0
M  END
$$$$
