TPS.pdb
     RDKit          3D

 21 21  0  0  1  0  0  0  0  0999 V2000
    6.1123  -15.4644   21.0990 C   0  0  0  0  0  0  0  0  0  0  0  0
    6.7942  -15.2579   22.4069 C   0  0  1  0  0  0  0  0  0  0  0  0
    7.6660  -16.3627   22.5826 O   0  0  0  0  0  0  0  0  0  0  0  0
    7.6498  -14.0429   22.5229 C   0  0  2  0  0  0  0  0  0  0  0  0
    8.6457  -14.1665   21.4516 N   0  0  0  0  0  0  0  0  0  0  0  0
    8.3307  -13.8814   23.8323 C   0  0  0  0  0  0  0  0  0  0  0  0
    9.5871  -14.1826   23.8855 O   0  0  0  0  0  0  0  0  0  0  0  0
    7.7615  -13.4317   25.0266 N   0  0  0  0  0  0  0  0  0  0  0  0
    6.4287  -12.9075   25.1963 C   0  0  0  0  0  0  0  0  0  0  0  0
    6.5647  -11.9322   26.3693 C   0  0  0  0  0  0  0  0  0  0  0  0
    7.5372  -12.6414   27.2566 C   0  0  0  0  0  0  0  0  0  0  0  0
    8.4242  -13.3827   26.3007 C   0  0  1  0  0  0  0  0  0  0  0  0
    8.6155  -14.7685   26.8627 C   0  0  0  0  0  0  0  0  0  0  0  0
    7.6397  -15.5518   26.8140 O   0  0  0  0  0  0  0  0  0  0  0  0
   12.1685  -16.4452   27.1160 O   0  0  0  0  0  0  0  0  0  0  0  0
   11.0925  -17.3118   27.3068 C   0  0  0  0  0  0  0  0  0  0  0  0
   10.0113  -16.5264   28.0101 C   0  0  2  0  0  0  0  0  0  0  0  0
    9.8230  -15.2168   27.4318 N   0  0  0  0  0  0  0  0  0  0  0  0
   10.4257  -16.3631   29.4192 C   0  0  0  0  0  0  0  0  0  0  0  0
   10.5479  -15.2101   29.8919 O   0  0  0  0  0  0  0  0  0  0  0  0
   10.6896  -17.4347   30.2565 O   0  0  0  0  0  0  0  0  0  0  0  0
  2  1  1  6
  2  4  1  0
  2  3  1  0
  4  5  1  6
  4  6  1  0
  6  7  2  0
  8  6  1  0
  8 12  1  0
  9  8  1  0
 10  9  1  0
 10 11  1  0
 11 12  1  0
 12 13  1  1
 13 14  2  0
 15 16  1  0
 17 16  1  6
 17 19  1  0
 18 13  1  0
 18 17  1  0
 19 20  2  0
 19 21  1  0
M  END
$$$$
