TPS.pdb
     RDKit          3D

 21 21  0  0  1  0  0  0  0  0999 V2000
    7.2520  -17.6153   17.1004 C   0  0  0  0  0  0  0  0  0  0  0  0
    8.4397  -17.2443   16.2817 C   0  0  1  0  0  0  0  0  0  0  0  0
    8.0861  -17.4882   14.9301 O   0  0  0  0  0  0  0  0  0  0  0  0
    8.8637  -15.8166   16.3394 C   0  0  2  0  0  0  0  0  0  0  0  0
    9.9194  -15.6846   15.3280 N   0  0  0  0  0  0  0  0  0  0  0  0
    9.3692  -15.3683   17.6615 C   0  0  0  0  0  0  0  0  0  0  0  0
   10.5296  -15.8047   18.0289 O   0  0  0  0  0  0  0  0  0  0  0  0
    8.7266  -14.5150   18.5625 N   0  0  0  0  0  0  0  0  0  0  0  0
    7.4118  -13.9421   18.4108 C   0  0  0  0  0  0  0  0  0  0  0  0
    7.4988  -12.6169   19.1737 C   0  0  0  0  0  0  0  0  0  0  0  0
    8.3591  -12.9822   20.3410 C   0  0  0  0  0  0  0  0  0  0  0  0
    9.2840  -14.0291   19.7945 C   0  0  1  0  0  0  0  0  0  0  0  0
    9.3601  -15.1289   20.8229 C   0  0  0  0  0  0  0  0  0  0  0  0
    8.4707  -16.0099   20.7938 O   0  0  0  0  0  0  0  0  0  0  0  0
   12.7561  -16.1675   22.0488 O   0  0  0  0  0  0  0  0  0  0  0  0
   11.9597  -16.5121   23.1406 C   0  0  0  0  0  0  0  0  0  0  0  0
   10.5230  -16.3130   22.7204 C   0  0  2  0  0  0  0  0  0  0  0  0
   10.3702  -15.2105   21.8007 N   0  0  0  0  0  0  0  0  0  0  0  0
    9.7398  -16.0208   23.9391 C   0  0  0  0  0  0  0  0  0  0  0  0
    9.1939  -14.9007   24.0624 O   0  0  0  0  0  0  0  0  0  0  0  0
    9.5757  -16.9348   24.9671 O   0  0  0  0  0  0  0  0  0  0  0  0
  2  1  1  1
  2  4  1  0
  2  3  1  0
  4  5  1  6
  4  6  1  0
  6  7  2  0
  8  6  1  0
  8 12  1  0
  9  8  1  0
 10  9  1  0
 10 11  1  0
 11 12  1  0
 12 13  1  1
 13 14  2  0
 15 16  1  0
 17 16  1  1
 17 19  1  0
 18 13  1  0
 18 17  1  0
 19 20  2  0
 19 21  1  0
M  END
$$$$
