TPS.pdb
     RDKit          3D

 21 21  0  0  1  0  0  0  0  0999 V2000
    7.3094  -17.5764   19.9565 C   0  0  0  0  0  0  0  0  0  0  0  0
    8.0255  -17.9189   18.6963 C   0  0  1  0  0  0  0  0  0  0  0  0
    7.1947  -18.8330   17.9995 O   0  0  0  0  0  0  0  0  0  0  0  0
    8.2753  -16.7946   17.7503 C   0  0  2  0  0  0  0  0  0  0  0  0
    8.8655  -17.4151   16.5580 N   0  0  0  0  0  0  0  0  0  0  0  0
    9.1745  -15.7320   18.2668 C   0  0  0  0  0  0  0  0  0  0  0  0
   10.4266  -16.0287   18.3945 O   0  0  0  0  0  0  0  0  0  0  0  0
    8.8170  -14.4312   18.6312 N   0  0  0  0  0  0  0  0  0  0  0  0
    7.5171  -13.8255   18.4785 C   0  0  0  0  0  0  0  0  0  0  0  0
    7.8251  -12.3360   18.2993 C   0  0  0  0  0  0  0  0  0  0  0  0
    8.9748  -12.1380   19.2347 C   0  0  0  0  0  0  0  0  0  0  0  0
    9.7011  -13.4500   19.1972 C   0  0  1  0  0  0  0  0  0  0  0  0
   10.0531  -13.7987   20.6210 C   0  0  0  0  0  0  0  0  0  0  0  0
   11.0402  -13.2205   21.1305 O   0  0  0  0  0  0  0  0  0  0  0  0
    7.4931  -16.0227   22.7023 O   0  0  0  0  0  0  0  0  0  0  0  0
    8.3278  -15.3023   23.5564 C   0  0  0  0  0  0  0  0  0  0  0  0
    9.5926  -15.0010   22.7883 C   0  0  2  0  0  0  0  0  0  0  0  0
    9.3341  -14.7308   21.3937 N   0  0  0  0  0  0  0  0  0  0  0  0
   10.4643  -16.1907   22.8831 C   0  0  0  0  0  0  0  0  0  0  0  0
   10.9419  -16.5130   23.9947 O   0  0  0  0  0  0  0  0  0  0  0  0
   10.7851  -16.9792   21.7902 O   0  0  0  0  0  0  0  0  0  0  0  0
  2  1  1  1
  2  4  1  0
  2  3  1  0
  4  5  1  6
  4  6  1  0
  6  7  2  0
  8  6  1  0
  8 12  1  0
  9  8  1  0
 10  9  1  0
 10 11  1  0
 11 12  1  0
 12 13  1  1
 13 14  2  0
 15 16  1  0
 17 16  1  1
 17 19  1  0
 18 13  1  0
 18 17  1  0
 19 20  2  0
 19 21  1  0
M  END
$$$$
