TPS.pdb
     RDKit          3D

 21 21  0  0  1  0  0  0  0  0999 V2000
    7.5132  -13.8667   17.5324 C   0  0  0  0  0  0  0  0  0  0  0  0
    8.0776  -14.3524   18.8223 C   0  0  1  0  0  0  0  0  0  0  0  0
    8.9216  -15.4466   18.5032 O   0  0  0  0  0  0  0  0  0  0  0  0
    8.9288  -13.3893   19.5769 C   0  0  2  0  0  0  0  0  0  0  0  0
   10.0451  -13.0720   18.6781 N   0  0  0  0  0  0  0  0  0  0  0  0
    9.4487  -13.8969   20.8717 C   0  0  0  0  0  0  0  0  0  0  0  0
   10.6972  -14.2305   20.9166 O   0  0  0  0  0  0  0  0  0  0  0  0
    8.7338  -14.0532   22.0621 N   0  0  0  0  0  0  0  0  0  0  0  0
    7.3662  -13.6605   22.2979 C   0  0  0  0  0  0  0  0  0  0  0  0
    7.3279  -13.3462   23.7963 C   0  0  0  0  0  0  0  0  0  0  0  0
    8.2339  -14.3935   24.3604 C   0  0  0  0  0  0  0  0  0  0  0  0
    9.2535  -14.6084   23.2813 C   0  0  1  0  0  0  0  0  0  0  0  0
    9.4520  -16.0975   23.1541 C   0  0  0  0  0  0  0  0  0  0  0  0
    8.6853  -16.7190   22.3833 O   0  0  0  0  0  0  0  0  0  0  0  0
   12.2287  -19.8498   22.9635 O   0  0  0  0  0  0  0  0  0  0  0  0
   12.0480  -18.4677   23.0120 C   0  0  0  0  0  0  0  0  0  0  0  0
   10.7117  -18.2192   23.6700 C   0  0  2  0  0  0  0  0  0  0  0  0
   10.4451  -16.8118   23.8515 N   0  0  0  0  0  0  0  0  0  0  0  0
   10.7428  -18.8670   24.9980 C   0  0  0  0  0  0  0  0  0  0  0  0
   10.7241  -18.1546   26.0275 O   0  0  0  0  0  0  0  0  0  0  0  0
   10.7921  -20.2412   25.1655 O   0  0  0  0  0  0  0  0  0  0  0  0
  2  1  1  6
  2  4  1  0
  2  3  1  0
  4  5  1  6
  4  6  1  0
  6  7  2  0
  8  6  1  0
  8 12  1  0
  9  8  1  0
 10  9  1  0
 10 11  1  0
 11 12  1  0
 12 13  1  6
 13 14  2  0
 15 16  1  0
 17 16  1  1
 17 19  1  0
 18 13  1  0
 18 17  1  0
 19 20  2  0
 19 21  1  0
M  END
$$$$
