TPS.pdb
     RDKit          3D

 21 21  0  0  1  0  0  0  0  0999 V2000
    6.8664  -18.2603   18.6360 C   0  0  0  0  0  0  0  0  0  0  0  0
    7.7631  -17.9726   17.4821 C   0  0  1  0  0  0  0  0  0  0  0  0
    7.0851  -18.4314   16.3240 O   0  0  0  0  0  0  0  0  0  0  0  0
    8.0754  -16.5375   17.2281 C   0  0  2  0  0  0  0  0  0  0  0  0
    8.8471  -16.5239   15.9794 N   0  0  0  0  0  0  0  0  0  0  0  0
    8.8435  -15.8653   18.3063 C   0  0  0  0  0  0  0  0  0  0  0  0
   10.0927  -16.1781   18.4245 O   0  0  0  0  0  0  0  0  0  0  0  0
    8.3644  -14.9189   19.2160 N   0  0  0  0  0  0  0  0  0  0  0  0
    7.0914  -14.2436   19.1588 C   0  0  0  0  0  0  0  0  0  0  0  0
    7.3600  -12.8963   19.8358 C   0  0  0  0  0  0  0  0  0  0  0  0
    8.2999  -13.2785   20.9343 C   0  0  0  0  0  0  0  0  0  0  0  0
    9.0787  -14.4250   20.3608 C   0  0  1  0  0  0  0  0  0  0  0  0
    9.1680  -15.4778   21.4362 C   0  0  0  0  0  0  0  0  0  0  0  0
    8.1804  -16.2324   21.5897 O   0  0  0  0  0  0  0  0  0  0  0  0
   12.7386  -16.4332   23.0190 O   0  0  0  0  0  0  0  0  0  0  0  0
   11.7556  -17.4154   23.1375 C   0  0  0  0  0  0  0  0  0  0  0  0
   10.4286  -16.7024   23.2435 C   0  0  2  0  0  0  0  0  0  0  0  0
   10.2939  -15.6498   22.2644 N   0  0  0  0  0  0  0  0  0  0  0  0
   10.3526  -16.1027   24.5921 C   0  0  0  0  0  0  0  0  0  0  0  0
   10.2513  -14.8598   24.7047 O   0  0  0  0  0  0  0  0  0  0  0  0
   10.3882  -16.8549   25.7548 O   0  0  0  0  0  0  0  0  0  0  0  0
  2  1  1  1
  2  4  1  0
  2  3  1  0
  4  5  1  6
  4  6  1  0
  6  7  2  0
  8  6  1  0
  8 12  1  0
  9  8  1  0
 10  9  1  0
 10 11  1  0
 11 12  1  0
 12 13  1  1
 13 14  2  0
 15 16  1  0
 17 16  1  6
 17 19  1  0
 18 13  1  0
 18 17  1  0
 19 20  2  0
 19 21  1  0
M  END
$$$$
