TPS.pdb
     RDKit          3D

 21 21  0  0  1  0  0  0  0  0999 V2000
    7.0166  -17.7512   17.8345 C   0  0  0  0  0  0  0  0  0  0  0  0
    8.2132  -17.4876   16.9878 C   0  0  1  0  0  0  0  0  0  0  0  0
    7.8501  -17.8363   15.6619 O   0  0  0  0  0  0  0  0  0  0  0  0
    8.6796  -16.0734   16.9226 C   0  0  2  0  0  0  0  0  0  0  0  0
    9.7259  -16.0574   15.8932 N   0  0  0  0  0  0  0  0  0  0  0  0
    9.2144  -15.5329   18.1979 C   0  0  0  0  0  0  0  0  0  0  0  0
   10.3675  -15.9703   18.5870 O   0  0  0  0  0  0  0  0  0  0  0  0
    8.6071  -14.5913   19.0328 N   0  0  0  0  0  0  0  0  0  0  0  0
    7.3527  -13.9200   18.7970 C   0  0  0  0  0  0  0  0  0  0  0  0
    7.5171  -12.5742   19.5092 C   0  0  0  0  0  0  0  0  0  0  0  0
    8.2926  -12.9568   20.7291 C   0  0  0  0  0  0  0  0  0  0  0  0
    9.1495  -14.0988   20.2689 C   0  0  1  0  0  0  0  0  0  0  0  0
    9.0889  -15.1548   21.3432 C   0  0  0  0  0  0  0  0  0  0  0  0
    8.0753  -15.8896   21.3748 O   0  0  0  0  0  0  0  0  0  0  0  0
   12.4124  -16.6088   22.8956 O   0  0  0  0  0  0  0  0  0  0  0  0
   11.2605  -17.3800   23.0488 C   0  0  0  0  0  0  0  0  0  0  0  0
   10.1131  -16.4226   23.2664 C   0  0  2  0  0  0  0  0  0  0  0  0
   10.1043  -15.3508   22.2989 N   0  0  0  0  0  0  0  0  0  0  0  0
   10.2714  -15.8380   24.6144 C   0  0  0  0  0  0  0  0  0  0  0  0
   10.4563  -14.6050   24.7294 O   0  0  0  0  0  0  0  0  0  0  0  0
   10.2253  -16.5941   25.7742 O   0  0  0  0  0  0  0  0  0  0  0  0
  2  1  1  1
  2  4  1  0
  2  3  1  0
  4  5  1  6
  4  6  1  0
  6  7  2  0
  8  6  1  0
  8 12  1  0
  9  8  1  0
 10  9  1  0
 10 11  1  0
 11 12  1  0
 12 13  1  1
 13 14  2  0
 15 16  1  0
 17 16  1  6
 17 19  1  0
 18 13  1  0
 18 17  1  0
 19 20  2  0
 19 21  1  0
M  END
$$$$
