TPS.pdb
     RDKit          3D

 21 21  0  0  1  0  0  0  0  0999 V2000
    7.4316  -17.4573   16.9941 C   0  0  0  0  0  0  0  0  0  0  0  0
    8.5172  -16.7687   16.2421 C   0  0  1  0  0  0  0  0  0  0  0  0
    8.1579  -16.8330   14.8716 O   0  0  0  0  0  0  0  0  0  0  0  0
    8.7160  -15.3223   16.5424 C   0  0  2  0  0  0  0  0  0  0  0  0
    9.6634  -14.8427   15.5289 N   0  0  0  0  0  0  0  0  0  0  0  0
    9.2379  -15.0329   17.9019 C   0  0  0  0  0  0  0  0  0  0  0  0
   10.4801  -15.3112   18.1290 O   0  0  0  0  0  0  0  0  0  0  0  0
    8.5311  -14.4838   18.9750 N   0  0  0  0  0  0  0  0  0  0  0  0
    7.1450  -14.0854   18.9737 C   0  0  0  0  0  0  0  0  0  0  0  0
    7.0895  -12.9469   19.9966 C   0  0  0  0  0  0  0  0  0  0  0  0
    8.0478  -13.4180   21.0434 C   0  0  0  0  0  0  0  0  0  0  0  0
    9.0778  -14.1872   20.2704 C   0  0  1  0  0  0  0  0  0  0  0  0
    9.3526  -15.4527   21.0423 C   0  0  0  0  0  0  0  0  0  0  0  0
    8.5735  -16.4173   20.8672 O   0  0  0  0  0  0  0  0  0  0  0  0
   12.9844  -16.0881   22.6536 O   0  0  0  0  0  0  0  0  0  0  0  0
   12.2145  -17.2198   22.3858 C   0  0  0  0  0  0  0  0  0  0  0  0
   10.7708  -16.8340   22.6030 C   0  0  2  0  0  0  0  0  0  0  0  0
   10.4291  -15.5986   21.9383 N   0  0  0  0  0  0  0  0  0  0  0  0
   10.5719  -16.6565   24.0566 C   0  0  0  0  0  0  0  0  0  0  0  0
   10.1861  -15.5473   24.4910 O   0  0  0  0  0  0  0  0  0  0  0  0
   10.7931  -17.6680   24.9769 O   0  0  0  0  0  0  0  0  0  0  0  0
  2  1  1  1
  2  4  1  0
  2  3  1  0
  4  5  1  6
  4  6  1  0
  6  7  2  0
  8  6  1  0
  8 12  1  0
  9  8  1  0
 10  9  1  0
 10 11  1  0
 11 12  1  0
 12 13  1  1
 13 14  2  0
 15 16  1  0
 17 16  1  1
 17 19  1  0
 18 13  1  0
 18 17  1  0
 19 20  2  0
 19 21  1  0
M  END
$$$$
