TPS.pdb
     RDKit          3D

 21 21  0  0  1  0  0  0  0  0999 V2000
    6.0399  -17.9857   19.0903 C   0  0  0  0  0  0  0  0  0  0  0  0
    7.1536  -18.0163   18.1018 C   0  0  1  0  0  0  0  0  0  0  0  0
    6.5934  -18.4734   16.8817 O   0  0  0  0  0  0  0  0  0  0  0  0
    7.7970  -16.7088   17.7887 C   0  0  2  0  0  0  0  0  0  0  0  0
    8.6881  -16.9772   16.6535 N   0  0  0  0  0  0  0  0  0  0  0  0
    8.5671  -16.1081   18.9071 C   0  0  0  0  0  0  0  0  0  0  0  0
    9.7163  -16.6336   19.1817 O   0  0  0  0  0  0  0  0  0  0  0  0
    8.1875  -15.0242   19.7031 N   0  0  0  0  0  0  0  0  0  0  0  0
    6.9545  -14.2822   19.6085 C   0  0  0  0  0  0  0  0  0  0  0  0
    7.3328  -12.8789   20.0917 C   0  0  0  0  0  0  0  0  0  0  0  0
    8.3002  -13.1758   21.1926 C   0  0  0  0  0  0  0  0  0  0  0  0
    8.9831  -14.4338   20.7438 C   0  0  1  0  0  0  0  0  0  0  0  0
    9.0625  -15.3431   21.9437 C   0  0  0  0  0  0  0  0  0  0  0  0
    7.9887  -15.8130   22.3848 O   0  0  0  0  0  0  0  0  0  0  0  0
   12.2751  -17.4720   22.7087 O   0  0  0  0  0  0  0  0  0  0  0  0
   11.1117  -17.8451   23.3812 C   0  0  0  0  0  0  0  0  0  0  0  0
   10.3669  -16.5745   23.7149 C   0  0  2  0  0  0  0  0  0  0  0  0
   10.2703  -15.6840   22.5824 N   0  0  0  0  0  0  0  0  0  0  0  0
   11.1156  -15.8894   24.7892 C   0  0  0  0  0  0  0  0  0  0  0  0
   11.2427  -16.4509   25.9011 O   0  0  0  0  0  0  0  0  0  0  0  0
   11.6923  -14.6403   24.6278 O   0  0  0  0  0  0  0  0  0  0  0  0
  2  1  1  1
  2  4  1  0
  2  3  1  0
  4  5  1  6
  4  6  1  0
  6  7  2  0
  8  6  1  0
  8 12  1  0
  9  8  1  0
 10  9  1  0
 10 11  1  0
 11 12  1  0
 12 13  1  1
 13 14  2  0
 15 16  1  0
 17 16  1  6
 17 19  1  0
 18 13  1  0
 18 17  1  0
 19 20  2  0
 19 21  1  0
M  END
$$$$
