TPS.pdb
     RDKit          3D

 21 21  0  0  1  0  0  0  0  0999 V2000
    7.4933  -17.0807   14.3279 C   0  0  0  0  0  0  0  0  0  0  0  0
    8.1741  -16.5320   15.5336 C   0  0  1  0  0  0  0  0  0  0  0  0
    9.3417  -17.3141   15.7248 O   0  0  0  0  0  0  0  0  0  0  0  0
    8.6414  -15.1195   15.4447 C   0  0  2  0  0  0  0  0  0  0  0  0
    9.5279  -15.0774   14.2754 N   0  0  0  0  0  0  0  0  0  0  0  0
    9.3610  -14.6231   16.6448 C   0  0  0  0  0  0  0  0  0  0  0  0
   10.6533  -14.6572   16.6144 O   0  0  0  0  0  0  0  0  0  0  0  0
    8.7929  -14.1138   17.8155 N   0  0  0  0  0  0  0  0  0  0  0  0
    7.3873  -13.9138   18.0688 C   0  0  0  0  0  0  0  0  0  0  0  0
    7.3546  -12.7341   19.0449 C   0  0  0  0  0  0  0  0  0  0  0  0
    8.5504  -13.0019   19.9018 C   0  0  0  0  0  0  0  0  0  0  0  0
    9.5211  -13.6653   18.9702 C   0  0  1  0  0  0  0  0  0  0  0  0
   10.1202  -14.8305   19.7160 C   0  0  0  0  0  0  0  0  0  0  0  0
    9.4828  -15.9084   19.7122 O   0  0  0  0  0  0  0  0  0  0  0  0
   13.8199  -14.4549   21.3046 O   0  0  0  0  0  0  0  0  0  0  0  0
   13.5218  -15.7657   20.9330 C   0  0  0  0  0  0  0  0  0  0  0  0
   12.0190  -15.9071   20.9771 C   0  0  2  0  0  0  0  0  0  0  0  0
   11.3455  -14.7643   20.4067 N   0  0  0  0  0  0  0  0  0  0  0  0
   11.6250  -16.0249   22.3965 C   0  0  0  0  0  0  0  0  0  0  0  0
   12.1110  -16.9452   23.0926 O   0  0  0  0  0  0  0  0  0  0  0  0
   10.7330  -15.1577   23.0058 O   0  0  0  0  0  0  0  0  0  0  0  0
  2  1  1  6
  2  4  1  0
  2  3  1  0
  4  5  1  6
  4  6  1  0
  6  7  2  0
  8  6  1  0
  8 12  1  0
  9  8  1  0
 10  9  1  0
 10 11  1  0
 11 12  1  0
 12 13  1  1
 13 14  2  0
 15 16  1  0
 17 16  1  1
 17 19  1  0
 18 13  1  0
 18 17  1  0
 19 20  2  0
 19 21  1  0
M  END
$$$$
