TPS.pdb
     RDKit          3D

 21 21  0  0  1  0  0  0  0  0999 V2000
    7.8065  -16.9576   14.8662 C   0  0  0  0  0  0  0  0  0  0  0  0
    8.1966  -16.4794   16.2217 C   0  0  1  0  0  0  0  0  0  0  0  0
    8.9239  -17.5367   16.8253 O   0  0  0  0  0  0  0  0  0  0  0  0
    9.0930  -15.2896   16.2714 C   0  0  2  0  0  0  0  0  0  0  0  0
   10.2526  -15.6432   15.4437 N   0  0  0  0  0  0  0  0  0  0  0  0
    9.5408  -14.9015   17.6327 C   0  0  0  0  0  0  0  0  0  0  0  0
   10.7242  -15.2769   17.9943 O   0  0  0  0  0  0  0  0  0  0  0  0
    8.8210  -14.1646   18.5769 N   0  0  0  0  0  0  0  0  0  0  0  0
    7.5499  -13.5157   18.3692 C   0  0  0  0  0  0  0  0  0  0  0  0
    7.5838  -12.3255   19.3324 C   0  0  0  0  0  0  0  0  0  0  0  0
    8.2900  -12.9009   20.5183 C   0  0  0  0  0  0  0  0  0  0  0  0
    9.2430  -13.8952   19.9238 C   0  0  1  0  0  0  0  0  0  0  0  0
    9.1665  -15.1392   20.7720 C   0  0  0  0  0  0  0  0  0  0  0  0
    8.1890  -15.9013   20.5933 O   0  0  0  0  0  0  0  0  0  0  0  0
   12.3439  -17.0491   21.9325 O   0  0  0  0  0  0  0  0  0  0  0  0
   11.1172  -17.7072   22.0175 C   0  0  0  0  0  0  0  0  0  0  0  0
   10.1081  -16.6994   22.5138 C   0  0  2  0  0  0  0  0  0  0  0  0
   10.1290  -15.4793   21.7419 N   0  0  0  0  0  0  0  0  0  0  0  0
   10.4542  -16.3761   23.9137 C   0  0  0  0  0  0  0  0  0  0  0  0
   10.7732  -15.2022   24.2103 O   0  0  0  0  0  0  0  0  0  0  0  0
   10.4439  -17.3178   24.9296 O   0  0  0  0  0  0  0  0  0  0  0  0
  2  1  1  6
  2  4  1  0
  2  3  1  0
  4  5  1  6
  4  6  1  0
  6  7  2  0
  8  6  1  0
  8 12  1  0
  9  8  1  0
 10  9  1  0
 10 11  1  0
 11 12  1  0
 12 13  1  1
 13 14  2  0
 15 16  1  0
 17 16  1  6
 17 19  1  0
 18 13  1  0
 18 17  1  0
 19 20  2  0
 19 21  1  0
M  END
$$$$
