TPS.pdb
     RDKit          3D

 21 21  0  0  1  0  0  0  0  0999 V2000
    7.2722  -15.0275   15.8731 C   0  0  0  0  0  0  0  0  0  0  0  0
    7.8714  -15.2535   17.2178 C   0  0  1  0  0  0  0  0  0  0  0  0
    9.0184  -16.0623   17.0143 O   0  0  0  0  0  0  0  0  0  0  0  0
    8.3518  -14.0417   17.9406 C   0  0  2  0  0  0  0  0  0  0  0  0
    9.3154  -13.4061   17.0337 N   0  0  0  0  0  0  0  0  0  0  0  0
    8.9916  -14.3102   19.2532 C   0  0  0  0  0  0  0  0  0  0  0  0
   10.2793  -14.4275   19.2693 O   0  0  0  0  0  0  0  0  0  0  0  0
    8.3523  -14.4482   20.4880 N   0  0  0  0  0  0  0  0  0  0  0  0
    6.9408  -14.2984   20.7434 C   0  0  0  0  0  0  0  0  0  0  0  0
    6.8802  -13.8097   22.1936 C   0  0  0  0  0  0  0  0  0  0  0  0
    7.9886  -14.5837   22.8327 C   0  0  0  0  0  0  0  0  0  0  0  0
    9.0023  -14.7343   21.7372 C   0  0  1  0  0  0  0  0  0  0  0  0
    9.4861  -16.1615   21.7790 C   0  0  0  0  0  0  0  0  0  0  0  0
    8.7619  -17.0332   21.2461 O   0  0  0  0  0  0  0  0  0  0  0  0
   13.1314  -16.9292   21.7963 O   0  0  0  0  0  0  0  0  0  0  0  0
   12.4701  -18.1567   21.8271 C   0  0  0  0  0  0  0  0  0  0  0  0
   11.1378  -17.9245   22.4992 C   0  0  2  0  0  0  0  0  0  0  0  0
   10.6971  -16.5547   22.3806 N   0  0  0  0  0  0  0  0  0  0  0  0
   11.3016  -18.2433   23.9329 C   0  0  0  0  0  0  0  0  0  0  0  0
   11.0616  -17.3606   24.7879 O   0  0  0  0  0  0  0  0  0  0  0  0
   11.7127  -19.4859   24.3867 O   0  0  0  0  0  0  0  0  0  0  0  0
  2  1  1  6
  2  4  1  0
  2  3  1  0
  4  5  1  6
  4  6  1  0
  6  7  2  0
  8  6  1  0
  8 12  1  0
  9  8  1  0
 10  9  1  0
 10 11  1  0
 11 12  1  0
 12 13  1  6
 13 14  2  0
 15 16  1  0
 17 16  1  6
 17 19  1  0
 18 13  1  0
 18 17  1  0
 19 20  2  0
 19 21  1  0
M  END
$$$$
