TPS.pdb
     RDKit          3D

 21 21  0  0  1  0  0  0  0  0999 V2000
    7.7196  -17.0886   14.8394 C   0  0  0  0  0  0  0  0  0  0  0  0
    8.1229  -16.6175   16.1937 C   0  0  1  0  0  0  0  0  0  0  0  0
    8.9180  -17.6486   16.7558 O   0  0  0  0  0  0  0  0  0  0  0  0
    8.9603  -15.3856   16.2439 C   0  0  2  0  0  0  0  0  0  0  0  0
   10.1178  -15.6686   15.3865 N   0  0  0  0  0  0  0  0  0  0  0  0
    9.4179  -14.9965   17.6017 C   0  0  0  0  0  0  0  0  0  0  0  0
   10.5976  -15.3855   17.9611 O   0  0  0  0  0  0  0  0  0  0  0  0
    8.7110  -14.2455   18.5445 N   0  0  0  0  0  0  0  0  0  0  0  0
    7.4192  -13.6324   18.3572 C   0  0  0  0  0  0  0  0  0  0  0  0
    7.4554  -12.4109   19.2803 C   0  0  0  0  0  0  0  0  0  0  0  0
    8.2118  -12.9313   20.4607 C   0  0  0  0  0  0  0  0  0  0  0  0
    9.1687  -13.9229   19.8679 C   0  0  1  0  0  0  0  0  0  0  0  0
    9.1480  -15.1400   20.7573 C   0  0  0  0  0  0  0  0  0  0  0  0
    8.2359  -15.9773   20.5700 O   0  0  0  0  0  0  0  0  0  0  0  0
   12.4513  -16.3561   22.5308 O   0  0  0  0  0  0  0  0  0  0  0  0
   11.4337  -17.3079   22.4710 C   0  0  0  0  0  0  0  0  0  0  0  0
   10.1250  -16.5645   22.5934 C   0  0  2  0  0  0  0  0  0  0  0  0
   10.0929  -15.3758   21.7744 N   0  0  0  0  0  0  0  0  0  0  0  0
    9.9711  -16.1653   24.0080 C   0  0  0  0  0  0  0  0  0  0  0  0
    9.8626  -14.9509   24.2932 O   0  0  0  0  0  0  0  0  0  0  0  0
    9.9401  -17.0778   25.0497 O   0  0  0  0  0  0  0  0  0  0  0  0
  2  1  1  6
  2  4  1  0
  2  3  1  0
  4  5  1  6
  4  6  1  0
  6  7  2  0
  8  6  1  0
  8 12  1  0
  9  8  1  0
 10  9  1  0
 10 11  1  0
 11 12  1  0
 12 13  1  1
 13 14  2  0
 15 16  1  0
 17 16  1  1
 17 19  1  0
 18 13  1  0
 18 17  1  0
 19 20  2  0
 19 21  1  0
M  END
$$$$
