MSF.pdb
     RDKit          3D

 26 26  0  0  1  0  0  0  0  0999 V2000
    9.1829  -13.8545   16.7551 C   0  0  0  0  0  0  0  0  0  0  0  0
    8.7511  -15.5573   16.4929 S   0  0  0  0  0  0  0  0  0  0  0  0
    9.6855  -16.7943   17.3234 C   0  0  0  0  0  0  0  0  0  0  0  0
   10.5496  -16.4324   18.4768 C   0  0  0  0  0  0  0  0  0  0  0  0
   10.0687  -16.9254   19.7760 C   0  0  2  0  0  0  0  0  0  0  0  0
    8.9315  -17.7588   19.6422 N   0  0  0  0  0  0  0  0  0  0  0  0
    9.8171  -15.8180   20.7611 C   0  0  0  0  0  0  0  0  0  0  0  0
   10.7332  -15.0103   21.0158 O   0  0  0  0  0  0  0  0  0  0  0  0
    5.9339  -15.0581   22.2538 O   0  0  0  0  0  0  0  0  0  0  0  0
    6.8389  -14.0232   22.0419 C   0  0  0  0  0  0  0  0  0  0  0  0
    8.2498  -14.5210   22.2488 C   0  0  2  0  0  0  0  0  0  0  0  0
    8.5771  -15.6453   21.4214 N   0  0  0  0  0  0  0  0  0  0  0  0
    8.5350  -14.7485   23.6759 C   0  0  0  0  0  0  0  0  0  0  0  0
    8.4400  -13.7741   24.4912 O   0  0  0  0  0  0  0  0  0  0  0  0
    8.9143  -15.9969   24.2163 N   0  0  0  0  0  0  0  0  0  0  0  0
    9.0436  -16.2064   25.6668 C   0  0  1  0  0  0  0  0  0  0  0  0
    7.7038  -15.8874   26.2710 C   0  0  0  0  0  0  0  0  0  0  0  0
    7.4913  -14.4526   26.5299 C   0  0  0  0  0  0  0  0  0  0  0  0
    8.4823  -13.6130   27.0217 C   0  0  0  0  0  0  0  0  0  0  0  0
    8.2605  -12.2673   27.2536 C   0  0  0  0  0  0  0  0  0  0  0  0
    7.0038  -11.7177   26.9899 C   0  0  0  0  0  0  0  0  0  0  0  0
    6.0164  -12.5436   26.5024 C   0  0  0  0  0  0  0  0  0  0  0  0
    6.2646  -13.8814   26.2803 C   0  0  0  0  0  0  0  0  0  0  0  0
    9.5511  -17.5441   25.9726 C   0  0  0  0  0  0  0  0  0  0  0  0
    9.8078  -18.4851   24.9818 O   0  0  0  0  0  0  0  0  0  0  0  0
    9.7637  -17.8579   27.1683 O   0  0  0  0  0  0  0  0  0  0  0  0
  2  3  1  0
  2  1  1  0
  3  4  1  0
  4  5  1  0
  5  6  1  6
  7  5  1  0
  7 12  1  0
  8  7  2  0
  9 10  1  0
 11 10  1  1
 11 12  1  0
 11 13  1  0
 13 14  2  0
 15 13  1  0
 15 16  1  0
 16 24  1  0
 16 17  1  1
 18 17  1  0
 19 18  2  0
 20 19  1  0
 21 20  2  0
 22 21  1  0
 22 23  2  0
 23 18  1  0
 24 26  2  0
 24 25  1  0
M  END
$$$$
