MSF.pdb
     RDKit          3D

 26 26  0  0  1  0  0  0  0  0999 V2000
    8.7905  -11.3732   21.5120 C   0  0  0  0  0  0  0  0  0  0  0  0
    8.6077  -12.6562   20.2975 S   0  0  0  0  0  0  0  0  0  0  0  0
    7.0866  -13.5369   20.2341 C   0  0  0  0  0  0  0  0  0  0  0  0
    6.9369  -14.7095   19.3337 C   0  0  0  0  0  0  0  0  0  0  0  0
    7.9753  -15.7380   19.4958 C   0  0  2  0  0  0  0  0  0  0  0  0
    7.8792  -16.7522   18.5121 N   0  0  0  0  0  0  0  0  0  0  0  0
    8.0011  -16.3249   20.8797 C   0  0  0  0  0  0  0  0  0  0  0  0
    6.9403  -16.7497   21.3803 O   0  0  0  0  0  0  0  0  0  0  0  0
   11.5890  -17.8287   22.3503 O   0  0  0  0  0  0  0  0  0  0  0  0
   10.3334  -18.3621   22.6225 C   0  0  0  0  0  0  0  0  0  0  0  0
    9.3298  -17.2492   22.8114 C   0  0  2  0  0  0  0  0  0  0  0  0
    9.1841  -16.4198   21.6511 N   0  0  0  0  0  0  0  0  0  0  0  0
    9.6013  -16.4845   24.0407 C   0  0  0  0  0  0  0  0  0  0  0  0
   10.3927  -15.4873   23.9897 O   0  0  0  0  0  0  0  0  0  0  0  0
    9.0344  -16.7843   25.2989 N   0  0  0  0  0  0  0  0  0  0  0  0
    9.4913  -16.1246   26.5319 C   0  0  1  0  0  0  0  0  0  0  0  0
    8.2573  -15.6769   27.2658 C   0  0  0  0  0  0  0  0  0  0  0  0
    7.7017  -14.4022   26.7788 C   0  0  0  0  0  0  0  0  0  0  0  0
    8.3627  -13.1869   26.9031 C   0  0  0  0  0  0  0  0  0  0  0  0
    7.8226  -12.0026   26.4345 C   0  0  0  0  0  0  0  0  0  0  0  0
    6.5718  -12.0106   25.8130 C   0  0  0  0  0  0  0  0  0  0  0  0
    5.9106  -13.2112   25.6862 C   0  0  0  0  0  0  0  0  0  0  0  0
    6.4719  -14.3770   26.1622 C   0  0  0  0  0  0  0  0  0  0  0  0
   10.3839  -16.9892   27.3040 C   0  0  0  0  0  0  0  0  0  0  0  0
   11.1498  -16.5108   28.3611 O   0  0  0  0  0  0  0  0  0  0  0  0
   10.4647  -18.2051   27.0060 O   0  0  0  0  0  0  0  0  0  0  0  0
  2  3  1  0
  2  1  1  0
  3  4  1  0
  4  5  1  0
  5  6  1  6
  7  5  1  0
  7 12  1  0
  8  7  2  0
  9 10  1  0
 11 10  1  6
 11 12  1  0
 11 13  1  0
 13 14  2  0
 15 13  1  0
 15 16  1  0
 16 24  1  0
 16 17  1  1
 18 17  1  0
 19 18  2  0
 20 19  1  0
 21 20  2  0
 22 21  1  0
 22 23  2  0
 23 18  1  0
 24 26  2  0
 24 25  1  0
M  END
$$$$
