MSF.pdb
     RDKit          3D

 26 26  0  0  1  0  0  0  0  0999 V2000
    9.3639  -11.1535   21.3220 C   0  0  0  0  0  0  0  0  0  0  0  0
    8.4121  -12.2297   20.2778 S   0  0  0  0  0  0  0  0  0  0  0  0
    8.6931  -13.9625   20.3854 C   0  0  0  0  0  0  0  0  0  0  0  0
    7.9476  -14.8985   19.5044 C   0  0  0  0  0  0  0  0  0  0  0  0
    8.2980  -16.3151   19.6863 C   0  0  2  0  0  0  0  0  0  0  0  0
    7.6252  -17.1533   18.7642 N   0  0  0  0  0  0  0  0  0  0  0  0
    8.0936  -16.7878   21.0987 C   0  0  0  0  0  0  0  0  0  0  0  0
    7.0117  -17.3256   21.4097 O   0  0  0  0  0  0  0  0  0  0  0  0
   10.8907  -18.7324   23.0927 O   0  0  0  0  0  0  0  0  0  0  0  0
    9.5259  -18.7141   23.3615 C   0  0  0  0  0  0  0  0  0  0  0  0
    9.0240  -17.2897   23.3864 C   0  0  2  0  0  0  0  0  0  0  0  0
    9.0802  -16.6505   22.1043 N   0  0  0  0  0  0  0  0  0  0  0  0
    9.6755  -16.5096   24.4525 C   0  0  0  0  0  0  0  0  0  0  0  0
   10.7763  -15.9178   24.2048 O   0  0  0  0  0  0  0  0  0  0  0  0
    9.1556  -16.3678   25.7578 N   0  0  0  0  0  0  0  0  0  0  0  0
    9.8450  -15.5707   26.7844 C   0  0  1  0  0  0  0  0  0  0  0  0
    8.7756  -14.8981   27.6004 C   0  0  0  0  0  0  0  0  0  0  0  0
    7.9751  -13.9185   26.8452 C   0  0  0  0  0  0  0  0  0  0  0  0
    8.4023  -12.6220   26.5893 C   0  0  0  0  0  0  0  0  0  0  0  0
    7.6344  -11.7203   25.8742 C   0  0  0  0  0  0  0  0  0  0  0  0
    6.3852  -12.1097   25.3857 C   0  0  0  0  0  0  0  0  0  0  0  0
    5.9549  -13.3931   25.6355 C   0  0  0  0  0  0  0  0  0  0  0  0
    6.7404  -14.2717   26.3509 C   0  0  0  0  0  0  0  0  0  0  0  0
   10.7832  -16.3859   27.5562 C   0  0  0  0  0  0  0  0  0  0  0  0
   10.9159  -17.7553   27.3558 O   0  0  0  0  0  0  0  0  0  0  0  0
   11.4949  -15.8352   28.4302 O   0  0  0  0  0  0  0  0  0  0  0  0
  2  3  1  0
  2  1  1  0
  3  4  1  0
  4  5  1  0
  5  6  1  6
  7  5  1  0
  7 12  1  0
  8  7  2  0
  9 10  1  0
 11 10  1  6
 11 12  1  0
 11 13  1  0
 13 14  2  0
 15 13  1  0
 15 16  1  0
 16 24  1  0
 16 17  1  1
 18 17  1  0
 19 18  2  0
 20 19  1  0
 21 20  2  0
 22 21  1  0
 22 23  2  0
 23 18  1  0
 24 26  2  0
 24 25  1  0
M  END
$$$$
