MSF.pdb
     RDKit          3D

 26 26  0  0  1  0  0  0  0  0999 V2000
    7.5518  -12.3970   19.4966 C   0  0  0  0  0  0  0  0  0  0  0  0
    8.4736  -12.9406   18.0791 S   0  0  0  0  0  0  0  0  0  0  0  0
    8.0549  -14.4862   17.3518 C   0  0  0  0  0  0  0  0  0  0  0  0
    8.1031  -15.7321   18.1601 C   0  0  0  0  0  0  0  0  0  0  0  0
    9.3307  -15.8961   18.9529 C   0  0  2  0  0  0  0  0  0  0  0  0
   10.3368  -16.5925   18.2399 N   0  0  0  0  0  0  0  0  0  0  0  0
    9.0773  -16.5301   20.2924 C   0  0  0  0  0  0  0  0  0  0  0  0
    8.1794  -16.0673   21.0245 O   0  0  0  0  0  0  0  0  0  0  0  0
   11.9248  -18.9440   22.2449 O   0  0  0  0  0  0  0  0  0  0  0  0
   10.6030  -19.3703   22.3250 C   0  0  0  0  0  0  0  0  0  0  0  0
    9.6702  -18.2087   22.0762 C   0  0  2  0  0  0  0  0  0  0  0  0
    9.8166  -17.6392   20.7686 N   0  0  0  0  0  0  0  0  0  0  0  0
    9.7554  -17.2109   23.1563 C   0  0  0  0  0  0  0  0  0  0  0  0
   10.6313  -16.2886   23.0821 O   0  0  0  0  0  0  0  0  0  0  0  0
    8.9173  -17.2036   24.2929 N   0  0  0  0  0  0  0  0  0  0  0  0
    8.9493  -16.1063   25.2724 C   0  0  1  0  0  0  0  0  0  0  0  0
    8.0410  -15.0295   24.7456 C   0  0  0  0  0  0  0  0  0  0  0  0
    7.7730  -13.9488   25.7106 C   0  0  0  0  0  0  0  0  0  0  0  0
    6.4980  -13.6256   26.1565 C   0  0  0  0  0  0  0  0  0  0  0  0
    6.2710  -12.6085   27.0664 C   0  0  0  0  0  0  0  0  0  0  0  0
    7.3483  -11.8716   27.5637 C   0  0  0  0  0  0  0  0  0  0  0  0
    8.6150  -12.1861   27.1262 C   0  0  0  0  0  0  0  0  0  0  0  0
    8.8130  -13.2049   26.2188 C   0  0  0  0  0  0  0  0  0  0  0  0
    8.6235  -16.5788   26.6182 C   0  0  0  0  0  0  0  0  0  0  0  0
    7.7234  -17.6142   26.8439 O   0  0  0  0  0  0  0  0  0  0  0  0
    9.1724  -16.0343   27.6061 O   0  0  0  0  0  0  0  0  0  0  0  0
  2  3  1  0
  2  1  1  0
  3  4  1  0
  4  5  1  0
  5  6  1  6
  7  5  1  0
  7 12  1  0
  8  7  2  0
  9 10  1  0
 11 10  1  1
 11 12  1  0
 11 13  1  0
 13 14  2  0
 15 13  1  0
 15 16  1  0
 16 24  1  0
 16 17  1  6
 18 17  1  0
 19 18  2  0
 20 19  1  0
 21 20  2  0
 22 21  1  0
 22 23  2  0
 23 18  1  0
 24 26  2  0
 24 25  1  0
M  END
$$$$
