MSF.pdb
     RDKit          3D

 26 26  0  0  1  0  0  0  0  0999 V2000
    8.0284  -10.9309   19.0557 C   0  0  0  0  0  0  0  0  0  0  0  0
    8.1000  -12.3205   20.1594 S   0  0  0  0  0  0  0  0  0  0  0  0
    6.7729  -13.4745   20.1380 C   0  0  0  0  0  0  0  0  0  0  0  0
    6.7398  -14.5963   21.1119 C   0  0  0  0  0  0  0  0  0  0  0  0
    7.3591  -15.8397   20.6295 C   0  0  2  0  0  0  0  0  0  0  0  0
    6.4983  -16.5657   19.7706 N   0  0  0  0  0  0  0  0  0  0  0  0
    7.8686  -16.7069   21.7468 C   0  0  0  0  0  0  0  0  0  0  0  0
    7.0641  -17.4234   22.3762 O   0  0  0  0  0  0  0  0  0  0  0  0
   12.0002  -16.8525   22.8727 O   0  0  0  0  0  0  0  0  0  0  0  0
   11.1667  -17.9527   23.0458 C   0  0  0  0  0  0  0  0  0  0  0  0
    9.7406  -17.4942   23.2393 C   0  0  2  0  0  0  0  0  0  0  0  0
    9.2322  -16.7505   22.1239 N   0  0  0  0  0  0  0  0  0  0  0  0
    9.5702  -16.7985   24.5264 C   0  0  0  0  0  0  0  0  0  0  0  0
    9.3221  -15.5488   24.5289 O   0  0  0  0  0  0  0  0  0  0  0  0
    9.6644  -17.4319   25.7851 N   0  0  0  0  0  0  0  0  0  0  0  0
    9.5908  -16.6719   27.0426 C   0  0  1  0  0  0  0  0  0  0  0  0
    8.1571  -16.2488   27.2091 C   0  0  0  0  0  0  0  0  0  0  0  0
    7.9097  -14.8338   26.8817 C   0  0  0  0  0  0  0  0  0  0  0  0
    6.8841  -14.4144   26.0443 C   0  0  0  0  0  0  0  0  0  0  0  0
    6.6686  -13.0790   25.7541 C   0  0  0  0  0  0  0  0  0  0  0  0
    7.5007  -12.1063   26.3131 C   0  0  0  0  0  0  0  0  0  0  0  0
    8.5195  -12.5144   27.1440 C   0  0  0  0  0  0  0  0  0  0  0  0
    8.7119  -13.8520   27.4165 C   0  0  0  0  0  0  0  0  0  0  0  0
   10.1387  -17.4353   28.1639 C   0  0  0  0  0  0  0  0  0  0  0  0
   10.5657  -18.7515   28.0277 O   0  0  0  0  0  0  0  0  0  0  0  0
   10.2285  -16.8883   29.2892 O   0  0  0  0  0  0  0  0  0  0  0  0
  2  3  1  0
  2  1  1  0
  3  4  1  0
  4  5  1  0
  5  6  1  1
  7  5  1  0
  7 12  1  0
  8  7  2  0
  9 10  1  0
 11 10  1  6
 11 12  1  0
 11 13  1  0
 13 14  2  0
 15 13  1  0
 15 16  1  0
 16 24  1  0
 16 17  1  1
 18 17  1  0
 19 18  2  0
 20 19  1  0
 21 20  2  0
 22 21  1  0
 22 23  2  0
 23 18  1  0
 24 26  2  0
 24 25  1  0
M  END
$$$$
