MSF.pdb
     RDKit          3D

 26 26  0  0  1  0  0  0  0  0999 V2000
    8.3535  -11.3269   18.3867 C   0  0  0  0  0  0  0  0  0  0  0  0
    7.2527  -12.7111   18.5498 S   0  0  0  0  0  0  0  0  0  0  0  0
    7.7299  -14.0399   19.5985 C   0  0  0  0  0  0  0  0  0  0  0  0
    8.8552  -13.8729   20.5544 C   0  0  0  0  0  0  0  0  0  0  0  0
    9.2248  -15.0976   21.2795 C   0  0  2  0  0  0  0  0  0  0  0  0
    9.4250  -16.1944   20.4061 N   0  0  0  0  0  0  0  0  0  0  0  0
    8.2502  -15.4437   22.3706 C   0  0  0  0  0  0  0  0  0  0  0  0
    7.8342  -14.5404   23.1239 O   0  0  0  0  0  0  0  0  0  0  0  0
    7.1806  -19.4417   23.2771 O   0  0  0  0  0  0  0  0  0  0  0  0
    6.1807  -18.4758   23.3264 C   0  0  0  0  0  0  0  0  0  0  0  0
    6.7896  -17.1144   23.5652 C   0  0  2  0  0  0  0  0  0  0  0  0
    7.7766  -16.7598   22.5875 N   0  0  0  0  0  0  0  0  0  0  0  0
    7.2701  -16.9768   24.9508 C   0  0  0  0  0  0  0  0  0  0  0  0
    6.4650  -17.2008   25.9125 O   0  0  0  0  0  0  0  0  0  0  0  0
    8.5883  -16.6062   25.2965 N   0  0  0  0  0  0  0  0  0  0  0  0
    8.9857  -16.3697   26.6931 C   0  0  1  0  0  0  0  0  0  0  0  0
    7.8212  -15.6970   27.3664 C   0  0  0  0  0  0  0  0  0  0  0  0
    7.5283  -14.3493   26.8481 C   0  0  0  0  0  0  0  0  0  0  0  0
    8.5075  -13.3891   26.6280 C   0  0  0  0  0  0  0  0  0  0  0  0
    8.2089  -12.1307   26.1369 C   0  0  0  0  0  0  0  0  0  0  0  0
    6.8838  -11.7973   25.8473 C   0  0  0  0  0  0  0  0  0  0  0  0
    5.9078  -12.7437   26.0630 C   0  0  0  0  0  0  0  0  0  0  0  0
    6.2331  -13.9905   26.5533 C   0  0  0  0  0  0  0  0  0  0  0  0
    9.4383  -17.6023   27.3383 C   0  0  0  0  0  0  0  0  0  0  0  0
    9.4769  -18.8200   26.6683 O   0  0  0  0  0  0  0  0  0  0  0  0
    9.8052  -17.5648   28.5373 O   0  0  0  0  0  0  0  0  0  0  0  0
  2  3  1  0
  2  1  1  0
  3  4  1  0
  4  5  1  0
  5  6  1  6
  7  5  1  0
  7 12  1  0
  8  7  2  0
  9 10  1  0
 11 10  1  6
 11 12  1  0
 11 13  1  0
 13 14  2  0
 15 13  1  0
 15 16  1  0
 16 24  1  0
 16 17  1  1
 18 17  1  0
 19 18  2  0
 20 19  1  0
 21 20  2  0
 22 21  1  0
 22 23  2  0
 23 18  1  0
 24 26  2  0
 24 25  1  0
M  END
$$$$
