MSF.pdb
     RDKit          3D

 26 26  0  0  1  0  0  0  0  0999 V2000
    8.9435  -11.4057   19.4263 C   0  0  0  0  0  0  0  0  0  0  0  0
    8.2453  -12.5133   18.2263 S   0  0  0  0  0  0  0  0  0  0  0  0
    8.1528  -14.2245   18.6221 C   0  0  0  0  0  0  0  0  0  0  0  0
    9.3241  -14.9207   19.2148 C   0  0  0  0  0  0  0  0  0  0  0  0
    9.1028  -16.3452   19.5050 C   0  0  2  0  0  0  0  0  0  0  0  0
    8.1024  -16.9089   18.6762 N   0  0  0  0  0  0  0  0  0  0  0  0
    8.8137  -16.6044   20.9574 C   0  0  0  0  0  0  0  0  0  0  0  0
    7.9036  -15.9632   21.5206 O   0  0  0  0  0  0  0  0  0  0  0  0
   10.9357  -19.5312   23.2439 O   0  0  0  0  0  0  0  0  0  0  0  0
    9.5961  -19.2539   23.4963 C   0  0  0  0  0  0  0  0  0  0  0  0
    9.2828  -17.8276   23.1104 C   0  0  2  0  0  0  0  0  0  0  0  0
    9.5324  -17.5512   21.7259 N   0  0  0  0  0  0  0  0  0  0  0  0
    9.9350  -16.8698   24.0197 C   0  0  0  0  0  0  0  0  0  0  0  0
   10.9609  -16.2307   23.6168 O   0  0  0  0  0  0  0  0  0  0  0  0
    9.4946  -16.6037   25.3349 N   0  0  0  0  0  0  0  0  0  0  0  0
   10.3225  -15.8545   26.2928 C   0  0  1  0  0  0  0  0  0  0  0  0
   10.0889  -14.3946   26.0173 C   0  0  0  0  0  0  0  0  0  0  0  0
    8.7339  -13.9306   26.3629 C   0  0  0  0  0  0  0  0  0  0  0  0
    7.6047  -14.2619   25.6253 C   0  0  0  0  0  0  0  0  0  0  0  0
    6.3413  -13.8172   25.9715 C   0  0  0  0  0  0  0  0  0  0  0  0
    6.1771  -13.0070   27.0973 C   0  0  0  0  0  0  0  0  0  0  0  0
    7.2917  -12.6743   27.8334 C   0  0  0  0  0  0  0  0  0  0  0  0
    8.5394  -13.1313   27.4660 C   0  0  0  0  0  0  0  0  0  0  0  0
   10.0565  -16.2685   27.6706 C   0  0  0  0  0  0  0  0  0  0  0  0
    9.1421  -17.2685   27.9819 O   0  0  0  0  0  0  0  0  0  0  0  0
   10.6719  -15.7049   28.6072 O   0  0  0  0  0  0  0  0  0  0  0  0
  2  3  1  0
  2  1  1  0
  3  4  1  0
  4  5  1  0
  5  6  1  6
  7  5  1  0
  7 12  1  0
  8  7  2  0
  9 10  1  0
 11 10  1  1
 11 12  1  0
 11 13  1  0
 13 14  2  0
 15 13  1  0
 15 16  1  0
 16 24  1  0
 16 17  1  1
 18 17  1  0
 19 18  2  0
 20 19  1  0
 21 20  2  0
 22 21  1  0
 22 23  2  0
 23 18  1  0
 24 26  2  0
 24 25  1  0
M  END
$$$$
