MSF.pdb
     RDKit          3D

 26 26  0  0  1  0  0  0  0  0999 V2000
    8.1105  -11.6899   18.5449 C   0  0  0  0  0  0  0  0  0  0  0  0
    8.3514  -12.9006   19.8219 S   0  0  0  0  0  0  0  0  0  0  0  0
    6.9853  -13.9039   20.2913 C   0  0  0  0  0  0  0  0  0  0  0  0
    7.1109  -14.8588   21.4228 C   0  0  0  0  0  0  0  0  0  0  0  0
    8.4623  -15.4079   21.6088 C   0  0  2  0  0  0  0  0  0  0  0  0
    8.8689  -16.2063   20.5121 N   0  0  0  0  0  0  0  0  0  0  0  0
    8.6143  -16.1509   22.9069 C   0  0  0  0  0  0  0  0  0  0  0  0
    8.2135  -15.6202   23.9624 O   0  0  0  0  0  0  0  0  0  0  0  0
   11.0066  -19.6289   23.1902 O   0  0  0  0  0  0  0  0  0  0  0  0
    9.8919  -19.5585   24.0194 C   0  0  0  0  0  0  0  0  0  0  0  0
    9.4878  -18.1170   24.2195 C   0  0  2  0  0  0  0  0  0  0  0  0
    9.1971  -17.4381   22.9906 N   0  0  0  0  0  0  0  0  0  0  0  0
   10.4589  -17.3993   25.0629 C   0  0  0  0  0  0  0  0  0  0  0  0
   11.4204  -16.7738   24.5082 O   0  0  0  0  0  0  0  0  0  0  0  0
   10.3988  -17.3541   26.4731 N   0  0  0  0  0  0  0  0  0  0  0  0
   11.3547  -16.5640   27.2647 C   0  0  1  0  0  0  0  0  0  0  0  0
   11.2265  -15.1390   26.8011 C   0  0  0  0  0  0  0  0  0  0  0  0
    9.8982  -14.5491   27.0430 C   0  0  0  0  0  0  0  0  0  0  0  0
    8.8276  -14.7016   26.1715 C   0  0  0  0  0  0  0  0  0  0  0  0
    7.5877  -14.1412   26.4216 C   0  0  0  0  0  0  0  0  0  0  0  0
    7.3880  -13.3938   27.5845 C   0  0  0  0  0  0  0  0  0  0  0  0
    8.4445  -13.2382   28.4531 C   0  0  0  0  0  0  0  0  0  0  0  0
    9.6698  -13.8077   28.1794 C   0  0  0  0  0  0  0  0  0  0  0  0
   11.1550  -16.7618   28.7005 C   0  0  0  0  0  0  0  0  0  0  0  0
   10.1452  -17.5736   29.2047 O   0  0  0  0  0  0  0  0  0  0  0  0
   11.9185  -16.1812   29.5088 O   0  0  0  0  0  0  0  0  0  0  0  0
  2  3  1  0
  2  1  1  0
  3  4  1  0
  4  5  1  0
  5  6  1  6
  7  5  1  0
  7 12  1  0
  8  7  2  0
  9 10  1  0
 11 10  1  6
 11 12  1  0
 11 13  1  0
 13 14  2  0
 15 13  1  0
 15 16  1  0
 16 24  1  0
 16 17  1  1
 18 17  1  0
 19 18  2  0
 20 19  1  0
 21 20  2  0
 22 21  1  0
 22 23  2  0
 23 18  1  0
 24 26  2  0
 24 25  1  0
M  END
$$$$
