MSF.pdb
     RDKit          3D

 26 26  0  0  1  0  0  0  0  0999 V2000
    7.0114  -11.5093   19.4189 C   0  0  0  0  0  0  0  0  0  0  0  0
    7.0783  -13.1639   18.7767 S   0  0  0  0  0  0  0  0  0  0  0  0
    8.3986  -14.2069   19.2890 C   0  0  0  0  0  0  0  0  0  0  0  0
    9.3024  -13.7851   20.3904 C   0  0  0  0  0  0  0  0  0  0  0  0
   10.3427  -14.7661   20.7336 C   0  0  2  0  0  0  0  0  0  0  0  0
   10.6177  -15.6488   19.6608 N   0  0  0  0  0  0  0  0  0  0  0  0
   10.0337  -15.5241   21.9946 C   0  0  0  0  0  0  0  0  0  0  0  0
    9.6191  -14.9012   22.9929 O   0  0  0  0  0  0  0  0  0  0  0  0
   11.5017  -19.3681   22.5398 O   0  0  0  0  0  0  0  0  0  0  0  0
   10.2734  -19.1469   23.1541 C   0  0  0  0  0  0  0  0  0  0  0  0
   10.0416  -17.6642   23.3255 C   0  0  2  0  0  0  0  0  0  0  0  0
   10.1924  -16.9262   22.1055 N   0  0  0  0  0  0  0  0  0  0  0  0
   10.8430  -17.1203   24.4352 C   0  0  0  0  0  0  0  0  0  0  0  0
   11.6257  -16.1397   24.2137 O   0  0  0  0  0  0  0  0  0  0  0  0
   10.8047  -17.6192   25.7558 N   0  0  0  0  0  0  0  0  0  0  0  0
   10.4062  -16.7742   26.8923 C   0  0  1  0  0  0  0  0  0  0  0  0
    8.9888  -16.3424   26.6342 C   0  0  0  0  0  0  0  0  0  0  0  0
    8.7130  -14.9438   27.0065 C   0  0  0  0  0  0  0  0  0  0  0  0
    7.9885  -14.0715   26.2046 C   0  0  0  0  0  0  0  0  0  0  0  0
    7.7388  -12.7627   26.5770 C   0  0  0  0  0  0  0  0  0  0  0  0
    8.2240  -12.2857   27.7968 C   0  0  0  0  0  0  0  0  0  0  0  0
    8.9430  -13.1444   28.5969 C   0  0  0  0  0  0  0  0  0  0  0  0
    9.1774  -14.4441   28.2015 C   0  0  0  0  0  0  0  0  0  0  0  0
   10.6159  -17.4578   28.1687 C   0  0  0  0  0  0  0  0  0  0  0  0
   11.1580  -16.8140   29.2753 O   0  0  0  0  0  0  0  0  0  0  0  0
   10.2974  -18.6665   28.2736 O   0  0  0  0  0  0  0  0  0  0  0  0
  2  3  1  0
  2  1  1  0
  3  4  1  0
  4  5  1  0
  5  6  1  6
  7  5  1  0
  7 12  1  0
  8  7  2  0
  9 10  1  0
 11 10  1  6
 11 12  1  0
 11 13  1  0
 13 14  2  0
 15 13  1  0
 15 16  1  0
 16 24  1  0
 16 17  1  6
 18 17  1  0
 19 18  2  0
 20 19  1  0
 21 20  2  0
 22 21  1  0
 22 23  2  0
 23 18  1  0
 24 26  2  0
 24 25  1  0
M  END
$$$$
