MSF.pdb
     RDKit          3D

 26 26  0  0  1  0  0  0  0  0999 V2000
    8.9779  -11.5808   20.7639 C   0  0  0  0  0  0  0  0  0  0  0  0
    7.4042  -12.3740   20.9847 S   0  0  0  0  0  0  0  0  0  0  0  0
    7.3476  -14.1318   20.9922 C   0  0  0  0  0  0  0  0  0  0  0  0
    8.3325  -14.9165   20.2034 C   0  0  0  0  0  0  0  0  0  0  0  0
    8.1805  -16.3747   20.3174 C   0  0  2  0  0  0  0  0  0  0  0  0
    6.9395  -16.8231   19.8031 N   0  0  0  0  0  0  0  0  0  0  0  0
    8.3998  -16.8742   21.7183 C   0  0  0  0  0  0  0  0  0  0  0  0
    7.4196  -17.0005   22.4797 O   0  0  0  0  0  0  0  0  0  0  0  0
   12.2277  -18.0722   23.0203 O   0  0  0  0  0  0  0  0  0  0  0  0
   11.1094  -18.7420   23.5058 C   0  0  0  0  0  0  0  0  0  0  0  0
    9.9124  -17.8209   23.4980 C   0  0  2  0  0  0  0  0  0  0  0  0
    9.6791  -17.2119   22.2212 N   0  0  0  0  0  0  0  0  0  0  0  0
    9.9768  -16.8476   24.6017 C   0  0  0  0  0  0  0  0  0  0  0  0
   10.5516  -15.7270   24.4088 O   0  0  0  0  0  0  0  0  0  0  0  0
    9.4350  -17.0730   25.8862 N   0  0  0  0  0  0  0  0  0  0  0  0
    9.7300  -16.1819   27.0191 C   0  0  1  0  0  0  0  0  0  0  0  0
    8.4056  -15.7258   27.5669 C   0  0  0  0  0  0  0  0  0  0  0  0
    7.7573  -14.6738   26.7645 C   0  0  0  0  0  0  0  0  0  0  0  0
    6.6452  -14.9032   25.9648 C   0  0  0  0  0  0  0  0  0  0  0  0
    6.0509  -13.8983   25.2226 C   0  0  0  0  0  0  0  0  0  0  0  0
    6.5734  -12.6037   25.2670 C   0  0  0  0  0  0  0  0  0  0  0  0
    7.6756  -12.3687   26.0573 C   0  0  0  0  0  0  0  0  0  0  0  0
    8.2484  -13.3886   26.7870 C   0  0  0  0  0  0  0  0  0  0  0  0
   10.6076  -16.8276   27.9954 C   0  0  0  0  0  0  0  0  0  0  0  0
   11.1795  -16.1313   29.0543 O   0  0  0  0  0  0  0  0  0  0  0  0
   10.8558  -18.0516   27.8778 O   0  0  0  0  0  0  0  0  0  0  0  0
  2  3  1  0
  2  1  1  0
  3  4  1  0
  4  5  1  0
  5  6  1  1
  7  5  1  0
  7 12  1  0
  8  7  2  0
  9 10  1  0
 11 10  1  6
 11 12  1  0
 11 13  1  0
 13 14  2  0
 15 13  1  0
 15 16  1  0
 16 24  1  0
 16 17  1  1
 18 17  1  0
 19 18  2  0
 20 19  1  0
 21 20  2  0
 22 21  1  0
 22 23  2  0
 23 18  1  0
 24 26  2  0
 24 25  1  0
M  END
$$$$
