MSF.pdb
     RDKit          3D

 26 26  0  0  1  0  0  0  0  0999 V2000
    9.0116  -11.6736   20.0901 C   0  0  0  0  0  0  0  0  0  0  0  0
    8.2389  -12.6807   18.8479 S   0  0  0  0  0  0  0  0  0  0  0  0
    7.7984  -14.3316   19.2649 C   0  0  0  0  0  0  0  0  0  0  0  0
    8.1554  -14.8889   20.5953 C   0  0  0  0  0  0  0  0  0  0  0  0
    7.8896  -16.3276   20.7438 C   0  0  2  0  0  0  0  0  0  0  0  0
    6.5592  -16.6629   20.3928 N   0  0  0  0  0  0  0  0  0  0  0  0
    8.2366  -16.8446   22.1121 C   0  0  0  0  0  0  0  0  0  0  0  0
    7.3868  -16.7740   23.0228 O   0  0  0  0  0  0  0  0  0  0  0  0
   11.9876  -18.6868   22.9883 O   0  0  0  0  0  0  0  0  0  0  0  0
   10.8358  -19.0408   23.6834 C   0  0  0  0  0  0  0  0  0  0  0  0
    9.8782  -17.8734   23.7240 C   0  0  2  0  0  0  0  0  0  0  0  0
    9.4951  -17.4140   22.4210 N   0  0  0  0  0  0  0  0  0  0  0  0
   10.3812  -16.7965   24.5940 C   0  0  0  0  0  0  0  0  0  0  0  0
   11.0438  -15.8389   24.0770 O   0  0  0  0  0  0  0  0  0  0  0  0
   10.1769  -16.7490   25.9905 N   0  0  0  0  0  0  0  0  0  0  0  0
   10.8412  -15.7459   26.8372 C   0  0  1  0  0  0  0  0  0  0  0  0
   10.4869  -14.3985   26.2707 C   0  0  0  0  0  0  0  0  0  0  0  0
    9.1241  -13.9493   26.6048 C   0  0  0  0  0  0  0  0  0  0  0  0
    8.0016  -14.3138   25.8726 C   0  0  0  0  0  0  0  0  0  0  0  0
    6.7306  -13.8823   26.2078 C   0  0  0  0  0  0  0  0  0  0  0  0
    6.5517  -13.0519   27.3165 C   0  0  0  0  0  0  0  0  0  0  0  0
    7.6595  -12.6863   28.0471 C   0  0  0  0  0  0  0  0  0  0  0  0
    8.9150  -13.1308   27.6909 C   0  0  0  0  0  0  0  0  0  0  0  0
   10.5017  -15.9257   28.2489 C   0  0  0  0  0  0  0  0  0  0  0  0
    9.6713  -16.9507   28.6880 O   0  0  0  0  0  0  0  0  0  0  0  0
   10.9734  -15.1304   29.0965 O   0  0  0  0  0  0  0  0  0  0  0  0
  2  3  1  0
  2  1  1  0
  3  4  1  0
  4  5  1  0
  5  6  1  1
  7  5  1  0
  7 12  1  0
  8  7  2  0
  9 10  1  0
 11 10  1  6
 11 12  1  0
 11 13  1  0
 13 14  2  0
 15 13  1  0
 15 16  1  0
 16 24  1  0
 16 17  1  6
 18 17  1  0
 19 18  2  0
 20 19  1  0
 21 20  2  0
 22 21  1  0
 22 23  2  0
 23 18  1  0
 24 26  2  0
 24 25  1  0
M  END
$$$$
