MSF.pdb
     RDKit          3D

 26 26  0  0  1  0  0  0  0  0999 V2000
    8.3142  -11.1548   20.9458 C   0  0  0  0  0  0  0  0  0  0  0  0
    7.5705  -12.0103   19.5785 S   0  0  0  0  0  0  0  0  0  0  0  0
    7.5276  -13.7682   19.6157 C   0  0  0  0  0  0  0  0  0  0  0  0
    7.6512  -14.4935   20.9067 C   0  0  0  0  0  0  0  0  0  0  0  0
    7.5212  -15.9542   20.7991 C   0  0  2  0  0  0  0  0  0  0  0  0
    6.2901  -16.3382   20.2139 N   0  0  0  0  0  0  0  0  0  0  0  0
    7.7407  -16.6555   22.1107 C   0  0  0  0  0  0  0  0  0  0  0  0
    6.7652  -16.8634   22.8602 O   0  0  0  0  0  0  0  0  0  0  0  0
   11.4593  -18.4043   23.1595 O   0  0  0  0  0  0  0  0  0  0  0  0
   10.2628  -18.8725   23.6927 C   0  0  0  0  0  0  0  0  0  0  0  0
    9.2668  -17.7417   23.7967 C   0  0  2  0  0  0  0  0  0  0  0  0
    9.0149  -17.0962   22.5415 N   0  0  0  0  0  0  0  0  0  0  0  0
    9.6326  -16.8011   24.8695 C   0  0  0  0  0  0  0  0  0  0  0  0
   10.3189  -15.7670   24.5815 O   0  0  0  0  0  0  0  0  0  0  0  0
    9.2689  -16.9675   26.2239 N   0  0  0  0  0  0  0  0  0  0  0  0
    9.8588  -16.1449   27.2915 C   0  0  1  0  0  0  0  0  0  0  0  0
    8.7230  -15.4109   27.9497 C   0  0  0  0  0  0  0  0  0  0  0  0
    8.1718  -14.3116   27.1382 C   0  0  0  0  0  0  0  0  0  0  0  0
    7.0655  -14.4569   26.3112 C   0  0  0  0  0  0  0  0  0  0  0  0
    6.5632  -13.4087   25.5609 C   0  0  0  0  0  0  0  0  0  0  0  0
    7.1767  -12.1555   25.6249 C   0  0  0  0  0  0  0  0  0  0  0  0
    8.2737  -12.0039   26.4423 C   0  0  0  0  0  0  0  0  0  0  0  0
    8.7537  -13.0654   27.1795 C   0  0  0  0  0  0  0  0  0  0  0  0
   10.6764  -16.9498   28.1993 C   0  0  0  0  0  0  0  0  0  0  0  0
   11.4337  -16.3815   29.2175 O   0  0  0  0  0  0  0  0  0  0  0  0
   10.6985  -18.1961   28.0586 O   0  0  0  0  0  0  0  0  0  0  0  0
  2  3  1  0
  2  1  1  0
  3  4  1  0
  4  5  1  0
  5  6  1  1
  7  5  1  0
  7 12  1  0
  8  7  2  0
  9 10  1  0
 11 10  1  6
 11 12  1  0
 11 13  1  0
 13 14  2  0
 15 13  1  0
 15 16  1  0
 16 24  1  0
 16 17  1  1
 18 17  1  0
 19 18  2  0
 20 19  1  0
 21 20  2  0
 22 21  1  0
 22 23  2  0
 23 18  1  0
 24 26  2  0
 24 25  1  0
M  END
$$$$
