MSF.pdb
     RDKit          3D

 26 26  0  0  1  0  0  0  0  0999 V2000
    9.4169  -11.4368   21.6029 C   0  0  0  0  0  0  0  0  0  0  0  0
    8.9008  -12.8092   20.6007 S   0  0  0  0  0  0  0  0  0  0  0  0
    7.4009  -13.6292   21.0142 C   0  0  0  0  0  0  0  0  0  0  0  0
    6.9132  -14.7620   20.1854 C   0  0  0  0  0  0  0  0  0  0  0  0
    7.7519  -15.9682   20.2490 C   0  0  2  0  0  0  0  0  0  0  0  0
    7.3317  -16.9589   19.3285 N   0  0  0  0  0  0  0  0  0  0  0  0
    7.8582  -16.5296   21.6396 C   0  0  0  0  0  0  0  0  0  0  0  0
    6.8742  -17.1136   22.1368 O   0  0  0  0  0  0  0  0  0  0  0  0
   11.2802  -18.1239   23.0068 O   0  0  0  0  0  0  0  0  0  0  0  0
   10.0172  -18.3881   23.5266 C   0  0  0  0  0  0  0  0  0  0  0  0
    9.2384  -17.1018   23.6691 C   0  0  2  0  0  0  0  0  0  0  0  0
    9.0338  -16.4263   22.4211 N   0  0  0  0  0  0  0  0  0  0  0  0
    9.8189  -16.2353   24.7092 C   0  0  0  0  0  0  0  0  0  0  0  0
   10.7635  -15.4389   24.3981 O   0  0  0  0  0  0  0  0  0  0  0  0
    9.3937  -16.2242   26.0559 N   0  0  0  0  0  0  0  0  0  0  0  0
   10.0348  -15.3656   27.0640 C   0  0  1  0  0  0  0  0  0  0  0  0
    8.9321  -14.8065   27.9203 C   0  0  0  0  0  0  0  0  0  0  0  0
    8.0142  -13.9066   27.2003 C   0  0  0  0  0  0  0  0  0  0  0  0
    8.2860  -12.5632   26.9755 C   0  0  0  0  0  0  0  0  0  0  0  0
    7.4100  -11.7379   26.2931 C   0  0  0  0  0  0  0  0  0  0  0  0
    6.2075  -12.2561   25.8070 C   0  0  0  0  0  0  0  0  0  0  0  0
    5.9312  -13.5867   26.0261 C   0  0  0  0  0  0  0  0  0  0  0  0
    6.8220  -14.3869   26.7093 C   0  0  0  0  0  0  0  0  0  0  0  0
   11.0759  -16.0853   27.7980 C   0  0  0  0  0  0  0  0  0  0  0  0
   11.9977  -15.4335   28.6094 O   0  0  0  0  0  0  0  0  0  0  0  0
   11.1435  -17.3337   27.6951 O   0  0  0  0  0  0  0  0  0  0  0  0
  2  3  1  0
  2  1  1  0
  3  4  1  0
  4  5  1  0
  5  6  1  6
  7  5  1  0
  7 12  1  0
  8  7  2  0
  9 10  1  0
 11 10  1  6
 11 12  1  0
 11 13  1  0
 13 14  2  0
 15 13  1  0
 15 16  1  0
 16 24  1  0
 16 17  1  1
 18 17  1  0
 19 18  2  0
 20 19  1  0
 21 20  2  0
 22 21  1  0
 22 23  2  0
 23 18  1  0
 24 26  2  0
 24 25  1  0
M  END
$$$$
