MSF.pdb
     RDKit          3D

 26 26  0  0  1  0  0  0  0  0999 V2000
   11.7650  -21.8165   18.0501 C   0  0  0  0  0  0  0  0  0  0  0  0
   10.8117  -20.5311   17.2798 S   0  0  0  0  0  0  0  0  0  0  0  0
    9.9566  -19.3918   18.3113 C   0  0  0  0  0  0  0  0  0  0  0  0
   10.6188  -18.8300   19.5171 C   0  0  0  0  0  0  0  0  0  0  0  0
    9.7258  -18.6425   20.6703 C   0  0  2  0  0  0  0  0  0  0  0  0
    8.4025  -19.0645   20.3940 N   0  0  0  0  0  0  0  0  0  0  0  0
    9.7474  -17.2355   21.1995 C   0  0  0  0  0  0  0  0  0  0  0  0
   10.8275  -16.7493   21.5913 O   0  0  0  0  0  0  0  0  0  0  0  0
    6.1860  -15.0477   21.8408 O   0  0  0  0  0  0  0  0  0  0  0  0
    7.3125  -14.3335   21.4461 C   0  0  0  0  0  0  0  0  0  0  0  0
    8.5627  -15.0975   21.8133 C   0  0  2  0  0  0  0  0  0  0  0  0
    8.5885  -16.4265   21.2760 N   0  0  0  0  0  0  0  0  0  0  0  0
    8.8119  -15.0535   23.2643 C   0  0  0  0  0  0  0  0  0  0  0  0
    9.1951  -13.9609   23.7959 O   0  0  0  0  0  0  0  0  0  0  0  0
    8.6529  -16.1603   24.1270 N   0  0  0  0  0  0  0  0  0  0  0  0
    8.8627  -16.0479   25.5788 C   0  0  1  0  0  0  0  0  0  0  0  0
    7.5145  -15.7864   26.1918 C   0  0  0  0  0  0  0  0  0  0  0  0
    7.1818  -14.3565   26.3162 C   0  0  0  0  0  0  0  0  0  0  0  0
    8.0404  -13.4215   26.8799 C   0  0  0  0  0  0  0  0  0  0  0  0
    7.7075  -12.0826   26.9826 C   0  0  0  0  0  0  0  0  0  0  0  0
    6.4709  -11.6386   26.5089 C   0  0  0  0  0  0  0  0  0  0  0  0
    5.6146  -12.5595   25.9490 C   0  0  0  0  0  0  0  0  0  0  0  0
    5.9715  -13.8881   25.8590 C   0  0  0  0  0  0  0  0  0  0  0  0
    9.5622  -17.2171   26.1119 C   0  0  0  0  0  0  0  0  0  0  0  0
    9.8890  -18.3118   25.3196 O   0  0  0  0  0  0  0  0  0  0  0  0
    9.8801  -17.2377   27.3252 O   0  0  0  0  0  0  0  0  0  0  0  0
  2  3  1  0
  2  1  1  0
  3  4  1  0
  4  5  1  0
  5  6  1  6
  7  5  1  0
  7 12  1  0
  8  7  2  0
  9 10  1  0
 11 10  1  1
 11 12  1  0
 11 13  1  0
 13 14  2  0
 15 13  1  0
 15 16  1  0
 16 24  1  0
 16 17  1  1
 18 17  1  0
 19 18  2  0
 20 19  1  0
 21 20  2  0
 22 21  1  0
 22 23  2  0
 23 18  1  0
 24 26  2  0
 24 25  1  0
M  END
$$$$
