CVP.pdb
     RDKit          3D

 21 21  0  0  1  0  0  0  0  0999 V2000
    9.2365  -15.2645   20.4267 N   0  0  0  0  0  0  0  0  0  0  0  0
    8.3008  -15.5493   21.4983 C   0  0  1  0  0  0  0  0  0  0  0  0
    8.2382  -17.0226   21.7140 C   0  0  0  0  0  0  0  0  0  0  0  0
    9.8094  -17.6082   22.4277 S   0  0  0  0  0  0  0  0  0  0  0  0
    8.6274  -14.7507   22.6967 C   0  0  0  0  0  0  0  0  0  0  0  0
    9.8381  -14.5735   22.9813 O   0  0  0  0  0  0  0  0  0  0  0  0
    5.8406  -13.9490   26.2263 C   0  0  0  0  0  0  0  0  0  0  0  0
    6.8821  -13.0816   25.6137 C   0  0  1  0  0  0  0  0  0  0  0  0
    7.5131  -12.2419   26.6983 C   0  0  0  0  0  0  0  0  0  0  0  0
    7.9907  -13.8281   24.8967 C   0  0  2  0  0  0  0  0  0  0  0  0
    7.6819  -14.1601   23.5600 N   0  0  0  0  0  0  0  0  0  0  0  0
    8.5856  -14.8733   25.7445 C   0  0  0  0  0  0  0  0  0  0  0  0
    8.5264  -16.0565   25.2681 O   0  0  0  0  0  0  0  0  0  0  0  0
    9.2073  -14.7471   27.0031 N   0  0  0  0  0  0  0  0  0  0  0  0
    9.0652  -13.8201   28.0818 C   0  0  0  0  0  0  0  0  0  0  0  0
   10.5172  -13.4352   28.3124 C   0  0  0  0  0  0  0  0  0  0  0  0
   11.2584  -14.7336   28.0725 C   0  0  0  0  0  0  0  0  0  0  0  0
   10.2414  -15.6666   27.4716 C   0  0  1  0  0  0  0  0  0  0  0  0
    9.7480  -16.5943   28.5190 C   0  0  0  0  0  0  0  0  0  0  0  0
   10.5825  -17.5622   29.0827 O   0  0  0  0  0  0  0  0  0  0  0  0
    8.5755  -16.5833   28.9688 O   0  0  0  0  0  0  0  0  0  0  0  0
  2  1  1  6
  3  2  1  0
  4  3  1  0
  5 11  1  0
  5  2  1  0
  6  5  2  0
  8  7  1  1
  8 10  1  0
  9  8  1  0
 10 12  1  0
 10 11  1  6
 12 14  1  0
 13 12  2  0
 14 15  1  0
 14 18  1  0
 15 16  1  0
 16 17  1  0
 18 19  1  1
 18 17  1  0
 19 20  1  0
 21 19  2  0
M  END
$$$$
