CVP.pdb
     RDKit          3D

 21 21  0  0  1  0  0  0  0  0999 V2000
   12.9094  -16.8948   21.4698 N   0  0  0  0  0  0  0  0  0  0  0  0
   11.5337  -17.2324   21.7830 C   0  0  1  0  0  0  0  0  0  0  0  0
   11.5133  -18.4414   22.6544 C   0  0  0  0  0  0  0  0  0  0  0  0
   11.9909  -17.9851   24.3527 S   0  0  0  0  0  0  0  0  0  0  0  0
   10.8216  -16.0561   22.3214 C   0  0  0  0  0  0  0  0  0  0  0  0
   11.4768  -15.2200   22.9920 O   0  0  0  0  0  0  0  0  0  0  0  0
    7.8868  -13.6268   20.8254 C   0  0  0  0  0  0  0  0  0  0  0  0
    7.5842  -14.1929   22.1672 C   0  0  1  0  0  0  0  0  0  0  0  0
    6.5395  -15.2721   22.0136 C   0  0  0  0  0  0  0  0  0  0  0  0
    8.7755  -14.7952   22.8870 C   0  0  2  0  0  0  0  0  0  0  0  0
    9.4492  -15.7871   22.1424 N   0  0  0  0  0  0  0  0  0  0  0  0
    8.4761  -15.0808   24.2991 C   0  0  0  0  0  0  0  0  0  0  0  0
    8.9184  -16.1978   24.7317 O   0  0  0  0  0  0  0  0  0  0  0  0
    7.7715  -14.2947   25.2329 N   0  0  0  0  0  0  0  0  0  0  0  0
    7.0242  -13.0805   25.1313 C   0  0  0  0  0  0  0  0  0  0  0  0
    7.6526  -12.2710   26.2537 C   0  0  0  0  0  0  0  0  0  0  0  0
    7.9144  -13.3117   27.3219 C   0  0  0  0  0  0  0  0  0  0  0  0
    7.6814  -14.6383   26.6500 C   0  0  1  0  0  0  0  0  0  0  0  0
    6.3418  -15.1511   27.0287 C   0  0  0  0  0  0  0  0  0  0  0  0
    6.1211  -15.7600   28.2663 O   0  0  0  0  0  0  0  0  0  0  0  0
    5.3297  -15.0806   26.2885 O   0  0  0  0  0  0  0  0  0  0  0  0
  2  1  1  1
  3  2  1  0
  4  3  1  0
  5 11  1  0
  5  2  1  0
  6  5  2  0
  8  7  1  6
  8 10  1  0
  9  8  1  0
 10 12  1  0
 10 11  1  6
 12 14  1  0
 13 12  2  0
 14 15  1  0
 14 18  1  0
 15 16  1  0
 16 17  1  0
 18 19  1  6
 18 17  1  0
 19 20  1  0
 21 19  2  0
M  END
$$$$
