CVP.pdb
     RDKit          3D

 21 21  0  0  1  0  0  0  0  0999 V2000
    9.3039  -15.1953   20.1877 N   0  0  0  0  0  0  0  0  0  0  0  0
    8.8457  -15.9615   21.3313 C   0  0  1  0  0  0  0  0  0  0  0  0
    9.5497  -17.2750   21.3537 C   0  0  0  0  0  0  0  0  0  0  0  0
    9.0388  -18.2230   22.8237 S   0  0  0  0  0  0  0  0  0  0  0  0
    8.9613  -15.1640   22.5687 C   0  0  0  0  0  0  0  0  0  0  0  0
   10.0772  -14.6594   22.8489 O   0  0  0  0  0  0  0  0  0  0  0  0
    6.0493  -14.8317   26.1131 C   0  0  0  0  0  0  0  0  0  0  0  0
    6.8888  -13.8196   25.4179 C   0  0  1  0  0  0  0  0  0  0  0  0
    7.3174  -12.7746   26.4199 C   0  0  0  0  0  0  0  0  0  0  0  0
    8.1369  -14.3732   24.7578 C   0  0  2  0  0  0  0  0  0  0  0  0
    7.9098  -14.9158   23.4746 N   0  0  0  0  0  0  0  0  0  0  0  0
    8.9549  -15.1542   25.6991 C   0  0  0  0  0  0  0  0  0  0  0  0
    9.3617  -16.2812   25.2578 O   0  0  0  0  0  0  0  0  0  0  0  0
    9.3475  -14.8299   27.0133 N   0  0  0  0  0  0  0  0  0  0  0  0
    8.9185  -13.8412   27.9523 C   0  0  0  0  0  0  0  0  0  0  0  0
   10.2543  -13.2339   28.3482 C   0  0  0  0  0  0  0  0  0  0  0  0
   11.1839  -14.4290   28.3616 C   0  0  0  0  0  0  0  0  0  0  0  0
   10.4028  -15.5472   27.7247 C   0  0  1  0  0  0  0  0  0  0  0  0
    9.8720  -16.4398   28.7840 C   0  0  0  0  0  0  0  0  0  0  0  0
   10.7224  -17.2315   29.5594 O   0  0  0  0  0  0  0  0  0  0  0  0
    8.6518  -16.5512   29.0598 O   0  0  0  0  0  0  0  0  0  0  0  0
  2  1  1  6
  3  2  1  0
  4  3  1  0
  5 11  1  0
  5  2  1  0
  6  5  2  0
  8  7  1  1
  8 10  1  0
  9  8  1  0
 10 12  1  0
 10 11  1  6
 12 14  1  0
 13 12  2  0
 14 15  1  0
 14 18  1  0
 15 16  1  0
 16 17  1  0
 18 19  1  1
 18 17  1  0
 19 20  1  0
 21 19  2  0
M  END
$$$$
