CVP.pdb
     RDKit          3D

 21 21  0  0  1  0  0  0  0  0999 V2000
    9.1349  -14.8322   20.3587 N   0  0  0  0  0  0  0  0  0  0  0  0
    8.3563  -15.4697   21.4038 C   0  0  1  0  0  0  0  0  0  0  0  0
    8.6507  -16.9307   21.4107 C   0  0  0  0  0  0  0  0  0  0  0  0
   10.3562  -17.2129   21.9872 S   0  0  0  0  0  0  0  0  0  0  0  0
    8.5590  -14.7804   22.6940 C   0  0  0  0  0  0  0  0  0  0  0  0
    9.6594  -14.2091   22.8965 O   0  0  0  0  0  0  0  0  0  0  0  0
    7.0601  -13.3881   27.2319 C   0  0  0  0  0  0  0  0  0  0  0  0
    6.7792  -13.6794   25.8006 C   0  0  1  0  0  0  0  0  0  0  0  0
    6.3687  -12.3975   25.1166 C   0  0  0  0  0  0  0  0  0  0  0  0
    7.9459  -14.2669   25.0300 C   0  0  2  0  0  0  0  0  0  0  0  0
    7.6077  -14.7066   23.7321 N   0  0  0  0  0  0  0  0  0  0  0  0
    8.7621  -15.1602   25.8673 C   0  0  0  0  0  0  0  0  0  0  0  0
    8.9836  -16.3157   25.3711 O   0  0  0  0  0  0  0  0  0  0  0  0
    9.3284  -14.9159   27.1346 N   0  0  0  0  0  0  0  0  0  0  0  0
    9.0970  -13.9279   28.1413 C   0  0  0  0  0  0  0  0  0  0  0  0
   10.5171  -13.4490   28.3942 C   0  0  0  0  0  0  0  0  0  0  0  0
   11.3341  -14.7177   28.2698 C   0  0  0  0  0  0  0  0  0  0  0  0
   10.3910  -15.7435   27.7004 C   0  0  1  0  0  0  0  0  0  0  0  0
    9.9080  -16.6246   28.7919 C   0  0  0  0  0  0  0  0  0  0  0  0
   10.7629  -17.5282   29.4271 O   0  0  0  0  0  0  0  0  0  0  0  0
    8.7269  -16.6279   29.2188 O   0  0  0  0  0  0  0  0  0  0  0  0
  2  1  1  6
  3  2  1  0
  4  3  1  0
  5 11  1  0
  5  2  1  0
  6  5  2  0
  8  7  1  1
  8 10  1  0
  9  8  1  0
 10 12  1  0
 10 11  1  6
 12 14  1  0
 13 12  2  0
 14 15  1  0
 14 18  1  0
 15 16  1  0
 16 17  1  0
 18 19  1  1
 18 17  1  0
 19 20  1  0
 21 19  2  0
M  END
$$$$
