CVP.pdb
     RDKit          3D

 21 21  0  0  1  0  0  0  0  0999 V2000
   12.4820  -17.1137   20.6437 N   0  0  0  0  0  0  0  0  0  0  0  0
   11.7028  -17.3831   21.8374 C   0  0  1  0  0  0  0  0  0  0  0  0
   12.5938  -17.9622   22.8825 C   0  0  0  0  0  0  0  0  0  0  0  0
   11.6139  -18.3950   24.3567 S   0  0  0  0  0  0  0  0  0  0  0  0
   10.9506  -16.1803   22.2472 C   0  0  0  0  0  0  0  0  0  0  0  0
   11.5978  -15.1878   22.6648 O   0  0  0  0  0  0  0  0  0  0  0  0
    6.4815  -15.4310   22.1175 C   0  0  0  0  0  0  0  0  0  0  0  0
    7.6451  -14.5250   21.9240 C   0  0  1  0  0  0  0  0  0  0  0  0
    7.2459  -13.1285   22.3365 C   0  0  0  0  0  0  0  0  0  0  0  0
    8.8860  -14.9067   22.7080 C   0  0  2  0  0  0  0  0  0  0  0  0
    9.5473  -16.0487   22.2071 N   0  0  0  0  0  0  0  0  0  0  0  0
    8.6649  -14.8223   24.1603 C   0  0  0  0  0  0  0  0  0  0  0  0
    9.2840  -15.6971   24.8545 O   0  0  0  0  0  0  0  0  0  0  0  0
    7.8673  -13.9137   24.8846 N   0  0  0  0  0  0  0  0  0  0  0  0
    7.0207  -12.8270   24.5030 C   0  0  0  0  0  0  0  0  0  0  0  0
    7.5429  -11.7316   25.4180 C   0  0  0  0  0  0  0  0  0  0  0  0
    7.8623  -12.4763   26.6970 C   0  0  0  0  0  0  0  0  0  0  0  0
    7.7654  -13.9359   26.3418 C   0  0  1  0  0  0  0  0  0  0  0  0
    6.4648  -14.4702   26.8148 C   0  0  0  0  0  0  0  0  0  0  0  0
    6.2727  -14.8365   28.1489 O   0  0  0  0  0  0  0  0  0  0  0  0
    5.4627  -14.6310   26.0750 O   0  0  0  0  0  0  0  0  0  0  0  0
  2  1  1  6
  3  2  1  0
  4  3  1  0
  5 11  1  0
  5  2  1  0
  6  5  2  0
  8  7  1  1
  8 10  1  0
  9  8  1  0
 10 12  1  0
 10 11  1  1
 12 14  1  0
 13 12  2  0
 14 15  1  0
 14 18  1  0
 15 16  1  0
 16 17  1  0
 18 19  1  6
 18 17  1  0
 19 20  1  0
 21 19  2  0
M  END
$$$$
