CVP.pdb
     RDKit          3D

 21 21  0  0  1  0  0  0  0  0999 V2000
    5.1830  -12.6573   26.3060 N   0  0  0  0  0  0  0  0  0  0  0  0
    6.5786  -12.6108   25.9123 C   0  0  1  0  0  0  0  0  0  0  0  0
    7.4330  -12.6750   27.1318 C   0  0  0  0  0  0  0  0  0  0  0  0
    9.1897  -12.5644   26.6598 S   0  0  0  0  0  0  0  0  0  0  0  0
    6.8625  -13.6375   24.8897 C   0  0  0  0  0  0  0  0  0  0  0  0
    6.4903  -14.8167   25.1116 O   0  0  0  0  0  0  0  0  0  0  0  0
    6.4926  -13.1842   20.9176 C   0  0  0  0  0  0  0  0  0  0  0  0
    7.7063  -13.9617   21.2846 C   0  0  1  0  0  0  0  0  0  0  0  0
    8.9243  -13.1042   21.0380 C   0  0  0  0  0  0  0  0  0  0  0  0
    7.7496  -14.4308   22.7262 C   0  0  2  0  0  0  0  0  0  0  0  0
    7.5240  -13.4028   23.6668 N   0  0  0  0  0  0  0  0  0  0  0  0
    8.8714  -15.3513   22.9701 C   0  0  0  0  0  0  0  0  0  0  0  0
    9.7503  -14.9283   23.7941 O   0  0  0  0  0  0  0  0  0  0  0  0
    9.1066  -16.6279   22.4210 N   0  0  0  0  0  0  0  0  0  0  0  0
    8.4324  -17.4143   21.4361 C   0  0  0  0  0  0  0  0  0  0  0  0
    8.2921  -18.7325   22.1794 C   0  0  0  0  0  0  0  0  0  0  0  0
    9.5865  -18.8257   22.9595 C   0  0  0  0  0  0  0  0  0  0  0  0
   10.2285  -17.4706   22.8274 C   0  0  1  0  0  0  0  0  0  0  0  0
   11.2971  -17.5325   21.8002 C   0  0  0  0  0  0  0  0  0  0  0  0
   11.1266  -16.9550   20.5399 O   0  0  0  0  0  0  0  0  0  0  0  0
   12.4073  -18.0926   21.9770 O   0  0  0  0  0  0  0  0  0  0  0  0
  2  1  1  1
  3  2  1  0
  4  3  1  0
  5 11  1  0
  5  2  1  0
  6  5  2  0
  8  7  1  1
  8 10  1  0
  9  8  1  0
 10 12  1  0
 10 11  1  1
 12 14  1  0
 13 12  2  0
 14 15  1  0
 14 18  1  0
 15 16  1  0
 16 17  1  0
 18 19  1  6
 18 17  1  0
 19 20  1  0
 21 19  2  0
M  END
$$$$
