CVP.pdb
     RDKit          3D

 21 21  0  0  1  0  0  0  0  0999 V2000
    9.2330  -15.3197   20.4688 N   0  0  0  0  0  0  0  0  0  0  0  0
    8.4054  -15.8106   21.5546 C   0  0  1  0  0  0  0  0  0  0  0  0
    8.5341  -17.2933   21.6355 C   0  0  0  0  0  0  0  0  0  0  0  0
    7.3685  -17.9462   22.8749 S   0  0  0  0  0  0  0  0  0  0  0  0
    8.7057  -15.0834   22.8042 C   0  0  0  0  0  0  0  0  0  0  0  0
    9.9085  -14.8513   23.0827 O   0  0  0  0  0  0  0  0  0  0  0  0
    5.8994  -14.2506   26.2741 C   0  0  0  0  0  0  0  0  0  0  0  0
    6.9889  -13.4046   25.7178 C   0  0  1  0  0  0  0  0  0  0  0  0
    7.6136  -12.6164   26.8440 C   0  0  0  0  0  0  0  0  0  0  0  0
    8.0934  -14.1704   25.0151 C   0  0  2  0  0  0  0  0  0  0  0  0
    7.7428  -14.6191   23.7236 N   0  0  0  0  0  0  0  0  0  0  0  0
    8.7589  -15.1241   25.9167 C   0  0  0  0  0  0  0  0  0  0  0  0
    8.7855  -16.3321   25.5039 O   0  0  0  0  0  0  0  0  0  0  0  0
    9.3665  -14.8872   27.1662 N   0  0  0  0  0  0  0  0  0  0  0  0
    9.2013  -13.8778   28.1646 C   0  0  0  0  0  0  0  0  0  0  0  0
   10.6457  -13.4548   28.3758 C   0  0  0  0  0  0  0  0  0  0  0  0
   11.4066  -14.7577   28.2487 C   0  0  0  0  0  0  0  0  0  0  0  0
   10.4082  -15.7508   27.7170 C   0  0  1  0  0  0  0  0  0  0  0  0
    9.9171  -16.5973   28.8320 C   0  0  0  0  0  0  0  0  0  0  0  0
   10.7560  -17.5122   29.4724 O   0  0  0  0  0  0  0  0  0  0  0  0
    8.7428  -16.5594   29.2757 O   0  0  0  0  0  0  0  0  0  0  0  0
  2  1  1  6
  3  2  1  0
  4  3  1  0
  5 11  1  0
  5  2  1  0
  6  5  2  0
  8  7  1  1
  8 10  1  0
  9  8  1  0
 10 12  1  0
 10 11  1  6
 12 14  1  0
 13 12  2  0
 14 15  1  0
 14 18  1  0
 15 16  1  0
 16 17  1  0
 18 19  1  1
 18 17  1  0
 19 20  1  0
 21 19  2  0
M  END
$$$$
