CVP.pdb
     RDKit          3D

 21 21  0  0  1  0  0  0  0  0999 V2000
    9.4422  -15.2490   20.0772 N   0  0  0  0  0  0  0  0  0  0  0  0
    8.9186  -15.9712   21.2212 C   0  0  1  0  0  0  0  0  0  0  0  0
    9.5572  -17.3164   21.2844 C   0  0  0  0  0  0  0  0  0  0  0  0
    8.9354  -18.2262   22.7357 S   0  0  0  0  0  0  0  0  0  0  0  0
    9.0413  -15.1577   22.4475 C   0  0  0  0  0  0  0  0  0  0  0  0
   10.1329  -14.5767   22.6689 O   0  0  0  0  0  0  0  0  0  0  0  0
    6.1401  -14.8070   25.9619 C   0  0  0  0  0  0  0  0  0  0  0  0
    7.0347  -13.8053   25.3226 C   0  0  1  0  0  0  0  0  0  0  0  0
    7.4877  -12.8197   26.3728 C   0  0  0  0  0  0  0  0  0  0  0  0
    8.2708  -14.3857   24.6627 C   0  0  2  0  0  0  0  0  0  0  0  0
    8.0217  -14.9737   23.4039 N   0  0  0  0  0  0  0  0  0  0  0  0
    9.1024  -15.1343   25.6184 C   0  0  0  0  0  0  0  0  0  0  0  0
    9.5682  -16.2400   25.1814 O   0  0  0  0  0  0  0  0  0  0  0  0
    9.4520  -14.7995   26.9420 N   0  0  0  0  0  0  0  0  0  0  0  0
    8.9874  -13.8084   27.8613 C   0  0  0  0  0  0  0  0  0  0  0  0
   10.3059  -13.1891   28.2944 C   0  0  0  0  0  0  0  0  0  0  0  0
   11.2431  -14.3773   28.3437 C   0  0  0  0  0  0  0  0  0  0  0  0
   10.4900  -15.5048   27.6898 C   0  0  1  0  0  0  0  0  0  0  0  0
    9.9331  -16.3951   28.7378 C   0  0  0  0  0  0  0  0  0  0  0  0
   10.7645  -17.1803   29.5399 O   0  0  0  0  0  0  0  0  0  0  0  0
    8.7062  -16.5099   28.9800 O   0  0  0  0  0  0  0  0  0  0  0  0
  2  1  1  6
  3  2  1  0
  4  3  1  0
  5 11  1  0
  5  2  1  0
  6  5  2  0
  8  7  1  1
  8 10  1  0
  9  8  1  0
 10 12  1  0
 10 11  1  6
 12 14  1  0
 13 12  2  0
 14 15  1  0
 14 18  1  0
 15 16  1  0
 16 17  1  0
 18 19  1  1
 18 17  1  0
 19 20  1  0
 21 19  2  0
M  END
$$$$
