CVP.pdb
     RDKit          3D

 21 21  0  0  1  0  0  0  0  0999 V2000
    5.8960  -17.2798   25.7746 N   0  0  0  0  0  0  0  0  0  0  0  0
    7.0298  -16.4762   25.3582 C   0  0  1  0  0  0  0  0  0  0  0  0
    8.2754  -17.0469   25.9448 C   0  0  0  0  0  0  0  0  0  0  0  0
    9.6573  -15.8826   25.7088 S   0  0  0  0  0  0  0  0  0  0  0  0
    7.0406  -16.3174   23.8901 C   0  0  0  0  0  0  0  0  0  0  0  0
    6.8258  -17.3317   23.1807 O   0  0  0  0  0  0  0  0  0  0  0  0
    8.5973  -12.8075   21.7011 C   0  0  0  0  0  0  0  0  0  0  0  0
    7.4557  -13.6446   21.2447 C   0  0  1  0  0  0  0  0  0  0  0  0
    7.4997  -13.7448   19.7388 C   0  0  0  0  0  0  0  0  0  0  0  0
    7.4352  -15.0533   21.8060 C   0  0  2  0  0  0  0  0  0  0  0  0
    7.2731  -15.1059   23.2072 N   0  0  0  0  0  0  0  0  0  0  0  0
    8.4769  -15.8994   21.2026 C   0  0  0  0  0  0  0  0  0  0  0  0
    9.4774  -16.1477   21.9561 O   0  0  0  0  0  0  0  0  0  0  0  0
    8.5206  -16.4690   19.9141 N   0  0  0  0  0  0  0  0  0  0  0  0
    7.7168  -16.3138   18.7424 C   0  0  0  0  0  0  0  0  0  0  0  0
    7.4222  -17.7676   18.4113 C   0  0  0  0  0  0  0  0  0  0  0  0
    8.7151  -18.4696   18.7694 C   0  0  0  0  0  0  0  0  0  0  0  0
    9.5301  -17.4461   19.5137 C   0  0  1  0  0  0  0  0  0  0  0  0
   10.5490  -16.8724   18.6006 C   0  0  0  0  0  0  0  0  0  0  0  0
   11.6501  -17.6215   18.1795 O   0  0  0  0  0  0  0  0  0  0  0  0
   10.5036  -15.7022   18.1470 O   0  0  0  0  0  0  0  0  0  0  0  0
  2  1  1  6
  3  2  1  0
  4  3  1  0
  5 11  1  0
  5  2  1  0
  6  5  2  0
  8  7  1  1
  8 10  1  0
  9  8  1  0
 10 12  1  0
 10 11  1  1
 12 14  1  0
 13 12  2  0
 14 15  1  0
 14 18  1  0
 15 16  1  0
 16 17  1  0
 18 19  1  6
 18 17  1  0
 19 20  1  0
 21 19  2  0
M  END
$$$$
