CVP.pdb
     RDKit          3D

 21 21  0  0  1  0  0  0  0  0999 V2000
    4.7032  -19.7297   24.9368 N   0  0  0  0  0  0  0  0  0  0  0  0
    5.9024  -19.0790   25.4300 C   0  0  1  0  0  0  0  0  0  0  0  0
    7.0815  -19.9441   25.1424 C   0  0  0  0  0  0  0  0  0  0  0  0
    8.5600  -19.2625   25.9611 S   0  0  0  0  0  0  0  0  0  0  0  0
    5.9927  -17.6989   24.9125 C   0  0  0  0  0  0  0  0  0  0  0  0
    5.7284  -17.4998   23.7007 O   0  0  0  0  0  0  0  0  0  0  0  0
    8.2843  -14.2794   26.7877 C   0  0  0  0  0  0  0  0  0  0  0  0
    6.9861  -14.2303   26.0632 C   0  0  1  0  0  0  0  0  0  0  0  0
    6.9028  -12.9269   25.3058 C   0  0  0  0  0  0  0  0  0  0  0  0
    6.7659  -15.3596   25.0751 C   0  0  2  0  0  0  0  0  0  0  0  0
    6.3541  -16.5691   25.6748 N   0  0  0  0  0  0  0  0  0  0  0  0
    7.8353  -15.4220   24.0663 C   0  0  0  0  0  0  0  0  0  0  0  0
    8.5980  -16.4429   24.1474 O   0  0  0  0  0  0  0  0  0  0  0  0
    8.1308  -14.5139   23.0297 N   0  0  0  0  0  0  0  0  0  0  0  0
    7.8190  -13.1362   22.8105 C   0  0  0  0  0  0  0  0  0  0  0  0
    7.2590  -13.1978   21.3989 C   0  0  0  0  0  0  0  0  0  0  0  0
    8.1245  -14.2461   20.7321 C   0  0  0  0  0  0  0  0  0  0  0  0
    8.9064  -14.8848   21.8486 C   0  0  1  0  0  0  0  0  0  0  0  0
   10.2798  -14.3241   21.8686 C   0  0  0  0  0  0  0  0  0  0  0  0
   11.2155  -14.6610   20.8878 O   0  0  0  0  0  0  0  0  0  0  0  0
   10.6978  -13.5255   22.7431 O   0  0  0  0  0  0  0  0  0  0  0  0
  2  1  1  6
  3  2  1  0
  4  3  1  0
  5 11  1  0
  5  2  1  0
  6  5  2  0
  8  7  1  6
  8 10  1  0
  9  8  1  0
 10 12  1  0
 10 11  1  1
 12 14  1  0
 13 12  2  0
 14 15  1  0
 14 18  1  0
 15 16  1  0
 16 17  1  0
 18 19  1  1
 18 17  1  0
 19 20  1  0
 21 19  2  0
M  END
$$$$
