CVP.pdb
     RDKit          3D

 21 21  0  0  1  0  0  0  0  0999 V2000
    8.4348  -14.7340   20.4003 N   0  0  0  0  0  0  0  0  0  0  0  0
    7.7576  -15.2325   21.5825 C   0  0  1  0  0  0  0  0  0  0  0  0
    7.8617  -16.7189   21.6153 C   0  0  0  0  0  0  0  0  0  0  0  0
    9.5643  -17.2081   22.0427 S   0  0  0  0  0  0  0  0  0  0  0  0
    8.2483  -14.5401   22.7910 C   0  0  0  0  0  0  0  0  0  0  0  0
    9.4419  -14.1487   22.8086 O   0  0  0  0  0  0  0  0  0  0  0  0
    6.5739  -11.8805   25.4942 C   0  0  0  0  0  0  0  0  0  0  0  0
    7.1364  -13.1253   26.0827 C   0  0  1  0  0  0  0  0  0  0  0  0
    5.9967  -14.0395   26.4635 C   0  0  0  0  0  0  0  0  0  0  0  0
    8.0683  -13.8968   25.1681 C   0  0  2  0  0  0  0  0  0  0  0  0
    7.4791  -14.2757   23.9427 N   0  0  0  0  0  0  0  0  0  0  0  0
    8.8410  -14.9116   25.9018 C   0  0  0  0  0  0  0  0  0  0  0  0
    9.0153  -16.0137   25.2809 O   0  0  0  0  0  0  0  0  0  0  0  0
    9.4107  -14.8335   27.1886 N   0  0  0  0  0  0  0  0  0  0  0  0
    9.1868  -13.9800   28.3131 C   0  0  0  0  0  0  0  0  0  0  0  0
   10.6101  -13.5453   28.6215 C   0  0  0  0  0  0  0  0  0  0  0  0
   11.4193  -14.7927   28.3352 C   0  0  0  0  0  0  0  0  0  0  0  0
   10.4691  -15.7324   27.6423 C   0  0  1  0  0  0  0  0  0  0  0  0
    9.9825  -16.7422   28.6141 C   0  0  0  0  0  0  0  0  0  0  0  0
    8.6322  -16.8227   28.9622 O   0  0  0  0  0  0  0  0  0  0  0  0
   10.7242  -17.5802   29.1842 O   0  0  0  0  0  0  0  0  0  0  0  0
  2  1  1  6
  3  2  1  0
  4  3  1  0
  5 11  1  0
  5  2  1  0
  6  5  2  0
  8  7  1  6
  8 10  1  0
  9  8  1  0
 10 12  1  0
 10 11  1  6
 12 14  1  0
 13 12  2  0
 14 15  1  0
 14 18  1  0
 15 16  1  0
 16 17  1  0
 18 19  1  1
 18 17  1  0
 19 20  1  0
 21 19  2  0
M  END
$$$$
