CVP.pdb
     RDKit          3D

 21 21  0  0  1  0  0  0  0  0999 V2000
    8.7770  -14.8195   20.4224 N   0  0  0  0  0  0  0  0  0  0  0  0
    8.0351  -15.4115   21.5196 C   0  0  1  0  0  0  0  0  0  0  0  0
    8.3029  -16.8772   21.5564 C   0  0  0  0  0  0  0  0  0  0  0  0
   10.0740  -17.1876   21.2603 S   0  0  0  0  0  0  0  0  0  0  0  0
    8.3085  -14.6896   22.7785 C   0  0  0  0  0  0  0  0  0  0  0  0
    9.4230  -14.1251   22.9102 O   0  0  0  0  0  0  0  0  0  0  0  0
    7.1413  -13.2145   27.3806 C   0  0  0  0  0  0  0  0  0  0  0  0
    6.7176  -13.6456   26.0215 C   0  0  1  0  0  0  0  0  0  0  0  0
    6.1003  -12.4661   25.3093 C   0  0  0  0  0  0  0  0  0  0  0  0
    7.8339  -14.1863   25.1487 C   0  0  2  0  0  0  0  0  0  0  0  0
    7.4109  -14.5771   23.8600 N   0  0  0  0  0  0  0  0  0  0  0  0
    8.7150  -15.1024   25.8901 C   0  0  0  0  0  0  0  0  0  0  0  0
    8.9018  -16.2391   25.3391 O   0  0  0  0  0  0  0  0  0  0  0  0
    9.3761  -14.8975   27.1178 N   0  0  0  0  0  0  0  0  0  0  0  0
    9.2852  -13.8901   28.1277 C   0  0  0  0  0  0  0  0  0  0  0  0
   10.7511  -13.5226   28.2884 C   0  0  0  0  0  0  0  0  0  0  0  0
   11.4577  -14.8518   28.1256 C   0  0  0  0  0  0  0  0  0  0  0  0
   10.4042  -15.8032   27.6248 C   0  0  1  0  0  0  0  0  0  0  0  0
    9.9228  -16.6391   28.7519 C   0  0  0  0  0  0  0  0  0  0  0  0
   10.7486  -17.5918   29.3532 O   0  0  0  0  0  0  0  0  0  0  0  0
    8.7687  -16.5589   29.2406 O   0  0  0  0  0  0  0  0  0  0  0  0
  2  1  1  6
  3  2  1  0
  4  3  1  0
  5 11  1  0
  5  2  1  0
  6  5  2  0
  8  7  1  1
  8 10  1  0
  9  8  1  0
 10 12  1  0
 10 11  1  6
 12 14  1  0
 13 12  2  0
 14 15  1  0
 14 18  1  0
 15 16  1  0
 16 17  1  0
 18 19  1  1
 18 17  1  0
 19 20  1  0
 21 19  2  0
M  END
$$$$
