CVP.pdb
     RDKit          3D

 21 21  0  0  1  0  0  0  0  0999 V2000
    8.5239  -14.9361   20.4742 N   0  0  0  0  0  0  0  0  0  0  0  0
    8.0094  -15.6106   21.6511 C   0  0  1  0  0  0  0  0  0  0  0  0
    8.3403  -17.0614   21.5670 C   0  0  0  0  0  0  0  0  0  0  0  0
    7.6916  -17.9273   23.0333 S   0  0  0  0  0  0  0  0  0  0  0  0
    8.4673  -14.9305   22.8793 C   0  0  0  0  0  0  0  0  0  0  0  0
    9.6812  -14.6199   22.9697 O   0  0  0  0  0  0  0  0  0  0  0  0
    6.6185  -12.1721   25.3254 C   0  0  0  0  0  0  0  0  0  0  0  0
    7.2126  -13.3359   26.0360 C   0  0  1  0  0  0  0  0  0  0  0  0
    6.0975  -14.2449   26.4941 C   0  0  0  0  0  0  0  0  0  0  0  0
    8.1780  -14.1618   25.2078 C   0  0  2  0  0  0  0  0  0  0  0  0
    7.6452  -14.5937   23.9742 N   0  0  0  0  0  0  0  0  0  0  0  0
    8.8993  -15.1480   26.0278 C   0  0  0  0  0  0  0  0  0  0  0  0
    9.0614  -16.2913   25.4828 O   0  0  0  0  0  0  0  0  0  0  0  0
    9.4317  -15.0036   27.3248 N   0  0  0  0  0  0  0  0  0  0  0  0
    9.1841  -14.0868   28.3931 C   0  0  0  0  0  0  0  0  0  0  0  0
   10.6023  -13.6488   28.7195 C   0  0  0  0  0  0  0  0  0  0  0  0
   11.4060  -14.9176   28.5271 C   0  0  0  0  0  0  0  0  0  0  0  0
   10.4665  -15.8856   27.8591 C   0  0  1  0  0  0  0  0  0  0  0  0
    9.9405  -16.8352   28.8704 C   0  0  0  0  0  0  0  0  0  0  0  0
   10.7748  -17.7637   29.4971 O   0  0  0  0  0  0  0  0  0  0  0  0
    8.7387  -16.8783   29.2326 O   0  0  0  0  0  0  0  0  0  0  0  0
  2  1  1  6
  3  2  1  0
  4  3  1  0
  5 11  1  0
  5  2  1  0
  6  5  2  0
  8  7  1  6
  8 10  1  0
  9  8  1  0
 10 12  1  0
 10 11  1  6
 12 14  1  0
 13 12  2  0
 14 15  1  0
 14 18  1  0
 15 16  1  0
 16 17  1  0
 18 19  1  1
 18 17  1  0
 19 20  1  0
 21 19  2  0
M  END
$$$$
