WFR.pdb
     RDKit          3D

 37 39  0  0  1  0  0  0  0  0999 V2000
    6.0392  -19.7222   21.9063 N   0  0  0  0  0  0  0  0  0  0  0  0
    6.4864  -19.4876   23.2986 C   0  0  1  0  0  0  0  0  0  0  0  0
    7.3921  -20.6035   23.6428 C   0  0  0  0  0  0  0  0  0  0  0  0
    6.7905  -21.9027   23.9232 C   0  0  0  0  0  0  0  0  0  0  0  0
    6.7590  -22.9785   23.0413 C   0  0  0  0  0  0  0  0  0  0  0  0
    6.1689  -24.0132   23.6179 N   0  0  0  0  0  0  0  0  0  0  0  0
    5.8038  -23.6404   24.8789 C   0  0  0  0  0  0  0  0  0  0  0  0
    5.1619  -24.3007   25.8956 C   0  0  0  0  0  0  0  0  0  0  0  0
    4.8984  -23.6715   27.0986 C   0  0  0  0  0  0  0  0  0  0  0  0
    5.2604  -22.3719   27.3333 C   0  0  0  0  0  0  0  0  0  0  0  0
    5.9115  -21.7055   26.3000 C   0  0  0  0  0  0  0  0  0  0  0  0
    6.1873  -22.3132   25.0883 C   0  0  0  0  0  0  0  0  0  0  0  0
    6.9954  -18.1253   23.3757 C   0  0  0  0  0  0  0  0  0  0  0  0
    7.8157  -17.6280   22.5379 O   0  0  0  0  0  0  0  0  0  0  0  0
    6.6012  -17.2365   24.4198 N   0  0  0  0  0  0  0  0  0  0  0  0
    7.3198  -15.9522   24.6524 C   0  0  1  0  0  0  0  0  0  0  0  0
    6.4123  -15.1608   25.5067 C   0  0  0  0  0  0  0  0  0  0  0  0
    6.8807  -13.8932   26.0465 C   0  0  0  0  0  0  0  0  0  0  0  0
    6.8869  -12.7391   25.2934 C   0  0  0  0  0  0  0  0  0  0  0  0
    7.3030  -11.5198   25.8126 C   0  0  0  0  0  0  0  0  0  0  0  0
    7.7210  -11.4510   27.1083 C   0  0  0  0  0  0  0  0  0  0  0  0
    7.7270  -12.5809   27.8842 C   0  0  0  0  0  0  0  0  0  0  0  0
    7.3059  -13.7947   27.3458 C   0  0  0  0  0  0  0  0  0  0  0  0
    8.5762  -16.2949   25.3383 C   0  0  0  0  0  0  0  0  0  0  0  0
    8.5708  -17.3710   26.0409 O   0  0  0  0  0  0  0  0  0  0  0  0
   13.1610  -15.1341   20.3554 N   0  0  0  0  0  0  0  0  0  0  0  0
   14.1730  -14.5949   21.2195 C   0  0  0  0  0  0  0  0  0  0  0  0
   14.9532  -13.6707   20.7726 N   0  0  0  0  0  0  0  0  0  0  0  0
   14.3339  -15.0511   22.5445 N   0  0  0  0  0  0  0  0  0  0  0  0
   13.5602  -16.1753   23.0458 C   0  0  0  0  0  0  0  0  0  0  0  0
   12.8024  -15.6832   24.2349 C   0  0  0  0  0  0  0  0  0  0  0  0
   11.9015  -16.6835   24.8250 C   0  0  0  0  0  0  0  0  0  0  0  0
   10.9865  -16.1550   25.8932 C   0  0  2  0  0  0  0  0  0  0  0  0
    9.7874  -15.5945   25.3149 N   0  0  0  0  0  0  0  0  0  0  0  0
   11.6060  -15.2990   26.9013 C   0  0  0  0  0  0  0  0  0  0  0  0
   12.6086  -15.7327   27.5615 O   0  0  0  0  0  0  0  0  0  0  0  0
   11.1909  -14.0283   27.2146 O   0  0  0  0  0  0  0  0  0  0  0  0
  2  1  1  6
  2  3  1  0
  3  4  1  0
  4 12  1  0
  4  5  2  0
  5  6  1  0
  7  6  1  0
  7  8  2  0
  9  8  1  0
 10  9  2  0
 11 10  1  0
 11 12  2  0
 12  7  1  0
 13  2  1  0
 14 13  2  0
 15 13  1  0
 16 17  1  1
 16 15  1  0
 17 18  1  0
 18 19  2  0
 19 20  1  0
 21 20  2  0
 22 21  1  0
 23 22  2  0
 23 18  1  0
 24 34  1  0
 24 16  1  0
 25 24  2  0
 27 28  2  0
 27 26  1  0
 29 27  1  0
 30 29  1  0
 31 30  1  0
 33 32  1  6
 32 31  1  0
 33 34  1  0
 35 33  1  0
 35 37  1  0
 36 35  2  0
M  END
$$$$
