WFR.pdb
     RDKit          3D

 37 39  0  0  1  0  0  0  0  0999 V2000
    9.2803  -17.5917   21.8927 N   0  0  0  0  0  0  0  0  0  0  0  0
    8.7686  -16.4306   22.6565 C   0  0  1  0  0  0  0  0  0  0  0  0
    7.3954  -16.1802   22.1709 C   0  0  0  0  0  0  0  0  0  0  0  0
    7.2382  -15.3510   20.9810 C   0  0  0  0  0  0  0  0  0  0  0  0
    6.7005  -15.7791   19.7710 C   0  0  0  0  0  0  0  0  0  0  0  0
    6.6728  -14.7727   18.9122 N   0  0  0  0  0  0  0  0  0  0  0  0
    7.1877  -13.6733   19.5355 C   0  0  0  0  0  0  0  0  0  0  0  0
    7.4018  -12.3832   19.1212 C   0  0  0  0  0  0  0  0  0  0  0  0
    7.9624  -11.4464   19.9701 C   0  0  0  0  0  0  0  0  0  0  0  0
    8.3286  -11.7556   21.2528 C   0  0  0  0  0  0  0  0  0  0  0  0
    8.1098  -13.0648   21.6697 C   0  0  0  0  0  0  0  0  0  0  0  0
    7.5497  -14.0195   20.8399 C   0  0  0  0  0  0  0  0  0  0  0  0
    8.9693  -16.7094   24.0718 C   0  0  0  0  0  0  0  0  0  0  0  0
    8.2928  -17.5669   24.7268 O   0  0  0  0  0  0  0  0  0  0  0  0
    9.9590  -16.0238   24.8372 N   0  0  0  0  0  0  0  0  0  0  0  0
    9.8197  -15.8629   26.3118 C   0  0  1  0  0  0  0  0  0  0  0  0
    8.3894  -15.5657   26.5260 C   0  0  0  0  0  0  0  0  0  0  0  0
    7.9141  -14.2063   26.3177 C   0  0  0  0  0  0  0  0  0  0  0  0
    8.6022  -13.1130   26.7979 C   0  0  0  0  0  0  0  0  0  0  0  0
    8.1704  -11.8117   26.5751 C   0  0  0  0  0  0  0  0  0  0  0  0
    7.0302  -11.5973   25.8596 C   0  0  0  0  0  0  0  0  0  0  0  0
    6.3225  -12.6634   25.3680 C   0  0  0  0  0  0  0  0  0  0  0  0
    6.7714  -13.9612   25.6016 C   0  0  0  0  0  0  0  0  0  0  0  0
   10.2201  -17.1460   26.9116 C   0  0  0  0  0  0  0  0  0  0  0  0
   10.1106  -17.2409   28.1886 O   0  0  0  0  0  0  0  0  0  0  0  0
   14.1069  -18.9502   21.4827 N   0  0  0  0  0  0  0  0  0  0  0  0
   12.6829  -18.7923   21.5755 C   0  0  0  0  0  0  0  0  0  0  0  0
   12.0852  -17.9925   20.7595 N   0  0  0  0  0  0  0  0  0  0  0  0
   11.9223  -19.4905   22.5365 N   0  0  0  0  0  0  0  0  0  0  0  0
   12.3437  -19.5431   23.9270 C   0  0  0  0  0  0  0  0  0  0  0  0
   11.3174  -20.3425   24.6604 C   0  0  0  0  0  0  0  0  0  0  0  0
   11.6143  -20.5302   26.0876 C   0  0  0  0  0  0  0  0  0  0  0  0
   11.0285  -19.4861   26.9957 C   0  0  2  0  0  0  0  0  0  0  0  0
   10.7016  -18.2868   26.2600 N   0  0  0  0  0  0  0  0  0  0  0  0
   11.7584  -19.2325   28.2348 C   0  0  0  0  0  0  0  0  0  0  0  0
   11.9777  -18.0287   28.5980 O   0  0  0  0  0  0  0  0  0  0  0  0
   12.2483  -20.2055   29.0705 O   0  0  0  0  0  0  0  0  0  0  0  0
  2  1  1  6
  2  3  1  0
  3  4  1  0
  4 12  1  0
  4  5  2  0
  5  6  1  0
  7  6  1  0
  7  8  2  0
  9  8  1  0
 10  9  2  0
 11 10  1  0
 11 12  2  0
 12  7  1  0
 13  2  1  0
 14 13  2  0
 15 13  1  0
 16 17  1  6
 16 15  1  0
 17 18  1  0
 18 19  2  0
 19 20  1  0
 21 20  2  0
 22 21  1  0
 23 22  2  0
 23 18  1  0
 24 34  1  0
 24 16  1  0
 25 24  2  0
 27 28  2  0
 27 26  1  0
 29 27  1  0
 30 29  1  0
 31 30  1  0
 33 32  1  6
 32 31  1  0
 33 34  1  0
 35 33  1  0
 35 37  1  0
 36 35  2  0
M  END
$$$$
