WFR.pdb
     RDKit          3D

 37 39  0  0  1  0  0  0  0  0999 V2000
    6.0445  -18.7263   23.5073 N   0  0  0  0  0  0  0  0  0  0  0  0
    6.6061  -17.3811   23.7692 C   0  0  1  0  0  0  0  0  0  0  0  0
    6.4950  -17.1555   25.2255 C   0  0  0  0  0  0  0  0  0  0  0  0
    6.4420  -15.7754   25.6954 C   0  0  0  0  0  0  0  0  0  0  0  0
    5.2940  -14.9908   25.7498 C   0  0  0  0  0  0  0  0  0  0  0  0
    5.5871  -13.8027   26.2535 N   0  0  0  0  0  0  0  0  0  0  0  0
    6.9219  -13.7835   26.5370 C   0  0  0  0  0  0  0  0  0  0  0  0
    7.7491  -12.8208   27.0574 C   0  0  0  0  0  0  0  0  0  0  0  0
    9.0990  -13.0627   27.2359 C   0  0  0  0  0  0  0  0  0  0  0  0
    9.6721  -14.2616   26.9055 C   0  0  0  0  0  0  0  0  0  0  0  0
    8.8300  -15.2356   26.3782 C   0  0  0  0  0  0  0  0  0  0  0  0
    7.4767  -15.0184   26.1912 C   0  0  0  0  0  0  0  0  0  0  0  0
    7.9238  -17.3243   23.1518 C   0  0  0  0  0  0  0  0  0  0  0  0
    8.5712  -18.3526   22.7702 O   0  0  0  0  0  0  0  0  0  0  0  0
    8.5938  -16.0845   22.9291 N   0  0  0  0  0  0  0  0  0  0  0  0
    9.9805  -16.0434   22.3858 C   0  0  1  0  0  0  0  0  0  0  0  0
   10.2555  -14.6105   22.1599 C   0  0  0  0  0  0  0  0  0  0  0  0
    9.3552  -13.8466   21.3094 C   0  0  0  0  0  0  0  0  0  0  0  0
    9.6594  -13.5650   19.9950 C   0  0  0  0  0  0  0  0  0  0  0  0
    8.7904  -12.8636   19.1691 C   0  0  0  0  0  0  0  0  0  0  0  0
    7.5948  -12.4349   19.6642 C   0  0  0  0  0  0  0  0  0  0  0  0
    7.2621  -12.6987   20.9676 C   0  0  0  0  0  0  0  0  0  0  0  0
    8.1467  -13.4037   21.7805 C   0  0  0  0  0  0  0  0  0  0  0  0
   10.8519  -16.6236   23.4205 C   0  0  0  0  0  0  0  0  0  0  0  0
   12.1164  -16.5811   23.1949 O   0  0  0  0  0  0  0  0  0  0  0  0
   13.4601  -17.3298   30.6297 N   0  0  0  0  0  0  0  0  0  0  0  0
   13.3937  -18.7443   30.3929 C   0  0  0  0  0  0  0  0  0  0  0  0
   14.4722  -19.4463   30.4763 N   0  0  0  0  0  0  0  0  0  0  0  0
   12.1784  -19.3843   30.0719 N   0  0  0  0  0  0  0  0  0  0  0  0
   11.1774  -18.7181   29.2546 C   0  0  0  0  0  0  0  0  0  0  0  0
   11.7913  -18.5001   27.9107 C   0  0  0  0  0  0  0  0  0  0  0  0
   10.8615  -17.9570   26.9103 C   0  0  0  0  0  0  0  0  0  0  0  0
   11.4596  -17.7337   25.5501 C   0  0  2  0  0  0  0  0  0  0  0  0
   10.4736  -17.2134   24.6317 N   0  0  0  0  0  0  0  0  0  0  0  0
   12.2419  -18.8398   25.0049 C   0  0  0  0  0  0  0  0  0  0  0  0
   13.4248  -19.0445   25.4385 O   0  0  0  0  0  0  0  0  0  0  0  0
   11.8051  -19.7063   24.0336 O   0  0  0  0  0  0  0  0  0  0  0  0
  2  1  1  1
  2  3  1  0
  3  4  1  0
  4 12  1  0
  4  5  2  0
  5  6  1  0
  7  6  1  0
  7  8  2  0
  9  8  1  0
 10  9  2  0
 11 10  1  0
 11 12  2  0
 12  7  1  0
 13  2  1  0
 14 13  2  0
 15 13  1  0
 16 17  1  1
 16 15  1  0
 17 18  1  0
 18 19  2  0
 19 20  1  0
 21 20  2  0
 22 21  1  0
 23 22  2  0
 23 18  1  0
 24 34  1  0
 24 16  1  0
 25 24  2  0
 27 28  2  0
 27 26  1  0
 29 27  1  0
 30 29  1  0
 31 30  1  0
 33 32  1  1
 32 31  1  0
 33 34  1  0
 35 33  1  0
 35 37  1  0
 36 35  2  0
M  END
$$$$
