WFR.pdb
     RDKit          3D

 37 39  0  0  1  0  0  0  0  0999 V2000
    9.5747  -16.5961   13.7900 N   0  0  0  0  0  0  0  0  0  0  0  0
    8.8861  -17.0313   15.0269 C   0  0  1  0  0  0  0  0  0  0  0  0
    9.1077  -18.4879   15.1410 C   0  0  0  0  0  0  0  0  0  0  0  0
    8.4477  -19.3520   14.1683 C   0  0  0  0  0  0  0  0  0  0  0  0
    9.0483  -19.8839   13.0313 C   0  0  0  0  0  0  0  0  0  0  0  0
    8.1832  -20.6477   12.3836 N   0  0  0  0  0  0  0  0  0  0  0  0
    7.0073  -20.6323   13.0761 C   0  0  0  0  0  0  0  0  0  0  0  0
    5.7916  -21.2296   12.8595 C   0  0  0  0  0  0  0  0  0  0  0  0
    4.7368  -21.0347   13.7325 C   0  0  0  0  0  0  0  0  0  0  0  0
    4.8509  -20.2439   14.8446 C   0  0  0  0  0  0  0  0  0  0  0  0
    6.0854  -19.6399   15.0612 C   0  0  0  0  0  0  0  0  0  0  0  0
    7.1558  -19.8203   14.2036 C   0  0  0  0  0  0  0  0  0  0  0  0
    9.3368  -16.1689   16.1105 C   0  0  0  0  0  0  0  0  0  0  0  0
   10.5403  -15.7754   16.2476 O   0  0  0  0  0  0  0  0  0  0  0  0
    8.4400  -15.6974   17.1150 N   0  0  0  0  0  0  0  0  0  0  0  0
    8.9203  -14.8501   18.2423 C   0  0  1  0  0  0  0  0  0  0  0  0
    7.7015  -14.2198   18.7873 C   0  0  0  0  0  0  0  0  0  0  0  0
    7.7575  -13.6002   20.1028 C   0  0  0  0  0  0  0  0  0  0  0  0
    8.1660  -12.2955   20.2760 C   0  0  0  0  0  0  0  0  0  0  0  0
    8.1914  -11.6885   21.5252 C   0  0  0  0  0  0  0  0  0  0  0  0
    7.8018  -12.3972   22.6225 C   0  0  0  0  0  0  0  0  0  0  0  0
    7.3900  -13.6974   22.4842 C   0  0  0  0  0  0  0  0  0  0  0  0
    7.3712  -14.2888   21.2232 C   0  0  0  0  0  0  0  0  0  0  0  0
    9.5582  -15.7606   19.2069 C   0  0  0  0  0  0  0  0  0  0  0  0
    8.9797  -16.8926   19.3958 O   0  0  0  0  0  0  0  0  0  0  0  0
   14.8821  -13.8075   19.5150 N   0  0  0  0  0  0  0  0  0  0  0  0
   15.3959  -14.5843   18.4224 C   0  0  0  0  0  0  0  0  0  0  0  0
   15.9913  -13.9829   17.4495 N   0  0  0  0  0  0  0  0  0  0  0  0
   15.2656  -15.9884   18.3875 N   0  0  0  0  0  0  0  0  0  0  0  0
   14.6453  -16.7078   19.4883 C   0  0  0  0  0  0  0  0  0  0  0  0
   13.1686  -16.5498   19.3310 C   0  0  0  0  0  0  0  0  0  0  0  0
   12.3795  -17.2886   20.3269 C   0  0  0  0  0  0  0  0  0  0  0  0
   11.2065  -16.5345   20.8865 C   0  0  2  0  0  0  0  0  0  0  0  0
   10.7287  -15.5496   19.9441 N   0  0  0  0  0  0  0  0  0  0  0  0
   11.3652  -16.0183   22.2433 C   0  0  0  0  0  0  0  0  0  0  0  0
   11.7544  -16.8035   23.1713 O   0  0  0  0  0  0  0  0  0  0  0  0
   11.1225  -14.7213   22.6231 O   0  0  0  0  0  0  0  0  0  0  0  0
  2  1  1  6
  2  3  1  0
  3  4  1  0
  4 12  1  0
  4  5  2  0
  5  6  1  0
  7  6  1  0
  7  8  2  0
  9  8  1  0
 10  9  2  0
 11 10  1  0
 11 12  2  0
 12  7  1  0
 13  2  1  0
 14 13  2  0
 15 13  1  0
 16 17  1  1
 16 15  1  0
 17 18  1  0
 18 19  2  0
 19 20  1  0
 21 20  2  0
 22 21  1  0
 23 22  2  0
 23 18  1  0
 24 34  1  0
 24 16  1  0
 25 24  2  0
 27 28  2  0
 27 26  1  0
 29 27  1  0
 30 29  1  0
 31 30  1  0
 33 32  1  6
 32 31  1  0
 33 34  1  0
 35 33  1  0
 35 37  1  0
 36 35  2  0
M  END
$$$$
