WFR.pdb
     RDKit          3D

 37 39  0  0  1  0  0  0  0  0999 V2000
    7.6166  -17.0210   22.3343 N   0  0  0  0  0  0  0  0  0  0  0  0
    8.3587  -15.7451   22.4570 C   0  0  1  0  0  0  0  0  0  0  0  0
    7.4523  -14.6835   21.9719 C   0  0  0  0  0  0  0  0  0  0  0  0
    7.2083  -14.6048   20.5357 C   0  0  0  0  0  0  0  0  0  0  0  0
    6.4451  -15.5076   19.8017 C   0  0  0  0  0  0  0  0  0  0  0  0
    6.3995  -15.1291   18.5345 N   0  0  0  0  0  0  0  0  0  0  0  0
    7.1260  -13.9803   18.4120 C   0  0  0  0  0  0  0  0  0  0  0  0
    7.4186  -13.1737   17.3418 C   0  0  0  0  0  0  0  0  0  0  0  0
    8.2063  -12.0471   17.4936 C   0  0  0  0  0  0  0  0  0  0  0  0
    8.7287  -11.6840   18.7061 C   0  0  0  0  0  0  0  0  0  0  0  0
    8.4297  -12.5044   19.7893 C   0  0  0  0  0  0  0  0  0  0  0  0
    7.6434  -13.6355   19.6634 C   0  0  0  0  0  0  0  0  0  0  0  0
    8.8693  -15.6599   23.8182 C   0  0  0  0  0  0  0  0  0  0  0  0
    9.7528  -14.8219   24.1913 O   0  0  0  0  0  0  0  0  0  0  0  0
    8.4042  -16.5305   24.8484 N   0  0  0  0  0  0  0  0  0  0  0  0
    8.9228  -16.4243   26.2411 C   0  0  1  0  0  0  0  0  0  0  0  0
    7.8204  -15.8121   27.0091 C   0  0  0  0  0  0  0  0  0  0  0  0
    7.5140  -14.4049   26.8008 C   0  0  0  0  0  0  0  0  0  0  0  0
    6.3722  -13.9979   26.1452 C   0  0  0  0  0  0  0  0  0  0  0  0
    6.0583  -12.6560   25.9710 C   0  0  0  0  0  0  0  0  0  0  0  0
    6.9001  -11.7021   26.4605 C   0  0  0  0  0  0  0  0  0  0  0  0
    8.0442  -12.0738   27.1177 C   0  0  0  0  0  0  0  0  0  0  0  0
    8.3419  -13.4245   27.2826 C   0  0  0  0  0  0  0  0  0  0  0  0
    9.2172  -17.7970   26.6830 C   0  0  0  0  0  0  0  0  0  0  0  0
    8.3039  -18.6760   26.4709 O   0  0  0  0  0  0  0  0  0  0  0  0
   12.2773  -22.7549   22.2138 N   0  0  0  0  0  0  0  0  0  0  0  0
   13.5445  -22.1182   22.4377 C   0  0  0  0  0  0  0  0  0  0  0  0
   14.6281  -22.7843   22.2259 N   0  0  0  0  0  0  0  0  0  0  0  0
   13.6329  -20.7827   22.8830 N   0  0  0  0  0  0  0  0  0  0  0  0
   12.4357  -20.0214   23.2009 C   0  0  0  0  0  0  0  0  0  0  0  0
   12.1387  -20.2648   24.6442 C   0  0  0  0  0  0  0  0  0  0  0  0
   11.3710  -19.1880   25.2857 C   0  0  0  0  0  0  0  0  0  0  0  0
   11.1192  -19.3826   26.7543 C   0  0  2  0  0  0  0  0  0  0  0  0
   10.3790  -18.2702   27.3030 N   0  0  0  0  0  0  0  0  0  0  0  0
   12.2765  -19.7690   27.5568 C   0  0  0  0  0  0  0  0  0  0  0  0
   12.5139  -21.0067   27.7592 O   0  0  0  0  0  0  0  0  0  0  0  0
   13.1598  -18.8907   28.1343 O   0  0  0  0  0  0  0  0  0  0  0  0
  2  1  1  1
  2  3  1  0
  3  4  1  0
  4 12  1  0
  4  5  2  0
  5  6  1  0
  7  6  1  0
  7  8  2  0
  9  8  1  0
 10  9  2  0
 11 10  1  0
 11 12  2  0
 12  7  1  0
 13  2  1  0
 14 13  2  0
 15 13  1  0
 16 17  1  1
 16 15  1  0
 17 18  1  0
 18 19  2  0
 19 20  1  0
 21 20  2  0
 22 21  1  0
 23 22  2  0
 23 18  1  0
 24 34  1  0
 24 16  1  0
 25 24  2  0
 27 28  2  0
 27 26  1  0
 29 27  1  0
 30 29  1  0
 31 30  1  0
 33 32  1  6
 32 31  1  0
 33 34  1  0
 35 33  1  0
 35 37  1  0
 36 35  2  0
M  END
$$$$
