WFR.pdb
     RDKit          3D

 37 39  0  0  1  0  0  0  0  0999 V2000
    7.9921  -18.1931   22.7280 N   0  0  0  0  0  0  0  0  0  0  0  0
    8.5287  -16.8532   22.3961 C   0  0  1  0  0  0  0  0  0  0  0  0
    7.4042  -16.0782   21.8315 C   0  0  0  0  0  0  0  0  0  0  0  0
    7.6235  -15.3918   20.5630 C   0  0  0  0  0  0  0  0  0  0  0  0
    7.8062  -16.0181   19.3340 C   0  0  0  0  0  0  0  0  0  0  0  0
    7.9470  -15.1077   18.3839 N   0  0  0  0  0  0  0  0  0  0  0  0
    7.8607  -13.8760   18.9653 C   0  0  0  0  0  0  0  0  0  0  0  0
    7.9441  -12.6020   18.4636 C   0  0  0  0  0  0  0  0  0  0  0  0
    7.8310  -11.5012   19.2932 C   0  0  0  0  0  0  0  0  0  0  0  0
    7.6329  -11.6257   20.6424 C   0  0  0  0  0  0  0  0  0  0  0  0
    7.5486  -12.9193   21.1476 C   0  0  0  0  0  0  0  0  0  0  0  0
    7.6573  -14.0360   20.3384 C   0  0  0  0  0  0  0  0  0  0  0  0
    9.2047  -16.3420   23.5805 C   0  0  0  0  0  0  0  0  0  0  0  0
   10.2579  -15.6269   23.5407 O   0  0  0  0  0  0  0  0  0  0  0  0
    8.7222  -16.6156   24.8949 N   0  0  0  0  0  0  0  0  0  0  0  0
    9.4509  -16.1316   26.1008 C   0  0  1  0  0  0  0  0  0  0  0  0
    8.3992  -15.5986   26.9894 C   0  0  0  0  0  0  0  0  0  0  0  0
    7.8735  -14.2653   26.7370 C   0  0  0  0  0  0  0  0  0  0  0  0
    8.6929  -13.1587   26.6799 C   0  0  0  0  0  0  0  0  0  0  0  0
    8.2014  -11.8883   26.4081 C   0  0  0  0  0  0  0  0  0  0  0  0
    6.8666  -11.7190   26.1891 C   0  0  0  0  0  0  0  0  0  0  0  0
    6.0245  -12.7995   26.2389 C   0  0  0  0  0  0  0  0  0  0  0  0
    6.5361  -14.0658   26.5128 C   0  0  0  0  0  0  0  0  0  0  0  0
   10.1291  -17.3037   26.6776 C   0  0  0  0  0  0  0  0  0  0  0  0
   10.6524  -17.1483   27.8412 O   0  0  0  0  0  0  0  0  0  0  0  0
   10.4163  -21.3085   21.8005 N   0  0  0  0  0  0  0  0  0  0  0  0
    9.0796  -20.9046   22.1342 C   0  0  0  0  0  0  0  0  0  0  0  0
    8.3743  -20.2795   21.2541 N   0  0  0  0  0  0  0  0  0  0  0  0
    8.5195  -21.1750   23.4002 N   0  0  0  0  0  0  0  0  0  0  0  0
    9.2789  -21.8867   24.4155 C   0  0  0  0  0  0  0  0  0  0  0  0
    9.2993  -21.0171   25.6295 C   0  0  0  0  0  0  0  0  0  0  0  0
   10.6001  -20.9755   26.3125 C   0  0  0  0  0  0  0  0  0  0  0  0
   11.0162  -19.6138   26.7925 C   0  0  2  0  0  0  0  0  0  0  0  0
   10.2699  -18.5780   26.1169 N   0  0  0  0  0  0  0  0  0  0  0  0
   12.4542  -19.3634   26.8405 C   0  0  0  0  0  0  0  0  0  0  0  0
   13.2099  -20.1698   27.4790 O   0  0  0  0  0  0  0  0  0  0  0  0
   13.0864  -18.3014   26.2424 O   0  0  0  0  0  0  0  0  0  0  0  0
  2  1  1  1
  2  3  1  0
  3  4  1  0
  4 12  1  0
  4  5  2  0
  5  6  1  0
  7  6  1  0
  7  8  2  0
  9  8  1  0
 10  9  2  0
 11 10  1  0
 11 12  2  0
 12  7  1  0
 13  2  1  0
 14 13  2  0
 15 13  1  0
 16 17  1  1
 16 15  1  0
 17 18  1  0
 18 19  2  0
 19 20  1  0
 21 20  2  0
 22 21  1  0
 23 22  2  0
 23 18  1  0
 24 34  1  0
 24 16  1  0
 25 24  2  0
 27 28  2  0
 27 26  1  0
 29 27  1  0
 30 29  1  0
 31 30  1  0
 33 32  1  6
 32 31  1  0
 33 34  1  0
 35 33  1  0
 35 37  1  0
 36 35  2  0
M  END
$$$$
