WFR.pdb
     RDKit          3D

 37 39  0  0  1  0  0  0  0  0999 V2000
   10.8015  -17.3907   21.2409 N   0  0  0  0  0  0  0  0  0  0  0  0
    9.5541  -16.6189   21.4453 C   0  0  1  0  0  0  0  0  0  0  0  0
    8.5230  -17.2546   20.5986 C   0  0  0  0  0  0  0  0  0  0  0  0
    7.8455  -16.4188   19.6133 C   0  0  0  0  0  0  0  0  0  0  0  0
    6.8424  -16.8500   18.7507 C   0  0  0  0  0  0  0  0  0  0  0  0
    6.4223  -15.8367   18.0104 N   0  0  0  0  0  0  0  0  0  0  0  0
    7.1354  -14.7296   18.3687 C   0  0  0  0  0  0  0  0  0  0  0  0
    7.1211  -13.4305   17.9286 C   0  0  0  0  0  0  0  0  0  0  0  0
    7.9770  -12.4869   18.4668 C   0  0  0  0  0  0  0  0  0  0  0  0
    8.8725  -12.7981   19.4548 C   0  0  0  0  0  0  0  0  0  0  0  0
    8.8840  -14.1165   19.8989 C   0  0  0  0  0  0  0  0  0  0  0  0
    8.0373  -15.0782   19.3774 C   0  0  0  0  0  0  0  0  0  0  0  0
    9.3210  -16.5273   22.8799 C   0  0  0  0  0  0  0  0  0  0  0  0
   10.0624  -17.0826   23.7540 O   0  0  0  0  0  0  0  0  0  0  0  0
    8.2205  -15.7935   23.4146 N   0  0  0  0  0  0  0  0  0  0  0  0
    8.2816  -15.1940   24.7771 C   0  0  1  0  0  0  0  0  0  0  0  0
    7.4148  -14.0010   24.7043 C   0  0  0  0  0  0  0  0  0  0  0  0
    7.2116  -13.2043   25.9049 C   0  0  0  0  0  0  0  0  0  0  0  0
    6.3008  -12.1709   25.9471 C   0  0  0  0  0  0  0  0  0  0  0  0
    6.0795  -11.4272   27.0992 C   0  0  0  0  0  0  0  0  0  0  0  0
    6.7807  -11.7203   28.2309 C   0  0  0  0  0  0  0  0  0  0  0  0
    7.6942  -12.7423   28.2220 C   0  0  0  0  0  0  0  0  0  0  0  0
    7.9022  -13.4770   27.0570 C   0  0  0  0  0  0  0  0  0  0  0  0
    7.7579  -16.2100   25.7044 C   0  0  0  0  0  0  0  0  0  0  0  0
    6.7038  -16.8413   25.3274 O   0  0  0  0  0  0  0  0  0  0  0  0
    5.9852  -21.6880   28.1644 N   0  0  0  0  0  0  0  0  0  0  0  0
    5.7720  -22.0038   26.7801 C   0  0  0  0  0  0  0  0  0  0  0  0
    4.6205  -22.4486   26.4076 N   0  0  0  0  0  0  0  0  0  0  0  0
    6.7907  -21.8389   25.8185 N   0  0  0  0  0  0  0  0  0  0  0  0
    7.9767  -21.0520   26.1152 C   0  0  0  0  0  0  0  0  0  0  0  0
    7.6506  -19.6340   25.7789 C   0  0  0  0  0  0  0  0  0  0  0  0
    8.7889  -18.7129   25.9067 C   0  0  0  0  0  0  0  0  0  0  0  0
    8.8070  -17.9059   27.1741 C   0  0  2  0  0  0  0  0  0  0  0  0
    8.2721  -16.5828   26.9513 N   0  0  0  0  0  0  0  0  0  0  0  0
   10.0628  -17.9121   27.9195 C   0  0  0  0  0  0  0  0  0  0  0  0
   10.2328  -18.7647   28.8540 O   0  0  0  0  0  0  0  0  0  0  0  0
   11.1106  -17.0527   27.6992 O   0  0  0  0  0  0  0  0  0  0  0  0
  2  1  1  1
  2  3  1  0
  3  4  1  0
  4 12  1  0
  4  5  2  0
  5  6  1  0
  7  6  1  0
  7  8  2  0
  9  8  1  0
 10  9  2  0
 11 10  1  0
 11 12  2  0
 12  7  1  0
 13  2  1  0
 14 13  2  0
 15 13  1  0
 16 17  1  6
 16 15  1  0
 17 18  1  0
 18 19  2  0
 19 20  1  0
 21 20  2  0
 22 21  1  0
 23 22  2  0
 23 18  1  0
 24 34  1  0
 24 16  1  0
 25 24  2  0
 27 28  2  0
 27 26  1  0
 29 27  1  0
 30 29  1  0
 31 30  1  0
 33 32  1  6
 32 31  1  0
 33 34  1  0
 35 33  1  0
 35 37  1  0
 36 35  2  0
M  END
$$$$
