WFR.pdb
     RDKit          3D

 37 39  0  0  1  0  0  0  0  0999 V2000
    8.2192  -17.0826   22.6821 N   0  0  0  0  0  0  0  0  0  0  0  0
    8.7153  -15.6995   22.8674 C   0  0  1  0  0  0  0  0  0  0  0  0
    7.5793  -14.8022   22.5701 C   0  0  0  0  0  0  0  0  0  0  0  0
    7.2660  -14.5473   21.1683 C   0  0  0  0  0  0  0  0  0  0  0  0
    6.2483  -15.1663   20.4490 C   0  0  0  0  0  0  0  0  0  0  0  0
    6.2148  -14.6859   19.2165 N   0  0  0  0  0  0  0  0  0  0  0  0
    7.2016  -13.7501   19.1026 C   0  0  0  0  0  0  0  0  0  0  0  0
    7.6176  -12.9577   18.0629 C   0  0  0  0  0  0  0  0  0  0  0  0
    8.6764  -12.0812   18.2151 C   0  0  0  0  0  0  0  0  0  0  0  0
    9.3563  -11.9616   19.3977 C   0  0  0  0  0  0  0  0  0  0  0  0
    8.9316  -12.7667   20.4499 C   0  0  0  0  0  0  0  0  0  0  0  0
    7.8746  -13.6501   20.3231 C   0  0  0  0  0  0  0  0  0  0  0  0
    9.3386  -15.6258   24.1816 C   0  0  0  0  0  0  0  0  0  0  0  0
   10.3864  -14.9459   24.4305 O   0  0  0  0  0  0  0  0  0  0  0  0
    8.8057  -16.3276   25.3036 N   0  0  0  0  0  0  0  0  0  0  0  0
    9.4669  -16.2662   26.6373 C   0  0  1  0  0  0  0  0  0  0  0  0
    8.4604  -15.6586   27.5304 C   0  0  0  0  0  0  0  0  0  0  0  0
    7.8803  -14.3746   27.1668 C   0  0  0  0  0  0  0  0  0  0  0  0
    6.6160  -14.2736   26.6276 C   0  0  0  0  0  0  0  0  0  0  0  0
    6.0445  -13.0487   26.3078 C   0  0  0  0  0  0  0  0  0  0  0  0
    6.7480  -11.9025   26.5304 C   0  0  0  0  0  0  0  0  0  0  0  0
    8.0083  -11.9686   27.0657 C   0  0  0  0  0  0  0  0  0  0  0  0
    8.5646  -13.2063   27.3800 C   0  0  0  0  0  0  0  0  0  0  0  0
    9.7816  -17.6544   27.0120 C   0  0  0  0  0  0  0  0  0  0  0  0
   10.1113  -17.8568   28.2376 O   0  0  0  0  0  0  0  0  0  0  0  0
   14.2147  -19.5235   19.9576 N   0  0  0  0  0  0  0  0  0  0  0  0
   14.7671  -20.3177   21.0185 C   0  0  0  0  0  0  0  0  0  0  0  0
   15.7907  -21.0637   20.7769 N   0  0  0  0  0  0  0  0  0  0  0  0
   14.2179  -20.3014   22.3176 N   0  0  0  0  0  0  0  0  0  0  0  0
   13.0704  -19.4658   22.6322 C   0  0  0  0  0  0  0  0  0  0  0  0
   12.6617  -19.8000   24.0292 C   0  0  0  0  0  0  0  0  0  0  0  0
   11.3963  -19.1791   24.4460 C   0  0  0  0  0  0  0  0  0  0  0  0
   10.9759  -19.4904   25.8546 C   0  0  2  0  0  0  0  0  0  0  0  0
    9.7590  -18.7913   26.1966 N   0  0  0  0  0  0  0  0  0  0  0  0
   12.0179  -19.3846   26.8723 C   0  0  0  0  0  0  0  0  0  0  0  0
   12.1625  -20.3263   27.7217 O   0  0  0  0  0  0  0  0  0  0  0  0
   12.8830  -18.3264   27.0029 O   0  0  0  0  0  0  0  0  0  0  0  0
  2  1  1  1
  2  3  1  0
  3  4  1  0
  4 12  1  0
  4  5  2  0
  5  6  1  0
  7  6  1  0
  7  8  2  0
  9  8  1  0
 10  9  2  0
 11 10  1  0
 11 12  2  0
 12  7  1  0
 13  2  1  0
 14 13  2  0
 15 13  1  0
 16 17  1  1
 16 15  1  0
 17 18  1  0
 18 19  2  0
 19 20  1  0
 21 20  2  0
 22 21  1  0
 23 22  2  0
 23 18  1  0
 24 34  1  0
 24 16  1  0
 25 24  2  0
 27 28  2  0
 27 26  1  0
 29 27  1  0
 30 29  1  0
 31 30  1  0
 33 32  1  6
 32 31  1  0
 33 34  1  0
 35 33  1  0
 35 37  1  0
 36 35  2  0
M  END
$$$$
