WFR.pdb
     RDKit          3D

 37 39  0  0  1  0  0  0  0  0999 V2000
    7.9487  -15.9388   22.1418 N   0  0  0  0  0  0  0  0  0  0  0  0
    8.9262  -14.8610   22.4182 C   0  0  1  0  0  0  0  0  0  0  0  0
    8.3087  -13.6031   21.9487 C   0  0  0  0  0  0  0  0  0  0  0  0
    8.1355  -13.4287   20.5107 C   0  0  0  0  0  0  0  0  0  0  0  0
    6.9131  -13.4203   19.8459 C   0  0  0  0  0  0  0  0  0  0  0  0
    7.1074  -13.2088   18.5541 N   0  0  0  0  0  0  0  0  0  0  0  0
    8.4497  -13.0758   18.3466 C   0  0  0  0  0  0  0  0  0  0  0  0
    9.2001  -12.8565   17.2195 C   0  0  0  0  0  0  0  0  0  0  0  0
   10.5789  -12.7726   17.2872 C   0  0  0  0  0  0  0  0  0  0  0  0
   11.2574  -12.9033   18.4694 C   0  0  0  0  0  0  0  0  0  0  0  0
   10.4930  -13.1253   19.6105 C   0  0  0  0  0  0  0  0  0  0  0  0
    9.1130  -13.2120   19.5689 C   0  0  0  0  0  0  0  0  0  0  0  0
    9.3181  -14.9677   23.8168 C   0  0  0  0  0  0  0  0  0  0  0  0
   10.3628  -14.4245   24.3021 O   0  0  0  0  0  0  0  0  0  0  0  0
    8.5407  -15.7059   24.7582 N   0  0  0  0  0  0  0  0  0  0  0  0
    8.9392  -15.7893   26.1913 C   0  0  1  0  0  0  0  0  0  0  0  0
    7.6947  -15.5374   26.9448 C   0  0  0  0  0  0  0  0  0  0  0  0
    7.1897  -14.1756   27.0348 C   0  0  0  0  0  0  0  0  0  0  0  0
    7.9928  -13.1258   27.4249 C   0  0  0  0  0  0  0  0  0  0  0  0
    7.5253  -11.8191   27.4823 C   0  0  0  0  0  0  0  0  0  0  0  0
    6.2314  -11.5550   27.1441 C   0  0  0  0  0  0  0  0  0  0  0  0
    5.4065  -12.5770   26.7518 C   0  0  0  0  0  0  0  0  0  0  0  0
    5.8936  -13.8811   26.7003 C   0  0  0  0  0  0  0  0  0  0  0  0
    9.4550  -17.1515   26.4030 C   0  0  0  0  0  0  0  0  0  0  0  0
    9.5312  -17.5528   27.6216 O   0  0  0  0  0  0  0  0  0  0  0  0
   14.3217  -23.4925   22.6182 N   0  0  0  0  0  0  0  0  0  0  0  0
   13.6115  -24.0713   23.7237 C   0  0  0  0  0  0  0  0  0  0  0  0
   13.9378  -25.2503   24.1315 N   0  0  0  0  0  0  0  0  0  0  0  0
   12.5668  -23.3820   24.3741 N   0  0  0  0  0  0  0  0  0  0  0  0
   12.1662  -22.0533   23.9406 C   0  0  0  0  0  0  0  0  0  0  0  0
   11.1322  -21.5763   24.9069 C   0  0  0  0  0  0  0  0  0  0  0  0
   10.6129  -20.2334   24.6114 C   0  0  0  0  0  0  0  0  0  0  0  0
   10.4377  -19.3474   25.8123 C   0  0  2  0  0  0  0  0  0  0  0  0
    9.8687  -18.0742   25.4359 N   0  0  0  0  0  0  0  0  0  0  0  0
   11.5929  -19.2338   26.6984 C   0  0  0  0  0  0  0  0  0  0  0  0
   11.6014  -19.8742   27.8025 O   0  0  0  0  0  0  0  0  0  0  0  0
   12.7064  -18.4722   26.4428 O   0  0  0  0  0  0  0  0  0  0  0  0
  2  1  1  1
  2  3  1  0
  3  4  1  0
  4 12  1  0
  4  5  2  0
  5  6  1  0
  7  6  1  0
  7  8  2  0
  9  8  1  0
 10  9  2  0
 11 10  1  0
 11 12  2  0
 12  7  1  0
 13  2  1  0
 14 13  2  0
 15 13  1  0
 16 17  1  1
 16 15  1  0
 17 18  1  0
 18 19  2  0
 19 20  1  0
 21 20  2  0
 22 21  1  0
 23 22  2  0
 23 18  1  0
 24 34  1  0
 24 16  1  0
 25 24  2  0
 27 28  2  0
 27 26  1  0
 29 27  1  0
 30 29  1  0
 31 30  1  0
 33 32  1  6
 32 31  1  0
 33 34  1  0
 35 33  1  0
 35 37  1  0
 36 35  2  0
M  END
$$$$
