WFR.pdb
     RDKit          3D

 37 39  0  0  1  0  0  0  0  0999 V2000
    5.9802  -18.1737   22.1969 N   0  0  0  0  0  0  0  0  0  0  0  0
    6.4665  -18.2765   23.5921 C   0  0  1  0  0  0  0  0  0  0  0  0
    6.8472  -19.6890   23.8014 C   0  0  0  0  0  0  0  0  0  0  0  0
    5.9604  -20.5169   24.6115 C   0  0  0  0  0  0  0  0  0  0  0  0
    4.9699  -21.3571   24.1120 C   0  0  0  0  0  0  0  0  0  0  0  0
    4.3710  -21.9864   25.1102 N   0  0  0  0  0  0  0  0  0  0  0  0
    4.9509  -21.5752   26.2752 C   0  0  0  0  0  0  0  0  0  0  0  0
    4.7222  -21.8900   27.5906 C   0  0  0  0  0  0  0  0  0  0  0  0
    5.4636  -21.3065   28.6017 C   0  0  0  0  0  0  0  0  0  0  0  0
    6.4521  -20.3946   28.3442 C   0  0  0  0  0  0  0  0  0  0  0  0
    6.6814  -20.0778   27.0090 C   0  0  0  0  0  0  0  0  0  0  0  0
    5.9543  -20.6486   25.9798 C   0  0  0  0  0  0  0  0  0  0  0  0
    7.4760  -17.2446   23.7854 C   0  0  0  0  0  0  0  0  0  0  0  0
    8.1061  -16.6837   22.8313 O   0  0  0  0  0  0  0  0  0  0  0  0
    7.8359  -16.7835   25.0867 N   0  0  0  0  0  0  0  0  0  0  0  0
    8.8316  -15.6906   25.2702 C   0  0  1  0  0  0  0  0  0  0  0  0
    8.3450  -14.9279   26.4370 C   0  0  0  0  0  0  0  0  0  0  0  0
    7.4243  -13.8220   26.2208 C   0  0  0  0  0  0  0  0  0  0  0  0
    7.8272  -12.6447   25.6285 C   0  0  0  0  0  0  0  0  0  0  0  0
    6.9461  -11.5975   25.3907 C   0  0  0  0  0  0  0  0  0  0  0  0
    5.6378  -11.7278   25.7509 C   0  0  0  0  0  0  0  0  0  0  0  0
    5.2050  -12.8863   26.3422 C   0  0  0  0  0  0  0  0  0  0  0  0
    6.1036  -13.9255   26.5724 C   0  0  0  0  0  0  0  0  0  0  0  0
   10.1253  -16.3432   25.5287 C   0  0  0  0  0  0  0  0  0  0  0  0
   11.0970  -15.5746   25.8704 O   0  0  0  0  0  0  0  0  0  0  0  0
   14.5330  -18.3555   19.0407 N   0  0  0  0  0  0  0  0  0  0  0  0
   15.0091  -18.0309   20.3557 C   0  0  0  0  0  0  0  0  0  0  0  0
   16.2754  -18.0777   20.5945 N   0  0  0  0  0  0  0  0  0  0  0  0
   14.1260  -17.6618   21.3918 N   0  0  0  0  0  0  0  0  0  0  0  0
   12.6866  -17.7753   21.2212 C   0  0  0  0  0  0  0  0  0  0  0  0
   12.0587  -17.2014   22.4487 C   0  0  0  0  0  0  0  0  0  0  0  0
   11.2738  -18.1703   23.2269 C   0  0  0  0  0  0  0  0  0  0  0  0
   11.5670  -18.1797   24.7006 C   0  0  2  0  0  0  0  0  0  0  0  0
   10.4302  -17.7069   25.4561 N   0  0  0  0  0  0  0  0  0  0  0  0
   12.8325  -17.5739   25.1058 C   0  0  0  0  0  0  0  0  0  0  0  0
   13.9300  -18.0846   24.7009 O   0  0  0  0  0  0  0  0  0  0  0  0
   12.9513  -16.4691   25.9123 O   0  0  0  0  0  0  0  0  0  0  0  0
  2  1  1  6
  2  3  1  0
  3  4  1  0
  4 12  1  0
  4  5  2  0
  5  6  1  0
  7  6  1  0
  7  8  2  0
  9  8  1  0
 10  9  2  0
 11 10  1  0
 11 12  2  0
 12  7  1  0
 13  2  1  0
 14 13  2  0
 15 13  1  0
 16 17  1  1
 16 15  1  0
 17 18  1  0
 18 19  2  0
 19 20  1  0
 21 20  2  0
 22 21  1  0
 23 22  2  0
 23 18  1  0
 24 34  1  0
 24 16  1  0
 25 24  2  0
 27 28  2  0
 27 26  1  0
 29 27  1  0
 30 29  1  0
 31 30  1  0
 33 32  1  6
 32 31  1  0
 33 34  1  0
 35 33  1  0
 35 37  1  0
 36 35  2  0
M  END
$$$$
