WFR.pdb
     RDKit          3D

 37 39  0  0  1  0  0  0  0  0999 V2000
    6.6353  -18.4984   27.2037 N   0  0  0  0  0  0  0  0  0  0  0  0
    7.6977  -17.5482   26.8013 C   0  0  1  0  0  0  0  0  0  0  0  0
    8.9766  -18.1284   27.2615 C   0  0  0  0  0  0  0  0  0  0  0  0
    9.6922  -17.4329   28.3258 C   0  0  0  0  0  0  0  0  0  0  0  0
   10.0648  -17.9966   29.5423 C   0  0  0  0  0  0  0  0  0  0  0  0
   10.7248  -17.1060   30.2650 N   0  0  0  0  0  0  0  0  0  0  0  0
   10.7978  -15.9496   29.5440 C   0  0  0  0  0  0  0  0  0  0  0  0
   11.3506  -14.7220   29.8069 C   0  0  0  0  0  0  0  0  0  0  0  0
   11.2718  -13.6935   28.8858 C   0  0  0  0  0  0  0  0  0  0  0  0
   10.6445  -13.8464   27.6783 C   0  0  0  0  0  0  0  0  0  0  0  0
   10.0851  -15.0928   27.4149 C   0  0  0  0  0  0  0  0  0  0  0  0
   10.1518  -16.1374   28.3193 C   0  0  0  0  0  0  0  0  0  0  0  0
    7.5273  -17.2697   25.3820 C   0  0  0  0  0  0  0  0  0  0  0  0
    6.9637  -18.0696   24.5668 O   0  0  0  0  0  0  0  0  0  0  0  0
    7.9923  -16.0549   24.7961 N   0  0  0  0  0  0  0  0  0  0  0  0
    7.9249  -15.8325   23.3245 C   0  0  1  0  0  0  0  0  0  0  0  0
    7.9194  -14.3649   23.1639 C   0  0  0  0  0  0  0  0  0  0  0  0
    7.2409  -13.5503   24.1606 C   0  0  0  0  0  0  0  0  0  0  0  0
    6.0995  -13.9833   24.8001 C   0  0  0  0  0  0  0  0  0  0  0  0
    5.4651  -13.2240   25.7751 C   0  0  0  0  0  0  0  0  0  0  0  0
    5.9797  -12.0093   26.1185 C   0  0  0  0  0  0  0  0  0  0  0  0
    7.1141  -11.5497   25.5012 C   0  0  0  0  0  0  0  0  0  0  0  0
    7.7362  -12.3255   24.5258 C   0  0  0  0  0  0  0  0  0  0  0  0
    9.1309  -16.4531   22.7526 C   0  0  0  0  0  0  0  0  0  0  0  0
   10.1345  -16.5914   23.5434 O   0  0  0  0  0  0  0  0  0  0  0  0
    9.2767  -17.7581   14.8495 N   0  0  0  0  0  0  0  0  0  0  0  0
    9.5139  -18.9729   15.5770 C   0  0  0  0  0  0  0  0  0  0  0  0
    9.8351  -20.0404   14.9291 N   0  0  0  0  0  0  0  0  0  0  0  0
    9.4047  -19.0267   16.9823 N   0  0  0  0  0  0  0  0  0  0  0  0
    9.0202  -17.8510   17.7464 C   0  0  0  0  0  0  0  0  0  0  0  0
   10.2044  -17.4639   18.5700 C   0  0  0  0  0  0  0  0  0  0  0  0
   10.4000  -18.2984   19.7640 C   0  0  0  0  0  0  0  0  0  0  0  0
   10.5660  -17.5337   21.0468 C   0  0  2  0  0  0  0  0  0  0  0  0
    9.3205  -16.9218   21.4478 N   0  0  0  0  0  0  0  0  0  0  0  0
   11.7102  -16.6284   21.1093 C   0  0  0  0  0  0  0  0  0  0  0  0
   12.1521  -16.2544   22.2469 O   0  0  0  0  0  0  0  0  0  0  0  0
   12.3734  -16.1250   20.0176 O   0  0  0  0  0  0  0  0  0  0  0  0
  2  1  1  6
  2  3  1  0
  3  4  1  0
  4 12  1  0
  4  5  2  0
  5  6  1  0
  7  6  1  0
  7  8  2  0
  9  8  1  0
 10  9  2  0
 11 10  1  0
 11 12  2  0
 12  7  1  0
 13  2  1  0
 14 13  2  0
 15 13  1  0
 16 17  1  1
 16 15  1  0
 17 18  1  0
 18 19  2  0
 19 20  1  0
 21 20  2  0
 22 21  1  0
 23 22  2  0
 23 18  1  0
 24 34  1  0
 24 16  1  0
 25 24  2  0
 27 28  2  0
 27 26  1  0
 29 27  1  0
 30 29  1  0
 31 30  1  0
 33 32  1  6
 32 31  1  0
 33 34  1  0
 35 33  1  0
 35 37  1  0
 36 35  2  0
M  END
$$$$
