WFR.pdb
     RDKit          3D

 37 39  0  0  1  0  0  0  0  0999 V2000
    7.2132  -19.1579   26.1906 N   0  0  0  0  0  0  0  0  0  0  0  0
    7.8448  -17.8209   26.1080 C   0  0  1  0  0  0  0  0  0  0  0  0
    9.2185  -17.9720   26.6315 C   0  0  0  0  0  0  0  0  0  0  0  0
    9.5145  -17.3901   27.9361 C   0  0  0  0  0  0  0  0  0  0  0  0
    9.8896  -18.1081   29.0675 C   0  0  0  0  0  0  0  0  0  0  0  0
   10.1138  -17.2761   30.0719 N   0  0  0  0  0  0  0  0  0  0  0  0
    9.8918  -16.0062   29.6241 C   0  0  0  0  0  0  0  0  0  0  0  0
    9.9643  -14.7788   30.2322 C   0  0  0  0  0  0  0  0  0  0  0  0
    9.6696  -13.6207   29.5360 C   0  0  0  0  0  0  0  0  0  0  0  0
    9.2941  -13.6403   28.2194 C   0  0  0  0  0  0  0  0  0  0  0  0
    9.2219  -14.8869   27.6058 C   0  0  0  0  0  0  0  0  0  0  0  0
    9.5128  -16.0592   28.2802 C   0  0  0  0  0  0  0  0  0  0  0  0
    7.6649  -17.3303   24.7487 C   0  0  0  0  0  0  0  0  0  0  0  0
    7.5960  -18.0871   23.7267 O   0  0  0  0  0  0  0  0  0  0  0  0
    7.5528  -15.9367   24.4641 N   0  0  0  0  0  0  0  0  0  0  0  0
    7.6883  -15.4197   23.0734 C   0  0  1  0  0  0  0  0  0  0  0  0
    6.9666  -14.1318   23.0770 C   0  0  0  0  0  0  0  0  0  0  0  0
    7.0168  -13.3001   24.2700 C   0  0  0  0  0  0  0  0  0  0  0  0
    6.3267  -13.6295   25.4165 C   0  0  0  0  0  0  0  0  0  0  0  0
    6.3958  -12.8566   26.5687 C   0  0  0  0  0  0  0  0  0  0  0  0
    7.1684  -11.7336   26.5768 C   0  0  0  0  0  0  0  0  0  0  0  0
    7.8675  -11.3782   25.4525 C   0  0  0  0  0  0  0  0  0  0  0  0
    7.7857  -12.1660   24.3066 C   0  0  0  0  0  0  0  0  0  0  0  0
    9.1300  -15.2521   22.8286 C   0  0  0  0  0  0  0  0  0  0  0  0
    9.8713  -15.0814   23.8646 O   0  0  0  0  0  0  0  0  0  0  0  0
   11.9024  -22.2149   23.4290 N   0  0  0  0  0  0  0  0  0  0  0  0
   12.2514  -22.0537   22.0457 C   0  0  0  0  0  0  0  0  0  0  0  0
   13.1253  -22.8443   21.5223 N   0  0  0  0  0  0  0  0  0  0  0  0
   11.6618  -21.0525   21.2460 N   0  0  0  0  0  0  0  0  0  0  0  0
   10.7503  -20.0775   21.8225 C   0  0  0  0  0  0  0  0  0  0  0  0
   11.2522  -18.7281   21.4255 C   0  0  0  0  0  0  0  0  0  0  0  0
   10.3113  -17.6344   21.7066 C   0  0  0  0  0  0  0  0  0  0  0  0
   10.7911  -16.2702   21.2986 C   0  0  2  0  0  0  0  0  0  0  0  0
    9.8008  -15.2630   21.6006 N   0  0  0  0  0  0  0  0  0  0  0  0
   11.3443  -16.1623   19.9514 C   0  0  0  0  0  0  0  0  0  0  0  0
   10.5695  -15.8837   18.9760 O   0  0  0  0  0  0  0  0  0  0  0  0
   12.6668  -16.3421   19.6291 O   0  0  0  0  0  0  0  0  0  0  0  0
  2  1  1  6
  2  3  1  0
  3  4  1  0
  4 12  1  0
  4  5  2  0
  5  6  1  0
  7  6  1  0
  7  8  2  0
  9  8  1  0
 10  9  2  0
 11 10  1  0
 11 12  2  0
 12  7  1  0
 13  2  1  0
 14 13  2  0
 15 13  1  0
 16 17  1  1
 16 15  1  0
 17 18  1  0
 18 19  2  0
 19 20  1  0
 21 20  2  0
 22 21  1  0
 23 22  2  0
 23 18  1  0
 24 34  1  0
 24 16  1  0
 25 24  2  0
 27 28  2  0
 27 26  1  0
 29 27  1  0
 30 29  1  0
 31 30  1  0
 33 32  1  6
 32 31  1  0
 33 34  1  0
 35 33  1  0
 35 37  1  0
 36 35  2  0
M  END
$$$$
