WFR.pdb
     RDKit          3D

 37 39  0  0  1  0  0  0  0  0999 V2000
    5.5025  -19.8448   22.7120 N   0  0  0  0  0  0  0  0  0  0  0  0
    6.2335  -19.0764   23.7457 C   0  0  1  0  0  0  0  0  0  0  0  0
    7.6004  -19.6359   23.7971 C   0  0  0  0  0  0  0  0  0  0  0  0
    7.9889  -20.3663   24.9988 C   0  0  0  0  0  0  0  0  0  0  0  0
    8.3041  -21.7208   25.0466 C   0  0  0  0  0  0  0  0  0  0  0  0
    8.6434  -22.0583   26.2804 N   0  0  0  0  0  0  0  0  0  0  0  0
    8.5580  -20.9418   27.0606 C   0  0  0  0  0  0  0  0  0  0  0  0
    8.7832  -20.7197   28.3955 C   0  0  0  0  0  0  0  0  0  0  0  0
    8.6074  -19.4640   28.9479 C   0  0  0  0  0  0  0  0  0  0  0  0
    8.2037  -18.3910   28.1991 C   0  0  0  0  0  0  0  0  0  0  0  0
    7.9766  -18.6201   26.8457 C   0  0  0  0  0  0  0  0  0  0  0  0
    8.1465  -19.8662   26.2695 C   0  0  0  0  0  0  0  0  0  0  0  0
    6.0686  -17.6613   23.4437 C   0  0  0  0  0  0  0  0  0  0  0  0
    6.1552  -17.1735   22.2704 O   0  0  0  0  0  0  0  0  0  0  0  0
    5.7941  -16.7044   24.4657 N   0  0  0  0  0  0  0  0  0  0  0  0
    6.4736  -15.3787   24.4843 C   0  0  1  0  0  0  0  0  0  0  0  0
    6.1835  -14.8240   25.8214 C   0  0  0  0  0  0  0  0  0  0  0  0
    6.6152  -13.4691   26.1303 C   0  0  0  0  0  0  0  0  0  0  0  0
    6.0763  -12.3710   25.4954 C   0  0  0  0  0  0  0  0  0  0  0  0
    6.4614  -11.0736   25.8082 C   0  0  0  0  0  0  0  0  0  0  0  0
    7.4022  -10.8680   26.7730 C   0  0  0  0  0  0  0  0  0  0  0  0
    7.9578  -11.9392   27.4234 C   0  0  0  0  0  0  0  0  0  0  0  0
    7.5587  -13.2330   27.0960 C   0  0  0  0  0  0  0  0  0  0  0  0
    7.9084  -15.6419   24.2874 C   0  0  0  0  0  0  0  0  0  0  0  0
    8.5191  -14.8883   23.4442 O   0  0  0  0  0  0  0  0  0  0  0  0
   12.0678  -20.0460   29.6626 N   0  0  0  0  0  0  0  0  0  0  0  0
   13.1749  -19.8388   28.7722 C   0  0  0  0  0  0  0  0  0  0  0  0
   14.3762  -19.9603   29.2250 N   0  0  0  0  0  0  0  0  0  0  0  0
   12.9807  -19.5063   27.4153 N   0  0  0  0  0  0  0  0  0  0  0  0
   11.6709  -19.1094   26.9244 C   0  0  0  0  0  0  0  0  0  0  0  0
   11.7898  -17.6909   26.4727 C   0  0  0  0  0  0  0  0  0  0  0  0
   10.5191  -16.9521   26.4838 C   0  0  0  0  0  0  0  0  0  0  0  0
   10.1056  -16.3901   25.1530 C   0  0  2  0  0  0  0  0  0  0  0  0
    8.6985  -16.6122   24.9137 N   0  0  0  0  0  0  0  0  0  0  0  0
   10.9552  -16.7400   24.0180 C   0  0  0  0  0  0  0  0  0  0  0  0
   12.2149  -16.5498   24.0958 O   0  0  0  0  0  0  0  0  0  0  0  0
   10.5047  -17.2705   22.8344 O   0  0  0  0  0  0  0  0  0  0  0  0
  2  1  1  6
  2  3  1  0
  3  4  1  0
  4 12  1  0
  4  5  2  0
  5  6  1  0
  7  6  1  0
  7  8  2  0
  9  8  1  0
 10  9  2  0
 11 10  1  0
 11 12  2  0
 12  7  1  0
 13  2  1  0
 14 13  2  0
 15 13  1  0
 16 17  1  1
 16 15  1  0
 17 18  1  0
 18 19  2  0
 19 20  1  0
 21 20  2  0
 22 21  1  0
 23 22  2  0
 23 18  1  0
 24 34  1  0
 24 16  1  0
 25 24  2  0
 27 28  2  0
 27 26  1  0
 29 27  1  0
 30 29  1  0
 31 30  1  0
 33 32  1  1
 32 31  1  0
 33 34  1  0
 35 33  1  0
 35 37  1  0
 36 35  2  0
M  END
$$$$
