AFQ.pdb
     RDKit          3D

 26 26  0  0  1  0  0  0  0  0999 V2000
    9.7494  -18.5977   20.8267 C   0  0  0  0  0  0  0  0  0  0  0  0
    9.1428  -17.2475   20.4748 C   0  0  2  0  0  0  0  0  0  0  0  0
    9.9049  -16.7282   19.3596 N   0  0  0  0  0  0  0  0  0  0  0  0
    9.3264  -16.3163   21.6189 C   0  0  0  0  0  0  0  0  0  0  0  0
   10.4166  -15.7264   21.8338 O   0  0  0  0  0  0  0  0  0  0  0  0
    8.2558  -16.0844   22.4883 N   0  0  0  0  0  0  0  0  0  0  0  0
    8.3908  -15.1344   23.5977 C   0  0  1  0  0  0  0  0  0  0  0  0
    7.0584  -14.5028   23.8801 C   0  0  0  0  0  0  0  0  0  0  0  0
    7.0577  -13.6880   25.0984 C   0  0  0  0  0  0  0  0  0  0  0  0
    6.4551  -14.0623   26.2804 C   0  0  0  0  0  0  0  0  0  0  0  0
    6.4992  -13.2943   27.4249 C   0  0  0  0  0  0  0  0  0  0  0  0
    7.1666  -12.0907   27.4272 C   0  0  0  0  0  0  0  0  0  0  0  0
    7.7809  -11.6853   26.2620 C   0  0  0  0  0  0  0  0  0  0  0  0
    7.7344  -12.4564   25.1195 C   0  0  0  0  0  0  0  0  0  0  0  0
    8.9801  -15.8752   24.7341 C   0  0  0  0  0  0  0  0  0  0  0  0
    8.4695  -16.9897   25.0811 O   0  0  0  0  0  0  0  0  0  0  0  0
   15.0000  -15.7787   25.1667 N   0  0  0  0  0  0  0  0  0  0  0  0
   13.8274  -15.9937   24.3781 C   0  0  0  0  0  0  0  0  0  0  0  0
   13.8227  -15.5511   23.2244 O   0  0  0  0  0  0  0  0  0  0  0  0
   12.6724  -16.7173   24.9329 C   0  0  0  0  0  0  0  0  0  0  0  0
   12.2412  -16.2714   26.2883 C   0  0  0  0  0  0  0  0  0  0  0  0
   10.7783  -16.2157   26.5046 C   0  0  2  0  0  0  0  0  0  0  0  0
   10.1010  -15.4160   25.4721 N   0  0  0  0  0  0  0  0  0  0  0  0
   10.3338  -15.8671   27.8663 C   0  0  0  0  0  0  0  0  0  0  0  0
    9.9940  -14.7094   28.1950 O   0  0  0  0  0  0  0  0  0  0  0  0
   10.2651  -16.8219   28.8933 O   0  0  0  0  0  0  0  0  0  0  0  0
  2  1  1  1
  3  2  1  0
  4  5  2  0
  4  2  1  0
  6  4  1  0
  7  6  1  0
  7  8  1  1
  8  9  1  0
  9 10  2  0
  9 14  1  0
 10 11  1  0
 11 12  2  0
 13 12  1  0
 14 13  2  0
 15 16  2  0
 15  7  1  0
 18 17  1  0
 19 18  2  0
 20 18  1  0
 22 21  1  1
 21 20  1  0
 22 23  1  0
 23 15  1  0
 24 22  1  0
 25 24  2  0
 26 24  1  0
M  END
$$$$
