AFQ.pdb
     RDKit          3D

 26 26  0  0  1  0  0  0  0  0999 V2000
    8.3387  -13.8380   18.4949 C   0  0  0  0  0  0  0  0  0  0  0  0
    8.5953  -15.0769   19.3399 C   0  0  2  0  0  0  0  0  0  0  0  0
    7.3770  -15.8573   19.3128 N   0  0  0  0  0  0  0  0  0  0  0  0
    8.8366  -14.6664   20.7481 C   0  0  0  0  0  0  0  0  0  0  0  0
    9.9859  -14.3867   21.1764 O   0  0  0  0  0  0  0  0  0  0  0  0
    7.7545  -14.5866   21.6304 N   0  0  0  0  0  0  0  0  0  0  0  0
    7.9654  -14.2205   23.0351 C   0  0  1  0  0  0  0  0  0  0  0  0
    6.8005  -13.4069   23.5200 C   0  0  0  0  0  0  0  0  0  0  0  0
    6.8806  -13.0870   24.9481 C   0  0  0  0  0  0  0  0  0  0  0  0
    6.1165  -13.6935   25.9220 C   0  0  0  0  0  0  0  0  0  0  0  0
    6.2358  -13.4011   27.2643 C   0  0  0  0  0  0  0  0  0  0  0  0
    7.1497  -12.4650   27.6917 C   0  0  0  0  0  0  0  0  0  0  0  0
    7.9307  -11.8387   26.7444 C   0  0  0  0  0  0  0  0  0  0  0  0
    7.8082  -12.1341   25.4029 C   0  0  0  0  0  0  0  0  0  0  0  0
    8.1988  -15.4764   23.7805 C   0  0  0  0  0  0  0  0  0  0  0  0
    7.5449  -16.5212   23.4579 O   0  0  0  0  0  0  0  0  0  0  0  0
   10.5422  -19.5411   22.2441 N   0  0  0  0  0  0  0  0  0  0  0  0
   11.4907  -18.5560   22.6599 C   0  0  0  0  0  0  0  0  0  0  0  0
   12.5872  -18.5389   22.0905 O   0  0  0  0  0  0  0  0  0  0  0  0
   11.1611  -17.6020   23.7307 C   0  0  0  0  0  0  0  0  0  0  0  0
    9.8888  -17.8825   24.4550 C   0  0  0  0  0  0  0  0  0  0  0  0
    9.4968  -16.8756   25.4661 C   0  0  2  0  0  0  0  0  0  0  0  0
    9.1250  -15.5933   24.8483 N   0  0  0  0  0  0  0  0  0  0  0  0
   10.4165  -16.7042   26.6055 C   0  0  0  0  0  0  0  0  0  0  0  0
   10.8900  -15.5949   26.9360 O   0  0  0  0  0  0  0  0  0  0  0  0
   10.8263  -17.7869   27.3997 O   0  0  0  0  0  0  0  0  0  0  0  0
  2  1  1  6
  3  2  1  0
  4  5  2  0
  4  2  1  0
  6  4  1  0
  7  6  1  0
  7  8  1  1
  8  9  1  0
  9 10  2  0
  9 14  1  0
 10 11  1  0
 11 12  2  0
 13 12  1  0
 14 13  2  0
 15 16  2  0
 15  7  1  0
 18 17  1  0
 19 18  2  0
 20 18  1  0
 22 21  1  6
 21 20  1  0
 22 23  1  0
 23 15  1  0
 24 22  1  0
 25 24  2  0
 26 24  1  0
M  END
$$$$
