AFQ.pdb
     RDKit          3D

 26 26  0  0  1  0  0  0  0  0999 V2000
    9.1454  -18.4414   20.4407 C   0  0  0  0  0  0  0  0  0  0  0  0
    8.7975  -17.0043   20.0820 C   0  0  2  0  0  0  0  0  0  0  0  0
    9.7319  -16.5951   19.0557 N   0  0  0  0  0  0  0  0  0  0  0  0
    9.0219  -16.1367   21.2681 C   0  0  0  0  0  0  0  0  0  0  0  0
   10.1532  -15.6614   21.5454 O   0  0  0  0  0  0  0  0  0  0  0  0
    7.9441  -15.8357   22.1067 N   0  0  0  0  0  0  0  0  0  0  0  0
    8.1369  -14.9945   23.2929 C   0  0  1  0  0  0  0  0  0  0  0  0
    6.8754  -14.2306   23.5745 C   0  0  0  0  0  0  0  0  0  0  0  0
    6.9315  -13.4754   24.8294 C   0  0  0  0  0  0  0  0  0  0  0  0
    6.2621  -13.8340   25.9800 C   0  0  0  0  0  0  0  0  0  0  0  0
    6.3596  -13.1269   27.1598 C   0  0  0  0  0  0  0  0  0  0  0  0
    7.1525  -12.0043   27.2322 C   0  0  0  0  0  0  0  0  0  0  0  0
    7.8363  -11.6169   26.1001 C   0  0  0  0  0  0  0  0  0  0  0  0
    7.7362  -12.3269   24.9220 C   0  0  0  0  0  0  0  0  0  0  0  0
    8.5818  -15.8836   24.3877 C   0  0  0  0  0  0  0  0  0  0  0  0
    7.8436  -16.8635   24.7315 O   0  0  0  0  0  0  0  0  0  0  0  0
   13.5780  -18.3119   24.2447 N   0  0  0  0  0  0  0  0  0  0  0  0
   13.4118  -16.9015   24.0829 C   0  0  0  0  0  0  0  0  0  0  0  0
   14.1126  -16.3343   23.2378 O   0  0  0  0  0  0  0  0  0  0  0  0
   12.4374  -16.1620   24.9010 C   0  0  0  0  0  0  0  0  0  0  0  0
   11.7216  -16.9798   25.9212 C   0  0  0  0  0  0  0  0  0  0  0  0
   10.2917  -16.6501   26.1121 C   0  0  2  0  0  0  0  0  0  0  0  0
    9.8031  -15.7130   25.0886 N   0  0  0  0  0  0  0  0  0  0  0  0
    9.8908  -16.2530   27.4741 C   0  0  0  0  0  0  0  0  0  0  0  0
    9.3180  -17.0308   28.2682 O   0  0  0  0  0  0  0  0  0  0  0  0
   10.1267  -14.9616   27.9718 O   0  0  0  0  0  0  0  0  0  0  0  0
  2  1  1  1
  3  2  1  0
  4  5  2  0
  4  2  1  0
  6  4  1  0
  7  6  1  0
  7  8  1  1
  8  9  1  0
  9 10  2  0
  9 14  1  0
 10 11  1  0
 11 12  2  0
 13 12  1  0
 14 13  2  0
 15 16  2  0
 15  7  1  0
 18 17  1  0
 19 18  2  0
 20 18  1  0
 22 21  1  1
 21 20  1  0
 22 23  1  0
 23 15  1  0
 24 22  1  0
 25 24  2  0
 26 24  1  0
M  END
$$$$
