AFQ.pdb
     RDKit          3D

 26 26  0  0  1  0  0  0  0  0999 V2000
    9.1092  -18.4461   20.5344 C   0  0  0  0  0  0  0  0  0  0  0  0
    9.1686  -16.9679   20.1790 C   0  0  2  0  0  0  0  0  0  0  0  0
   10.3673  -16.7785   19.3909 N   0  0  0  0  0  0  0  0  0  0  0  0
    9.3179  -16.1715   21.4253 C   0  0  0  0  0  0  0  0  0  0  0  0
   10.4423  -15.9313   21.9358 O   0  0  0  0  0  0  0  0  0  0  0  0
    8.1745  -15.6702   22.0555 N   0  0  0  0  0  0  0  0  0  0  0  0
    8.2842  -14.9337   23.3194 C   0  0  1  0  0  0  0  0  0  0  0  0
    7.0722  -14.0661   23.4993 C   0  0  0  0  0  0  0  0  0  0  0  0
    7.0302  -13.4052   24.8068 C   0  0  0  0  0  0  0  0  0  0  0  0
    6.2820  -13.8497   25.8759 C   0  0  0  0  0  0  0  0  0  0  0  0
    6.2872  -13.2310   27.1083 C   0  0  0  0  0  0  0  0  0  0  0  0
    7.0630  -12.1143   27.3206 C   0  0  0  0  0  0  0  0  0  0  0  0
    7.8241  -11.6423   26.2730 C   0  0  0  0  0  0  0  0  0  0  0  0
    7.8161  -12.2639   25.0420 C   0  0  0  0  0  0  0  0  0  0  0  0
    8.4956  -15.9343   24.3877 C   0  0  0  0  0  0  0  0  0  0  0  0
    7.6417  -16.8670   24.5434 O   0  0  0  0  0  0  0  0  0  0  0  0
   13.1002  -17.9263   23.0364 N   0  0  0  0  0  0  0  0  0  0  0  0
   12.8271  -18.2611   24.3989 C   0  0  0  0  0  0  0  0  0  0  0  0
   13.2339  -19.3514   24.8146 O   0  0  0  0  0  0  0  0  0  0  0  0
   12.0853  -17.3316   25.2657 C   0  0  0  0  0  0  0  0  0  0  0  0
   10.8771  -17.9089   25.9206 C   0  0  0  0  0  0  0  0  0  0  0  0
    9.8359  -16.9318   26.3094 C   0  0  2  0  0  0  0  0  0  0  0  0
    9.6119  -15.9226   25.2626 N   0  0  0  0  0  0  0  0  0  0  0  0
    9.9739  -16.3308   27.6485 C   0  0  0  0  0  0  0  0  0  0  0  0
   10.0974  -17.0119   28.6900 O   0  0  0  0  0  0  0  0  0  0  0  0
    9.9731  -14.9404   27.8430 O   0  0  0  0  0  0  0  0  0  0  0  0
  2  1  1  1
  3  2  1  0
  4  5  2  0
  4  2  1  0
  6  4  1  0
  7  6  1  0
  7  8  1  1
  8  9  1  0
  9 10  2  0
  9 14  1  0
 10 11  1  0
 11 12  2  0
 13 12  1  0
 14 13  2  0
 15 16  2  0
 15  7  1  0
 18 17  1  0
 19 18  2  0
 20 18  1  0
 22 21  1  6
 21 20  1  0
 22 23  1  0
 23 15  1  0
 24 22  1  0
 25 24  2  0
 26 24  1  0
M  END
$$$$
