AFQ.pdb
     RDKit          3D

 26 26  0  0  1  0  0  0  0  0999 V2000
    8.5635  -18.0025   20.1404 C   0  0  0  0  0  0  0  0  0  0  0  0
    8.9869  -16.5445   20.0414 C   0  0  2  0  0  0  0  0  0  0  0  0
   10.3005  -16.5342   19.4346 N   0  0  0  0  0  0  0  0  0  0  0  0
    9.1180  -15.9799   21.4103 C   0  0  0  0  0  0  0  0  0  0  0  0
   10.2005  -16.0197   22.0501 O   0  0  0  0  0  0  0  0  0  0  0  0
    8.0051  -15.3837   22.0117 N   0  0  0  0  0  0  0  0  0  0  0  0
    8.1144  -14.7783   23.3434 C   0  0  1  0  0  0  0  0  0  0  0  0
    7.0267  -13.7586   23.5198 C   0  0  0  0  0  0  0  0  0  0  0  0
    7.0108  -13.1644   24.8595 C   0  0  0  0  0  0  0  0  0  0  0  0
    6.2268  -13.6177   25.8989 C   0  0  0  0  0  0  0  0  0  0  0  0
    6.2562  -13.0646   27.1617 C   0  0  0  0  0  0  0  0  0  0  0  0
    7.0947  -12.0086   27.4371 C   0  0  0  0  0  0  0  0  0  0  0  0
    7.8930  -11.5298   26.4208 C   0  0  0  0  0  0  0  0  0  0  0  0
    7.8606  -12.0858   25.1591 C   0  0  0  0  0  0  0  0  0  0  0  0
    8.0944  -15.8837   24.3256 C   0  0  0  0  0  0  0  0  0  0  0  0
    7.3102  -16.8697   24.1357 O   0  0  0  0  0  0  0  0  0  0  0  0
   10.6311  -19.7398   22.8212 N   0  0  0  0  0  0  0  0  0  0  0  0
   11.2909  -19.9400   24.0732 C   0  0  0  0  0  0  0  0  0  0  0  0
   11.9097  -20.9976   24.2331 O   0  0  0  0  0  0  0  0  0  0  0  0
   11.2271  -18.9151   25.1273 C   0  0  0  0  0  0  0  0  0  0  0  0
   10.4226  -17.7079   24.7847 C   0  0  0  0  0  0  0  0  0  0  0  0
    9.6741  -17.1020   25.9083 C   0  0  2  0  0  0  0  0  0  0  0  0
    8.9117  -15.9174   25.4844 N   0  0  0  0  0  0  0  0  0  0  0  0
   10.4375  -16.8647   27.1470 C   0  0  0  0  0  0  0  0  0  0  0  0
   10.8308  -15.7303   27.4964 O   0  0  0  0  0  0  0  0  0  0  0  0
   10.7780  -17.9085   28.0220 O   0  0  0  0  0  0  0  0  0  0  0  0
  2  1  1  1
  3  2  1  0
  4  5  2  0
  4  2  1  0
  6  4  1  0
  7  6  1  0
  7  8  1  1
  8  9  1  0
  9 10  2  0
  9 14  1  0
 10 11  1  0
 11 12  2  0
 13 12  1  0
 14 13  2  0
 15 16  2  0
 15  7  1  0
 18 17  1  0
 19 18  2  0
 20 18  1  0
 22 21  1  6
 21 20  1  0
 22 23  1  0
 23 15  1  0
 24 22  1  0
 25 24  2  0
 26 24  1  0
M  END
$$$$
