AFQ.pdb
     RDKit          3D

 26 26  0  0  1  0  0  0  0  0999 V2000
    7.4968  -19.1279   21.3654 C   0  0  0  0  0  0  0  0  0  0  0  0
    7.7854  -17.7570   20.7720 C   0  0  2  0  0  0  0  0  0  0  0  0
    8.9230  -17.9169   19.8920 N   0  0  0  0  0  0  0  0  0  0  0  0
    8.1851  -16.8275   21.8611 C   0  0  0  0  0  0  0  0  0  0  0  0
    9.3742  -16.7371   22.2615 O   0  0  0  0  0  0  0  0  0  0  0  0
    7.2116  -16.0248   22.4643 N   0  0  0  0  0  0  0  0  0  0  0  0
    7.5691  -15.1207   23.5628 C   0  0  1  0  0  0  0  0  0  0  0  0
    6.6098  -13.9662   23.5925 C   0  0  0  0  0  0  0  0  0  0  0  0
    6.7779  -13.1124   24.7718 C   0  0  0  0  0  0  0  0  0  0  0  0
    5.9658  -13.1599   25.8848 C   0  0  0  0  0  0  0  0  0  0  0  0
    6.1663  -12.3710   26.9980 C   0  0  0  0  0  0  0  0  0  0  0  0
    7.2159  -11.4817   27.0381 C   0  0  0  0  0  0  0  0  0  0  0  0
    8.0481  -11.4081   25.9420 C   0  0  0  0  0  0  0  0  0  0  0  0
    7.8443  -12.1987   24.8306 C   0  0  0  0  0  0  0  0  0  0  0  0
    7.6028  -15.9319   24.7989 C   0  0  0  0  0  0  0  0  0  0  0  0
    6.5820  -16.6257   25.1149 O   0  0  0  0  0  0  0  0  0  0  0  0
    7.0129  -20.9082   25.8755 N   0  0  0  0  0  0  0  0  0  0  0  0
    7.7695  -20.4658   27.0046 C   0  0  0  0  0  0  0  0  0  0  0  0
    7.3946  -20.8292   28.1246 O   0  0  0  0  0  0  0  0  0  0  0  0
    8.9510  -19.6068   26.8262 C   0  0  0  0  0  0  0  0  0  0  0  0
    8.7399  -18.4187   25.9510 C   0  0  0  0  0  0  0  0  0  0  0  0
    8.9783  -17.1062   26.5915 C   0  0  2  0  0  0  0  0  0  0  0  0
    8.7224  -15.9901   25.6678 N   0  0  0  0  0  0  0  0  0  0  0  0
   10.2547  -16.9558   27.3138 C   0  0  0  0  0  0  0  0  0  0  0  0
   10.3756  -17.1890   28.5364 O   0  0  0  0  0  0  0  0  0  0  0  0
   11.4285  -16.5343   26.6692 O   0  0  0  0  0  0  0  0  0  0  0  0
  2  1  1  1
  3  2  1  0
  4  5  2  0
  4  2  1  0
  6  4  1  0
  7  6  1  0
  7  8  1  1
  8  9  1  0
  9 10  2  0
  9 14  1  0
 10 11  1  0
 11 12  2  0
 13 12  1  0
 14 13  2  0
 15 16  2  0
 15  7  1  0
 18 17  1  0
 19 18  2  0
 20 18  1  0
 22 21  1  6
 21 20  1  0
 22 23  1  0
 23 15  1  0
 24 22  1  0
 25 24  2  0
 26 24  1  0
M  END
$$$$
