AFQ.pdb
     RDKit          3D

 26 26  0  0  1  0  0  0  0  0999 V2000
    8.3813  -17.8940   19.8786 C   0  0  0  0  0  0  0  0  0  0  0  0
    8.8581  -16.4501   19.8271 C   0  0  2  0  0  0  0  0  0  0  0  0
   10.1761  -16.4695   19.2300 N   0  0  0  0  0  0  0  0  0  0  0  0
    8.9988  -15.9324   21.2135 C   0  0  0  0  0  0  0  0  0  0  0  0
   10.0664  -16.0524   21.8679 O   0  0  0  0  0  0  0  0  0  0  0  0
    7.9121  -15.2899   21.8152 N   0  0  0  0  0  0  0  0  0  0  0  0
    8.0385  -14.7154   23.1589 C   0  0  1  0  0  0  0  0  0  0  0  0
    6.9702  -13.6805   23.3628 C   0  0  0  0  0  0  0  0  0  0  0  0
    6.9717  -13.1147   24.7149 C   0  0  0  0  0  0  0  0  0  0  0  0
    6.1445  -13.5386   25.7330 C   0  0  0  0  0  0  0  0  0  0  0  0
    6.1898  -13.0151   27.0079 C   0  0  0  0  0  0  0  0  0  0  0  0
    7.0897  -12.0210   27.3181 C   0  0  0  0  0  0  0  0  0  0  0  0
    7.9323  -11.5732   26.3237 C   0  0  0  0  0  0  0  0  0  0  0  0
    7.8839  -12.0993   25.0499 C   0  0  0  0  0  0  0  0  0  0  0  0
    8.0033  -15.8413   24.1173 C   0  0  0  0  0  0  0  0  0  0  0  0
    7.3243  -16.8805   23.8304 O   0  0  0  0  0  0  0  0  0  0  0  0
   11.2372  -19.8190   23.0776 N   0  0  0  0  0  0  0  0  0  0  0  0
   11.3345  -19.6021   24.4871 C   0  0  0  0  0  0  0  0  0  0  0  0
   11.1788  -20.5773   25.2299 O   0  0  0  0  0  0  0  0  0  0  0  0
   11.6097  -18.2592   25.0223 C   0  0  0  0  0  0  0  0  0  0  0  0
   10.5920  -17.2245   24.6821 C   0  0  0  0  0  0  0  0  0  0  0  0
    9.6391  -16.8893   25.7635 C   0  0  2  0  0  0  0  0  0  0  0  0
    8.6941  -15.8379   25.3560 N   0  0  0  0  0  0  0  0  0  0  0  0
   10.2249  -16.6336   27.0920 C   0  0  0  0  0  0  0  0  0  0  0  0
   10.7142  -15.5300   27.4182 O   0  0  0  0  0  0  0  0  0  0  0  0
   10.2739  -17.6238   28.0860 O   0  0  0  0  0  0  0  0  0  0  0  0
  2  1  1  1
  3  2  1  0
  4  5  2  0
  4  2  1  0
  6  4  1  0
  7  6  1  0
  7  8  1  1
  8  9  1  0
  9 10  2  0
  9 14  1  0
 10 11  1  0
 11 12  2  0
 13 12  1  0
 14 13  2  0
 15 16  2  0
 15  7  1  0
 18 17  1  0
 19 18  2  0
 20 18  1  0
 22 21  1  6
 21 20  1  0
 22 23  1  0
 23 15  1  0
 24 22  1  0
 25 24  2  0
 26 24  1  0
M  END
$$$$
