AFQ.pdb
     RDKit          3D

 26 26  0  0  1  0  0  0  0  0999 V2000
    9.4838  -18.8084   21.0016 C   0  0  0  0  0  0  0  0  0  0  0  0
    8.9484  -17.4271   20.6551 C   0  0  2  0  0  0  0  0  0  0  0  0
    9.7793  -16.9162   19.5862 N   0  0  0  0  0  0  0  0  0  0  0  0
    9.1188  -16.5289   21.8273 C   0  0  0  0  0  0  0  0  0  0  0  0
   10.2058  -15.9443   22.0703 O   0  0  0  0  0  0  0  0  0  0  0  0
    8.0389  -16.3232   22.6917 N   0  0  0  0  0  0  0  0  0  0  0  0
    8.1409  -15.3602   23.7935 C   0  0  1  0  0  0  0  0  0  0  0  0
    6.7663  -14.8999   24.1841 C   0  0  0  0  0  0  0  0  0  0  0  0
    6.7746  -13.9675   25.3150 C   0  0  0  0  0  0  0  0  0  0  0  0
    6.4287  -14.3107   26.6046 C   0  0  0  0  0  0  0  0  0  0  0  0
    6.4795  -13.4241   27.6596 C   0  0  0  0  0  0  0  0  0  0  0  0
    6.8896  -12.1263   27.4559 C   0  0  0  0  0  0  0  0  0  0  0  0
    7.2430  -11.7488   26.1783 C   0  0  0  0  0  0  0  0  0  0  0  0
    7.1908  -12.6385   25.1259 C   0  0  0  0  0  0  0  0  0  0  0  0
    8.9062  -16.0176   24.8749 C   0  0  0  0  0  0  0  0  0  0  0  0
    8.5368  -17.1645   25.2890 O   0  0  0  0  0  0  0  0  0  0  0  0
   14.9757  -15.6709   25.0788 N   0  0  0  0  0  0  0  0  0  0  0  0
   13.9759  -16.1576   24.1806 C   0  0  0  0  0  0  0  0  0  0  0  0
   14.2693  -16.2347   22.9827 O   0  0  0  0  0  0  0  0  0  0  0  0
   12.6471  -16.5486   24.6775 C   0  0  0  0  0  0  0  0  0  0  0  0
   12.3339  -16.0955   26.0626 C   0  0  0  0  0  0  0  0  0  0  0  0
   10.9058  -16.1587   26.4452 C   0  0  2  0  0  0  0  0  0  0  0  0
   10.0488  -15.4425   25.4878 N   0  0  0  0  0  0  0  0  0  0  0  0
   10.5905  -15.8185   27.8446 C   0  0  0  0  0  0  0  0  0  0  0  0
   11.1408  -16.3748   28.8201 O   0  0  0  0  0  0  0  0  0  0  0  0
    9.6404  -14.8394   28.1758 O   0  0  0  0  0  0  0  0  0  0  0  0
  2  1  1  1
  3  2  1  0
  4  5  2  0
  4  2  1  0
  6  4  1  0
  7  6  1  0
  7  8  1  1
  8  9  1  0
  9 10  2  0
  9 14  1  0
 10 11  1  0
 11 12  2  0
 13 12  1  0
 14 13  2  0
 15 16  2  0
 15  7  1  0
 18 17  1  0
 19 18  2  0
 20 18  1  0
 22 21  1  6
 21 20  1  0
 22 23  1  0
 23 15  1  0
 24 22  1  0
 25 24  2  0
 26 24  1  0
M  END
$$$$
