AFQ.pdb
     RDKit          3D

 26 26  0  0  1  0  0  0  0  0999 V2000
    9.0674  -18.2178   20.4609 C   0  0  0  0  0  0  0  0  0  0  0  0
    9.3069  -16.7228   20.3110 C   0  0  2  0  0  0  0  0  0  0  0  0
   10.6061  -16.5707   19.6923 N   0  0  0  0  0  0  0  0  0  0  0  0
    9.3742  -16.1012   21.6598 C   0  0  0  0  0  0  0  0  0  0  0  0
   10.4234  -16.1190   22.3535 O   0  0  0  0  0  0  0  0  0  0  0  0
    8.2371  -15.4748   22.1796 N   0  0  0  0  0  0  0  0  0  0  0  0
    8.2683  -14.8640   23.5129 C   0  0  1  0  0  0  0  0  0  0  0  0
    7.1185  -13.9087   23.6524 C   0  0  0  0  0  0  0  0  0  0  0  0
    7.0691  -13.2601   24.9657 C   0  0  0  0  0  0  0  0  0  0  0  0
    7.9564  -12.2922   25.3857 C   0  0  0  0  0  0  0  0  0  0  0  0
    7.8675  -11.6701   26.6131 C   0  0  0  0  0  0  0  0  0  0  0  0
    6.8593  -12.0036   27.4885 C   0  0  0  0  0  0  0  0  0  0  0  0
    5.9540  -12.9679   27.1009 C   0  0  0  0  0  0  0  0  0  0  0  0
    6.0464  -13.5878   25.8724 C   0  0  0  0  0  0  0  0  0  0  0  0
    8.2805  -15.9687   24.4961 C   0  0  0  0  0  0  0  0  0  0  0  0
    7.5629  -16.9994   24.2817 O   0  0  0  0  0  0  0  0  0  0  0  0
   11.4453  -19.8403   23.4543 N   0  0  0  0  0  0  0  0  0  0  0  0
   11.5086  -20.1646   24.8449 C   0  0  0  0  0  0  0  0  0  0  0  0
   12.0788  -21.2133   25.1642 O   0  0  0  0  0  0  0  0  0  0  0  0
   10.9106  -19.2728   25.8512 C   0  0  0  0  0  0  0  0  0  0  0  0
   10.2779  -18.0392   25.3035 C   0  0  0  0  0  0  0  0  0  0  0  0
    9.6223  -17.1638   26.3004 C   0  0  2  0  0  0  0  0  0  0  0  0
    9.0586  -15.9539   25.6820 N   0  0  0  0  0  0  0  0  0  0  0  0
   10.4012  -16.8626   27.5154 C   0  0  0  0  0  0  0  0  0  0  0  0
   10.9159  -17.7501   28.2304 O   0  0  0  0  0  0  0  0  0  0  0  0
   10.6155  -15.5462   27.9538 O   0  0  0  0  0  0  0  0  0  0  0  0
  2  1  1  1
  3  2  1  0
  4  5  2  0
  4  2  1  0
  6  4  1  0
  7  6  1  0
  7  8  1  1
  8  9  1  0
  9 10  2  0
  9 14  1  0
 10 11  1  0
 11 12  2  0
 13 12  1  0
 14 13  2  0
 15 16  2  0
 15  7  1  0
 18 17  1  0
 19 18  2  0
 20 18  1  0
 22 21  1  6
 21 20  1  0
 22 23  1  0
 23 15  1  0
 24 22  1  0
 25 24  2  0
 26 24  1  0
M  END
$$$$
