AFQ.pdb
     RDKit          3D

 26 26  0  0  1  0  0  0  0  0999 V2000
    9.6994  -18.7397   20.8797 C   0  0  0  0  0  0  0  0  0  0  0  0
    9.2424  -17.3625   20.4220 C   0  0  2  0  0  0  0  0  0  0  0  0
   10.1446  -16.9556   19.3663 N   0  0  0  0  0  0  0  0  0  0  0  0
    9.3967  -16.3989   21.5434 C   0  0  0  0  0  0  0  0  0  0  0  0
   10.4805  -15.8008   21.7679 O   0  0  0  0  0  0  0  0  0  0  0  0
    8.3049  -16.1448   22.3796 N   0  0  0  0  0  0  0  0  0  0  0  0
    8.4295  -15.2082   23.5016 C   0  0  1  0  0  0  0  0  0  0  0  0
    7.1049  -14.5465   23.7499 C   0  0  0  0  0  0  0  0  0  0  0  0
    7.0902  -13.7349   24.9702 C   0  0  0  0  0  0  0  0  0  0  0  0
    7.7156  -12.5127   25.0955 C   0  0  0  0  0  0  0  0  0  0  0  0
    7.6569  -11.7504   26.2431 C   0  0  0  0  0  0  0  0  0  0  0  0
    6.9506  -12.1965   27.3368 C   0  0  0  0  0  0  0  0  0  0  0  0
    6.3128  -13.4149   27.2464 C   0  0  0  0  0  0  0  0  0  0  0  0
    6.3739  -14.1742   26.0968 C   0  0  0  0  0  0  0  0  0  0  0  0
    8.9659  -15.9734   24.6480 C   0  0  0  0  0  0  0  0  0  0  0  0
    8.3918  -17.0564   24.9955 O   0  0  0  0  0  0  0  0  0  0  0  0
   13.5939  -16.2058   22.8650 N   0  0  0  0  0  0  0  0  0  0  0  0
   13.6246  -16.1774   24.2938 C   0  0  0  0  0  0  0  0  0  0  0  0
   14.4249  -15.4071   24.8353 O   0  0  0  0  0  0  0  0  0  0  0  0
   12.7300  -17.0410   25.0808 C   0  0  0  0  0  0  0  0  0  0  0  0
   12.1956  -16.4244   26.3283 C   0  0  0  0  0  0  0  0  0  0  0  0
   10.7206  -16.3981   26.4438 C   0  0  2  0  0  0  0  0  0  0  0  0
   10.1026  -15.5717   25.3953 N   0  0  0  0  0  0  0  0  0  0  0  0
   10.1770  -16.1054   27.7826 C   0  0  0  0  0  0  0  0  0  0  0  0
    9.7484  -14.9774   28.1107 O   0  0  0  0  0  0  0  0  0  0  0  0
   10.1072  -17.0840   28.7869 O   0  0  0  0  0  0  0  0  0  0  0  0
  2  1  1  1
  3  2  1  0
  4  5  2  0
  4  2  1  0
  6  4  1  0
  7  6  1  0
  7  8  1  1
  8  9  1  0
  9 10  2  0
  9 14  1  0
 10 11  1  0
 11 12  2  0
 13 12  1  0
 14 13  2  0
 15 16  2  0
 15  7  1  0
 18 17  1  0
 19 18  2  0
 20 18  1  0
 22 21  1  1
 21 20  1  0
 22 23  1  0
 23 15  1  0
 24 22  1  0
 25 24  2  0
 26 24  1  0
M  END
$$$$
