AFQ.pdb
     RDKit          3D

 26 26  0  0  1  0  0  0  0  0999 V2000
    9.6436  -16.8866   19.4630 C   0  0  0  0  0  0  0  0  0  0  0  0
    9.7077  -17.3898   20.8974 C   0  0  2  0  0  0  0  0  0  0  0  0
    8.5080  -18.1682   21.1181 N   0  0  0  0  0  0  0  0  0  0  0  0
    9.6686  -16.2285   21.8247 C   0  0  0  0  0  0  0  0  0  0  0  0
   10.5977  -15.3820   21.8772 O   0  0  0  0  0  0  0  0  0  0  0  0
    8.5653  -16.0664   22.6687 N   0  0  0  0  0  0  0  0  0  0  0  0
    8.4767  -14.9069   23.5628 C   0  0  1  0  0  0  0  0  0  0  0  0
    7.0410  -14.4898   23.7000 C   0  0  0  0  0  0  0  0  0  0  0  0
    6.8376  -13.4682   24.7310 C   0  0  0  0  0  0  0  0  0  0  0  0
    6.1942  -13.6940   25.9291 C   0  0  0  0  0  0  0  0  0  0  0  0
    6.0471  -12.7253   26.8995 C   0  0  0  0  0  0  0  0  0  0  0  0
    6.5526  -11.4610   26.6999 C   0  0  0  0  0  0  0  0  0  0  0  0
    7.2021  -11.2002   25.5126 C   0  0  0  0  0  0  0  0  0  0  0  0
    7.3472  -12.1717   24.5446 C   0  0  0  0  0  0  0  0  0  0  0  0
    9.1373  -15.2851   24.8308 C   0  0  0  0  0  0  0  0  0  0  0  0
    8.7221  -14.7777   25.9233 O   0  0  0  0  0  0  0  0  0  0  0  0
    7.0864  -19.4411   27.2234 N   0  0  0  0  0  0  0  0  0  0  0  0
    8.2654  -19.4895   28.0300 C   0  0  0  0  0  0  0  0  0  0  0  0
    8.2649  -20.2528   29.0017 O   0  0  0  0  0  0  0  0  0  0  0  0
    9.4319  -18.6534   27.7047 C   0  0  0  0  0  0  0  0  0  0  0  0
    9.2610  -17.7674   26.5182 C   0  0  0  0  0  0  0  0  0  0  0  0
   10.4801  -17.0553   26.0748 C   0  0  2  0  0  0  0  0  0  0  0  0
   10.2208  -16.1971   24.9083 N   0  0  0  0  0  0  0  0  0  0  0  0
   11.6913  -17.8791   25.9076 C   0  0  0  0  0  0  0  0  0  0  0  0
   12.1842  -18.5591   26.8342 O   0  0  0  0  0  0  0  0  0  0  0  0
   12.3781  -17.9519   24.6854 O   0  0  0  0  0  0  0  0  0  0  0  0
  2  1  1  6
  3  2  1  0
  4  5  2  0
  4  2  1  0
  6  4  1  0
  7  6  1  0
  7  8  1  1
  8  9  1  0
  9 10  2  0
  9 14  1  0
 10 11  1  0
 11 12  2  0
 13 12  1  0
 14 13  2  0
 15 16  2  0
 15  7  1  0
 18 17  1  0
 19 18  2  0
 20 18  1  0
 22 21  1  6
 21 20  1  0
 22 23  1  0
 23 15  1  0
 24 22  1  0
 25 24  2  0
 26 24  1  0
M  END
$$$$
