AFQ.pdb
     RDKit          3D

 26 26  0  0  1  0  0  0  0  0999 V2000
   10.1303  -18.9713   21.4627 C   0  0  0  0  0  0  0  0  0  0  0  0
    9.3015  -17.8475   20.8585 C   0  0  2  0  0  0  0  0  0  0  0  0
    9.9373  -17.4885   19.6091 N   0  0  0  0  0  0  0  0  0  0  0  0
    9.3617  -16.6611   21.7523 C   0  0  0  0  0  0  0  0  0  0  0  0
   10.2901  -15.8152   21.6805 O   0  0  0  0  0  0  0  0  0  0  0  0
    8.3562  -16.4740   22.7061 N   0  0  0  0  0  0  0  0  0  0  0  0
    8.2686  -15.2174   23.4577 C   0  0  1  0  0  0  0  0  0  0  0  0
    6.8982  -15.0877   24.0570 C   0  0  0  0  0  0  0  0  0  0  0  0
    6.7814  -13.9544   24.9791 C   0  0  0  0  0  0  0  0  0  0  0  0
    6.5987  -14.0784   26.3398 C   0  0  0  0  0  0  0  0  0  0  0  0
    6.5282  -12.9967   27.1922 C   0  0  0  0  0  0  0  0  0  0  0  0
    6.6411  -11.7167   26.6994 C   0  0  0  0  0  0  0  0  0  0  0  0
    6.8246  -11.5558   25.3430 C   0  0  0  0  0  0  0  0  0  0  0  0
    6.8946  -12.6403   24.4939 C   0  0  0  0  0  0  0  0  0  0  0  0
    9.3769  -15.2194   24.4370 C   0  0  0  0  0  0  0  0  0  0  0  0
    9.6456  -14.1490   25.0737 O   0  0  0  0  0  0  0  0  0  0  0  0
   10.4312  -14.0734   30.2384 N   0  0  0  0  0  0  0  0  0  0  0  0
   10.4323  -15.2402   29.4129 C   0  0  0  0  0  0  0  0  0  0  0  0
   10.0861  -16.3084   29.9287 O   0  0  0  0  0  0  0  0  0  0  0  0
   10.8348  -15.1591   27.9997 C   0  0  0  0  0  0  0  0  0  0  0  0
   10.3994  -16.3065   27.1536 C   0  0  0  0  0  0  0  0  0  0  0  0
   11.1000  -16.4433   25.8573 C   0  0  2  0  0  0  0  0  0  0  0  0
   10.1708  -16.3603   24.7198 N   0  0  0  0  0  0  0  0  0  0  0  0
   12.0337  -17.5779   25.7379 C   0  0  0  0  0  0  0  0  0  0  0  0
   12.9544  -17.7899   26.5573 O   0  0  0  0  0  0  0  0  0  0  0  0
   11.9501  -18.5019   24.6842 O   0  0  0  0  0  0  0  0  0  0  0  0
  2  1  1  1
  3  2  1  0
  4  5  2  0
  4  2  1  0
  6  4  1  0
  7  6  1  0
  7  8  1  1
  8  9  1  0
  9 10  2  0
  9 14  1  0
 10 11  1  0
 11 12  2  0
 13 12  1  0
 14 13  2  0
 15 16  2  0
 15  7  1  0
 18 17  1  0
 19 18  2  0
 20 18  1  0
 22 21  1  1
 21 20  1  0
 22 23  1  0
 23 15  1  0
 24 22  1  0
 25 24  2  0
 26 24  1  0
M  END
$$$$
