AFQ.pdb
     RDKit          3D

 26 26  0  0  1  0  0  0  0  0999 V2000
    7.4289  -16.8793   20.1988 C   0  0  0  0  0  0  0  0  0  0  0  0
    7.1990  -15.4678   20.7180 C   0  0  2  0  0  0  0  0  0  0  0  0
    7.7513  -14.5670   19.7295 N   0  0  0  0  0  0  0  0  0  0  0  0
    7.9656  -15.2798   21.9777 C   0  0  0  0  0  0  0  0  0  0  0  0
    9.1614  -14.8892   21.9818 O   0  0  0  0  0  0  0  0  0  0  0  0
    7.3423  -15.5441   23.2015 N   0  0  0  0  0  0  0  0  0  0  0  0
    8.0200  -15.2312   24.4642 C   0  0  1  0  0  0  0  0  0  0  0  0
    6.9955  -14.9856   25.5339 C   0  0  0  0  0  0  0  0  0  0  0  0
    6.8659  -13.5693   25.8881 C   0  0  0  0  0  0  0  0  0  0  0  0
    7.8632  -12.6332   25.7158 C   0  0  0  0  0  0  0  0  0  0  0  0
    7.7048  -11.2982   26.0231 C   0  0  0  0  0  0  0  0  0  0  0  0
    6.5093  -10.8398   26.5279 C   0  0  0  0  0  0  0  0  0  0  0  0
    5.4900  -11.7488   26.7130 C   0  0  0  0  0  0  0  0  0  0  0  0
    5.6525  -13.0831   26.4044 C   0  0  0  0  0  0  0  0  0  0  0  0
    8.9540  -16.3436   24.7427 C   0  0  0  0  0  0  0  0  0  0  0  0
    8.5155  -17.5398   24.7352 O   0  0  0  0  0  0  0  0  0  0  0  0
   15.1321  -16.5504   23.5756 N   0  0  0  0  0  0  0  0  0  0  0  0
   13.9668  -16.0880   22.8891 C   0  0  0  0  0  0  0  0  0  0  0  0
   14.1266  -15.5349   21.7957 O   0  0  0  0  0  0  0  0  0  0  0  0
   12.6292  -16.2694   23.4751 C   0  0  0  0  0  0  0  0  0  0  0  0
   12.5998  -17.0360   24.7532 C   0  0  0  0  0  0  0  0  0  0  0  0
   11.2556  -17.2616   25.3293 C   0  0  2  0  0  0  0  0  0  0  0  0
   10.3330  -16.1587   25.0183 N   0  0  0  0  0  0  0  0  0  0  0  0
   11.2125  -17.6454   26.7521 C   0  0  0  0  0  0  0  0  0  0  0  0
   10.5606  -17.0087   27.6086 O   0  0  0  0  0  0  0  0  0  0  0  0
   11.9099  -18.7607   27.2428 O   0  0  0  0  0  0  0  0  0  0  0  0
  2  1  1  6
  3  2  1  0
  4  5  2  0
  4  2  1  0
  6  4  1  0
  7  6  1  0
  7  8  1  1
  8  9  1  0
  9 10  2  0
  9 14  1  0
 10 11  1  0
 11 12  2  0
 13 12  1  0
 14 13  2  0
 15 16  2  0
 15  7  1  0
 18 17  1  0
 19 18  2  0
 20 18  1  0
 22 21  1  1
 21 20  1  0
 22 23  1  0
 23 15  1  0
 24 22  1  0
 25 24  2  0
 26 24  1  0
M  END
$$$$
