AFQ.pdb
     RDKit          3D

 26 26  0  0  1  0  0  0  0  0999 V2000
    8.3639  -18.2269   19.8202 C   0  0  0  0  0  0  0  0  0  0  0  0
    8.6960  -16.7544   19.6296 C   0  0  2  0  0  0  0  0  0  0  0  0
    9.9532  -16.7017   18.9152 N   0  0  0  0  0  0  0  0  0  0  0  0
    8.9065  -16.1250   20.9599 C   0  0  0  0  0  0  0  0  0  0  0  0
   10.0260  -16.1306   21.5336 O   0  0  0  0  0  0  0  0  0  0  0  0
    7.8284  -15.5049   21.5994 N   0  0  0  0  0  0  0  0  0  0  0  0
    8.0095  -14.8564   22.9026 C   0  0  1  0  0  0  0  0  0  0  0  0
    6.9211  -13.8439   23.1128 C   0  0  0  0  0  0  0  0  0  0  0  0
    6.9521  -13.2387   24.4473 C   0  0  0  0  0  0  0  0  0  0  0  0
    6.1590  -13.6429   25.4999 C   0  0  0  0  0  0  0  0  0  0  0  0
    6.2323  -13.0817   26.7574 C   0  0  0  0  0  0  0  0  0  0  0  0
    7.1268  -12.0676   27.0134 C   0  0  0  0  0  0  0  0  0  0  0  0
    7.9357  -11.6385   25.9833 C   0  0  0  0  0  0  0  0  0  0  0  0
    7.8594  -12.2024   24.7271 C   0  0  0  0  0  0  0  0  0  0  0  0
    8.0631  -15.9304   23.9180 C   0  0  0  0  0  0  0  0  0  0  0  0
    7.2084  -16.8740   23.8701 O   0  0  0  0  0  0  0  0  0  0  0  0
   13.0740  -19.5558   23.8909 N   0  0  0  0  0  0  0  0  0  0  0  0
   11.6552  -19.4544   23.7499 C   0  0  0  0  0  0  0  0  0  0  0  0
   11.0418  -20.4615   23.3804 O   0  0  0  0  0  0  0  0  0  0  0  0
   10.9613  -18.1888   24.0367 C   0  0  0  0  0  0  0  0  0  0  0  0
    9.6866  -18.3272   24.7971 C   0  0  0  0  0  0  0  0  0  0  0  0
    9.3601  -17.2029   25.7020 C   0  0  2  0  0  0  0  0  0  0  0  0
    9.0265  -15.9784   24.9578 N   0  0  0  0  0  0  0  0  0  0  0  0
   10.3126  -16.9514   26.7987 C   0  0  0  0  0  0  0  0  0  0  0  0
   10.5622  -17.7934   27.6890 O   0  0  0  0  0  0  0  0  0  0  0  0
   11.0064  -15.7366   26.9171 O   0  0  0  0  0  0  0  0  0  0  0  0
  2  1  1  1
  3  2  1  0
  4  5  2  0
  4  2  1  0
  6  4  1  0
  7  6  1  0
  7  8  1  1
  8  9  1  0
  9 10  2  0
  9 14  1  0
 10 11  1  0
 11 12  2  0
 13 12  1  0
 14 13  2  0
 15 16  2  0
 15  7  1  0
 18 17  1  0
 19 18  2  0
 20 18  1  0
 22 21  1  6
 21 20  1  0
 22 23  1  0
 23 15  1  0
 24 22  1  0
 25 24  2  0
 26 24  1  0
M  END
$$$$
