AFQ.pdb
     RDKit          3D

 26 26  0  0  1  0  0  0  0  0999 V2000
    9.4141  -18.5100   20.6910 C   0  0  0  0  0  0  0  0  0  0  0  0
    9.0501  -17.0731   20.3480 C   0  0  2  0  0  0  0  0  0  0  0  0
    9.9976  -16.6327   19.3469 N   0  0  0  0  0  0  0  0  0  0  0  0
    9.2374  -16.2211   21.5517 C   0  0  0  0  0  0  0  0  0  0  0  0
   10.3671  -15.7881   21.8963 O   0  0  0  0  0  0  0  0  0  0  0  0
    8.1249  -15.8866   22.3304 N   0  0  0  0  0  0  0  0  0  0  0  0
    8.2635  -14.9788   23.4743 C   0  0  1  0  0  0  0  0  0  0  0  0
    6.9216  -14.4004   23.8190 C   0  0  0  0  0  0  0  0  0  0  0  0
    6.9525  -13.5567   25.0171 C   0  0  0  0  0  0  0  0  0  0  0  0
    6.3714  -13.8975   26.2198 C   0  0  0  0  0  0  0  0  0  0  0  0
    6.4451  -13.1027   27.3443 C   0  0  0  0  0  0  0  0  0  0  0  0
    7.1220  -11.9051   27.3040 C   0  0  0  0  0  0  0  0  0  0  0  0
    7.7154  -11.5329   26.1170 C   0  0  0  0  0  0  0  0  0  0  0  0
    7.6393  -12.3307   24.9947 C   0  0  0  0  0  0  0  0  0  0  0  0
    8.9067  -15.7468   24.5623 C   0  0  0  0  0  0  0  0  0  0  0  0
    8.5053  -16.9306   24.8087 O   0  0  0  0  0  0  0  0  0  0  0  0
   14.7102  -16.9269   23.2067 N   0  0  0  0  0  0  0  0  0  0  0  0
   14.1736  -16.4743   24.4518 C   0  0  0  0  0  0  0  0  0  0  0  0
   14.9342  -15.8778   25.2216 O   0  0  0  0  0  0  0  0  0  0  0  0
   12.7631  -16.7177   24.7937 C   0  0  0  0  0  0  0  0  0  0  0  0
   12.2435  -15.9129   25.9357 C   0  0  0  0  0  0  0  0  0  0  0  0
   10.8027  -16.0805   26.2290 C   0  0  2  0  0  0  0  0  0  0  0  0
    9.9643  -15.2400   25.3601 N   0  0  0  0  0  0  0  0  0  0  0  0
   10.4114  -15.9873   27.6473 C   0  0  0  0  0  0  0  0  0  0  0  0
    9.8896  -14.9645   28.1428 O   0  0  0  0  0  0  0  0  0  0  0  0
   10.6038  -17.0510   28.5431 O   0  0  0  0  0  0  0  0  0  0  0  0
  2  1  1  1
  3  2  1  0
  4  5  2  0
  4  2  1  0
  6  4  1  0
  7  6  1  0
  7  8  1  1
  8  9  1  0
  9 10  2  0
  9 14  1  0
 10 11  1  0
 11 12  2  0
 13 12  1  0
 14 13  2  0
 15 16  2  0
 15  7  1  0
 18 17  1  0
 19 18  2  0
 20 18  1  0
 22 21  1  1
 21 20  1  0
 22 23  1  0
 23 15  1  0
 24 22  1  0
 25 24  2  0
 26 24  1  0
M  END
$$$$
