FLE.pdb
     RDKit          3D

 29 29  0  0  1  0  0  0  0  0999 V2000
   28.5534  -21.1037  -16.5543 N   0  0  0  0  0  0  0  0  0  0  0  0
   27.7245  -20.1911  -15.8323 C   0  0  1  0  0  0  0  0  0  0  0  0
   26.8324  -19.3735  -16.7563 C   0  0  0  0  0  0  0  0  0  0  0  0
   27.6458  -18.4204  -17.5260 C   0  0  0  0  0  0  0  0  0  0  0  0
   28.1096  -17.2961  -16.8781 C   0  0  0  0  0  0  0  0  0  0  0  0
   28.8724  -16.4011  -17.5959 C   0  0  0  0  0  0  0  0  0  0  0  0
   29.1574  -16.6331  -18.9236 C   0  0  0  0  0  0  0  0  0  0  0  0
   28.6775  -17.7693  -19.5432 C   0  0  0  0  0  0  0  0  0  0  0  0
   27.9196  -18.6758  -18.8621 C   0  0  0  0  0  0  0  0  0  0  0  0
   26.8632  -20.8790  -14.8274 C   0  0  0  0  0  0  0  0  0  0  0  0
   26.3108  -21.9733  -15.1008 O   0  0  0  0  0  0  0  0  0  0  0  0
   23.9682  -20.7678  -10.0967 C   0  0  0  0  0  0  0  0  0  0  0  0
   25.4486  -21.1966  -10.0280 C   0  0  2  0  0  0  0  0  0  0  0  0
   25.9347  -20.7600   -8.6707 C   0  0  0  0  0  0  0  0  0  0  0  0
   26.2090  -20.6360  -11.1661 C   0  0  0  0  0  0  0  0  0  0  0  0
   25.7906  -21.0797  -12.5439 C   0  0  2  0  0  0  0  0  0  0  0  0
   26.6265  -20.3473  -13.5381 N   0  0  0  0  0  0  0  0  0  0  0  0
   24.4006  -20.7840  -12.9111 C   0  0  0  0  0  0  0  0  0  0  0  0
   23.9946  -19.5629  -13.0038 O   0  0  0  0  0  0  0  0  0  0  0  0
   23.3831  -21.7223  -13.2003 N   0  0  0  0  0  0  0  0  0  0  0  0
   22.0257  -21.3202  -13.5980 C   0  0  1  0  0  0  0  0  0  0  0  0
   21.3184  -22.4386  -14.2703 C   0  0  0  0  0  0  0  0  0  0  0  0
   19.9541  -22.0206  -14.7355 C   0  0  0  0  0  0  0  0  0  0  0  0
   19.2533  -23.1514  -15.4236 C   0  0  0  0  0  0  0  0  0  0  0  0
   19.8059  -24.2587  -15.4643 O   0  0  0  0  0  0  0  0  0  0  0  0
   21.3421  -20.8416  -12.3938 C   0  0  0  0  0  0  0  0  0  0  0  0
   21.5796  -21.3145  -11.2616 O   0  0  0  0  0  0  0  0  0  0  0  0
   18.0240  -22.9355  -15.9888 O   0  0  0  0  0  0  0  0  0  0  0  0
   20.3956  -19.8354  -12.4601 O   0  0  0  0  0  0  0  0  0  0  0  0
  2  1  1  6
  2  3  1  0
  2 10  1  0
  4  3  1  0
  4  9  2  0
  5  4  1  0
  6  5  2  0
  6  7  1  0
  7  8  2  0
  8  9  1  0
 10 11  2  0
 13 15  1  0
 13 12  1  6
 14 13  1  0
 16 15  1  1
 16 18  1  0
 17 16  1  0
 17 10  1  0
 18 19  2  0
 20 18  1  0
 20 21  1  0
 21 26  1  0
 22 23  1  0
 21 22  1  1
 24 23  1  0
 24 28  1  0
 25 24  2  0
 26 27  2  0
 26 29  1  0
M  END
$$$$
