FLE.pdb
     RDKit          3D

 29 29  0  0  1  0  0  0  0  0999 V2000
   27.1102  -18.0651   -8.0070 N   0  0  0  0  0  0  0  0  0  0  0  0
   27.1943  -19.4732   -8.2337 C   0  0  1  0  0  0  0  0  0  0  0  0
   26.6436  -20.2759   -7.0630 C   0  0  0  0  0  0  0  0  0  0  0  0
   27.5806  -20.2204   -5.9310 C   0  0  0  0  0  0  0  0  0  0  0  0
   27.6720  -19.0404   -5.2251 C   0  0  0  0  0  0  0  0  0  0  0  0
   28.5486  -18.9847   -4.1636 C   0  0  0  0  0  0  0  0  0  0  0  0
   29.3076  -20.0836   -3.8259 C   0  0  0  0  0  0  0  0  0  0  0  0
   29.1923  -21.2510   -4.5533 C   0  0  0  0  0  0  0  0  0  0  0  0
   28.3344  -21.3401   -5.6098 C   0  0  0  0  0  0  0  0  0  0  0  0
   26.4801  -19.8925   -9.4743 C   0  0  0  0  0  0  0  0  0  0  0  0
   25.5447  -19.1958   -9.9401 O   0  0  0  0  0  0  0  0  0  0  0  0
   30.0217  -20.4351  -12.4309 C   0  0  0  0  0  0  0  0  0  0  0  0
   29.5651  -21.6305  -11.5691 C   0  0  2  0  0  0  0  0  0  0  0  0
   30.6095  -22.6974  -11.7699 C   0  0  0  0  0  0  0  0  0  0  0  0
   28.1890  -22.0381  -11.9267 C   0  0  0  0  0  0  0  0  0  0  0  0
   27.0932  -21.0437  -11.6432 C   0  0  2  0  0  0  0  0  0  0  0  0
   26.8107  -21.0735  -10.1793 N   0  0  0  0  0  0  0  0  0  0  0  0
   25.8058  -21.3153  -12.2937 C   0  0  0  0  0  0  0  0  0  0  0  0
   25.7555  -21.5958  -13.5519 O   0  0  0  0  0  0  0  0  0  0  0  0
   24.5310  -21.3152  -11.6818 N   0  0  0  0  0  0  0  0  0  0  0  0
   23.2921  -21.5614  -12.4346 C   0  0  1  0  0  0  0  0  0  0  0  0
   22.1076  -21.4836  -11.5434 C   0  0  0  0  0  0  0  0  0  0  0  0
   20.8415  -21.7854  -12.2907 C   0  0  0  0  0  0  0  0  0  0  0  0
   19.6551  -21.7304  -11.3782 C   0  0  0  0  0  0  0  0  0  0  0  0
   19.7268  -21.0479  -10.3476 O   0  0  0  0  0  0  0  0  0  0  0  0
   23.2529  -20.5978  -13.5375 C   0  0  0  0  0  0  0  0  0  0  0  0
   23.6528  -19.4210  -13.4072 O   0  0  0  0  0  0  0  0  0  0  0  0
   18.5243  -22.4326  -11.7033 O   0  0  0  0  0  0  0  0  0  0  0  0
   22.7668  -20.9540  -14.7823 O   0  0  0  0  0  0  0  0  0  0  0  0
  2  1  1  1
  2  3  1  0
  2 10  1  0
  4  3  1  0
  4  9  2  0
  5  4  1  0
  6  5  2  0
  6  7  1  0
  7  8  2  0
  8  9  1  0
 10 11  2  0
 13 15  1  0
 13 12  1  6
 14 13  1  0
 16 15  1  1
 16 18  1  0
 17 16  1  0
 17 10  1  0
 18 19  2  0
 20 18  1  0
 20 21  1  0
 21 26  1  0
 22 23  1  0
 21 22  1  1
 24 23  1  0
 24 28  1  0
 25 24  2  0
 26 27  2  0
 26 29  1  0
M  END
$$$$
