FLE.pdb
     RDKit          3D

 29 29  0  0  1  0  0  0  0  0999 V2000
   27.7465  -21.7694  -16.7481 N   0  0  0  0  0  0  0  0  0  0  0  0
   26.8139  -20.8098  -16.2475 C   0  0  1  0  0  0  0  0  0  0  0  0
   25.8316  -20.3534  -17.3176 C   0  0  0  0  0  0  0  0  0  0  0  0
   26.5476  -19.6379  -18.3844 C   0  0  0  0  0  0  0  0  0  0  0  0
   26.8577  -18.3113  -18.1771 C   0  0  0  0  0  0  0  0  0  0  0  0
   27.5288  -17.6378  -19.1742 C   0  0  0  0  0  0  0  0  0  0  0  0
   27.8752  -18.2818  -20.3416 C   0  0  0  0  0  0  0  0  0  0  0  0
   27.5497  -19.6116  -20.5180 C   0  0  0  0  0  0  0  0  0  0  0  0
   26.8859  -20.3079  -19.5514 C   0  0  0  0  0  0  0  0  0  0  0  0
   26.0397  -21.3247  -15.0812 C   0  0  0  0  0  0  0  0  0  0  0  0
   25.6066  -22.5035  -15.0713 O   0  0  0  0  0  0  0  0  0  0  0  0
   23.6997  -20.4740  -10.0500 C   0  0  0  0  0  0  0  0  0  0  0  0
   25.1141  -21.0604  -10.2393 C   0  0  2  0  0  0  0  0  0  0  0  0
   25.8911  -20.6475   -9.0166 C   0  0  0  0  0  0  0  0  0  0  0  0
   25.6984  -20.6135  -11.5225 C   0  0  0  0  0  0  0  0  0  0  0  0
   25.0157  -21.0883  -12.7789 C   0  0  2  0  0  0  0  0  0  0  0  0
   25.7568  -20.5295  -13.9460 N   0  0  0  0  0  0  0  0  0  0  0  0
   23.6267  -20.6465  -12.9522 C   0  0  0  0  0  0  0  0  0  0  0  0
   23.3656  -19.4321  -13.3009 O   0  0  0  0  0  0  0  0  0  0  0  0
   22.4615  -21.4291  -12.7812 N   0  0  0  0  0  0  0  0  0  0  0  0
   21.1108  -20.9005  -13.0230 C   0  0  1  0  0  0  0  0  0  0  0  0
   20.5273  -21.4846  -14.2565 C   0  0  0  0  0  0  0  0  0  0  0  0
   21.1516  -20.8955  -15.4877 C   0  0  0  0  0  0  0  0  0  0  0  0
   20.2413  -19.8879  -16.1199 C   0  0  0  0  0  0  0  0  0  0  0  0
   19.1113  -19.7226  -15.6416 O   0  0  0  0  0  0  0  0  0  0  0  0
   20.3159  -21.1684  -11.8218 C   0  0  0  0  0  0  0  0  0  0  0  0
   20.5562  -22.1351  -11.0671 O   0  0  0  0  0  0  0  0  0  0  0  0
   20.6780  -19.1765  -17.2064 O   0  0  0  0  0  0  0  0  0  0  0  0
   19.2554  -20.3540  -11.4689 O   0  0  0  0  0  0  0  0  0  0  0  0
  2  1  1  6
  2  3  1  0
  2 10  1  0
  4  3  1  0
  4  9  2  0
  5  4  1  0
  6  5  2  0
  6  7  1  0
  7  8  2  0
  8  9  1  0
 10 11  2  0
 13 15  1  0
 13 12  1  1
 14 13  1  0
 16 15  1  1
 16 18  1  0
 17 16  1  0
 17 10  1  0
 18 19  2  0
 20 18  1  0
 20 21  1  0
 21 26  1  0
 22 23  1  0
 21 22  1  6
 24 23  1  0
 24 28  1  0
 25 24  2  0
 26 27  2  0
 26 29  1  0
M  END
$$$$
