FLE.pdb
     RDKit          3D

 29 29  0  0  1  0  0  0  0  0999 V2000
   25.3112  -21.5854  -18.0818 N   0  0  0  0  0  0  0  0  0  0  0  0
   24.6891  -20.5912  -17.2659 C   0  0  1  0  0  0  0  0  0  0  0  0
   23.3774  -20.0993  -17.8623 C   0  0  0  0  0  0  0  0  0  0  0  0
   23.6360  -19.3747  -19.1156 C   0  0  0  0  0  0  0  0  0  0  0  0
   24.0343  -18.0582  -19.0305 C   0  0  0  0  0  0  0  0  0  0  0  0
   24.2778  -17.3763  -20.2026 C   0  0  0  0  0  0  0  0  0  0  0  0
   24.1245  -18.0023  -21.4200 C   0  0  0  0  0  0  0  0  0  0  0  0
   23.7241  -19.3223  -21.4708 C   0  0  0  0  0  0  0  0  0  0  0  0
   23.4747  -20.0265  -20.3298 C   0  0  0  0  0  0  0  0  0  0  0  0
   24.4277  -21.0760  -15.8797 C   0  0  0  0  0  0  0  0  0  0  0  0
   23.8337  -22.1652  -15.6845 O   0  0  0  0  0  0  0  0  0  0  0  0
   27.1122  -22.4273  -12.6354 C   0  0  0  0  0  0  0  0  0  0  0  0
   27.0260  -20.8947  -12.7898 C   0  0  2  0  0  0  0  0  0  0  0  0
   28.1221  -20.3373  -11.9196 C   0  0  0  0  0  0  0  0  0  0  0  0
   25.6681  -20.4110  -12.4587 C   0  0  0  0  0  0  0  0  0  0  0  0
   24.5495  -20.8640  -13.3607 C   0  0  2  0  0  0  0  0  0  0  0  0
   24.8265  -20.3502  -14.7329 N   0  0  0  0  0  0  0  0  0  0  0  0
   23.2143  -20.3594  -13.0184 C   0  0  0  0  0  0  0  0  0  0  0  0
   23.0004  -19.0910  -12.9194 O   0  0  0  0  0  0  0  0  0  0  0  0
   22.0550  -21.1306  -12.7719 N   0  0  0  0  0  0  0  0  0  0  0  0
   20.7546  -20.5238  -12.4510 C   0  0  1  0  0  0  0  0  0  0  0  0
   20.3101  -19.6186  -13.5401 C   0  0  0  0  0  0  0  0  0  0  0  0
   20.4172  -20.2843  -14.8810 C   0  0  0  0  0  0  0  0  0  0  0  0
   19.2733  -19.8938  -15.7655 C   0  0  0  0  0  0  0  0  0  0  0  0
   18.1865  -19.6103  -15.2443 O   0  0  0  0  0  0  0  0  0  0  0  0
   19.8164  -21.6174  -12.1861 C   0  0  0  0  0  0  0  0  0  0  0  0
   18.6603  -21.4130  -11.7575 O   0  0  0  0  0  0  0  0  0  0  0  0
   19.4550  -19.8596  -17.1231 O   0  0  0  0  0  0  0  0  0  0  0  0
   20.1743  -22.9358  -12.4017 O   0  0  0  0  0  0  0  0  0  0  0  0
  2  1  1  6
  2  3  1  0
  2 10  1  0
  4  3  1  0
  4  9  2  0
  5  4  1  0
  6  5  2  0
  6  7  1  0
  7  8  2  0
  8  9  1  0
 10 11  2  0
 13 15  1  0
 13 12  1  1
 14 13  1  0
 16 15  1  1
 16 18  1  0
 17 16  1  0
 17 10  1  0
 18 19  2  0
 20 18  1  0
 20 21  1  0
 21 26  1  0
 22 23  1  0
 21 22  1  6
 24 23  1  0
 24 28  1  0
 25 24  2  0
 26 27  2  0
 26 29  1  0
M  END
$$$$
