FLE.pdb
     RDKit          3D

 29 29  0  0  1  0  0  0  0  0999 V2000
   16.7209  -19.4614    1.5680 N   0  0  0  0  0  0  0  0  0  0  0  0
   16.0498  -18.4732    2.3517 C   0  0  1  0  0  0  0  0  0  0  0  0
   14.9640  -19.0792    3.2303 C   0  0  0  0  0  0  0  0  0  0  0  0
   13.9052  -19.6604    2.3915 C   0  0  0  0  0  0  0  0  0  0  0  0
   13.8035  -21.0337    2.3385 C   0  0  0  0  0  0  0  0  0  0  0  0
   12.8125  -21.5818    1.5539 C   0  0  0  0  0  0  0  0  0  0  0  0
   11.9527  -20.7708    0.8463 C   0  0  0  0  0  0  0  0  0  0  0  0
   12.0813  -19.3985    0.9209 C   0  0  0  0  0  0  0  0  0  0  0  0
   13.0511  -18.8232    1.6880 C   0  0  0  0  0  0  0  0  0  0  0  0
   16.9874  -17.7031    3.2193 C   0  0  0  0  0  0  0  0  0  0  0  0
   17.9613  -18.2723    3.7714 O   0  0  0  0  0  0  0  0  0  0  0  0
   18.4167  -13.0318    5.9253 C   0  0  0  0  0  0  0  0  0  0  0  0
   18.8611  -13.2658    4.4665 C   0  0  2  0  0  0  0  0  0  0  0  0
   18.9819  -11.8946    3.8546 C   0  0  0  0  0  0  0  0  0  0  0  0
   17.9206  -14.1716    3.7719 C   0  0  0  0  0  0  0  0  0  0  0  0
   17.8051  -15.5727    4.3138 C   0  0  2  0  0  0  0  0  0  0  0  0
   16.8339  -16.3180    3.4624 N   0  0  0  0  0  0  0  0  0  0  0  0
   17.2874  -15.6830    5.6828 C   0  0  0  0  0  0  0  0  0  0  0  0
   16.0263  -15.5459    5.9178 O   0  0  0  0  0  0  0  0  0  0  0  0
   18.0370  -15.9419    6.8535 N   0  0  0  0  0  0  0  0  0  0  0  0
   17.4127  -16.0865    8.1769 C   0  0  1  0  0  0  0  0  0  0  0  0
   17.9199  -17.2962    8.8716 C   0  0  0  0  0  0  0  0  0  0  0  0
   17.0946  -18.5043    8.5369 C   0  0  0  0  0  0  0  0  0  0  0  0
   17.5883  -19.7110    9.2741 C   0  0  0  0  0  0  0  0  0  0  0  0
   18.6047  -19.6077    9.9738 O   0  0  0  0  0  0  0  0  0  0  0  0
   17.6624  -14.8459    8.9151 C   0  0  0  0  0  0  0  0  0  0  0  0
   17.0956  -14.5914    9.9994 O   0  0  0  0  0  0  0  0  0  0  0  0
   16.9076  -20.8944    9.1580 O   0  0  0  0  0  0  0  0  0  0  0  0
   18.5454  -13.8944    8.4380 O   0  0  0  0  0  0  0  0  0  0  0  0
  2  1  1  1
  2  3  1  0
  2 10  1  0
  4  3  1  0
  4  9  2  0
  5  4  1  0
  6  5  2  0
  6  7  1  0
  7  8  2  0
  8  9  1  0
 10 11  2  0
 13 15  1  0
 13 12  1  1
 14 13  1  0
 16 15  1  6
 16 18  1  0
 17 16  1  0
 17 10  1  0
 18 19  2  0
 20 18  1  0
 20 21  1  0
 21 26  1  0
 22 23  1  0
 21 22  1  1
 24 23  1  0
 24 28  1  0
 25 24  2  0
 26 27  2  0
 26 29  1  0
M  END
$$$$
