FLE.pdb
     RDKit          3D

 29 29  0  0  1  0  0  0  0  0999 V2000
   27.1663  -21.4469   -7.9538 N   0  0  0  0  0  0  0  0  0  0  0  0
   26.5628  -20.1568   -8.0656 C   0  0  1  0  0  0  0  0  0  0  0  0
   27.5067  -19.0434   -7.6326 C   0  0  0  0  0  0  0  0  0  0  0  0
   28.0243  -19.3196   -6.2841 C   0  0  0  0  0  0  0  0  0  0  0  0
   29.0996  -20.1735   -6.1672 C   0  0  0  0  0  0  0  0  0  0  0  0
   29.5875  -20.4345   -4.9055 C   0  0  0  0  0  0  0  0  0  0  0  0
   29.0094  -19.8529   -3.7986 C   0  0  0  0  0  0  0  0  0  0  0  0
   27.9332  -19.0019   -3.9500 C   0  0  0  0  0  0  0  0  0  0  0  0
   27.4254  -18.7221   -5.1844 C   0  0  0  0  0  0  0  0  0  0  0  0
   26.0921  -19.8679   -9.4511 C   0  0  0  0  0  0  0  0  0  0  0  0
   25.6930  -18.7190   -9.7644 O   0  0  0  0  0  0  0  0  0  0  0  0
   27.4860  -19.1182  -13.8288 C   0  0  0  0  0  0  0  0  0  0  0  0
   27.8214  -20.4690  -13.1630 C   0  0  2  0  0  0  0  0  0  0  0  0
   28.7228  -21.1866  -14.1336 C   0  0  0  0  0  0  0  0  0  0  0  0
   26.5849  -21.2006  -12.8117 C   0  0  0  0  0  0  0  0  0  0  0  0
   25.6423  -20.5168  -11.8557 C   0  0  2  0  0  0  0  0  0  0  0  0
   26.0701  -20.8520  -10.4671 N   0  0  0  0  0  0  0  0  0  0  0  0
   24.2377  -20.9342  -11.9418 C   0  0  0  0  0  0  0  0  0  0  0  0
   23.4946  -20.9496  -10.8873 O   0  0  0  0  0  0  0  0  0  0  0  0
   23.5455  -21.3434  -13.1049 N   0  0  0  0  0  0  0  0  0  0  0  0
   22.0876  -21.2130  -13.2449 C   0  0  1  0  0  0  0  0  0  0  0  0
   21.6617  -19.8041  -13.0529 C   0  0  0  0  0  0  0  0  0  0  0  0
   20.1742  -19.6598  -13.1909 C   0  0  0  0  0  0  0  0  0  0  0  0
   19.7556  -18.2332  -13.0090 C   0  0  0  0  0  0  0  0  0  0  0  0
   20.5296  -17.3347  -13.3649 O   0  0  0  0  0  0  0  0  0  0  0  0
   21.7251  -21.7552  -14.5568 C   0  0  0  0  0  0  0  0  0  0  0  0
   22.4146  -21.5440  -15.5775 O   0  0  0  0  0  0  0  0  0  0  0  0
   18.5326  -17.9573  -12.4562 O   0  0  0  0  0  0  0  0  0  0  0  0
   20.5929  -22.5320  -14.7224 O   0  0  0  0  0  0  0  0  0  0  0  0
  2  1  1  6
  2  3  1  0
  2 10  1  0
  4  3  1  0
  4  9  2  0
  5  4  1  0
  6  5  2  0
  6  7  1  0
  7  8  2  0
  8  9  1  0
 10 11  2  0
 13 15  1  0
 13 12  1  6
 14 13  1  0
 16 15  1  6
 16 18  1  0
 17 16  1  0
 17 10  1  0
 18 19  2  0
 20 18  1  0
 20 21  1  0
 21 26  1  0
 22 23  1  0
 21 22  1  6
 24 23  1  0
 24 28  1  0
 25 24  2  0
 26 27  2  0
 26 29  1  0
M  END
$$$$
