FLE.pdb
     RDKit          3D

 29 29  0  0  1  0  0  0  0  0999 V2000
   27.5058  -20.9811  -17.5170 N   0  0  0  0  0  0  0  0  0  0  0  0
   26.9806  -20.0428  -16.5763 C   0  0  1  0  0  0  0  0  0  0  0  0
   25.9967  -19.0757  -17.2202 C   0  0  0  0  0  0  0  0  0  0  0  0
   26.6969  -18.2149  -18.1851 C   0  0  0  0  0  0  0  0  0  0  0  0
   26.6308  -18.5531  -19.5194 C   0  0  0  0  0  0  0  0  0  0  0  0
   27.2854  -17.7487  -20.4265 C   0  0  0  0  0  0  0  0  0  0  0  0
   27.9834  -16.6400  -20.0009 C   0  0  0  0  0  0  0  0  0  0  0  0
   28.0300  -16.3287  -18.6570 C   0  0  0  0  0  0  0  0  0  0  0  0
   27.3934  -17.1034  -17.7326 C   0  0  0  0  0  0  0  0  0  0  0  0
   26.3062  -20.7096  -15.4250 C   0  0  0  0  0  0  0  0  0  0  0  0
   25.5279  -21.6771  -15.6128 O   0  0  0  0  0  0  0  0  0  0  0  0
   26.0429  -19.9067   -9.2340 C   0  0  0  0  0  0  0  0  0  0  0  0
   25.3847  -20.5534  -10.4704 C   0  0  2  0  0  0  0  0  0  0  0  0
   25.1792  -22.0015  -10.1095 C   0  0  0  0  0  0  0  0  0  0  0  0
   26.2074  -20.3287  -11.6789 C   0  0  0  0  0  0  0  0  0  0  0  0
   25.6329  -20.8063  -12.9873 C   0  0  2  0  0  0  0  0  0  0  0  0
   26.5026  -20.2969  -14.0863 N   0  0  0  0  0  0  0  0  0  0  0  0
   24.2836  -20.3221  -13.3024 C   0  0  0  0  0  0  0  0  0  0  0  0
   24.1040  -19.1168  -13.7261 O   0  0  0  0  0  0  0  0  0  0  0  0
   23.0767  -21.0519  -13.2013 N   0  0  0  0  0  0  0  0  0  0  0  0
   21.7627  -20.4490  -13.4692 C   0  0  1  0  0  0  0  0  0  0  0  0
   21.4324  -20.5213  -14.9145 C   0  0  0  0  0  0  0  0  0  0  0  0
   20.2839  -21.4542  -15.1660 C   0  0  0  0  0  0  0  0  0  0  0  0
   19.4492  -20.9781  -16.3149 C   0  0  0  0  0  0  0  0  0  0  0  0
   19.7379  -19.9026  -16.8563 O   0  0  0  0  0  0  0  0  0  0  0  0
   20.7870  -21.1321  -12.6161 C   0  0  0  0  0  0  0  0  0  0  0  0
   19.7464  -20.5694  -12.2131 O   0  0  0  0  0  0  0  0  0  0  0  0
   18.3915  -21.7396  -16.7378 O   0  0  0  0  0  0  0  0  0  0  0  0
   20.9785  -22.4423  -12.2169 O   0  0  0  0  0  0  0  0  0  0  0  0
  2  1  1  6
  2  3  1  0
  2 10  1  0
  4  3  1  0
  4  9  2  0
  5  4  1  0
  6  5  2  0
  6  7  1  0
  7  8  2  0
  8  9  1  0
 10 11  2  0
 13 15  1  0
 13 12  1  1
 14 13  1  0
 16 15  1  1
 16 18  1  0
 17 16  1  0
 17 10  1  0
 18 19  2  0
 20 18  1  0
 20 21  1  0
 21 26  1  0
 22 23  1  0
 21 22  1  6
 24 23  1  0
 24 28  1  0
 25 24  2  0
 26 27  2  0
 26 29  1  0
M  END
$$$$
