FLE.pdb
     RDKit          3D

 29 29  0  0  1  0  0  0  0  0999 V2000
   24.4777  -20.7941  -17.5612 N   0  0  0  0  0  0  0  0  0  0  0  0
   23.3893  -19.9396  -17.9166 C   0  0  1  0  0  0  0  0  0  0  0  0
   22.6736  -20.4160  -19.1731 C   0  0  0  0  0  0  0  0  0  0  0  0
   23.5175  -20.1763  -20.3534 C   0  0  0  0  0  0  0  0  0  0  0  0
   24.2746  -21.2244  -20.8300 C   0  0  0  0  0  0  0  0  0  0  0  0
   25.0662  -21.0037  -21.9358 C   0  0  0  0  0  0  0  0  0  0  0  0
   25.0927  -19.7662  -22.5404 C   0  0  0  0  0  0  0  0  0  0  0  0
   24.3222  -18.7369  -22.0380 C   0  0  0  0  0  0  0  0  0  0  0  0
   23.5276  -18.9213  -20.9451 C   0  0  0  0  0  0  0  0  0  0  0  0
   22.3869  -19.8103  -16.8196 C   0  0  0  0  0  0  0  0  0  0  0  0
   22.2075  -20.7480  -16.0036 O   0  0  0  0  0  0  0  0  0  0  0  0
   19.7750  -15.0547  -13.8828 C   0  0  0  0  0  0  0  0  0  0  0  0
   19.7928  -16.5915  -14.0169 C   0  0  2  0  0  0  0  0  0  0  0  0
   20.1025  -17.1151  -12.6387 C   0  0  0  0  0  0  0  0  0  0  0  0
   20.7452  -17.0142  -15.0666 C   0  0  0  0  0  0  0  0  0  0  0  0
   20.7423  -18.4752  -15.4348 C   0  0  2  0  0  0  0  0  0  0  0  0
   21.5998  -18.6484  -16.6424 N   0  0  0  0  0  0  0  0  0  0  0  0
   19.4358  -19.0347  -15.8017 C   0  0  0  0  0  0  0  0  0  0  0  0
   18.8528  -18.6718  -16.8938 O   0  0  0  0  0  0  0  0  0  0  0  0
   18.6859  -19.9847  -15.0707 N   0  0  0  0  0  0  0  0  0  0  0  0
   17.3858  -20.4922  -15.5336 C   0  0  1  0  0  0  0  0  0  0  0  0
   17.3326  -21.9727  -15.4412 C   0  0  0  0  0  0  0  0  0  0  0  0
   17.5448  -22.4396  -14.0307 C   0  0  0  0  0  0  0  0  0  0  0  0
   16.3036  -23.0758  -13.4849 C   0  0  0  0  0  0  0  0  0  0  0  0
   15.4614  -22.3588  -12.9284 O   0  0  0  0  0  0  0  0  0  0  0  0
   16.3496  -19.8238  -14.7425 C   0  0  0  0  0  0  0  0  0  0  0  0
   15.1314  -19.9835  -14.9712 O   0  0  0  0  0  0  0  0  0  0  0  0
   16.1299  -24.4288  -13.6134 O   0  0  0  0  0  0  0  0  0  0  0  0
   16.6796  -18.9795  -13.6980 O   0  0  0  0  0  0  0  0  0  0  0  0
  2  1  1  1
  2  3  1  0
  2 10  1  0
  4  3  1  0
  4  9  2  0
  5  4  1  0
  6  5  2  0
  6  7  1  0
  7  8  2  0
  8  9  1  0
 10 11  2  0
 13 15  1  0
 13 12  1  1
 14 13  1  0
 16 15  1  6
 16 18  1  0
 17 16  1  0
 17 10  1  0
 18 19  2  0
 20 18  1  0
 20 21  1  0
 21 26  1  0
 22 23  1  0
 21 22  1  1
 24 23  1  0
 24 28  1  0
 25 24  2  0
 26 27  2  0
 26 29  1  0
M  END
$$$$
