FLE.pdb
     RDKit          3D

 29 29  0  0  1  0  0  0  0  0999 V2000
   15.8942  -23.6952   -2.8945 N   0  0  0  0  0  0  0  0  0  0  0  0
   15.0313  -23.1115   -1.9169 C   0  0  1  0  0  0  0  0  0  0  0  0
   13.7993  -23.9673   -1.6561 C   0  0  0  0  0  0  0  0  0  0  0  0
   12.9592  -24.0192   -2.8619 C   0  0  0  0  0  0  0  0  0  0  0  0
   13.0531  -25.1334   -3.6674 C   0  0  0  0  0  0  0  0  0  0  0  0
   12.2672  -25.1857   -4.7978 C   0  0  0  0  0  0  0  0  0  0  0  0
   11.4150  -24.1479   -5.1050 C   0  0  0  0  0  0  0  0  0  0  0  0
   11.3446  -23.0456   -4.2771 C   0  0  0  0  0  0  0  0  0  0  0  0
   12.1085  -22.9617   -3.1505 C   0  0  0  0  0  0  0  0  0  0  0  0
   15.7248  -22.8699   -0.6187 C   0  0  0  0  0  0  0  0  0  0  0  0
   16.5827  -23.6815   -0.1912 O   0  0  0  0  0  0  0  0  0  0  0  0
   16.9786  -19.2526    3.4521 C   0  0  0  0  0  0  0  0  0  0  0  0
   17.5418  -19.1423    2.0200 C   0  0  2  0  0  0  0  0  0  0  0  0
   17.7538  -17.6704    1.7799 C   0  0  0  0  0  0  0  0  0  0  0  0
   16.6404  -19.8027    1.0510 C   0  0  0  0  0  0  0  0  0  0  0  0
   16.4293  -21.2845    1.2240 C   0  0  2  0  0  0  0  0  0  0  0  0
   15.4595  -21.7367    0.1854 N   0  0  0  0  0  0  0  0  0  0  0  0
   15.8468  -21.6972    2.5065 C   0  0  0  0  0  0  0  0  0  0  0  0
   14.5983  -21.4874    2.7550 O   0  0  0  0  0  0  0  0  0  0  0  0
   16.5161  -22.3410    3.5727 N   0  0  0  0  0  0  0  0  0  0  0  0
   15.8530  -22.6598    4.8458 C   0  0  1  0  0  0  0  0  0  0  0  0
   16.4515  -23.8684    5.4657 C   0  0  0  0  0  0  0  0  0  0  0  0
   15.7750  -24.2094    6.7613 C   0  0  0  0  0  0  0  0  0  0  0  0
   14.7253  -25.2582    6.5574 C   0  0  0  0  0  0  0  0  0  0  0  0
   14.5736  -25.7377    5.4259 O   0  0  0  0  0  0  0  0  0  0  0  0
   15.9410  -21.4685    5.6939 C   0  0  0  0  0  0  0  0  0  0  0  0
   15.3388  -21.3832    6.7857 O   0  0  0  0  0  0  0  0  0  0  0  0
   13.9619  -25.6604    7.6216 O   0  0  0  0  0  0  0  0  0  0  0  0
   16.7024  -20.3769    5.3182 O   0  0  0  0  0  0  0  0  0  0  0  0
  2  1  1  6
  2  3  1  0
  2 10  1  0
  4  3  1  0
  4  9  2  0
  5  4  1  0
  6  5  2  0
  6  7  1  0
  7  8  2  0
  8  9  1  0
 10 11  2  0
 13 15  1  0
 13 12  1  1
 14 13  1  0
 16 15  1  1
 16 18  1  0
 17 16  1  0
 17 10  1  0
 18 19  2  0
 20 18  1  0
 20 21  1  0
 21 26  1  0
 22 23  1  0
 21 22  1  1
 24 23  1  0
 24 28  1  0
 25 24  2  0
 26 27  2  0
 26 29  1  0
M  END
$$$$
