FLE.pdb
     RDKit          3D

 29 29  0  0  1  0  0  0  0  0999 V2000
   28.2194  -20.5513  -16.1908 N   0  0  0  0  0  0  0  0  0  0  0  0
   27.5964  -19.7380  -15.1950 C   0  0  1  0  0  0  0  0  0  0  0  0
   26.6862  -18.6812  -15.8056 C   0  0  0  0  0  0  0  0  0  0  0  0
   27.4938  -17.6243  -16.4326 C   0  0  0  0  0  0  0  0  0  0  0  0
   27.7374  -17.7144  -17.7860 C   0  0  0  0  0  0  0  0  0  0  0  0
   28.4933  -16.7257  -18.3770 C   0  0  0  0  0  0  0  0  0  0  0  0
   28.9869  -15.6810  -17.6271 C   0  0  0  0  0  0  0  0  0  0  0  0
   28.7247  -15.6201  -16.2732 C   0  0  0  0  0  0  0  0  0  0  0  0
   27.9800  -16.5819  -15.6566 C   0  0  0  0  0  0  0  0  0  0  0  0
   26.8035  -20.5413  -14.2199 C   0  0  0  0  0  0  0  0  0  0  0  0
   26.2059  -21.5835  -14.5861 O   0  0  0  0  0  0  0  0  0  0  0  0
   24.0065  -20.8398   -9.4548 C   0  0  0  0  0  0  0  0  0  0  0  0
   25.4850  -21.2793   -9.4240 C   0  0  2  0  0  0  0  0  0  0  0  0
   25.9753  -20.9560   -8.0368 C   0  0  0  0  0  0  0  0  0  0  0  0
   26.2461  -20.6320  -10.5146 C   0  0  0  0  0  0  0  0  0  0  0  0
   25.8310  -20.9700  -11.9230 C   0  0  2  0  0  0  0  0  0  0  0  0
   26.6837  -20.1804  -12.8574 N   0  0  0  0  0  0  0  0  0  0  0  0
   24.4477  -20.6291  -12.2760 C   0  0  0  0  0  0  0  0  0  0  0  0
   24.0874  -19.3956  -12.3908 O   0  0  0  0  0  0  0  0  0  0  0  0
   23.3905  -21.5336  -12.5285 N   0  0  0  0  0  0  0  0  0  0  0  0
   22.0632  -21.0925  -12.9821 C   0  0  1  0  0  0  0  0  0  0  0  0
   21.5614  -21.9631  -14.0746 C   0  0  0  0  0  0  0  0  0  0  0  0
   20.1787  -21.5634  -14.4998 C   0  0  0  0  0  0  0  0  0  0  0  0
   19.6938  -22.4261  -15.6240 C   0  0  0  0  0  0  0  0  0  0  0  0
   20.4406  -23.3121  -16.0604 O   0  0  0  0  0  0  0  0  0  0  0  0
   21.1862  -21.0702  -11.8087 C   0  0  0  0  0  0  0  0  0  0  0  0
   21.2927  -21.9027  -10.8827 O   0  0  0  0  0  0  0  0  0  0  0  0
   18.4422  -22.2161  -16.1403 O   0  0  0  0  0  0  0  0  0  0  0  0
   20.1935  -20.1166  -11.6750 O   0  0  0  0  0  0  0  0  0  0  0  0
  2  1  1  6
  2  3  1  0
  2 10  1  0
  4  3  1  0
  4  9  2  0
  5  4  1  0
  6  5  2  0
  6  7  1  0
  7  8  2  0
  8  9  1  0
 10 11  2  0
 13 15  1  0
 13 12  1  1
 14 13  1  0
 16 15  1  1
 16 18  1  0
 17 16  1  0
 17 10  1  0
 18 19  2  0
 20 18  1  0
 20 21  1  0
 21 26  1  0
 22 23  1  0
 21 22  1  6
 24 23  1  0
 24 28  1  0
 25 24  2  0
 26 27  2  0
 26 29  1  0
M  END
$$$$
