FLE.pdb
     RDKit          3D

 29 29  0  0  1  0  0  0  0  0999 V2000
   24.5211  -16.8319  -16.6995 N   0  0  0  0  0  0  0  0  0  0  0  0
   24.3875  -15.7064  -17.5693 C   0  0  1  0  0  0  0  0  0  0  0  0
   23.1139  -15.7731  -18.4009 C   0  0  0  0  0  0  0  0  0  0  0  0
   23.1450  -16.9567  -19.2731 C   0  0  0  0  0  0  0  0  0  0  0  0
   22.3615  -18.0359  -18.9259 C   0  0  0  0  0  0  0  0  0  0  0  0
   22.3878  -19.1465  -19.7409 C   0  0  0  0  0  0  0  0  0  0  0  0
   23.1784  -19.1670  -20.8687 C   0  0  0  0  0  0  0  0  0  0  0  0
   23.9517  -18.0692  -21.1886 C   0  0  0  0  0  0  0  0  0  0  0  0
   23.9492  -16.9539  -20.4038 C   0  0  0  0  0  0  0  0  0  0  0  0
   24.4038  -14.4114  -16.8293 C   0  0  0  0  0  0  0  0  0  0  0  0
   23.7576  -14.2773  -15.7608 O   0  0  0  0  0  0  0  0  0  0  0  0
   27.6825  -12.0892  -14.7390 C   0  0  0  0  0  0  0  0  0  0  0  0
   27.6902  -12.0011  -16.2792 C   0  0  2  0  0  0  0  0  0  0  0  0
   28.9787  -11.3088  -16.6394 C   0  0  0  0  0  0  0  0  0  0  0  0
   26.4686  -11.3274  -16.7708 C   0  0  0  0  0  0  0  0  0  0  0  0
   25.1580  -12.0184  -16.4977 C   0  0  2  0  0  0  0  0  0  0  0  0
   25.1330  -13.2868  -17.2815 N   0  0  0  0  0  0  0  0  0  0  0  0
   23.9554  -11.2836  -16.9081 C   0  0  0  0  0  0  0  0  0  0  0  0
   23.5080  -11.3836  -18.1140 O   0  0  0  0  0  0  0  0  0  0  0  0
   23.1687  -10.4290  -16.1018 N   0  0  0  0  0  0  0  0  0  0  0  0
   21.8568   -9.9224  -16.5312 C   0  0  1  0  0  0  0  0  0  0  0  0
   20.7842  -10.8995  -16.2178 C   0  0  0  0  0  0  0  0  0  0  0  0
   19.4314  -10.3603  -16.5809 C   0  0  0  0  0  0  0  0  0  0  0  0
   18.3704  -11.3986  -16.3825 C   0  0  0  0  0  0  0  0  0  0  0  0
   17.5547  -11.2493  -15.4630 O   0  0  0  0  0  0  0  0  0  0  0  0
   21.6607   -8.6198  -15.8900 C   0  0  0  0  0  0  0  0  0  0  0  0
   20.6579   -7.9100  -16.1185 O   0  0  0  0  0  0  0  0  0  0  0  0
   18.3272  -12.4833  -17.2186 O   0  0  0  0  0  0  0  0  0  0  0  0
   22.5869   -8.1159  -14.9951 O   0  0  0  0  0  0  0  0  0  0  0  0
  2  1  1  1
  2  3  1  0
  2 10  1  0
  4  3  1  0
  4  9  2  0
  5  4  1  0
  6  5  2  0
  6  7  1  0
  7  8  2  0
  8  9  1  0
 10 11  2  0
 13 15  1  0
 13 12  1  1
 14 13  1  0
 16 15  1  6
 16 18  1  0
 17 16  1  0
 17 10  1  0
 18 19  2  0
 20 18  1  0
 20 21  1  0
 21 26  1  0
 22 23  1  0
 21 22  1  1
 24 23  1  0
 24 28  1  0
 25 24  2  0
 26 27  2  0
 26 29  1  0
M  END
$$$$
