FLE.pdb
     RDKit          3D

 29 29  0  0  1  0  0  0  0  0999 V2000
   27.2240  -21.4629   -8.7805 N   0  0  0  0  0  0  0  0  0  0  0  0
   26.0692  -20.6236   -8.8350 C   0  0  1  0  0  0  0  0  0  0  0  0
   26.2687  -19.3240   -8.0673 C   0  0  0  0  0  0  0  0  0  0  0  0
   26.9282  -19.5964   -6.7814 C   0  0  0  0  0  0  0  0  0  0  0  0
   26.3860  -20.5700   -5.9707 C   0  0  0  0  0  0  0  0  0  0  0  0
   27.0014  -20.8282   -4.7654 C   0  0  0  0  0  0  0  0  0  0  0  0
   28.1264  -20.1271   -4.3908 C   0  0  0  0  0  0  0  0  0  0  0  0
   28.6445  -19.1579   -5.2260 C   0  0  0  0  0  0  0  0  0  0  0  0
   28.0602  -18.8772   -6.4259 C   0  0  0  0  0  0  0  0  0  0  0  0
   25.6733  -20.2922  -10.2344 C   0  0  0  0  0  0  0  0  0  0  0  0
   24.8835  -19.3440  -10.4680 O   0  0  0  0  0  0  0  0  0  0  0  0
   27.8233  -18.3671  -13.9577 C   0  0  0  0  0  0  0  0  0  0  0  0
   28.3245  -19.7103  -13.3877 C   0  0  2  0  0  0  0  0  0  0  0  0
   29.5905  -20.0235  -14.1415 C   0  0  0  0  0  0  0  0  0  0  0  0
   27.2735  -20.7461  -13.4881 C   0  0  0  0  0  0  0  0  0  0  0  0
   25.9932  -20.4865  -12.7374 C   0  0  2  0  0  0  0  0  0  0  0  0
   26.1560  -21.0129  -11.3518 N   0  0  0  0  0  0  0  0  0  0  0  0
   24.7990  -21.1537  -13.2695 C   0  0  0  0  0  0  0  0  0  0  0  0
   24.8156  -21.6832  -14.4458 O   0  0  0  0  0  0  0  0  0  0  0  0
   23.5534  -21.3070  -12.6180 N   0  0  0  0  0  0  0  0  0  0  0  0
   22.3949  -21.9408  -13.2648 C   0  0  1  0  0  0  0  0  0  0  0  0
   21.4626  -22.4967  -12.2524 C   0  0  0  0  0  0  0  0  0  0  0  0
   20.7156  -21.4065  -11.5413 C   0  0  0  0  0  0  0  0  0  0  0  0
   19.6975  -21.9786  -10.6035 C   0  0  0  0  0  0  0  0  0  0  0  0
   19.6006  -23.2093  -10.5075 O   0  0  0  0  0  0  0  0  0  0  0  0
   21.7765  -20.9363  -14.1336 C   0  0  0  0  0  0  0  0  0  0  0  0
   21.9957  -19.7135  -13.9975 O   0  0  0  0  0  0  0  0  0  0  0  0
   18.9017  -21.1317   -9.8778 O   0  0  0  0  0  0  0  0  0  0  0  0
   20.9154  -21.3030  -15.1518 O   0  0  0  0  0  0  0  0  0  0  0  0
  2  1  1  6
  2  3  1  0
  2 10  1  0
  4  3  1  0
  4  9  2  0
  5  4  1  0
  6  5  2  0
  6  7  1  0
  7  8  2  0
  8  9  1  0
 10 11  2  0
 13 15  1  0
 13 12  1  6
 14 13  1  0
 16 15  1  6
 16 18  1  0
 17 16  1  0
 17 10  1  0
 18 19  2  0
 20 18  1  0
 20 21  1  0
 21 26  1  0
 22 23  1  0
 21 22  1  1
 24 23  1  0
 24 28  1  0
 25 24  2  0
 26 27  2  0
 26 29  1  0
M  END
$$$$
