FLE.pdb
     RDKit          3D

 29 29  0  0  1  0  0  0  0  0999 V2000
   16.9684  -10.7964  -18.1385 N   0  0  0  0  0  0  0  0  0  0  0  0
   18.0528   -9.8839  -18.3183 C   0  0  1  0  0  0  0  0  0  0  0  0
   17.6236   -8.6220  -19.0542 C   0  0  0  0  0  0  0  0  0  0  0  0
   17.3063   -8.9403  -20.4544 C   0  0  0  0  0  0  0  0  0  0  0  0
   15.9784   -9.0094  -20.8163 C   0  0  0  0  0  0  0  0  0  0  0  0
   15.6773   -9.3070  -22.1274 C   0  0  0  0  0  0  0  0  0  0  0  0
   16.6829   -9.5276  -23.0426 C   0  0  0  0  0  0  0  0  0  0  0  0
   18.0034   -9.4509  -22.6477 C   0  0  0  0  0  0  0  0  0  0  0  0
   18.3364   -9.1585  -21.3579 C   0  0  0  0  0  0  0  0  0  0  0  0
   18.6828   -9.4883  -17.0255 C   0  0  0  0  0  0  0  0  0  0  0  0
   17.9852   -9.3492  -15.9904 O   0  0  0  0  0  0  0  0  0  0  0  0
   23.8832  -10.4599  -14.0753 C   0  0  0  0  0  0  0  0  0  0  0  0
   22.6806   -9.4966  -14.1514 C   0  0  2  0  0  0  0  0  0  0  0  0
   21.9746   -9.6240  -12.8267 C   0  0  0  0  0  0  0  0  0  0  0  0
   21.8409   -9.8000  -15.3306 C   0  0  0  0  0  0  0  0  0  0  0  0
   20.6729   -8.8827  -15.5839 C   0  0  2  0  0  0  0  0  0  0  0  0
   20.0718   -9.2531  -16.8974 N   0  0  0  0  0  0  0  0  0  0  0  0
   20.9986   -7.4557  -15.6936 C   0  0  0  0  0  0  0  0  0  0  0  0
   21.7191   -7.0230  -16.6725 O   0  0  0  0  0  0  0  0  0  0  0  0
   20.5963   -6.4250  -14.8131 N   0  0  0  0  0  0  0  0  0  0  0  0
   20.9904   -5.0215  -15.0053 C   0  0  1  0  0  0  0  0  0  0  0  0
   19.8286   -4.1161  -14.8215 C   0  0  0  0  0  0  0  0  0  0  0  0
   20.2362   -2.6758  -14.9311 C   0  0  0  0  0  0  0  0  0  0  0  0
   19.0535   -1.7710  -14.7708 C   0  0  0  0  0  0  0  0  0  0  0  0
   17.9420   -2.2743  -14.5604 O   0  0  0  0  0  0  0  0  0  0  0  0
   22.0923   -4.7470  -14.0797 C   0  0  0  0  0  0  0  0  0  0  0  0
   23.0142   -3.9511  -14.3603 O   0  0  0  0  0  0  0  0  0  0  0  0
   19.2281   -0.4149  -14.8599 O   0  0  0  0  0  0  0  0  0  0  0  0
   22.1591   -5.3632  -12.8434 O   0  0  0  0  0  0  0  0  0  0  0  0
  2  1  1  1
  2  3  1  0
  2 10  1  0
  4  3  1  0
  4  9  2  0
  5  4  1  0
  6  5  2  0
  6  7  1  0
  7  8  2  0
  8  9  1  0
 10 11  2  0
 13 15  1  0
 13 12  1  1
 14 13  1  0
 16 15  1  6
 16 18  1  0
 17 16  1  0
 17 10  1  0
 18 19  2  0
 20 18  1  0
 20 21  1  0
 21 26  1  0
 22 23  1  0
 21 22  1  1
 24 23  1  0
 24 28  1  0
 25 24  2  0
 26 27  2  0
 26 29  1  0
M  END
$$$$
