SIE.pdb
     RDKit          3D

 24 23  0  0  1  0  0  0  0  0999 V2000
    7.2277  -17.0141   20.1254 O   0  0  0  0  0  0  0  0  0  0  0  0
    6.8294  -16.2994   21.2540 C   0  0  0  0  0  0  0  0  0  0  0  0
    7.2836  -14.8579   21.0920 C   0  0  2  0  0  0  0  0  0  0  0  0
    8.1176  -14.6786   19.9440 N   0  0  0  0  0  0  0  0  0  0  0  0
    8.0579  -14.5038   22.3116 C   0  0  0  0  0  0  0  0  0  0  0  0
    9.3100  -14.4866   22.3361 O   0  0  0  0  0  0  0  0  0  0  0  0
    5.8442  -11.2777   26.1229 C   0  0  0  0  0  0  0  0  0  0  0  0
    6.8880  -11.9352   25.1867 C   0  0  0  0  0  0  0  0  0  0  0  0
    7.1493  -13.3029   25.7320 C   0  0  2  0  0  0  0  0  0  0  0  0
    7.7931  -13.1349   27.0932 C   0  0  0  0  0  0  0  0  0  0  0  0
    7.9699  -14.1474   24.8083 C   0  0  2  0  0  0  0  0  0  0  0  0
    7.3539  -14.1769   23.4777 N   0  0  0  0  0  0  0  0  0  0  0  0
    8.1794  -15.5390   25.2373 C   0  0  0  0  0  0  0  0  0  0  0  0
    7.5693  -16.4676   24.6148 O   0  0  0  0  0  0  0  0  0  0  0  0
    9.0136  -15.9265   26.2897 N   0  0  0  0  0  0  0  0  0  0  0  0
    9.8692  -17.1111   26.2409 C   0  0  1  0  0  0  0  0  0  0  0  0
   10.7705  -17.0453   25.0278 C   0  0  0  0  0  0  0  0  0  0  0  0
   11.6778  -18.2628   24.9501 C   0  0  0  0  0  0  0  0  0  0  0  0
   12.5069  -18.1475   23.7268 C   0  0  0  0  0  0  0  0  0  0  0  0
   13.4874  -17.3844   23.6109 O   0  0  0  0  0  0  0  0  0  0  0  0
   10.6392  -17.2838   27.4748 C   0  0  0  0  0  0  0  0  0  0  0  0
   11.1826  -16.2446   28.2106 O   0  0  0  0  0  0  0  0  0  0  0  0
   12.1808  -18.9382   22.6256 O   0  0  0  0  0  0  0  0  0  0  0  0
   10.8242  -18.4458   27.9016 O   0  0  0  0  0  0  0  0  0  0  0  0
  2  3  1  0
  2  1  1  0
  3  4  1  6
  5  3  1  0
  5  6  2  0
  7  8  1  0
  8  9  1  0
  9 11  1  0
  9 10  1  1
 11 12  1  6
 11 13  1  0
 12  5  1  0
 13 15  1  0
 14 13  2  0
 15 16  1  0
 16 21  1  0
 17 18  1  0
 16 17  1  6
 19 23  1  0
 19 18  1  0
 20 19  2  0
 21 24  2  0
 21 22  1  0
M  END
$$$$
