SIE.pdb
     RDKit          3D

 24 23  0  0  1  0  0  0  0  0999 V2000
   10.4277  -19.5617   18.5002 O   0  0  0  0  0  0  0  0  0  0  0  0
    9.1039  -19.3202   18.1360 C   0  0  0  0  0  0  0  0  0  0  0  0
    9.0382  -17.9714   17.4384 C   0  0  2  0  0  0  0  0  0  0  0  0
    9.8341  -17.9367   16.2505 N   0  0  0  0  0  0  0  0  0  0  0  0
    9.5556  -16.9580   18.3963 C   0  0  0  0  0  0  0  0  0  0  0  0
   10.7246  -16.5115   18.3421 O   0  0  0  0  0  0  0  0  0  0  0  0
    5.9928  -13.3506   20.5193 C   0  0  0  0  0  0  0  0  0  0  0  0
    7.3119  -13.8897   19.9128 C   0  0  0  0  0  0  0  0  0  0  0  0
    7.9217  -14.7849   20.9437 C   0  0  2  0  0  0  0  0  0  0  0  0
    8.2466  -13.9316   22.1528 C   0  0  0  0  0  0  0  0  0  0  0  0
    9.1127  -15.5318   20.4305 C   0  0  2  0  0  0  0  0  0  0  0  0
    8.6972  -16.4869   19.3980 N   0  0  0  0  0  0  0  0  0  0  0  0
    9.8834  -16.2711   21.4424 C   0  0  0  0  0  0  0  0  0  0  0  0
    9.4346  -17.3897   21.8538 O   0  0  0  0  0  0  0  0  0  0  0  0
   11.0921  -15.8349   21.9923 N   0  0  0  0  0  0  0  0  0  0  0  0
   11.8907  -16.6402   22.9151 C   0  0  1  0  0  0  0  0  0  0  0  0
   13.3526  -16.2737   22.7851 C   0  0  0  0  0  0  0  0  0  0  0  0
   14.2120  -17.0967   23.7316 C   0  0  0  0  0  0  0  0  0  0  0  0
   15.6269  -16.6987   23.5397 C   0  0  0  0  0  0  0  0  0  0  0  0
   16.4029  -16.3904   24.4671 O   0  0  0  0  0  0  0  0  0  0  0  0
   11.4251  -16.5145   24.2981 C   0  0  0  0  0  0  0  0  0  0  0  0
   11.5897  -17.4856   25.2710 O   0  0  0  0  0  0  0  0  0  0  0  0
   16.1374  -16.6621   22.2427 O   0  0  0  0  0  0  0  0  0  0  0  0
   10.8374  -15.4616   24.6334 O   0  0  0  0  0  0  0  0  0  0  0  0
  2  3  1  0
  2  1  1  0
  3  4  1  6
  5  3  1  0
  5  6  2  0
  7  8  1  0
  8  9  1  0
  9 11  1  0
  9 10  1  1
 11 12  1  6
 11 13  1  0
 12  5  1  0
 13 15  1  0
 14 13  2  0
 15 16  1  0
 16 21  1  0
 17 18  1  0
 16 17  1  1
 19 23  1  0
 19 18  1  0
 20 19  2  0
 21 24  2  0
 21 22  1  0
M  END
$$$$
