SIE.pdb
     RDKit          3D

 24 23  0  0  1  0  0  0  0  0999 V2000
    7.6110  -16.0681   20.4554 O   0  0  0  0  0  0  0  0  0  0  0  0
    6.4330  -15.3843   20.7524 C   0  0  0  0  0  0  0  0  0  0  0  0
    6.7737  -13.9203   20.9776 C   0  0  2  0  0  0  0  0  0  0  0  0
    7.3996  -13.3281   19.8359 N   0  0  0  0  0  0  0  0  0  0  0  0
    7.7140  -13.8621   22.1285 C   0  0  0  0  0  0  0  0  0  0  0  0
    8.9455  -13.6825   21.9869 O   0  0  0  0  0  0  0  0  0  0  0  0
    6.0132  -11.3584   26.5091 C   0  0  0  0  0  0  0  0  0  0  0  0
    6.9647  -11.8646   25.3970 C   0  0  0  0  0  0  0  0  0  0  0  0
    7.2976  -13.2833   25.7326 C   0  0  2  0  0  0  0  0  0  0  0  0
    8.0774  -13.2729   27.0316 C   0  0  0  0  0  0  0  0  0  0  0  0
    8.0277  -13.9832   24.6296 C   0  0  2  0  0  0  0  0  0  0  0  0
    7.1969  -14.0150   23.4214 N   0  0  0  0  0  0  0  0  0  0  0  0
    8.4489  -15.3623   24.9215 C   0  0  0  0  0  0  0  0  0  0  0  0
    7.5557  -16.2646   25.0223 O   0  0  0  0  0  0  0  0  0  0  0  0
    9.7759  -15.7654   25.0949 N   0  0  0  0  0  0  0  0  0  0  0  0
   10.1694  -17.1556   25.3197 C   0  0  1  0  0  0  0  0  0  0  0  0
   11.5906  -17.3707   24.8485 C   0  0  0  0  0  0  0  0  0  0  0  0
   11.7208  -17.1089   23.3564 C   0  0  0  0  0  0  0  0  0  0  0  0
   13.1303  -17.3469   22.9639 C   0  0  0  0  0  0  0  0  0  0  0  0
   14.0611  -17.5465   23.7706 O   0  0  0  0  0  0  0  0  0  0  0  0
    9.9997  -17.5553   26.7185 C   0  0  0  0  0  0  0  0  0  0  0  0
    9.8100  -18.8594   27.1426 O   0  0  0  0  0  0  0  0  0  0  0  0
   13.4510  -17.3505   21.6069 O   0  0  0  0  0  0  0  0  0  0  0  0
   10.0264  -16.6652   27.5978 O   0  0  0  0  0  0  0  0  0  0  0  0
  2  3  1  0
  2  1  1  0
  3  4  1  6
  5  3  1  0
  5  6  2  0
  7  8  1  0
  8  9  1  0
  9 11  1  0
  9 10  1  1
 11 12  1  6
 11 13  1  0
 12  5  1  0
 13 15  1  0
 14 13  2  0
 15 16  1  0
 16 21  1  0
 17 18  1  0
 16 17  1  1
 19 23  1  0
 19 18  1  0
 20 19  2  0
 21 24  2  0
 21 22  1  0
M  END
$$$$
