SIE.pdb
     RDKit          3D

 24 23  0  0  1  0  0  0  0  0999 V2000
    5.7669  -16.9375   22.3515 O   0  0  0  0  0  0  0  0  0  0  0  0
    6.3430  -16.4467   21.1807 C   0  0  0  0  0  0  0  0  0  0  0  0
    6.5472  -14.9489   21.3398 C   0  0  2  0  0  0  0  0  0  0  0  0
    7.0295  -14.3377   20.1400 N   0  0  0  0  0  0  0  0  0  0  0  0
    7.5535  -14.7568   22.4181 C   0  0  0  0  0  0  0  0  0  0  0  0
    8.7873  -14.7932   22.2055 O   0  0  0  0  0  0  0  0  0  0  0  0
    6.1018  -11.4338   26.4565 C   0  0  0  0  0  0  0  0  0  0  0  0
    7.0300  -12.0895   25.4044 C   0  0  0  0  0  0  0  0  0  0  0  0
    7.3239  -13.4708   25.8958 C   0  0  2  0  0  0  0  0  0  0  0  0
    8.1424  -13.3385   27.1639 C   0  0  0  0  0  0  0  0  0  0  0  0
    7.9960  -14.3216   24.8641 C   0  0  2  0  0  0  0  0  0  0  0  0
    7.0982  -14.5262   23.7226 N   0  0  0  0  0  0  0  0  0  0  0  0
    8.4446  -15.6446   25.3256 C   0  0  0  0  0  0  0  0  0  0  0  0
    7.5699  -16.4809   25.7228 O   0  0  0  0  0  0  0  0  0  0  0  0
    9.7780  -16.0622   25.3578 N   0  0  0  0  0  0  0  0  0  0  0  0
   10.1878  -17.4083   25.7553 C   0  0  1  0  0  0  0  0  0  0  0  0
   11.4061  -17.8300   24.9638 C   0  0  0  0  0  0  0  0  0  0  0  0
   11.9722  -19.1420   25.4833 C   0  0  0  0  0  0  0  0  0  0  0  0
   13.1656  -19.4861   24.6743 C   0  0  0  0  0  0  0  0  0  0  0  0
   13.6203  -18.7764   23.7541 O   0  0  0  0  0  0  0  0  0  0  0  0
   10.4220  -17.5079   27.1977 C   0  0  0  0  0  0  0  0  0  0  0  0
   10.6457  -16.4254   28.0311 O   0  0  0  0  0  0  0  0  0  0  0  0
   13.8337  -20.6788   24.9489 O   0  0  0  0  0  0  0  0  0  0  0  0
   10.4220  -18.6443   27.7222 O   0  0  0  0  0  0  0  0  0  0  0  0
  2  3  1  0
  2  1  1  0
  3  4  1  6
  5  3  1  0
  5  6  2  0
  7  8  1  0
  8  9  1  0
  9 11  1  0
  9 10  1  1
 11 12  1  6
 11 13  1  0
 12  5  1  0
 13 15  1  0
 14 13  2  0
 15 16  1  0
 16 21  1  0
 17 18  1  0
 16 17  1  6
 19 23  1  0
 19 18  1  0
 20 19  2  0
 21 24  2  0
 21 22  1  0
M  END
$$$$
