SIE.pdb
     RDKit          3D

 24 23  0  0  1  0  0  0  0  0999 V2000
    8.5945  -20.2160   18.8768 O   0  0  0  0  0  0  0  0  0  0  0  0
    7.3021  -19.6962   18.9291 C   0  0  0  0  0  0  0  0  0  0  0  0
    7.2197  -18.5218   17.9677 C   0  0  2  0  0  0  0  0  0  0  0  0
    7.6090  -18.8811   16.6392 N   0  0  0  0  0  0  0  0  0  0  0  0
    8.1459  -17.4748   18.4760 C   0  0  0  0  0  0  0  0  0  0  0  0
    9.2625  -17.2495   17.9554 O   0  0  0  0  0  0  0  0  0  0  0  0
    7.4558  -12.1222   21.1462 C   0  0  0  0  0  0  0  0  0  0  0  0
    8.4743  -13.2710   20.9429 C   0  0  0  0  0  0  0  0  0  0  0  0
    7.6927  -14.4569   20.4750 C   0  0  2  0  0  0  0  0  0  0  0  0
    6.6643  -14.7740   21.5414 C   0  0  0  0  0  0  0  0  0  0  0  0
    8.5618  -15.6305   20.1475 C   0  0  2  0  0  0  0  0  0  0  0  0
    7.7489  -16.7123   19.5820 N   0  0  0  0  0  0  0  0  0  0  0  0
    9.3293  -16.1864   21.2728 C   0  0  0  0  0  0  0  0  0  0  0  0
    8.8211  -17.1410   21.9454 O   0  0  0  0  0  0  0  0  0  0  0  0
   10.5958  -15.7429   21.6637 N   0  0  0  0  0  0  0  0  0  0  0  0
   11.4242  -16.4436   22.6439 C   0  0  1  0  0  0  0  0  0  0  0  0
   12.8764  -16.0644   22.4554 C   0  0  0  0  0  0  0  0  0  0  0  0
   13.7641  -16.7655   23.4713 C   0  0  0  0  0  0  0  0  0  0  0  0
   15.1692  -16.3718   23.2110 C   0  0  0  0  0  0  0  0  0  0  0  0
   15.5404  -15.6973   22.2289 O   0  0  0  0  0  0  0  0  0  0  0  0
   10.9774  -16.1977   24.0169 C   0  0  0  0  0  0  0  0  0  0  0  0
   11.1454  -17.0854   25.0658 O   0  0  0  0  0  0  0  0  0  0  0  0
   16.1511  -16.7750   24.1151 O   0  0  0  0  0  0  0  0  0  0  0  0
   10.4037  -15.1144   24.2695 O   0  0  0  0  0  0  0  0  0  0  0  0
  2  3  1  0
  2  1  1  0
  3  4  1  6
  5  3  1  0
  5  6  2  0
  7  8  1  0
  8  9  1  0
  9 11  1  0
  9 10  1  1
 11 12  1  1
 11 13  1  0
 12  5  1  0
 13 15  1  0
 14 13  2  0
 15 16  1  0
 16 21  1  0
 17 18  1  0
 16 17  1  1
 19 23  1  0
 19 18  1  0
 20 19  2  0
 21 24  2  0
 21 22  1  0
M  END
$$$$
