SIE.pdb
     RDKit          3D

 24 23  0  0  1  0  0  0  0  0999 V2000
   10.1180  -19.4856   18.3613 O   0  0  0  0  0  0  0  0  0  0  0  0
    8.9353  -18.9713   17.8321 C   0  0  0  0  0  0  0  0  0  0  0  0
    9.2307  -17.6009   17.2444 C   0  0  2  0  0  0  0  0  0  0  0  0
   10.2204  -17.6558   16.2132 N   0  0  0  0  0  0  0  0  0  0  0  0
    9.7356  -16.7488   18.3539 C   0  0  0  0  0  0  0  0  0  0  0  0
   10.9487  -16.4702   18.4940 O   0  0  0  0  0  0  0  0  0  0  0  0
    6.1864  -12.9866   20.3314 C   0  0  0  0  0  0  0  0  0  0  0  0
    7.5367  -13.5469   19.8203 C   0  0  0  0  0  0  0  0  0  0  0  0
    7.9844  -14.5625   20.8224 C   0  0  2  0  0  0  0  0  0  0  0  0
    8.2192  -13.8373   22.1318 C   0  0  0  0  0  0  0  0  0  0  0  0
    9.1845  -15.3332   20.3690 C   0  0  2  0  0  0  0  0  0  0  0  0
    8.8136  -16.2396   19.2773 N   0  0  0  0  0  0  0  0  0  0  0  0
    9.8564  -16.1310   21.4066 C   0  0  0  0  0  0  0  0  0  0  0  0
    9.3701  -17.2677   21.7125 O   0  0  0  0  0  0  0  0  0  0  0  0
   11.0087  -15.7326   22.0900 N   0  0  0  0  0  0  0  0  0  0  0  0
   11.7540  -16.6136   22.9879 C   0  0  1  0  0  0  0  0  0  0  0  0
   13.2257  -16.2662   22.9452 C   0  0  0  0  0  0  0  0  0  0  0  0
   14.0195  -17.1140   23.9263 C   0  0  0  0  0  0  0  0  0  0  0  0
   15.4510  -16.7492   23.8038 C   0  0  0  0  0  0  0  0  0  0  0  0
   15.8632  -15.6538   23.3708 O   0  0  0  0  0  0  0  0  0  0  0  0
   11.2311  -16.5740   24.3555 C   0  0  0  0  0  0  0  0  0  0  0  0
   11.3609  -17.6021   25.2734 O   0  0  0  0  0  0  0  0  0  0  0  0
   16.4107  -17.6821   24.1947 O   0  0  0  0  0  0  0  0  0  0  0  0
   10.6240  -15.5454   24.7295 O   0  0  0  0  0  0  0  0  0  0  0  0
  2  3  1  0
  2  1  1  0
  3  4  1  6
  5  3  1  0
  5  6  2  0
  7  8  1  0
  8  9  1  0
  9 11  1  0
  9 10  1  1
 11 12  1  6
 11 13  1  0
 12  5  1  0
 13 15  1  0
 14 13  2  0
 15 16  1  0
 16 21  1  0
 17 18  1  0
 16 17  1  1
 19 23  1  0
 19 18  1  0
 20 19  2  0
 21 24  2  0
 21 22  1  0
M  END
$$$$
