SIE.pdb
     RDKit          3D

 24 23  0  0  1  0  0  0  0  0999 V2000
    9.5521  -18.9463   18.0741 O   0  0  0  0  0  0  0  0  0  0  0  0
   10.2006  -18.4235   16.9563 C   0  0  0  0  0  0  0  0  0  0  0  0
    9.6491  -17.0322   16.6908 C   0  0  2  0  0  0  0  0  0  0  0  0
   10.1969  -16.4497   15.5049 N   0  0  0  0  0  0  0  0  0  0  0  0
   10.0153  -16.1865   17.8582 C   0  0  0  0  0  0  0  0  0  0  0  0
   11.1513  -15.6765   17.9935 O   0  0  0  0  0  0  0  0  0  0  0  0
    6.2222  -12.9248   19.9037 C   0  0  0  0  0  0  0  0  0  0  0  0
    7.5927  -13.4614   19.4218 C   0  0  0  0  0  0  0  0  0  0  0  0
    8.0582  -14.4349   20.4569 C   0  0  2  0  0  0  0  0  0  0  0  0
    8.2267  -13.6729   21.7555 C   0  0  0  0  0  0  0  0  0  0  0  0
    9.3024  -15.1609   20.0509 C   0  0  2  0  0  0  0  0  0  0  0  0
    9.0474  -15.9536   18.8436 N   0  0  0  0  0  0  0  0  0  0  0  0
    9.8735  -16.0596   21.0661 C   0  0  0  0  0  0  0  0  0  0  0  0
    9.2782  -17.1584   21.3123 O   0  0  0  0  0  0  0  0  0  0  0  0
   11.0404  -15.7979   21.7895 N   0  0  0  0  0  0  0  0  0  0  0  0
   11.5562  -16.6869   22.8295 C   0  0  1  0  0  0  0  0  0  0  0  0
   13.0516  -16.5047   22.9671 C   0  0  0  0  0  0  0  0  0  0  0  0
   13.7683  -16.8415   21.6692 C   0  0  0  0  0  0  0  0  0  0  0  0
   15.2141  -16.5715   21.8528 C   0  0  0  0  0  0  0  0  0  0  0  0
   15.6744  -15.6726   22.5858 O   0  0  0  0  0  0  0  0  0  0  0  0
   10.8702  -16.4918   24.1088 C   0  0  0  0  0  0  0  0  0  0  0  0
    9.8779  -15.5521   24.3298 O   0  0  0  0  0  0  0  0  0  0  0  0
   16.1314  -17.3670   21.1673 O   0  0  0  0  0  0  0  0  0  0  0  0
   11.1957  -17.2190   25.0740 O   0  0  0  0  0  0  0  0  0  0  0  0
  2  3  1  0
  2  1  1  0
  3  4  1  6
  5  3  1  0
  5  6  2  0
  7  8  1  0
  8  9  1  0
  9 11  1  0
  9 10  1  1
 11 12  1  6
 11 13  1  0
 12  5  1  0
 13 15  1  0
 14 13  2  0
 15 16  1  0
 16 21  1  0
 17 18  1  0
 16 17  1  1
 19 23  1  0
 19 18  1  0
 20 19  2  0
 21 24  2  0
 21 22  1  0
M  END
$$$$
