SIE.pdb
     RDKit          3D

 24 23  0  0  1  0  0  0  0  0999 V2000
    7.2914  -16.9707   21.3205 O   0  0  0  0  0  0  0  0  0  0  0  0
    6.3626  -15.9474   21.1372 C   0  0  0  0  0  0  0  0  0  0  0  0
    7.1104  -14.6247   21.0964 C   0  0  2  0  0  0  0  0  0  0  0  0
    7.9713  -14.5241   19.9587 N   0  0  0  0  0  0  0  0  0  0  0  0
    7.9332  -14.5492   22.3331 C   0  0  0  0  0  0  0  0  0  0  0  0
    9.1589  -14.8064   22.3462 O   0  0  0  0  0  0  0  0  0  0  0  0
    6.1249  -11.1142   26.1363 C   0  0  0  0  0  0  0  0  0  0  0  0
    7.1124  -11.8542   25.2005 C   0  0  0  0  0  0  0  0  0  0  0  0
    7.2858  -13.2286   25.7635 C   0  0  2  0  0  0  0  0  0  0  0  0
    7.9993  -13.0894   27.0928 C   0  0  0  0  0  0  0  0  0  0  0  0
    7.9950  -14.1536   24.8247 C   0  0  2  0  0  0  0  0  0  0  0  0
    7.3077  -14.1748   23.5293 N   0  0  0  0  0  0  0  0  0  0  0  0
    8.1301  -15.5446   25.2844 C   0  0  0  0  0  0  0  0  0  0  0  0
    7.4633  -16.4515   24.6885 O   0  0  0  0  0  0  0  0  0  0  0  0
    8.9508  -15.9542   26.3390 N   0  0  0  0  0  0  0  0  0  0  0  0
    9.7732  -17.1622   26.2932 C   0  0  1  0  0  0  0  0  0  0  0  0
   10.7779  -17.0583   25.1672 C   0  0  0  0  0  0  0  0  0  0  0  0
   11.7531  -18.2245   25.1910 C   0  0  0  0  0  0  0  0  0  0  0  0
   12.6512  -18.1037   24.0180 C   0  0  0  0  0  0  0  0  0  0  0  0
   13.6129  -17.3117   23.9469 O   0  0  0  0  0  0  0  0  0  0  0  0
   10.4279  -17.4301   27.5758 C   0  0  0  0  0  0  0  0  0  0  0  0
   10.7261  -16.4624   28.5198 O   0  0  0  0  0  0  0  0  0  0  0  0
   12.4173  -18.9231   22.9143 O   0  0  0  0  0  0  0  0  0  0  0  0
   10.7433  -18.6107   27.8463 O   0  0  0  0  0  0  0  0  0  0  0  0
  2  3  1  0
  2  1  1  0
  3  4  1  6
  5  3  1  0
  5  6  2  0
  7  8  1  0
  8  9  1  0
  9 11  1  0
  9 10  1  1
 11 12  1  6
 11 13  1  0
 12  5  1  0
 13 15  1  0
 14 13  2  0
 15 16  1  0
 16 21  1  0
 17 18  1  0
 16 17  1  6
 19 23  1  0
 19 18  1  0
 20 19  2  0
 21 24  2  0
 21 22  1  0
M  END
$$$$
