SIE.pdb
     RDKit          3D

 24 23  0  0  1  0  0  0  0  0999 V2000
    5.5663  -16.8036   20.3322 O   0  0  0  0  0  0  0  0  0  0  0  0
    6.4762  -16.4782   21.3369 C   0  0  0  0  0  0  0  0  0  0  0  0
    6.7464  -14.9838   21.2717 C   0  0  2  0  0  0  0  0  0  0  0  0
    7.3742  -14.5999   20.0452 N   0  0  0  0  0  0  0  0  0  0  0  0
    7.6538  -14.6537   22.4030 C   0  0  0  0  0  0  0  0  0  0  0  0
    8.9012  -14.6508   22.2902 O   0  0  0  0  0  0  0  0  0  0  0  0
    5.8841  -11.2653   26.3004 C   0  0  0  0  0  0  0  0  0  0  0  0
    6.8393  -11.9519   25.2931 C   0  0  0  0  0  0  0  0  0  0  0  0
    7.1344  -13.3109   25.8426 C   0  0  2  0  0  0  0  0  0  0  0  0
    7.8886  -13.1222   27.1431 C   0  0  0  0  0  0  0  0  0  0  0  0
    7.8706  -14.1805   24.8722 C   0  0  2  0  0  0  0  0  0  0  0  0
    7.0858  -14.3336   23.6428 N   0  0  0  0  0  0  0  0  0  0  0  0
    8.2122  -15.5266   25.3577 C   0  0  0  0  0  0  0  0  0  0  0  0
    7.2665  -16.3218   25.6668 O   0  0  0  0  0  0  0  0  0  0  0  0
    9.5159  -16.0089   25.5040 N   0  0  0  0  0  0  0  0  0  0  0  0
    9.8237  -17.3685   25.9453 C   0  0  1  0  0  0  0  0  0  0  0  0
   10.6432  -18.0787   24.8907 C   0  0  0  0  0  0  0  0  0  0  0  0
   12.0824  -17.5884   24.8902 C   0  0  0  0  0  0  0  0  0  0  0  0
   12.8144  -18.2965   23.8132 C   0  0  0  0  0  0  0  0  0  0  0  0
   12.2659  -18.9324   22.8902 O   0  0  0  0  0  0  0  0  0  0  0  0
   10.4925  -17.3849   27.2483 C   0  0  0  0  0  0  0  0  0  0  0  0
   10.9962  -16.2630   27.8840 O   0  0  0  0  0  0  0  0  0  0  0  0
   14.2082  -18.2576   23.8200 O   0  0  0  0  0  0  0  0  0  0  0  0
   10.6226  -18.4827   27.8351 O   0  0  0  0  0  0  0  0  0  0  0  0
  2  3  1  0
  2  1  1  0
  3  4  1  6
  5  3  1  0
  5  6  2  0
  7  8  1  0
  8  9  1  0
  9 11  1  0
  9 10  1  1
 11 12  1  6
 11 13  1  0
 12  5  1  0
 13 15  1  0
 14 13  2  0
 15 16  1  0
 16 21  1  0
 17 18  1  0
 16 17  1  6
 19 23  1  0
 19 18  1  0
 20 19  2  0
 21 24  2  0
 21 22  1  0
M  END
$$$$
