KPF.pdb
     RDKit          3D

 28 29  0  0  1  0  0  0  0  0999 V2000
   26.7738  -21.7016  -17.0857 N   0  0  0  0  0  0  0  0  0  0  0  0
   27.1522  -20.7719  -16.1549 C   0  0  1  0  0  0  0  0  0  0  0  0
   26.3338  -19.5315  -16.1129 C   0  0  0  0  0  0  0  0  0  0  0  0
   26.0593  -18.6792  -17.2342 C   0  0  0  0  0  0  0  0  0  0  0  0
   26.8738  -17.6645  -17.8682 C   0  0  0  0  0  0  0  0  0  0  0  0
   26.2781  -16.8391  -18.9470 C   0  0  0  0  0  0  0  0  0  0  0  0
   27.4294  -16.0064  -19.4567 N   0  0  0  0  0  0  0  0  0  0  0  0
   27.2481  -21.2672  -14.7398 C   0  0  0  0  0  0  0  0  0  0  0  0
   26.5248  -22.3002  -14.5405 O   0  0  0  0  0  0  0  0  0  0  0  0
   28.0308  -20.6943  -13.7190 N   0  0  0  0  0  0  0  0  0  0  0  0
   28.8644  -19.5218  -13.6345 C   0  0  0  0  0  0  0  0  0  0  0  0
   30.1417  -20.0998  -13.0347 C   0  0  0  0  0  0  0  0  0  0  0  0
   29.6446  -21.2403  -12.1819 C   0  0  0  0  0  0  0  0  0  0  0  0
   28.1454  -21.2531  -12.3768 C   0  0  1  0  0  0  0  0  0  0  0  0
   27.4006  -20.4646  -11.3845 C   0  0  0  0  0  0  0  0  0  0  0  0
   27.2345  -19.2348  -11.6160 O   0  0  0  0  0  0  0  0  0  0  0  0
   26.8790  -21.0132  -10.2133 N   0  0  0  0  0  0  0  0  0  0  0  0
   25.9258  -20.3486   -9.3460 C   0  0  1  0  0  0  0  0  0  0  0  0
   24.6193  -21.0387   -9.3442 C   0  0  0  0  0  0  0  0  0  0  0  0
   23.8262  -20.8986  -10.5783 C   0  0  0  0  0  0  0  0  0  0  0  0
   23.9400  -21.7784  -11.6214 C   0  0  0  0  0  0  0  0  0  0  0  0
   23.1986  -21.6613  -12.7783 C   0  0  0  0  0  0  0  0  0  0  0  0
   22.3096  -20.6262  -12.9071 C   0  0  0  0  0  0  0  0  0  0  0  0
   22.1646  -19.7179  -11.8815 C   0  0  0  0  0  0  0  0  0  0  0  0
   22.9234  -19.8582  -10.7238 C   0  0  0  0  0  0  0  0  0  0  0  0
   26.5165  -20.1100   -7.9987 C   0  0  0  0  0  0  0  0  0  0  0  0
   26.0761  -19.2159   -7.0704 O   0  0  0  0  0  0  0  0  0  0  0  0
   27.5444  -20.8149   -7.6829 O   0  0  0  0  0  0  0  0  0  0  0  0
  2  1  1  6
  3  2  1  0
  3  4  1  0
  5  4  1  0
  5  6  1  0
  6  7  1  0
  8 10  1  0
  8  2  1  0
  9  8  2  0
 10 14  1  0
 11 12  1  0
 11 10  1  0
 12 13  1  0
 13 14  1  0
 14 15  1  1
 15 17  1  0
 16 15  2  0
 17 18  1  0
 18 19  1  1
 19 20  1  0
 20 21  2  0
 21 22  1  0
 23 22  2  0
 24 23  1  0
 25 24  2  0
 25 20  1  0
 26 27  1  0
 26 18  1  0
 28 26  2  0
M  END
$$$$
