KPF.pdb
     RDKit          3D

 28 29  0  0  1  0  0  0  0  0999 V2000
   22.6444  -22.0088  -14.7233 N   0  0  0  0  0  0  0  0  0  0  0  0
   23.3866  -21.0187  -14.1381 C   0  0  1  0  0  0  0  0  0  0  0  0
   22.6122  -19.8924  -13.5534 C   0  0  0  0  0  0  0  0  0  0  0  0
   21.8652  -18.9216  -14.3009 C   0  0  0  0  0  0  0  0  0  0  0  0
   22.2598  -18.0787  -15.4094 C   0  0  0  0  0  0  0  0  0  0  0  0
   21.3043  -17.0611  -15.9106 C   0  0  0  0  0  0  0  0  0  0  0  0
   22.0346  -16.3957  -17.0519 N   0  0  0  0  0  0  0  0  0  0  0  0
   24.3524  -21.4672  -13.0783 C   0  0  0  0  0  0  0  0  0  0  0  0
   23.9965  -22.5667  -12.5359 O   0  0  0  0  0  0  0  0  0  0  0  0
   25.5257  -20.7897  -12.6946 N   0  0  0  0  0  0  0  0  0  0  0  0
   26.1116  -19.5217  -13.0492 C   0  0  0  0  0  0  0  0  0  0  0  0
   27.5447  -19.9294  -13.3736 C   0  0  0  0  0  0  0  0  0  0  0  0
   27.7863  -21.1130  -12.4703 C   0  0  0  0  0  0  0  0  0  0  0  0
   26.4843  -21.3144  -11.7288 C   0  0  1  0  0  0  0  0  0  0  0  0
   26.4091  -20.6134  -10.4389 C   0  0  0  0  0  0  0  0  0  0  0  0
   26.0043  -19.4176  -10.4427 O   0  0  0  0  0  0  0  0  0  0  0  0
   26.7637  -21.2078   -9.2283 N   0  0  0  0  0  0  0  0  0  0  0  0
   26.8536  -20.5073   -7.9620 C   0  0  1  0  0  0  0  0  0  0  0  0
   27.6488  -21.2673   -6.9754 C   0  0  0  0  0  0  0  0  0  0  0  0
   27.9891  -20.5402   -5.7397 C   0  0  0  0  0  0  0  0  0  0  0  0
   29.0548  -19.6832   -5.6685 C   0  0  0  0  0  0  0  0  0  0  0  0
   29.3791  -18.9924   -4.5197 C   0  0  0  0  0  0  0  0  0  0  0  0
   28.6162  -19.1613   -3.3938 C   0  0  0  0  0  0  0  0  0  0  0  0
   27.5352  -20.0149   -3.4221 C   0  0  0  0  0  0  0  0  0  0  0  0
   27.2279  -20.6998   -4.5935 C   0  0  0  0  0  0  0  0  0  0  0  0
   27.2859  -19.0963   -8.1700 C   0  0  0  0  0  0  0  0  0  0  0  0
   28.3230  -18.6752   -8.9461 O   0  0  0  0  0  0  0  0  0  0  0  0
   26.6165  -18.1876   -7.5541 O   0  0  0  0  0  0  0  0  0  0  0  0
  2  1  1  1
  3  2  1  0
  3  4  1  0
  5  4  1  0
  5  6  1  0
  6  7  1  0
  8 10  1  0
  8  2  1  0
  9  8  2  0
 10 14  1  0
 11 12  1  0
 11 10  1  0
 12 13  1  0
 13 14  1  0
 14 15  1  1
 15 17  1  0
 16 15  2  0
 17 18  1  0
 18 19  1  1
 19 20  1  0
 20 21  2  0
 21 22  1  0
 23 22  2  0
 24 23  1  0
 25 24  2  0
 25 20  1  0
 26 27  1  0
 26 18  1  0
 28 26  2  0
M  END
$$$$
