KPF.pdb
     RDKit          3D

 28 29  0  0  1  0  0  0  0  0999 V2000
   20.4536  -13.0648  -19.0591 N   0  0  0  0  0  0  0  0  0  0  0  0
   19.9019  -11.8142  -18.9850 C   0  0  1  0  0  0  0  0  0  0  0  0
   18.7527  -11.6706  -18.0531 C   0  0  0  0  0  0  0  0  0  0  0  0
   17.8886  -12.7352  -17.6298 C   0  0  0  0  0  0  0  0  0  0  0  0
   18.1178  -13.8227  -16.7026 C   0  0  0  0  0  0  0  0  0  0  0  0
   16.9798  -14.6979  -16.3301 C   0  0  0  0  0  0  0  0  0  0  0  0
   17.5815  -15.7066  -15.3818 N   0  0  0  0  0  0  0  0  0  0  0  0
   20.8550  -10.6990  -18.6612 C   0  0  0  0  0  0  0  0  0  0  0  0
   22.0016  -11.1330  -18.3046 O   0  0  0  0  0  0  0  0  0  0  0  0
   20.5648   -9.3228  -18.7294 N   0  0  0  0  0  0  0  0  0  0  0  0
   19.3765   -8.5633  -19.0265 C   0  0  0  0  0  0  0  0  0  0  0  0
   19.8997   -7.5736  -20.0619 C   0  0  0  0  0  0  0  0  0  0  0  0
   21.3402   -7.3747  -19.6615 C   0  0  0  0  0  0  0  0  0  0  0  0
   21.5437   -8.2749  -18.4640 C   0  0  1  0  0  0  0  0  0  0  0  0
   21.3132   -7.6186  -17.1689 C   0  0  0  0  0  0  0  0  0  0  0  0
   20.1211   -7.5135  -16.7674 O   0  0  0  0  0  0  0  0  0  0  0  0
   22.3447   -7.1131  -16.3781 N   0  0  0  0  0  0  0  0  0  0  0  0
   22.1714   -6.5791  -15.0413 C   0  0  1  0  0  0  0  0  0  0  0  0
   22.6423   -7.5282  -14.0113 C   0  0  0  0  0  0  0  0  0  0  0  0
   23.7040   -8.4553  -14.4412 C   0  0  0  0  0  0  0  0  0  0  0  0
   23.6739   -9.7897  -14.1356 C   0  0  0  0  0  0  0  0  0  0  0  0
   24.6582  -10.6680  -14.5377 C   0  0  0  0  0  0  0  0  0  0  0  0
   25.7182  -10.2023  -15.2710 C   0  0  0  0  0  0  0  0  0  0  0  0
   25.7878   -8.8662  -15.5998 C   0  0  0  0  0  0  0  0  0  0  0  0
   24.7817   -8.0003  -15.1830 C   0  0  0  0  0  0  0  0  0  0  0  0
   22.7432   -5.2062  -14.9442 C   0  0  0  0  0  0  0  0  0  0  0  0
   22.5976   -4.3424  -13.9013 O   0  0  0  0  0  0  0  0  0  0  0  0
   23.4394   -4.7957  -15.9442 O   0  0  0  0  0  0  0  0  0  0  0  0
  2  1  1  1
  3  2  1  0
  3  4  1  0
  5  4  1  0
  5  6  1  0
  6  7  1  0
  8 10  1  0
  8  2  1  0
  9  8  2  0
 10 14  1  0
 11 12  1  0
 11 10  1  0
 12 13  1  0
 13 14  1  0
 14 15  1  1
 15 17  1  0
 16 15  2  0
 17 18  1  0
 18 19  1  1
 19 20  1  0
 20 21  2  0
 21 22  1  0
 23 22  2  0
 24 23  1  0
 25 24  2  0
 25 20  1  0
 26 27  1  0
 26 18  1  0
 28 26  2  0
M  END
$$$$
