KPF.pdb
     RDKit          3D

 28 29  0  0  1  0  0  0  0  0999 V2000
   18.7689  -33.7582  -12.2765 N   0  0  0  0  0  0  0  0  0  0  0  0
   19.3480  -33.3471  -11.1063 C   0  0  1  0  0  0  0  0  0  0  0  0
   20.3689  -32.2741  -11.2343 C   0  0  0  0  0  0  0  0  0  0  0  0
   21.5868  -32.3719  -11.9867 C   0  0  0  0  0  0  0  0  0  0  0  0
   22.6650  -33.3347  -11.9133 C   0  0  0  0  0  0  0  0  0  0  0  0
   23.8608  -33.1371  -12.7682 C   0  0  0  0  0  0  0  0  0  0  0  0
   24.7116  -34.3559  -12.5047 N   0  0  0  0  0  0  0  0  0  0  0  0
   18.3989  -32.9059  -10.0285 C   0  0  0  0  0  0  0  0  0  0  0  0
   17.2762  -32.5240  -10.5015 O   0  0  0  0  0  0  0  0  0  0  0  0
   18.6695  -32.8979   -8.6467 N   0  0  0  0  0  0  0  0  0  0  0  0
   19.8627  -33.0775   -7.8587 C   0  0  0  0  0  0  0  0  0  0  0  0
   19.3984  -34.1078   -6.8349 C   0  0  0  0  0  0  0  0  0  0  0  0
   17.9295  -33.8053   -6.6733 C   0  0  0  0  0  0  0  0  0  0  0  0
   17.6560  -32.6626   -7.6247 C   0  0  1  0  0  0  0  0  0  0  0  0
   17.7814  -31.3291   -7.0189 C   0  0  0  0  0  0  0  0  0  0  0  0
   18.9446  -30.8760   -6.8312 O   0  0  0  0  0  0  0  0  0  0  0  0
   16.6818  -30.5561   -6.6471 N   0  0  0  0  0  0  0  0  0  0  0  0
   16.7660  -29.2323   -6.0615 C   0  0  1  0  0  0  0  0  0  0  0  0
   15.5005  -28.4862   -6.2202 C   0  0  0  0  0  0  0  0  0  0  0  0
   15.4743  -27.1450   -5.6102 C   0  0  0  0  0  0  0  0  0  0  0  0
   15.8785  -26.0272   -6.2902 C   0  0  0  0  0  0  0  0  0  0  0  0
   15.8525  -24.7663   -5.7322 C   0  0  0  0  0  0  0  0  0  0  0  0
   15.4098  -24.6082   -4.4449 C   0  0  0  0  0  0  0  0  0  0  0  0
   14.9946  -25.7068   -3.7248 C   0  0  0  0  0  0  0  0  0  0  0  0
   15.0296  -26.9684   -4.3103 C   0  0  0  0  0  0  0  0  0  0  0  0
   17.2862  -29.3052   -4.6668 C   0  0  0  0  0  0  0  0  0  0  0  0
   18.1448  -28.4271   -4.0780 O   0  0  0  0  0  0  0  0  0  0  0  0
   16.8880  -30.2957   -3.9502 O   0  0  0  0  0  0  0  0  0  0  0  0
  2  1  1  6
  3  2  1  0
  3  4  1  0
  5  4  1  0
  5  6  1  0
  6  7  1  0
  8 10  1  0
  8  2  1  0
  9  8  2  0
 10 14  1  0
 11 12  1  0
 11 10  1  0
 12 13  1  0
 13 14  1  0
 14 15  1  1
 15 17  1  0
 16 15  2  0
 17 18  1  0
 18 19  1  1
 19 20  1  0
 20 21  2  0
 21 22  1  0
 23 22  2  0
 24 23  1  0
 25 24  2  0
 25 20  1  0
 26 27  1  0
 26 18  1  0
 28 26  2  0
M  END
$$$$
