KPF.pdb
     RDKit          3D

 28 29  0  0  1  0  0  0  0  0999 V2000
   23.3163  -22.3995  -14.9400 N   0  0  0  0  0  0  0  0  0  0  0  0
   24.0174  -21.3577  -14.3951 C   0  0  1  0  0  0  0  0  0  0  0  0
   23.1972  -20.2607  -13.8173 C   0  0  0  0  0  0  0  0  0  0  0  0
   21.9579  -20.4320  -13.1145 C   0  0  0  0  0  0  0  0  0  0  0  0
   20.6130  -20.6319  -13.6109 C   0  0  0  0  0  0  0  0  0  0  0  0
   19.5052  -20.7825  -12.6362 C   0  0  0  0  0  0  0  0  0  0  0  0
   18.2817  -20.9960  -13.4943 N   0  0  0  0  0  0  0  0  0  0  0  0
   25.0299  -21.7289  -13.3492 C   0  0  0  0  0  0  0  0  0  0  0  0
   24.8725  -22.9241  -12.9286 O   0  0  0  0  0  0  0  0  0  0  0  0
   26.0516  -20.8926  -12.8596 N   0  0  0  0  0  0  0  0  0  0  0  0
   26.3904  -19.5056  -13.0551 C   0  0  0  0  0  0  0  0  0  0  0  0
   27.8770  -19.5991  -13.3814 C   0  0  0  0  0  0  0  0  0  0  0  0
   28.3309  -20.8119  -12.6078 C   0  0  0  0  0  0  0  0  0  0  0  0
   27.0848  -21.3358  -11.9307 C   0  0  1  0  0  0  0  0  0  0  0  0
   26.8693  -20.8125  -10.5739 C   0  0  0  0  0  0  0  0  0  0  0  0
   26.1938  -19.7530  -10.4531 O   0  0  0  0  0  0  0  0  0  0  0  0
   27.3758  -21.4306   -9.4309 N   0  0  0  0  0  0  0  0  0  0  0  0
   27.2697  -20.8932   -8.0885 C   0  0  1  0  0  0  0  0  0  0  0  0
   28.4083  -21.3104   -7.2442 C   0  0  0  0  0  0  0  0  0  0  0  0
   28.5125  -20.6327   -5.9398 C   0  0  0  0  0  0  0  0  0  0  0  0
   29.1232  -19.4153   -5.7980 C   0  0  0  0  0  0  0  0  0  0  0  0
   29.2211  -18.7685   -4.5839 C   0  0  0  0  0  0  0  0  0  0  0  0
   28.6939  -19.3554   -3.4633 C   0  0  0  0  0  0  0  0  0  0  0  0
   28.0714  -20.5805   -3.5616 C   0  0  0  0  0  0  0  0  0  0  0  0
   27.9846  -21.2125   -4.7980 C   0  0  0  0  0  0  0  0  0  0  0  0
   27.0162  -19.4250   -8.1272 C   0  0  0  0  0  0  0  0  0  0  0  0
   27.7505  -18.4960   -8.8001 O   0  0  0  0  0  0  0  0  0  0  0  0
   26.0076  -18.9926   -7.4572 O   0  0  0  0  0  0  0  0  0  0  0  0
  2  1  1  1
  3  2  1  0
  3  4  1  0
  5  4  1  0
  5  6  1  0
  6  7  1  0
  8 10  1  0
  8  2  1  0
  9  8  2  0
 10 14  1  0
 11 12  1  0
 11 10  1  0
 12 13  1  0
 13 14  1  0
 14 15  1  1
 15 17  1  0
 16 15  2  0
 17 18  1  0
 18 19  1  1
 19 20  1  0
 20 21  2  0
 21 22  1  0
 23 22  2  0
 24 23  1  0
 25 24  2  0
 25 20  1  0
 26 27  1  0
 26 18  1  0
 28 26  2  0
M  END
$$$$
