KPF.pdb
     RDKit          3D

 28 29  0  0  1  0  0  0  0  0999 V2000
   23.2706  -18.9921  -14.9994 N   0  0  0  0  0  0  0  0  0  0  0  0
   24.5533  -18.9178  -14.5272 C   0  0  1  0  0  0  0  0  0  0  0  0
   25.0120  -17.5647  -14.1166 C   0  0  0  0  0  0  0  0  0  0  0  0
   25.5458  -16.5658  -14.9978 C   0  0  0  0  0  0  0  0  0  0  0  0
   25.8157  -16.6102  -16.4191 C   0  0  0  0  0  0  0  0  0  0  0  0
   26.3858  -15.4096  -17.0774 C   0  0  0  0  0  0  0  0  0  0  0  0
   26.4918  -15.7985  -18.5322 N   0  0  0  0  0  0  0  0  0  0  0  0
   24.8846  -19.8430  -13.3908 C   0  0  0  0  0  0  0  0  0  0  0  0
   23.8422  -20.2246  -12.7602 O   0  0  0  0  0  0  0  0  0  0  0  0
   26.1764  -20.2689  -13.0265 N   0  0  0  0  0  0  0  0  0  0  0  0
   27.5077  -19.8468  -13.3821 C   0  0  0  0  0  0  0  0  0  0  0  0
   28.1621  -21.1764  -13.7412 C   0  0  0  0  0  0  0  0  0  0  0  0
   27.4519  -22.1685  -12.8543 C   0  0  0  0  0  0  0  0  0  0  0  0
   26.4361  -21.3533  -12.0866 C   0  0  1  0  0  0  0  0  0  0  0  0
   26.9164  -20.8568  -10.7890 C   0  0  0  0  0  0  0  0  0  0  0  0
   28.0912  -20.3979  -10.7336 O   0  0  0  0  0  0  0  0  0  0  0  0
   26.1373  -20.8737   -9.6324 N   0  0  0  0  0  0  0  0  0  0  0  0
   26.6670  -20.9127   -8.2832 C   0  0  1  0  0  0  0  0  0  0  0  0
   27.7174  -19.8933   -8.0818 C   0  0  0  0  0  0  0  0  0  0  0  0
   28.1816  -19.7268   -6.6931 C   0  0  0  0  0  0  0  0  0  0  0  0
   27.9404  -18.5854   -5.9761 C   0  0  0  0  0  0  0  0  0  0  0  0
   28.3641  -18.4206   -4.6740 C   0  0  0  0  0  0  0  0  0  0  0  0
   29.0587  -19.4292   -4.0588 C   0  0  0  0  0  0  0  0  0  0  0  0
   29.3235  -20.5943   -4.7446 C   0  0  0  0  0  0  0  0  0  0  0  0
   28.8846  -20.7367   -6.0571 C   0  0  0  0  0  0  0  0  0  0  0  0
   25.5626  -20.8886   -7.2828 C   0  0  0  0  0  0  0  0  0  0  0  0
   24.3803  -20.2227   -7.4006 O   0  0  0  0  0  0  0  0  0  0  0  0
   25.7450  -21.5592   -6.2010 O   0  0  0  0  0  0  0  0  0  0  0  0
  2  1  1  1
  3  2  1  0
  3  4  1  0
  5  4  1  0
  5  6  1  0
  6  7  1  0
  8 10  1  0
  8  2  1  0
  9  8  2  0
 10 14  1  0
 11 12  1  0
 11 10  1  0
 12 13  1  0
 13 14  1  0
 14 15  1  1
 15 17  1  0
 16 15  2  0
 17 18  1  0
 18 19  1  1
 19 20  1  0
 20 21  2  0
 21 22  1  0
 23 22  2  0
 24 23  1  0
 25 24  2  0
 25 20  1  0
 26 27  1  0
 26 18  1  0
 28 26  2  0
M  END
$$$$
