KPF.pdb
     RDKit          3D

 28 29  0  0  1  0  0  0  0  0999 V2000
   23.2770  -36.6576  -14.7403 N   0  0  0  0  0  0  0  0  0  0  0  0
   23.5310  -35.3922  -14.2841 C   0  0  1  0  0  0  0  0  0  0  0  0
   22.4394  -34.7587  -13.4986 C   0  0  0  0  0  0  0  0  0  0  0  0
   22.1061  -33.3631  -13.5157 C   0  0  0  0  0  0  0  0  0  0  0  0
   22.0145  -32.4296  -14.6180 C   0  0  0  0  0  0  0  0  0  0  0  0
   21.7438  -31.0009  -14.3256 C   0  0  0  0  0  0  0  0  0  0  0  0
   21.8311  -30.3230  -15.6717 N   0  0  0  0  0  0  0  0  0  0  0  0
   24.7870  -35.2301  -13.4758 C   0  0  0  0  0  0  0  0  0  0  0  0
   25.0161  -36.2427  -12.7327 O   0  0  0  0  0  0  0  0  0  0  0  0
   25.6437  -34.1129  -13.5020 N   0  0  0  0  0  0  0  0  0  0  0  0
   25.6494  -32.8719  -14.2348 C   0  0  0  0  0  0  0  0  0  0  0  0
   27.0808  -32.8354  -14.7591 C   0  0  0  0  0  0  0  0  0  0  0  0
   27.8633  -33.5644  -13.6955 C   0  0  0  0  0  0  0  0  0  0  0  0
   26.8353  -33.9870  -12.6707 C   0  0  1  0  0  0  0  0  0  0  0  0
   26.6452  -33.0264  -11.5743 C   0  0  0  0  0  0  0  0  0  0  0  0
   26.3050  -31.8490  -11.8769 O   0  0  0  0  0  0  0  0  0  0  0  0
   26.8248  -33.3590  -10.2319 N   0  0  0  0  0  0  0  0  0  0  0  0
   26.5097  -32.4860   -9.1179 C   0  0  1  0  0  0  0  0  0  0  0  0
   25.1655  -31.8889   -9.2584 C   0  0  0  0  0  0  0  0  0  0  0  0
   24.0425  -32.7517   -8.8507 C   0  0  0  0  0  0  0  0  0  0  0  0
   23.6025  -32.8115   -7.5554 C   0  0  0  0  0  0  0  0  0  0  0  0
   22.5487  -33.6100   -7.1632 C   0  0  0  0  0  0  0  0  0  0  0  0
   21.9067  -34.3838   -8.0945 C   0  0  0  0  0  0  0  0  0  0  0  0
   22.3179  -34.3539   -9.4090 C   0  0  0  0  0  0  0  0  0  0  0  0
   23.3831  -33.5394   -9.7799 C   0  0  0  0  0  0  0  0  0  0  0  0
   26.7629  -33.1748   -7.8207 C   0  0  0  0  0  0  0  0  0  0  0  0
   26.8425  -32.5856   -6.5953 O   0  0  0  0  0  0  0  0  0  0  0  0
   26.9253  -34.4495   -7.8628 O   0  0  0  0  0  0  0  0  0  0  0  0
  2  1  1  1
  3  2  1  0
  3  4  1  0
  5  4  1  0
  5  6  1  0
  6  7  1  0
  8 10  1  0
  8  2  1  0
  9  8  2  0
 10 14  1  0
 11 12  1  0
 11 10  1  0
 12 13  1  0
 13 14  1  0
 14 15  1  1
 15 17  1  0
 16 15  2  0
 17 18  1  0
 18 19  1  1
 19 20  1  0
 20 21  2  0
 21 22  1  0
 23 22  2  0
 24 23  1  0
 25 24  2  0
 25 20  1  0
 26 27  1  0
 26 18  1  0
 28 26  2  0
M  END
$$$$
