KPF.pdb
     RDKit          3D

 28 29  0  0  1  0  0  0  0  0999 V2000
  -81.1262  -36.5337  -20.8411 N   0  0  0  0  0  0  0  0  0  0  0  0
  -80.5181  -35.6163  -20.0271 C   0  0  1  0  0  0  0  0  0  0  0  0
  -79.0547  -35.4469  -20.2271 C   0  0  0  0  0  0  0  0  0  0  0  0
  -78.0603  -36.4502  -19.9751 C   0  0  0  0  0  0  0  0  0  0  0  0
  -76.6280  -36.3346  -19.8010 C   0  0  0  0  0  0  0  0  0  0  0  0
  -75.8332  -35.6447  -20.8461 C   0  0  0  0  0  0  0  0  0  0  0  0
  -74.4196  -35.6731  -20.3172 N   0  0  0  0  0  0  0  0  0  0  0  0
  -81.1125  -34.2367  -20.0407 C   0  0  0  0  0  0  0  0  0  0  0  0
  -80.2249  -33.3280  -19.9123 O   0  0  0  0  0  0  0  0  0  0  0  0
  -82.4804  -33.9315  -20.1780 N   0  0  0  0  0  0  0  0  0  0  0  0
  -83.6811  -34.7251  -20.2521 C   0  0  0  0  0  0  0  0  0  0  0  0
  -84.3618  -34.1318  -21.4809 C   0  0  0  0  0  0  0  0  0  0  0  0
  -83.9160  -32.6909  -21.4683 C   0  0  0  0  0  0  0  0  0  0  0  0
  -83.0012  -32.5724  -20.2704 C   0  0  1  0  0  0  0  0  0  0  0  0
  -83.6767  -32.1543  -19.0336 C   0  0  0  0  0  0  0  0  0  0  0  0
  -83.0438  -32.2766  -17.9482 O   0  0  0  0  0  0  0  0  0  0  0  0
  -84.9714  -31.6364  -19.0117 N   0  0  0  0  0  0  0  0  0  0  0  0
  -85.7903  -31.4164  -20.1878 C   0  0  1  0  0  0  0  0  0  0  0  0
  -86.3072  -30.0332  -20.2394 C   0  0  0  0  0  0  0  0  0  0  0  0
  -85.3231  -29.0019  -20.6131 C   0  0  0  0  0  0  0  0  0  0  0  0
  -85.5395  -28.1281  -21.6449 C   0  0  0  0  0  0  0  0  0  0  0  0
  -84.6290  -27.1548  -21.9997 C   0  0  0  0  0  0  0  0  0  0  0  0
  -83.4535  -27.0461  -21.3036 C   0  0  0  0  0  0  0  0  0  0  0  0
  -83.1956  -27.9059  -20.2585 C   0  0  0  0  0  0  0  0  0  0  0  0
  -84.1305  -28.8788  -19.9194 C   0  0  0  0  0  0  0  0  0  0  0  0
  -85.0808  -31.8723  -21.4166 C   0  0  0  0  0  0  0  0  0  0  0  0
  -85.1029  -31.2636  -22.6349 O   0  0  0  0  0  0  0  0  0  0  0  0
  -84.3820  -32.9471  -21.3181 O   0  0  0  0  0  0  0  0  0  0  0  0
  2  1  1  6
  3  2  1  0
  3  4  1  0
  5  4  1  0
  5  6  1  0
  6  7  1  0
  8 10  1  0
  8  2  1  0
  9  8  2  0
 10 14  1  0
 11 12  1  0
 11 10  1  0
 12 13  1  0
 13 14  1  0
 14 15  1  1
 15 17  1  0
 16 15  2  0
 17 18  1  0
 18 19  1  6
 19 20  1  0
 20 21  2  0
 21 22  1  0
 23 22  2  0
 24 23  1  0
 25 24  2  0
 25 20  1  0
 26 27  1  0
 26 18  1  0
 28 26  2  0
M  END
$$$$
