KPF.pdb
     RDKit          3D

 28 29  0  0  1  0  0  0  0  0999 V2000
   23.1177  -19.9342  -17.3144 N   0  0  0  0  0  0  0  0  0  0  0  0
   24.0762  -19.2609  -16.6061 C   0  0  1  0  0  0  0  0  0  0  0  0
   23.6285  -18.0059  -15.9470 C   0  0  0  0  0  0  0  0  0  0  0  0
   23.3701  -16.7630  -16.6159 C   0  0  0  0  0  0  0  0  0  0  0  0
   22.6030  -16.4770  -17.8095 C   0  0  0  0  0  0  0  0  0  0  0  0
   22.5294  -15.0774  -18.2951 C   0  0  0  0  0  0  0  0  0  0  0  0
   21.6483  -15.1543  -19.5185 N   0  0  0  0  0  0  0  0  0  0  0  0
   24.7940  -20.0608  -15.5563 C   0  0  0  0  0  0  0  0  0  0  0  0
   24.1258  -21.0852  -15.1901 O   0  0  0  0  0  0  0  0  0  0  0  0
   26.0563  -19.7576  -15.0109 N   0  0  0  0  0  0  0  0  0  0  0  0
   26.9968  -18.6820  -15.1996 C   0  0  0  0  0  0  0  0  0  0  0  0
   28.2944  -19.4498  -15.4275 C   0  0  0  0  0  0  0  0  0  0  0  0
   28.1077  -20.7052  -14.6124 C   0  0  0  0  0  0  0  0  0  0  0  0
   26.7257  -20.5825  -14.0118 C   0  0  1  0  0  0  0  0  0  0  0  0
   26.6995  -19.9652  -12.6779 C   0  0  0  0  0  0  0  0  0  0  0  0
   26.8150  -18.7100  -12.6089 O   0  0  0  0  0  0  0  0  0  0  0  0
   26.5558  -20.7009  -11.5019 N   0  0  0  0  0  0  0  0  0  0  0  0
   26.3439  -20.1225  -10.1893 C   0  0  1  0  0  0  0  0  0  0  0  0
   25.1175  -19.2993  -10.1495 C   0  0  0  0  0  0  0  0  0  0  0  0
   23.8609  -20.0198  -10.4206 C   0  0  0  0  0  0  0  0  0  0  0  0
   23.3401  -20.1269  -11.6825 C   0  0  0  0  0  0  0  0  0  0  0  0
   22.1686  -20.8040  -11.9493 C   0  0  0  0  0  0  0  0  0  0  0  0
   21.4838  -21.3968  -10.9209 C   0  0  0  0  0  0  0  0  0  0  0  0
   21.9726  -21.3125   -9.6356 C   0  0  0  0  0  0  0  0  0  0  0  0
   23.1571  -20.6245   -9.3922 C   0  0  0  0  0  0  0  0  0  0  0  0
   26.4380  -21.1680   -9.1314 C   0  0  0  0  0  0  0  0  0  0  0  0
   26.4884  -20.9547   -7.7871 O   0  0  0  0  0  0  0  0  0  0  0  0
   26.4789  -22.3909   -9.5264 O   0  0  0  0  0  0  0  0  0  0  0  0
  2  1  1  1
  3  2  1  0
  3  4  1  0
  5  4  1  0
  5  6  1  0
  6  7  1  0
  8 10  1  0
  8  2  1  0
  9  8  2  0
 10 14  1  0
 11 12  1  0
 11 10  1  0
 12 13  1  0
 13 14  1  0
 14 15  1  1
 15 17  1  0
 16 15  2  0
 17 18  1  0
 18 19  1  6
 19 20  1  0
 20 21  2  0
 21 22  1  0
 23 22  2  0
 24 23  1  0
 25 24  2  0
 25 20  1  0
 26 27  1  0
 26 18  1  0
 28 26  2  0
M  END
$$$$
