KPF.pdb
     RDKit          3D

 28 29  0  0  1  0  0  0  0  0999 V2000
   23.2022  -20.0842  -15.1900 N   0  0  0  0  0  0  0  0  0  0  0  0
   24.2905  -19.5620  -14.5445 C   0  0  1  0  0  0  0  0  0  0  0  0
   24.2221  -18.1091  -14.2372 C   0  0  0  0  0  0  0  0  0  0  0  0
   25.0020  -17.0876  -14.8754 C   0  0  0  0  0  0  0  0  0  0  0  0
   25.7180  -17.0964  -16.1333 C   0  0  0  0  0  0  0  0  0  0  0  0
   26.5714  -15.9338  -16.4796 C   0  0  0  0  0  0  0  0  0  0  0  0
   27.1182  -16.2681  -17.8464 N   0  0  0  0  0  0  0  0  0  0  0  0
   24.6836  -20.2494  -13.2678 C   0  0  0  0  0  0  0  0  0  0  0  0
   23.6826  -20.7765  -12.6761 O   0  0  0  0  0  0  0  0  0  0  0  0
   25.9887  -20.3309  -12.7455 N   0  0  0  0  0  0  0  0  0  0  0  0
   27.2501  -19.7328  -13.1036 C   0  0  0  0  0  0  0  0  0  0  0  0
   28.1667  -20.9511  -13.1318 C   0  0  0  0  0  0  0  0  0  0  0  0
   27.5638  -21.8685  -12.0975 C   0  0  0  0  0  0  0  0  0  0  0  0
   26.3464  -21.1349  -11.5824 C   0  0  1  0  0  0  0  0  0  0  0  0
   26.5981  -20.3066  -10.3944 C   0  0  0  0  0  0  0  0  0  0  0  0
   27.1060  -19.1645  -10.5712 O   0  0  0  0  0  0  0  0  0  0  0  0
   26.3038  -20.7270   -9.0977 N   0  0  0  0  0  0  0  0  0  0  0  0
   26.8671  -20.1446   -7.8953 C   0  0  1  0  0  0  0  0  0  0  0  0
   26.7281  -21.0501   -6.7359 C   0  0  0  0  0  0  0  0  0  0  0  0
   27.3893  -20.6012   -5.4978 C   0  0  0  0  0  0  0  0  0  0  0  0
   26.8694  -20.8625   -4.2582 C   0  0  0  0  0  0  0  0  0  0  0  0
   27.4823  -20.4533   -3.0925 C   0  0  0  0  0  0  0  0  0  0  0  0
   28.6584  -19.7529   -3.1595 C   0  0  0  0  0  0  0  0  0  0  0  0
   29.2155  -19.4680   -4.3869 C   0  0  0  0  0  0  0  0  0  0  0  0
   28.5784  -19.8926   -5.5486 C   0  0  0  0  0  0  0  0  0  0  0  0
   28.2497  -19.6487   -8.1478 C   0  0  0  0  0  0  0  0  0  0  0  0
   29.2641  -20.3462   -8.7305 O   0  0  0  0  0  0  0  0  0  0  0  0
   28.5115  -18.4460   -7.7763 O   0  0  0  0  0  0  0  0  0  0  0  0
  2  1  1  1
  3  2  1  0
  3  4  1  0
  5  4  1  0
  5  6  1  0
  6  7  1  0
  8 10  1  0
  8  2  1  0
  9  8  2  0
 10 14  1  0
 11 12  1  0
 11 10  1  0
 12 13  1  0
 13 14  1  0
 14 15  1  1
 15 17  1  0
 16 15  2  0
 17 18  1  0
 18 19  1  1
 19 20  1  0
 20 21  2  0
 21 22  1  0
 23 22  2  0
 24 23  1  0
 25 24  2  0
 25 20  1  0
 26 27  1  0
 26 18  1  0
 28 26  2  0
M  END
$$$$
