KPF.pdb
     RDKit          3D

 28 29  0  0  1  0  0  0  0  0999 V2000
   25.9215  -17.3271  -20.1120 N   0  0  0  0  0  0  0  0  0  0  0  0
   25.6569  -16.9456  -18.8243 C   0  0  1  0  0  0  0  0  0  0  0  0
   24.3619  -16.2470  -18.6119 C   0  0  0  0  0  0  0  0  0  0  0  0
   23.0836  -16.7094  -19.0716 C   0  0  0  0  0  0  0  0  0  0  0  0
   22.3043  -17.8655  -18.6829 C   0  0  0  0  0  0  0  0  0  0  0  0
   21.0572  -18.1708  -19.4255 C   0  0  0  0  0  0  0  0  0  0  0  0
   20.5853  -19.4787  -18.8375 N   0  0  0  0  0  0  0  0  0  0  0  0
   25.7267  -18.0362  -17.7934 C   0  0  0  0  0  0  0  0  0  0  0  0
   25.7896  -19.1964  -18.3225 O   0  0  0  0  0  0  0  0  0  0  0  0
   25.7272  -17.8501  -16.3976 N   0  0  0  0  0  0  0  0  0  0  0  0
   25.4945  -16.7170  -15.5381 C   0  0  0  0  0  0  0  0  0  0  0  0
   26.7039  -16.7848  -14.6119 C   0  0  0  0  0  0  0  0  0  0  0  0
   27.0079  -18.2604  -14.5384 C   0  0  0  0  0  0  0  0  0  0  0  0
   25.9868  -18.9179  -15.4388 C   0  0  1  0  0  0  0  0  0  0  0  0
   24.7629  -19.3506  -14.7489 C   0  0  0  0  0  0  0  0  0  0  0  0
   23.8021  -18.5339  -14.6890 O   0  0  0  0  0  0  0  0  0  0  0  0
   24.6235  -20.6092  -14.1648 N   0  0  0  0  0  0  0  0  0  0  0  0
   23.4392  -21.0650  -13.4633 C   0  0  1  0  0  0  0  0  0  0  0  0
   23.7722  -22.0618  -12.4248 C   0  0  0  0  0  0  0  0  0  0  0  0
   24.7382  -21.6165  -11.4048 C   0  0  0  0  0  0  0  0  0  0  0  0
   24.3430  -21.0082  -10.2434 C   0  0  0  0  0  0  0  0  0  0  0  0
   25.2370  -20.5930   -9.2789 C   0  0  0  0  0  0  0  0  0  0  0  0
   26.5793  -20.7868   -9.4763 C   0  0  0  0  0  0  0  0  0  0  0  0
   27.0198  -21.3946  -10.6315 C   0  0  0  0  0  0  0  0  0  0  0  0
   26.0979  -21.8052  -11.5892 C   0  0  0  0  0  0  0  0  0  0  0  0
   22.6282  -19.9071  -12.9911 C   0  0  0  0  0  0  0  0  0  0  0  0
   21.2872  -19.9037  -12.7531 O   0  0  0  0  0  0  0  0  0  0  0  0
   23.2553  -18.8024  -12.7921 O   0  0  0  0  0  0  0  0  0  0  0  0
  2  1  1  6
  3  2  1  0
  3  4  1  0
  5  4  1  0
  5  6  1  0
  6  7  1  0
  8 10  1  0
  8  2  1  0
  9  8  2  0
 10 14  1  0
 11 12  1  0
 11 10  1  0
 12 13  1  0
 13 14  1  0
 14 15  1  1
 15 17  1  0
 16 15  2  0
 17 18  1  0
 18 19  1  1
 19 20  1  0
 20 21  2  0
 21 22  1  0
 23 22  2  0
 24 23  1  0
 25 24  2  0
 25 20  1  0
 26 27  1  0
 26 18  1  0
 28 26  2  0
M  END
$$$$
