KPF.pdb
     RDKit          3D

 28 29  0  0  1  0  0  0  0  0999 V2000
   26.7737  -20.7121  -17.7986 N   0  0  0  0  0  0  0  0  0  0  0  0
   27.2220  -19.9940  -16.7229 C   0  0  1  0  0  0  0  0  0  0  0  0
   26.7411  -18.5898  -16.6393 C   0  0  0  0  0  0  0  0  0  0  0  0
   25.4483  -18.1284  -17.0576 C   0  0  0  0  0  0  0  0  0  0  0  0
   24.1370  -18.3563  -16.4888 C   0  0  0  0  0  0  0  0  0  0  0  0
   22.9501  -17.7941  -17.1780 C   0  0  0  0  0  0  0  0  0  0  0  0
   21.7880  -18.1901  -16.2995 N   0  0  0  0  0  0  0  0  0  0  0  0
   26.9712  -20.6111  -15.3763 C   0  0  0  0  0  0  0  0  0  0  0  0
   26.0802  -21.5243  -15.4229 O   0  0  0  0  0  0  0  0  0  0  0  0
   27.6184  -20.2587  -14.1764 N   0  0  0  0  0  0  0  0  0  0  0  0
   28.5722  -19.2407  -13.8144 C   0  0  0  0  0  0  0  0  0  0  0  0
   29.6239  -20.0596  -13.0737 C   0  0  0  0  0  0  0  0  0  0  0  0
   28.8259  -21.1812  -12.4571 C   0  0  0  0  0  0  0  0  0  0  0  0
   27.4023  -20.9456  -12.9082 C   0  0  1  0  0  0  0  0  0  0  0  0
   26.5981  -20.1432  -11.9753 C   0  0  0  0  0  0  0  0  0  0  0  0
   26.4190  -18.9245  -12.2518 O   0  0  0  0  0  0  0  0  0  0  0  0
   26.0343  -20.6670  -10.8122 N   0  0  0  0  0  0  0  0  0  0  0  0
   24.7174  -20.3266  -10.3099 C   0  0  1  0  0  0  0  0  0  0  0  0
   23.6606  -20.6529  -11.2897 C   0  0  0  0  0  0  0  0  0  0  0  0
   22.2865  -20.3183  -10.8756 C   0  0  0  0  0  0  0  0  0  0  0  0
   21.5860  -21.0877   -9.9855 C   0  0  0  0  0  0  0  0  0  0  0  0
   20.3022  -20.7811   -9.5856 C   0  0  0  0  0  0  0  0  0  0  0  0
   19.6867  -19.6664  -10.0924 C   0  0  0  0  0  0  0  0  0  0  0  0
   20.3558  -18.8650  -10.9913 C   0  0  0  0  0  0  0  0  0  0  0  0
   21.6507  -19.1951  -11.3785 C   0  0  0  0  0  0  0  0  0  0  0  0
   24.5113  -20.8919   -8.9463 C   0  0  0  0  0  0  0  0  0  0  0  0
   24.9896  -22.0803   -8.4838 O   0  0  0  0  0  0  0  0  0  0  0  0
   23.8107  -20.1906   -8.1275 O   0  0  0  0  0  0  0  0  0  0  0  0
  2  1  1  6
  3  2  1  0
  3  4  1  0
  5  4  1  0
  5  6  1  0
  6  7  1  0
  8 10  1  0
  8  2  1  0
  9  8  2  0
 10 14  1  0
 11 12  1  0
 11 10  1  0
 12 13  1  0
 13 14  1  0
 14 15  1  1
 15 17  1  0
 16 15  2  0
 17 18  1  0
 18 19  1  6
 19 20  1  0
 20 21  2  0
 21 22  1  0
 23 22  2  0
 24 23  1  0
 25 24  2  0
 25 20  1  0
 26 27  1  0
 26 18  1  0
 28 26  2  0
M  END
$$$$
