KPF.pdb
     RDKit          3D

 28 29  0  0  1  0  0  0  0  0999 V2000
   24.5754  -21.1734  -17.8882 N   0  0  0  0  0  0  0  0  0  0  0  0
   24.8904  -20.1976  -16.9814 C   0  0  1  0  0  0  0  0  0  0  0  0
   23.7479  -19.3874  -16.4831 C   0  0  0  0  0  0  0  0  0  0  0  0
   22.8153  -18.6723  -17.3065 C   0  0  0  0  0  0  0  0  0  0  0  0
   21.8452  -19.1528  -18.2672 C   0  0  0  0  0  0  0  0  0  0  0  0
   21.0153  -18.1667  -19.0011 C   0  0  0  0  0  0  0  0  0  0  0  0
   20.2335  -18.9999  -19.9878 N   0  0  0  0  0  0  0  0  0  0  0  0
   25.6495  -20.6549  -15.7683 C   0  0  0  0  0  0  0  0  0  0  0  0
   25.5890  -21.9204  -15.6105 O   0  0  0  0  0  0  0  0  0  0  0  0
   26.3604  -19.8241  -14.8810 N   0  0  0  0  0  0  0  0  0  0  0  0
   26.4929  -18.3966  -14.7344 C   0  0  0  0  0  0  0  0  0  0  0  0
   28.0074  -18.2391  -14.6516 C   0  0  0  0  0  0  0  0  0  0  0  0
   28.4595  -19.5242  -14.0041 C   0  0  0  0  0  0  0  0  0  0  0  0
   27.1948  -20.3257  -13.7952 C   0  0  1  0  0  0  0  0  0  0  0  0
   26.5666  -20.1310  -12.4804 C   0  0  0  0  0  0  0  0  0  0  0  0
   25.6252  -19.2941  -12.3971 O   0  0  0  0  0  0  0  0  0  0  0  0
   26.9648  -20.8233  -11.3371 N   0  0  0  0  0  0  0  0  0  0  0  0
   26.0827  -21.1864  -10.2452 C   0  0  1  0  0  0  0  0  0  0  0  0
   26.8276  -21.7957   -9.1240 C   0  0  0  0  0  0  0  0  0  0  0  0
   27.5327  -20.8487   -8.2421 C   0  0  0  0  0  0  0  0  0  0  0  0
   26.8643  -19.9391   -7.4669 C   0  0  0  0  0  0  0  0  0  0  0  0
   27.5128  -19.0525   -6.6331 C   0  0  0  0  0  0  0  0  0  0  0  0
   28.8816  -19.0669   -6.5679 C   0  0  0  0  0  0  0  0  0  0  0  0
   29.5931  -19.9658   -7.3320 C   0  0  0  0  0  0  0  0  0  0  0  0
   28.9157  -20.8507   -8.1648 C   0  0  0  0  0  0  0  0  0  0  0  0
   25.2059  -20.0402   -9.8727 C   0  0  0  0  0  0  0  0  0  0  0  0
   25.5264  -18.7189   -9.9524 O   0  0  0  0  0  0  0  0  0  0  0  0
   24.0334  -20.3268   -9.4297 O   0  0  0  0  0  0  0  0  0  0  0  0
  2  1  1  1
  3  2  1  0
  3  4  1  0
  5  4  1  0
  5  6  1  0
  6  7  1  0
  8 10  1  0
  8  2  1  0
  9  8  2  0
 10 14  1  0
 11 12  1  0
 11 10  1  0
 12 13  1  0
 13 14  1  0
 14 15  1  1
 15 17  1  0
 16 15  2  0
 17 18  1  0
 18 19  1  1
 19 20  1  0
 20 21  2  0
 21 22  1  0
 23 22  2  0
 24 23  1  0
 25 24  2  0
 25 20  1  0
 26 27  1  0
 26 18  1  0
 28 26  2  0
M  END
$$$$
