KPF.pdb
     RDKit          3D

 28 29  0  0  1  0  0  0  0  0999 V2000
   24.6788  -17.8806  -19.4238 N   0  0  0  0  0  0  0  0  0  0  0  0
   25.1271  -17.7616  -18.1359 C   0  0  1  0  0  0  0  0  0  0  0  0
   24.0944  -17.4196  -17.1227 C   0  0  0  0  0  0  0  0  0  0  0  0
   22.8184  -16.8268  -17.4047 C   0  0  0  0  0  0  0  0  0  0  0  0
   21.7649  -16.3896  -16.5137 C   0  0  0  0  0  0  0  0  0  0  0  0
   20.5016  -15.8756  -17.0966 C   0  0  0  0  0  0  0  0  0  0  0  0
   19.6750  -17.1144  -17.3434 N   0  0  0  0  0  0  0  0  0  0  0  0
   25.8793  -18.9443  -17.5951 C   0  0  0  0  0  0  0  0  0  0  0  0
   25.7738  -19.9688  -18.3496 O   0  0  0  0  0  0  0  0  0  0  0  0
   26.6277  -18.9681  -16.4026 N   0  0  0  0  0  0  0  0  0  0  0  0
   26.7720  -18.0606  -15.2923 C   0  0  0  0  0  0  0  0  0  0  0  0
   28.2892  -17.9708  -15.1687 C   0  0  0  0  0  0  0  0  0  0  0  0
   28.7606  -19.3253  -15.6356 C   0  0  0  0  0  0  0  0  0  0  0  0
   27.5016  -20.0702  -16.0172 C   0  0  1  0  0  0  0  0  0  0  0  0
   26.9259  -20.8786  -14.9327 C   0  0  0  0  0  0  0  0  0  0  0  0
   27.6904  -21.6813  -14.3287 O   0  0  0  0  0  0  0  0  0  0  0  0
   25.5872  -20.7962  -14.5509 N   0  0  0  0  0  0  0  0  0  0  0  0
   25.0869  -21.1158  -13.2280 C   0  0  1  0  0  0  0  0  0  0  0  0
   25.8116  -20.3705  -12.1780 C   0  0  0  0  0  0  0  0  0  0  0  0
   25.2860  -20.5288  -10.8104 C   0  0  0  0  0  0  0  0  0  0  0  0
   25.9895  -21.1759   -9.8299 C   0  0  0  0  0  0  0  0  0  0  0  0
   25.5109  -21.3246   -8.5450 C   0  0  0  0  0  0  0  0  0  0  0  0
   24.2818  -20.8126   -8.2203 C   0  0  0  0  0  0  0  0  0  0  0  0
   23.5407  -20.1547   -9.1773 C   0  0  0  0  0  0  0  0  0  0  0  0
   24.0458  -20.0169  -10.4664 C   0  0  0  0  0  0  0  0  0  0  0  0
   23.6025  -20.9908  -13.1817 C   0  0  0  0  0  0  0  0  0  0  0  0
   22.7482  -21.7708  -12.4628 O   0  0  0  0  0  0  0  0  0  0  0  0
   23.0765  -20.0573  -13.8925 O   0  0  0  0  0  0  0  0  0  0  0  0
  2  1  1  6
  3  2  1  0
  3  4  1  0
  5  4  1  0
  5  6  1  0
  6  7  1  0
  8 10  1  0
  8  2  1  0
  9  8  2  0
 10 14  1  0
 11 12  1  0
 11 10  1  0
 12 13  1  0
 13 14  1  0
 14 15  1  1
 15 17  1  0
 16 15  2  0
 17 18  1  0
 18 19  1  1
 19 20  1  0
 20 21  2  0
 21 22  1  0
 23 22  2  0
 24 23  1  0
 25 24  2  0
 25 20  1  0
 26 27  1  0
 26 18  1  0
 28 26  2  0
M  END
$$$$
