AGN.pdb
     RDKit          3D

 18 17  0  0  1  0  0  0  0  0999 V2000
    8.1691  -12.2723   19.4193 C   0  0  0  0  0  0  0  0  0  0  0  0
    8.3000  -13.7581   19.4534 C   0  0  2  0  0  0  0  0  0  0  0  0
    7.7643  -14.3433   18.2691 N   0  0  0  0  0  0  0  0  0  0  0  0
    7.7785  -14.3864   20.6993 C   0  0  0  0  0  0  0  0  0  0  0  0
    6.5756  -14.3024   21.0540 O   0  0  0  0  0  0  0  0  0  0  0  0
    8.6363  -15.1310   21.5703 N   0  0  0  0  0  0  0  0  0  0  0  0
    8.1945  -15.7652   22.7671 C   0  0  0  0  0  0  0  0  0  0  0  0
    8.7096  -15.1643   24.0135 C   0  0  0  0  0  0  0  0  0  0  0  0
    9.9282  -14.9341   24.1621 O   0  0  0  0  0  0  0  0  0  0  0  0
    5.4663  -11.8438   26.5275 N   0  0  0  0  0  0  0  0  0  0  0  0
    6.7690  -12.3718   26.6669 C   0  0  0  0  0  0  0  0  0  0  0  0
    7.7360  -11.5922   26.3935 O   0  0  0  0  0  0  0  0  0  0  0  0
    7.0700  -13.7426   27.1038 C   0  0  0  0  0  0  0  0  0  0  0  0
    8.2216  -14.3256   26.3570 C   0  0  2  0  0  0  0  0  0  0  0  0
    7.8091  -14.8455   25.0540 N   0  0  0  0  0  0  0  0  0  0  0  0
    8.7234  -15.5079   27.1505 C   0  0  0  0  0  0  0  0  0  0  0  0
    8.5890  -16.6930   26.8110 O   0  0  0  0  0  0  0  0  0  0  0  0
    9.3848  -15.2764   28.3480 O   0  0  0  0  0  0  0  0  0  0  0  0
  2  3  1  0
  2  1  1  1
  4  2  1  0
  5  4  2  0
  6  4  1  0
  7  6  1  0
  8  9  2  0
  8  7  1  0
 11 10  1  0
 11 12  2  0
 14 13  1  1
 13 11  1  0
 14 15  1  0
 15  8  1  0
 16 14  1  0
 17 16  2  0
 18 16  1  0
M  END
$$$$
