AGN.pdb
     RDKit          3D

 18 17  0  0  1  0  0  0  0  0999 V2000
    6.6674  -17.4289   17.6504 C   0  0  0  0  0  0  0  0  0  0  0  0
    7.4911  -18.0855   18.7070 C   0  0  2  0  0  0  0  0  0  0  0  0
    8.2580  -17.1227   19.4258 N   0  0  0  0  0  0  0  0  0  0  0  0
    8.3079  -19.2311   18.2176 C   0  0  0  0  0  0  0  0  0  0  0  0
    7.8203  -20.1851   17.5603 O   0  0  0  0  0  0  0  0  0  0  0  0
    9.7140  -19.3040   18.4755 N   0  0  0  0  0  0  0  0  0  0  0  0
   10.5389  -20.3935   18.0730 C   0  0  0  0  0  0  0  0  0  0  0  0
   11.1799  -21.1283   19.1818 C   0  0  0  0  0  0  0  0  0  0  0  0
   12.0285  -22.0175   18.9597 O   0  0  0  0  0  0  0  0  0  0  0  0
   13.9973  -21.0930   20.6954 N   0  0  0  0  0  0  0  0  0  0  0  0
   13.5864  -20.4790   21.8993 C   0  0  0  0  0  0  0  0  0  0  0  0
   14.4464  -19.7586   22.4983 O   0  0  0  0  0  0  0  0  0  0  0  0
   12.2476  -20.6171   22.4902 C   0  0  0  0  0  0  0  0  0  0  0  0
   11.3710  -21.5125   21.6816 C   0  0  2  0  0  0  0  0  0  0  0  0
   10.8268  -20.8202   20.5142 N   0  0  0  0  0  0  0  0  0  0  0  0
   10.1910  -21.8898   22.5444 C   0  0  0  0  0  0  0  0  0  0  0  0
    9.0636  -21.3804   22.4588 O   0  0  0  0  0  0  0  0  0  0  0  0
   10.3559  -22.8739   23.5085 O   0  0  0  0  0  0  0  0  0  0  0  0
  2  3  1  0
  2  1  1  6
  4  2  1  0
  5  4  2  0
  6  4  1  0
  7  6  1  0
  8  9  2  0
  8  7  1  0
 11 10  1  0
 11 12  2  0
 14 13  1  1
 13 11  1  0
 14 15  1  0
 15  8  1  0
 16 14  1  0
 17 16  2  0
 18 16  1  0
M  END
$$$$
