AGN.pdb
     RDKit          3D

 18 17  0  0  1  0  0  0  0  0999 V2000
    7.4741  -12.7052   19.6204 C   0  0  0  0  0  0  0  0  0  0  0  0
    8.2364  -13.8571   20.1843 C   0  0  2  0  0  0  0  0  0  0  0  0
    7.7983  -15.0865   19.6112 N   0  0  0  0  0  0  0  0  0  0  0  0
    8.2748  -13.8909   21.6731 C   0  0  0  0  0  0  0  0  0  0  0  0
    8.7629  -12.9615   22.3643 O   0  0  0  0  0  0  0  0  0  0  0  0
    7.7481  -15.0032   22.4041 N   0  0  0  0  0  0  0  0  0  0  0  0
    7.6744  -15.0548   23.8259 C   0  0  0  0  0  0  0  0  0  0  0  0
    8.9053  -15.5226   24.4938 C   0  0  0  0  0  0  0  0  0  0  0  0
    9.9314  -15.7956   23.8359 O   0  0  0  0  0  0  0  0  0  0  0  0
    8.8370  -13.3864   28.5676 N   0  0  0  0  0  0  0  0  0  0  0  0
    9.9724  -14.1241   28.1655 C   0  0  0  0  0  0  0  0  0  0  0  0
   11.0129  -13.4571   27.8656 O   0  0  0  0  0  0  0  0  0  0  0  0
   10.0247  -15.5904   28.0768 C   0  0  0  0  0  0  0  0  0  0  0  0
   10.1028  -16.0610   26.6639 C   0  0  2  0  0  0  0  0  0  0  0  0
    8.9216  -15.6636   25.8991 N   0  0  0  0  0  0  0  0  0  0  0  0
   10.1085  -17.5705   26.6896 C   0  0  0  0  0  0  0  0  0  0  0  0
    9.1912  -18.2863   26.2607 O   0  0  0  0  0  0  0  0  0  0  0  0
   11.2074  -18.2254   27.2267 O   0  0  0  0  0  0  0  0  0  0  0  0
  2  3  1  0
  2  1  1  1
  4  2  1  0
  5  4  2  0
  6  4  1  0
  7  6  1  0
  8  9  2  0
  8  7  1  0
 11 10  1  0
 11 12  2  0
 14 13  1  1
 13 11  1  0
 14 15  1  0
 15  8  1  0
 16 14  1  0
 17 16  2  0
 18 16  1  0
M  END
$$$$
