AGN.pdb
     RDKit          3D

 18 17  0  0  1  0  0  0  0  0999 V2000
    8.2482  -13.3551   17.8041 C   0  0  0  0  0  0  0  0  0  0  0  0
    8.3695  -14.2923   18.9586 C   0  0  2  0  0  0  0  0  0  0  0  0
    7.5851  -15.4636   18.7475 N   0  0  0  0  0  0  0  0  0  0  0  0
    8.1238  -13.6594   20.2845 C   0  0  0  0  0  0  0  0  0  0  0  0
    8.8731  -12.7730   20.7668 O   0  0  0  0  0  0  0  0  0  0  0  0
    7.0018  -14.0354   21.0900 N   0  0  0  0  0  0  0  0  0  0  0  0
    6.7041  -13.4545   22.3563 C   0  0  0  0  0  0  0  0  0  0  0  0
    7.3519  -14.1131   23.5081 C   0  0  0  0  0  0  0  0  0  0  0  0
    7.1609  -13.7068   24.6737 O   0  0  0  0  0  0  0  0  0  0  0  0
    6.2264  -16.5664   25.3370 N   0  0  0  0  0  0  0  0  0  0  0  0
    7.0457  -17.6089   24.8500 C   0  0  0  0  0  0  0  0  0  0  0  0
    6.5564  -18.7825   24.8763 O   0  0  0  0  0  0  0  0  0  0  0  0
    8.4045  -17.4229   24.3213 C   0  0  0  0  0  0  0  0  0  0  0  0
    8.8265  -15.9931   24.3592 C   0  0  2  0  0  0  0  0  0  0  0  0
    8.2013  -15.2198   23.2872 N   0  0  0  0  0  0  0  0  0  0  0  0
   10.3141  -15.9537   24.1042 C   0  0  0  0  0  0  0  0  0  0  0  0
   10.8378  -15.9836   22.9806 O   0  0  0  0  0  0  0  0  0  0  0  0
   11.1760  -15.8788   25.1889 O   0  0  0  0  0  0  0  0  0  0  0  0
  2  3  1  0
  2  1  1  6
  4  2  1  0
  5  4  2  0
  6  4  1  0
  7  6  1  0
  8  9  2  0
  8  7  1  0
 11 10  1  0
 11 12  2  0
 14 13  1  6
 13 11  1  0
 14 15  1  0
 15  8  1  0
 16 14  1  0
 17 16  2  0
 18 16  1  0
M  END
$$$$
