AGN.pdb
     RDKit          3D

 18 17  0  0  1  0  0  0  0  0999 V2000
    7.6277  -16.8279   16.8227 C   0  0  0  0  0  0  0  0  0  0  0  0
    8.6391  -16.1685   17.6991 C   0  0  2  0  0  0  0  0  0  0  0  0
    9.2730  -17.1204   18.5498 N   0  0  0  0  0  0  0  0  0  0  0  0
    8.1232  -14.9819   18.4375 C   0  0  0  0  0  0  0  0  0  0  0  0
    7.6087  -13.9905   17.8612 O   0  0  0  0  0  0  0  0  0  0  0  0
    8.1885  -14.9103   19.8656 N   0  0  0  0  0  0  0  0  0  0  0  0
    7.5728  -13.8833   20.6374 C   0  0  0  0  0  0  0  0  0  0  0  0
    7.6484  -14.0766   22.0992 C   0  0  0  0  0  0  0  0  0  0  0  0
    7.1759  -13.2296   22.8863 O   0  0  0  0  0  0  0  0  0  0  0  0
    6.0031  -16.9956   23.9642 N   0  0  0  0  0  0  0  0  0  0  0  0
    6.8974  -16.3611   24.8546 C   0  0  0  0  0  0  0  0  0  0  0  0
    6.3819  -15.6978   25.8094 O   0  0  0  0  0  0  0  0  0  0  0  0
    8.3622  -16.4221   24.7484 C   0  0  0  0  0  0  0  0  0  0  0  0
    8.9085  -15.3043   23.9262 C   0  0  2  0  0  0  0  0  0  0  0  0
    8.2654  -15.2379   22.6146 N   0  0  0  0  0  0  0  0  0  0  0  0
   10.3673  -15.5999   23.6733 C   0  0  0  0  0  0  0  0  0  0  0  0
   10.8475  -15.8834   22.5656 O   0  0  0  0  0  0  0  0  0  0  0  0
   11.2524  -15.5576   24.7410 O   0  0  0  0  0  0  0  0  0  0  0  0
  2  3  1  0
  2  1  1  1
  4  2  1  0
  5  4  2  0
  6  4  1  0
  7  6  1  0
  8  9  2  0
  8  7  1  0
 11 10  1  0
 11 12  2  0
 14 13  1  1
 13 11  1  0
 14 15  1  0
 15  8  1  0
 16 14  1  0
 17 16  2  0
 18 16  1  0
M  END
$$$$
