AGN.pdb
     RDKit          3D

 18 17  0  0  1  0  0  0  0  0999 V2000
    8.5409  -12.6117   19.4735 C   0  0  0  0  0  0  0  0  0  0  0  0
    7.8250  -13.7714   20.0806 C   0  0  2  0  0  0  0  0  0  0  0  0
    7.4763  -13.5010   21.4360 N   0  0  0  0  0  0  0  0  0  0  0  0
    8.5242  -15.0755   19.9094 C   0  0  0  0  0  0  0  0  0  0  0  0
    8.8384  -15.5386   18.7840 O   0  0  0  0  0  0  0  0  0  0  0  0
    8.8801  -15.8808   21.0381 N   0  0  0  0  0  0  0  0  0  0  0  0
    9.4550  -17.1802   20.9358 C   0  0  0  0  0  0  0  0  0  0  0  0
   10.9304  -17.2107   20.9819 C   0  0  0  0  0  0  0  0  0  0  0  0
   11.5607  -18.2633   20.7475 O   0  0  0  0  0  0  0  0  0  0  0  0
   12.2873  -13.6577   18.6588 N   0  0  0  0  0  0  0  0  0  0  0  0
   13.2264  -14.5456   19.2288 C   0  0  0  0  0  0  0  0  0  0  0  0
   13.8407  -15.3211   18.4297 O   0  0  0  0  0  0  0  0  0  0  0  0
   13.5337  -14.6244   20.6641 C   0  0  0  0  0  0  0  0  0  0  0  0
   13.0971  -15.9211   21.2572 C   0  0  2  0  0  0  0  0  0  0  0  0
   11.6394  -16.0303   21.2964 N   0  0  0  0  0  0  0  0  0  0  0  0
   13.5669  -15.9432   22.6918 C   0  0  0  0  0  0  0  0  0  0  0  0
   12.8171  -15.9857   23.6786 O   0  0  0  0  0  0  0  0  0  0  0  0
   14.9300  -15.9145   22.9489 O   0  0  0  0  0  0  0  0  0  0  0  0
  2  3  1  0
  2  1  1  1
  4  2  1  0
  5  4  2  0
  6  4  1  0
  7  6  1  0
  8  9  2  0
  8  7  1  0
 11 10  1  0
 11 12  2  0
 14 13  1  1
 13 11  1  0
 14 15  1  0
 15  8  1  0
 16 14  1  0
 17 16  2  0
 18 16  1  0
M  END
$$$$
