AGN.pdb
     RDKit          3D

 18 17  0  0  1  0  0  0  0  0999 V2000
    7.4911  -12.5392   18.4963 C   0  0  0  0  0  0  0  0  0  0  0  0
    8.5065  -13.3590   19.2195 C   0  0  2  0  0  0  0  0  0  0  0  0
    9.1436  -14.2767   18.3342 N   0  0  0  0  0  0  0  0  0  0  0  0
    7.9942  -14.0075   20.4589 C   0  0  0  0  0  0  0  0  0  0  0  0
    7.3863  -13.3748   21.3588 O   0  0  0  0  0  0  0  0  0  0  0  0
    8.1714  -15.4089   20.6910 N   0  0  0  0  0  0  0  0  0  0  0  0
    7.7560  -16.0748   21.8800 C   0  0  0  0  0  0  0  0  0  0  0  0
    8.4878  -15.6793   23.0999 C   0  0  0  0  0  0  0  0  0  0  0  0
    9.6538  -15.2358   23.0364 O   0  0  0  0  0  0  0  0  0  0  0  0
    7.2234  -12.8520   24.8176 N   0  0  0  0  0  0  0  0  0  0  0  0
    6.7926  -13.5068   25.9928 C   0  0  0  0  0  0  0  0  0  0  0  0
    5.8380  -12.9643   26.6344 O   0  0  0  0  0  0  0  0  0  0  0  0
    7.3686  -14.7569   26.5087 C   0  0  0  0  0  0  0  0  0  0  0  0
    8.4258  -15.2976   25.6066 C   0  0  2  0  0  0  0  0  0  0  0  0
    7.8587  -15.8055   24.3581 N   0  0  0  0  0  0  0  0  0  0  0  0
    9.0540  -16.4802   26.3038 C   0  0  0  0  0  0  0  0  0  0  0  0
    8.6965  -17.6581   26.1546 O   0  0  0  0  0  0  0  0  0  0  0  0
   10.1077  -16.2575   27.1786 O   0  0  0  0  0  0  0  0  0  0  0  0
  2  3  1  0
  2  1  1  6
  4  2  1  0
  5  4  2  0
  6  4  1  0
  7  6  1  0
  8  9  2  0
  8  7  1  0
 11 10  1  0
 11 12  2  0
 14 13  1  1
 13 11  1  0
 14 15  1  0
 15  8  1  0
 16 14  1  0
 17 16  2  0
 18 16  1  0
M  END
$$$$
