AGN.pdb
     RDKit          3D

 18 17  0  0  1  0  0  0  0  0999 V2000
    7.4220  -12.3664   19.2194 C   0  0  0  0  0  0  0  0  0  0  0  0
    8.4963  -13.2515   19.7564 C   0  0  2  0  0  0  0  0  0  0  0  0
    8.9588  -14.1549   18.7556 N   0  0  0  0  0  0  0  0  0  0  0  0
    8.1428  -13.9309   21.0342 C   0  0  0  0  0  0  0  0  0  0  0  0
    7.6566  -13.3207   22.0196 O   0  0  0  0  0  0  0  0  0  0  0  0
    8.3424  -15.3378   21.2066 N   0  0  0  0  0  0  0  0  0  0  0  0
    8.0571  -16.0373   22.4145 C   0  0  0  0  0  0  0  0  0  0  0  0
    8.7559  -15.5223   23.6089 C   0  0  0  0  0  0  0  0  0  0  0  0
    9.9981  -15.3926   23.6226 O   0  0  0  0  0  0  0  0  0  0  0  0
    5.5575  -12.6650   26.4431 N   0  0  0  0  0  0  0  0  0  0  0  0
    6.9457  -12.9260   26.4358 C   0  0  0  0  0  0  0  0  0  0  0  0
    7.6980  -12.0152   25.9647 O   0  0  0  0  0  0  0  0  0  0  0  0
    7.5633  -14.1636   26.9336 C   0  0  0  0  0  0  0  0  0  0  0  0
    8.6010  -14.6842   25.9978 C   0  0  2  0  0  0  0  0  0  0  0  0
    8.0068  -15.1714   24.7537 N   0  0  0  0  0  0  0  0  0  0  0  0
    9.2487  -15.8771   26.6588 C   0  0  0  0  0  0  0  0  0  0  0  0
    9.9026  -15.8310   27.7114 O   0  0  0  0  0  0  0  0  0  0  0  0
    9.1165  -17.1238   26.0643 O   0  0  0  0  0  0  0  0  0  0  0  0
  2  3  1  0
  2  1  1  6
  4  2  1  0
  5  4  2  0
  6  4  1  0
  7  6  1  0
  8  9  2  0
  8  7  1  0
 11 10  1  0
 11 12  2  0
 14 13  1  1
 13 11  1  0
 14 15  1  0
 15  8  1  0
 16 14  1  0
 17 16  2  0
 18 16  1  0
M  END
$$$$
