AGN.pdb
     RDKit          3D

 18 17  0  0  1  0  0  0  0  0999 V2000
    9.0941  -17.2102   18.7158 C   0  0  0  0  0  0  0  0  0  0  0  0
    9.7919  -16.8855   19.9940 C   0  0  2  0  0  0  0  0  0  0  0  0
   10.3220  -18.0630   20.5975 N   0  0  0  0  0  0  0  0  0  0  0  0
    8.9836  -16.0627   20.9366 C   0  0  0  0  0  0  0  0  0  0  0  0
    8.4402  -14.9795   20.6033 O   0  0  0  0  0  0  0  0  0  0  0  0
    8.7812  -16.4719   22.2933 N   0  0  0  0  0  0  0  0  0  0  0  0
    7.8874  -15.8227   23.1928 C   0  0  0  0  0  0  0  0  0  0  0  0
    8.5409  -15.0973   24.3004 C   0  0  0  0  0  0  0  0  0  0  0  0
    9.7856  -15.0527   24.3955 O   0  0  0  0  0  0  0  0  0  0  0  0
    5.3226  -11.3434   26.6304 N   0  0  0  0  0  0  0  0  0  0  0  0
    6.6077  -11.8761   26.3858 C   0  0  0  0  0  0  0  0  0  0  0  0
    7.2755  -11.3510   25.4394 O   0  0  0  0  0  0  0  0  0  0  0  0
    7.2110  -12.9794   27.1472 C   0  0  0  0  0  0  0  0  0  0  0  0
    8.2896  -13.6635   26.3774 C   0  0  2  0  0  0  0  0  0  0  0  0
    7.7451  -14.4441   25.2673 N   0  0  0  0  0  0  0  0  0  0  0  0
    8.9544  -14.6488   27.3084 C   0  0  0  0  0  0  0  0  0  0  0  0
    9.6486  -14.3359   28.2871 O   0  0  0  0  0  0  0  0  0  0  0  0
    8.7913  -16.0061   27.0716 O   0  0  0  0  0  0  0  0  0  0  0  0
  2  3  1  0
  2  1  1  6
  4  2  1  0
  5  4  2  0
  6  4  1  0
  7  6  1  0
  8  9  2  0
  8  7  1  0
 11 10  1  0
 11 12  2  0
 14 13  1  1
 13 11  1  0
 14 15  1  0
 15  8  1  0
 16 14  1  0
 17 16  2  0
 18 16  1  0
M  END
$$$$
