AGN.pdb
     RDKit          3D

 18 17  0  0  1  0  0  0  0  0999 V2000
    8.6020  -15.7413   17.1875 C   0  0  0  0  0  0  0  0  0  0  0  0
    8.1698  -16.3857   18.4618 C   0  0  2  0  0  0  0  0  0  0  0  0
    7.1502  -17.3527   18.2226 N   0  0  0  0  0  0  0  0  0  0  0  0
    7.8153  -15.4221   19.5412 C   0  0  0  0  0  0  0  0  0  0  0  0
    8.6048  -14.5330   19.9484 O   0  0  0  0  0  0  0  0  0  0  0  0
    6.5348  -15.4611   20.1798 N   0  0  0  0  0  0  0  0  0  0  0  0
    6.1182  -14.5351   21.1791 C   0  0  0  0  0  0  0  0  0  0  0  0
    6.7257  -14.7430   22.5087 C   0  0  0  0  0  0  0  0  0  0  0  0
    6.3971  -14.0362   23.4847 O   0  0  0  0  0  0  0  0  0  0  0  0
    7.3129  -16.6212   26.6531 N   0  0  0  0  0  0  0  0  0  0  0  0
    7.2162  -17.6683   25.7100 C   0  0  0  0  0  0  0  0  0  0  0  0
    6.7070  -18.7606   26.1161 O   0  0  0  0  0  0  0  0  0  0  0  0
    7.6577  -17.5729   24.3112 C   0  0  0  0  0  0  0  0  0  0  0  0
    8.1752  -16.2137   23.9814 C   0  0  2  0  0  0  0  0  0  0  0  0
    7.6940  -15.7571   22.6783 N   0  0  0  0  0  0  0  0  0  0  0  0
    9.6775  -16.3161   23.8714 C   0  0  0  0  0  0  0  0  0  0  0  0
   10.4722  -16.0232   24.7771 O   0  0  0  0  0  0  0  0  0  0  0  0
   10.2309  -16.7674   22.6818 O   0  0  0  0  0  0  0  0  0  0  0  0
  2  3  1  0
  2  1  1  6
  4  2  1  0
  5  4  2  0
  6  4  1  0
  7  6  1  0
  8  9  2  0
  8  7  1  0
 11 10  1  0
 11 12  2  0
 14 13  1  6
 13 11  1  0
 14 15  1  0
 15  8  1  0
 16 14  1  0
 17 16  2  0
 18 16  1  0
M  END
$$$$
