AGN.pdb
     RDKit          3D

 18 17  0  0  1  0  0  0  0  0999 V2000
    7.7792  -13.4902   20.1092 C   0  0  0  0  0  0  0  0  0  0  0  0
    8.3052  -13.8141   18.7511 C   0  0  2  0  0  0  0  0  0  0  0  0
    7.5074  -13.2062   17.7382 N   0  0  0  0  0  0  0  0  0  0  0  0
    8.5328  -15.2676   18.5174 C   0  0  0  0  0  0  0  0  0  0  0  0
    7.9566  -15.9101   17.6037 O   0  0  0  0  0  0  0  0  0  0  0  0
    9.4355  -16.0186   19.3359 N   0  0  0  0  0  0  0  0  0  0  0  0
   10.8538  -15.9556   19.2168 C   0  0  0  0  0  0  0  0  0  0  0  0
   11.5942  -16.8080   20.1683 C   0  0  0  0  0  0  0  0  0  0  0  0
   12.8307  -16.9566   20.0726 O   0  0  0  0  0  0  0  0  0  0  0  0
    8.8802  -15.1152   23.6402 N   0  0  0  0  0  0  0  0  0  0  0  0
   10.1474  -15.7359   23.5767 C   0  0  0  0  0  0  0  0  0  0  0  0
   11.1600  -14.9683   23.5239 O   0  0  0  0  0  0  0  0  0  0  0  0
   10.3635  -17.1899   23.5709 C   0  0  0  0  0  0  0  0  0  0  0  0
   11.3918  -17.5966   22.5704 C   0  0  2  0  0  0  0  0  0  0  0  0
   10.8921  -17.4655   21.2025 N   0  0  0  0  0  0  0  0  0  0  0  0
   11.6751  -19.0641   22.7841 C   0  0  0  0  0  0  0  0  0  0  0  0
   12.1795  -19.5425   23.8109 O   0  0  0  0  0  0  0  0  0  0  0  0
   11.3572  -19.9598   21.7733 O   0  0  0  0  0  0  0  0  0  0  0  0
  2  3  1  0
  2  1  1  1
  4  2  1  0
  5  4  2  0
  6  4  1  0
  7  6  1  0
  8  9  2  0
  8  7  1  0
 11 10  1  0
 11 12  2  0
 14 13  1  1
 13 11  1  0
 14 15  1  0
 15  8  1  0
 16 14  1  0
 17 16  2  0
 18 16  1  0
M  END
$$$$
