AGN.pdb
     RDKit          3D

 18 17  0  0  1  0  0  0  0  0999 V2000
    6.4159  -17.0070   20.3861 C   0  0  0  0  0  0  0  0  0  0  0  0
    7.5424  -17.9455   20.6621 C   0  0  2  0  0  0  0  0  0  0  0  0
    7.4637  -18.4582   21.9897 N   0  0  0  0  0  0  0  0  0  0  0  0
    8.8869  -17.3967   20.3297 C   0  0  0  0  0  0  0  0  0  0  0  0
    9.1880  -16.9762   19.1842 O   0  0  0  0  0  0  0  0  0  0  0  0
    9.9214  -17.3191   21.3159 N   0  0  0  0  0  0  0  0  0  0  0  0
   11.2117  -16.7671   21.0704 C   0  0  0  0  0  0  0  0  0  0  0  0
   12.2831  -17.2824   21.9459 C   0  0  0  0  0  0  0  0  0  0  0  0
   13.0741  -18.1627   21.5463 O   0  0  0  0  0  0  0  0  0  0  0  0
   16.4297  -16.5300   23.3515 N   0  0  0  0  0  0  0  0  0  0  0  0
   15.2833  -15.7692   23.6712 C   0  0  0  0  0  0  0  0  0  0  0  0
   15.1128  -14.6888   23.0223 O   0  0  0  0  0  0  0  0  0  0  0  0
   14.2910  -16.1451   24.6884 C   0  0  0  0  0  0  0  0  0  0  0  0
   13.4041  -17.2490   24.2209 C   0  0  2  0  0  0  0  0  0  0  0  0
   12.4146  -16.7713   23.2560 N   0  0  0  0  0  0  0  0  0  0  0  0
   12.6298  -17.7451   25.4183 C   0  0  0  0  0  0  0  0  0  0  0  0
   12.7229  -18.8862   25.8946 O   0  0  0  0  0  0  0  0  0  0  0  0
   11.7451  -16.8805   26.0467 O   0  0  0  0  0  0  0  0  0  0  0  0
  2  3  1  0
  2  1  1  1
  4  2  1  0
  5  4  2  0
  6  4  1  0
  7  6  1  0
  8  9  2  0
  8  7  1  0
 11 10  1  0
 11 12  2  0
 14 13  1  1
 13 11  1  0
 14 15  1  0
 15  8  1  0
 16 14  1  0
 17 16  2  0
 18 16  1  0
M  END
$$$$
