AGN.pdb
     RDKit          3D

 18 17  0  0  1  0  0  0  0  0999 V2000
    7.2043  -12.9262   20.0689 C   0  0  0  0  0  0  0  0  0  0  0  0
    8.5461  -13.5183   20.3427 C   0  0  2  0  0  0  0  0  0  0  0  0
    9.0110  -14.2653   19.2212 N   0  0  0  0  0  0  0  0  0  0  0  0
    8.6263  -14.2787   21.6211 C   0  0  0  0  0  0  0  0  0  0  0  0
    8.1879  -13.8302   22.7104 O   0  0  0  0  0  0  0  0  0  0  0  0
    9.2166  -15.5816   21.6741 N   0  0  0  0  0  0  0  0  0  0  0  0
    9.2037  -16.4120   22.8316 C   0  0  0  0  0  0  0  0  0  0  0  0
   10.0967  -15.9702   23.9213 C   0  0  0  0  0  0  0  0  0  0  0  0
   11.2227  -15.4883   23.6762 O   0  0  0  0  0  0  0  0  0  0  0  0
    9.6318  -13.0938   26.3055 N   0  0  0  0  0  0  0  0  0  0  0  0
    9.2703  -13.9133   27.3977 C   0  0  0  0  0  0  0  0  0  0  0  0
    8.5150  -13.3937   28.2792 O   0  0  0  0  0  0  0  0  0  0  0  0
    9.7041  -15.3068   27.5732 C   0  0  0  0  0  0  0  0  0  0  0  0
   10.5130  -15.7886   26.4167 C   0  0  2  0  0  0  0  0  0  0  0  0
    9.6700  -16.0953   25.2619 N   0  0  0  0  0  0  0  0  0  0  0  0
   11.1632  -17.0872   26.8292 C   0  0  0  0  0  0  0  0  0  0  0  0
   12.1508  -17.1758   27.5739 O   0  0  0  0  0  0  0  0  0  0  0  0
   10.6356  -18.2791   26.3536 O   0  0  0  0  0  0  0  0  0  0  0  0
  2  3  1  0
  2  1  1  6
  4  2  1  0
  5  4  2  0
  6  4  1  0
  7  6  1  0
  8  9  2  0
  8  7  1  0
 11 10  1  0
 11 12  2  0
 14 13  1  1
 13 11  1  0
 14 15  1  0
 15  8  1  0
 16 14  1  0
 17 16  2  0
 18 16  1  0
M  END
$$$$
