SYN.pdb
     RDKit          3D

 27 27  0  0  1  0  0  0  0  0999 V2000
   18.3776  -11.6964  -18.4836 O   0  0  0  0  0  0  0  0  0  0  0  0
   19.2965  -10.8850  -17.8259 C   0  0  0  0  0  0  0  0  0  0  0  0
   20.7040  -11.1245  -18.3123 C   0  0  2  0  0  0  0  0  0  0  0  0
   21.1326  -12.4387  -17.9457 N   0  0  0  0  0  0  0  0  0  0  0  0
   21.6387  -10.0621  -17.8586 C   0  0  0  0  0  0  0  0  0  0  0  0
   21.9574   -9.9555  -16.6438 O   0  0  0  0  0  0  0  0  0  0  0  0
   27.3141   -3.1145  -19.1104 O   0  0  0  0  0  0  0  0  0  0  0  0
   26.4933   -4.2408  -19.1819 C   0  0  0  0  0  0  0  0  0  0  0  0
   26.8478   -5.4300  -18.5815 C   0  0  0  0  0  0  0  0  0  0  0  0
   26.0286   -6.5346  -18.6595 C   0  0  0  0  0  0  0  0  0  0  0  0
   24.8055   -6.5155  -19.3429 C   0  0  0  0  0  0  0  0  0  0  0  0
   23.9607   -7.7181  -19.4453 C   0  0  0  0  0  0  0  0  0  0  0  0
   23.0902   -8.0173  -18.2608 C   0  0  2  0  0  0  0  0  0  0  0  0
   22.2205   -9.1200  -18.7407 N   0  0  0  0  0  0  0  0  0  0  0  0
   22.2327   -6.8844  -17.8768 C   0  0  0  0  0  0  0  0  0  0  0  0
   21.2516   -6.5791  -18.6491 O   0  0  0  0  0  0  0  0  0  0  0  0
   24.4718   -5.3202  -19.9339 C   0  0  0  0  0  0  0  0  0  0  0  0
   25.2912   -4.2140  -19.8564 C   0  0  0  0  0  0  0  0  0  0  0  0
   19.7935   -2.9481  -15.9705 N   0  0  0  0  0  0  0  0  0  0  0  0
   19.6255   -4.1136  -15.1691 C   0  0  0  0  0  0  0  0  0  0  0  0
   18.7266   -4.1028  -14.3016 O   0  0  0  0  0  0  0  0  0  0  0  0
   20.4982   -5.2525  -15.3937 C   0  0  0  0  0  0  0  0  0  0  0  0
   21.5016   -4.9687  -16.5080 C   0  0  2  0  0  0  0  0  0  0  0  0
   22.3795   -6.0866  -16.7139 N   0  0  0  0  0  0  0  0  0  0  0  0
   22.1731   -3.7097  -16.1279 C   0  0  0  0  0  0  0  0  0  0  0  0
   21.5921   -2.6137  -16.1722 O   0  0  0  0  0  0  0  0  0  0  0  0
   23.4925   -3.7401  -15.7071 O   0  0  0  0  0  0  0  0  0  0  0  0
  2  1  1  0
  2  3  1  0
  3  5  1  0
  3  4  1  1
  5  6  2  0
  7  8  1  0
  8 18  2  0
  8  9  1  0
  9 10  2  0
 10 11  1  0
 11 12  1  0
 13 12  1  6
 14 13  1  0
 14  5  1  0
 15 16  2  0
 15 13  1  0
 17 11  2  0
 18 17  1  0
 19 20  1  0
 20 22  1  0
 20 21  2  0
 23 22  1  1
 23 25  1  0
 23 24  1  0
 24 15  1  0
 25 27  1  0
 26 25  2  0
M  END
$$$$
