SYN.pdb
     RDKit          3D

 27 27  0  0  1  0  0  0  0  0999 V2000
   21.8147  -22.9119  -14.8728 O   0  0  0  0  0  0  0  0  0  0  0  0
   21.9099  -21.6457  -14.3048 C   0  0  0  0  0  0  0  0  0  0  0  0
   21.7463  -21.6905  -12.8060 C   0  0  2  0  0  0  0  0  0  0  0  0
   20.4173  -21.3041  -12.4460 N   0  0  0  0  0  0  0  0  0  0  0  0
   22.7902  -20.8965  -12.1075 C   0  0  0  0  0  0  0  0  0  0  0  0
   22.6107  -19.6762  -11.8486 O   0  0  0  0  0  0  0  0  0  0  0  0
   29.1496  -19.1394   -6.2135 O   0  0  0  0  0  0  0  0  0  0  0  0
   28.3249  -19.7158   -7.1805 C   0  0  0  0  0  0  0  0  0  0  0  0
   26.9589  -19.5314   -7.1653 C   0  0  0  0  0  0  0  0  0  0  0  0
   26.1559  -20.1059   -8.1257 C   0  0  0  0  0  0  0  0  0  0  0  0
   26.6716  -20.8996   -9.1589 C   0  0  0  0  0  0  0  0  0  0  0  0
   25.7920  -21.5349  -10.1555 C   0  0  0  0  0  0  0  0  0  0  0  0
   25.1140  -20.6109  -11.1233 C   0  0  2  0  0  0  0  0  0  0  0  0
   24.0284  -21.4456  -11.6955 N   0  0  0  0  0  0  0  0  0  0  0  0
   25.9951  -20.1806  -12.2209 C   0  0  0  0  0  0  0  0  0  0  0  0
   26.9290  -19.3390  -11.9527 O   0  0  0  0  0  0  0  0  0  0  0  0
   28.0355  -21.0704   -9.1550 C   0  0  0  0  0  0  0  0  0  0  0  0
   28.8401  -20.4956   -8.1941 C   0  0  0  0  0  0  0  0  0  0  0  0
   29.5517  -20.5592  -14.3728 N   0  0  0  0  0  0  0  0  0  0  0  0
   28.8313  -21.4863  -15.1793 C   0  0  0  0  0  0  0  0  0  0  0  0
   29.4614  -22.4454  -15.6733 O   0  0  0  0  0  0  0  0  0  0  0  0
   27.4096  -21.2779  -15.3900 C   0  0  0  0  0  0  0  0  0  0  0  0
   26.8831  -20.1396  -14.5205 C   0  0  2  0  0  0  0  0  0  0  0  0
   25.9193  -20.6161  -13.5681 N   0  0  0  0  0  0  0  0  0  0  0  0
   26.3785  -19.1201  -15.4620 C   0  0  0  0  0  0  0  0  0  0  0  0
   27.1255  -18.5363  -16.2633 O   0  0  0  0  0  0  0  0  0  0  0  0
   25.0317  -18.7967  -15.4602 O   0  0  0  0  0  0  0  0  0  0  0  0
  2  1  1  0
  2  3  1  0
  3  5  1  0
  3  4  1  6
  5  6  2  0
  7  8  1  0
  8 18  2  0
  8  9  1  0
  9 10  2  0
 10 11  1  0
 11 12  1  0
 13 12  1  1
 14 13  1  0
 14  5  1  0
 15 16  2  0
 15 13  1  0
 17 11  2  0
 18 17  1  0
 19 20  1  0
 20 22  1  0
 20 21  2  0
 23 22  1  6
 23 25  1  0
 23 24  1  0
 24 15  1  0
 25 27  1  0
 26 25  2  0
M  END
$$$$
