SYN.pdb
     RDKit          3D

 27 27  0  0  1  0  0  0  0  0999 V2000
   16.5114  -13.6758  -16.8926 O   0  0  0  0  0  0  0  0  0  0  0  0
   16.9589  -12.6695  -16.0427 C   0  0  0  0  0  0  0  0  0  0  0  0
   18.4428  -12.4378  -16.1817 C   0  0  2  0  0  0  0  0  0  0  0  0
   19.1585  -13.6314  -15.8526 N   0  0  0  0  0  0  0  0  0  0  0  0
   18.8975  -11.2561  -15.4039 C   0  0  0  0  0  0  0  0  0  0  0  0
   19.3643  -11.3870  -14.2405 O   0  0  0  0  0  0  0  0  0  0  0  0
   23.6682   -9.4338  -20.0571 O   0  0  0  0  0  0  0  0  0  0  0  0
   22.9752   -9.3436  -18.8492 C   0  0  0  0  0  0  0  0  0  0  0  0
   22.5979   -8.1261  -18.3241 C   0  0  0  0  0  0  0  0  0  0  0  0
   21.9142   -8.0506  -17.1308 C   0  0  0  0  0  0  0  0  0  0  0  0
   21.5669   -9.1890  -16.3912 C   0  0  0  0  0  0  0  0  0  0  0  0
   20.8671   -9.0849  -15.0990 C   0  0  0  0  0  0  0  0  0  0  0  0
   19.4002   -8.7782  -15.1644 C   0  0  2  0  0  0  0  0  0  0  0  0
   18.8381   -9.9339  -15.9066 N   0  0  0  0  0  0  0  0  0  0  0  0
   19.1024   -7.5519  -15.9219 C   0  0  0  0  0  0  0  0  0  0  0  0
   18.9312   -7.6518  -17.1920 O   0  0  0  0  0  0  0  0  0  0  0  0
   21.9526  -10.3920  -16.9328 C   0  0  0  0  0  0  0  0  0  0  0  0
   22.6371  -10.4685  -18.1272 C   0  0  0  0  0  0  0  0  0  0  0  0
   17.1403   -1.9377  -16.1754 N   0  0  0  0  0  0  0  0  0  0  0  0
   17.1439   -3.2744  -16.6674 C   0  0  0  0  0  0  0  0  0  0  0  0
   16.8611   -3.4560  -17.8707 O   0  0  0  0  0  0  0  0  0  0  0  0
   17.4731   -4.3572  -15.7573 C   0  0  0  0  0  0  0  0  0  0  0  0
   18.6840   -5.1445  -16.2499 C   0  0  2  0  0  0  0  0  0  0  0  0
   18.9757   -6.2484  -15.3786 N   0  0  0  0  0  0  0  0  0  0  0  0
   19.7717   -4.1557  -16.3896 C   0  0  0  0  0  0  0  0  0  0  0  0
   20.7983   -4.2028  -15.6932 O   0  0  0  0  0  0  0  0  0  0  0  0
   19.6544   -3.1393  -17.3233 O   0  0  0  0  0  0  0  0  0  0  0  0
  2  1  1  0
  2  3  1  0
  3  5  1  0
  3  4  1  1
  5  6  2  0
  7  8  1  0
  8 18  2  0
  8  9  1  0
  9 10  2  0
 10 11  1  0
 11 12  1  0
 13 12  1  6
 14 13  1  0
 14  5  1  0
 15 16  2  0
 15 13  1  0
 17 11  2  0
 18 17  1  0
 19 20  1  0
 20 22  1  0
 20 21  2  0
 23 22  1  1
 23 25  1  0
 23 24  1  0
 24 15  1  0
 25 27  1  0
 26 25  2  0
M  END
$$$$
