SYN.pdb
     RDKit          3D

 27 27  0  0  1  0  0  0  0  0999 V2000
   13.1841  -12.0757  -15.5318 O   0  0  0  0  0  0  0  0  0  0  0  0
   14.1436  -11.8664  -14.5466 C   0  0  0  0  0  0  0  0  0  0  0  0
   15.5356  -11.8056  -15.1244 C   0  0  2  0  0  0  0  0  0  0  0  0
   16.0162  -13.1270  -15.3857 N   0  0  0  0  0  0  0  0  0  0  0  0
   16.4582  -11.0109  -14.2728 C   0  0  0  0  0  0  0  0  0  0  0  0
   17.0611  -11.5410  -13.3012 O   0  0  0  0  0  0  0  0  0  0  0  0
   21.8620   -3.9584  -12.6771 O   0  0  0  0  0  0  0  0  0  0  0  0
   21.0291   -4.9707  -13.1554 C   0  0  0  0  0  0  0  0  0  0  0  0
   21.3800   -6.3000  -13.0553 C   0  0  0  0  0  0  0  0  0  0  0  0
   20.5488   -7.2898  -13.5314 C   0  0  0  0  0  0  0  0  0  0  0  0
   19.3164   -7.0087  -14.1363 C   0  0  0  0  0  0  0  0  0  0  0  0
   18.4582   -8.0799  -14.6715 C   0  0  0  0  0  0  0  0  0  0  0  0
   17.6784   -8.8689  -13.6618 C   0  0  2  0  0  0  0  0  0  0  0  0
   16.7158   -9.6360  -14.4911 N   0  0  0  0  0  0  0  0  0  0  0  0
   16.9156   -8.0195  -12.7329 C   0  0  0  0  0  0  0  0  0  0  0  0
   15.8392   -7.4653  -13.1648 O   0  0  0  0  0  0  0  0  0  0  0  0
   18.9864   -5.6774  -14.2257 C   0  0  0  0  0  0  0  0  0  0  0  0
   19.8179   -4.6860  -13.7494 C   0  0  0  0  0  0  0  0  0  0  0  0
   14.8663   -5.3282   -9.0326 N   0  0  0  0  0  0  0  0  0  0  0  0
   15.1988   -6.6050   -8.4959 C   0  0  0  0  0  0  0  0  0  0  0  0
   14.7388   -6.9062   -7.3741 O   0  0  0  0  0  0  0  0  0  0  0  0
   16.0498   -7.4922   -9.2691 C   0  0  0  0  0  0  0  0  0  0  0  0
   16.4277   -6.8669  -10.6088 C   0  0  2  0  0  0  0  0  0  0  0  0
   17.2526   -7.7529  -11.3817 N   0  0  0  0  0  0  0  0  0  0  0  0
   17.0454   -5.5664  -10.2811 C   0  0  0  0  0  0  0  0  0  0  0  0
   18.2763   -5.4201  -10.2136 O   0  0  0  0  0  0  0  0  0  0  0  0
   16.2366   -4.4682  -10.0393 O   0  0  0  0  0  0  0  0  0  0  0  0
  2  1  1  0
  2  3  1  0
  3  5  1  0
  3  4  1  1
  5  6  2  0
  7  8  1  0
  8 18  2  0
  8  9  1  0
  9 10  2  0
 10 11  1  0
 11 12  1  0
 13 12  1  6
 14 13  1  0
 14  5  1  0
 15 16  2  0
 15 13  1  0
 17 11  2  0
 18 17  1  0
 19 20  1  0
 20 22  1  0
 20 21  2  0
 23 22  1  1
 23 25  1  0
 23 24  1  0
 24 15  1  0
 25 27  1  0
 26 25  2  0
M  END
$$$$
