SYN.pdb
     RDKit          3D

 27 27  0  0  1  0  0  0  0  0999 V2000
   19.7277  -12.6847  -17.9843 O   0  0  0  0  0  0  0  0  0  0  0  0
   20.2923  -11.7119  -17.1658 C   0  0  0  0  0  0  0  0  0  0  0  0
   21.7847  -11.8875  -17.0346 C   0  0  2  0  0  0  0  0  0  0  0  0
   22.0795  -13.1614  -16.4555 N   0  0  0  0  0  0  0  0  0  0  0  0
   22.4165  -10.7582  -16.3041 C   0  0  0  0  0  0  0  0  0  0  0  0
   22.4012  -10.7123  -15.0446 O   0  0  0  0  0  0  0  0  0  0  0  0
   28.4089  -13.0859  -15.7601 O   0  0  0  0  0  0  0  0  0  0  0  0
   27.6110  -11.9714  -16.0224 C   0  0  0  0  0  0  0  0  0  0  0  0
   27.4546  -10.9630  -15.0955 C   0  0  0  0  0  0  0  0  0  0  0  0
   26.6642   -9.8681  -15.3666 C   0  0  0  0  0  0  0  0  0  0  0  0
   25.9828   -9.7164  -16.5816 C   0  0  0  0  0  0  0  0  0  0  0  0
   25.1134   -8.5550  -16.8382 C   0  0  0  0  0  0  0  0  0  0  0  0
   23.7503   -8.5989  -16.2138 C   0  0  2  0  0  0  0  0  0  0  0  0
   23.0633   -9.6828  -16.9593 N   0  0  0  0  0  0  0  0  0  0  0  0
   22.9906   -7.3526  -16.4034 C   0  0  0  0  0  0  0  0  0  0  0  0
   22.5571   -7.0816  -17.5828 O   0  0  0  0  0  0  0  0  0  0  0  0
   26.1527  -10.7330  -17.4910 C   0  0  0  0  0  0  0  0  0  0  0  0
   26.9437  -11.8294  -17.2204 C   0  0  0  0  0  0  0  0  0  0  0  0
   20.2702   -3.1344  -16.1654 N   0  0  0  0  0  0  0  0  0  0  0  0
   20.4298   -3.4992  -14.7979 C   0  0  0  0  0  0  0  0  0  0  0  0
   19.8683   -2.7926  -13.9341 O   0  0  0  0  0  0  0  0  0  0  0  0
   21.2309   -4.6657  -14.4708 C   0  0  0  0  0  0  0  0  0  0  0  0
   21.8687   -5.2661  -15.7204 C   0  0  2  0  0  0  0  0  0  0  0  0
   22.6773   -6.4075  -15.3940 N   0  0  0  0  0  0  0  0  0  0  0  0
   22.5914   -4.1553  -16.3716 C   0  0  0  0  0  0  0  0  0  0  0  0
   22.0806   -3.4788  -17.2784 O   0  0  0  0  0  0  0  0  0  0  0  0
   23.8801   -3.8490  -15.9664 O   0  0  0  0  0  0  0  0  0  0  0  0
  2  1  1  0
  2  3  1  0
  3  5  1  0
  3  4  1  1
  5  6  2  0
  7  8  1  0
  8 18  2  0
  8  9  1  0
  9 10  2  0
 10 11  1  0
 11 12  1  0
 13 12  1  6
 14 13  1  0
 14  5  1  0
 15 16  2  0
 15 13  1  0
 17 11  2  0
 18 17  1  0
 19 20  1  0
 20 22  1  0
 20 21  2  0
 23 22  1  1
 23 25  1  0
 23 24  1  0
 24 15  1  0
 25 27  1  0
 26 25  2  0
M  END
$$$$
