SYN.pdb
     RDKit          3D

 27 27  0  0  1  0  0  0  0  0999 V2000
   26.6843  -19.1568  -16.2315 O   0  0  0  0  0  0  0  0  0  0  0  0
   28.0100  -19.5780  -16.2213 C   0  0  0  0  0  0  0  0  0  0  0  0
   28.1344  -21.0265  -15.8192 C   0  0  2  0  0  0  0  0  0  0  0  0
   27.7541  -21.8720  -16.9081 N   0  0  0  0  0  0  0  0  0  0  0  0
   27.3906  -21.3232  -14.5675 C   0  0  0  0  0  0  0  0  0  0  0  0
   26.3301  -22.0040  -14.5902 O   0  0  0  0  0  0  0  0  0  0  0  0
   25.7732  -20.2654   -5.7402 O   0  0  0  0  0  0  0  0  0  0  0  0
   26.3120  -20.3919   -7.0213 C   0  0  0  0  0  0  0  0  0  0  0  0
   25.6901  -21.1459   -7.9934 C   0  0  0  0  0  0  0  0  0  0  0  0
   26.2323  -21.2628   -9.2541 C   0  0  0  0  0  0  0  0  0  0  0  0
   27.4296  -20.6320   -9.6178 C   0  0  0  0  0  0  0  0  0  0  0  0
   28.0117  -20.7988  -10.9609 C   0  0  0  0  0  0  0  0  0  0  0  0
   27.0549  -21.1702  -12.0547 C   0  0  2  0  0  0  0  0  0  0  0  0
   27.8140  -20.8711  -13.2945 N   0  0  0  0  0  0  0  0  0  0  0  0
   25.8318  -20.3514  -12.0514 C   0  0  0  0  0  0  0  0  0  0  0  0
   25.8933  -19.1700  -12.5542 O   0  0  0  0  0  0  0  0  0  0  0  0
   28.0327  -19.8856   -8.6337 C   0  0  0  0  0  0  0  0  0  0  0  0
   27.4906  -19.7681   -7.3715 C   0  0  0  0  0  0  0  0  0  0  0  0
   22.0608  -18.5908  -14.6797 N   0  0  0  0  0  0  0  0  0  0  0  0
   22.0035  -19.8943  -14.1082 C   0  0  0  0  0  0  0  0  0  0  0  0
   20.9007  -20.4810  -14.0982 O   0  0  0  0  0  0  0  0  0  0  0  0
   23.2184  -20.4783  -13.5675 C   0  0  0  0  0  0  0  0  0  0  0  0
   23.3745  -20.1547  -12.0844 C   0  0  2  0  0  0  0  0  0  0  0  0
   24.5674  -20.7466  -11.5461 N   0  0  0  0  0  0  0  0  0  0  0  0
   22.1174  -20.5942  -11.4465 C   0  0  0  0  0  0  0  0  0  0  0  0
   21.1690  -19.8166  -11.2549 O   0  0  0  0  0  0  0  0  0  0  0  0
   21.9805  -21.9128  -11.0451 O   0  0  0  0  0  0  0  0  0  0  0  0
  2  1  1  0
  2  3  1  0
  3  5  1  0
  3  4  1  6
  5  6  2  0
  7  8  1  0
  8 18  2  0
  8  9  1  0
  9 10  2  0
 10 11  1  0
 11 12  1  0
 13 12  1  1
 14 13  1  0
 14  5  1  0
 15 16  2  0
 15 13  1  0
 17 11  2  0
 18 17  1  0
 19 20  1  0
 20 22  1  0
 20 21  2  0
 23 22  1  6
 23 25  1  0
 23 24  1  0
 24 15  1  0
 25 27  1  0
 26 25  2  0
M  END
$$$$
