SYN.pdb
     RDKit          3D

 27 27  0  0  1  0  0  0  0  0999 V2000
   22.1172  -11.9056  -18.6623 O   0  0  0  0  0  0  0  0  0  0  0  0
   22.0261  -11.2096  -17.4613 C   0  0  0  0  0  0  0  0  0  0  0  0
   22.2809   -9.7347  -17.6479 C   0  0  2  0  0  0  0  0  0  0  0  0
   23.6831   -9.4652  -17.5667 N   0  0  0  0  0  0  0  0  0  0  0  0
   21.4763   -8.9074  -16.7119 C   0  0  0  0  0  0  0  0  0  0  0  0
   20.2813   -8.6068  -16.9767 O   0  0  0  0  0  0  0  0  0  0  0  0
   18.7622   -5.7535   -8.7906 O   0  0  0  0  0  0  0  0  0  0  0  0
   19.4078   -6.3373   -9.8813 C   0  0  0  0  0  0  0  0  0  0  0  0
   18.8845   -7.4394  -10.5231 C   0  0  0  0  0  0  0  0  0  0  0  0
   19.5316   -8.0063  -11.5987 C   0  0  0  0  0  0  0  0  0  0  0  0
   20.7414   -7.5044  -12.0968 C   0  0  0  0  0  0  0  0  0  0  0  0
   21.4362   -8.1471  -13.2258 C   0  0  0  0  0  0  0  0  0  0  0  0
   21.1812   -7.5572  -14.5812 C   0  0  2  0  0  0  0  0  0  0  0  0
   21.9869   -8.4126  -15.4877 N   0  0  0  0  0  0  0  0  0  0  0  0
   21.6608   -6.1711  -14.7044 C   0  0  0  0  0  0  0  0  0  0  0  0
   22.9088   -5.9819  -14.9472 O   0  0  0  0  0  0  0  0  0  0  0  0
   21.2452   -6.4056  -11.4423 C   0  0  0  0  0  0  0  0  0  0  0  0
   20.5980   -5.8375  -10.3655 C   0  0  0  0  0  0  0  0  0  0  0  0
   23.2936   -1.8260  -16.1840 N   0  0  0  0  0  0  0  0  0  0  0  0
   22.2408   -2.4446  -16.9174 C   0  0  0  0  0  0  0  0  0  0  0  0
   21.7812   -1.8367  -17.9073 O   0  0  0  0  0  0  0  0  0  0  0  0
   21.7526   -3.7426  -16.4862 C   0  0  0  0  0  0  0  0  0  0  0  0
   21.4058   -3.7368  -15.0001 C   0  0  2  0  0  0  0  0  0  0  0  0
   20.8665   -5.0025  -14.5873 N   0  0  0  0  0  0  0  0  0  0  0  0
   20.5061   -2.5822  -14.8058 C   0  0  0  0  0  0  0  0  0  0  0  0
   20.9341   -1.4197  -14.7261 O   0  0  0  0  0  0  0  0  0  0  0  0
   19.1402   -2.7902  -14.7078 O   0  0  0  0  0  0  0  0  0  0  0  0
  2  1  1  0
  2  3  1  0
  3  5  1  0
  3  4  1  1
  5  6  2  0
  7  8  1  0
  8 18  2  0
  8  9  1  0
  9 10  2  0
 10 11  1  0
 11 12  1  0
 13 12  1  1
 14 13  1  0
 14  5  1  0
 15 16  2  0
 15 13  1  0
 17 11  2  0
 18 17  1  0
 19 20  1  0
 20 22  1  0
 20 21  2  0
 23 22  1  6
 23 25  1  0
 23 24  1  0
 24 15  1  0
 25 27  1  0
 26 25  2  0
M  END
$$$$
