SYN.pdb
     RDKit          3D

 27 27  0  0  1  0  0  0  0  0999 V2000
   29.7406   -7.6459  -19.0990 O   0  0  0  0  0  0  0  0  0  0  0  0
   28.4469   -8.0475  -18.7826 C   0  0  0  0  0  0  0  0  0  0  0  0
   28.4013   -9.4868  -18.3339 C   0  0  2  0  0  0  0  0  0  0  0  0
   28.8070  -10.3467  -19.4022 N   0  0  0  0  0  0  0  0  0  0  0  0
   27.0773   -9.8520  -17.7666 C   0  0  0  0  0  0  0  0  0  0  0  0
   26.1655  -10.3206  -18.4999 O   0  0  0  0  0  0  0  0  0  0  0  0
   26.6761  -16.4202  -16.0393 O   0  0  0  0  0  0  0  0  0  0  0  0
   26.4447  -15.0862  -15.7012 C   0  0  0  0  0  0  0  0  0  0  0  0
   25.1779  -14.5436  -15.7351 C   0  0  0  0  0  0  0  0  0  0  0  0
   24.9629  -13.2253  -15.3990 C   0  0  0  0  0  0  0  0  0  0  0  0
   26.0026  -12.3708  -15.0087 C   0  0  0  0  0  0  0  0  0  0  0  0
   25.7567  -10.9540  -14.6878 C   0  0  0  0  0  0  0  0  0  0  0  0
   25.4274  -10.0611  -15.8472 C   0  0  2  0  0  0  0  0  0  0  0  0
   26.7588   -9.7012  -16.3955 N   0  0  0  0  0  0  0  0  0  0  0  0
   24.7427   -8.8226  -15.4428 C   0  0  0  0  0  0  0  0  0  0  0  0
   25.4636   -7.7931  -15.1729 O   0  0  0  0  0  0  0  0  0  0  0  0
   27.2569  -12.9322  -14.9818 C   0  0  0  0  0  0  0  0  0  0  0  0
   27.4731  -14.2517  -15.3181 C   0  0  0  0  0  0  0  0  0  0  0  0
   21.9787   -4.8217  -14.5492 N   0  0  0  0  0  0  0  0  0  0  0  0
   22.6949   -5.0064  -15.7664 C   0  0  0  0  0  0  0  0  0  0  0  0
   22.8472   -4.0157  -16.5121 O   0  0  0  0  0  0  0  0  0  0  0  0
   23.2117   -6.3259  -16.0842 C   0  0  0  0  0  0  0  0  0  0  0  0
   22.8138   -7.3461  -15.0213 C   0  0  2  0  0  0  0  0  0  0  0  0
   23.3406   -8.6470  -15.3265 N   0  0  0  0  0  0  0  0  0  0  0  0
   21.3417   -7.2743  -14.9319 C   0  0  0  0  0  0  0  0  0  0  0  0
   20.6058   -8.0813  -15.5219 O   0  0  0  0  0  0  0  0  0  0  0  0
   20.7520   -6.2799  -14.1690 O   0  0  0  0  0  0  0  0  0  0  0  0
  2  1  1  0
  2  3  1  0
  3  5  1  0
  3  4  1  6
  5  6  2  0
  7  8  1  0
  8 18  2  0
  8  9  1  0
  9 10  2  0
 10 11  1  0
 11 12  1  0
 13 12  1  1
 14 13  1  0
 14  5  1  0
 15 16  2  0
 15 13  1  0
 17 11  2  0
 18 17  1  0
 19 20  1  0
 20 22  1  0
 20 21  2  0
 23 22  1  6
 23 25  1  0
 23 24  1  0
 24 15  1  0
 25 27  1  0
 26 25  2  0
M  END
$$$$
