SYN.pdb
     RDKit          3D

 27 27  0  0  1  0  0  0  0  0999 V2000
   24.7691  -22.1165  -17.9980 O   0  0  0  0  0  0  0  0  0  0  0  0
   23.8131  -21.5828  -17.1400 C   0  0  0  0  0  0  0  0  0  0  0  0
   24.3836  -20.4820  -16.2810 C   0  0  2  0  0  0  0  0  0  0  0  0
   25.5914  -20.9239  -15.6557 N   0  0  0  0  0  0  0  0  0  0  0  0
   23.3867  -19.9584  -15.3114 C   0  0  0  0  0  0  0  0  0  0  0  0
   23.4425  -20.2723  -14.0920 O   0  0  0  0  0  0  0  0  0  0  0  0
   16.4550  -14.9687  -12.4809 O   0  0  0  0  0  0  0  0  0  0  0  0
   17.5548  -15.5277  -13.1331 C   0  0  0  0  0  0  0  0  0  0  0  0
   17.4477  -16.0573  -14.4014 C   0  0  0  0  0  0  0  0  0  0  0  0
   18.5411  -16.6062  -15.0343 C   0  0  0  0  0  0  0  0  0  0  0  0
   19.8072  -16.6580  -14.4361 C   0  0  0  0  0  0  0  0  0  0  0  0
   20.9559  -17.2819  -15.1157 C   0  0  0  0  0  0  0  0  0  0  0  0
   21.2540  -18.7032  -14.7401 C   0  0  2  0  0  0  0  0  0  0  0  0
   22.3313  -19.0916  -15.6842 N   0  0  0  0  0  0  0  0  0  0  0  0
   20.1092  -19.6049  -14.9471 C   0  0  0  0  0  0  0  0  0  0  0  0
   20.1926  -20.4841  -15.8811 O   0  0  0  0  0  0  0  0  0  0  0  0
   19.8913  -16.1246  -13.1721 C   0  0  0  0  0  0  0  0  0  0  0  0
   18.7974  -15.5750  -12.5378 C   0  0  0  0  0  0  0  0  0  0  0  0
   16.2598  -22.7466  -14.6772 N   0  0  0  0  0  0  0  0  0  0  0  0
   17.5282  -23.0636  -14.1120 C   0  0  0  0  0  0  0  0  0  0  0  0
   17.7562  -24.2560  -13.8173 O   0  0  0  0  0  0  0  0  0  0  0  0
   18.4916  -21.9967  -13.9053 C   0  0  0  0  0  0  0  0  0  0  0  0
   17.9488  -20.6585  -14.3988 C   0  0  2  0  0  0  0  0  0  0  0  0
   18.9044  -19.6048  -14.1997 N   0  0  0  0  0  0  0  0  0  0  0  0
   16.6596  -20.4711  -13.7037 C   0  0  0  0  0  0  0  0  0  0  0  0
   15.5894  -20.8846  -14.1776 O   0  0  0  0  0  0  0  0  0  0  0  0
   16.6309  -19.8149  -12.4841 O   0  0  0  0  0  0  0  0  0  0  0  0
  2  1  1  0
  2  3  1  0
  3  5  1  0
  3  4  1  1
  5  6  2  0
  7  8  1  0
  8 18  2  0
  8  9  1  0
  9 10  2  0
 10 11  1  0
 11 12  1  0
 13 12  1  6
 14 13  1  0
 14  5  1  0
 15 16  2  0
 15 13  1  0
 17 11  2  0
 18 17  1  0
 19 20  1  0
 20 22  1  0
 20 21  2  0
 23 22  1  1
 23 25  1  0
 23 24  1  0
 24 15  1  0
 25 27  1  0
 26 25  2  0
M  END
$$$$
