SYN.pdb
     RDKit          3D

 27 27  0  0  1  0  0  0  0  0999 V2000
   19.2089  -28.7272  -12.6879 O   0  0  0  0  0  0  0  0  0  0  0  0
   18.9167  -27.9325  -13.7916 C   0  0  0  0  0  0  0  0  0  0  0  0
   19.9153  -26.8141  -13.9566 C   0  0  2  0  0  0  0  0  0  0  0  0
   21.1825  -27.3432  -14.3560 N   0  0  0  0  0  0  0  0  0  0  0  0
   19.9999  -25.9593  -12.7441 C   0  0  0  0  0  0  0  0  0  0  0  0
   21.0839  -25.8363  -12.1128 O   0  0  0  0  0  0  0  0  0  0  0  0
   22.7820  -20.2187  -14.3896 O   0  0  0  0  0  0  0  0  0  0  0  0
   21.7617  -20.8878  -13.7122 C   0  0  0  0  0  0  0  0  0  0  0  0
   21.6825  -20.8769  -12.3360 C   0  0  0  0  0  0  0  0  0  0  0  0
   20.6703  -21.5414  -11.6795 C   0  0  0  0  0  0  0  0  0  0  0  0
   19.6765  -22.2568  -12.3606 C   0  0  0  0  0  0  0  0  0  0  0  0
   18.6229  -22.9908  -11.6384 C   0  0  0  0  0  0  0  0  0  0  0  0
   19.0157  -24.3224  -11.0703 C   0  0  2  0  0  0  0  0  0  0  0  0
   18.8935  -25.2421  -12.2286 N   0  0  0  0  0  0  0  0  0  0  0  0
   18.1048  -24.7870  -10.0116 C   0  0  0  0  0  0  0  0  0  0  0  0
   16.9713  -25.2812  -10.3625 O   0  0  0  0  0  0  0  0  0  0  0  0
   19.7745  -22.2545  -13.7317 C   0  0  0  0  0  0  0  0  0  0  0  0
   20.7873  -21.5896  -14.3897 C   0  0  0  0  0  0  0  0  0  0  0  0
   19.0742  -26.7559   -4.7804 N   0  0  0  0  0  0  0  0  0  0  0  0
   18.1545  -26.5481   -5.8479 C   0  0  0  0  0  0  0  0  0  0  0  0
   17.6397  -27.5538   -6.3811 O   0  0  0  0  0  0  0  0  0  0  0  0
   17.8584  -25.1891   -6.2657 C   0  0  0  0  0  0  0  0  0  0  0  0
   17.3343  -25.1531   -7.6985 C   0  0  2  0  0  0  0  0  0  0  0  0
   18.3617  -24.7500   -8.6177 N   0  0  0  0  0  0  0  0  0  0  0  0
   16.1469  -24.2759   -7.6662 C   0  0  0  0  0  0  0  0  0  0  0  0
   16.2145  -23.0656   -7.9336 O   0  0  0  0  0  0  0  0  0  0  0  0
   14.9138  -24.8088   -7.3283 O   0  0  0  0  0  0  0  0  0  0  0  0
  2  1  1  0
  2  3  1  0
  3  5  1  0
  3  4  1  1
  5  6  2  0
  7  8  1  0
  8 18  2  0
  8  9  1  0
  9 10  2  0
 10 11  1  0
 11 12  1  0
 13 12  1  6
 14 13  1  0
 14  5  1  0
 15 16  2  0
 15 13  1  0
 17 11  2  0
 18 17  1  0
 19 20  1  0
 20 22  1  0
 20 21  2  0
 23 22  1  1
 23 25  1  0
 23 24  1  0
 24 15  1  0
 25 27  1  0
 26 25  2  0
M  END
$$$$
