SYN.pdb
     RDKit          3D

 27 27  0  0  1  0  0  0  0  0999 V2000
   26.2830  -20.6284  -18.9940 O   0  0  0  0  0  0  0  0  0  0  0  0
   27.3787  -19.7975  -18.7836 C   0  0  0  0  0  0  0  0  0  0  0  0
   28.4147  -20.4492  -17.9022 C   0  0  2  0  0  0  0  0  0  0  0  0
   29.2033  -21.3649  -18.6670 N   0  0  0  0  0  0  0  0  0  0  0  0
   27.8087  -21.0723  -16.6969 C   0  0  0  0  0  0  0  0  0  0  0  0
   27.8559  -22.3192  -16.5193 O   0  0  0  0  0  0  0  0  0  0  0  0
   24.2255  -20.9599   -8.3920 O   0  0  0  0  0  0  0  0  0  0  0  0
   24.8280  -20.7126   -9.6261 C   0  0  0  0  0  0  0  0  0  0  0  0
   26.1432  -21.0488   -9.8661 C   0  0  0  0  0  0  0  0  0  0  0  0
   26.7262  -20.7994  -11.0889 C   0  0  0  0  0  0  0  0  0  0  0  0
   26.0282  -20.1985  -12.1449 C   0  0  0  0  0  0  0  0  0  0  0  0
   26.6805  -19.9074  -13.4334 C   0  0  0  0  0  0  0  0  0  0  0  0
   26.5528  -20.9621  -14.4923 C   0  0  2  0  0  0  0  0  0  0  0  0
   27.1526  -20.3237  -15.6903 N   0  0  0  0  0  0  0  0  0  0  0  0
   25.1541  -21.3019  -14.7996 C   0  0  0  0  0  0  0  0  0  0  0  0
   24.5003  -20.5218  -15.5848 O   0  0  0  0  0  0  0  0  0  0  0  0
   24.7188  -19.8716  -11.8840 C   0  0  0  0  0  0  0  0  0  0  0  0
   24.1344  -20.1209  -10.6604 C   0  0  0  0  0  0  0  0  0  0  0  0
   24.4462  -26.0431  -14.9836 N   0  0  0  0  0  0  0  0  0  0  0  0
   23.7999  -24.9192  -15.5735 C   0  0  0  0  0  0  0  0  0  0  0  0
   24.1121  -24.6120  -16.7435 O   0  0  0  0  0  0  0  0  0  0  0  0
   22.8158  -24.1867  -14.7963 C   0  0  0  0  0  0  0  0  0  0  0  0
   23.1170  -22.6906  -14.7922 C   0  0  2  0  0  0  0  0  0  0  0  0
   24.4454  -22.4293  -14.3126 N   0  0  0  0  0  0  0  0  0  0  0  0
   22.0352  -22.0689  -14.0026 C   0  0  0  0  0  0  0  0  0  0  0  0
   22.2621  -21.4299  -12.9629 O   0  0  0  0  0  0  0  0  0  0  0  0
   20.7222  -22.1958  -14.4253 O   0  0  0  0  0  0  0  0  0  0  0  0
  2  1  1  0
  2  3  1  0
  3  5  1  0
  3  4  1  6
  5  6  2  0
  7  8  1  0
  8 18  2  0
  8  9  1  0
  9 10  2  0
 10 11  1  0
 11 12  1  0
 13 12  1  1
 14 13  1  0
 14  5  1  0
 15 16  2  0
 15 13  1  0
 17 11  2  0
 18 17  1  0
 19 20  1  0
 20 22  1  0
 20 21  2  0
 23 22  1  1
 23 25  1  0
 23 24  1  0
 24 15  1  0
 25 27  1  0
 26 25  2  0
M  END
$$$$
