SYN.pdb
     RDKit          3D

 27 27  0  0  1  0  0  0  0  0999 V2000
   15.0535  -13.4365  -16.2112 O   0  0  0  0  0  0  0  0  0  0  0  0
   15.7931  -12.6284  -15.3538 C   0  0  0  0  0  0  0  0  0  0  0  0
   17.0873  -12.1791  -15.9849 C   0  0  2  0  0  0  0  0  0  0  0  0
   17.7823  -13.3031  -16.5317 N   0  0  0  0  0  0  0  0  0  0  0  0
   17.9193  -11.3843  -15.0446 C   0  0  0  0  0  0  0  0  0  0  0  0
   19.1527  -11.6118  -14.9202 O   0  0  0  0  0  0  0  0  0  0  0  0
   21.7880   -4.1426  -12.4673 O   0  0  0  0  0  0  0  0  0  0  0  0
   21.1702   -5.3064  -12.9269 C   0  0  0  0  0  0  0  0  0  0  0  0
   20.3116   -5.2889  -14.0052 C   0  0  0  0  0  0  0  0  0  0  0  0
   19.7081   -6.4448  -14.4490 C   0  0  0  0  0  0  0  0  0  0  0  0
   19.9277   -7.6877  -13.8405 C   0  0  0  0  0  0  0  0  0  0  0  0
   19.2446   -8.9064  -14.3080 C   0  0  0  0  0  0  0  0  0  0  0  0
   18.2511   -9.5119  -13.3612 C   0  0  2  0  0  0  0  0  0  0  0  0
   17.3938  -10.3418  -14.2438 N   0  0  0  0  0  0  0  0  0  0  0  0
   17.4012   -8.5083  -12.7003 C   0  0  0  0  0  0  0  0  0  0  0  0
   16.5168   -7.9026  -13.4098 O   0  0  0  0  0  0  0  0  0  0  0  0
   20.7870   -7.6824  -12.7676 C   0  0  0  0  0  0  0  0  0  0  0  0
   21.3914   -6.5258  -12.3227 C   0  0  0  0  0  0  0  0  0  0  0  0
   15.1752   -6.0892   -7.5124 N   0  0  0  0  0  0  0  0  0  0  0  0
   15.2295   -6.4319   -8.8939 C   0  0  0  0  0  0  0  0  0  0  0  0
   14.3739   -5.9323   -9.6549 O   0  0  0  0  0  0  0  0  0  0  0  0
   16.2672   -7.3384   -9.3527 C   0  0  0  0  0  0  0  0  0  0  0  0
   16.5687   -7.1291  -10.8340 C   0  0  2  0  0  0  0  0  0  0  0  0
   17.4570   -8.1421  -11.3317 N   0  0  0  0  0  0  0  0  0  0  0  0
   17.0742   -5.7463  -10.9458 C   0  0  0  0  0  0  0  0  0  0  0  0
   18.1040   -5.3721  -10.3624 O   0  0  0  0  0  0  0  0  0  0  0  0
   16.3864   -4.8290  -11.7231 O   0  0  0  0  0  0  0  0  0  0  0  0
  2  1  1  0
  2  3  1  0
  3  5  1  0
  3  4  1  1
  5  6  2  0
  7  8  1  0
  8 18  2  0
  8  9  1  0
  9 10  2  0
 10 11  1  0
 11 12  1  0
 13 12  1  6
 14 13  1  0
 14  5  1  0
 15 16  2  0
 15 13  1  0
 17 11  2  0
 18 17  1  0
 19 20  1  0
 20 22  1  0
 20 21  2  0
 23 22  1  1
 23 25  1  0
 23 24  1  0
 24 15  1  0
 25 27  1  0
 26 25  2  0
M  END
$$$$
