KQL.pdb
     RDKit          3D

 27 26  0  0  1  0  0  0  0  0999 V2000
   14.1217  -18.9255    2.8530 N   0  0  0  0  0  0  0  0  0  0  0  0
   15.2960  -19.1441    3.6517 C   0  0  1  0  0  0  0  0  0  0  0  0
   16.5661  -19.2971    2.8763 C   0  0  0  0  0  0  0  0  0  0  0  0
   16.6182  -20.4295    1.9268 C   0  0  0  0  0  0  0  0  0  0  0  0
   16.5694  -21.7993    2.5019 C   0  0  0  0  0  0  0  0  0  0  0  0
   16.7696  -22.8930    1.5036 C   0  0  0  0  0  0  0  0  0  0  0  0
   16.7612  -24.2060    2.0814 N   0  0  0  0  0  0  0  0  0  0  0  0
   15.4059  -18.0293    4.6592 C   0  0  0  0  0  0  0  0  0  0  0  0
   15.0921  -16.8468    4.2906 O   0  0  0  0  0  0  0  0  0  0  0  0
   12.3329  -16.9918    8.3738 N   0  0  0  0  0  0  0  0  0  0  0  0
   13.5531  -17.1916    9.0280 C   0  0  0  0  0  0  0  0  0  0  0  0
   13.9999  -16.4675    9.9418 O   0  0  0  0  0  0  0  0  0  0  0  0
   14.3859  -18.3703    8.5934 C   0  0  0  0  0  0  0  0  0  0  0  0
   15.7915  -17.9315    8.3507 C   0  0  0  0  0  0  0  0  0  0  0  0
   15.9219  -17.2632    7.0037 C   0  0  2  0  0  0  0  0  0  0  0  0
   15.8456  -18.3132    5.9622 N   0  0  0  0  0  0  0  0  0  0  0  0
   17.1870  -16.5681    6.7775 C   0  0  0  0  0  0  0  0  0  0  0  0
   18.1734  -17.2172    6.2808 O   0  0  0  0  0  0  0  0  0  0  0  0
   19.1712  -11.3172    4.9937 C   0  0  0  0  0  0  0  0  0  0  0  0
   19.7069  -12.5488    5.7616 C   0  0  2  0  0  0  0  0  0  0  0  0
   20.7274  -13.2263    4.8658 C   0  0  0  0  0  0  0  0  0  0  0  0
   18.5380  -13.4296    5.9848 C   0  0  0  0  0  0  0  0  0  0  0  0
   18.7500  -14.6387    6.8177 C   0  0  2  0  0  0  0  0  0  0  0  0
   17.4084  -15.2174    7.0618 N   0  0  0  0  0  0  0  0  0  0  0  0
   19.4217  -14.4859    8.0981 C   0  0  0  0  0  0  0  0  0  0  0  0
   18.7990  -14.2305    9.1602 O   0  0  0  0  0  0  0  0  0  0  0  0
   20.7983  -14.6174    8.2206 O   0  0  0  0  0  0  0  0  0  0  0  0
  2  8  1  0
  2  1  1  6
  3  2  1  0
  4  3  1  0
  5  4  1  0
  6  5  1  0
  7  6  1  0
  8  9  2  0
 10 11  1  0
 11 13  1  0
 11 12  2  0
 13 14  1  0
 15 14  1  1
 16 15  1  0
 16  8  1  0
 17 15  1  0
 18 17  2  0
 20 19  1  6
 20 22  1  0
 21 20  1  0
 23 22  1  1
 23 25  1  0
 23 24  1  0
 24 17  1  0
 25 27  1  0
 26 25  2  0
M  END
$$$$
