KQL.pdb
     RDKit          3D

 27 26  0  0  1  0  0  0  0  0999 V2000
   24.0140  -21.2514  -10.2487 N   0  0  0  0  0  0  0  0  0  0  0  0
   25.0892  -20.4081   -9.8043 C   0  0  1  0  0  0  0  0  0  0  0  0
   25.6575  -20.7635   -8.4669 C   0  0  0  0  0  0  0  0  0  0  0  0
   24.8099  -21.6131   -7.6030 C   0  0  0  0  0  0  0  0  0  0  0  0
   23.7937  -20.9258   -6.7638 C   0  0  0  0  0  0  0  0  0  0  0  0
   23.0488  -21.8298   -5.8359 C   0  0  0  0  0  0  0  0  0  0  0  0
   22.0599  -21.1537   -5.0467 N   0  0  0  0  0  0  0  0  0  0  0  0
   26.1603  -20.3971  -10.8638 C   0  0  0  0  0  0  0  0  0  0  0  0
   27.2385  -21.0458  -10.6417 O   0  0  0  0  0  0  0  0  0  0  0  0
   25.0150  -24.0347  -14.0175 N   0  0  0  0  0  0  0  0  0  0  0  0
   25.7794  -23.5091  -15.0645 C   0  0  0  0  0  0  0  0  0  0  0  0
   26.0569  -24.1159  -16.1199 O   0  0  0  0  0  0  0  0  0  0  0  0
   26.3040  -22.1057  -14.9010 C   0  0  0  0  0  0  0  0  0  0  0  0
   25.8834  -21.5621  -13.5762 C   0  0  0  0  0  0  0  0  0  0  0  0
   26.4476  -20.1795  -13.3578 C   0  0  2  0  0  0  0  0  0  0  0  0
   25.9506  -19.6826  -12.0543 N   0  0  0  0  0  0  0  0  0  0  0  0
   26.0422  -19.1823  -14.3457 C   0  0  0  0  0  0  0  0  0  0  0  0
   24.8224  -18.7917  -14.3711 O   0  0  0  0  0  0  0  0  0  0  0  0
   28.8160  -15.0700  -17.8318 C   0  0  0  0  0  0  0  0  0  0  0  0
   27.4040  -15.5588  -17.4306 C   0  0  2  0  0  0  0  0  0  0  0  0
   26.7227  -14.4134  -16.7050 C   0  0  0  0  0  0  0  0  0  0  0  0
   27.6142  -16.7065  -16.5191 C   0  0  0  0  0  0  0  0  0  0  0  0
   26.4139  -17.4779  -16.1133 C   0  0  2  0  0  0  0  0  0  0  0  0
   26.9026  -18.6033  -15.2832 N   0  0  0  0  0  0  0  0  0  0  0  0
   25.5553  -18.0176  -17.1551 C   0  0  0  0  0  0  0  0  0  0  0  0
   24.7083  -17.3145  -17.7628 O   0  0  0  0  0  0  0  0  0  0  0  0
   25.6254  -19.3492  -17.5418 O   0  0  0  0  0  0  0  0  0  0  0  0
  2  8  1  0
  2  1  1  6
  3  2  1  0
  4  3  1  0
  5  4  1  0
  6  5  1  0
  7  6  1  0
  8  9  2  0
 10 11  1  0
 11 13  1  0
 11 12  2  0
 13 14  1  0
 15 14  1  6
 16 15  1  0
 16  8  1  0
 17 15  1  0
 18 17  2  0
 20 19  1  1
 20 22  1  0
 21 20  1  0
 23 22  1  6
 23 25  1  0
 23 24  1  0
 24 17  1  0
 25 27  1  0
 26 25  2  0
M  END
$$$$
