KQL.pdb
     RDKit          3D

 27 26  0  0  1  0  0  0  0  0999 V2000
   20.4967  -32.1960   -9.6091 N   0  0  0  0  0  0  0  0  0  0  0  0
   20.6529  -32.6073   -8.2412 C   0  0  1  0  0  0  0  0  0  0  0  0
   22.0691  -32.6983   -7.7682 C   0  0  0  0  0  0  0  0  0  0  0  0
   23.0543  -33.1978   -8.7513 C   0  0  0  0  0  0  0  0  0  0  0  0
   24.4286  -33.4706   -8.2549 C   0  0  0  0  0  0  0  0  0  0  0  0
   25.3931  -33.8924   -9.3155 C   0  0  0  0  0  0  0  0  0  0  0  0
   26.7384  -34.0434   -8.8407 N   0  0  0  0  0  0  0  0  0  0  0  0
   19.8466  -31.6827   -7.3667 C   0  0  0  0  0  0  0  0  0  0  0  0
   19.8530  -30.4340   -7.6378 O   0  0  0  0  0  0  0  0  0  0  0  0
   14.5619  -33.3529   -5.0162 N   0  0  0  0  0  0  0  0  0  0  0  0
   14.6694  -32.1535   -4.3042 C   0  0  0  0  0  0  0  0  0  0  0  0
   13.7831  -31.6827   -3.5614 O   0  0  0  0  0  0  0  0  0  0  0  0
   15.9527  -31.3764   -4.4483 C   0  0  0  0  0  0  0  0  0  0  0  0
   16.8992  -32.1255   -5.3260 C   0  0  0  0  0  0  0  0  0  0  0  0
   18.1952  -31.3695   -5.4893 C   0  0  2  0  0  0  0  0  0  0  0  0
   19.1174  -32.2087   -6.2881 N   0  0  0  0  0  0  0  0  0  0  0  0
   18.9010  -31.0750   -4.2444 C   0  0  0  0  0  0  0  0  0  0  0  0
   19.5976  -31.9967   -3.6910 O   0  0  0  0  0  0  0  0  0  0  0  0
   19.8906  -26.2825   -0.5995 C   0  0  0  0  0  0  0  0  0  0  0  0
   20.1785  -27.7978   -0.7203 C   0  0  2  0  0  0  0  0  0  0  0  0
   21.6864  -27.9686   -0.7215 C   0  0  0  0  0  0  0  0  0  0  0  0
   19.6017  -28.2198   -2.0170 C   0  0  0  0  0  0  0  0  0  0  0  0
   19.6279  -29.6694   -2.3304 C   0  0  2  0  0  0  0  0  0  0  0  0
   18.8799  -29.8355   -3.5981 N   0  0  0  0  0  0  0  0  0  0  0  0
   19.0822  -30.5971   -1.3529 C   0  0  0  0  0  0  0  0  0  0  0  0
   17.8458  -30.7726   -1.2063 O   0  0  0  0  0  0  0  0  0  0  0  0
   19.9025  -31.3487   -0.5224 O   0  0  0  0  0  0  0  0  0  0  0  0
  2  8  1  0
  2  1  1  6
  3  2  1  0
  4  3  1  0
  5  4  1  0
  6  5  1  0
  7  6  1  0
  8  9  2  0
 10 11  1  0
 11 13  1  0
 11 12  2  0
 13 14  1  0
 15 14  1  1
 16 15  1  0
 16  8  1  0
 17 15  1  0
 18 17  2  0
 20 19  1  6
 20 22  1  0
 21 20  1  0
 23 22  1  1
 23 25  1  0
 23 24  1  0
 24 17  1  0
 25 27  1  0
 26 25  2  0
M  END
$$$$
