KQL.pdb
     RDKit          3D

 27 26  0  0  1  0  0  0  0  0999 V2000
   28.3376  -22.2685  -17.5855 N   0  0  0  0  0  0  0  0  0  0  0  0
   28.1435  -22.8425  -16.2826 C   0  0  1  0  0  0  0  0  0  0  0  0
   29.3754  -23.4148  -15.6560 C   0  0  0  0  0  0  0  0  0  0  0  0
   30.6554  -23.0960  -16.3243 C   0  0  0  0  0  0  0  0  0  0  0  0
   31.2848  -24.1730  -17.1325 C   0  0  0  0  0  0  0  0  0  0  0  0
   32.3424  -24.9445  -16.4119 C   0  0  0  0  0  0  0  0  0  0  0  0
   32.9903  -25.9304  -17.2281 N   0  0  0  0  0  0  0  0  0  0  0  0
   27.5121  -21.8057  -15.3903 C   0  0  0  0  0  0  0  0  0  0  0  0
   27.7986  -20.5770  -15.5927 O   0  0  0  0  0  0  0  0  0  0  0  0
   23.3822  -19.3158  -15.4710 N   0  0  0  0  0  0  0  0  0  0  0  0
   23.0208  -19.3280  -14.1197 C   0  0  0  0  0  0  0  0  0  0  0  0
   22.3568  -18.4369  -13.5505 O   0  0  0  0  0  0  0  0  0  0  0  0
   23.4690  -20.5069  -13.2946 C   0  0  0  0  0  0  0  0  0  0  0  0
   24.3836  -21.3674  -14.1011 C   0  0  0  0  0  0  0  0  0  0  0  0
   25.8089  -21.2343  -13.6231 C   0  0  2  0  0  0  0  0  0  0  0  0
   26.6356  -22.2096  -14.3703 N   0  0  0  0  0  0  0  0  0  0  0  0
   26.0181  -21.5349  -12.2086 C   0  0  0  0  0  0  0  0  0  0  0  0
   25.8699  -22.7400  -11.8002 O   0  0  0  0  0  0  0  0  0  0  0  0
   26.6129  -19.5618   -7.1158 C   0  0  0  0  0  0  0  0  0  0  0  0
   27.7121  -20.4586   -7.7335 C   0  0  2  0  0  0  0  0  0  0  0  0
   29.0500  -19.9020   -7.2828 C   0  0  0  0  0  0  0  0  0  0  0  0
   27.5604  -20.3360   -9.2012 C   0  0  0  0  0  0  0  0  0  0  0  0
   26.3709  -20.9755   -9.8149 C   0  0  2  0  0  0  0  0  0  0  0  0
   26.3815  -20.5895  -11.2451 N   0  0  0  0  0  0  0  0  0  0  0  0
   25.0604  -20.6647   -9.2674 C   0  0  0  0  0  0  0  0  0  0  0  0
   24.3702  -19.6968   -9.6773 O   0  0  0  0  0  0  0  0  0  0  0  0
   24.4925  -21.4271   -8.2556 O   0  0  0  0  0  0  0  0  0  0  0  0
  2  8  1  0
  2  1  1  6
  3  2  1  0
  4  3  1  0
  5  4  1  0
  6  5  1  0
  7  6  1  0
  8  9  2  0
 10 11  1  0
 11 13  1  0
 11 12  2  0
 13 14  1  0
 15 14  1  6
 16 15  1  0
 16  8  1  0
 17 15  1  0
 18 17  2  0
 20 19  1  1
 20 22  1  0
 21 20  1  0
 23 22  1  1
 23 25  1  0
 23 24  1  0
 24 17  1  0
 25 27  1  0
 26 25  2  0
M  END
$$$$
