KQL.pdb
     RDKit          3D

 27 26  0  0  1  0  0  0  0  0999 V2000
   18.1126  -22.6896  -10.8593 N   0  0  0  0  0  0  0  0  0  0  0  0
   16.8550  -23.3219  -11.1481 C   0  0  1  0  0  0  0  0  0  0  0  0
   16.6414  -23.6722  -12.5867 C   0  0  0  0  0  0  0  0  0  0  0  0
   16.9514  -22.6116  -13.5693 C   0  0  0  0  0  0  0  0  0  0  0  0
   18.3447  -22.0942  -13.5913 C   0  0  0  0  0  0  0  0  0  0  0  0
   18.6235  -21.1252  -14.6942 C   0  0  0  0  0  0  0  0  0  0  0  0
   19.9930  -20.7022  -14.7539 N   0  0  0  0  0  0  0  0  0  0  0  0
   16.7142  -24.5358  -10.2669 C   0  0  0  0  0  0  0  0  0  0  0  0
   15.6844  -25.2771  -10.4173 O   0  0  0  0  0  0  0  0  0  0  0  0
   20.9116  -28.4081   -9.8679 N   0  0  0  0  0  0  0  0  0  0  0  0
   19.6607  -28.8165  -10.3425 C   0  0  0  0  0  0  0  0  0  0  0  0
   19.4686  -29.7863  -11.1052 O   0  0  0  0  0  0  0  0  0  0  0  0
   18.4592  -28.0233   -9.8966 C   0  0  0  0  0  0  0  0  0  0  0  0
   18.8952  -26.9039   -9.0111 C   0  0  0  0  0  0  0  0  0  0  0  0
   17.7113  -26.0888   -8.5511 C   0  0  2  0  0  0  0  0  0  0  0  0
   17.7053  -24.8192   -9.3134 N   0  0  0  0  0  0  0  0  0  0  0  0
   17.7329  -25.7072   -7.1409 C   0  0  0  0  0  0  0  0  0  0  0  0
   18.2027  -24.5613   -6.8135 O   0  0  0  0  0  0  0  0  0  0  0  0
   16.2289  -26.5076   -1.9315 C   0  0  0  0  0  0  0  0  0  0  0  0
   15.9304  -25.2688   -2.8090 C   0  0  2  0  0  0  0  0  0  0  0  0
   14.5060  -24.8399   -2.5091 C   0  0  0  0  0  0  0  0  0  0  0  0
   16.0568  -25.7239   -4.2123 C   0  0  0  0  0  0  0  0  0  0  0  0
   17.4206  -26.0440   -4.7003 C   0  0  2  0  0  0  0  0  0  0  0  0
   17.2645  -26.5110   -6.0974 N   0  0  0  0  0  0  0  0  0  0  0  0
   18.2001  -27.0322   -3.9725 C   0  0  0  0  0  0  0  0  0  0  0  0
   18.2019  -28.2510   -4.2817 O   0  0  0  0  0  0  0  0  0  0  0  0
   18.9942  -26.6818   -2.8889 O   0  0  0  0  0  0  0  0  0  0  0  0
  2  8  1  0
  2  1  1  6
  3  2  1  0
  4  3  1  0
  5  4  1  0
  6  5  1  0
  7  6  1  0
  8  9  2  0
 10 11  1  0
 11 13  1  0
 11 12  2  0
 13 14  1  0
 15 14  1  6
 16 15  1  0
 16  8  1  0
 17 15  1  0
 18 17  2  0
 20 19  1  1
 20 22  1  0
 21 20  1  0
 23 22  1  1
 23 25  1  0
 23 24  1  0
 24 17  1  0
 25 27  1  0
 26 25  2  0
M  END
$$$$
