KQL.pdb
     RDKit          3D

 27 26  0  0  1  0  0  0  0  0999 V2000
   21.6745  -16.0945  -18.7057 N   0  0  0  0  0  0  0  0  0  0  0  0
   21.4295  -15.3123  -17.5255 C   0  0  1  0  0  0  0  0  0  0  0  0
   22.2234  -15.7181  -16.3244 C   0  0  0  0  0  0  0  0  0  0  0  0
   21.9481  -17.0676  -15.7860 C   0  0  0  0  0  0  0  0  0  0  0  0
   20.6170  -17.2902  -15.1630 C   0  0  0  0  0  0  0  0  0  0  0  0
   20.5481  -18.4868  -14.2705 C   0  0  0  0  0  0  0  0  0  0  0  0
   21.0336  -19.6892  -14.8842 N   0  0  0  0  0  0  0  0  0  0  0  0
   21.6514  -13.8596  -17.8576 C   0  0  0  0  0  0  0  0  0  0  0  0
   22.6127  -13.5581  -18.6436 O   0  0  0  0  0  0  0  0  0  0  0  0
   18.3732  -10.2383  -20.2887 N   0  0  0  0  0  0  0  0  0  0  0  0
   18.9344   -9.1575  -19.6004 C   0  0  0  0  0  0  0  0  0  0  0  0
   18.8837   -7.9679  -19.9766 O   0  0  0  0  0  0  0  0  0  0  0  0
   19.6522   -9.4572  -18.3094 C   0  0  0  0  0  0  0  0  0  0  0  0
   19.5943  -10.9220  -18.0295 C   0  0  0  0  0  0  0  0  0  0  0  0
   20.9524  -11.4489  -17.6349 C   0  0  2  0  0  0  0  0  0  0  0  0
   20.8076  -12.8845  -17.3018 N   0  0  0  0  0  0  0  0  0  0  0  0
   21.5398  -10.8223  -16.4529 C   0  0  0  0  0  0  0  0  0  0  0  0
   21.0271  -11.0597  -15.3032 O   0  0  0  0  0  0  0  0  0  0  0  0
   25.0837  -11.0978  -13.9750 C   0  0  0  0  0  0  0  0  0  0  0  0
   25.2879  -10.3984  -15.3399 C   0  0  2  0  0  0  0  0  0  0  0  0
   26.7715  -10.1111  -15.4785 C   0  0  0  0  0  0  0  0  0  0  0  0
   24.5136   -9.1382  -15.2715 C   0  0  0  0  0  0  0  0  0  0  0  0
   23.0350   -9.2526  -15.2413 C   0  0  2  0  0  0  0  0  0  0  0  0
   22.6469   -9.9691  -16.4784 N   0  0  0  0  0  0  0  0  0  0  0  0
   22.2497   -8.0320  -15.1547 C   0  0  0  0  0  0  0  0  0  0  0  0
   21.7830   -7.4567  -16.1707 O   0  0  0  0  0  0  0  0  0  0  0  0
   21.9671   -7.4307  -13.9357 O   0  0  0  0  0  0  0  0  0  0  0  0
  2  8  1  0
  2  1  1  6
  3  2  1  0
  4  3  1  0
  5  4  1  0
  6  5  1  0
  7  6  1  0
  8  9  2  0
 10 11  1  0
 11 13  1  0
 11 12  2  0
 13 14  1  0
 15 14  1  1
 16 15  1  0
 16  8  1  0
 17 15  1  0
 18 17  2  0
 20 19  1  1
 20 22  1  0
 21 20  1  0
 23 22  1  6
 23 25  1  0
 23 24  1  0
 24 17  1  0
 25 27  1  0
 26 25  2  0
M  END
$$$$
