KQL.pdb
     RDKit          3D

 27 26  0  0  1  0  0  0  0  0999 V2000
   25.5365  -21.2114  -14.8356 N   0  0  0  0  0  0  0  0  0  0  0  0
   26.6160  -20.6997  -14.0372 C   0  0  1  0  0  0  0  0  0  0  0  0
   27.6280  -19.8935  -14.7879 C   0  0  0  0  0  0  0  0  0  0  0  0
   28.8189  -20.6262  -15.2690 C   0  0  0  0  0  0  0  0  0  0  0  0
   28.5898  -21.9528  -15.8992 C   0  0  0  0  0  0  0  0  0  0  0  0
   29.8293  -22.6140  -16.4087 C   0  0  0  0  0  0  0  0  0  0  0  0
   29.6278  -23.9745  -16.8163 N   0  0  0  0  0  0  0  0  0  0  0  0
   26.0348  -19.9115  -12.8922 C   0  0  0  0  0  0  0  0  0  0  0  0
   25.4845  -18.7872  -13.1488 O   0  0  0  0  0  0  0  0  0  0  0  0
   21.4137  -19.4033  -10.9649 N   0  0  0  0  0  0  0  0  0  0  0  0
   21.9440  -20.6721  -11.2213 C   0  0  0  0  0  0  0  0  0  0  0  0
   21.2750  -21.6698  -11.5619 O   0  0  0  0  0  0  0  0  0  0  0  0
   23.4345  -20.8413  -11.0741 C   0  0  0  0  0  0  0  0  0  0  0  0
   24.0517  -19.5423  -10.6754 C   0  0  0  0  0  0  0  0  0  0  0  0
   25.5326  -19.7022  -10.4318 C   0  0  2  0  0  0  0  0  0  0  0  0
   26.1115  -20.4248  -11.5875 N   0  0  0  0  0  0  0  0  0  0  0  0
   25.8844  -20.4893   -9.2522 C   0  0  0  0  0  0  0  0  0  0  0  0
   25.8705  -21.7678   -9.3306 O   0  0  0  0  0  0  0  0  0  0  0  0
   29.4979  -20.5787   -6.6475 C   0  0  0  0  0  0  0  0  0  0  0  0
   28.4977  -19.4324   -6.3660 C   0  0  2  0  0  0  0  0  0  0  0  0
   29.1099  -18.5584   -5.2871 C   0  0  0  0  0  0  0  0  0  0  0  0
   27.2610  -20.0823   -5.8758 C   0  0  0  0  0  0  0  0  0  0  0  0
   26.4605  -20.8470   -6.8631 C   0  0  2  0  0  0  0  0  0  0  0  0
   26.2492  -19.9435   -8.0179 N   0  0  0  0  0  0  0  0  0  0  0  0
   25.1682  -21.3687   -6.4487 C   0  0  0  0  0  0  0  0  0  0  0  0
   24.0862  -20.7958   -6.7349 O   0  0  0  0  0  0  0  0  0  0  0  0
   25.0563  -22.5391   -5.7104 O   0  0  0  0  0  0  0  0  0  0  0  0
  2  8  1  0
  2  1  1  6
  3  2  1  0
  4  3  1  0
  5  4  1  0
  6  5  1  0
  7  6  1  0
  8  9  2  0
 10 11  1  0
 11 13  1  0
 11 12  2  0
 13 14  1  0
 15 14  1  6
 16 15  1  0
 16  8  1  0
 17 15  1  0
 18 17  2  0
 20 19  1  1
 20 22  1  0
 21 20  1  0
 23 22  1  1
 23 25  1  0
 23 24  1  0
 24 17  1  0
 25 27  1  0
 26 25  2  0
M  END
$$$$
