KQL.pdb
     RDKit          3D

 27 26  0  0  1  0  0  0  0  0999 V2000
   23.7143  -20.1800  -15.4494 N   0  0  0  0  0  0  0  0  0  0  0  0
   22.8231  -19.1936  -15.9948 C   0  0  1  0  0  0  0  0  0  0  0  0
   22.9536  -18.9723  -17.4685 C   0  0  0  0  0  0  0  0  0  0  0  0
   24.2765  -18.5139  -17.9445 C   0  0  0  0  0  0  0  0  0  0  0  0
   24.9503  -19.3442  -18.9770 C   0  0  0  0  0  0  0  0  0  0  0  0
   26.2078  -18.7481  -19.5212 C   0  0  0  0  0  0  0  0  0  0  0  0
   26.7327  -19.4520  -20.6556 N   0  0  0  0  0  0  0  0  0  0  0  0
   21.4108  -19.5654  -15.6246 C   0  0  0  0  0  0  0  0  0  0  0  0
   21.1439  -20.7974  -15.4158 O   0  0  0  0  0  0  0  0  0  0  0  0
   19.0046  -20.5147  -11.3229 N   0  0  0  0  0  0  0  0  0  0  0  0
   19.5984  -19.2512  -11.4115 C   0  0  0  0  0  0  0  0  0  0  0  0
   20.0683  -18.6142  -10.4459 O   0  0  0  0  0  0  0  0  0  0  0  0
   19.6740  -18.6168  -12.7766 C   0  0  0  0  0  0  0  0  0  0  0  0
   19.0439  -19.5176  -13.7860 C   0  0  0  0  0  0  0  0  0  0  0  0
   19.0344  -18.8737  -15.1509 C   0  0  2  0  0  0  0  0  0  0  0  0
   20.4342  -18.5618  -15.5199 N   0  0  0  0  0  0  0  0  0  0  0  0
   18.3088  -17.6082  -15.2333 C   0  0  0  0  0  0  0  0  0  0  0  0
   18.8893  -16.5321  -14.8510 O   0  0  0  0  0  0  0  0  0  0  0  0
   16.6162  -15.3939  -18.6817 C   0  0  0  0  0  0  0  0  0  0  0  0
   15.7314  -16.5622  -18.1859 C   0  0  2  0  0  0  0  0  0  0  0  0
   14.5251  -16.6316  -19.1040 C   0  0  0  0  0  0  0  0  0  0  0  0
   15.3224  -16.2069  -16.8081 C   0  0  0  0  0  0  0  0  0  0  0  0
   16.3918  -16.1282  -15.7831 C   0  0  2  0  0  0  0  0  0  0  0  0
   17.0024  -17.4760  -15.7133 N   0  0  0  0  0  0  0  0  0  0  0  0
   16.0280  -15.7210  -14.4356 C   0  0  0  0  0  0  0  0  0  0  0  0
   16.0031  -16.5271  -13.4709 O   0  0  0  0  0  0  0  0  0  0  0  0
   15.6879  -14.4087  -14.1363 O   0  0  0  0  0  0  0  0  0  0  0  0
  2  8  1  0
  2  1  1  6
  3  2  1  0
  4  3  1  0
  5  4  1  0
  6  5  1  0
  7  6  1  0
  8  9  2  0
 10 11  1  0
 11 13  1  0
 11 12  2  0
 13 14  1  0
 15 14  1  1
 16 15  1  0
 16  8  1  0
 17 15  1  0
 18 17  2  0
 20 19  1  6
 20 22  1  0
 21 20  1  0
 23 22  1  6
 23 25  1  0
 23 24  1  0
 24 17  1  0
 25 27  1  0
 26 25  2  0
M  END
$$$$
