KQL.pdb
     RDKit          3D

 27 26  0  0  1  0  0  0  0  0999 V2000
   25.7498  -38.1093   -3.8418 N   0  0  0  0  0  0  0  0  0  0  0  0
   26.6050  -37.1027   -3.2760 C   0  0  1  0  0  0  0  0  0  0  0  0
   26.8328  -35.9074   -4.1461 C   0  0  0  0  0  0  0  0  0  0  0  0
   27.7249  -36.1071   -5.3083 C   0  0  0  0  0  0  0  0  0  0  0  0
   27.9899  -34.9256   -6.1704 C   0  0  0  0  0  0  0  0  0  0  0  0
   28.8900  -35.2006   -7.3311 C   0  0  0  0  0  0  0  0  0  0  0  0
   29.2134  -34.0310   -8.0962 N   0  0  0  0  0  0  0  0  0  0  0  0
   26.0501  -36.7000   -1.9344 C   0  0  0  0  0  0  0  0  0  0  0  0
   24.8256  -36.3410   -1.8685 O   0  0  0  0  0  0  0  0  0  0  0  0
   27.3195  -39.8602    0.7888 N   0  0  0  0  0  0  0  0  0  0  0  0
   26.3316  -39.6481    1.7562 C   0  0  0  0  0  0  0  0  0  0  0  0
   25.6253  -40.5443    2.2633 O   0  0  0  0  0  0  0  0  0  0  0  0
   26.1078  -38.2307    2.2170 C   0  0  0  0  0  0  0  0  0  0  0  0
   27.0741  -37.3209    1.5343 C   0  0  0  0  0  0  0  0  0  0  0  0
   26.3649  -36.4227    0.5504 C   0  0  2  0  0  0  0  0  0  0  0  0
   26.8818  -36.7279   -0.8034 N   0  0  0  0  0  0  0  0  0  0  0  0
   26.5850  -34.9919    0.7483 C   0  0  0  0  0  0  0  0  0  0  0  0
   27.7352  -34.4964    0.4794 O   0  0  0  0  0  0  0  0  0  0  0  0
   25.7654  -31.7840   -1.4969 C   0  0  0  0  0  0  0  0  0  0  0  0
   24.5048  -32.1958   -0.6999 C   0  0  2  0  0  0  0  0  0  0  0  0
   23.3638  -31.3191   -1.1817 C   0  0  0  0  0  0  0  0  0  0  0  0
   24.8140  -31.9205    0.7217 C   0  0  0  0  0  0  0  0  0  0  0  0
   25.9495  -32.6612    1.3237 C   0  0  2  0  0  0  0  0  0  0  0  0
   25.6142  -34.0999    1.2132 N   0  0  0  0  0  0  0  0  0  0  0  0
   26.3028  -32.3791    2.7056 C   0  0  0  0  0  0  0  0  0  0  0  0
   26.7782  -31.2729    3.0680 O   0  0  0  0  0  0  0  0  0  0  0  0
   26.1310  -33.3220    3.7100 O   0  0  0  0  0  0  0  0  0  0  0  0
  2  8  1  0
  2  1  1  6
  3  2  1  0
  4  3  1  0
  5  4  1  0
  6  5  1  0
  7  6  1  0
  8  9  2  0
 10 11  1  0
 11 13  1  0
 11 12  2  0
 13 14  1  0
 15 14  1  1
 16 15  1  0
 16  8  1  0
 17 15  1  0
 18 17  2  0
 20 19  1  6
 20 22  1  0
 21 20  1  0
 23 22  1  1
 23 25  1  0
 23 24  1  0
 24 17  1  0
 25 27  1  0
 26 25  2  0
M  END
$$$$
