KQL.pdb
     RDKit          3D

 27 26  0  0  1  0  0  0  0  0999 V2000
   17.3598  -12.0652  -14.8032 N   0  0  0  0  0  0  0  0  0  0  0  0
   16.4637  -11.0528  -14.3165 C   0  0  1  0  0  0  0  0  0  0  0  0
   15.0907  -11.5380  -13.9743 C   0  0  0  0  0  0  0  0  0  0  0  0
   14.3290  -12.1687  -15.0737 C   0  0  0  0  0  0  0  0  0  0  0  0
   13.6524  -13.4585  -14.7766 C   0  0  0  0  0  0  0  0  0  0  0  0
   12.9240  -14.0527  -15.9382 C   0  0  0  0  0  0  0  0  0  0  0  0
   12.2459  -15.2774  -15.6248 N   0  0  0  0  0  0  0  0  0  0  0  0
   17.1070  -10.3682  -13.1386 C   0  0  0  0  0  0  0  0  0  0  0  0
   17.3606  -11.0647  -12.0978 O   0  0  0  0  0  0  0  0  0  0  0  0
   21.2939   -6.0347  -13.2046 N   0  0  0  0  0  0  0  0  0  0  0  0
   21.4135   -7.4118  -13.4197 C   0  0  0  0  0  0  0  0  0  0  0  0
   22.4131   -7.9726  -13.9149 O   0  0  0  0  0  0  0  0  0  0  0  0
   20.2458   -8.2778  -13.0219 C   0  0  0  0  0  0  0  0  0  0  0  0
   19.1183   -7.4191  -12.5543 C   0  0  0  0  0  0  0  0  0  0  0  0
   17.9698   -8.2623  -12.0566 C   0  0  2  0  0  0  0  0  0  0  0  0
   17.4077   -8.9986  -13.2120 N   0  0  0  0  0  0  0  0  0  0  0  0
   16.8556   -7.5128  -11.4808 C   0  0  0  0  0  0  0  0  0  0  0  0
   15.9303   -7.0813  -12.2545 O   0  0  0  0  0  0  0  0  0  0  0  0
   13.6155   -7.1970   -6.5170 C   0  0  0  0  0  0  0  0  0  0  0  0
   13.8888   -6.3696   -7.7955 C   0  0  2  0  0  0  0  0  0  0  0  0
   12.6101   -6.3724   -8.6127 C   0  0  0  0  0  0  0  0  0  0  0  0
   14.9725   -7.0772   -8.5144 C   0  0  0  0  0  0  0  0  0  0  0  0
   15.5843   -6.3808   -9.6726 C   0  0  2  0  0  0  0  0  0  0  0  0
   16.7141   -7.2284  -10.1194 N   0  0  0  0  0  0  0  0  0  0  0  0
   16.0767   -5.0261   -9.4822 C   0  0  0  0  0  0  0  0  0  0  0  0
   15.3145   -4.0261   -9.4749 O   0  0  0  0  0  0  0  0  0  0  0  0
   17.4261   -4.7597   -9.2937 O   0  0  0  0  0  0  0  0  0  0  0  0
  2  8  1  0
  2  1  1  1
  3  2  1  0
  4  3  1  0
  5  4  1  0
  6  5  1  0
  7  6  1  0
  8  9  2  0
 10 11  1  0
 11 13  1  0
 11 12  2  0
 13 14  1  0
 15 14  1  6
 16 15  1  0
 16  8  1  0
 17 15  1  0
 18 17  2  0
 20 19  1  1
 20 22  1  0
 21 20  1  0
 23 22  1  1
 23 25  1  0
 23 24  1  0
 24 17  1  0
 25 27  1  0
 26 25  2  0
M  END
$$$$
