KQL.pdb
     RDKit          3D

 27 26  0  0  1  0  0  0  0  0999 V2000
   28.4912  -19.7741  -14.9459 N   0  0  0  0  0  0  0  0  0  0  0  0
   27.6042  -18.6698  -14.7043 C   0  0  1  0  0  0  0  0  0  0  0  0
   26.9377  -18.1181  -15.9246 C   0  0  0  0  0  0  0  0  0  0  0  0
   27.7288  -18.1559  -17.1733 C   0  0  0  0  0  0  0  0  0  0  0  0
   28.4989  -16.9342  -17.5251 C   0  0  0  0  0  0  0  0  0  0  0  0
   29.2728  -17.0406  -18.7990 C   0  0  0  0  0  0  0  0  0  0  0  0
   30.0996  -15.8989  -19.0652 N   0  0  0  0  0  0  0  0  0  0  0  0
   26.5886  -19.0865  -13.6724 C   0  0  0  0  0  0  0  0  0  0  0  0
   25.6152  -18.2958  -13.4269 O   0  0  0  0  0  0  0  0  0  0  0  0
   24.2617  -24.5559  -13.4069 N   0  0  0  0  0  0  0  0  0  0  0  0
   23.6041  -23.4545  -13.9647 C   0  0  0  0  0  0  0  0  0  0  0  0
   22.6092  -23.5226  -14.7161 O   0  0  0  0  0  0  0  0  0  0  0  0
   24.1409  -22.0863  -13.6302 C   0  0  0  0  0  0  0  0  0  0  0  0
   25.2702  -22.2113  -12.6626 C   0  0  0  0  0  0  0  0  0  0  0  0
   25.6757  -20.8584  -12.1306 C   0  0  2  0  0  0  0  0  0  0  0  0
   26.7347  -20.3177  -13.0133 N   0  0  0  0  0  0  0  0  0  0  0  0
   26.2442  -20.8675  -10.7847 C   0  0  0  0  0  0  0  0  0  0  0  0
   27.3267  -21.5182  -10.5710 O   0  0  0  0  0  0  0  0  0  0  0  0
   28.8244  -20.6467   -7.7501 C   0  0  0  0  0  0  0  0  0  0  0  0
   27.9311  -19.4062   -7.9887 C   0  0  2  0  0  0  0  0  0  0  0  0
   28.4930  -18.2798   -7.1411 C   0  0  0  0  0  0  0  0  0  0  0  0
   26.5764  -19.7851   -7.5265 C   0  0  0  0  0  0  0  0  0  0  0  0
   25.8402  -20.7869   -8.3357 C   0  0  2  0  0  0  0  0  0  0  0  0
   25.6896  -20.2012   -9.6880 N   0  0  0  0  0  0  0  0  0  0  0  0
   24.5300  -21.2179   -7.8758 C   0  0  0  0  0  0  0  0  0  0  0  0
   24.3590  -21.7967   -6.7727 O   0  0  0  0  0  0  0  0  0  0  0  0
   23.3856  -21.0101   -8.6338 O   0  0  0  0  0  0  0  0  0  0  0  0
  2  8  1  0
  2  1  1  6
  3  2  1  0
  4  3  1  0
  5  4  1  0
  6  5  1  0
  7  6  1  0
  8  9  2  0
 10 11  1  0
 11 13  1  0
 11 12  2  0
 13 14  1  0
 15 14  1  6
 16 15  1  0
 16  8  1  0
 17 15  1  0
 18 17  2  0
 20 19  1  1
 20 22  1  0
 21 20  1  0
 23 22  1  1
 23 25  1  0
 23 24  1  0
 24 17  1  0
 25 27  1  0
 26 25  2  0
M  END
$$$$
