PHK.pdb
     RDKit          3D

 27 28  0  0  1  0  0  0  0  0999 V2000
   27.1772  -18.7907  -17.8741 N   0  0  0  0  0  0  0  0  0  0  0  0
   27.6903  -17.4757  -18.1793 C   0  0  0  0  0  0  0  0  0  0  0  0
   28.0785  -16.8207  -16.8960 C   0  0  0  0  0  0  0  0  0  0  0  0
   27.6455  -17.8219  -15.8450 C   0  0  0  0  0  0  0  0  0  0  0  0
   27.7867  -19.1226  -16.6119 C   0  0  1  0  0  0  0  0  0  0  0  0
   27.1426  -20.2591  -15.9332 C   0  0  0  0  0  0  0  0  0  0  0  0
   27.3709  -20.5907  -14.7388 O   0  0  0  0  0  0  0  0  0  0  0  0
   26.2066  -21.0220  -16.6833 N   0  0  0  0  0  0  0  0  0  0  0  0
   25.5152  -22.1853  -16.0982 C   0  0  1  0  0  0  0  0  0  0  0  0
   24.0537  -21.9135  -16.2197 C   0  0  0  0  0  0  0  0  0  0  0  0
   23.4733  -20.9614  -15.2875 C   0  0  0  0  0  0  0  0  0  0  0  0
   22.9791  -21.2889  -14.0369 C   0  0  0  0  0  0  0  0  0  0  0  0
   22.5303  -20.1602  -13.4688 N   0  0  0  0  0  0  0  0  0  0  0  0
   22.7223  -19.1473  -14.3073 C   0  0  0  0  0  0  0  0  0  0  0  0
   23.3060  -19.6440  -15.4327 N   0  0  0  0  0  0  0  0  0  0  0  0
   25.9330  -23.3732  -16.8481 C   0  0  0  0  0  0  0  0  0  0  0  0
   26.0411  -23.2927  -18.1237 O   0  0  0  0  0  0  0  0  0  0  0  0
   26.2502  -24.6440  -16.3122 N   0  0  0  0  0  0  0  0  0  0  0  0
   26.7629  -25.7383  -17.1729 C   0  0  1  0  0  0  0  0  0  0  0  0
   27.1586  -26.8931  -16.2741 C   0  0  0  0  0  0  0  0  0  0  0  0
   27.7720  -28.0029  -17.0399 C   0  0  0  0  0  0  0  0  0  0  0  0
   28.1192  -29.1901  -16.1394 C   0  0  0  0  0  0  0  0  0  0  0  0
   28.7582  -30.3003  -16.9052 C   0  0  0  0  0  0  0  0  0  0  0  0
   29.0968  -31.4178  -16.0293 N   0  0  0  0  0  0  0  0  0  0  0  0
   25.7500  -26.1032  -18.1389 C   0  0  0  0  0  0  0  0  0  0  0  0
   24.4103  -26.1638  -17.7698 O   0  0  0  0  0  0  0  0  0  0  0  0
   26.0841  -26.3735  -19.3377 O   0  0  0  0  0  0  0  0  0  0  0  0
  1  5  1  0
  1  2  1  0
  2  3  1  0
  4  3  1  0
  5  4  1  0
  6  7  2  0
  5  6  1  1
  8  6  1  0
  9  8  1  0
  9 10  1  6
 11 10  1  0
 11 15  1  0
 12 13  1  0
 12 11  2  0
 13 14  1  0
 14 15  2  0
 16  9  1  0
 17 16  2  0
 18 16  1  0
 19 18  1  0
 20 21  1  0
 19 20  1  1
 22 21  1  0
 23 22  1  0
 24 23  1  0
 25 19  1  0
 25 26  1  0
 27 25  2  0
M  END
$$$$
