PHK.pdb
     RDKit          3D

 27 28  0  0  1  0  0  0  0  0999 V2000
   26.5350  -21.5034  -16.8490 N   0  0  0  0  0  0  0  0  0  0  0  0
   27.7424  -21.9064  -17.5313 C   0  0  0  0  0  0  0  0  0  0  0  0
   28.9075  -21.3975  -16.7502 C   0  0  0  0  0  0  0  0  0  0  0  0
   28.2629  -20.5904  -15.6424 C   0  0  0  0  0  0  0  0  0  0  0  0
   26.9464  -21.3256  -15.4800 C   0  0  1  0  0  0  0  0  0  0  0  0
   25.9708  -20.5786  -14.6694 C   0  0  0  0  0  0  0  0  0  0  0  0
   26.1661  -20.2269  -13.4749 O   0  0  0  0  0  0  0  0  0  0  0  0
   24.7349  -20.2390  -15.2844 N   0  0  0  0  0  0  0  0  0  0  0  0
   23.7477  -19.3785  -14.6072 C   0  0  1  0  0  0  0  0  0  0  0  0
   23.5085  -18.2169  -15.5117 C   0  0  0  0  0  0  0  0  0  0  0  0
   24.5101  -17.1637  -15.5227 C   0  0  0  0  0  0  0  0  0  0  0  0
   25.6074  -17.1151  -14.6805 C   0  0  0  0  0  0  0  0  0  0  0  0
   26.3023  -16.0085  -14.9816 N   0  0  0  0  0  0  0  0  0  0  0  0
   25.6886  -15.3676  -15.9708 C   0  0  0  0  0  0  0  0  0  0  0  0
   24.5795  -16.0832  -16.3051 N   0  0  0  0  0  0  0  0  0  0  0  0
   22.5403  -20.1787  -14.3843 C   0  0  0  0  0  0  0  0  0  0  0  0
   22.0796  -20.8851  -15.3507 O   0  0  0  0  0  0  0  0  0  0  0  0
   21.7982  -20.2742  -13.1830 N   0  0  0  0  0  0  0  0  0  0  0  0
   20.5918  -21.1324  -13.0876 C   0  0  1  0  0  0  0  0  0  0  0  0
   20.4663  -21.6037  -11.6522 C   0  0  0  0  0  0  0  0  0  0  0  0
   19.2872  -22.4797  -11.4605 C   0  0  0  0  0  0  0  0  0  0  0  0
   19.2116  -23.0254  -10.0331 C   0  0  0  0  0  0  0  0  0  0  0  0
   17.9817  -23.8421   -9.8147 C   0  0  0  0  0  0  0  0  0  0  0  0
   17.8857  -24.2900   -8.4288 N   0  0  0  0  0  0  0  0  0  0  0  0
   19.4360  -20.3863  -13.5342 C   0  0  0  0  0  0  0  0  0  0  0  0
   18.4010  -21.0238  -14.2103 O   0  0  0  0  0  0  0  0  0  0  0  0
   19.3627  -19.1348  -13.3098 O   0  0  0  0  0  0  0  0  0  0  0  0
  1  5  1  0
  1  2  1  0
  2  3  1  0
  4  3  1  0
  5  4  1  0
  6  7  2  0
  5  6  1  1
  8  6  1  0
  9  8  1  0
  9 10  1  6
 11 10  1  0
 11 15  1  0
 12 13  1  0
 12 11  2  0
 13 14  1  0
 14 15  2  0
 16  9  1  0
 17 16  2  0
 18 16  1  0
 19 18  1  0
 20 21  1  0
 19 20  1  1
 22 21  1  0
 23 22  1  0
 24 23  1  0
 25 19  1  0
 25 26  1  0
 27 25  2  0
M  END
$$$$
