PHK.pdb
     RDKit          3D

 27 28  0  0  1  0  0  0  0  0999 V2000
   26.1092  -21.6809  -15.2603 N   0  0  0  0  0  0  0  0  0  0  0  0
   27.3749  -21.7676  -15.9504 C   0  0  0  0  0  0  0  0  0  0  0  0
   27.8998  -20.3825  -16.1308 C   0  0  0  0  0  0  0  0  0  0  0  0
   26.7862  -19.5108  -15.5884 C   0  0  0  0  0  0  0  0  0  0  0  0
   26.1820  -20.4321  -14.5461 C   0  0  1  0  0  0  0  0  0  0  0  0
   24.8757  -19.9623  -14.0564 C   0  0  0  0  0  0  0  0  0  0  0  0
   24.6974  -18.8679  -13.4571 O   0  0  0  0  0  0  0  0  0  0  0  0
   23.7532  -20.8055  -14.2799 N   0  0  0  0  0  0  0  0  0  0  0  0
   22.3735  -20.2974  -14.1700 C   0  0  1  0  0  0  0  0  0  0  0  0
   21.9325  -19.9687  -15.5564 C   0  0  0  0  0  0  0  0  0  0  0  0
   20.5850  -19.4496  -15.7214 C   0  0  0  0  0  0  0  0  0  0  0  0
   20.1996  -18.1554  -15.4175 C   0  0  0  0  0  0  0  0  0  0  0  0
   18.8934  -18.0433  -15.6994 N   0  0  0  0  0  0  0  0  0  0  0  0
   18.4493  -19.2065  -16.1639 C   0  0  0  0  0  0  0  0  0  0  0  0
   19.4968  -20.0763  -16.1772 N   0  0  0  0  0  0  0  0  0  0  0  0
   21.5609  -21.3497  -13.5534 C   0  0  0  0  0  0  0  0  0  0  0  0
   21.7348  -22.5642  -13.9273 O   0  0  0  0  0  0  0  0  0  0  0  0
   20.5752  -21.1803  -12.5521 N   0  0  0  0  0  0  0  0  0  0  0  0
   19.8236  -22.3369  -12.0058 C   0  0  1  0  0  0  0  0  0  0  0  0
   19.0500  -21.8602  -10.7924 C   0  0  0  0  0  0  0  0  0  0  0  0
   18.2592  -22.9521  -10.1786 C   0  0  0  0  0  0  0  0  0  0  0  0
   19.0316  -23.6520   -9.0585 C   0  0  0  0  0  0  0  0  0  0  0  0
   18.2093  -24.7015   -8.3880 C   0  0  0  0  0  0  0  0  0  0  0  0
   18.9298  -25.3002   -7.2686 N   0  0  0  0  0  0  0  0  0  0  0  0
   18.9672  -22.8822  -13.0361 C   0  0  0  0  0  0  0  0  0  0  0  0
   18.1346  -22.0500  -13.7770 O   0  0  0  0  0  0  0  0  0  0  0  0
   18.9718  -24.1343  -13.2685 O   0  0  0  0  0  0  0  0  0  0  0  0
  1  5  1  0
  1  2  1  0
  2  3  1  0
  4  3  1  0
  5  4  1  0
  6  7  2  0
  5  6  1  6
  8  6  1  0
  9  8  1  0
  9 10  1  6
 11 10  1  0
 11 15  1  0
 12 13  1  0
 12 11  2  0
 13 14  1  0
 14 15  2  0
 16  9  1  0
 17 16  2  0
 18 16  1  0
 19 18  1  0
 20 21  1  0
 19 20  1  1
 22 21  1  0
 23 22  1  0
 24 23  1  0
 25 19  1  0
 25 26  1  0
 27 25  2  0
M  END
$$$$
