PHK.pdb
     RDKit          3D

 27 28  0  0  1  0  0  0  0  0999 V2000
   21.8674  -11.4856  -18.6050 N   0  0  0  0  0  0  0  0  0  0  0  0
   22.2036  -12.5075  -19.5686 C   0  0  0  0  0  0  0  0  0  0  0  0
   21.0394  -12.6802  -20.4857 C   0  0  0  0  0  0  0  0  0  0  0  0
   19.9899  -11.7589  -19.8993 C   0  0  0  0  0  0  0  0  0  0  0  0
   20.8641  -10.6926  -19.2679 C   0  0  1  0  0  0  0  0  0  0  0  0
   20.1198   -9.8101  -18.3546 C   0  0  0  0  0  0  0  0  0  0  0  0
   19.1467   -9.0896  -18.7047 O   0  0  0  0  0  0  0  0  0  0  0  0
   20.5348   -9.7779  -16.9953 N   0  0  0  0  0  0  0  0  0  0  0  0
   19.8178   -8.9733  -15.9893 C   0  0  1  0  0  0  0  0  0  0  0  0
   19.5557   -9.8783  -14.8330 C   0  0  0  0  0  0  0  0  0  0  0  0
   18.3686  -10.7144  -14.8971 C   0  0  0  0  0  0  0  0  0  0  0  0
   17.4605  -10.7097  -15.9417 C   0  0  0  0  0  0  0  0  0  0  0  0
   16.5049  -11.6052  -15.6537 N   0  0  0  0  0  0  0  0  0  0  0  0
   16.7763  -12.1658  -14.4798 C   0  0  0  0  0  0  0  0  0  0  0  0
   17.9299  -11.6138  -14.0121 N   0  0  0  0  0  0  0  0  0  0  0  0
   20.6752   -7.8386  -15.6353 C   0  0  0  0  0  0  0  0  0  0  0  0
   21.9209   -8.0500  -15.4152 O   0  0  0  0  0  0  0  0  0  0  0  0
   20.2792   -6.4857  -15.5097 N   0  0  0  0  0  0  0  0  0  0  0  0
   21.2712   -5.4118  -15.2574 C   0  0  1  0  0  0  0  0  0  0  0  0
   20.6172   -4.0847  -15.5883 C   0  0  0  0  0  0  0  0  0  0  0  0
   21.5238   -2.9428  -15.3267 C   0  0  0  0  0  0  0  0  0  0  0  0
   20.8792   -1.6079  -15.7057 C   0  0  0  0  0  0  0  0  0  0  0  0
   21.8335   -0.4694  -15.5629 C   0  0  0  0  0  0  0  0  0  0  0  0
   21.2214    0.7872  -15.9833 N   0  0  0  0  0  0  0  0  0  0  0  0
   21.7206   -5.4868  -13.8846 C   0  0  0  0  0  0  0  0  0  0  0  0
   20.9210   -6.0747  -12.9101 O   0  0  0  0  0  0  0  0  0  0  0  0
   22.8566   -5.0103  -13.5616 O   0  0  0  0  0  0  0  0  0  0  0  0
  1  5  1  0
  1  2  1  0
  2  3  1  0
  4  3  1  0
  5  4  1  0
  6  7  2  0
  5  6  1  1
  8  6  1  0
  9  8  1  0
  9 10  1  1
 11 10  1  0
 11 15  1  0
 12 13  1  0
 12 11  2  0
 13 14  1  0
 14 15  2  0
 16  9  1  0
 17 16  2  0
 18 16  1  0
 19 18  1  0
 20 21  1  0
 19 20  1  1
 22 21  1  0
 23 22  1  0
 24 23  1  0
 25 19  1  0
 25 26  1  0
 27 25  2  0
M  END
$$$$
