PHK.pdb
     RDKit          3D

 27 28  0  0  1  0  0  0  0  0999 V2000
   19.8098  -11.2886  -18.5237 N   0  0  0  0  0  0  0  0  0  0  0  0
   19.0049  -12.2924  -19.1794 C   0  0  0  0  0  0  0  0  0  0  0  0
   18.7197  -13.3746  -18.1924 C   0  0  0  0  0  0  0  0  0  0  0  0
   19.5125  -12.9554  -16.9718 C   0  0  0  0  0  0  0  0  0  0  0  0
   19.5006  -11.4467  -17.1257 C   0  0  1  0  0  0  0  0  0  0  0  0
   20.4605  -10.7737  -16.2355 C   0  0  0  0  0  0  0  0  0  0  0  0
   20.4074  -10.8167  -14.9770 O   0  0  0  0  0  0  0  0  0  0  0  0
   21.5082  -10.0321  -16.8465 N   0  0  0  0  0  0  0  0  0  0  0  0
   22.5216   -9.3241  -16.0431 C   0  0  1  0  0  0  0  0  0  0  0  0
   23.8383   -9.5963  -16.6884 C   0  0  0  0  0  0  0  0  0  0  0  0
   24.3666  -10.9461  -16.5810 C   0  0  0  0  0  0  0  0  0  0  0  0
   24.8253  -11.5185  -15.4073 C   0  0  0  0  0  0  0  0  0  0  0  0
   25.2305  -12.7642  -15.6938 N   0  0  0  0  0  0  0  0  0  0  0  0
   25.0453  -12.9926  -16.9898 C   0  0  0  0  0  0  0  0  0  0  0  0
   24.5106  -11.8668  -17.5382 N   0  0  0  0  0  0  0  0  0  0  0  0
   22.1748   -7.9001  -16.0461 C   0  0  0  0  0  0  0  0  0  0  0  0
   21.7711   -7.3644  -17.1394 O   0  0  0  0  0  0  0  0  0  0  0  0
   22.2273   -7.0140  -14.9439 N   0  0  0  0  0  0  0  0  0  0  0  0
   21.7043   -5.6291  -15.0417 C   0  0  1  0  0  0  0  0  0  0  0  0
   20.2216   -5.7103  -15.3470 C   0  0  0  0  0  0  0  0  0  0  0  0
   19.5936   -4.3694  -15.3918 C   0  0  0  0  0  0  0  0  0  0  0  0
   18.0866   -4.4565  -15.6415 C   0  0  0  0  0  0  0  0  0  0  0  0
   17.4663   -3.1056  -15.7746 C   0  0  0  0  0  0  0  0  0  0  0  0
   16.0764   -3.2046  -16.2092 N   0  0  0  0  0  0  0  0  0  0  0  0
   21.9839   -4.9228  -13.8108 C   0  0  0  0  0  0  0  0  0  0  0  0
   22.0737   -3.5349  -13.7968 O   0  0  0  0  0  0  0  0  0  0  0  0
   22.1514   -5.5741  -12.7292 O   0  0  0  0  0  0  0  0  0  0  0  0
  1  5  1  0
  1  2  1  0
  2  3  1  0
  4  3  1  0
  5  4  1  0
  6  7  2  0
  5  6  1  1
  8  6  1  0
  9  8  1  0
  9 10  1  6
 11 10  1  0
 11 15  1  0
 12 13  1  0
 12 11  2  0
 13 14  1  0
 14 15  2  0
 16  9  1  0
 17 16  2  0
 18 16  1  0
 19 18  1  0
 20 21  1  0
 19 20  1  1
 22 21  1  0
 23 22  1  0
 24 23  1  0
 25 19  1  0
 25 26  1  0
 27 25  2  0
M  END
$$$$
