PHK.pdb
     RDKit          3D

 27 28  0  0  1  0  0  0  0  0999 V2000
   20.7327  -13.8568  -18.2313 N   0  0  0  0  0  0  0  0  0  0  0  0
   20.4707  -15.2692  -18.3798 C   0  0  0  0  0  0  0  0  0  0  0  0
   21.3125  -15.7810  -19.5005 C   0  0  0  0  0  0  0  0  0  0  0  0
   21.9820  -14.5324  -20.0363 C   0  0  0  0  0  0  0  0  0  0  0  0
   22.0526  -13.6834  -18.7816 C   0  0  1  0  0  0  0  0  0  0  0  0
   22.3889  -12.2777  -19.0608 C   0  0  0  0  0  0  0  0  0  0  0  0
   23.5629  -11.8191  -19.0639 O   0  0  0  0  0  0  0  0  0  0  0  0
   21.3128  -11.3927  -19.3430 N   0  0  0  0  0  0  0  0  0  0  0  0
   21.5498   -9.9920  -19.7371 C   0  0  1  0  0  0  0  0  0  0  0  0
   20.8910   -9.8085  -21.0626 C   0  0  0  0  0  0  0  0  0  0  0  0
   21.5841  -10.3296  -22.2290 C   0  0  0  0  0  0  0  0  0  0  0  0
   22.5942   -9.6658  -22.9034 C   0  0  0  0  0  0  0  0  0  0  0  0
   22.9899  -10.4498  -23.9168 N   0  0  0  0  0  0  0  0  0  0  0  0
   22.2735  -11.5690  -23.9036 C   0  0  0  0  0  0  0  0  0  0  0  0
   21.4037  -11.4938  -22.8588 N   0  0  0  0  0  0  0  0  0  0  0  0
   20.9743   -9.1348  -18.6969 C   0  0  0  0  0  0  0  0  0  0  0  0
   19.7182   -9.2188  -18.4516 O   0  0  0  0  0  0  0  0  0  0  0  0
   21.6663   -8.1954  -17.8959 N   0  0  0  0  0  0  0  0  0  0  0  0
   20.9645   -7.4017  -16.8574 C   0  0  1  0  0  0  0  0  0  0  0  0
   20.8302   -8.2667  -15.6197 C   0  0  0  0  0  0  0  0  0  0  0  0
   20.1258   -7.5586  -14.5258 C   0  0  0  0  0  0  0  0  0  0  0  0
   19.9005   -8.4661  -13.3147 C   0  0  0  0  0  0  0  0  0  0  0  0
   19.0185   -7.8247  -12.2959 C   0  0  0  0  0  0  0  0  0  0  0  0
   18.6499   -8.7709  -11.2474 N   0  0  0  0  0  0  0  0  0  0  0  0
   21.6991   -6.1807  -16.6091 C   0  0  0  0  0  0  0  0  0  0  0  0
   23.0079   -6.0393  -17.0584 O   0  0  0  0  0  0  0  0  0  0  0  0
   21.1468   -5.2257  -15.9729 O   0  0  0  0  0  0  0  0  0  0  0  0
  1  5  1  0
  1  2  1  0
  2  3  1  0
  4  3  1  0
  5  4  1  0
  6  7  2  0
  5  6  1  6
  8  6  1  0
  9  8  1  0
  9 10  1  6
 11 10  1  0
 11 15  1  0
 12 13  1  0
 12 11  2  0
 13 14  1  0
 14 15  2  0
 16  9  1  0
 17 16  2  0
 18 16  1  0
 19 18  1  0
 20 21  1  0
 19 20  1  1
 22 21  1  0
 23 22  1  0
 24 23  1  0
 25 19  1  0
 25 26  1  0
 27 25  2  0
M  END
$$$$
