PHK.pdb
     RDKit          3D

 27 28  0  0  1  0  0  0  0  0999 V2000
   23.9443   -0.2021   -1.3252 N   0  0  0  0  0  0  0  0  0  0  0  0
   23.9020   -1.0642   -0.1674 C   0  0  0  0  0  0  0  0  0  0  0  0
   25.3054   -1.3243    0.2678 C   0  0  0  0  0  0  0  0  0  0  0  0
   26.1366   -0.6339   -0.7937 C   0  0  0  0  0  0  0  0  0  0  0  0
   25.2029    0.4882   -1.2049 C   0  0  1  0  0  0  0  0  0  0  0  0
   25.6240    1.1557   -2.4475 C   0  0  0  0  0  0  0  0  0  0  0  0
   26.6704    1.8496   -2.5574 O   0  0  0  0  0  0  0  0  0  0  0  0
   24.7890    0.9999   -3.5874 N   0  0  0  0  0  0  0  0  0  0  0  0
   25.0727    1.7021   -4.8524 C   0  0  1  0  0  0  0  0  0  0  0  0
   24.9946    0.6760   -5.9320 C   0  0  0  0  0  0  0  0  0  0  0  0
   25.2770    1.1138   -7.2889 C   0  0  0  0  0  0  0  0  0  0  0  0
   25.6175    2.4083   -7.6413 C   0  0  0  0  0  0  0  0  0  0  0  0
   25.8042    2.4325   -8.9689 N   0  0  0  0  0  0  0  0  0  0  0  0
   25.5958    1.2145   -9.4578 C   0  0  0  0  0  0  0  0  0  0  0  0
   25.2695    0.3990   -8.4174 N   0  0  0  0  0  0  0  0  0  0  0  0
   24.0713    2.7611   -5.0063 C   0  0  0  0  0  0  0  0  0  0  0  0
   22.8900    2.5666   -4.5460 O   0  0  0  0  0  0  0  0  0  0  0  0
   24.2612    4.0227   -5.6187 N   0  0  0  0  0  0  0  0  0  0  0  0
   23.1473    4.9945   -5.7452 C   0  0  1  0  0  0  0  0  0  0  0  0
   23.1414    5.8625   -4.5023 C   0  0  0  0  0  0  0  0  0  0  0  0
   22.0587    6.8727   -4.5403 C   0  0  0  0  0  0  0  0  0  0  0  0
   22.0148    7.7063   -3.2581 C   0  0  0  0  0  0  0  0  0  0  0  0
   20.8290    8.6119   -3.2242 C   0  0  0  0  0  0  0  0  0  0  0  0
   20.8062    9.4045   -1.9987 N   0  0  0  0  0  0  0  0  0  0  0  0
   23.3144    5.7600   -6.9610 C   0  0  0  0  0  0  0  0  0  0  0  0
   24.4977    5.6827   -7.6880 O   0  0  0  0  0  0  0  0  0  0  0  0
   22.3731    6.5132   -7.3714 O   0  0  0  0  0  0  0  0  0  0  0  0
  1  5  1  0
  1  2  1  0
  2  3  1  0
  4  3  1  0
  5  4  1  0
  6  7  2  0
  5  6  1  6
  8  6  1  0
  9  8  1  0
  9 10  1  6
 11 10  1  0
 11 15  1  0
 12 13  1  0
 12 11  2  0
 13 14  1  0
 14 15  2  0
 16  9  1  0
 17 16  2  0
 18 16  1  0
 19 18  1  0
 20 21  1  0
 19 20  1  1
 22 21  1  0
 23 22  1  0
 24 23  1  0
 25 19  1  0
 25 26  1  0
 27 25  2  0
M  END
$$$$
