PHK.pdb
     RDKit          3D

 27 28  0  0  1  0  0  0  0  0999 V2000
   25.8176  -21.5761  -15.2313 N   0  0  0  0  0  0  0  0  0  0  0  0
   27.1745  -21.6008  -15.7251 C   0  0  0  0  0  0  0  0  0  0  0  0
   27.8871  -20.4081  -15.1810 C   0  0  0  0  0  0  0  0  0  0  0  0
   26.8015  -19.6591  -14.4362 C   0  0  0  0  0  0  0  0  0  0  0  0
   25.8980  -20.8032  -14.0183 C   0  0  1  0  0  0  0  0  0  0  0  0
   24.5870  -20.3468  -13.5287 C   0  0  0  0  0  0  0  0  0  0  0  0
   24.4321  -19.4934  -12.6141 O   0  0  0  0  0  0  0  0  0  0  0  0
   23.4314  -20.9118  -14.1337 N   0  0  0  0  0  0  0  0  0  0  0  0
   22.0759  -20.4404  -13.7961 C   0  0  1  0  0  0  0  0  0  0  0  0
   21.5020  -19.8709  -15.0494 C   0  0  0  0  0  0  0  0  0  0  0  0
   22.0381  -18.6011  -15.5107 C   0  0  0  0  0  0  0  0  0  0  0  0
   21.5974  -17.3609  -15.0822 C   0  0  0  0  0  0  0  0  0  0  0  0
   22.3216  -16.4296  -15.7197 N   0  0  0  0  0  0  0  0  0  0  0  0
   23.1910  -17.0326  -16.5238 C   0  0  0  0  0  0  0  0  0  0  0  0
   23.0149  -18.3765  -16.3939 N   0  0  0  0  0  0  0  0  0  0  0  0
   21.3166  -21.5914  -13.2995 C   0  0  0  0  0  0  0  0  0  0  0  0
   21.3571  -22.6903  -13.9597 O   0  0  0  0  0  0  0  0  0  0  0  0
   20.5199  -21.6390  -12.1307 N   0  0  0  0  0  0  0  0  0  0  0  0
   19.7991  -22.8749  -11.7382 C   0  0  1  0  0  0  0  0  0  0  0  0
   19.6012  -22.8429  -10.2355 C   0  0  0  0  0  0  0  0  0  0  0  0
   18.8694  -24.0359   -9.7501 C   0  0  0  0  0  0  0  0  0  0  0  0
   18.8063  -24.0803   -8.2221 C   0  0  0  0  0  0  0  0  0  0  0  0
   18.0473  -25.2680   -7.7314 C   0  0  0  0  0  0  0  0  0  0  0  0
   18.1166  -25.3736   -6.2772 N   0  0  0  0  0  0  0  0  0  0  0  0
   18.5510  -22.9535  -12.4650 C   0  0  0  0  0  0  0  0  0  0  0  0
   18.0569  -24.1821  -12.8906 O   0  0  0  0  0  0  0  0  0  0  0  0
   17.8972  -21.8909  -12.7205 O   0  0  0  0  0  0  0  0  0  0  0  0
  1  5  1  0
  1  2  1  0
  2  3  1  0
  4  3  1  0
  5  4  1  0
  6  7  2  0
  5  6  1  6
  8  6  1  0
  9  8  1  0
  9 10  1  6
 11 10  1  0
 11 15  1  0
 12 13  1  0
 12 11  2  0
 13 14  1  0
 14 15  2  0
 16  9  1  0
 17 16  2  0
 18 16  1  0
 19 18  1  0
 20 21  1  0
 19 20  1  1
 22 21  1  0
 23 22  1  0
 24 23  1  0
 25 19  1  0
 25 26  1  0
 27 25  2  0
M  END
$$$$
