PHK.pdb
     RDKit          3D

 27 28  0  0  1  0  0  0  0  0999 V2000
   27.8575  -21.7996  -16.7697 N   0  0  0  0  0  0  0  0  0  0  0  0
   28.9514  -22.5063  -17.3939 C   0  0  0  0  0  0  0  0  0  0  0  0
   29.6536  -21.5585  -18.3078 C   0  0  0  0  0  0  0  0  0  0  0  0
   28.8085  -20.3039  -18.2304 C   0  0  0  0  0  0  0  0  0  0  0  0
   28.2557  -20.4162  -16.8226 C   0  0  1  0  0  0  0  0  0  0  0  0
   27.1492  -19.4798  -16.5666 C   0  0  0  0  0  0  0  0  0  0  0  0
   27.2465  -18.2270  -16.6648 O   0  0  0  0  0  0  0  0  0  0  0  0
   25.8979  -20.0365  -16.1854 N   0  0  0  0  0  0  0  0  0  0  0  0
   24.6979  -19.1957  -16.0221 C   0  0  1  0  0  0  0  0  0  0  0  0
   24.3026  -18.7530  -17.3904 C   0  0  0  0  0  0  0  0  0  0  0  0
   23.0840  -17.9701  -17.5113 C   0  0  0  0  0  0  0  0  0  0  0  0
   22.7713  -16.8775  -16.7213 C   0  0  0  0  0  0  0  0  0  0  0  0
   21.5783  -16.4143  -17.1218 N   0  0  0  0  0  0  0  0  0  0  0  0
   21.1354  -17.1674  -18.1231 C   0  0  0  0  0  0  0  0  0  0  0  0
   22.0678  -18.1301  -18.3635 N   0  0  0  0  0  0  0  0  0  0  0  0
   23.6685  -20.0127  -15.3735 C   0  0  0  0  0  0  0  0  0  0  0  0
   23.4280  -21.1851  -15.8349 O   0  0  0  0  0  0  0  0  0  0  0  0
   22.8837  -19.6519  -14.2524 N   0  0  0  0  0  0  0  0  0  0  0  0
   21.8625  -20.5736  -13.6967 C   0  0  1  0  0  0  0  0  0  0  0  0
   21.6851  -20.2432  -12.2278 C   0  0  0  0  0  0  0  0  0  0  0  0
   22.7834  -20.7960  -11.4017 C   0  0  0  0  0  0  0  0  0  0  0  0
   22.6405  -20.4020   -9.9302 C   0  0  0  0  0  0  0  0  0  0  0  0
   23.7394  -20.9682   -9.0940 C   0  0  0  0  0  0  0  0  0  0  0  0
   23.5566  -20.6316   -7.6855 N   0  0  0  0  0  0  0  0  0  0  0  0
   20.6358  -20.4415  -14.4516 C   0  0  0  0  0  0  0  0  0  0  0  0
   19.7543  -21.5119  -14.5611 O   0  0  0  0  0  0  0  0  0  0  0  0
   20.3580  -19.3380  -15.0235 O   0  0  0  0  0  0  0  0  0  0  0  0
  1  5  1  0
  1  2  1  0
  2  3  1  0
  4  3  1  0
  5  4  1  0
  6  7  2  0
  5  6  1  6
  8  6  1  0
  9  8  1  0
  9 10  1  6
 11 10  1  0
 11 15  1  0
 12 13  1  0
 12 11  2  0
 13 14  1  0
 14 15  2  0
 16  9  1  0
 17 16  2  0
 18 16  1  0
 19 18  1  0
 20 21  1  0
 19 20  1  1
 22 21  1  0
 23 22  1  0
 24 23  1  0
 25 19  1  0
 25 26  1  0
 27 25  2  0
M  END
$$$$
