HQK.pdb
     RDKit          3D

 29 29  0  0  1  0  0  0  0  0999 V2000
   28.1330  -20.7131  -15.4838 N   0  0  0  0  0  0  0  0  0  0  0  0
   27.0325  -19.7799  -15.3646 C   0  0  1  0  0  0  0  0  0  0  0  0
   26.5854  -19.4497  -16.7962 C   0  0  0  0  0  0  0  0  0  0  0  0
   27.6480  -18.7008  -17.4639 C   0  0  0  0  0  0  0  0  0  0  0  0
   28.3033  -19.0876  -18.6130 C   0  0  0  0  0  0  0  0  0  0  0  0
   29.2144  -18.1243  -18.9064 N   0  0  0  0  0  0  0  0  0  0  0  0
   29.1394  -17.1645  -17.9795 C   0  0  0  0  0  0  0  0  0  0  0  0
   28.1829  -17.5344  -17.1142 N   0  0  0  0  0  0  0  0  0  0  0  0
   25.8949  -20.4721  -14.7323 C   0  0  0  0  0  0  0  0  0  0  0  0
   25.1648  -21.2026  -15.4394 O   0  0  0  0  0  0  0  0  0  0  0  0
   25.1807  -20.9782   -8.6241 N   0  0  0  0  0  0  0  0  0  0  0  0
   26.3173  -21.2999   -9.3997 C   0  0  0  0  0  0  0  0  0  0  0  0
   27.4387  -21.4261   -8.8552 O   0  0  0  0  0  0  0  0  0  0  0  0
   26.1950  -21.4956  -10.8932 C   0  0  0  0  0  0  0  0  0  0  0  0
   24.8370  -21.0640  -11.2906 C   0  0  0  0  0  0  0  0  0  0  0  0
   24.5080  -21.0045  -12.7332 C   0  0  2  0  0  0  0  0  0  0  0  0
   25.6460  -20.3079  -13.3675 N   0  0  0  0  0  0  0  0  0  0  0  0
   23.3264  -20.2041  -13.0836 C   0  0  0  0  0  0  0  0  0  0  0  0
   23.4294  -19.0712  -13.6831 O   0  0  0  0  0  0  0  0  0  0  0  0
   22.0340  -20.6493  -12.7823 N   0  0  0  0  0  0  0  0  0  0  0  0
   20.8400  -20.2214  -13.5085 C   0  0  1  0  0  0  0  0  0  0  0  0
   21.1300  -20.2836  -14.9646 C   0  0  0  0  0  0  0  0  0  0  0  0
   20.0496  -19.9302  -15.9084 C   0  0  0  0  0  0  0  0  0  0  0  0
   20.4418  -20.0334  -17.3579 C   0  0  0  0  0  0  0  0  0  0  0  0
   19.1583  -19.6946  -18.1489 C   0  0  0  0  0  0  0  0  0  0  0  0
   19.4478  -19.7887  -19.5512 N   0  0  0  0  0  0  0  0  0  0  0  0
   19.6743  -20.9293  -13.0226 C   0  0  0  0  0  0  0  0  0  0  0  0
   19.7403  -22.1894  -12.8602 O   0  0  0  0  0  0  0  0  0  0  0  0
   18.4720  -20.3309  -12.7180 O   0  0  0  0  0  0  0  0  0  0  0  0
  2  1  1  6
  2  9  1  0
  3  2  1  0
  3  4  1  0
  4  5  2  0
  5  6  1  0
  7  6  1  0
  8  4  1  0
  8  7  2  0
  9 17  1  0
  9 10  2  0
 11 12  1  0
 12 14  1  0
 13 12  2  0
 14 15  1  0
 16 15  1  1
 16 18  1  0
 17 16  1  0
 18 19  2  0
 20 21  1  0
 20 18  1  0
 21 22  1  6
 23 22  1  0
 24 25  1  0
 24 23  1  0
 26 25  1  0
 27 21  1  0
 27 29  1  0
 28 27  2  0
M  END
$$$$
