HQK.pdb
     RDKit          3D

 29 29  0  0  1  0  0  0  0  0999 V2000
   18.9828  -29.0067  -11.9913 N   0  0  0  0  0  0  0  0  0  0  0  0
   19.9662  -28.9032  -10.9337 C   0  0  1  0  0  0  0  0  0  0  0  0
   19.3948  -27.9181   -9.9035 C   0  0  0  0  0  0  0  0  0  0  0  0
   19.4206  -26.5714  -10.4703 C   0  0  0  0  0  0  0  0  0  0  0  0
   19.9482  -26.2255  -11.6957 C   0  0  0  0  0  0  0  0  0  0  0  0
   19.7766  -24.8873  -11.8502 N   0  0  0  0  0  0  0  0  0  0  0  0
   19.1642  -24.4039  -10.7651 C   0  0  0  0  0  0  0  0  0  0  0  0
   18.9576  -25.4424   -9.9410 N   0  0  0  0  0  0  0  0  0  0  0  0
   20.0568  -30.2042  -10.2463 C   0  0  0  0  0  0  0  0  0  0  0  0
   19.0065  -30.8546  -10.0454 O   0  0  0  0  0  0  0  0  0  0  0  0
   25.2696  -33.2973   -9.9629 N   0  0  0  0  0  0  0  0  0  0  0  0
   25.1462  -32.5313   -8.7818 C   0  0  0  0  0  0  0  0  0  0  0  0
   26.1497  -32.3085   -8.0654 O   0  0  0  0  0  0  0  0  0  0  0  0
   23.8045  -31.9720   -8.3684 C   0  0  0  0  0  0  0  0  0  0  0  0
   22.8038  -32.4369   -9.3537 C   0  0  0  0  0  0  0  0  0  0  0  0
   21.3945  -32.0158   -9.1825 C   0  0  2  0  0  0  0  0  0  0  0  0
   21.2983  -30.6919   -9.8311 N   0  0  0  0  0  0  0  0  0  0  0  0
   20.9608  -31.7946   -7.7959 C   0  0  0  0  0  0  0  0  0  0  0  0
   21.0710  -30.6469   -7.2268 O   0  0  0  0  0  0  0  0  0  0  0  0
   20.4012  -32.8297   -7.0377 N   0  0  0  0  0  0  0  0  0  0  0  0
   19.8631  -32.6477   -5.6910 C   0  0  1  0  0  0  0  0  0  0  0  0
   18.7137  -33.5733   -5.5169 C   0  0  0  0  0  0  0  0  0  0  0  0
   17.9559  -33.5164   -4.2499 C   0  0  0  0  0  0  0  0  0  0  0  0
   16.9050  -34.5854   -4.1139 C   0  0  0  0  0  0  0  0  0  0  0  0
   16.2679  -34.3513   -2.7257 C   0  0  0  0  0  0  0  0  0  0  0  0
   15.1659  -35.2572   -2.5704 N   0  0  0  0  0  0  0  0  0  0  0  0
   20.9277  -32.7034   -4.7115 C   0  0  0  0  0  0  0  0  0  0  0  0
   22.0067  -33.3096   -5.0060 O   0  0  0  0  0  0  0  0  0  0  0  0
   20.8602  -32.1402   -3.4566 O   0  0  0  0  0  0  0  0  0  0  0  0
  2  1  1  6
  2  9  1  0
  3  2  1  0
  3  4  1  0
  4  5  2  0
  5  6  1  0
  7  6  1  0
  8  4  1  0
  8  7  2  0
  9 17  1  0
  9 10  2  0
 11 12  1  0
 12 14  1  0
 13 12  2  0
 14 15  1  0
 16 15  1  1
 16 18  1  0
 17 16  1  0
 18 19  2  0
 20 21  1  0
 20 18  1  0
 21 22  1  1
 23 22  1  0
 24 25  1  0
 24 23  1  0
 26 25  1  0
 27 21  1  0
 27 29  1  0
 28 27  2  0
M  END
$$$$
