HQK.pdb
     RDKit          3D

 29 29  0  0  1  0  0  0  0  0999 V2000
   28.2491  -23.2508  -16.6586 N   0  0  0  0  0  0  0  0  0  0  0  0
   27.5815  -21.9782  -16.4825 C   0  0  1  0  0  0  0  0  0  0  0  0
   26.8100  -21.7083  -17.7825 C   0  0  0  0  0  0  0  0  0  0  0  0
   27.7540  -21.2859  -18.8151 C   0  0  0  0  0  0  0  0  0  0  0  0
   28.2745  -20.0176  -18.9574 C   0  0  0  0  0  0  0  0  0  0  0  0
   29.1073  -20.0369  -20.0298 N   0  0  0  0  0  0  0  0  0  0  0  0
   29.1145  -21.2692  -20.5469 C   0  0  0  0  0  0  0  0  0  0  0  0
   28.2869  -22.0107  -19.7948 N   0  0  0  0  0  0  0  0  0  0  0  0
   26.5625  -22.1233  -15.4271 C   0  0  0  0  0  0  0  0  0  0  0  0
   26.0468  -23.2478  -15.2372 O   0  0  0  0  0  0  0  0  0  0  0  0
   26.1197  -22.2660  -10.6834 N   0  0  0  0  0  0  0  0  0  0  0  0
   25.1612  -21.2818  -10.3522 C   0  0  0  0  0  0  0  0  0  0  0  0
   24.4727  -21.3954   -9.3116 O   0  0  0  0  0  0  0  0  0  0  0  0
   24.9548  -20.0818  -11.2473 C   0  0  0  0  0  0  0  0  0  0  0  0
   25.7757  -20.2836  -12.4614 C   0  0  0  0  0  0  0  0  0  0  0  0
   25.2662  -21.1888  -13.5168 C   0  0  2  0  0  0  0  0  0  0  0  0
   26.1873  -21.0183  -14.6592 N   0  0  0  0  0  0  0  0  0  0  0  0
   23.9350  -20.8619  -14.0469 C   0  0  0  0  0  0  0  0  0  0  0  0
   23.7206  -19.7909  -14.7252 O   0  0  0  0  0  0  0  0  0  0  0  0
   22.8430  -21.7123  -13.8382 N   0  0  0  0  0  0  0  0  0  0  0  0
   21.4803  -21.4004  -14.2650 C   0  0  1  0  0  0  0  0  0  0  0  0
   20.6413  -22.6122  -14.0755 C   0  0  0  0  0  0  0  0  0  0  0  0
   19.1962  -22.5146  -14.3672 C   0  0  0  0  0  0  0  0  0  0  0  0
   18.4362  -23.7942  -14.1426 C   0  0  0  0  0  0  0  0  0  0  0  0
   16.9620  -23.4480  -14.4504 C   0  0  0  0  0  0  0  0  0  0  0  0
   16.1843  -24.6513  -14.3718 N   0  0  0  0  0  0  0  0  0  0  0  0
   21.0311  -20.1672  -13.6542 C   0  0  0  0  0  0  0  0  0  0  0  0
   21.3935  -19.8996  -12.4644 O   0  0  0  0  0  0  0  0  0  0  0  0
   20.2216  -19.2418  -14.2746 O   0  0  0  0  0  0  0  0  0  0  0  0
  2  1  1  6
  2  9  1  0
  3  2  1  0
  3  4  1  0
  4  5  2  0
  5  6  1  0
  7  6  1  0
  8  4  1  0
  8  7  2  0
  9 17  1  0
  9 10  2  0
 11 12  1  0
 12 14  1  0
 13 12  2  0
 14 15  1  0
 16 15  1  1
 16 18  1  0
 17 16  1  0
 18 19  2  0
 20 21  1  0
 20 18  1  0
 21 22  1  1
 23 22  1  0
 24 25  1  0
 24 23  1  0
 26 25  1  0
 27 21  1  0
 27 29  1  0
 28 27  2  0
M  END
$$$$
