HQK.pdb
     RDKit          3D

 29 29  0  0  1  0  0  0  0  0999 V2000
   27.6958  -22.4821  -16.4820 N   0  0  0  0  0  0  0  0  0  0  0  0
   27.3522  -21.2314  -15.8387 C   0  0  1  0  0  0  0  0  0  0  0  0
   26.7058  -20.3505  -16.9178 C   0  0  0  0  0  0  0  0  0  0  0  0
   27.7602  -19.7116  -17.7025 C   0  0  0  0  0  0  0  0  0  0  0  0
   29.1149  -19.8439  -17.4859 C   0  0  0  0  0  0  0  0  0  0  0  0
   29.7524  -19.0969  -18.4239 N   0  0  0  0  0  0  0  0  0  0  0  0
   28.8375  -18.5139  -19.2044 C   0  0  0  0  0  0  0  0  0  0  0  0
   27.6359  -18.9003  -18.7492 N   0  0  0  0  0  0  0  0  0  0  0  0
   26.2994  -21.4897  -14.8397 C   0  0  0  0  0  0  0  0  0  0  0  0
   25.6576  -22.5623  -14.9033 O   0  0  0  0  0  0  0  0  0  0  0  0
   24.0493  -20.8024   -9.4237 N   0  0  0  0  0  0  0  0  0  0  0  0
   25.4110  -21.1788   -9.4542 C   0  0  0  0  0  0  0  0  0  0  0  0
   25.9143  -21.8077   -8.4945 O   0  0  0  0  0  0  0  0  0  0  0  0
   26.2762  -20.8283  -10.6427 C   0  0  0  0  0  0  0  0  0  0  0  0
   25.4287  -20.1016  -11.6133 C   0  0  0  0  0  0  0  0  0  0  0  0
   24.9858  -20.8112  -12.8353 C   0  0  2  0  0  0  0  0  0  0  0  0
   26.0318  -20.5465  -13.8444 N   0  0  0  0  0  0  0  0  0  0  0  0
   23.7391  -20.3205  -13.4391 C   0  0  0  0  0  0  0  0  0  0  0  0
   23.6977  -19.2256  -14.1119 O   0  0  0  0  0  0  0  0  0  0  0  0
   22.5416  -21.0337  -13.3101 N   0  0  0  0  0  0  0  0  0  0  0  0
   21.2774  -20.6091  -13.9082 C   0  0  1  0  0  0  0  0  0  0  0  0
   20.5015  -21.8224  -14.2741 C   0  0  0  0  0  0  0  0  0  0  0  0
   19.2109  -21.6433  -14.9708 C   0  0  0  0  0  0  0  0  0  0  0  0
   18.5550  -22.9316  -15.3901 C   0  0  0  0  0  0  0  0  0  0  0  0
   17.2584  -22.5073  -16.1158 C   0  0  0  0  0  0  0  0  0  0  0  0
   16.6716  -23.6694  -16.7193 N   0  0  0  0  0  0  0  0  0  0  0  0
   20.6299  -19.6223  -13.0698 C   0  0  0  0  0  0  0  0  0  0  0  0
   20.8455  -19.6401  -11.8161 O   0  0  0  0  0  0  0  0  0  0  0  0
   19.7778  -18.6454  -13.5346 O   0  0  0  0  0  0  0  0  0  0  0  0
  2  1  1  6
  2  9  1  0
  3  2  1  0
  3  4  1  0
  4  5  2  0
  5  6  1  0
  7  6  1  0
  8  4  1  0
  8  7  2  0
  9 17  1  0
  9 10  2  0
 11 12  1  0
 12 14  1  0
 13 12  2  0
 14 15  1  0
 16 15  1  1
 16 18  1  0
 17 16  1  0
 18 19  2  0
 20 21  1  0
 20 18  1  0
 21 22  1  1
 23 22  1  0
 24 25  1  0
 24 23  1  0
 26 25  1  0
 27 21  1  0
 27 29  1  0
 28 27  2  0
M  END
$$$$
