HQK.pdb
     RDKit          3D

 29 29  0  0  1  0  0  0  0  0999 V2000
   17.9499  -11.2940  -16.0745 N   0  0  0  0  0  0  0  0  0  0  0  0
   18.2270  -10.4665  -14.9192 C   0  0  1  0  0  0  0  0  0  0  0  0
   19.3897   -9.5441  -15.3138 C   0  0  0  0  0  0  0  0  0  0  0  0
   20.5902  -10.3533  -15.5128 C   0  0  0  0  0  0  0  0  0  0  0  0
   21.2236  -10.5680  -16.7179 C   0  0  0  0  0  0  0  0  0  0  0  0
   22.2935  -11.3695  -16.4789 N   0  0  0  0  0  0  0  0  0  0  0  0
   22.3365  -11.6517  -15.1734 C   0  0  0  0  0  0  0  0  0  0  0  0
   21.2943  -11.0253  -14.6062 N   0  0  0  0  0  0  0  0  0  0  0  0
   17.0696   -9.5844  -14.6835 C   0  0  0  0  0  0  0  0  0  0  0  0
   16.4735   -9.0952  -15.6694 O   0  0  0  0  0  0  0  0  0  0  0  0
   13.8803  -10.1359   -9.7102 N   0  0  0  0  0  0  0  0  0  0  0  0
   13.1654   -9.0136  -10.1858 C   0  0  0  0  0  0  0  0  0  0  0  0
   12.1015   -8.6589   -9.6269 O   0  0  0  0  0  0  0  0  0  0  0  0
   13.6739   -8.2282  -11.3726 C   0  0  0  0  0  0  0  0  0  0  0  0
   14.8561   -8.9398  -11.9058 C   0  0  0  0  0  0  0  0  0  0  0  0
   15.4900   -8.4292  -13.1429 C   0  0  2  0  0  0  0  0  0  0  0  0
   16.6548   -9.3068  -13.3787 N   0  0  0  0  0  0  0  0  0  0  0  0
   16.0453   -7.0711  -13.0592 C   0  0  0  0  0  0  0  0  0  0  0  0
   17.2204   -6.8479  -12.5874 O   0  0  0  0  0  0  0  0  0  0  0  0
   15.3145   -5.9610  -13.4984 N   0  0  0  0  0  0  0  0  0  0  0  0
   15.8100   -4.5875  -13.4328 C   0  0  1  0  0  0  0  0  0  0  0  0
   16.4619   -4.2625  -14.7281 C   0  0  0  0  0  0  0  0  0  0  0  0
   16.9882   -2.8956  -14.9222 C   0  0  0  0  0  0  0  0  0  0  0  0
   17.7311   -2.7015  -16.2169 C   0  0  0  0  0  0  0  0  0  0  0  0
   18.2122   -1.2332  -16.1903 C   0  0  0  0  0  0  0  0  0  0  0  0
   19.0380   -1.0023  -17.3409 N   0  0  0  0  0  0  0  0  0  0  0  0
   14.7696   -3.6988  -12.9601 C   0  0  0  0  0  0  0  0  0  0  0  0
   15.0778   -2.5114  -12.6228 O   0  0  0  0  0  0  0  0  0  0  0  0
   13.4426   -4.0479  -12.8425 O   0  0  0  0  0  0  0  0  0  0  0  0
  2  1  1  6
  2  9  1  0
  3  2  1  0
  3  4  1  0
  4  5  2  0
  5  6  1  0
  7  6  1  0
  8  4  1  0
  8  7  2  0
  9 17  1  0
  9 10  2  0
 11 12  1  0
 12 14  1  0
 13 12  2  0
 14 15  1  0
 16 15  1  1
 16 18  1  0
 17 16  1  0
 18 19  2  0
 20 21  1  0
 20 18  1  0
 21 22  1  6
 23 22  1  0
 24 25  1  0
 24 23  1  0
 26 25  1  0
 27 21  1  0
 27 29  1  0
 28 27  2  0
M  END
$$$$
