HQK.pdb
     RDKit          3D

 29 29  0  0  1  0  0  0  0  0999 V2000
   25.5300  -22.0881  -15.9453 N   0  0  0  0  0  0  0  0  0  0  0  0
   24.2033  -22.0378  -16.5228 C   0  0  1  0  0  0  0  0  0  0  0  0
   23.8823  -23.4618  -16.9996 C   0  0  0  0  0  0  0  0  0  0  0  0
   24.5089  -23.6783  -18.3020 C   0  0  0  0  0  0  0  0  0  0  0  0
   25.7058  -24.3259  -18.5199 C   0  0  0  0  0  0  0  0  0  0  0  0
   25.9363  -24.3169  -19.8581 N   0  0  0  0  0  0  0  0  0  0  0  0
   24.9250  -23.6881  -20.4647 C   0  0  0  0  0  0  0  0  0  0  0  0
   24.0704  -23.3090  -19.5022 N   0  0  0  0  0  0  0  0  0  0  0  0
   23.2350  -21.7390  -15.4521 C   0  0  0  0  0  0  0  0  0  0  0  0
   23.4833  -22.1278  -14.2887 O   0  0  0  0  0  0  0  0  0  0  0  0
   19.3742  -17.8495  -13.2423 N   0  0  0  0  0  0  0  0  0  0  0  0
   20.5128  -17.3221  -13.8923 C   0  0  0  0  0  0  0  0  0  0  0  0
   20.9551  -16.1934  -13.5754 O   0  0  0  0  0  0  0  0  0  0  0  0
   21.2103  -18.1112  -14.9762 C   0  0  0  0  0  0  0  0  0  0  0  0
   20.4915  -19.3954  -15.1266 C   0  0  0  0  0  0  0  0  0  0  0  0
   21.1507  -20.6341  -14.6534 C   0  0  2  0  0  0  0  0  0  0  0  0
   22.0647  -21.0338  -15.7431 N   0  0  0  0  0  0  0  0  0  0  0  0
   20.2649  -21.7897  -14.4541 C   0  0  0  0  0  0  0  0  0  0  0  0
   19.8453  -22.4994  -15.4408 O   0  0  0  0  0  0  0  0  0  0  0  0
   19.8458  -22.1693  -13.1737 N   0  0  0  0  0  0  0  0  0  0  0  0
   18.9069  -23.2601  -12.9188 C   0  0  1  0  0  0  0  0  0  0  0  0
   18.9813  -23.6150  -11.4778 C   0  0  0  0  0  0  0  0  0  0  0  0
   18.0679  -24.6577  -10.9665 C   0  0  0  0  0  0  0  0  0  0  0  0
   18.6078  -25.4238   -9.7887 C   0  0  0  0  0  0  0  0  0  0  0  0
   17.7520  -24.9699   -8.5848 C   0  0  0  0  0  0  0  0  0  0  0  0
   18.3440  -25.4851   -7.3835 N   0  0  0  0  0  0  0  0  0  0  0  0
   17.6057  -22.9434  -13.4687 C   0  0  0  0  0  0  0  0  0  0  0  0
   17.2339  -21.7276  -13.5144 O   0  0  0  0  0  0  0  0  0  0  0  0
   16.7185  -23.8777  -13.9550 O   0  0  0  0  0  0  0  0  0  0  0  0
  2  1  1  1
  2  9  1  0
  3  2  1  0
  3  4  1  0
  4  5  2  0
  5  6  1  0
  7  6  1  0
  8  4  1  0
  8  7  2  0
  9 17  1  0
  9 10  2  0
 11 12  1  0
 12 14  1  0
 13 12  2  0
 14 15  1  0
 16 15  1  6
 16 18  1  0
 17 16  1  0
 18 19  2  0
 20 21  1  0
 20 18  1  0
 21 22  1  1
 23 22  1  0
 24 25  1  0
 24 23  1  0
 26 25  1  0
 27 21  1  0
 27 29  1  0
 28 27  2  0
M  END
$$$$
