HQK.pdb
     RDKit          3D

 29 29  0  0  1  0  0  0  0  0999 V2000
   18.9824   -8.9700  -11.9897 N   0  0  0  0  0  0  0  0  0  0  0  0
   18.8955   -8.3181  -10.7000 C   0  0  1  0  0  0  0  0  0  0  0  0
   20.0769   -7.3396  -10.6268 C   0  0  0  0  0  0  0  0  0  0  0  0
   20.2664   -6.7262  -11.9396 C   0  0  0  0  0  0  0  0  0  0  0  0
   19.4980   -6.9683  -13.0579 C   0  0  0  0  0  0  0  0  0  0  0  0
   19.9956   -6.2075  -14.0667 N   0  0  0  0  0  0  0  0  0  0  0  0
   21.0386   -5.5106  -13.6059 C   0  0  0  0  0  0  0  0  0  0  0  0
   21.1854   -5.8403  -12.3136 N   0  0  0  0  0  0  0  0  0  0  0  0
   17.6774   -7.4882  -10.6731 C   0  0  0  0  0  0  0  0  0  0  0  0
   17.1559   -7.1472  -11.7586 O   0  0  0  0  0  0  0  0  0  0  0  0
   13.3856   -9.0236   -8.7425 N   0  0  0  0  0  0  0  0  0  0  0  0
   12.8704   -7.8455   -8.1563 C   0  0  0  0  0  0  0  0  0  0  0  0
   11.6392   -7.7251   -7.9572 O   0  0  0  0  0  0  0  0  0  0  0  0
   13.7961   -6.7176   -7.7628 C   0  0  0  0  0  0  0  0  0  0  0  0
   15.1702   -7.1152   -8.1402 C   0  0  0  0  0  0  0  0  0  0  0  0
   15.7410   -6.5796   -9.3972 C   0  0  2  0  0  0  0  0  0  0  0  0
   17.1243   -7.0955   -9.4519 N   0  0  0  0  0  0  0  0  0  0  0  0
   15.8754   -5.1176   -9.4625 C   0  0  0  0  0  0  0  0  0  0  0  0
   16.8138   -4.4954   -8.8415 O   0  0  0  0  0  0  0  0  0  0  0  0
   14.9853   -4.3408  -10.2131 N   0  0  0  0  0  0  0  0  0  0  0  0
   15.1375   -2.9011  -10.4142 C   0  0  1  0  0  0  0  0  0  0  0  0
   14.4004   -2.5199  -11.6470 C   0  0  0  0  0  0  0  0  0  0  0  0
   14.4932   -1.1208  -12.1126 C   0  0  0  0  0  0  0  0  0  0  0  0
   13.8731   -0.8802  -13.4629 C   0  0  0  0  0  0  0  0  0  0  0  0
   14.1340    0.6122  -13.7670 C   0  0  0  0  0  0  0  0  0  0  0  0
   13.4889    0.9456  -15.0047 N   0  0  0  0  0  0  0  0  0  0  0  0
   14.8259   -2.1865   -9.1944 C   0  0  0  0  0  0  0  0  0  0  0  0
   13.9037   -2.6290   -8.4378 O   0  0  0  0  0  0  0  0  0  0  0  0
   15.4633   -1.0377   -8.7816 O   0  0  0  0  0  0  0  0  0  0  0  0
  2  1  1  6
  2  9  1  0
  3  2  1  0
  3  4  1  0
  4  5  2  0
  5  6  1  0
  7  6  1  0
  8  4  1  0
  8  7  2  0
  9 17  1  0
  9 10  2  0
 11 12  1  0
 12 14  1  0
 13 12  2  0
 14 15  1  0
 16 15  1  1
 16 18  1  0
 17 16  1  0
 18 19  2  0
 20 21  1  0
 20 18  1  0
 21 22  1  6
 23 22  1  0
 24 25  1  0
 24 23  1  0
 26 25  1  0
 27 21  1  0
 27 29  1  0
 28 27  2  0
M  END
$$$$
