HQK.pdb
     RDKit          3D

 29 29  0  0  1  0  0  0  0  0999 V2000
   29.2095  -25.0533  -17.1780 N   0  0  0  0  0  0  0  0  0  0  0  0
   27.8304  -25.4732  -17.3114 C   0  0  1  0  0  0  0  0  0  0  0  0
   27.6714  -26.7274  -16.4395 C   0  0  0  0  0  0  0  0  0  0  0  0
   28.2424  -27.8718  -17.1466 C   0  0  0  0  0  0  0  0  0  0  0  0
   27.5803  -28.6638  -18.0599 C   0  0  0  0  0  0  0  0  0  0  0  0
   28.4539  -29.6124  -18.4855 N   0  0  0  0  0  0  0  0  0  0  0  0
   29.6238  -29.4289  -17.8662 C   0  0  0  0  0  0  0  0  0  0  0  0
   29.4734  -28.3679  -17.0587 N   0  0  0  0  0  0  0  0  0  0  0  0
   26.9646  -24.4447  -16.7067 C   0  0  0  0  0  0  0  0  0  0  0  0
   27.2958  -23.9483  -15.6065 O   0  0  0  0  0  0  0  0  0  0  0  0
   28.6854  -21.0109  -17.3210 N   0  0  0  0  0  0  0  0  0  0  0  0
   27.3603  -20.6863  -17.6893 C   0  0  0  0  0  0  0  0  0  0  0  0
   26.8893  -19.5563  -17.4228 O   0  0  0  0  0  0  0  0  0  0  0  0
   26.4958  -21.6963  -18.4080 C   0  0  0  0  0  0  0  0  0  0  0  0
   25.2109  -21.7828  -17.6801 C   0  0  0  0  0  0  0  0  0  0  0  0
   24.9757  -22.9481  -16.7971 C   0  0  2  0  0  0  0  0  0  0  0  0
   25.7978  -24.0394  -17.3593 N   0  0  0  0  0  0  0  0  0  0  0  0
   23.6023  -23.4708  -16.7860 C   0  0  0  0  0  0  0  0  0  0  0  0
   23.0147  -23.8536  -17.8637 O   0  0  0  0  0  0  0  0  0  0  0  0
   22.8777  -23.5792  -15.5933 N   0  0  0  0  0  0  0  0  0  0  0  0
   21.5019  -24.0676  -15.5228 C   0  0  1  0  0  0  0  0  0  0  0  0
   20.9008  -23.5920  -14.2498 C   0  0  0  0  0  0  0  0  0  0  0  0
   19.4793  -23.8999  -13.9899 C   0  0  0  0  0  0  0  0  0  0  0  0
   18.9881  -23.4435  -12.6423 C   0  0  0  0  0  0  0  0  0  0  0  0
   17.4707  -23.7355  -12.6452 C   0  0  0  0  0  0  0  0  0  0  0  0
   16.8988  -23.1921  -11.4466 N   0  0  0  0  0  0  0  0  0  0  0  0
   20.7984  -23.7707  -16.7528 C   0  0  0  0  0  0  0  0  0  0  0  0
   19.8909  -24.5674  -17.1529 O   0  0  0  0  0  0  0  0  0  0  0  0
   21.0428  -22.6689  -17.5420 O   0  0  0  0  0  0  0  0  0  0  0  0
  2  1  1  1
  2  9  1  0
  3  2  1  0
  3  4  1  0
  4  5  2  0
  5  6  1  0
  7  6  1  0
  8  4  1  0
  8  7  2  0
  9 17  1  0
  9 10  2  0
 11 12  1  0
 12 14  1  0
 13 12  2  0
 14 15  1  0
 16 15  1  6
 16 18  1  0
 17 16  1  0
 18 19  2  0
 20 21  1  0
 20 18  1  0
 21 22  1  1
 23 22  1  0
 24 25  1  0
 24 23  1  0
 26 25  1  0
 27 21  1  0
 27 29  1  0
 28 27  2  0
M  END
$$$$
