LHQ.pdb
     RDKit          3D

 28 28  0  0  1  0  0  0  0  0999 V2000
   14.7959   -8.8083  -21.7709 C   0  0  0  0  0  0  0  0  0  0  0  0
   16.2954   -8.9282  -21.6160 C   0  0  1  0  0  0  0  0  0  0  0  0
   16.9287   -7.7569  -22.2936 C   0  0  0  0  0  0  0  0  0  0  0  0
   16.6233   -9.0453  -20.1575 C   0  0  0  0  0  0  0  0  0  0  0  0
   18.1417   -9.0710  -19.9629 C   0  0  2  0  0  0  0  0  0  0  0  0
   18.7417  -10.1898  -20.6163 N   0  0  0  0  0  0  0  0  0  0  0  0
   18.4944   -8.9622  -18.5357 C   0  0  0  0  0  0  0  0  0  0  0  0
   17.8884   -8.1232  -17.8205 O   0  0  0  0  0  0  0  0  0  0  0  0
   19.5068   -9.7834  -17.9393 N   0  0  0  0  0  0  0  0  0  0  0  0
   19.8323   -9.7152  -16.5476 C   0  0  1  0  0  0  0  0  0  0  0  0
   20.3302  -11.0438  -16.0252 C   0  0  0  0  0  0  0  0  0  0  0  0
   19.1768  -11.9424  -15.7659 C   0  0  0  0  0  0  0  0  0  0  0  0
   17.8383  -11.5579  -15.8084 C   0  0  0  0  0  0  0  0  0  0  0  0
   17.0982  -12.6291  -15.5222 N   0  0  0  0  0  0  0  0  0  0  0  0
   17.8934  -13.6793  -15.2986 C   0  0  0  0  0  0  0  0  0  0  0  0
   19.1571  -13.2411  -15.4517 N   0  0  0  0  0  0  0  0  0  0  0  0
   20.7560   -8.6126  -16.2714 C   0  0  0  0  0  0  0  0  0  0  0  0
   21.6326   -8.3365  -17.1472 O   0  0  0  0  0  0  0  0  0  0  0  0
   20.7436   -3.7974  -17.9958 N   0  0  0  0  0  0  0  0  0  0  0  0
   21.7673   -3.4630  -17.0925 C   0  0  0  0  0  0  0  0  0  0  0  0
   22.3672   -2.3875  -17.2021 O   0  0  0  0  0  0  0  0  0  0  0  0
   22.1193   -4.4343  -15.9930 C   0  0  0  0  0  0  0  0  0  0  0  0
   21.2848   -5.6772  -16.1032 C   0  0  0  0  0  0  0  0  0  0  0  0
   21.5820   -6.6255  -15.0011 C   0  0  2  0  0  0  0  0  0  0  0  0
   20.7497   -7.8307  -15.1073 N   0  0  0  0  0  0  0  0  0  0  0  0
   21.4475   -6.0139  -13.6824 C   0  0  0  0  0  0  0  0  0  0  0  0
   20.5397   -6.3972  -12.7262 O   0  0  0  0  0  0  0  0  0  0  0  0
   22.2169   -5.0510  -13.3786 O   0  0  0  0  0  0  0  0  0  0  0  0
  2  1  1  1
  2  3  1  0
  4  5  1  0
  4  2  1  0
  5  6  1  1
  7  8  2  0
  7  5  1  0
  9  7  1  0
 10  9  1  0
 11 12  1  0
 10 11  1  6
 12 13  2  0
 12 16  1  0
 13 14  1  0
 14 15  1  0
 16 15  2  0
 17 18  2  0
 17 10  1  0
 19 20  1  0
 20 22  1  0
 21 20  2  0
 22 23  1  0
 24 23  1  6
 24 25  1  0
 25 17  1  0
 26 24  1  0
 27 26  1  0
 28 26  2  0
M  END
$$$$
