LHQ.pdb
     RDKit          3D

 28 28  0  0  1  0  0  0  0  0999 V2000
   32.2394  -23.9730  -18.5931 C   0  0  0  0  0  0  0  0  0  0  0  0
   30.8807  -24.4876  -18.1736 C   0  0  1  0  0  0  0  0  0  0  0  0
   30.9663  -25.9732  -18.0396 C   0  0  0  0  0  0  0  0  0  0  0  0
   30.4618  -23.7808  -16.9193 C   0  0  0  0  0  0  0  0  0  0  0  0
   29.0448  -24.2075  -16.5265 C   0  0  2  0  0  0  0  0  0  0  0  0
   28.5120  -25.1754  -17.4309 N   0  0  0  0  0  0  0  0  0  0  0  0
   28.1724  -23.0345  -16.3360 C   0  0  0  0  0  0  0  0  0  0  0  0
   28.4532  -22.2066  -15.4314 O   0  0  0  0  0  0  0  0  0  0  0  0
   27.0144  -22.8096  -17.1506 N   0  0  0  0  0  0  0  0  0  0  0  0
   26.1403  -21.6938  -16.9547 C   0  0  1  0  0  0  0  0  0  0  0  0
   25.6297  -21.1474  -18.2687 C   0  0  0  0  0  0  0  0  0  0  0  0
   24.8207  -19.9270  -18.0215 C   0  0  0  0  0  0  0  0  0  0  0  0
   25.3417  -18.6657  -17.7405 C   0  0  0  0  0  0  0  0  0  0  0  0
   24.3165  -17.8290  -17.5789 N   0  0  0  0  0  0  0  0  0  0  0  0
   23.1663  -18.4892  -17.7418 C   0  0  0  0  0  0  0  0  0  0  0  0
   23.4940  -19.7669  -18.0110 N   0  0  0  0  0  0  0  0  0  0  0  0
   25.0635  -22.0207  -16.0173 C   0  0  0  0  0  0  0  0  0  0  0  0
   24.5757  -23.1922  -16.0556 O   0  0  0  0  0  0  0  0  0  0  0  0
   25.8943  -21.4117   -9.8068 N   0  0  0  0  0  0  0  0  0  0  0  0
   24.8528  -20.9890  -10.6509 C   0  0  0  0  0  0  0  0  0  0  0  0
   24.0927  -20.0813  -10.2947 O   0  0  0  0  0  0  0  0  0  0  0  0
   24.6798  -21.6588  -11.9916 C   0  0  0  0  0  0  0  0  0  0  0  0
   23.6508  -20.9358  -12.8112 C   0  0  0  0  0  0  0  0  0  0  0  0
   23.4759  -21.5720  -14.1404 C   0  0  2  0  0  0  0  0  0  0  0  0
   24.5235  -21.1360  -15.0726 N   0  0  0  0  0  0  0  0  0  0  0  0
   22.1488  -21.3413  -14.7031 C   0  0  0  0  0  0  0  0  0  0  0  0
   21.0158  -22.0356  -14.3568 O   0  0  0  0  0  0  0  0  0  0  0  0
   22.0115  -20.4368  -15.5830 O   0  0  0  0  0  0  0  0  0  0  0  0
  2  1  1  1
  2  3  1  0
  4  5  1  0
  4  2  1  0
  5  6  1  6
  7  8  2  0
  7  5  1  0
  9  7  1  0
 10  9  1  0
 11 12  1  0
 10 11  1  6
 12 13  2  0
 12 16  1  0
 13 14  1  0
 14 15  1  0
 16 15  2  0
 17 18  2  0
 17 10  1  0
 19 20  1  0
 20 22  1  0
 21 20  2  0
 22 23  1  0
 24 23  1  1
 24 25  1  0
 25 17  1  0
 26 24  1  0
 27 26  1  0
 28 26  2  0
M  END
$$$$
