LHQ.pdb
     RDKit          3D

 28 28  0  0  1  0  0  0  0  0999 V2000
   27.9851  -11.8250  -16.6099 C   0  0  0  0  0  0  0  0  0  0  0  0
   26.6410  -12.2006  -16.0276 C   0  0  1  0  0  0  0  0  0  0  0  0
   26.6207  -11.7807  -14.5939 C   0  0  0  0  0  0  0  0  0  0  0  0
   25.5613  -11.5820  -16.8642 C   0  0  0  0  0  0  0  0  0  0  0  0
   24.1879  -11.9112  -16.2731 C   0  0  2  0  0  0  0  0  0  0  0  0
   23.8100  -13.2640  -16.5296 N   0  0  0  0  0  0  0  0  0  0  0  0
   23.1780  -10.9253  -16.6992 C   0  0  0  0  0  0  0  0  0  0  0  0
   22.8940  -10.8332  -17.9213 O   0  0  0  0  0  0  0  0  0  0  0  0
   22.5108  -10.0693  -15.7628 N   0  0  0  0  0  0  0  0  0  0  0  0
   21.5231   -9.1137  -16.1617 C   0  0  1  0  0  0  0  0  0  0  0  0
   20.1601   -9.4533  -15.6024 C   0  0  0  0  0  0  0  0  0  0  0  0
   19.5777  -10.5891  -16.3614 C   0  0  0  0  0  0  0  0  0  0  0  0
   19.1306  -10.5244  -17.6794 C   0  0  0  0  0  0  0  0  0  0  0  0
   18.6767  -11.7323  -18.0145 N   0  0  0  0  0  0  0  0  0  0  0  0
   18.8101  -12.5668  -16.9795 C   0  0  0  0  0  0  0  0  0  0  0  0
   19.3612  -11.8517  -15.9809 N   0  0  0  0  0  0  0  0  0  0  0  0
   21.9455   -7.7482  -15.8421 C   0  0  0  0  0  0  0  0  0  0  0  0
   22.3968   -7.5217  -14.6773 O   0  0  0  0  0  0  0  0  0  0  0  0
   22.8459   -2.7523  -19.6296 N   0  0  0  0  0  0  0  0  0  0  0  0
   23.2106   -2.2353  -18.3744 C   0  0  0  0  0  0  0  0  0  0  0  0
   23.5881   -1.0626  -18.2703 O   0  0  0  0  0  0  0  0  0  0  0  0
   23.1338   -3.1317  -17.1634 C   0  0  0  0  0  0  0  0  0  0  0  0
   22.5938   -4.4803  -17.5414 C   0  0  0  0  0  0  0  0  0  0  0  0
   22.4366   -5.3513  -16.3504 C   0  0  2  0  0  0  0  0  0  0  0  0
   21.8909   -6.6617  -16.7270 N   0  0  0  0  0  0  0  0  0  0  0  0
   21.6287   -4.7317  -15.3042 C   0  0  0  0  0  0  0  0  0  0  0  0
   22.1248   -3.9752  -14.2712 O   0  0  0  0  0  0  0  0  0  0  0  0
   20.3702   -4.8955  -15.3321 O   0  0  0  0  0  0  0  0  0  0  0  0
  2  1  1  6
  2  3  1  0
  4  5  1  0
  4  2  1  0
  5  6  1  6
  7  8  2  0
  7  5  1  0
  9  7  1  0
 10  9  1  0
 11 12  1  0
 10 11  1  1
 12 13  2  0
 12 16  1  0
 13 14  1  0
 14 15  1  0
 16 15  2  0
 17 18  2  0
 17 10  1  0
 19 20  1  0
 20 22  1  0
 21 20  2  0
 22 23  1  0
 24 23  1  6
 24 25  1  0
 25 17  1  0
 26 24  1  0
 27 26  1  0
 28 26  2  0
M  END
$$$$
