LHQ.pdb
     RDKit          3D

 28 28  0  0  1  0  0  0  0  0999 V2000
   27.3221  -14.0505  -17.0656 C   0  0  0  0  0  0  0  0  0  0  0  0
   26.7319  -15.2284  -16.3233 C   0  0  1  0  0  0  0  0  0  0  0  0
   26.5222  -14.8243  -14.9002 C   0  0  0  0  0  0  0  0  0  0  0  0
   25.4831  -15.6677  -17.0274 C   0  0  0  0  0  0  0  0  0  0  0  0
   24.8479  -16.8442  -16.2815 C   0  0  2  0  0  0  0  0  0  0  0  0
   25.7462  -17.9481  -16.1682 N   0  0  0  0  0  0  0  0  0  0  0  0
   23.5442  -17.2020  -16.8693 C   0  0  0  0  0  0  0  0  0  0  0  0
   22.8083  -16.2876  -17.3221 O   0  0  0  0  0  0  0  0  0  0  0  0
   23.0907  -18.5600  -16.9403 N   0  0  0  0  0  0  0  0  0  0  0  0
   21.8883  -18.9357  -17.6190 C   0  0  1  0  0  0  0  0  0  0  0  0
   22.0473  -20.2495  -18.3501 C   0  0  0  0  0  0  0  0  0  0  0  0
   22.6904  -20.0132  -19.6676 C   0  0  0  0  0  0  0  0  0  0  0  0
   22.3826  -18.9637  -20.5308 C   0  0  0  0  0  0  0  0  0  0  0  0
   23.1600  -19.0813  -21.6073 N   0  0  0  0  0  0  0  0  0  0  0  0
   23.9495  -20.1515  -21.4782 C   0  0  0  0  0  0  0  0  0  0  0  0
   23.6487  -20.7068  -20.2892 N   0  0  0  0  0  0  0  0  0  0  0  0
   20.7398  -18.9254  -16.7101 C   0  0  0  0  0  0  0  0  0  0  0  0
   20.9173  -19.3347  -15.5215 O   0  0  0  0  0  0  0  0  0  0  0  0
   14.9501  -16.4124  -17.3125 N   0  0  0  0  0  0  0  0  0  0  0  0
   14.9427  -16.8842  -15.9884 C   0  0  0  0  0  0  0  0  0  0  0  0
   13.9804  -16.6479  -15.2490 O   0  0  0  0  0  0  0  0  0  0  0  0
   16.1231  -17.6795  -15.4882 C   0  0  0  0  0  0  0  0  0  0  0  0
   17.1832  -17.7686  -16.5473 C   0  0  0  0  0  0  0  0  0  0  0  0
   18.3518  -18.5523  -16.0758 C   0  0  2  0  0  0  0  0  0  0  0  0
   19.4489  -18.4961  -17.0503 N   0  0  0  0  0  0  0  0  0  0  0  0
   18.0088  -19.9349  -15.7565 C   0  0  0  0  0  0  0  0  0  0  0  0
   17.6366  -20.3865  -14.5143 O   0  0  0  0  0  0  0  0  0  0  0  0
   18.0552  -20.8012  -16.6832 O   0  0  0  0  0  0  0  0  0  0  0  0
  2  1  1  6
  2  3  1  0
  4  5  1  0
  4  2  1  0
  5  6  1  6
  7  8  2  0
  7  5  1  0
  9  7  1  0
 10  9  1  0
 11 12  1  0
 10 11  1  1
 12 13  2  0
 12 16  1  0
 13 14  1  0
 14 15  1  0
 16 15  2  0
 17 18  2  0
 17 10  1  0
 19 20  1  0
 20 22  1  0
 21 20  2  0
 22 23  1  0
 24 23  1  6
 24 25  1  0
 25 17  1  0
 26 24  1  0
 27 26  1  0
 28 26  2  0
M  END
$$$$
