LHQ.pdb
     RDKit          3D

 28 28  0  0  1  0  0  0  0  0999 V2000
   17.8912  -23.3617  -11.9575 C   0  0  0  0  0  0  0  0  0  0  0  0
   17.9904  -24.5816  -11.0694 C   0  0  1  0  0  0  0  0  0  0  0  0
   18.9057  -25.5629  -11.7265 C   0  0  0  0  0  0  0  0  0  0  0  0
   18.4310  -24.1506   -9.7025 C   0  0  0  0  0  0  0  0  0  0  0  0
   18.4842  -25.3593   -8.7644 C   0  0  2  0  0  0  0  0  0  0  0  0
   17.7449  -26.4658   -9.2818 N   0  0  0  0  0  0  0  0  0  0  0  0
   18.0990  -24.9819   -7.3923 C   0  0  0  0  0  0  0  0  0  0  0  0
   18.6629  -23.9967   -6.8502 O   0  0  0  0  0  0  0  0  0  0  0  0
   17.1016  -25.7040   -6.6583 N   0  0  0  0  0  0  0  0  0  0  0  0
   16.7552  -25.3811   -5.3080 C   0  0  1  0  0  0  0  0  0  0  0  0
   15.2582  -25.2712   -5.1269 C   0  0  0  0  0  0  0  0  0  0  0  0
   14.9571  -24.7181   -3.7820 C   0  0  0  0  0  0  0  0  0  0  0  0
   15.1044  -23.3819   -3.4158 C   0  0  0  0  0  0  0  0  0  0  0  0
   14.7399  -23.2679   -2.1385 N   0  0  0  0  0  0  0  0  0  0  0  0
   14.3669  -24.4616   -1.6682 C   0  0  0  0  0  0  0  0  0  0  0  0
   14.5062  -25.3332   -2.6848 N   0  0  0  0  0  0  0  0  0  0  0  0
   17.3761  -26.3122   -4.3631 C   0  0  0  0  0  0  0  0  0  0  0  0
   17.6075  -27.4961   -4.7586 O   0  0  0  0  0  0  0  0  0  0  0  0
   19.9005  -25.4243    1.3819 N   0  0  0  0  0  0  0  0  0  0  0  0
   19.8939  -26.8263    1.2808 C   0  0  0  0  0  0  0  0  0  0  0  0
   20.3485  -27.5186    2.1987 O   0  0  0  0  0  0  0  0  0  0  0  0
   19.3253  -27.4678    0.0392 C   0  0  0  0  0  0  0  0  0  0  0  0
   18.8554  -26.4186   -0.9259 C   0  0  0  0  0  0  0  0  0  0  0  0
   18.2514  -27.0304   -2.1355 C   0  0  2  0  0  0  0  0  0  0  0  0
   17.7385  -25.9981   -3.0453 N   0  0  0  0  0  0  0  0  0  0  0  0
   17.2123  -28.0038   -1.8131 C   0  0  0  0  0  0  0  0  0  0  0  0
   17.4308  -29.3383   -1.5749 O   0  0  0  0  0  0  0  0  0  0  0  0
   16.0084  -27.6067   -1.7463 O   0  0  0  0  0  0  0  0  0  0  0  0
  2  1  1  6
  2  3  1  0
  4  5  1  0
  4  2  1  0
  5  6  1  6
  7  8  2  0
  7  5  1  0
  9  7  1  0
 10  9  1  0
 11 12  1  0
 10 11  1  6
 12 13  2  0
 12 16  1  0
 13 14  1  0
 14 15  1  0
 16 15  2  0
 17 18  2  0
 17 10  1  0
 19 20  1  0
 20 22  1  0
 21 20  2  0
 22 23  1  0
 24 23  1  1
 24 25  1  0
 25 17  1  0
 26 24  1  0
 27 26  1  0
 28 26  2  0
M  END
$$$$
