LHQ.pdb
     RDKit          3D

 28 28  0  0  1  0  0  0  0  0999 V2000
   18.2102  -15.8925  -16.9567 C   0  0  0  0  0  0  0  0  0  0  0  0
   17.2284  -15.1247  -16.1004 C   0  0  1  0  0  0  0  0  0  0  0  0
   16.9673  -15.9211  -14.8634 C   0  0  0  0  0  0  0  0  0  0  0  0
   17.7790  -13.7539  -15.8436 C   0  0  0  0  0  0  0  0  0  0  0  0
   16.8268  -12.9687  -14.9376 C   0  0  2  0  0  0  0  0  0  0  0  0
   15.5238  -12.8535  -15.5099 N   0  0  0  0  0  0  0  0  0  0  0  0
   17.4155  -11.6754  -14.5451 C   0  0  0  0  0  0  0  0  0  0  0  0
   18.5165  -11.6667  -13.9364 O   0  0  0  0  0  0  0  0  0  0  0  0
   16.7709  -10.4285  -14.8362 N   0  0  0  0  0  0  0  0  0  0  0  0
   17.2920   -9.1710  -14.3949 C   0  0  1  0  0  0  0  0  0  0  0  0
   17.8774   -8.3766  -15.5404 C   0  0  0  0  0  0  0  0  0  0  0  0
   19.1457   -9.0061  -15.9881 C   0  0  0  0  0  0  0  0  0  0  0  0
   19.2918   -9.7808  -17.1369 C   0  0  0  0  0  0  0  0  0  0  0  0
   20.5650  -10.1702  -17.2055 N   0  0  0  0  0  0  0  0  0  0  0  0
   21.2413   -9.6851  -16.1603 C   0  0  0  0  0  0  0  0  0  0  0  0
   20.3592   -8.9780  -15.4293 N   0  0  0  0  0  0  0  0  0  0  0  0
   16.2920   -8.4194  -13.6333 C   0  0  0  0  0  0  0  0  0  0  0  0
   15.1069   -8.3766  -14.0863 O   0  0  0  0  0  0  0  0  0  0  0  0
   15.5017   -7.5547   -7.5879 N   0  0  0  0  0  0  0  0  0  0  0  0
   14.4920   -6.7195   -8.0966 C   0  0  0  0  0  0  0  0  0  0  0  0
   13.6689   -6.2021   -7.3328 O   0  0  0  0  0  0  0  0  0  0  0  0
   14.4309   -6.4669   -9.5827 C   0  0  0  0  0  0  0  0  0  0  0  0
   15.4770   -7.2732  -10.2960 C   0  0  0  0  0  0  0  0  0  0  0  0
   15.4749   -6.9908  -11.7528 C   0  0  2  0  0  0  0  0  0  0  0  0
   16.5408   -7.7373  -12.4335 N   0  0  0  0  0  0  0  0  0  0  0  0
   15.5673   -5.5642  -12.0485 C   0  0  0  0  0  0  0  0  0  0  0  0
   14.4985   -4.7055  -12.1240 O   0  0  0  0  0  0  0  0  0  0  0  0
   16.7136   -5.0608  -12.2578 O   0  0  0  0  0  0  0  0  0  0  0  0
  2  1  1  6
  2  3  1  0
  4  5  1  0
  4  2  1  0
  5  6  1  6
  7  8  2  0
  7  5  1  0
  9  7  1  0
 10  9  1  0
 11 12  1  0
 10 11  1  6
 12 13  2  0
 12 16  1  0
 13 14  1  0
 14 15  1  0
 16 15  2  0
 17 18  2  0
 17 10  1  0
 19 20  1  0
 20 22  1  0
 21 20  2  0
 22 23  1  0
 24 23  1  1
 24 25  1  0
 25 17  1  0
 26 24  1  0
 27 26  1  0
 28 26  2  0
M  END
$$$$
