LHQ.pdb
     RDKit          3D

 28 28  0  0  1  0  0  0  0  0999 V2000
   24.9142  -14.0408  -20.1267 C   0  0  0  0  0  0  0  0  0  0  0  0
   25.1612  -13.2943  -18.8351 C   0  0  1  0  0  0  0  0  0  0  0  0
   26.5619  -12.7746  -18.8581 C   0  0  0  0  0  0  0  0  0  0  0  0
   24.1142  -12.2318  -18.6823 C   0  0  0  0  0  0  0  0  0  0  0  0
   24.3309  -11.4678  -17.3734 C   0  0  2  0  0  0  0  0  0  0  0  0
   24.6128  -12.3483  -16.2853 N   0  0  0  0  0  0  0  0  0  0  0  0
   23.2143  -10.5421  -17.1096 C   0  0  0  0  0  0  0  0  0  0  0  0
   22.8977   -9.7023  -17.9911 O   0  0  0  0  0  0  0  0  0  0  0  0
   22.4792  -10.5708  -15.8793 N   0  0  0  0  0  0  0  0  0  0  0  0
   21.3978   -9.6740  -15.6075 C   0  0  1  0  0  0  0  0  0  0  0  0
   20.4022  -10.2765  -14.6423 C   0  0  0  0  0  0  0  0  0  0  0  0
   19.4515  -11.1445  -15.3825 C   0  0  0  0  0  0  0  0  0  0  0  0
   19.4273  -11.3057  -16.7662 C   0  0  0  0  0  0  0  0  0  0  0  0
   18.4426  -12.1553  -17.0594 N   0  0  0  0  0  0  0  0  0  0  0  0
   17.8354  -12.5463  -15.9353 C   0  0  0  0  0  0  0  0  0  0  0  0
   18.4644  -11.9195  -14.9234 N   0  0  0  0  0  0  0  0  0  0  0  0
   21.8900   -8.3643  -15.1740 C   0  0  0  0  0  0  0  0  0  0  0  0
   22.8044   -8.3332  -14.2939 O   0  0  0  0  0  0  0  0  0  0  0  0
   23.2814   -3.0164  -18.3894 N   0  0  0  0  0  0  0  0  0  0  0  0
   22.7010   -4.2888  -18.5305 C   0  0  0  0  0  0  0  0  0  0  0  0
   22.1012   -4.5874  -19.5696 O   0  0  0  0  0  0  0  0  0  0  0  0
   22.8222   -5.2782  -17.3980 C   0  0  0  0  0  0  0  0  0  0  0  0
   21.9983   -4.8359  -16.2237 C   0  0  0  0  0  0  0  0  0  0  0  0
   21.9830   -5.8672  -15.1569 C   0  0  2  0  0  0  0  0  0  0  0  0
   21.4282   -7.1315  -15.6573 N   0  0  0  0  0  0  0  0  0  0  0  0
   21.2751   -5.4255  -13.9590 C   0  0  0  0  0  0  0  0  0  0  0  0
   20.1964   -6.0665  -13.4012 O   0  0  0  0  0  0  0  0  0  0  0  0
   21.6693   -4.3691  -13.3759 O   0  0  0  0  0  0  0  0  0  0  0  0
  2  1  1  6
  2  3  1  0
  4  5  1  0
  4  2  1  0
  5  6  1  1
  7  8  2  0
  7  5  1  0
  9  7  1  0
 10  9  1  0
 11 12  1  0
 10 11  1  1
 12 13  2  0
 12 16  1  0
 13 14  1  0
 14 15  1  0
 16 15  2  0
 17 18  2  0
 17 10  1  0
 19 20  1  0
 20 22  1  0
 21 20  2  0
 22 23  1  0
 24 23  1  6
 24 25  1  0
 25 17  1  0
 26 24  1  0
 27 26  1  0
 28 26  2  0
M  END
$$$$
