LHQ.pdb
     RDKit          3D

 28 28  0  0  1  0  0  0  0  0999 V2000
   26.9226  -19.7118   -3.9183 C   0  0  0  0  0  0  0  0  0  0  0  0
   27.7316  -19.6680   -5.1951 C   0  0  1  0  0  0  0  0  0  0  0  0
   28.9722  -20.4744   -4.9883 C   0  0  0  0  0  0  0  0  0  0  0  0
   26.8725  -20.1424   -6.3288 C   0  0  0  0  0  0  0  0  0  0  0  0
   27.6889  -20.1815   -7.6234 C   0  0  2  0  0  0  0  0  0  0  0  0
   28.7944  -19.2789   -7.5812 N   0  0  0  0  0  0  0  0  0  0  0  0
   26.8221  -19.9985   -8.8017 C   0  0  0  0  0  0  0  0  0  0  0  0
   26.5152  -18.8314   -9.1570 O   0  0  0  0  0  0  0  0  0  0  0  0
   26.3191  -21.1103   -9.5539 N   0  0  0  0  0  0  0  0  0  0  0  0
   25.7422  -20.9617  -10.8549 C   0  0  1  0  0  0  0  0  0  0  0  0
   26.5138  -21.7359  -11.8994 C   0  0  0  0  0  0  0  0  0  0  0  0
   27.8673  -21.1462  -12.0595 C   0  0  0  0  0  0  0  0  0  0  0  0
   29.0573  -21.7590  -11.6726 C   0  0  0  0  0  0  0  0  0  0  0  0
   30.0576  -20.9305  -11.9730 N   0  0  0  0  0  0  0  0  0  0  0  0
   29.5698  -19.8193  -12.5320 C   0  0  0  0  0  0  0  0  0  0  0  0
   28.2326  -19.9693  -12.5763 N   0  0  0  0  0  0  0  0  0  0  0  0
   24.3145  -21.2886  -10.8433 C   0  0  0  0  0  0  0  0  0  0  0  0
   23.7363  -21.3918   -9.7179 O   0  0  0  0  0  0  0  0  0  0  0  0
   20.8514  -17.4386  -10.9975 N   0  0  0  0  0  0  0  0  0  0  0  0
   19.8331  -18.4043  -11.0778 C   0  0  0  0  0  0  0  0  0  0  0  0
   18.6569  -18.0874  -10.8668 O   0  0  0  0  0  0  0  0  0  0  0  0
   20.1990  -19.8264  -11.4241 C   0  0  0  0  0  0  0  0  0  0  0  0
   21.6901  -19.9815  -11.5006 C   0  0  0  0  0  0  0  0  0  0  0  0
   22.0683  -21.3485  -11.9367 C   0  0  2  0  0  0  0  0  0  0  0  0
   23.5283  -21.4985  -11.9855 N   0  0  0  0  0  0  0  0  0  0  0  0
   21.4636  -21.7182  -13.2130 C   0  0  0  0  0  0  0  0  0  0  0  0
   20.2141  -22.2676  -13.3619 O   0  0  0  0  0  0  0  0  0  0  0  0
   22.1287  -21.5281  -14.2774 O   0  0  0  0  0  0  0  0  0  0  0  0
  2  1  1  1
  2  3  1  0
  4  5  1  0
  4  2  1  0
  5  6  1  1
  7  8  2  0
  7  5  1  0
  9  7  1  0
 10  9  1  0
 11 12  1  0
 10 11  1  6
 12 13  2  0
 12 16  1  0
 13 14  1  0
 14 15  1  0
 16 15  2  0
 17 18  2  0
 17 10  1  0
 19 20  1  0
 20 22  1  0
 21 20  2  0
 22 23  1  0
 24 23  1  6
 24 25  1  0
 25 17  1  0
 26 24  1  0
 27 26  1  0
 28 26  2  0
M  END
$$$$
