LHQ.pdb
     RDKit          3D

 28 28  0  0  1  0  0  0  0  0999 V2000
   33.3331  -13.7492  -19.2968 C   0  0  0  0  0  0  0  0  0  0  0  0
   32.9970  -12.3151  -18.9543 C   0  0  1  0  0  0  0  0  0  0  0  0
   33.5869  -11.4343  -20.0071 C   0  0  0  0  0  0  0  0  0  0  0  0
   31.5100  -12.1879  -18.8092 C   0  0  0  0  0  0  0  0  0  0  0  0
   31.1441  -10.7575  -18.4045 C   0  0  2  0  0  0  0  0  0  0  0  0
   31.7967  -10.3641  -17.1970 N   0  0  0  0  0  0  0  0  0  0  0  0
   29.6817  -10.5742  -18.3717 C   0  0  0  0  0  0  0  0  0  0  0  0
   29.0138  -10.8167  -19.4099 O   0  0  0  0  0  0  0  0  0  0  0  0
   28.9989  -10.1282  -17.1929 N   0  0  0  0  0  0  0  0  0  0  0  0
   27.5956   -9.8489  -17.1752 C   0  0  1  0  0  0  0  0  0  0  0  0
   26.9985  -10.0763  -15.8050 C   0  0  0  0  0  0  0  0  0  0  0  0
   25.5360   -9.8223  -15.8490 C   0  0  0  0  0  0  0  0  0  0  0  0
   24.5698  -10.7694  -16.1818 C   0  0  0  0  0  0  0  0  0  0  0  0
   23.3781  -10.1757  -16.1133 N   0  0  0  0  0  0  0  0  0  0  0  0
   23.5313   -8.8979  -15.7542 C   0  0  0  0  0  0  0  0  0  0  0  0
   24.8539   -8.7011  -15.5975 N   0  0  0  0  0  0  0  0  0  0  0  0
   27.3131   -8.5129  -17.7047 C   0  0  0  0  0  0  0  0  0  0  0  0
   28.0986   -7.5677  -17.3863 O   0  0  0  0  0  0  0  0  0  0  0  0
   28.7657   -4.2694  -20.0864 N   0  0  0  0  0  0  0  0  0  0  0  0
   27.5869   -4.1356  -20.8402 C   0  0  0  0  0  0  0  0  0  0  0  0
   27.3978   -3.1239  -21.5253 O   0  0  0  0  0  0  0  0  0  0  0  0
   26.5621   -5.2420  -20.7988 C   0  0  0  0  0  0  0  0  0  0  0  0
   27.0471   -6.3754  -19.9424 C   0  0  0  0  0  0  0  0  0  0  0  0
   26.0040   -6.8085  -18.9799 C   0  0  2  0  0  0  0  0  0  0  0  0
   26.2354   -8.1912  -18.5424 N   0  0  0  0  0  0  0  0  0  0  0  0
   24.6521   -6.6482  -19.5071 C   0  0  0  0  0  0  0  0  0  0  0  0
   23.7886   -7.6790  -19.7852 O   0  0  0  0  0  0  0  0  0  0  0  0
   24.2249   -5.4749  -19.7354 O   0  0  0  0  0  0  0  0  0  0  0  0
  2  1  1  6
  2  3  1  0
  4  5  1  0
  4  2  1  0
  5  6  1  1
  7  8  2  0
  7  5  1  0
  9  7  1  0
 10  9  1  0
 11 12  1  0
 10 11  1  1
 12 13  2  0
 12 16  1  0
 13 14  1  0
 14 15  1  0
 16 15  2  0
 17 18  2  0
 17 10  1  0
 19 20  1  0
 20 22  1  0
 21 20  2  0
 22 23  1  0
 24 23  1  6
 24 25  1  0
 25 17  1  0
 26 24  1  0
 27 26  1  0
 28 26  2  0
M  END
$$$$
