LHQ.pdb
     RDKit          3D

 28 28  0  0  1  0  0  0  0  0999 V2000
   24.3799  -24.8838  -21.0562 C   0  0  0  0  0  0  0  0  0  0  0  0
   23.8051  -23.4853  -21.0800 C   0  0  1  0  0  0  0  0  0  0  0  0
   22.3830  -23.5739  -21.5298 C   0  0  0  0  0  0  0  0  0  0  0  0
   23.9838  -22.8655  -19.7264 C   0  0  0  0  0  0  0  0  0  0  0  0
   23.3672  -21.4643  -19.7069 C   0  0  2  0  0  0  0  0  0  0  0  0
   24.0022  -20.5918  -20.6417 N   0  0  0  0  0  0  0  0  0  0  0  0
   23.3195  -20.9259  -18.3353 C   0  0  0  0  0  0  0  0  0  0  0  0
   23.1088  -21.7146  -17.3781 O   0  0  0  0  0  0  0  0  0  0  0  0
   23.5061  -19.5315  -18.0604 N   0  0  0  0  0  0  0  0  0  0  0  0
   23.4544  -18.9944  -16.7351 C   0  0  1  0  0  0  0  0  0  0  0  0
   24.2122  -17.6902  -16.6315 C   0  0  0  0  0  0  0  0  0  0  0  0
   25.6639  -17.9398  -16.8192 C   0  0  0  0  0  0  0  0  0  0  0  0
   26.2513  -19.1986  -16.9273 C   0  0  0  0  0  0  0  0  0  0  0  0
   27.5634  -19.0229  -17.0848 N   0  0  0  0  0  0  0  0  0  0  0  0
   27.8464  -17.7171  -17.0832 C   0  0  0  0  0  0  0  0  0  0  0  0
   26.6757  -17.0727  -16.9201 N   0  0  0  0  0  0  0  0  0  0  0  0
   22.0737  -18.8901  -16.2578 C   0  0  0  0  0  0  0  0  0  0  0  0
   21.1846  -18.5167  -17.0835 O   0  0  0  0  0  0  0  0  0  0  0  0
   18.6615  -22.3799  -12.5434 N   0  0  0  0  0  0  0  0  0  0  0  0
   17.8906  -21.8783  -13.6064 C   0  0  0  0  0  0  0  0  0  0  0  0
   16.8020  -22.3947  -13.8835 O   0  0  0  0  0  0  0  0  0  0  0  0
   18.4121  -20.7052  -14.3988 C   0  0  0  0  0  0  0  0  0  0  0  0
   19.7670  -20.2949  -13.8998 C   0  0  0  0  0  0  0  0  0  0  0  0
   20.2371  -19.0580  -14.5715 C   0  0  2  0  0  0  0  0  0  0  0  0
   21.6514  -19.1719  -14.9505 N   0  0  0  0  0  0  0  0  0  0  0  0
   20.0079  -17.8608  -13.7682 C   0  0  0  0  0  0  0  0  0  0  0  0
   18.8402  -17.1386  -13.7479 O   0  0  0  0  0  0  0  0  0  0  0  0
   20.9481  -17.4375  -13.0278 O   0  0  0  0  0  0  0  0  0  0  0  0
  2  1  1  1
  2  3  1  0
  4  5  1  0
  4  2  1  0
  5  6  1  6
  7  8  2  0
  7  5  1  0
  9  7  1  0
 10  9  1  0
 11 12  1  0
 10 11  1  6
 12 13  2  0
 12 16  1  0
 13 14  1  0
 14 15  1  0
 16 15  2  0
 17 18  2  0
 17 10  1  0
 19 20  1  0
 20 22  1  0
 21 20  2  0
 22 23  1  0
 24 23  1  1
 24 25  1  0
 25 17  1  0
 26 24  1  0
 27 26  1  0
 28 26  2  0
M  END
$$$$
