LHQ.pdb
     RDKit          3D

 28 28  0  0  1  0  0  0  0  0999 V2000
   30.5618  -16.6017  -19.8331 C   0  0  0  0  0  0  0  0  0  0  0  0
   29.7981  -17.7409  -19.1961 C   0  0  1  0  0  0  0  0  0  0  0  0
   30.7686  -18.8310  -18.8765 C   0  0  0  0  0  0  0  0  0  0  0  0
   29.0497  -17.2167  -18.0072 C   0  0  0  0  0  0  0  0  0  0  0  0
   28.3248  -18.3636  -17.2978 C   0  0  2  0  0  0  0  0  0  0  0  0
   27.9043  -19.3738  -18.2150 N   0  0  0  0  0  0  0  0  0  0  0  0
   27.2380  -17.8541  -16.4419 C   0  0  0  0  0  0  0  0  0  0  0  0
   27.5186  -17.0545  -15.5121 O   0  0  0  0  0  0  0  0  0  0  0  0
   25.8722  -18.2425  -16.6378 N   0  0  0  0  0  0  0  0  0  0  0  0
   24.8079  -17.7567  -15.8139 C   0  0  1  0  0  0  0  0  0  0  0  0
   23.8174  -16.9357  -16.6081 C   0  0  0  0  0  0  0  0  0  0  0  0
   24.2450  -15.5137  -16.6220 C   0  0  0  0  0  0  0  0  0  0  0  0
   25.3190  -14.9947  -15.9020 C   0  0  0  0  0  0  0  0  0  0  0  0
   25.3926  -13.6899  -16.1653 N   0  0  0  0  0  0  0  0  0  0  0  0
   24.4215  -13.3467  -17.0165 C   0  0  0  0  0  0  0  0  0  0  0  0
   23.7322  -14.4719  -17.2834 N   0  0  0  0  0  0  0  0  0  0  0  0
   24.1748  -18.8459  -15.0667 C   0  0  0  0  0  0  0  0  0  0  0  0
   24.1546  -19.9990  -15.5974 O   0  0  0  0  0  0  0  0  0  0  0  0
   25.0800  -20.8824   -9.5883 N   0  0  0  0  0  0  0  0  0  0  0  0
   23.8549  -21.5383   -9.7999 C   0  0  0  0  0  0  0  0  0  0  0  0
   23.4337  -22.3527   -8.9704 O   0  0  0  0  0  0  0  0  0  0  0  0
   23.0676  -21.2329  -11.0500 C   0  0  0  0  0  0  0  0  0  0  0  0
   23.7379  -20.1472  -11.8408 C   0  0  0  0  0  0  0  0  0  0  0  0
   23.0156  -19.8797  -13.1092 C   0  0  2  0  0  0  0  0  0  0  0  0
   23.5843  -18.7161  -13.8014 N   0  0  0  0  0  0  0  0  0  0  0  0
   21.5780  -19.7182  -12.9134 C   0  0  0  0  0  0  0  0  0  0  0  0
   20.9612  -18.5499  -12.5389 O   0  0  0  0  0  0  0  0  0  0  0  0
   20.8240  -20.7231  -13.0952 O   0  0  0  0  0  0  0  0  0  0  0  0
  2  1  1  1
  2  3  1  0
  4  5  1  0
  4  2  1  0
  5  6  1  6
  7  8  2  0
  7  5  1  0
  9  7  1  0
 10  9  1  0
 11 12  1  0
 10 11  1  6
 12 13  2  0
 12 16  1  0
 13 14  1  0
 14 15  1  0
 16 15  2  0
 17 18  2  0
 17 10  1  0
 19 20  1  0
 20 22  1  0
 21 20  2  0
 22 23  1  0
 24 23  1  1
 24 25  1  0
 25 17  1  0
 26 24  1  0
 27 26  1  0
 28 26  2  0
M  END
$$$$
