LHQ.pdb
     RDKit          3D

 28 28  0  0  1  0  0  0  0  0999 V2000
   27.2804  -17.8787  -18.6444 C   0  0  0  0  0  0  0  0  0  0  0  0
   27.6869  -17.4458  -17.2536 C   0  0  1  0  0  0  0  0  0  0  0  0
   27.2823  -16.0189  -17.0731 C   0  0  0  0  0  0  0  0  0  0  0  0
   27.0799  -18.3873  -16.2569 C   0  0  0  0  0  0  0  0  0  0  0  0
   25.6819  -18.8078  -16.7182 C   0  0  2  0  0  0  0  0  0  0  0  0
   24.8909  -17.6844  -17.1066 N   0  0  0  0  0  0  0  0  0  0  0  0
   25.0305  -19.6699  -15.7153 C   0  0  0  0  0  0  0  0  0  0  0  0
   25.6067  -20.7287  -15.3554 O   0  0  0  0  0  0  0  0  0  0  0  0
   23.7609  -19.3376  -15.1386 N   0  0  0  0  0  0  0  0  0  0  0  0
   23.1361  -20.1444  -14.1356 C   0  0  1  0  0  0  0  0  0  0  0  0
   23.1521  -19.4667  -12.7842 C   0  0  0  0  0  0  0  0  0  0  0  0
   24.0467  -20.2119  -11.8624 C   0  0  0  0  0  0  0  0  0  0  0  0
   24.7371  -21.3778  -12.1870 C   0  0  0  0  0  0  0  0  0  0  0  0
   25.4309  -21.7521  -11.1119 N   0  0  0  0  0  0  0  0  0  0  0  0
   25.2205  -20.8865  -10.1161 C   0  0  0  0  0  0  0  0  0  0  0  0
   24.3739  -19.9544  -10.5927 N   0  0  0  0  0  0  0  0  0  0  0  0
   21.7935  -20.5598  -14.5482 C   0  0  0  0  0  0  0  0  0  0  0  0
   21.0876  -19.7302  -15.2003 O   0  0  0  0  0  0  0  0  0  0  0  0
   19.7160  -26.2868  -15.2244 N   0  0  0  0  0  0  0  0  0  0  0  0
   20.1355  -25.5348  -16.3355 C   0  0  0  0  0  0  0  0  0  0  0  0
   20.5112  -26.1045  -17.3664 O   0  0  0  0  0  0  0  0  0  0  0  0
   20.1192  -24.0288  -16.2482 C   0  0  0  0  0  0  0  0  0  0  0  0
   19.6726  -23.5864  -14.8851 C   0  0  0  0  0  0  0  0  0  0  0  0
   19.8512  -22.1240  -14.7075 C   0  0  2  0  0  0  0  0  0  0  0  0
   21.2204  -21.8109  -14.2785 N   0  0  0  0  0  0  0  0  0  0  0  0
   18.8730  -21.5460  -13.7909 C   0  0  0  0  0  0  0  0  0  0  0  0
   17.5474  -21.3387  -14.0832 O   0  0  0  0  0  0  0  0  0  0  0  0
   19.2580  -21.1992  -12.6321 O   0  0  0  0  0  0  0  0  0  0  0  0
  2  1  1  6
  2  3  1  0
  4  5  1  0
  4  2  1  0
  5  6  1  1
  7  8  2  0
  7  5  1  0
  9  7  1  0
 10  9  1  0
 11 12  1  0
 10 11  1  1
 12 13  2  0
 12 16  1  0
 13 14  1  0
 14 15  1  0
 16 15  2  0
 17 18  2  0
 17 10  1  0
 19 20  1  0
 20 22  1  0
 21 20  2  0
 22 23  1  0
 24 23  1  1
 24 25  1  0
 25 17  1  0
 26 24  1  0
 27 26  1  0
 28 26  2  0
M  END
$$$$
