LHQ.pdb
     RDKit          3D

 28 28  0  0  1  0  0  0  0  0999 V2000
   28.2280  -19.1808   -7.4908 C   0  0  0  0  0  0  0  0  0  0  0  0
   27.4012  -20.3372   -8.0063 C   0  0  1  0  0  0  0  0  0  0  0  0
   26.6932  -20.9574   -6.8460 C   0  0  0  0  0  0  0  0  0  0  0  0
   26.4893  -19.8366   -9.0862 C   0  0  0  0  0  0  0  0  0  0  0  0
   25.8251  -21.0174   -9.7993 C   0  0  2  0  0  0  0  0  0  0  0  0
   26.7391  -22.0944  -10.0071 N   0  0  0  0  0  0  0  0  0  0  0  0
   25.1425  -20.5769  -11.0296 C   0  0  0  0  0  0  0  0  0  0  0  0
   24.4754  -19.5105  -11.0078 O   0  0  0  0  0  0  0  0  0  0  0  0
   25.2165  -21.3272  -12.2488 N   0  0  0  0  0  0  0  0  0  0  0  0
   24.5842  -20.8957  -13.4578 C   0  0  1  0  0  0  0  0  0  0  0  0
   25.4925  -21.0665  -14.6543 C   0  0  0  0  0  0  0  0  0  0  0  0
   26.6367  -20.1255  -14.5511 C   0  0  0  0  0  0  0  0  0  0  0  0
   27.9349  -20.4817  -14.1920 C   0  0  0  0  0  0  0  0  0  0  0  0
   28.6791  -19.3757  -14.2079 N   0  0  0  0  0  0  0  0  0  0  0  0
   27.9247  -18.3301  -14.5584 C   0  0  0  0  0  0  0  0  0  0  0  0
   26.6825  -18.8070  -14.7636 N   0  0  0  0  0  0  0  0  0  0  0  0
   23.2813  -21.5409  -13.6354 C   0  0  0  0  0  0  0  0  0  0  0  0
   23.1955  -22.7850  -13.3975 O   0  0  0  0  0  0  0  0  0  0  0  0
   19.8675  -22.6273   -9.9816 N   0  0  0  0  0  0  0  0  0  0  0  0
   18.8903  -22.9082  -10.9521 C   0  0  0  0  0  0  0  0  0  0  0  0
   17.8217  -23.4365  -10.6244 O   0  0  0  0  0  0  0  0  0  0  0  0
   19.1669  -22.5555  -12.3926 C   0  0  0  0  0  0  0  0  0  0  0  0
   20.5239  -21.9283  -12.5286 C   0  0  0  0  0  0  0  0  0  0  0  0
   20.8004  -21.5409  -13.9342 C   0  0  2  0  0  0  0  0  0  0  0  0
   22.1112  -20.8891  -14.0506 N   0  0  0  0  0  0  0  0  0  0  0  0
   19.7492  -20.7025  -14.5027 C   0  0  0  0  0  0  0  0  0  0  0  0
   18.4797  -21.1293  -14.8054 O   0  0  0  0  0  0  0  0  0  0  0  0
   20.0097  -19.4841  -14.7459 O   0  0  0  0  0  0  0  0  0  0  0  0
  2  1  1  1
  2  3  1  0
  4  5  1  0
  4  2  1  0
  5  6  1  6
  7  8  2  0
  7  5  1  0
  9  7  1  0
 10  9  1  0
 11 12  1  0
 10 11  1  6
 12 13  2  0
 12 16  1  0
 13 14  1  0
 14 15  1  0
 16 15  2  0
 17 18  2  0
 17 10  1  0
 19 20  1  0
 20 22  1  0
 21 20  2  0
 22 23  1  0
 24 23  1  1
 24 25  1  0
 25 17  1  0
 26 24  1  0
 27 26  1  0
 28 26  2  0
M  END
$$$$
