LHQ.pdb
     RDKit          3D

 28 28  0  0  1  0  0  0  0  0999 V2000
   27.7357  -18.9740  -20.0266 C   0  0  0  0  0  0  0  0  0  0  0  0
   28.3770  -19.8879  -19.0067 C   0  0  1  0  0  0  0  0  0  0  0  0
   29.5249  -19.1602  -18.3859 C   0  0  0  0  0  0  0  0  0  0  0  0
   27.3305  -20.3322  -18.0291 C   0  0  0  0  0  0  0  0  0  0  0  0
   27.9720  -21.1716  -16.9211 C   0  0  2  0  0  0  0  0  0  0  0  0
   28.4995  -22.3996  -17.4233 N   0  0  0  0  0  0  0  0  0  0  0  0
   27.0469  -21.3468  -15.7867 C   0  0  0  0  0  0  0  0  0  0  0  0
   26.1777  -22.2545  -15.8437 O   0  0  0  0  0  0  0  0  0  0  0  0
   27.1085  -20.5140  -14.6215 N   0  0  0  0  0  0  0  0  0  0  0  0
   26.2614  -20.7150  -13.4859 C   0  0  1  0  0  0  0  0  0  0  0  0
   26.8370  -20.0792  -12.2408 C   0  0  0  0  0  0  0  0  0  0  0  0
   25.9449  -20.3485  -11.0845 C   0  0  0  0  0  0  0  0  0  0  0  0
   24.7477  -21.0584  -11.1467 C   0  0  0  0  0  0  0  0  0  0  0  0
   24.2310  -21.0926   -9.9182 N   0  0  0  0  0  0  0  0  0  0  0  0
   25.0353  -20.4417   -9.0730 C   0  0  0  0  0  0  0  0  0  0  0  0
   26.0750  -19.9950   -9.8024 N   0  0  0  0  0  0  0  0  0  0  0  0
   24.8896  -20.2832  -13.7634 C   0  0  0  0  0  0  0  0  0  0  0  0
   24.7188  -19.3412  -14.5972 O   0  0  0  0  0  0  0  0  0  0  0  0
   21.6227  -16.9818  -14.6409 N   0  0  0  0  0  0  0  0  0  0  0  0
   20.7169  -17.8756  -15.2379 C   0  0  0  0  0  0  0  0  0  0  0  0
   19.6021  -17.4824  -15.6002 O   0  0  0  0  0  0  0  0  0  0  0  0
   21.1267  -19.3150  -15.4277 C   0  0  0  0  0  0  0  0  0  0  0  0
   22.4784  -19.5605  -14.8229 C   0  0  0  0  0  0  0  0  0  0  0  0
   22.4065  -20.5626  -13.7309 C   0  0  2  0  0  0  0  0  0  0  0  0
   23.7398  -20.8316  -13.1770 N   0  0  0  0  0  0  0  0  0  0  0  0
   21.7558  -21.8012  -14.1473 C   0  0  0  0  0  0  0  0  0  0  0  0
   20.3994  -21.9733  -14.2744 O   0  0  0  0  0  0  0  0  0  0  0  0
   22.4813  -22.8082  -14.4136 O   0  0  0  0  0  0  0  0  0  0  0  0
  2  1  1  6
  2  3  1  0
  4  5  1  0
  4  2  1  0
  5  6  1  6
  7  8  2  0
  7  5  1  0
  9  7  1  0
 10  9  1  0
 11 12  1  0
 10 11  1  1
 12 13  2  0
 12 16  1  0
 13 14  1  0
 14 15  1  0
 16 15  2  0
 17 18  2  0
 17 10  1  0
 19 20  1  0
 20 22  1  0
 21 20  2  0
 22 23  1  0
 24 23  1  6
 24 25  1  0
 25 17  1  0
 26 24  1  0
 27 26  1  0
 28 26  2  0
M  END
$$$$
