VTL.pdb
     RDKit          3D

 23 22  0  0  1  0  0  0  0  0999 V2000
    8.6634  -12.6049   17.8232 C   0  0  0  0  0  0  0  0  0  0  0  0
    7.9409  -13.2953   18.9633 C   0  0  2  0  0  0  0  0  0  0  0  0
    8.0636  -12.4071   20.1749 C   0  0  0  0  0  0  0  0  0  0  0  0
    8.5660  -14.6455   19.1522 C   0  0  2  0  0  0  0  0  0  0  0  0
    8.4726  -15.3549   17.8927 N   0  0  0  0  0  0  0  0  0  0  0  0
    7.9944  -15.4298   20.2386 C   0  0  0  0  0  0  0  0  0  0  0  0
    6.8217  -15.8826   20.2623 O   0  0  0  0  0  0  0  0  0  0  0  0
    8.1693  -18.6066   21.4607 C   0  0  0  0  0  0  0  0  0  0  0  0
    8.6748  -17.8101   22.6345 C   0  0  1  0  0  0  0  0  0  0  0  0
   10.0636  -17.9079   22.6567 O   0  0  0  0  0  0  0  0  0  0  0  0
    8.2347  -16.3540   22.5423 C   0  0  2  0  0  0  0  0  0  0  0  0
    8.8051  -15.7196   21.3715 N   0  0  0  0  0  0  0  0  0  0  0  0
    8.6382  -15.6103   23.7614 C   0  0  0  0  0  0  0  0  0  0  0  0
    9.7584  -15.0504   23.8341 O   0  0  0  0  0  0  0  0  0  0  0  0
    5.7738  -12.0652   26.7904 C   0  0  0  0  0  0  0  0  0  0  0  0
    7.1651  -12.6714   26.8842 C   0  0  2  0  0  0  0  0  0  0  0  0
    7.9508  -12.0287   25.7521 C   0  0  0  0  0  0  0  0  0  0  0  0
    7.0322  -14.1370   26.7025 C   0  0  0  0  0  0  0  0  0  0  0  0
    8.1998  -14.8320   26.0701 C   0  0  2  0  0  0  0  0  0  0  0  0
    7.7866  -15.5088   24.8663 N   0  0  0  0  0  0  0  0  0  0  0  0
    8.9683  -15.6969   26.9796 C   0  0  0  0  0  0  0  0  0  0  0  0
    9.6245  -15.3263   27.9609 O   0  0  0  0  0  0  0  0  0  0  0  0
    8.9739  -17.0671   26.7343 O   0  0  0  0  0  0  0  0  0  0  0  0
  2  1  1  6
  2  4  1  0
  2  3  1  0
  4  6  1  0
  4  5  1  6
  6  7  2  0
  9  8  1  6
  9 11  1  0
 10  9  1  0
 11 12  1  6
 12  6  1  0
 13 11  1  0
 13 20  1  0
 14 13  2  0
 16 15  1  6
 16 17  1  0
 18 16  1  0
 19 20  1  0
 19 18  1  1
 21 19  1  0
 22 21  2  0
 23 21  1  0
M  END
$$$$
