VTL.pdb
     RDKit          3D

 23 22  0  0  1  0  0  0  0  0999 V2000
    8.4713  -12.4237   18.8563 C   0  0  0  0  0  0  0  0  0  0  0  0
    8.1855  -13.3611   20.0132 C   0  0  2  0  0  0  0  0  0  0  0  0
    8.8319  -12.7694   21.2395 C   0  0  0  0  0  0  0  0  0  0  0  0
    8.7251  -14.7132   19.6525 C   0  0  2  0  0  0  0  0  0  0  0  0
    8.0875  -15.1279   18.4196 N   0  0  0  0  0  0  0  0  0  0  0  0
    8.5668  -15.7238   20.6896 C   0  0  0  0  0  0  0  0  0  0  0  0
    7.7954  -16.7143   20.6203 O   0  0  0  0  0  0  0  0  0  0  0  0
    9.2734  -18.3621   20.9981 C   0  0  0  0  0  0  0  0  0  0  0  0
   10.0036  -17.9283   22.2416 C   0  0  1  0  0  0  0  0  0  0  0  0
   11.3324  -17.6897   21.9009 O   0  0  0  0  0  0  0  0  0  0  0  0
    9.3669  -16.6834   22.8478 C   0  0  2  0  0  0  0  0  0  0  0  0
    9.3328  -15.6037   21.8827 N   0  0  0  0  0  0  0  0  0  0  0  0
   10.1141  -16.2523   24.0553 C   0  0  0  0  0  0  0  0  0  0  0  0
   11.0628  -15.4361   23.9694 O   0  0  0  0  0  0  0  0  0  0  0  0
    8.5526  -13.8403   28.9810 C   0  0  0  0  0  0  0  0  0  0  0  0
    9.7519  -14.5927   28.4264 C   0  0  2  0  0  0  0  0  0  0  0  0
   10.8112  -13.5268   28.1942 C   0  0  0  0  0  0  0  0  0  0  0  0
    9.3324  -15.2403   27.1602 C   0  0  0  0  0  0  0  0  0  0  0  0
   10.3379  -16.1476   26.5185 C   0  0  2  0  0  0  0  0  0  0  0  0
    9.7872  -16.7395   25.3250 N   0  0  0  0  0  0  0  0  0  0  0  0
   10.9406  -17.1383   27.4246 C   0  0  0  0  0  0  0  0  0  0  0  0
   12.0822  -17.0954   27.8998 O   0  0  0  0  0  0  0  0  0  0  0  0
   10.1740  -18.2384   27.7982 O   0  0  0  0  0  0  0  0  0  0  0  0
  2  1  1  6
  2  4  1  0
  2  3  1  0
  4  6  1  0
  4  5  1  6
  6  7  2  0
  9  8  1  6
  9 11  1  0
 10  9  1  0
 11 12  1  6
 12  6  1  0
 13 11  1  0
 13 20  1  0
 14 13  2  0
 16 15  1  6
 16 17  1  0
 18 16  1  0
 19 20  1  0
 19 18  1  1
 21 19  1  0
 22 21  2  0
 23 21  1  0
M  END
$$$$
