VTL.pdb
     RDKit          3D

 23 22  0  0  1  0  0  0  0  0999 V2000
    8.3756  -12.3673   18.7187 C   0  0  0  0  0  0  0  0  0  0  0  0
    8.0913  -13.2961   19.8829 C   0  0  2  0  0  0  0  0  0  0  0  0
    8.5454  -12.5943   21.1371 C   0  0  0  0  0  0  0  0  0  0  0  0
    8.8154  -14.5848   19.6293 C   0  0  2  0  0  0  0  0  0  0  0  0
    8.4278  -15.0575   18.3160 N   0  0  0  0  0  0  0  0  0  0  0  0
    8.5967  -15.6103   20.6405 C   0  0  0  0  0  0  0  0  0  0  0  0
    7.8120  -16.5855   20.5214 O   0  0  0  0  0  0  0  0  0  0  0  0
    9.0172  -18.2740   20.9701 C   0  0  0  0  0  0  0  0  0  0  0  0
    9.8059  -17.8979   22.1965 C   0  0  1  0  0  0  0  0  0  0  0  0
   11.1398  -17.7526   21.8242 O   0  0  0  0  0  0  0  0  0  0  0  0
    9.2738  -16.6135   22.8209 C   0  0  2  0  0  0  0  0  0  0  0  0
    9.3144  -15.5247   21.8662 N   0  0  0  0  0  0  0  0  0  0  0  0
   10.0639  -16.2538   24.0244 C   0  0  0  0  0  0  0  0  0  0  0  0
   11.0260  -15.4524   23.9485 O   0  0  0  0  0  0  0  0  0  0  0  0
    8.5567  -13.4666   28.5531 C   0  0  0  0  0  0  0  0  0  0  0  0
    9.7043  -14.3951   28.1892 C   0  0  2  0  0  0  0  0  0  0  0  0
   10.9123  -13.4847   28.0341 C   0  0  0  0  0  0  0  0  0  0  0  0
    9.3533  -15.0694   26.9161 C   0  0  0  0  0  0  0  0  0  0  0  0
   10.2552  -16.1886   26.4917 C   0  0  2  0  0  0  0  0  0  0  0  0
    9.7640  -16.7940   25.2792 N   0  0  0  0  0  0  0  0  0  0  0  0
   10.5533  -17.1728   27.5444 C   0  0  0  0  0  0  0  0  0  0  0  0
    9.8788  -18.1718   27.8236 O   0  0  0  0  0  0  0  0  0  0  0  0
   11.6978  -16.9848   28.3141 O   0  0  0  0  0  0  0  0  0  0  0  0
  2  1  1  6
  2  4  1  0
  2  3  1  0
  4  6  1  0
  4  5  1  6
  6  7  2  0
  9  8  1  6
  9 11  1  0
 10  9  1  0
 11 12  1  6
 12  6  1  0
 13 11  1  0
 13 20  1  0
 14 13  2  0
 16 15  1  6
 16 17  1  0
 18 16  1  0
 19 20  1  0
 19 18  1  1
 21 19  1  0
 22 21  2  0
 23 21  1  0
M  END
$$$$
