VTL.pdb
     RDKit          3D

 23 22  0  0  1  0  0  0  0  0999 V2000
    8.5472  -12.4257   18.1455 C   0  0  0  0  0  0  0  0  0  0  0  0
    7.8823  -13.3330   19.1621 C   0  0  2  0  0  0  0  0  0  0  0  0
    7.8456  -12.5876   20.4716 C   0  0  0  0  0  0  0  0  0  0  0  0
    8.6721  -14.6064   19.2267 C   0  0  2  0  0  0  0  0  0  0  0  0
    8.6130  -15.2287   17.9199 N   0  0  0  0  0  0  0  0  0  0  0  0
    8.2435  -15.5316   20.2671 C   0  0  0  0  0  0  0  0  0  0  0  0
    7.6287  -16.6097   20.0656 O   0  0  0  0  0  0  0  0  0  0  0  0
   10.1342  -17.5462   22.0955 C   0  0  0  0  0  0  0  0  0  0  0  0
    8.6558  -17.5361   22.3818 C   0  0  1  0  0  0  0  0  0  0  0  0
    8.4185  -18.3882   23.4572 O   0  0  0  0  0  0  0  0  0  0  0  0
    8.1638  -16.1264   22.6876 C   0  0  2  0  0  0  0  0  0  0  0  0
    8.5307  -15.2139   21.6240 N   0  0  0  0  0  0  0  0  0  0  0  0
    8.7256  -15.6470   23.9747 C   0  0  0  0  0  0  0  0  0  0  0  0
    9.9383  -15.3423   24.0755 O   0  0  0  0  0  0  0  0  0  0  0  0
    8.1123  -11.9518   26.0010 C   0  0  0  0  0  0  0  0  0  0  0  0
    6.9796  -12.9556   26.1471 C   0  0  2  0  0  0  0  0  0  0  0  0
    5.8569  -12.1851   26.8238 C   0  0  0  0  0  0  0  0  0  0  0  0
    7.4712  -14.0714   26.9908 C   0  0  0  0  0  0  0  0  0  0  0  0
    8.4581  -14.9988   26.3488 C   0  0  2  0  0  0  0  0  0  0  0  0
    7.9253  -15.5192   25.1146 N   0  0  0  0  0  0  0  0  0  0  0  0
    8.9829  -16.0498   27.2354 C   0  0  0  0  0  0  0  0  0  0  0  0
    8.7872  -17.2663   27.1230 O   0  0  0  0  0  0  0  0  0  0  0  0
    9.7784  -15.6648   28.3108 O   0  0  0  0  0  0  0  0  0  0  0  0
  2  1  1  6
  2  4  1  0
  2  3  1  0
  4  6  1  0
  4  5  1  6
  6  7  2  0
  9  8  1  1
  9 11  1  0
 10  9  1  0
 11 12  1  6
 12  6  1  0
 13 11  1  0
 13 20  1  0
 14 13  2  0
 16 15  1  1
 16 17  1  0
 18 16  1  0
 19 20  1  0
 19 18  1  1
 21 19  1  0
 22 21  2  0
 23 21  1  0
M  END
$$$$
