VTL.pdb
     RDKit          3D

 23 22  0  0  1  0  0  0  0  0999 V2000
    7.0090  -12.9697   19.1380 C   0  0  0  0  0  0  0  0  0  0  0  0
    8.4987  -13.1959   18.9688 C   0  0  2  0  0  0  0  0  0  0  0  0
    8.9388  -12.4009   17.7663 C   0  0  0  0  0  0  0  0  0  0  0  0
    8.7248  -14.6710   18.8195 C   0  0  2  0  0  0  0  0  0  0  0  0
    8.1141  -15.0869   17.5735 N   0  0  0  0  0  0  0  0  0  0  0  0
    8.2388  -15.4731   19.9342 C   0  0  0  0  0  0  0  0  0  0  0  0
    7.1046  -16.0122   19.9948 O   0  0  0  0  0  0  0  0  0  0  0  0
    9.0223  -18.5900   21.1663 C   0  0  0  0  0  0  0  0  0  0  0  0
    9.2835  -17.7276   22.3728 C   0  0  1  0  0  0  0  0  0  0  0  0
   10.6618  -17.5888   22.5141 O   0  0  0  0  0  0  0  0  0  0  0  0
    8.6127  -16.3664   22.2323 C   0  0  2  0  0  0  0  0  0  0  0  0
    9.0944  -15.6772   21.0527 N   0  0  0  0  0  0  0  0  0  0  0  0
    8.8647  -15.5354   23.4356 C   0  0  0  0  0  0  0  0  0  0  0  0
    9.8166  -14.7190   23.4678 O   0  0  0  0  0  0  0  0  0  0  0  0
    5.8576  -12.4485   27.4462 C   0  0  0  0  0  0  0  0  0  0  0  0
    7.2023  -13.1335   27.2611 C   0  0  2  0  0  0  0  0  0  0  0  0
    8.2094  -11.9994   27.1533 C   0  0  0  0  0  0  0  0  0  0  0  0
    7.1341  -13.9326   26.0139 C   0  0  0  0  0  0  0  0  0  0  0  0
    8.3022  -14.8311   25.7413 C   0  0  2  0  0  0  0  0  0  0  0  0
    8.0527  -15.6339   24.5702 N   0  0  0  0  0  0  0  0  0  0  0  0
    8.7516  -15.6251   26.8960 C   0  0  0  0  0  0  0  0  0  0  0  0
    9.2466  -15.1821   27.9399 O   0  0  0  0  0  0  0  0  0  0  0  0
    8.6179  -17.0092   26.8333 O   0  0  0  0  0  0  0  0  0  0  0  0
  2  1  1  6
  2  4  1  0
  2  3  1  0
  4  6  1  0
  4  5  1  6
  6  7  2  0
  9  8  1  6
  9 11  1  0
 10  9  1  0
 11 12  1  6
 12  6  1  0
 13 11  1  0
 13 20  1  0
 14 13  2  0
 16 15  1  6
 16 17  1  0
 18 16  1  0
 19 20  1  0
 19 18  1  1
 21 19  1  0
 22 21  2  0
 23 21  1  0
M  END
$$$$
