VTL.pdb
     RDKit          3D

 23 22  0  0  1  0  0  0  0  0999 V2000
    7.4298  -12.6583   19.4400 C   0  0  0  0  0  0  0  0  0  0  0  0
    8.8726  -13.1241   19.4319 C   0  0  2  0  0  0  0  0  0  0  0  0
    9.5569  -12.4424   18.2748 C   0  0  0  0  0  0  0  0  0  0  0  0
    8.8713  -14.6199   19.3222 C   0  0  2  0  0  0  0  0  0  0  0  0
    8.2890  -14.9677   18.0422 N   0  0  0  0  0  0  0  0  0  0  0  0
    8.1890  -15.3055   20.4115 C   0  0  0  0  0  0  0  0  0  0  0  0
    6.9638  -15.5869   20.4319 O   0  0  0  0  0  0  0  0  0  0  0  0
    7.9321  -18.5036   21.4926 C   0  0  0  0  0  0  0  0  0  0  0  0
    8.5704  -17.8344   22.6809 C   0  0  1  0  0  0  0  0  0  0  0  0
    9.9385  -18.0901   22.6372 O   0  0  0  0  0  0  0  0  0  0  0  0
    8.2984  -16.3348   22.6802 C   0  0  2  0  0  0  0  0  0  0  0  0
    8.9449  -15.6974   21.5515 N   0  0  0  0  0  0  0  0  0  0  0  0
    8.7748  -15.7190   23.9435 C   0  0  0  0  0  0  0  0  0  0  0  0
    9.9611  -15.3289   24.0635 O   0  0  0  0  0  0  0  0  0  0  0  0
    7.9497  -11.9459   25.8868 C   0  0  0  0  0  0  0  0  0  0  0  0
    6.8262  -12.9649   25.9933 C   0  0  2  0  0  0  0  0  0  0  0  0
    5.6731  -12.2123   26.6383 C   0  0  0  0  0  0  0  0  0  0  0  0
    7.3060  -14.0783   26.8468 C   0  0  0  0  0  0  0  0  0  0  0  0
    8.3810  -14.9429   26.2610 C   0  0  2  0  0  0  0  0  0  0  0  0
    7.9209  -15.5532   25.0388 N   0  0  0  0  0  0  0  0  0  0  0  0
    8.9723  -15.9110   27.1985 C   0  0  0  0  0  0  0  0  0  0  0  0
    8.8262  -17.1393   27.1701 O   0  0  0  0  0  0  0  0  0  0  0  0
    9.7772  -15.4240   28.2244 O   0  0  0  0  0  0  0  0  0  0  0  0
  2  1  1  6
  2  4  1  0
  2  3  1  0
  4  6  1  0
  4  5  1  6
  6  7  2  0
  9  8  1  6
  9 11  1  0
 10  9  1  0
 11 12  1  6
 12  6  1  0
 13 11  1  0
 13 20  1  0
 14 13  2  0
 16 15  1  1
 16 17  1  0
 18 16  1  0
 19 20  1  0
 19 18  1  1
 21 19  1  0
 22 21  2  0
 23 21  1  0
M  END
$$$$
