VTL.pdb
     RDKit          3D

 23 22  0  0  1  0  0  0  0  0999 V2000
    9.4133  -12.4964   20.0691 C   0  0  0  0  0  0  0  0  0  0  0  0
    8.6875  -13.2025   18.9407 C   0  0  2  0  0  0  0  0  0  0  0  0
    7.2468  -12.7623   18.9899 C   0  0  0  0  0  0  0  0  0  0  0  0
    8.8632  -14.6792   19.1351 C   0  0  2  0  0  0  0  0  0  0  0  0
    8.3916  -15.3412   17.9360 N   0  0  0  0  0  0  0  0  0  0  0  0
    8.2083  -15.2151   20.3209 C   0  0  0  0  0  0  0  0  0  0  0  0
    6.9939  -15.5323   20.3934 O   0  0  0  0  0  0  0  0  0  0  0  0
    8.2184  -18.2641   21.5123 C   0  0  0  0  0  0  0  0  0  0  0  0
    8.7849  -17.5279   22.6974 C   0  0  1  0  0  0  0  0  0  0  0  0
   10.1685  -17.6846   22.6820 O   0  0  0  0  0  0  0  0  0  0  0  0
    8.4055  -16.0523   22.6617 C   0  0  2  0  0  0  0  0  0  0  0  0
    8.9806  -15.4035   21.5011 N   0  0  0  0  0  0  0  0  0  0  0  0
    8.8629  -15.3674   23.8961 C   0  0  0  0  0  0  0  0  0  0  0  0
    9.9858  -14.8105   23.9464 O   0  0  0  0  0  0  0  0  0  0  0  0
    7.7774  -11.7121   25.8254 C   0  0  0  0  0  0  0  0  0  0  0  0
    6.7613  -12.8311   25.9905 C   0  0  2  0  0  0  0  0  0  0  0  0
    5.5634  -12.1781   26.6619 C   0  0  0  0  0  0  0  0  0  0  0  0
    7.3743  -13.8746   26.8472 C   0  0  0  0  0  0  0  0  0  0  0  0
    8.5033  -14.6493   26.2378 C   0  0  2  0  0  0  0  0  0  0  0  0
    8.0607  -15.3198   25.0409 N   0  0  0  0  0  0  0  0  0  0  0  0
    9.2099  -15.5438   27.1686 C   0  0  0  0  0  0  0  0  0  0  0  0
    9.8489  -15.1995   28.1705 O   0  0  0  0  0  0  0  0  0  0  0  0
    9.1711  -16.9129   26.9204 O   0  0  0  0  0  0  0  0  0  0  0  0
  2  1  1  1
  2  4  1  0
  2  3  1  0
  4  6  1  0
  4  5  1  6
  6  7  2  0
  9  8  1  6
  9 11  1  0
 10  9  1  0
 11 12  1  6
 12  6  1  0
 13 11  1  0
 13 20  1  0
 14 13  2  0
 16 15  1  1
 16 17  1  0
 18 16  1  0
 19 20  1  0
 19 18  1  1
 21 19  1  0
 22 21  2  0
 23 21  1  0
M  END
$$$$
