VTL.pdb
     RDKit          3D

 23 22  0  0  1  0  0  0  0  0999 V2000
    8.4082  -12.6853   17.6936 C   0  0  0  0  0  0  0  0  0  0  0  0
    7.9155  -13.3659   18.9557 C   0  0  2  0  0  0  0  0  0  0  0  0
    8.3517  -12.5167   20.1221 C   0  0  0  0  0  0  0  0  0  0  0  0
    8.4889  -14.7514   18.9838 C   0  0  2  0  0  0  0  0  0  0  0  0
    8.0606  -15.4305   17.7780 N   0  0  0  0  0  0  0  0  0  0  0  0
    8.1454  -15.5241   20.1700 C   0  0  0  0  0  0  0  0  0  0  0  0
    7.0064  -15.9941   20.4203 O   0  0  0  0  0  0  0  0  0  0  0  0
    9.6534  -18.6639   21.4333 C   0  0  0  0  0  0  0  0  0  0  0  0
    9.7892  -17.6692   22.5557 C   0  0  1  0  0  0  0  0  0  0  0  0
   11.1148  -17.2452   22.5988 O   0  0  0  0  0  0  0  0  0  0  0  0
    8.8473  -16.4871   22.3606 C   0  0  2  0  0  0  0  0  0  0  0  0
    9.1591  -15.7805   21.1351 N   0  0  0  0  0  0  0  0  0  0  0  0
    8.9363  -15.5554   23.5122 C   0  0  0  0  0  0  0  0  0  0  0  0
    9.6012  -14.4945   23.4337 O   0  0  0  0  0  0  0  0  0  0  0  0
    5.7614  -12.3821   26.9500 C   0  0  0  0  0  0  0  0  0  0  0  0
    7.1252  -13.0528   26.9954 C   0  0  2  0  0  0  0  0  0  0  0  0
    8.1268  -11.9144   26.8813 C   0  0  0  0  0  0  0  0  0  0  0  0
    7.2103  -13.9815   25.8426 C   0  0  0  0  0  0  0  0  0  0  0  0
    8.3754  -14.9242   25.8393 C   0  0  2  0  0  0  0  0  0  0  0  0
    8.2844  -15.8274   24.7195 N   0  0  0  0  0  0  0  0  0  0  0  0
    8.6118  -15.6160   27.1165 C   0  0  0  0  0  0  0  0  0  0  0  0
    8.8487  -15.0793   28.2059 O   0  0  0  0  0  0  0  0  0  0  0  0
    8.5705  -17.0073   27.1272 O   0  0  0  0  0  0  0  0  0  0  0  0
  2  1  1  6
  2  4  1  0
  2  3  1  0
  4  6  1  0
  4  5  1  6
  6  7  2  0
  9  8  1  6
  9 11  1  0
 10  9  1  0
 11 12  1  6
 12  6  1  0
 13 11  1  0
 13 20  1  0
 14 13  2  0
 16 15  1  6
 16 17  1  0
 18 16  1  0
 19 20  1  0
 19 18  1  1
 21 19  1  0
 22 21  2  0
 23 21  1  0
M  END
$$$$
