VTL.pdb
     RDKit          3D

 23 22  0  0  1  0  0  0  0  0999 V2000
   14.4592  -17.0998   20.7841 C   0  0  0  0  0  0  0  0  0  0  0  0
   13.2889  -16.3107   21.3378 C   0  0  2  0  0  0  0  0  0  0  0  0
   13.1818  -16.6383   22.8051 C   0  0  0  0  0  0  0  0  0  0  0  0
   12.0675  -16.6909   20.5548 C   0  0  2  0  0  0  0  0  0  0  0  0
   12.3353  -16.4148   19.1582 N   0  0  0  0  0  0  0  0  0  0  0  0
   10.8413  -16.0372   20.9920 C   0  0  0  0  0  0  0  0  0  0  0  0
   10.4853  -14.8770   20.6632 O   0  0  0  0  0  0  0  0  0  0  0  0
    7.5522  -18.3539   22.1778 C   0  0  0  0  0  0  0  0  0  0  0  0
    7.5247  -16.9142   21.7373 C   0  0  1  0  0  0  0  0  0  0  0  0
    6.3265  -16.3529   22.1710 O   0  0  0  0  0  0  0  0  0  0  0  0
    8.7170  -16.1452   22.2937 C   0  0  2  0  0  0  0  0  0  0  0  0
    9.9617  -16.7448   21.8581 N   0  0  0  0  0  0  0  0  0  0  0  0
    8.6689  -16.1125   23.7765 C   0  0  0  0  0  0  0  0  0  0  0  0
    9.4537  -16.8102   24.4628 O   0  0  0  0  0  0  0  0  0  0  0  0
    8.2170  -12.3531   26.7028 C   0  0  0  0  0  0  0  0  0  0  0  0
    7.0494  -12.8831   25.8856 C   0  0  2  0  0  0  0  0  0  0  0  0
    5.9102  -11.9121   26.1527 C   0  0  0  0  0  0  0  0  0  0  0  0
    6.7387  -14.2480   26.3747 C   0  0  0  0  0  0  0  0  0  0  0  0
    7.6420  -15.3429   25.8934 C   0  0  2  0  0  0  0  0  0  0  0  0
    7.7506  -15.3058   24.4565 N   0  0  0  0  0  0  0  0  0  0  0  0
    7.3163  -16.6819   26.4098 C   0  0  0  0  0  0  0  0  0  0  0  0
    6.5795  -17.5153   25.8681 O   0  0  0  0  0  0  0  0  0  0  0  0
    7.8781  -17.0728   27.6219 O   0  0  0  0  0  0  0  0  0  0  0  0
  2  1  1  6
  2  4  1  0
  2  3  1  0
  4  6  1  0
  4  5  1  6
  6  7  2  0
  9  8  1  1
  9 11  1  0
 10  9  1  0
 11 12  1  1
 12  6  1  0
 13 11  1  0
 13 20  1  0
 14 13  2  0
 16 15  1  1
 16 17  1  0
 18 16  1  0
 19 20  1  0
 19 18  1  6
 21 19  1  0
 22 21  2  0
 23 21  1  0
M  END
$$$$
