VTL.pdb
     RDKit          3D

 23 22  0  0  1  0  0  0  0  0999 V2000
    8.8461  -12.7246   17.7164 C   0  0  0  0  0  0  0  0  0  0  0  0
    8.0990  -13.4212   18.8368 C   0  0  2  0  0  0  0  0  0  0  0  0
    8.1393  -12.5097   20.0366 C   0  0  0  0  0  0  0  0  0  0  0  0
    8.7610  -14.7455   19.0759 C   0  0  2  0  0  0  0  0  0  0  0  0
    8.7301  -15.4853   17.8308 N   0  0  0  0  0  0  0  0  0  0  0  0
    8.1811  -15.5241   20.1620 C   0  0  0  0  0  0  0  0  0  0  0  0
    7.3565  -16.4621   20.0172 O   0  0  0  0  0  0  0  0  0  0  0  0
    7.8780  -18.0546   21.1774 C   0  0  0  0  0  0  0  0  0  0  0  0
    8.4553  -17.4740   22.4413 C   0  0  1  0  0  0  0  0  0  0  0  0
    9.8398  -17.6119   22.3866 O   0  0  0  0  0  0  0  0  0  0  0  0
    8.0616  -16.0108   22.6049 C   0  0  2  0  0  0  0  0  0  0  0  0
    8.5607  -15.2193   21.4991 N   0  0  0  0  0  0  0  0  0  0  0  0
    8.5859  -15.4709   23.8839 C   0  0  0  0  0  0  0  0  0  0  0  0
    9.7790  -15.0968   23.9852 O   0  0  0  0  0  0  0  0  0  0  0  0
    5.6010  -12.2458   26.9941 C   0  0  0  0  0  0  0  0  0  0  0  0
    7.0661  -12.6513   26.9660 C   0  0  2  0  0  0  0  0  0  0  0  0
    7.6061  -12.0827   25.6633 C   0  0  0  0  0  0  0  0  0  0  0  0
    7.1250  -14.1327   26.9891 C   0  0  0  0  0  0  0  0  0  0  0  0
    8.2563  -14.7600   26.2321 C   0  0  2  0  0  0  0  0  0  0  0  0
    7.7708  -15.3612   25.0152 N   0  0  0  0  0  0  0  0  0  0  0  0
    9.0988  -15.6695   27.0250 C   0  0  0  0  0  0  0  0  0  0  0  0
    9.9898  -15.3373   27.8166 O   0  0  0  0  0  0  0  0  0  0  0  0
    8.8939  -17.0397   26.8897 O   0  0  0  0  0  0  0  0  0  0  0  0
  2  1  1  6
  2  4  1  0
  2  3  1  0
  4  6  1  0
  4  5  1  6
  6  7  2  0
  9  8  1  6
  9 11  1  0
 10  9  1  0
 11 12  1  6
 12  6  1  0
 13 11  1  0
 13 20  1  0
 14 13  2  0
 16 15  1  6
 16 17  1  0
 18 16  1  0
 19 20  1  0
 19 18  1  1
 21 19  1  0
 22 21  2  0
 23 21  1  0
M  END
$$$$
