KAQ.pdb
     RDKit          3D

 24 23  0  0  1  0  0  0  0  0999 V2000
   23.9257  -21.3597  -14.0589 N   0  0  0  0  0  0  0  0  0  0  0  0
   24.0241  -22.3167  -15.1235 C   0  0  1  0  0  0  0  0  0  0  0  0
   22.7583  -22.2301  -15.9515 C   0  0  0  0  0  0  0  0  0  0  0  0
   21.5716  -22.2154  -15.0003 C   0  0  0  0  0  0  0  0  0  0  0  0
   20.2552  -22.3521  -15.7255 C   0  0  0  0  0  0  0  0  0  0  0  0
   19.1769  -22.3476  -14.6495 C   0  0  0  0  0  0  0  0  0  0  0  0
   17.8532  -22.5598  -15.1837 N   0  0  0  0  0  0  0  0  0  0  0  0
   25.2590  -22.2208  -15.8985 C   0  0  0  0  0  0  0  0  0  0  0  0
   25.4219  -22.9732  -16.9207 O   0  0  0  0  0  0  0  0  0  0  0  0
   28.3661  -20.0215  -16.0650 C   0  0  0  0  0  0  0  0  0  0  0  0
   27.4956  -21.2032  -16.4848 C   0  0  2  0  0  0  0  0  0  0  0  0
   26.3491  -21.3452  -15.6311 N   0  0  0  0  0  0  0  0  0  0  0  0
   28.3830  -22.3950  -16.4471 C   0  0  0  0  0  0  0  0  0  0  0  0
   28.7270  -22.8250  -15.3190 O   0  0  0  0  0  0  0  0  0  0  0  0
   28.7147  -27.6255  -15.9960 N   0  0  0  0  0  0  0  0  0  0  0  0
   29.6541  -27.7598  -17.1016 C   0  0  0  0  0  0  0  0  0  0  0  0
   30.2858  -28.8316  -17.1040 O   0  0  0  0  0  0  0  0  0  0  0  0
   29.7993  -26.6973  -18.0810 C   0  0  0  0  0  0  0  0  0  0  0  0
   29.0274  -25.4426  -17.9543 C   0  0  0  0  0  0  0  0  0  0  0  0
   29.7566  -24.2143  -17.5696 C   0  0  2  0  0  0  0  0  0  0  0  0
   28.8456  -23.0484  -17.6108 N   0  0  0  0  0  0  0  0  0  0  0  0
   30.8676  -23.9000  -18.4555 C   0  0  0  0  0  0  0  0  0  0  0  0
   32.1414  -24.4857  -18.2510 O   0  0  0  0  0  0  0  0  0  0  0  0
   30.7642  -23.0936  -19.4384 O   0  0  0  0  0  0  0  0  0  0  0  0
  2  1  1  1
  3  2  1  0
  4  3  1  0
  5  4  1  0
  6  7  1  0
  6  5  1  0
  8  2  1  0
  8  9  2  0
 11 10  1  1
 12 11  1  0
 12  8  1  0
 13 14  2  0
 13 11  1  0
 15 16  1  0
 16 17  2  0
 18 16  1  0
 18 19  1  0
 20 19  1  6
 20 22  1  0
 20 21  1  0
 21 13  1  0
 22 23  1  0
 24 22  2  0
M  END
$$$$
