KAQ.pdb
     RDKit          3D

 24 23  0  0  1  0  0  0  0  0999 V2000
   23.7467  -21.5554   -8.8779 N   0  0  0  0  0  0  0  0  0  0  0  0
   22.8633  -21.0494   -9.8891 C   0  0  1  0  0  0  0  0  0  0  0  0
   21.9357  -20.0418   -9.2412 C   0  0  0  0  0  0  0  0  0  0  0  0
   21.1377  -20.7593   -8.1633 C   0  0  0  0  0  0  0  0  0  0  0  0
   20.5386  -22.0523   -8.6602 C   0  0  0  0  0  0  0  0  0  0  0  0
   19.5757  -22.5169   -7.5751 C   0  0  0  0  0  0  0  0  0  0  0  0
   18.9233  -23.7619   -7.9024 N   0  0  0  0  0  0  0  0  0  0  0  0
   23.5450  -20.5592  -11.0847 C   0  0  0  0  0  0  0  0  0  0  0  0
   23.0734  -19.5464  -11.7088 O   0  0  0  0  0  0  0  0  0  0  0  0
   26.6401  -21.3585  -13.1701 C   0  0  0  0  0  0  0  0  0  0  0  0
   25.3600  -20.5947  -12.8416 C   0  0  2  0  0  0  0  0  0  0  0  0
   24.7272  -21.1070  -11.6582 N   0  0  0  0  0  0  0  0  0  0  0  0
   24.4956  -20.7140  -14.0449 C   0  0  0  0  0  0  0  0  0  0  0  0
   23.7510  -21.7215  -14.1251 O   0  0  0  0  0  0  0  0  0  0  0  0
   22.3174  -15.7984  -17.6035 N   0  0  0  0  0  0  0  0  0  0  0  0
   21.8055  -17.0045  -18.2407 C   0  0  0  0  0  0  0  0  0  0  0  0
   21.0416  -16.7879  -19.1985 O   0  0  0  0  0  0  0  0  0  0  0  0
   22.1862  -18.3176  -17.7506 C   0  0  0  0  0  0  0  0  0  0  0  0
   23.1154  -18.4575  -16.6090 C   0  0  0  0  0  0  0  0  0  0  0  0
   23.5432  -19.8204  -16.2246 C   0  0  2  0  0  0  0  0  0  0  0  0
   24.4819  -19.7552  -15.0820 N   0  0  0  0  0  0  0  0  0  0  0  0
   24.2382  -20.5299  -17.2882 C   0  0  0  0  0  0  0  0  0  0  0  0
   25.6431  -20.4162  -17.4332 O   0  0  0  0  0  0  0  0  0  0  0  0
   23.6378  -21.2707  -18.1353 O   0  0  0  0  0  0  0  0  0  0  0  0
  2  1  1  1
  3  2  1  0
  4  3  1  0
  5  4  1  0
  6  7  1  0
  6  5  1  0
  8  2  1  0
  8  9  2  0
 11 10  1  6
 12 11  1  0
 12  8  1  0
 13 14  2  0
 13 11  1  0
 15 16  1  0
 16 17  2  0
 18 16  1  0
 18 19  1  0
 20 19  1  6
 20 22  1  0
 20 21  1  0
 21 13  1  0
 22 23  1  0
 24 22  2  0
M  END
$$$$
