KAQ.pdb
     RDKit          3D

 24 23  0  0  1  0  0  0  0  0999 V2000
   18.4236  -12.7407  -15.1323 N   0  0  0  0  0  0  0  0  0  0  0  0
   19.1865  -12.0924  -16.1602 C   0  0  1  0  0  0  0  0  0  0  0  0
   18.2216  -11.5868  -17.2132 C   0  0  0  0  0  0  0  0  0  0  0  0
   17.3764  -12.7611  -17.6822 C   0  0  0  0  0  0  0  0  0  0  0  0
   18.0937  -13.6110  -18.7024 C   0  0  0  0  0  0  0  0  0  0  0  0
   17.0876  -14.6579  -19.1635 C   0  0  0  0  0  0  0  0  0  0  0  0
   17.6448  -15.5869  -20.1169 N   0  0  0  0  0  0  0  0  0  0  0  0
   20.1193  -11.0836  -15.6634 C   0  0  0  0  0  0  0  0  0  0  0  0
   19.6838  -10.1281  -14.9320 O   0  0  0  0  0  0  0  0  0  0  0  0
   23.8449  -10.4303  -15.4360 C   0  0  0  0  0  0  0  0  0  0  0  0
   22.3858   -9.9836  -15.4766 C   0  0  2  0  0  0  0  0  0  0  0  0
   21.5202  -11.0434  -15.9136 N   0  0  0  0  0  0  0  0  0  0  0  0
   22.3463   -8.8073  -16.3842 C   0  0  0  0  0  0  0  0  0  0  0  0
   22.1108   -9.0209  -17.5987 O   0  0  0  0  0  0  0  0  0  0  0  0
   21.3337   -2.8817  -14.2208 N   0  0  0  0  0  0  0  0  0  0  0  0
   20.3196   -3.8057  -14.7112 C   0  0  0  0  0  0  0  0  0  0  0  0
   19.1604   -3.5201  -14.3609 O   0  0  0  0  0  0  0  0  0  0  0  0
   20.6927   -4.9462  -15.5292 C   0  0  0  0  0  0  0  0  0  0  0  0
   22.0807   -5.1072  -16.0125 C   0  0  0  0  0  0  0  0  0  0  0  0
   22.4005   -6.3045  -16.8203 C   0  0  2  0  0  0  0  0  0  0  0  0
   22.5608   -7.4837  -15.9401 N   0  0  0  0  0  0  0  0  0  0  0  0
   23.6403   -6.1805  -17.5722 C   0  0  0  0  0  0  0  0  0  0  0  0
   23.6560   -5.5440  -18.8380 O   0  0  0  0  0  0  0  0  0  0  0  0
   24.7558   -6.6328  -17.1498 O   0  0  0  0  0  0  0  0  0  0  0  0
  2  1  1  1
  3  2  1  0
  4  3  1  0
  5  4  1  0
  6  7  1  0
  6  5  1  0
  8  2  1  0
  8  9  2  0
 11 10  1  6
 12 11  1  0
 12  8  1  0
 13 14  2  0
 13 11  1  0
 15 16  1  0
 16 17  2  0
 18 16  1  0
 18 19  1  0
 20 19  1  1
 20 22  1  0
 20 21  1  0
 21 13  1  0
 22 23  1  0
 24 22  2  0
M  END
$$$$
