KAQ.pdb
     RDKit          3D

 24 23  0  0  1  0  0  0  0  0999 V2000
   30.9008  -19.4911  -11.3792 N   0  0  0  0  0  0  0  0  0  0  0  0
   30.3209  -20.5562  -12.1462 C   0  0  1  0  0  0  0  0  0  0  0  0
   30.0859  -21.7299  -11.2175 C   0  0  0  0  0  0  0  0  0  0  0  0
   31.4396  -22.3089  -10.8360 C   0  0  0  0  0  0  0  0  0  0  0  0
   32.0220  -23.1705  -11.9296 C   0  0  0  0  0  0  0  0  0  0  0  0
   33.2991  -23.7734  -11.3583 C   0  0  0  0  0  0  0  0  0  0  0  0
   34.0374  -24.5431  -12.3304 N   0  0  0  0  0  0  0  0  0  0  0  0
   29.1501  -20.1602  -12.9254 C   0  0  0  0  0  0  0  0  0  0  0  0
   28.3348  -19.2990  -12.4447 O   0  0  0  0  0  0  0  0  0  0  0  0
   27.5955  -20.8298  -16.3434 C   0  0  0  0  0  0  0  0  0  0  0  0
   27.6090  -20.2679  -14.9242 C   0  0  2  0  0  0  0  0  0  0  0  0
   28.7999  -20.6475  -14.2163 N   0  0  0  0  0  0  0  0  0  0  0  0
   26.3742  -20.7786  -14.2734 C   0  0  0  0  0  0  0  0  0  0  0  0
   26.4110  -21.9368  -13.7905 O   0  0  0  0  0  0  0  0  0  0  0  0
   25.1719  -20.9648   -9.9725 N   0  0  0  0  0  0  0  0  0  0  0  0
   23.7191  -21.0284  -10.0628 C   0  0  0  0  0  0  0  0  0  0  0  0
   23.1838  -21.7072   -9.1681 O   0  0  0  0  0  0  0  0  0  0  0  0
   23.0145  -20.3420  -11.1313 C   0  0  0  0  0  0  0  0  0  0  0  0
   23.7577  -19.7122  -12.2435 C   0  0  0  0  0  0  0  0  0  0  0  0
   23.9786  -20.5086  -13.4704 C   0  0  2  0  0  0  0  0  0  0  0  0
   25.1835  -20.0245  -14.1808 N   0  0  0  0  0  0  0  0  0  0  0  0
   22.8792  -20.4243  -14.4202 C   0  0  0  0  0  0  0  0  0  0  0  0
   21.7726  -21.3039  -14.3228 O   0  0  0  0  0  0  0  0  0  0  0  0
   22.8516  -19.5802  -15.3760 O   0  0  0  0  0  0  0  0  0  0  0  0
  2  1  1  1
  3  2  1  0
  4  3  1  0
  5  4  1  0
  6  7  1  0
  6  5  1  0
  8  2  1  0
  8  9  2  0
 11 10  1  6
 12 11  1  0
 12  8  1  0
 13 14  2  0
 13 11  1  0
 15 16  1  0
 16 17  2  0
 18 16  1  0
 18 19  1  0
 20 19  1  1
 20 22  1  0
 20 21  1  0
 21 13  1  0
 22 23  1  0
 24 22  2  0
M  END
$$$$
