KAQ.pdb
     RDKit          3D

 24 23  0  0  1  0  0  0  0  0999 V2000
   18.6716  -15.6355  -16.2377 N   0  0  0  0  0  0  0  0  0  0  0  0
   19.8988  -15.0951  -15.7270 C   0  0  1  0  0  0  0  0  0  0  0  0
   21.0077  -16.0832  -16.0258 C   0  0  0  0  0  0  0  0  0  0  0  0
   20.6210  -17.4242  -15.4211 C   0  0  0  0  0  0  0  0  0  0  0  0
   21.6368  -18.5001  -15.7183 C   0  0  0  0  0  0  0  0  0  0  0  0
   21.1106  -19.7711  -15.0639 C   0  0  0  0  0  0  0  0  0  0  0  0
   21.9279  -20.9259  -15.3486 N   0  0  0  0  0  0  0  0  0  0  0  0
   20.1754  -13.7286  -16.1639 C   0  0  0  0  0  0  0  0  0  0  0  0
   21.3459  -13.2385  -15.9987 O   0  0  0  0  0  0  0  0  0  0  0  0
   18.5786  -11.0355  -18.2952 C   0  0  0  0  0  0  0  0  0  0  0  0
   19.5814  -11.5291  -17.2556 C   0  0  2  0  0  0  0  0  0  0  0  0
   19.2468  -12.8425  -16.7797 N   0  0  0  0  0  0  0  0  0  0  0  0
   19.5751  -10.5132  -16.1707 C   0  0  0  0  0  0  0  0  0  0  0  0
   18.7718  -10.6851  -15.2214 O   0  0  0  0  0  0  0  0  0  0  0  0
   23.7010   -5.4384  -15.4941 N   0  0  0  0  0  0  0  0  0  0  0  0
   22.6424   -5.2568  -14.5096 C   0  0  0  0  0  0  0  0  0  0  0  0
   22.7460   -4.2141  -13.8389 O   0  0  0  0  0  0  0  0  0  0  0  0
   21.5882   -6.2455  -14.3672 C   0  0  0  0  0  0  0  0  0  0  0  0
   21.5057   -7.3996  -15.2878 C   0  0  0  0  0  0  0  0  0  0  0  0
   20.4027   -8.3660  -15.0931 C   0  0  2  0  0  0  0  0  0  0  0  0
   20.4220   -9.3828  -16.1685 N   0  0  0  0  0  0  0  0  0  0  0  0
   19.0834   -7.7528  -15.1301 C   0  0  0  0  0  0  0  0  0  0  0  0
   18.3894   -7.4615  -13.9296 O   0  0  0  0  0  0  0  0  0  0  0  0
   18.4867   -7.4563  -16.2177 O   0  0  0  0  0  0  0  0  0  0  0  0
  2  1  1  6
  3  2  1  0
  4  3  1  0
  5  4  1  0
  6  7  1  0
  6  5  1  0
  8  2  1  0
  8  9  2  0
 11 10  1  6
 12 11  1  0
 12  8  1  0
 13 14  2  0
 13 11  1  0
 15 16  1  0
 16 17  2  0
 18 16  1  0
 18 19  1  0
 20 19  1  6
 20 22  1  0
 20 21  1  0
 21 13  1  0
 22 23  1  0
 24 22  2  0
M  END
$$$$
