KAQ.pdb
     RDKit          3D

 24 23  0  0  1  0  0  0  0  0999 V2000
   25.0389  -15.5411  -17.0094 N   0  0  0  0  0  0  0  0  0  0  0  0
   25.0836  -14.2554  -17.6450 C   0  0  1  0  0  0  0  0  0  0  0  0
   24.0897  -14.2617  -18.7884 C   0  0  0  0  0  0  0  0  0  0  0  0
   23.7231  -15.7072  -19.0877 C   0  0  0  0  0  0  0  0  0  0  0  0
   22.6980  -15.8211  -20.1895 C   0  0  0  0  0  0  0  0  0  0  0  0
   22.4011  -17.3077  -20.3391 C   0  0  0  0  0  0  0  0  0  0  0  0
   21.4727  -17.5875  -21.4078 N   0  0  0  0  0  0  0  0  0  0  0  0
   24.9363  -13.1304  -16.7245 C   0  0  0  0  0  0  0  0  0  0  0  0
   23.9224  -13.0820  -15.9452 O   0  0  0  0  0  0  0  0  0  0  0  0
   26.7455   -9.8935  -15.8196 C   0  0  0  0  0  0  0  0  0  0  0  0
   25.5852  -10.8840  -15.7681 C   0  0  2  0  0  0  0  0  0  0  0  0
   25.8344  -12.0338  -16.5924 N   0  0  0  0  0  0  0  0  0  0  0  0
   24.3832  -10.1245  -16.2010 C   0  0  0  0  0  0  0  0  0  0  0  0
   24.1664  -10.0380  -17.4345 O   0  0  0  0  0  0  0  0  0  0  0  0
   18.5319  -10.9236  -14.9131 N   0  0  0  0  0  0  0  0  0  0  0  0
   18.5257   -9.5252  -15.3219 C   0  0  0  0  0  0  0  0  0  0  0  0
   17.3907   -9.0197  -15.3856 O   0  0  0  0  0  0  0  0  0  0  0  0
   19.7693   -8.8373  -15.6210 C   0  0  0  0  0  0  0  0  0  0  0  0
   21.0712   -9.5077  -15.4172 C   0  0  0  0  0  0  0  0  0  0  0  0
   22.3008   -8.7468  -15.7295 C   0  0  2  0  0  0  0  0  0  0  0  0
   23.4936   -9.5073  -15.2939 N   0  0  0  0  0  0  0  0  0  0  0  0
   22.3681   -7.4566  -15.0598 C   0  0  0  0  0  0  0  0  0  0  0  0
   23.1958   -7.2755  -13.9241 O   0  0  0  0  0  0  0  0  0  0  0  0
   21.6973   -6.4411  -15.4416 O   0  0  0  0  0  0  0  0  0  0  0  0
  2  1  1  1
  3  2  1  0
  4  3  1  0
  5  4  1  0
  6  7  1  0
  6  5  1  0
  8  2  1  0
  8  9  2  0
 11 10  1  6
 12 11  1  0
 12  8  1  0
 13 14  2  0
 13 11  1  0
 15 16  1  0
 16 17  2  0
 18 16  1  0
 18 19  1  0
 20 19  1  1
 20 22  1  0
 20 21  1  0
 21 13  1  0
 22 23  1  0
 24 22  2  0
M  END
$$$$
