KAQ.pdb
     RDKit          3D

 24 23  0  0  1  0  0  0  0  0999 V2000
   28.7413  -21.4010  -10.0872 N   0  0  0  0  0  0  0  0  0  0  0  0
   27.3341  -21.2130   -9.8790 C   0  0  1  0  0  0  0  0  0  0  0  0
   27.1536  -20.1057   -8.8608 C   0  0  0  0  0  0  0  0  0  0  0  0
   27.8812  -20.5111   -7.5881 C   0  0  0  0  0  0  0  0  0  0  0  0
   27.7799  -19.4586   -6.5112 C   0  0  0  0  0  0  0  0  0  0  0  0
   28.5768  -19.9881   -5.3258 C   0  0  0  0  0  0  0  0  0  0  0  0
   28.6185  -19.0606   -4.2211 N   0  0  0  0  0  0  0  0  0  0  0  0
   26.5689  -21.0303  -11.1101 C   0  0  0  0  0  0  0  0  0  0  0  0
   26.9076  -20.1100  -11.9323 O   0  0  0  0  0  0  0  0  0  0  0  0
   24.4496  -22.9585  -13.4322 C   0  0  0  0  0  0  0  0  0  0  0  0
   24.7529  -21.6198  -12.7645 C   0  0  2  0  0  0  0  0  0  0  0  0
   25.4385  -21.7954  -11.5145 N   0  0  0  0  0  0  0  0  0  0  0  0
   23.4410  -20.9403  -12.6022 C   0  0  0  0  0  0  0  0  0  0  0  0
   22.8060  -21.1538  -11.5405 O   0  0  0  0  0  0  0  0  0  0  0  0
   20.9874  -16.1188  -16.3014 N   0  0  0  0  0  0  0  0  0  0  0  0
   19.9639  -16.4602  -15.3222 C   0  0  0  0  0  0  0  0  0  0  0  0
   18.9351  -15.7649  -15.3994 O   0  0  0  0  0  0  0  0  0  0  0  0
   20.1869  -17.5262  -14.3613 C   0  0  0  0  0  0  0  0  0  0  0  0
   21.4318  -18.3232  -14.3928 C   0  0  0  0  0  0  0  0  0  0  0  0
   21.5650  -19.4417  -13.4339 C   0  0  2  0  0  0  0  0  0  0  0  0
   22.8920  -20.0809  -13.5796 N   0  0  0  0  0  0  0  0  0  0  0  0
   20.5780  -20.4928  -13.6308 C   0  0  0  0  0  0  0  0  0  0  0  0
   19.3844  -20.5139  -12.8677 O   0  0  0  0  0  0  0  0  0  0  0  0
   20.7293  -21.4369  -14.4751 O   0  0  0  0  0  0  0  0  0  0  0  0
  2  1  1  6
  3  2  1  0
  4  3  1  0
  5  4  1  0
  6  7  1  0
  6  5  1  0
  8  2  1  0
  8  9  2  0
 11 10  1  1
 12 11  1  0
 12  8  1  0
 13 14  2  0
 13 11  1  0
 15 16  1  0
 16 17  2  0
 18 16  1  0
 18 19  1  0
 20 19  1  6
 20 22  1  0
 20 21  1  0
 21 13  1  0
 22 23  1  0
 24 22  2  0
M  END
$$$$
