KAQ.pdb
     RDKit          3D

 24 23  0  0  1  0  0  0  0  0999 V2000
   21.5205  -20.5308  -12.4100 N   0  0  0  0  0  0  0  0  0  0  0  0
   22.0012  -21.2829  -13.5334 C   0  0  1  0  0  0  0  0  0  0  0  0
   20.8560  -21.4510  -14.5110 C   0  0  0  0  0  0  0  0  0  0  0  0
   20.0181  -22.6367  -14.0577 C   0  0  0  0  0  0  0  0  0  0  0  0
   18.7968  -22.2103  -13.2804 C   0  0  0  0  0  0  0  0  0  0  0  0
   18.0147  -23.4846  -12.9888 C   0  0  0  0  0  0  0  0  0  0  0  0
   16.7444  -23.2279  -12.3539 N   0  0  0  0  0  0  0  0  0  0  0  0
   23.2263  -20.7513  -14.1259 C   0  0  0  0  0  0  0  0  0  0  0  0
   23.3310  -19.4933  -14.3357 O   0  0  0  0  0  0  0  0  0  0  0  0
   26.6044  -22.0052  -15.3829 C   0  0  0  0  0  0  0  0  0  0  0  0
   25.5097  -20.9596  -15.1866 C   0  0  2  0  0  0  0  0  0  0  0  0
   24.3666  -21.5105  -14.5132 N   0  0  0  0  0  0  0  0  0  0  0  0
   25.1803  -20.4562  -16.5457 C   0  0  0  0  0  0  0  0  0  0  0  0
   24.1730  -20.9434  -17.1149 O   0  0  0  0  0  0  0  0  0  0  0  0
   21.5631  -18.3212  -18.5666 N   0  0  0  0  0  0  0  0  0  0  0  0
   22.2031  -17.0500  -18.8790 C   0  0  0  0  0  0  0  0  0  0  0  0
   21.4923  -16.2728  -19.5412 O   0  0  0  0  0  0  0  0  0  0  0  0
   23.5576  -16.7754  -18.4329 C   0  0  0  0  0  0  0  0  0  0  0  0
   24.2833  -17.7425  -17.5819 C   0  0  0  0  0  0  0  0  0  0  0  0
   25.3655  -18.5381  -18.2019 C   0  0  2  0  0  0  0  0  0  0  0  0
   25.9442  -19.4702  -17.2084 N   0  0  0  0  0  0  0  0  0  0  0  0
   26.4681  -17.7276  -18.6970 C   0  0  0  0  0  0  0  0  0  0  0  0
   26.4217  -17.1622  -19.9954 O   0  0  0  0  0  0  0  0  0  0  0  0
   27.5174  -17.4910  -18.0115 O   0  0  0  0  0  0  0  0  0  0  0  0
  2  1  1  1
  3  2  1  0
  4  3  1  0
  5  4  1  0
  6  7  1  0
  6  5  1  0
  8  2  1  0
  8  9  2  0
 11 10  1  6
 12 11  1  0
 12  8  1  0
 13 14  2  0
 13 11  1  0
 15 16  1  0
 16 17  2  0
 18 16  1  0
 18 19  1  0
 20 19  1  1
 20 22  1  0
 20 21  1  0
 21 13  1  0
 22 23  1  0
 24 22  2  0
M  END
$$$$
