KAQ.pdb
     RDKit          3D

 24 23  0  0  1  0  0  0  0  0999 V2000
   20.7434  -14.2949  -16.2033 N   0  0  0  0  0  0  0  0  0  0  0  0
   21.0610  -13.0662  -16.8729 C   0  0  1  0  0  0  0  0  0  0  0  0
   19.8379  -12.6253  -17.6508 C   0  0  0  0  0  0  0  0  0  0  0  0
   19.1895  -13.8625  -18.2526 C   0  0  0  0  0  0  0  0  0  0  0  0
   17.9702  -13.5263  -19.0760 C   0  0  0  0  0  0  0  0  0  0  0  0
   17.4845  -14.8425  -19.6696 C   0  0  0  0  0  0  0  0  0  0  0  0
   16.2502  -14.7027  -20.4041 N   0  0  0  0  0  0  0  0  0  0  0  0
   21.6217  -12.0389  -15.9984 C   0  0  0  0  0  0  0  0  0  0  0  0
   20.8529  -11.4082  -15.1929 O   0  0  0  0  0  0  0  0  0  0  0  0
   25.0083  -10.5766  -15.0522 C   0  0  0  0  0  0  0  0  0  0  0  0
   23.4831  -10.5763  -15.1162 C   0  0  2  0  0  0  0  0  0  0  0  0
   22.9882  -11.6437  -15.9403 N   0  0  0  0  0  0  0  0  0  0  0  0
   23.0984   -9.2361  -15.6311 C   0  0  0  0  0  0  0  0  0  0  0  0
   22.9375   -9.1164  -16.8703 O   0  0  0  0  0  0  0  0  0  0  0  0
   18.4827   -4.5006  -17.4118 N   0  0  0  0  0  0  0  0  0  0  0  0
   19.2156   -5.7218  -17.1047 C   0  0  0  0  0  0  0  0  0  0  0  0
   18.6904   -6.7561  -17.5544 O   0  0  0  0  0  0  0  0  0  0  0  0
   20.4440   -5.6717  -16.3315 C   0  0  0  0  0  0  0  0  0  0  0  0
   21.1403   -6.9154  -15.9385 C   0  0  0  0  0  0  0  0  0  0  0  0
   22.4712   -6.7956  -15.3038 C   0  0  2  0  0  0  0  0  0  0  0  0
   22.9119   -8.1135  -14.7943 N   0  0  0  0  0  0  0  0  0  0  0  0
   22.4898   -5.8875  -14.1667 C   0  0  0  0  0  0  0  0  0  0  0  0
   22.5463   -4.4855  -14.3639 O   0  0  0  0  0  0  0  0  0  0  0  0
   22.4647   -6.2906  -12.9568 O   0  0  0  0  0  0  0  0  0  0  0  0
  2  1  1  1
  3  2  1  0
  4  3  1  0
  5  4  1  0
  6  7  1  0
  6  5  1  0
  8  2  1  0
  8  9  2  0
 11 10  1  6
 12 11  1  0
 12  8  1  0
 13 14  2  0
 13 11  1  0
 15 16  1  0
 16 17  2  0
 18 16  1  0
 18 19  1  0
 20 19  1  1
 20 22  1  0
 20 21  1  0
 21 13  1  0
 22 23  1  0
 24 22  2  0
M  END
$$$$
