KAQ.pdb
     RDKit          3D

 24 23  0  0  1  0  0  0  0  0999 V2000
   19.8276  -15.2799  -16.9934 N   0  0  0  0  0  0  0  0  0  0  0  0
   19.6716  -13.9503  -17.5098 C   0  0  1  0  0  0  0  0  0  0  0  0
   18.2094  -13.7469  -17.8501 C   0  0  0  0  0  0  0  0  0  0  0  0
   17.6556  -15.0674  -18.3629 C   0  0  0  0  0  0  0  0  0  0  0  0
   16.5993  -15.6384  -17.4487 C   0  0  0  0  0  0  0  0  0  0  0  0
   16.0380  -16.8615  -18.1627 C   0  0  0  0  0  0  0  0  0  0  0  0
   15.1167  -17.6125  -17.3445 N   0  0  0  0  0  0  0  0  0  0  0  0
   20.2426  -12.9096  -16.6580 C   0  0  0  0  0  0  0  0  0  0  0  0
   19.4901  -12.2905  -15.8285 O   0  0  0  0  0  0  0  0  0  0  0  0
   23.6432  -11.3906  -15.8490 C   0  0  0  0  0  0  0  0  0  0  0  0
   22.1190  -11.4550  -15.7947 C   0  0  2  0  0  0  0  0  0  0  0  0
   21.6025  -12.4888  -16.6479 N   0  0  0  0  0  0  0  0  0  0  0  0
   21.6411  -10.1033  -16.1869 C   0  0  0  0  0  0  0  0  0  0  0  0
   21.4048   -9.9034  -17.4035 O   0  0  0  0  0  0  0  0  0  0  0  0
   16.4554   -7.9439  -15.9568 N   0  0  0  0  0  0  0  0  0  0  0  0
   17.1647   -6.6741  -16.0431 C   0  0  0  0  0  0  0  0  0  0  0  0
   16.4210   -5.6842  -16.1650 O   0  0  0  0  0  0  0  0  0  0  0  0
   18.6155   -6.6331  -15.9913 C   0  0  0  0  0  0  0  0  0  0  0  0
   19.3995   -7.8712  -15.7949 C   0  0  0  0  0  0  0  0  0  0  0  0
   20.8650   -7.7475  -15.6353 C   0  0  2  0  0  0  0  0  0  0  0  0
   21.4477   -9.0553  -15.2599 N   0  0  0  0  0  0  0  0  0  0  0  0
   21.2561   -6.8087  -14.5944 C   0  0  0  0  0  0  0  0  0  0  0  0
   21.1400   -5.4118  -14.8019 O   0  0  0  0  0  0  0  0  0  0  0  0
   21.7214   -7.1787  -13.4658 O   0  0  0  0  0  0  0  0  0  0  0  0
  2  1  1  1
  3  2  1  0
  4  3  1  0
  5  4  1  0
  6  7  1  0
  6  5  1  0
  8  2  1  0
  8  9  2  0
 11 10  1  6
 12 11  1  0
 12  8  1  0
 13 14  2  0
 13 11  1  0
 15 16  1  0
 16 17  2  0
 18 16  1  0
 18 19  1  0
 20 19  1  1
 20 22  1  0
 20 21  1  0
 21 13  1  0
 22 23  1  0
 24 22  2  0
M  END
$$$$
