KAQ.pdb
     RDKit          3D

 24 23  0  0  1  0  0  0  0  0999 V2000
   19.9655  -14.5984  -17.2000 N   0  0  0  0  0  0  0  0  0  0  0  0
   19.0433  -13.5042  -17.3064 C   0  0  1  0  0  0  0  0  0  0  0  0
   18.2584  -13.4239  -16.0130 C   0  0  0  0  0  0  0  0  0  0  0  0
   16.9380  -14.1510  -16.2159 C   0  0  0  0  0  0  0  0  0  0  0  0
   16.7851  -15.3297  -15.2859 C   0  0  0  0  0  0  0  0  0  0  0  0
   15.3798  -15.2318  -14.7062 C   0  0  0  0  0  0  0  0  0  0  0  0
   15.1009  -16.2655  -13.7386 N   0  0  0  0  0  0  0  0  0  0  0  0
   19.6586  -12.2443  -17.7172 C   0  0  0  0  0  0  0  0  0  0  0  0
   20.8449  -11.9652  -17.3268 O   0  0  0  0  0  0  0  0  0  0  0  0
   18.9721   -9.3371  -20.0710 C   0  0  0  0  0  0  0  0  0  0  0  0
   19.7052  -10.0243  -18.9219 C   0  0  2  0  0  0  0  0  0  0  0  0
   19.0589  -11.2487  -18.5392 N   0  0  0  0  0  0  0  0  0  0  0  0
   19.7452   -9.0331  -17.8150 C   0  0  0  0  0  0  0  0  0  0  0  0
   18.8452   -9.1030  -16.9426 O   0  0  0  0  0  0  0  0  0  0  0  0
   22.1927   -7.5748  -13.3114 N   0  0  0  0  0  0  0  0  0  0  0  0
   22.3632   -6.1808  -13.6995 C   0  0  0  0  0  0  0  0  0  0  0  0
   22.4939   -5.3990  -12.7406 O   0  0  0  0  0  0  0  0  0  0  0  0
   22.3658   -5.7990  -15.1008 C   0  0  0  0  0  0  0  0  0  0  0  0
   22.1415   -6.8071  -16.1588 C   0  0  0  0  0  0  0  0  0  0  0  0
   20.7551   -7.0277  -16.6254 C   0  0  2  0  0  0  0  0  0  0  0  0
   20.7381   -8.0339  -17.7108 N   0  0  0  0  0  0  0  0  0  0  0  0
   20.1291   -5.8298  -17.1648 C   0  0  0  0  0  0  0  0  0  0  0  0
   19.3461   -4.9891  -16.3356 O   0  0  0  0  0  0  0  0  0  0  0  0
   20.2397   -5.4795  -18.3864 O   0  0  0  0  0  0  0  0  0  0  0  0
  2  1  1  1
  3  2  1  0
  4  3  1  0
  5  4  1  0
  6  7  1  0
  6  5  1  0
  8  2  1  0
  8  9  2  0
 11 10  1  6
 12 11  1  0
 12  8  1  0
 13 14  2  0
 13 11  1  0
 15 16  1  0
 16 17  2  0
 18 16  1  0
 18 19  1  0
 20 19  1  6
 20 22  1  0
 20 21  1  0
 21 13  1  0
 22 23  1  0
 24 22  2  0
M  END
$$$$
