KAQ.pdb
     RDKit          3D

 24 23  0  0  1  0  0  0  0  0999 V2000
   16.8379  -14.1759  -17.1084 N   0  0  0  0  0  0  0  0  0  0  0  0
   18.1578  -13.8628  -16.6406 C   0  0  1  0  0  0  0  0  0  0  0  0
   19.1329  -14.8004  -17.3228 C   0  0  0  0  0  0  0  0  0  0  0  0
   18.4907  -15.2949  -18.6099 C   0  0  0  0  0  0  0  0  0  0  0  0
   19.3815  -16.2532  -19.3622 C   0  0  0  0  0  0  0  0  0  0  0  0
   18.6394  -16.6012  -20.6462 C   0  0  0  0  0  0  0  0  0  0  0  0
   19.3443  -17.5663  -21.4552 N   0  0  0  0  0  0  0  0  0  0  0  0
   18.5075  -12.4482  -16.7467 C   0  0  0  0  0  0  0  0  0  0  0  0
   19.7034  -12.0732  -16.4881 O   0  0  0  0  0  0  0  0  0  0  0  0
   16.8226   -9.1070  -17.4822 C   0  0  0  0  0  0  0  0  0  0  0  0
   18.0230  -10.0183  -17.2399 C   0  0  2  0  0  0  0  0  0  0  0  0
   17.6272  -11.3942  -17.1218 N   0  0  0  0  0  0  0  0  0  0  0  0
   18.6782   -9.5080  -16.0073 C   0  0  0  0  0  0  0  0  0  0  0  0
   18.2278   -9.9060  -14.9051 O   0  0  0  0  0  0  0  0  0  0  0  0
   23.9494  -10.9034  -14.1037 N   0  0  0  0  0  0  0  0  0  0  0  0
   23.8608  -10.0873  -15.3074 C   0  0  0  0  0  0  0  0  0  0  0  0
   24.8105  -10.2411  -16.0963 O   0  0  0  0  0  0  0  0  0  0  0  0
   22.7391   -9.1871  -15.5089 C   0  0  0  0  0  0  0  0  0  0  0  0
   21.6110   -9.1603  -14.5535 C   0  0  0  0  0  0  0  0  0  0  0  0
   20.5059   -8.2109  -14.8099 C   0  0  2  0  0  0  0  0  0  0  0  0
   19.7669   -8.6084  -16.0292 N   0  0  0  0  0  0  0  0  0  0  0  0
   20.9564   -6.8446  -15.0288 C   0  0  0  0  0  0  0  0  0  0  0  0
   21.5493   -6.1031  -13.9769 O   0  0  0  0  0  0  0  0  0  0  0  0
   20.8401   -6.2470  -16.1497 O   0  0  0  0  0  0  0  0  0  0  0  0
  2  1  1  6
  3  2  1  0
  4  3  1  0
  5  4  1  0
  6  7  1  0
  6  5  1  0
  8  2  1  0
  8  9  2  0
 11 10  1  1
 12 11  1  0
 12  8  1  0
 13 14  2  0
 13 11  1  0
 15 16  1  0
 16 17  2  0
 18 16  1  0
 18 19  1  0
 20 19  1  6
 20 22  1  0
 20 21  1  0
 21 13  1  0
 22 23  1  0
 24 22  2  0
M  END
$$$$
