KAQ.pdb
     RDKit          3D

 24 23  0  0  1  0  0  0  0  0999 V2000
   16.4871  -14.4920  -14.9054 N   0  0  0  0  0  0  0  0  0  0  0  0
   16.5857  -13.5495  -15.9828 C   0  0  1  0  0  0  0  0  0  0  0  0
   15.1891  -13.2909  -16.5101 C   0  0  0  0  0  0  0  0  0  0  0  0
   14.3929  -14.5814  -16.3914 C   0  0  0  0  0  0  0  0  0  0  0  0
   13.0297  -14.4733  -17.0299 C   0  0  0  0  0  0  0  0  0  0  0  0
   12.3898  -15.8493  -16.8964 C   0  0  0  0  0  0  0  0  0  0  0  0
   11.0445  -15.8930  -17.4169 N   0  0  0  0  0  0  0  0  0  0  0  0
   17.3378  -12.3417  -15.6508 C   0  0  0  0  0  0  0  0  0  0  0  0
   16.9024  -11.5592  -14.7367 O   0  0  0  0  0  0  0  0  0  0  0  0
   20.6497  -10.6777  -16.5318 C   0  0  0  0  0  0  0  0  0  0  0  0
   19.2638  -10.7250  -15.8937 C   0  0  2  0  0  0  0  0  0  0  0  0
   18.5543  -11.9197  -16.2580 N   0  0  0  0  0  0  0  0  0  0  0  0
   18.5672   -9.4914  -16.3433 C   0  0  0  0  0  0  0  0  0  0  0  0
   17.8798   -9.5641  -17.3912 O   0  0  0  0  0  0  0  0  0  0  0  0
   14.6483   -5.9265  -13.3426 N   0  0  0  0  0  0  0  0  0  0  0  0
   15.1287   -5.0026  -14.3617 C   0  0  0  0  0  0  0  0  0  0  0  0
   14.5210   -3.9174  -14.3904 O   0  0  0  0  0  0  0  0  0  0  0  0
   16.2220   -5.3763  -15.2416 C   0  0  0  0  0  0  0  0  0  0  0  0
   16.8825   -6.6924  -15.1086 C   0  0  0  0  0  0  0  0  0  0  0  0
   17.9346   -7.0437  -16.0874 C   0  0  2  0  0  0  0  0  0  0  0  0
   18.6493   -8.2637  -15.6496 N   0  0  0  0  0  0  0  0  0  0  0  0
   18.9456   -6.0090  -16.2459 C   0  0  0  0  0  0  0  0  0  0  0  0
   18.6416   -4.8006  -16.9205 O   0  0  0  0  0  0  0  0  0  0  0  0
   20.1363   -6.1294  -15.8048 O   0  0  0  0  0  0  0  0  0  0  0  0
  2  1  1  1
  3  2  1  0
  4  3  1  0
  5  4  1  0
  6  7  1  0
  6  5  1  0
  8  2  1  0
  8  9  2  0
 11 10  1  6
 12 11  1  0
 12  8  1  0
 13 14  2  0
 13 11  1  0
 15 16  1  0
 16 17  2  0
 18 16  1  0
 18 19  1  0
 20 19  1  1
 20 22  1  0
 20 21  1  0
 21 13  1  0
 22 23  1  0
 24 22  2  0
M  END
$$$$
