KAQ.pdb
     RDKit          3D

 24 23  0  0  1  0  0  0  0  0999 V2000
   28.3848  -21.0847  -15.2908 N   0  0  0  0  0  0  0  0  0  0  0  0
   28.1326  -20.4795  -14.0144 C   0  0  1  0  0  0  0  0  0  0  0  0
   28.1278  -18.9758  -14.2002 C   0  0  0  0  0  0  0  0  0  0  0  0
   27.2418  -18.6500  -15.3928 C   0  0  0  0  0  0  0  0  0  0  0  0
   25.9018  -18.0953  -14.9753 C   0  0  0  0  0  0  0  0  0  0  0  0
   25.1809  -17.7168  -16.2629 C   0  0  0  0  0  0  0  0  0  0  0  0
   23.8627  -17.1786  -16.0280 N   0  0  0  0  0  0  0  0  0  0  0  0
   26.9552  -21.0057  -13.3278 C   0  0  0  0  0  0  0  0  0  0  0  0
   26.0798  -21.6627  -13.9909 O   0  0  0  0  0  0  0  0  0  0  0  0
   25.4370  -21.0398   -9.8258 C   0  0  0  0  0  0  0  0  0  0  0  0
   25.4516  -21.3315  -11.3240 C   0  0  2  0  0  0  0  0  0  0  0  0
   26.6602  -20.8623  -11.9425 N   0  0  0  0  0  0  0  0  0  0  0  0
   24.2385  -20.6749  -11.8775 C   0  0  0  0  0  0  0  0  0  0  0  0
   24.2441  -19.4221  -11.9582 O   0  0  0  0  0  0  0  0  0  0  0  0
   21.3289  -22.2834  -17.0774 N   0  0  0  0  0  0  0  0  0  0  0  0
   20.4550  -21.2639  -16.5120 C   0  0  0  0  0  0  0  0  0  0  0  0
   19.5366  -20.9047  -17.2705 O   0  0  0  0  0  0  0  0  0  0  0  0
   20.6907  -20.7471  -15.1754 C   0  0  0  0  0  0  0  0  0  0  0  0
   21.8180  -21.2476  -14.3600 C   0  0  0  0  0  0  0  0  0  0  0  0
   21.9469  -20.7496  -12.9730 C   0  0  2  0  0  0  0  0  0  0  0  0
   23.1010  -21.3939  -12.3067 N   0  0  0  0  0  0  0  0  0  0  0  0
   20.7834  -21.0333  -12.1462 C   0  0  0  0  0  0  0  0  0  0  0  0
   19.7104  -20.1111  -12.0699 O   0  0  0  0  0  0  0  0  0  0  0  0
   20.6676  -22.0982  -11.4537 O   0  0  0  0  0  0  0  0  0  0  0  0
  2  1  1  6
  3  2  1  0
  4  3  1  0
  5  4  1  0
  6  7  1  0
  6  5  1  0
  8  2  1  0
  8  9  2  0
 11 10  1  1
 12 11  1  0
 12  8  1  0
 13 14  2  0
 13 11  1  0
 15 16  1  0
 16 17  2  0
 18 16  1  0
 18 19  1  0
 20 19  1  6
 20 22  1  0
 20 21  1  0
 21 13  1  0
 22 23  1  0
 24 22  2  0
M  END
$$$$
