VMD.pdb
     RDKit          3D

 24 23  0  0  1  0  0  0  0  0999 V2000
    7.1357  -17.4535   20.6844 C   0  0  0  0  0  0  0  0  0  0  0  0
    8.4015  -17.0385   19.9717 C   0  0  1  0  0  0  0  0  0  0  0  0
    8.1531  -17.1842   18.4769 C   0  0  0  0  0  0  0  0  0  0  0  0
    8.7431  -15.5912   20.2858 C   0  0  2  0  0  0  0  0  0  0  0  0
    9.9062  -15.1884   19.5059 N   0  0  0  0  0  0  0  0  0  0  0  0
    8.9920  -15.4023   21.7377 C   0  0  0  0  0  0  0  0  0  0  0  0
   10.0568  -15.7693   22.2563 O   0  0  0  0  0  0  0  0  0  0  0  0
    6.5617  -10.8077   26.2573 C   0  0  0  0  0  0  0  0  0  0  0  0
    7.7873  -12.1485   26.2100 S   0  0  0  0  0  0  0  0  0  0  0  0
    6.9131  -13.6803   25.8684 C   0  0  0  0  0  0  0  0  0  0  0  0
    6.8182  -13.8644   24.3655 C   0  0  0  0  0  0  0  0  0  0  0  0
    8.0479  -14.6735   23.9599 C   0  0  2  0  0  0  0  0  0  0  0  0
    8.0152  -14.8039   22.5319 N   0  0  0  0  0  0  0  0  0  0  0  0
    8.2022  -15.9200   24.6929 C   0  0  0  0  0  0  0  0  0  0  0  0
    7.4736  -16.9036   24.3955 O   0  0  0  0  0  0  0  0  0  0  0  0
    9.1343  -16.0832   25.7277 N   0  0  0  0  0  0  0  0  0  0  0  0
    9.6558  -17.3811   26.1642 C   0  0  1  0  0  0  0  0  0  0  0  0
   10.4047  -18.0438   25.0355 C   0  0  0  0  0  0  0  0  0  0  0  0
   11.0147  -19.3243   25.4230 C   0  0  0  0  0  0  0  0  0  0  0  0
   10.4513  -20.1109   26.2501 O   0  0  0  0  0  0  0  0  0  0  0  0
   10.4522  -17.2147   27.3992 C   0  0  0  0  0  0  0  0  0  0  0  0
   11.1872  -16.1704   27.5282 O   0  0  0  0  0  0  0  0  0  0  0  0
   12.2371  -19.7252   24.9010 O   0  0  0  0  0  0  0  0  0  0  0  0
   10.4708  -18.0953   28.4316 O   0  0  0  0  0  0  0  0  0  0  0  0
  2  4  1  0
  2  1  1  1
  3  2  1  0
  4  5  1  6
  6  4  1  0
  6 13  1  0
  7  6  2  0
  9  8  1  0
 10  9  1  0
 11 10  1  0
 12 11  1  1
 12 13  1  0
 14 16  1  0
 14 12  1  0
 15 14  2  0
 17 16  1  0
 17 21  1  0
 17 18  1  6
 19 18  1  0
 19 20  2  0
 21 22  2  0
 21 24  1  0
 23 19  1  0
M  END
$$$$
