VMD.pdb
     RDKit          3D

 24 23  0  0  1  0  0  0  0  0999 V2000
    6.5302  -14.3694   18.1086 C   0  0  0  0  0  0  0  0  0  0  0  0
    7.3276  -14.6515   19.3605 C   0  0  1  0  0  0  0  0  0  0  0  0
    8.6740  -15.2144   18.9277 C   0  0  0  0  0  0  0  0  0  0  0  0
    7.5484  -13.3740   20.1539 C   0  0  2  0  0  0  0  0  0  0  0  0
    8.2431  -12.4011   19.3208 N   0  0  0  0  0  0  0  0  0  0  0  0
    8.3127  -13.6417   21.3989 C   0  0  0  0  0  0  0  0  0  0  0  0
    9.5459  -13.5168   21.4307 O   0  0  0  0  0  0  0  0  0  0  0  0
    6.2872  -10.7116   27.0123 C   0  0  0  0  0  0  0  0  0  0  0  0
    6.4141  -12.5073   26.7649 S   0  0  0  0  0  0  0  0  0  0  0  0
    6.9529  -12.7926   25.0750 C   0  0  0  0  0  0  0  0  0  0  0  0
    7.1601  -14.2818   24.8727 C   0  0  0  0  0  0  0  0  0  0  0  0
    8.2358  -14.4171   23.7975 C   0  0  2  0  0  0  0  0  0  0  0  0
    7.6358  -14.0400   22.5505 N   0  0  0  0  0  0  0  0  0  0  0  0
    8.9103  -15.7054   23.7965 C   0  0  0  0  0  0  0  0  0  0  0  0
    8.3219  -16.7083   23.3121 O   0  0  0  0  0  0  0  0  0  0  0  0
   10.2004  -15.8886   24.3148 N   0  0  0  0  0  0  0  0  0  0  0  0
   10.9116  -17.1696   24.3096 C   0  0  1  0  0  0  0  0  0  0  0  0
   12.3995  -16.9349   24.2392 C   0  0  0  0  0  0  0  0  0  0  0  0
   13.1818  -18.1786   24.2957 C   0  0  0  0  0  0  0  0  0  0  0  0
   13.1268  -19.0468   23.3663 O   0  0  0  0  0  0  0  0  0  0  0  0
   10.4853  -17.9874   25.4658 C   0  0  0  0  0  0  0  0  0  0  0  0
   10.1161  -17.3951   26.5430 O   0  0  0  0  0  0  0  0  0  0  0  0
   14.0127  -18.4568   25.3726 O   0  0  0  0  0  0  0  0  0  0  0  0
   10.4515  -19.3439   25.4827 O   0  0  0  0  0  0  0  0  0  0  0  0
  2  4  1  0
  2  1  1  6
  3  2  1  0
  4  5  1  6
  6  4  1  0
  6 13  1  0
  7  6  2  0
  9  8  1  0
 10  9  1  0
 11 10  1  0
 12 11  1  1
 12 13  1  0
 14 16  1  0
 14 12  1  0
 15 14  2  0
 17 16  1  0
 17 21  1  0
 17 18  1  1
 19 18  1  0
 19 20  2  0
 21 22  2  0
 21 24  1  0
 23 19  1  0
M  END
$$$$
