VMD.pdb
     RDKit          3D

 24 23  0  0  1  0  0  0  0  0999 V2000
    6.3715  -16.7639   19.0116 C   0  0  0  0  0  0  0  0  0  0  0  0
    7.0317  -16.5389   20.3518 C   0  0  1  0  0  0  0  0  0  0  0  0
    8.1371  -17.5754   20.4965 C   0  0  0  0  0  0  0  0  0  0  0  0
    7.6360  -15.1461   20.4239 C   0  0  2  0  0  0  0  0  0  0  0  0
    8.6155  -14.9879   19.3568 N   0  0  0  0  0  0  0  0  0  0  0  0
    8.2581  -14.8998   21.7499 C   0  0  0  0  0  0  0  0  0  0  0  0
    9.4546  -15.1549   21.9514 O   0  0  0  0  0  0  0  0  0  0  0  0
    7.4743  -11.6553   28.5885 C   0  0  0  0  0  0  0  0  0  0  0  0
    6.8393  -11.8265   26.8945 S   0  0  0  0  0  0  0  0  0  0  0  0
    7.1537  -13.5117   26.3574 C   0  0  0  0  0  0  0  0  0  0  0  0
    6.6994  -13.6586   24.9174 C   0  0  0  0  0  0  0  0  0  0  0  0
    7.8849  -14.2496   24.1579 C   0  0  2  0  0  0  0  0  0  0  0  0
    7.4870  -14.3744   22.7855 N   0  0  0  0  0  0  0  0  0  0  0  0
    8.4273  -15.4578   24.7585 C   0  0  0  0  0  0  0  0  0  0  0  0
    7.7079  -16.4897   24.8237 O   0  0  0  0  0  0  0  0  0  0  0  0
    9.7289  -15.5318   25.2752 N   0  0  0  0  0  0  0  0  0  0  0  0
   10.2879  -16.7220   25.9214 C   0  0  1  0  0  0  0  0  0  0  0  0
   11.7563  -16.8435   25.6004 C   0  0  0  0  0  0  0  0  0  0  0  0
   12.0092  -17.3109   24.2294 C   0  0  0  0  0  0  0  0  0  0  0  0
   11.1552  -18.0065   23.5913 O   0  0  0  0  0  0  0  0  0  0  0  0
    9.9884  -16.6969   27.3695 C   0  0  0  0  0  0  0  0  0  0  0  0
   10.2092  -17.7509   28.0677 O   0  0  0  0  0  0  0  0  0  0  0  0
   13.1972  -17.0124   23.5759 O   0  0  0  0  0  0  0  0  0  0  0  0
    9.4875  -15.6266   28.0368 O   0  0  0  0  0  0  0  0  0  0  0  0
  2  4  1  0
  2  1  1  6
  3  2  1  0
  4  5  1  6
  6  4  1  0
  6 13  1  0
  7  6  2  0
  9  8  1  0
 10  9  1  0
 11 10  1  0
 12 11  1  1
 12 13  1  0
 14 16  1  0
 14 12  1  0
 15 14  2  0
 17 16  1  0
 17 21  1  0
 17 18  1  1
 19 18  1  0
 19 20  2  0
 21 22  2  0
 21 24  1  0
 23 19  1  0
M  END
$$$$
