VMD.pdb
     RDKit          3D

 24 23  0  0  1  0  0  0  0  0999 V2000
    4.5657  -21.0435   22.9504 C   0  0  0  0  0  0  0  0  0  0  0  0
    5.6430  -20.0710   23.3701 C   0  0  1  0  0  0  0  0  0  0  0  0
    6.9835  -20.7713   23.1968 C   0  0  0  0  0  0  0  0  0  0  0  0
    5.6099  -18.8262   22.4985 C   0  0  2  0  0  0  0  0  0  0  0  0
    5.7942  -19.2069   21.1041 N   0  0  0  0  0  0  0  0  0  0  0  0
    6.6470  -17.8499   22.9189 C   0  0  0  0  0  0  0  0  0  0  0  0
    7.7557  -17.8173   22.3646 O   0  0  0  0  0  0  0  0  0  0  0  0
    7.8048  -11.5920   27.4716 C   0  0  0  0  0  0  0  0  0  0  0  0
    6.5950  -12.8048   26.8653 S   0  0  0  0  0  0  0  0  0  0  0  0
    7.4909  -14.0641   25.9494 C   0  0  0  0  0  0  0  0  0  0  0  0
    6.4984  -15.0808   25.4175 C   0  0  0  0  0  0  0  0  0  0  0  0
    7.3064  -16.0529   24.5611 C   0  0  2  0  0  0  0  0  0  0  0  0
    6.3727  -16.9558   23.9525 N   0  0  0  0  0  0  0  0  0  0  0  0
    8.4095  -16.6848   25.2673 C   0  0  0  0  0  0  0  0  0  0  0  0
    8.1678  -17.6184   26.0778 O   0  0  0  0  0  0  0  0  0  0  0  0
    9.7463  -16.3013   25.0880 N   0  0  0  0  0  0  0  0  0  0  0  0
   10.8775  -16.9222   25.7823 C   0  0  1  0  0  0  0  0  0  0  0  0
   12.1757  -16.4749   25.1589 C   0  0  0  0  0  0  0  0  0  0  0  0
   12.3940  -17.0368   23.8178 C   0  0  0  0  0  0  0  0  0  0  0  0
   11.7363  -18.0427   23.3983 O   0  0  0  0  0  0  0  0  0  0  0  0
   10.7843  -16.6574   27.2343 C   0  0  0  0  0  0  0  0  0  0  0  0
   11.5038  -17.3513   28.0395 O   0  0  0  0  0  0  0  0  0  0  0  0
   13.3335  -16.4905   22.9538 O   0  0  0  0  0  0  0  0  0  0  0  0
    9.9822  -15.7198   27.7993 O   0  0  0  0  0  0  0  0  0  0  0  0
  2  4  1  0
  2  1  1  6
  3  2  1  0
  4  5  1  6
  6  4  1  0
  6 13  1  0
  7  6  2  0
  9  8  1  0
 10  9  1  0
 11 10  1  0
 12 11  1  1
 12 13  1  0
 14 16  1  0
 14 12  1  0
 15 14  2  0
 17 16  1  0
 17 21  1  0
 17 18  1  6
 19 18  1  0
 19 20  2  0
 21 22  2  0
 21 24  1  0
 23 19  1  0
M  END
$$$$
