VMD.pdb
     RDKit          3D

 24 23  0  0  1  0  0  0  0  0999 V2000
    7.4232  -16.1845   19.9426 C   0  0  0  0  0  0  0  0  0  0  0  0
    7.9918  -15.0291   19.1524 C   0  0  1  0  0  0  0  0  0  0  0  0
    7.2884  -15.0086   17.8026 C   0  0  0  0  0  0  0  0  0  0  0  0
    7.7398  -13.7136   19.8707 C   0  0  2  0  0  0  0  0  0  0  0  0
    8.2335  -12.6135   19.0526 N   0  0  0  0  0  0  0  0  0  0  0  0
    8.3818  -13.7026   21.2099 C   0  0  0  0  0  0  0  0  0  0  0  0
    9.6003  -13.5087   21.3326 O   0  0  0  0  0  0  0  0  0  0  0  0
    6.1541  -10.8294   26.4504 C   0  0  0  0  0  0  0  0  0  0  0  0
    6.4108  -12.5143   27.0809 S   0  0  0  0  0  0  0  0  0  0  0  0
    7.5780  -13.3370   25.9909 C   0  0  0  0  0  0  0  0  0  0  0  0
    7.0088  -13.3490   24.5846 C   0  0  0  0  0  0  0  0  0  0  0  0
    8.0823  -13.9772   23.6990 C   0  0  2  0  0  0  0  0  0  0  0  0
    7.6050  -13.9139   22.3479 N   0  0  0  0  0  0  0  0  0  0  0  0
    8.5172  -15.2923   24.1418 C   0  0  0  0  0  0  0  0  0  0  0  0
    7.6908  -16.2430   24.1528 O   0  0  0  0  0  0  0  0  0  0  0  0
    9.8283  -15.5578   24.5624 N   0  0  0  0  0  0  0  0  0  0  0  0
   10.2939  -16.8714   25.0149 C   0  0  1  0  0  0  0  0  0  0  0  0
   11.7974  -16.9464   24.9252 C   0  0  0  0  0  0  0  0  0  0  0  0
   12.2983  -16.8333   23.5474 C   0  0  0  0  0  0  0  0  0  0  0  0
   11.8153  -17.5331   22.6001 O   0  0  0  0  0  0  0  0  0  0  0  0
    9.7561  -17.1601   26.3619 C   0  0  0  0  0  0  0  0  0  0  0  0
    9.6766  -16.2058   27.2165 O   0  0  0  0  0  0  0  0  0  0  0  0
   13.3254  -15.9563   23.2258 O   0  0  0  0  0  0  0  0  0  0  0  0
    9.3299  -18.3790   26.7793 O   0  0  0  0  0  0  0  0  0  0  0  0
  2  4  1  0
  2  1  1  1
  3  2  1  0
  4  5  1  6
  6  4  1  0
  6 13  1  0
  7  6  2  0
  9  8  1  0
 10  9  1  0
 11 10  1  0
 12 11  1  1
 12 13  1  0
 14 16  1  0
 14 12  1  0
 15 14  2  0
 17 16  1  0
 17 21  1  0
 17 18  1  1
 19 18  1  0
 19 20  2  0
 21 22  2  0
 21 24  1  0
 23 19  1  0
M  END
$$$$
