VMD.pdb
     RDKit          3D

 24 23  0  0  1  0  0  0  0  0999 V2000
    6.4136  -17.3204   18.7686 C   0  0  0  0  0  0  0  0  0  0  0  0
    7.0911  -17.0808   20.0975 C   0  0  1  0  0  0  0  0  0  0  0  0
    8.0088  -18.2660   20.3629 C   0  0  0  0  0  0  0  0  0  0  0  0
    7.9167  -15.8054   20.0554 C   0  0  2  0  0  0  0  0  0  0  0  0
    8.9426  -15.9269   19.0277 N   0  0  0  0  0  0  0  0  0  0  0  0
    8.5283  -15.5189   21.3781 C   0  0  0  0  0  0  0  0  0  0  0  0
    9.7101  -15.8122   21.6124 O   0  0  0  0  0  0  0  0  0  0  0  0
    7.2962  -11.5866   27.9524 C   0  0  0  0  0  0  0  0  0  0  0  0
    6.4236  -12.3790   26.5693 S   0  0  0  0  0  0  0  0  0  0  0  0
    7.5619  -13.5284   25.7877 C   0  0  0  0  0  0  0  0  0  0  0  0
    7.1159  -13.7608   24.3564 C   0  0  0  0  0  0  0  0  0  0  0  0
    8.1823  -14.6492   23.7200 C   0  0  2  0  0  0  0  0  0  0  0  0
    7.7642  -14.9116   22.3733 N   0  0  0  0  0  0  0  0  0  0  0  0
    8.5156  -15.8263   24.5061 C   0  0  0  0  0  0  0  0  0  0  0  0
    7.5963  -16.6114   24.8597 O   0  0  0  0  0  0  0  0  0  0  0  0
    9.8272  -16.1345   24.8949 N   0  0  0  0  0  0  0  0  0  0  0  0
   10.2039  -17.3544   25.6138 C   0  0  1  0  0  0  0  0  0  0  0  0
   11.4037  -17.9914   24.9588 C   0  0  0  0  0  0  0  0  0  0  0  0
   12.5585  -17.0858   24.8681 C   0  0  0  0  0  0  0  0  0  0  0  0
   12.5552  -15.9394   25.4215 O   0  0  0  0  0  0  0  0  0  0  0  0
   10.3901  -17.0558   27.0502 C   0  0  0  0  0  0  0  0  0  0  0  0
   10.7122  -18.0097   27.8462 O   0  0  0  0  0  0  0  0  0  0  0  0
   13.7021  -17.4472   24.1688 O   0  0  0  0  0  0  0  0  0  0  0  0
   10.2451  -15.8279   27.6097 O   0  0  0  0  0  0  0  0  0  0  0  0
  2  4  1  0
  2  1  1  6
  3  2  1  0
  4  5  1  6
  6  4  1  0
  6 13  1  0
  7  6  2  0
  9  8  1  0
 10  9  1  0
 11 10  1  0
 12 11  1  1
 12 13  1  0
 14 16  1  0
 14 12  1  0
 15 14  2  0
 17 16  1  0
 17 21  1  0
 17 18  1  6
 19 18  1  0
 19 20  2  0
 21 22  2  0
 21 24  1  0
 23 19  1  0
M  END
$$$$
