VMD.pdb
     RDKit          3D

 24 23  0  0  1  0  0  0  0  0999 V2000
    8.4402  -12.2312   19.9726 C   0  0  0  0  0  0  0  0  0  0  0  0
    7.5249  -13.4231   20.1277 C   0  0  1  0  0  0  0  0  0  0  0  0
    7.0451  -13.8148   18.7373 C   0  0  0  0  0  0  0  0  0  0  0  0
    8.2694  -14.5926   20.7507 C   0  0  2  0  0  0  0  0  0  0  0  0
    7.3702  -15.7335   20.8638 N   0  0  0  0  0  0  0  0  0  0  0  0
    8.8260  -14.2276   22.0784 C   0  0  0  0  0  0  0  0  0  0  0  0
    9.8969  -13.6101   22.1743 O   0  0  0  0  0  0  0  0  0  0  0  0
    6.6986  -12.6743   27.8467 C   0  0  0  0  0  0  0  0  0  0  0  0
    6.5551  -11.6529   26.3506 S   0  0  0  0  0  0  0  0  0  0  0  0
    6.9742  -12.6830   24.9397 C   0  0  0  0  0  0  0  0  0  0  0  0
    7.4163  -14.0444   25.4424 C   0  0  0  0  0  0  0  0  0  0  0  0
    8.6121  -14.4454   24.5818 C   0  0  2  0  0  0  0  0  0  0  0  0
    8.1360  -14.5840   23.2360 N   0  0  0  0  0  0  0  0  0  0  0  0
    9.3544  -15.5847   25.0973 C   0  0  0  0  0  0  0  0  0  0  0  0
    9.6511  -15.6240   26.3209 O   0  0  0  0  0  0  0  0  0  0  0  0
    9.7612  -16.6559   24.2889 N   0  0  0  0  0  0  0  0  0  0  0  0
   10.5017  -17.8201   24.7821 C   0  0  1  0  0  0  0  0  0  0  0  0
   10.0836  -19.0569   24.0275 C   0  0  0  0  0  0  0  0  0  0  0  0
   10.8509  -20.2515   24.4098 C   0  0  0  0  0  0  0  0  0  0  0  0
   11.6273  -20.2537   25.4186 O   0  0  0  0  0  0  0  0  0  0  0  0
   11.9549  -17.5494   24.7361 C   0  0  0  0  0  0  0  0  0  0  0  0
   12.4438  -16.9551   23.7089 O   0  0  0  0  0  0  0  0  0  0  0  0
   10.7600  -21.4284   23.6790 O   0  0  0  0  0  0  0  0  0  0  0  0
   12.8352  -17.8853   25.7128 O   0  0  0  0  0  0  0  0  0  0  0  0
  2  4  1  0
  2  1  1  6
  3  2  1  0
  4  5  1  1
  6  4  1  0
  6 13  1  0
  7  6  2  0
  9  8  1  0
 10  9  1  0
 11 10  1  0
 12 11  1  1
 12 13  1  0
 14 16  1  0
 14 12  1  0
 15 14  2  0
 17 16  1  0
 17 21  1  0
 17 18  1  6
 19 18  1  0
 19 20  2  0
 21 22  2  0
 21 24  1  0
 23 19  1  0
M  END
$$$$
