VMD.pdb
     RDKit          3D

 24 23  0  0  1  0  0  0  0  0999 V2000
    7.3354  -16.1636   20.2512 C   0  0  0  0  0  0  0  0  0  0  0  0
    7.6781  -14.8581   19.5725 C   0  0  1  0  0  0  0  0  0  0  0  0
    6.8475  -14.7729   18.2997 C   0  0  0  0  0  0  0  0  0  0  0  0
    7.3398  -13.6814   20.4732 C   0  0  2  0  0  0  0  0  0  0  0  0
    7.5923  -12.4369   19.7585 N   0  0  0  0  0  0  0  0  0  0  0  0
    8.1206  -13.7310   21.7355 C   0  0  0  0  0  0  0  0  0  0  0  0
    9.3406  -13.5098   21.7411 O   0  0  0  0  0  0  0  0  0  0  0  0
    7.0035  -12.1644   28.0242 C   0  0  0  0  0  0  0  0  0  0  0  0
    5.9142  -11.8561   26.6028 S   0  0  0  0  0  0  0  0  0  0  0  0
    6.7629  -12.4273   25.1260 C   0  0  0  0  0  0  0  0  0  0  0  0
    7.0675  -13.9057   25.2781 C   0  0  0  0  0  0  0  0  0  0  0  0
    8.1034  -14.2367   24.2063 C   0  0  2  0  0  0  0  0  0  0  0  0
    7.4745  -14.0310   22.9337 N   0  0  0  0  0  0  0  0  0  0  0  0
    8.7398  -15.5326   24.3810 C   0  0  0  0  0  0  0  0  0  0  0  0
    8.1123  -16.5756   24.0570 O   0  0  0  0  0  0  0  0  0  0  0  0
   10.0346  -15.6801   24.8990 N   0  0  0  0  0  0  0  0  0  0  0  0
   10.6741  -16.9740   25.1511 C   0  0  1  0  0  0  0  0  0  0  0  0
   12.1265  -16.9204   24.7488 C   0  0  0  0  0  0  0  0  0  0  0  0
   12.5048  -17.9903   23.8138 C   0  0  0  0  0  0  0  0  0  0  0  0
   11.6672  -18.8664   23.4249 O   0  0  0  0  0  0  0  0  0  0  0  0
   10.4533  -17.3801   26.5560 C   0  0  0  0  0  0  0  0  0  0  0  0
   10.1163  -16.4877   27.4147 O   0  0  0  0  0  0  0  0  0  0  0  0
   13.7983  -18.0884   23.3190 O   0  0  0  0  0  0  0  0  0  0  0  0
   10.5806  -18.6477   27.0234 O   0  0  0  0  0  0  0  0  0  0  0  0
  2  4  1  0
  2  1  1  1
  3  2  1  0
  4  5  1  6
  6  4  1  0
  6 13  1  0
  7  6  2  0
  9  8  1  0
 10  9  1  0
 11 10  1  0
 12 11  1  1
 12 13  1  0
 14 16  1  0
 14 12  1  0
 15 14  2  0
 17 16  1  0
 17 21  1  0
 17 18  1  1
 19 18  1  0
 19 20  2  0
 21 22  2  0
 21 24  1  0
 23 19  1  0
M  END
$$$$
