VMD.pdb
     RDKit          3D

 24 23  0  0  1  0  0  0  0  0999 V2000
    6.9593  -14.3740   18.3701 C   0  0  0  0  0  0  0  0  0  0  0  0
    7.4068  -14.8108   19.7454 C   0  0  1  0  0  0  0  0  0  0  0  0
    8.2595  -16.0600   19.5732 C   0  0  0  0  0  0  0  0  0  0  0  0
    8.2361  -13.7236   20.4091 C   0  0  2  0  0  0  0  0  0  0  0  0
    9.3974  -13.4273   19.5804 N   0  0  0  0  0  0  0  0  0  0  0  0
    8.6541  -14.1275   21.7758 C   0  0  0  0  0  0  0  0  0  0  0  0
    9.7588  -14.6536   21.9765 O   0  0  0  0  0  0  0  0  0  0  0  0
    6.6352  -11.1678   28.1722 C   0  0  0  0  0  0  0  0  0  0  0  0
    6.0331  -12.0011   26.6738 S   0  0  0  0  0  0  0  0  0  0  0  0
    7.2330  -13.2608   26.2256 C   0  0  0  0  0  0  0  0  0  0  0  0
    6.7408  -13.9864   24.9875 C   0  0  0  0  0  0  0  0  0  0  0  0
    7.9898  -14.3688   24.1967 C   0  0  2  0  0  0  0  0  0  0  0  0
    7.7931  -13.9135   22.8509 N   0  0  0  0  0  0  0  0  0  0  0  0
    8.3670  -15.7670   24.3293 C   0  0  0  0  0  0  0  0  0  0  0  0
    8.1650  -16.5534   23.3663 O   0  0  0  0  0  0  0  0  0  0  0  0
    8.9522  -16.2897   25.4915 N   0  0  0  0  0  0  0  0  0  0  0  0
    9.9236  -17.3866   25.4981 C   0  0  1  0  0  0  0  0  0  0  0  0
   11.0526  -17.0836   24.5454 C   0  0  0  0  0  0  0  0  0  0  0  0
   11.2305  -18.1183   23.5160 C   0  0  0  0  0  0  0  0  0  0  0  0
   10.3148  -18.9612   23.2489 O   0  0  0  0  0  0  0  0  0  0  0  0
   10.3625  -17.6628   26.8831 C   0  0  0  0  0  0  0  0  0  0  0  0
   10.6103  -16.6753   27.6647 O   0  0  0  0  0  0  0  0  0  0  0  0
   12.4122  -18.2182   22.7941 O   0  0  0  0  0  0  0  0  0  0  0  0
   10.5290  -18.9029   27.4086 O   0  0  0  0  0  0  0  0  0  0  0  0
  2  4  1  0
  2  1  1  6
  3  2  1  0
  4  5  1  6
  6  4  1  0
  6 13  1  0
  7  6  2  0
  9  8  1  0
 10  9  1  0
 11 10  1  0
 12 11  1  1
 12 13  1  0
 14 16  1  0
 14 12  1  0
 15 14  2  0
 17 16  1  0
 17 21  1  0
 17 18  1  6
 19 18  1  0
 19 20  2  0
 21 22  2  0
 21 24  1  0
 23 19  1  0
M  END
$$$$
