VMD.pdb
     RDKit          3D

 24 23  0  0  1  0  0  0  0  0999 V2000
    6.9277  -15.7692   20.1410 C   0  0  0  0  0  0  0  0  0  0  0  0
    7.8052  -14.6918   19.5479 C   0  0  1  0  0  0  0  0  0  0  0  0
    7.2506  -14.3576   18.1702 C   0  0  0  0  0  0  0  0  0  0  0  0
    7.7817  -13.4440   20.4155 C   0  0  2  0  0  0  0  0  0  0  0  0
    8.4701  -12.3614   19.7246 N   0  0  0  0  0  0  0  0  0  0  0  0
    8.4015  -13.7008   21.7405 C   0  0  0  0  0  0  0  0  0  0  0  0
    9.6216  -13.5629   21.9124 O   0  0  0  0  0  0  0  0  0  0  0  0
    6.9517  -11.0531   27.2198 C   0  0  0  0  0  0  0  0  0  0  0  0
    5.7856  -12.3198   26.6385 S   0  0  0  0  0  0  0  0  0  0  0  0
    6.2939  -12.8193   24.9894 C   0  0  0  0  0  0  0  0  0  0  0  0
    6.7883  -14.2526   25.0433 C   0  0  0  0  0  0  0  0  0  0  0  0
    8.0337  -14.3041   24.1615 C   0  0  2  0  0  0  0  0  0  0  0  0
    7.6016  -14.1036   22.8086 N   0  0  0  0  0  0  0  0  0  0  0  0
    8.8632  -15.4784   24.3799 C   0  0  0  0  0  0  0  0  0  0  0  0
    9.1474  -15.8213   25.5582 O   0  0  0  0  0  0  0  0  0  0  0  0
    9.3686  -16.2583   23.3297 N   0  0  0  0  0  0  0  0  0  0  0  0
   10.2938  -17.3796   23.5130 C   0  0  1  0  0  0  0  0  0  0  0  0
   10.5224  -18.0819   22.1983 C   0  0  0  0  0  0  0  0  0  0  0  0
    9.3657  -18.8780   21.7621 C   0  0  0  0  0  0  0  0  0  0  0  0
    8.3067  -18.9599   22.4637 O   0  0  0  0  0  0  0  0  0  0  0  0
   11.5335  -16.9082   24.1672 C   0  0  0  0  0  0  0  0  0  0  0  0
   12.0958  -17.6568   25.0452 O   0  0  0  0  0  0  0  0  0  0  0  0
    9.3856  -19.5774   20.5630 O   0  0  0  0  0  0  0  0  0  0  0  0
   12.1402  -15.7218   23.9103 O   0  0  0  0  0  0  0  0  0  0  0  0
  2  4  1  0
  2  1  1  1
  3  2  1  0
  4  5  1  6
  6  4  1  0
  6 13  1  0
  7  6  2  0
  9  8  1  0
 10  9  1  0
 11 10  1  0
 12 11  1  1
 12 13  1  0
 14 16  1  0
 14 12  1  0
 15 14  2  0
 17 16  1  0
 17 21  1  0
 17 18  1  6
 19 18  1  0
 19 20  2  0
 21 22  2  0
 21 24  1  0
 23 19  1  0
M  END
$$$$
