VMD.pdb
     RDKit          3D

 24 23  0  0  1  0  0  0  0  0999 V2000
    7.2828  -17.9085   20.6646 C   0  0  0  0  0  0  0  0  0  0  0  0
    7.9114  -16.9409   19.6893 C   0  0  1  0  0  0  0  0  0  0  0  0
    7.2276  -17.1393   18.3438 C   0  0  0  0  0  0  0  0  0  0  0  0
    7.7070  -15.5071   20.1505 C   0  0  2  0  0  0  0  0  0  0  0  0
    8.1691  -14.5946   19.1127 N   0  0  0  0  0  0  0  0  0  0  0  0
    8.4148  -15.2499   21.4306 C   0  0  0  0  0  0  0  0  0  0  0  0
    9.6467  -15.1129   21.4630 O   0  0  0  0  0  0  0  0  0  0  0  0
    6.7232  -10.7824   26.6921 C   0  0  0  0  0  0  0  0  0  0  0  0
    6.5939  -12.5919   26.5864 S   0  0  0  0  0  0  0  0  0  0  0  0
    7.1748  -13.0904   24.9612 C   0  0  0  0  0  0  0  0  0  0  0  0
    7.0840  -14.6008   24.8516 C   0  0  0  0  0  0  0  0  0  0  0  0
    8.2287  -15.0282   23.9359 C   0  0  2  0  0  0  0  0  0  0  0  0
    7.6854  -15.1611   22.6151 N   0  0  0  0  0  0  0  0  0  0  0  0
    8.9723  -16.1806   24.4194 C   0  0  0  0  0  0  0  0  0  0  0  0
    8.4207  -17.3131   24.4205 O   0  0  0  0  0  0  0  0  0  0  0  0
   10.2902  -16.0922   24.8902 N   0  0  0  0  0  0  0  0  0  0  0  0
   11.0554  -17.2314   25.4038 C   0  0  1  0  0  0  0  0  0  0  0  0
   12.5319  -16.9904   25.2144 C   0  0  0  0  0  0  0  0  0  0  0  0
   12.9242  -16.9037   23.8000 C   0  0  0  0  0  0  0  0  0  0  0  0
   12.3803  -17.6317   22.9086 O   0  0  0  0  0  0  0  0  0  0  0  0
   10.6657  -17.5106   26.8028 C   0  0  0  0  0  0  0  0  0  0  0  0
    9.9369  -16.6578   27.4265 O   0  0  0  0  0  0  0  0  0  0  0  0
   13.9111  -16.0217   23.3806 O   0  0  0  0  0  0  0  0  0  0  0  0
   11.0233  -18.6197   27.4983 O   0  0  0  0  0  0  0  0  0  0  0  0
  2  4  1  0
  2  1  1  1
  3  2  1  0
  4  5  1  6
  6  4  1  0
  6 13  1  0
  7  6  2  0
  9  8  1  0
 10  9  1  0
 11 10  1  0
 12 11  1  1
 12 13  1  0
 14 16  1  0
 14 12  1  0
 15 14  2  0
 17 16  1  0
 17 21  1  0
 17 18  1  1
 19 18  1  0
 19 20  2  0
 21 22  2  0
 21 24  1  0
 23 19  1  0
M  END
$$$$
