VMD.pdb
     RDKit          3D

 24 23  0  0  1  0  0  0  0  0999 V2000
    8.5020  -12.2813   19.6536 C   0  0  0  0  0  0  0  0  0  0  0  0
    7.6643  -13.5385   19.6335 C   0  0  1  0  0  0  0  0  0  0  0  0
    7.3737  -13.8708   18.1767 C   0  0  0  0  0  0  0  0  0  0  0  0
    8.4174  -14.6940   20.2721 C   0  0  2  0  0  0  0  0  0  0  0  0
    7.5578  -15.8701   20.3091 N   0  0  0  0  0  0  0  0  0  0  0  0
    8.8843  -14.3404   21.6369 C   0  0  0  0  0  0  0  0  0  0  0  0
    9.9048  -13.6565   21.8057 O   0  0  0  0  0  0  0  0  0  0  0  0
    6.7892  -11.5058   28.2179 C   0  0  0  0  0  0  0  0  0  0  0  0
    6.2757  -12.1441   26.5959 S   0  0  0  0  0  0  0  0  0  0  0  0
    7.4752  -13.3810   26.0872 C   0  0  0  0  0  0  0  0  0  0  0  0
    7.1435  -13.8330   24.6775 C   0  0  0  0  0  0  0  0  0  0  0  0
    8.4265  -14.4403   24.1150 C   0  0  2  0  0  0  0  0  0  0  0  0
    8.1666  -14.7832   22.7467 N   0  0  0  0  0  0  0  0  0  0  0  0
    8.9782  -15.5120   24.9287 C   0  0  0  0  0  0  0  0  0  0  0  0
    9.1782  -15.3127   26.1563 O   0  0  0  0  0  0  0  0  0  0  0  0
    9.3024  -16.7727   24.4073 N   0  0  0  0  0  0  0  0  0  0  0  0
   10.3571  -17.6358   24.9455 C   0  0  1  0  0  0  0  0  0  0  0  0
   11.7060  -17.1687   24.4594 C   0  0  0  0  0  0  0  0  0  0  0  0
   12.6833  -18.2604   24.3364 C   0  0  0  0  0  0  0  0  0  0  0  0
   12.4319  -19.4345   24.7589 O   0  0  0  0  0  0  0  0  0  0  0  0
   10.2419  -17.7141   26.4178 C   0  0  0  0  0  0  0  0  0  0  0  0
   10.0563  -16.6332   27.0846 O   0  0  0  0  0  0  0  0  0  0  0  0
   13.9262  -18.0503   23.7543 O   0  0  0  0  0  0  0  0  0  0  0  0
   10.3181  -18.8609   27.1393 O   0  0  0  0  0  0  0  0  0  0  0  0
  2  4  1  0
  2  1  1  6
  3  2  1  0
  4  5  1  1
  6  4  1  0
  6 13  1  0
  7  6  2  0
  9  8  1  0
 10  9  1  0
 11 10  1  0
 12 11  1  1
 12 13  1  0
 14 16  1  0
 14 12  1  0
 15 14  2  0
 17 16  1  0
 17 21  1  0
 17 18  1  1
 19 18  1  0
 19 20  2  0
 21 22  2  0
 21 24  1  0
 23 19  1  0
M  END
$$$$
