VMD.pdb
     RDKit          3D

 24 23  0  0  1  0  0  0  0  0999 V2000
    6.7424  -17.8550   20.8239 C   0  0  0  0  0  0  0  0  0  0  0  0
    7.7876  -17.4226   19.8223 C   0  0  1  0  0  0  0  0  0  0  0  0
    7.2308  -17.6989   18.4327 C   0  0  0  0  0  0  0  0  0  0  0  0
    8.0799  -15.9375   19.9606 C   0  0  2  0  0  0  0  0  0  0  0  0
    9.0141  -15.5294   18.9195 N   0  0  0  0  0  0  0  0  0  0  0  0
    8.6213  -15.6210   21.3069 C   0  0  0  0  0  0  0  0  0  0  0  0
    9.7611  -15.9801   21.6376 O   0  0  0  0  0  0  0  0  0  0  0  0
    7.0833  -11.5012   27.7686 C   0  0  0  0  0  0  0  0  0  0  0  0
    6.4356  -12.0421   26.1592 S   0  0  0  0  0  0  0  0  0  0  0  0
    7.5268  -13.3231   25.5301 C   0  0  0  0  0  0  0  0  0  0  0  0
    7.1079  -13.6700   24.1138 C   0  0  0  0  0  0  0  0  0  0  0  0
    8.1702  -14.6288   23.5812 C   0  0  2  0  0  0  0  0  0  0  0  0
    7.8379  -14.9100   22.2146 N   0  0  0  0  0  0  0  0  0  0  0  0
    8.3844  -15.7972   24.4202 C   0  0  0  0  0  0  0  0  0  0  0  0
    7.4938  -16.6862   24.4771 O   0  0  0  0  0  0  0  0  0  0  0  0
    9.5488  -15.9855   25.1786 N   0  0  0  0  0  0  0  0  0  0  0  0
    9.8969  -17.2415   25.8481 C   0  0  1  0  0  0  0  0  0  0  0  0
   10.5086  -18.2023   24.8597 C   0  0  0  0  0  0  0  0  0  0  0  0
   11.8749  -17.8294   24.4646 C   0  0  0  0  0  0  0  0  0  0  0  0
   12.2074  -17.7034   23.2423 O   0  0  0  0  0  0  0  0  0  0  0  0
   10.7482  -16.9659   27.0255 C   0  0  0  0  0  0  0  0  0  0  0  0
   11.0953  -15.7549   27.2711 O   0  0  0  0  0  0  0  0  0  0  0  0
   12.8613  -17.6024   25.4150 O   0  0  0  0  0  0  0  0  0  0  0  0
   11.2038  -17.9094   27.8880 O   0  0  0  0  0  0  0  0  0  0  0  0
  2  4  1  0
  2  1  1  1
  3  2  1  0
  4  5  1  6
  6  4  1  0
  6 13  1  0
  7  6  2  0
  9  8  1  0
 10  9  1  0
 11 10  1  0
 12 11  1  1
 12 13  1  0
 14 16  1  0
 14 12  1  0
 15 14  2  0
 17 16  1  0
 17 21  1  0
 17 18  1  6
 19 18  1  0
 19 20  2  0
 21 22  2  0
 21 24  1  0
 23 19  1  0
M  END
$$$$
