VTN.pdb
     RDKit          3D

 23 22  0  0  1  0  0  0  0  0999 V2000
    0.7110  -24.2363   24.1654 C   0  0  0  0  0  0  0  0  0  0  0  0
    2.2445  -24.1978   24.1314 C   0  0  2  0  0  0  0  0  0  0  0  0
    2.6942  -23.8502   25.5138 C   0  0  0  0  0  0  0  0  0  0  0  0
    2.6182  -23.1657   23.1071 C   0  0  2  0  0  0  0  0  0  0  0  0
    2.0276  -23.5315   21.8324 N   0  0  0  0  0  0  0  0  0  0  0  0
    4.0721  -22.9555   22.9558 C   0  0  0  0  0  0  0  0  0  0  0  0
    4.7862  -23.7961   22.3733 O   0  0  0  0  0  0  0  0  0  0  0  0
    5.7691  -20.5000   21.0042 C   0  0  0  0  0  0  0  0  0  0  0  0
    6.1857  -20.2481   22.4209 C   0  0  1  0  0  0  0  0  0  0  0  0
    5.4291  -19.1794   22.9084 O   0  0  0  0  0  0  0  0  0  0  0  0
    6.0811  -21.4582   23.2999 C   0  0  2  0  0  0  0  0  0  0  0  0
    4.6800  -21.7879   23.4743 N   0  0  0  0  0  0  0  0  0  0  0  0
    6.6301  -21.0829   24.6465 C   0  0  0  0  0  0  0  0  0  0  0  0
    6.0843  -20.2634   25.4172 O   0  0  0  0  0  0  0  0  0  0  0  0
    7.0203  -24.4033   27.0979 N   0  0  0  0  0  0  0  0  0  0  0  0
    7.3263  -23.1323   27.6317 C   0  0  0  0  0  0  0  0  0  0  0  0
    6.4802  -22.5837   28.3896 O   0  0  0  0  0  0  0  0  0  0  0  0
    8.5908  -22.4829   27.3081 C   0  0  0  0  0  0  0  0  0  0  0  0
    8.4293  -21.2951   26.3840 C   0  0  2  0  0  0  0  0  0  0  0  0
    7.8468  -21.6669   25.1227 N   0  0  0  0  0  0  0  0  0  0  0  0
    9.6228  -20.4560   26.2586 C   0  0  0  0  0  0  0  0  0  0  0  0
   10.2244  -20.1182   27.3382 O   0  0  0  0  0  0  0  0  0  0  0  0
   10.1817  -19.9810   25.0954 O   0  0  0  0  0  0  0  0  0  0  0  0
  2  1  1  1
  2  3  1  0
  4  6  1  0
  4  2  1  0
  4  5  1  6
  6 12  1  0
  7  6  2  0
  9 10  1  0
  9  8  1  6
  9 11  1  0
 11 13  1  0
 11 12  1  1
 13 20  1  0
 13 14  2  0
 16 15  1  0
 16 18  1  0
 17 16  2  0
 19 21  1  0
 19 18  1  6
 20 19  1  0
 21 23  1  0
 22 21  2  0
M  END
$$$$
