VTN.pdb
     RDKit          3D

 23 22  0  0  1  0  0  0  0  0999 V2000
    7.2764  -19.5894   20.9475 C   0  0  0  0  0  0  0  0  0  0  0  0
    6.2420  -18.6894   20.2587 C   0  0  2  0  0  0  0  0  0  0  0  0
    5.4794  -19.5607   19.3135 C   0  0  0  0  0  0  0  0  0  0  0  0
    7.0182  -17.6033   19.5719 C   0  0  2  0  0  0  0  0  0  0  0  0
    7.6078  -18.1403   18.3589 N   0  0  0  0  0  0  0  0  0  0  0  0
    8.0578  -16.9734   20.4107 C   0  0  0  0  0  0  0  0  0  0  0  0
    9.2464  -17.3469   20.3502 O   0  0  0  0  0  0  0  0  0  0  0  0
    8.0023  -13.0069   21.3792 C   0  0  0  0  0  0  0  0  0  0  0  0
    8.1348  -13.9273   22.5535 C   0  0  1  0  0  0  0  0  0  0  0  0
    6.8917  -13.9981   23.1874 O   0  0  0  0  0  0  0  0  0  0  0  0
    8.6608  -15.2846   22.1941 C   0  0  2  0  0  0  0  0  0  0  0  0
    7.7168  -15.9290   21.3020 N   0  0  0  0  0  0  0  0  0  0  0  0
    8.7152  -16.0935   23.4584 C   0  0  0  0  0  0  0  0  0  0  0  0
    7.7030  -16.5137   24.0603 O   0  0  0  0  0  0  0  0  0  0  0  0
   11.1282  -20.3934   26.4026 N   0  0  0  0  0  0  0  0  0  0  0  0
   10.0619  -19.4866   26.2173 C   0  0  0  0  0  0  0  0  0  0  0  0
    9.1936  -19.3922   27.1274 O   0  0  0  0  0  0  0  0  0  0  0  0
    9.9792  -18.6858   25.0018 C   0  0  0  0  0  0  0  0  0  0  0  0
   10.0651  -17.1975   25.2639 C   0  0  2  0  0  0  0  0  0  0  0  0
    9.9736  -16.4291   24.0516 N   0  0  0  0  0  0  0  0  0  0  0  0
   11.1721  -16.7968   26.1348 C   0  0  0  0  0  0  0  0  0  0  0  0
   11.2888  -17.4005   27.2587 O   0  0  0  0  0  0  0  0  0  0  0  0
   12.1169  -15.8306   25.8803 O   0  0  0  0  0  0  0  0  0  0  0  0
  2  1  1  6
  2  3  1  0
  4  6  1  0
  4  2  1  0
  4  5  1  6
  6 12  1  0
  7  6  2  0
  9 10  1  0
  9  8  1  6
  9 11  1  0
 11 13  1  0
 11 12  1  6
 13 20  1  0
 13 14  2  0
 16 15  1  0
 16 18  1  0
 17 16  2  0
 19 21  1  0
 19 18  1  6
 20 19  1  0
 21 23  1  0
 22 21  2  0
M  END
$$$$
