VTN.pdb
     RDKit          3D

 23 22  0  0  1  0  0  0  0  0999 V2000
    7.5039  -30.3740   25.1619 C   0  0  0  0  0  0  0  0  0  0  0  0
    8.7440  -31.0918   25.7108 C   0  0  2  0  0  0  0  0  0  0  0  0
    8.4810  -32.5577   25.5829 C   0  0  0  0  0  0  0  0  0  0  0  0
    8.8996  -30.6373   27.1333 C   0  0  2  0  0  0  0  0  0  0  0  0
    7.8469  -31.2328   27.9360 N   0  0  0  0  0  0  0  0  0  0  0  0
    8.9082  -29.1708   27.3071 C   0  0  0  0  0  0  0  0  0  0  0  0
    9.7264  -28.4554   26.6950 O   0  0  0  0  0  0  0  0  0  0  0  0
    6.4863  -25.1920   28.9181 C   0  0  0  0  0  0  0  0  0  0  0  0
    6.6235  -26.5871   28.3904 C   0  0  1  0  0  0  0  0  0  0  0  0
    6.1830  -26.5911   27.0644 O   0  0  0  0  0  0  0  0  0  0  0  0
    8.0091  -27.1443   28.5241 C   0  0  2  0  0  0  0  0  0  0  0  0
    7.9807  -28.5520   28.1780 N   0  0  0  0  0  0  0  0  0  0  0  0
    8.3962  -27.0406   29.9715 C   0  0  0  0  0  0  0  0  0  0  0  0
    7.8662  -27.7115   30.8839 O   0  0  0  0  0  0  0  0  0  0  0  0
   11.6389  -27.8790   31.7224 N   0  0  0  0  0  0  0  0  0  0  0  0
   12.0959  -26.5504   31.8642 C   0  0  0  0  0  0  0  0  0  0  0  0
   13.3405  -26.3455   31.8775 O   0  0  0  0  0  0  0  0  0  0  0  0
   11.1435  -25.4538   31.9899 C   0  0  0  0  0  0  0  0  0  0  0  0
    9.7090  -25.8848   31.7720 C   0  0  2  0  0  0  0  0  0  0  0  0
    9.4246  -26.1351   30.3846 N   0  0  0  0  0  0  0  0  0  0  0  0
    8.7134  -25.0407   32.4358 C   0  0  0  0  0  0  0  0  0  0  0  0
    8.7457  -24.9826   33.7153 O   0  0  0  0  0  0  0  0  0  0  0  0
    7.7312  -24.2902   31.8333 O   0  0  0  0  0  0  0  0  0  0  0  0
  2  1  1  1
  2  3  1  0
  4  6  1  0
  4  2  1  0
  4  5  1  1
  6 12  1  0
  7  6  2  0
  9 10  1  0
  9  8  1  6
  9 11  1  0
 11 13  1  0
 11 12  1  1
 13 20  1  0
 13 14  2  0
 16 15  1  0
 16 18  1  0
 17 16  2  0
 19 21  1  0
 19 18  1  6
 20 19  1  0
 21 23  1  0
 22 21  2  0
M  END
$$$$
