VTN.pdb
     RDKit          3D

 23 22  0  0  1  0  0  0  0  0999 V2000
   10.7554  -17.2876   15.6548 C   0  0  0  0  0  0  0  0  0  0  0  0
    9.2264  -17.4013   15.7137 C   0  0  2  0  0  0  0  0  0  0  0  0
    8.7906  -17.9843   14.4081 C   0  0  0  0  0  0  0  0  0  0  0  0
    8.7085  -16.0116   15.9470 C   0  0  2  0  0  0  0  0  0  0  0  0
    9.0052  -15.1965   14.7830 N   0  0  0  0  0  0  0  0  0  0  0  0
    9.2267  -15.3653   17.1696 C   0  0  0  0  0  0  0  0  0  0  0  0
   10.3795  -14.8903   17.2067 O   0  0  0  0  0  0  0  0  0  0  0  0
    7.1097  -12.8843   19.5024 C   0  0  0  0  0  0  0  0  0  0  0  0
    7.6687  -14.0560   20.2496 C   0  0  1  0  0  0  0  0  0  0  0  0
    6.6325  -14.9709   20.4532 O   0  0  0  0  0  0  0  0  0  0  0  0
    8.8511  -14.6864   19.5768 C   0  0  2  0  0  0  0  0  0  0  0  0
    8.4159  -15.2756   18.3255 N   0  0  0  0  0  0  0  0  0  0  0  0
    9.3286  -15.8018   20.4618 C   0  0  0  0  0  0  0  0  0  0  0  0
    9.6094  -16.9477   20.0477 O   0  0  0  0  0  0  0  0  0  0  0  0
   12.7843  -17.1848   23.9407 N   0  0  0  0  0  0  0  0  0  0  0  0
   13.0199  -16.5081   22.7239 C   0  0  0  0  0  0  0  0  0  0  0  0
   14.2064  -16.4337   22.3022 O   0  0  0  0  0  0  0  0  0  0  0  0
   11.9117  -15.9164   21.9842 C   0  0  0  0  0  0  0  0  0  0  0  0
   10.5628  -16.1937   22.6123 C   0  0  2  0  0  0  0  0  0  0  0  0
    9.4871  -15.5946   21.8690 N   0  0  0  0  0  0  0  0  0  0  0  0
   10.4991  -15.9380   24.0527 C   0  0  0  0  0  0  0  0  0  0  0  0
   11.3857  -16.4940   24.7919 O   0  0  0  0  0  0  0  0  0  0  0  0
    9.5815  -15.1563   24.7145 O   0  0  0  0  0  0  0  0  0  0  0  0
  2  1  1  6
  2  3  1  0
  4  6  1  0
  4  2  1  0
  4  5  1  6
  6 12  1  0
  7  6  2  0
  9 10  1  0
  9  8  1  6
  9 11  1  0
 11 13  1  0
 11 12  1  6
 13 20  1  0
 13 14  2  0
 16 15  1  0
 16 18  1  0
 17 16  2  0
 19 21  1  0
 19 18  1  6
 20 19  1  0
 21 23  1  0
 22 21  2  0
M  END
$$$$
