VTN.pdb
     RDKit          3D

 23 22  0  0  1  0  0  0  0  0999 V2000
    7.7591  -18.7348   15.2820 C   0  0  0  0  0  0  0  0  0  0  0  0
    8.5616  -18.1569   16.4552 C   0  0  2  0  0  0  0  0  0  0  0  0
    8.1528  -18.9236   17.6715 C   0  0  0  0  0  0  0  0  0  0  0  0
    8.2137  -16.6982   16.5267 C   0  0  2  0  0  0  0  0  0  0  0  0
    8.5063  -16.0807   15.2459 N   0  0  0  0  0  0  0  0  0  0  0  0
    8.8887  -15.9631   17.6153 C   0  0  0  0  0  0  0  0  0  0  0  0
   10.0762  -15.5976   17.5044 O   0  0  0  0  0  0  0  0  0  0  0  0
    7.5236  -12.8891   19.6580 C   0  0  0  0  0  0  0  0  0  0  0  0
    7.8177  -14.0560   20.5499 C   0  0  1  0  0  0  0  0  0  0  0  0
    6.6039  -14.6684   20.8720 O   0  0  0  0  0  0  0  0  0  0  0  0
    8.7985  -15.0263   19.9627 C   0  0  2  0  0  0  0  0  0  0  0  0
    8.1920  -15.6613   18.8090 N   0  0  0  0  0  0  0  0  0  0  0  0
    9.0443  -16.0929   20.9909 C   0  0  0  0  0  0  0  0  0  0  0  0
    8.6767  -17.2812   20.8632 O   0  0  0  0  0  0  0  0  0  0  0  0
   10.3585  -19.4580   22.3845 N   0  0  0  0  0  0  0  0  0  0  0  0
   11.3915  -18.7759   21.7052 C   0  0  0  0  0  0  0  0  0  0  0  0
   12.1232  -19.4341   20.9162 O   0  0  0  0  0  0  0  0  0  0  0  0
   11.5953  -17.3482   21.9185 C   0  0  0  0  0  0  0  0  0  0  0  0
   10.5840  -16.7386   22.8654 C   0  0  2  0  0  0  0  0  0  0  0  0
    9.7335  -15.7841   22.2066 N   0  0  0  0  0  0  0  0  0  0  0  0
   11.1476  -16.2549   24.1274 C   0  0  0  0  0  0  0  0  0  0  0  0
   11.7852  -17.0975   24.8520 O   0  0  0  0  0  0  0  0  0  0  0  0
   11.0701  -14.9783   24.6326 O   0  0  0  0  0  0  0  0  0  0  0  0
  2  1  1  6
  2  3  1  0
  4  6  1  0
  4  2  1  0
  4  5  1  6
  6 12  1  0
  7  6  2  0
  9 10  1  0
  9  8  1  6
  9 11  1  0
 11 13  1  0
 11 12  1  6
 13 20  1  0
 13 14  2  0
 16 15  1  0
 16 18  1  0
 17 16  2  0
 19 21  1  0
 19 18  1  6
 20 19  1  0
 21 23  1  0
 22 21  2  0
M  END
$$$$
