VTN.pdb
     RDKit          3D

 23 22  0  0  1  0  0  0  0  0999 V2000
    7.6197  -12.1245   18.5633 C   0  0  0  0  0  0  0  0  0  0  0  0
    7.8975  -13.3733   19.4104 C   0  0  2  0  0  0  0  0  0  0  0  0
    8.7896  -12.9412   20.5292 C   0  0  0  0  0  0  0  0  0  0  0  0
    8.5377  -14.3729   18.4912 C   0  0  2  0  0  0  0  0  0  0  0  0
    7.6496  -14.6177   17.3693 N   0  0  0  0  0  0  0  0  0  0  0  0
    8.9070  -15.6477   19.1390 C   0  0  0  0  0  0  0  0  0  0  0  0
    8.0438  -16.5084   19.4033 O   0  0  0  0  0  0  0  0  0  0  0  0
   10.5489  -18.4874   17.9764 C   0  0  0  0  0  0  0  0  0  0  0  0
   11.4399  -17.9552   19.0565 C   0  0  1  0  0  0  0  0  0  0  0  0
   12.4681  -17.2306   18.4483 O   0  0  0  0  0  0  0  0  0  0  0  0
   10.7131  -17.1433   20.0864 C   0  0  2  0  0  0  0  0  0  0  0  0
   10.2564  -15.9120   19.4719 N   0  0  0  0  0  0  0  0  0  0  0  0
   11.7064  -16.7776   21.1518 C   0  0  0  0  0  0  0  0  0  0  0  0
   12.3237  -15.6907   21.1847 O   0  0  0  0  0  0  0  0  0  0  0  0
   11.0098  -15.5327   24.2572 N   0  0  0  0  0  0  0  0  0  0  0  0
   11.2802  -16.6563   25.0685 C   0  0  0  0  0  0  0  0  0  0  0  0
   10.6520  -16.7723   26.1562 O   0  0  0  0  0  0  0  0  0  0  0  0
   12.2613  -17.6492   24.6476 C   0  0  0  0  0  0  0  0  0  0  0  0
   12.8770  -17.3417   23.2995 C   0  0  2  0  0  0  0  0  0  0  0  0
   12.0015  -17.6910   22.2132 N   0  0  0  0  0  0  0  0  0  0  0  0
   14.2481  -17.8279   23.1326 C   0  0  0  0  0  0  0  0  0  0  0  0
   14.4265  -18.8462   22.3758 O   0  0  0  0  0  0  0  0  0  0  0  0
   15.3856  -17.3080   23.7042 O   0  0  0  0  0  0  0  0  0  0  0  0
  2  1  1  6
  2  3  1  0
  4  6  1  0
  4  2  1  0
  4  5  1  6
  6 12  1  0
  7  6  2  0
  9 10  1  0
  9  8  1  6
  9 11  1  0
 11 13  1  0
 11 12  1  6
 13 20  1  0
 13 14  2  0
 16 15  1  0
 16 18  1  0
 17 16  2  0
 19 21  1  0
 19 18  1  1
 20 19  1  0
 21 23  1  0
 22 21  2  0
M  END
$$$$
