VTN.pdb
     RDKit          3D

 23 22  0  0  1  0  0  0  0  0999 V2000
   10.1052  -18.1887   15.4977 C   0  0  0  0  0  0  0  0  0  0  0  0
    8.7648  -17.5794   15.0658 C   0  0  2  0  0  0  0  0  0  0  0  0
    8.4393  -18.1658   13.7300 C   0  0  0  0  0  0  0  0  0  0  0  0
    8.9696  -16.0925   15.0288 C   0  0  2  0  0  0  0  0  0  0  0  0
    9.9037  -15.7719   13.9649 N   0  0  0  0  0  0  0  0  0  0  0  0
    9.4279  -15.5083   16.3054 C   0  0  0  0  0  0  0  0  0  0  0  0
   10.6407  -15.3186   16.5270 O   0  0  0  0  0  0  0  0  0  0  0  0
    7.9202  -13.0081   20.3329 C   0  0  0  0  0  0  0  0  0  0  0  0
    7.6478  -13.7777   19.0770 C   0  0  1  0  0  0  0  0  0  0  0  0
    7.1327  -12.8885   18.1304 O   0  0  0  0  0  0  0  0  0  0  0  0
    8.8428  -14.5204   18.5588 C   0  0  2  0  0  0  0  0  0  0  0  0
    8.4897  -15.1532   17.3030 N   0  0  0  0  0  0  0  0  0  0  0  0
    9.1552  -15.6101   19.5439 C   0  0  0  0  0  0  0  0  0  0  0  0
    8.7876  -16.7976   19.4086 O   0  0  0  0  0  0  0  0  0  0  0  0
   11.8118  -19.7172   21.0193 N   0  0  0  0  0  0  0  0  0  0  0  0
   10.8960  -18.6908   20.7001 C   0  0  0  0  0  0  0  0  0  0  0  0
    9.6897  -19.0057   20.5078 O   0  0  0  0  0  0  0  0  0  0  0  0
   11.3460  -17.3078   20.5996 C   0  0  0  0  0  0  0  0  0  0  0  0
   10.5609  -16.3620   21.4829 C   0  0  2  0  0  0  0  0  0  0  0  0
    9.9131  -15.3261   20.7242 N   0  0  0  0  0  0  0  0  0  0  0  0
   11.2964  -15.8678   22.6487 C   0  0  0  0  0  0  0  0  0  0  0  0
   12.0362  -14.8343   22.4869 O   0  0  0  0  0  0  0  0  0  0  0  0
   11.2839  -16.3943   23.9190 O   0  0  0  0  0  0  0  0  0  0  0  0
  2  1  1  6
  2  3  1  0
  4  6  1  0
  4  2  1  0
  4  5  1  6
  6 12  1  0
  7  6  2  0
  9 10  1  0
  9  8  1  1
  9 11  1  0
 11 13  1  0
 11 12  1  6
 13 20  1  0
 13 14  2  0
 16 15  1  0
 16 18  1  0
 17 16  2  0
 19 21  1  0
 19 18  1  6
 20 19  1  0
 21 23  1  0
 22 21  2  0
M  END
$$$$
