VTN.pdb
     RDKit          3D

 23 22  0  0  1  0  0  0  0  0999 V2000
    7.0387  -14.5903   18.3313 C   0  0  0  0  0  0  0  0  0  0  0  0
    7.7886  -14.8541   19.6438 C   0  0  2  0  0  0  0  0  0  0  0  0
    7.1768  -16.0770   20.2473 C   0  0  0  0  0  0  0  0  0  0  0  0
    7.6121  -13.6233   20.4853 C   0  0  2  0  0  0  0  0  0  0  0  0
    8.0802  -12.4703   19.7379 N   0  0  0  0  0  0  0  0  0  0  0  0
    8.2782  -13.6845   21.8020 C   0  0  0  0  0  0  0  0  0  0  0  0
    9.5103  -13.5206   21.9075 O   0  0  0  0  0  0  0  0  0  0  0  0
    6.6964  -12.3250   25.3321 C   0  0  0  0  0  0  0  0  0  0  0  0
    7.0716  -13.7752   25.3211 C   0  0  1  0  0  0  0  0  0  0  0  0
    5.9010  -14.5215   25.1632 O   0  0  0  0  0  0  0  0  0  0  0  0
    8.1015  -14.1193   24.2871 C   0  0  2  0  0  0  0  0  0  0  0  0
    7.5216  -13.9322   22.9714 N   0  0  0  0  0  0  0  0  0  0  0  0
    8.4194  -15.5791   24.4396 C   0  0  0  0  0  0  0  0  0  0  0  0
    8.1925  -16.4369   23.5586 O   0  0  0  0  0  0  0  0  0  0  0  0
   10.5459  -19.2381   23.6311 N   0  0  0  0  0  0  0  0  0  0  0  0
   11.4793  -18.2525   24.0200 C   0  0  0  0  0  0  0  0  0  0  0  0
   12.7068  -18.4989   23.8659 O   0  0  0  0  0  0  0  0  0  0  0  0
   11.0227  -16.9874   24.5826 C   0  0  0  0  0  0  0  0  0  0  0  0
    9.9554  -17.1591   25.6420 C   0  0  2  0  0  0  0  0  0  0  0  0
    9.0160  -16.0700   25.6442 N   0  0  0  0  0  0  0  0  0  0  0  0
   10.4674  -17.4998   26.9709 C   0  0  0  0  0  0  0  0  0  0  0  0
   10.4841  -18.7383   27.2986 O   0  0  0  0  0  0  0  0  0  0  0  0
   10.9407  -16.6284   27.9235 O   0  0  0  0  0  0  0  0  0  0  0  0
  2  1  1  6
  2  3  1  0
  4  6  1  0
  4  2  1  0
  4  5  1  6
  6 12  1  0
  7  6  2  0
  9 10  1  0
  9  8  1  6
  9 11  1  0
 11 13  1  0
 11 12  1  6
 13 20  1  0
 13 14  2  0
 16 15  1  0
 16 18  1  0
 17 16  2  0
 19 21  1  0
 19 18  1  6
 20 19  1  0
 21 23  1  0
 22 21  2  0
M  END
$$$$
