VTN.pdb
     RDKit          3D

 23 22  0  0  1  0  0  0  0  0999 V2000
    7.5746  -12.5542   18.0989 C   0  0  0  0  0  0  0  0  0  0  0  0
    7.5755  -13.3684   19.3995 C   0  0  2  0  0  0  0  0  0  0  0  0
    8.4596  -12.6394   20.3594 C   0  0  0  0  0  0  0  0  0  0  0  0
    8.0848  -14.7346   19.0418 C   0  0  2  0  0  0  0  0  0  0  0  0
    7.2534  -15.2861   17.9873 N   0  0  0  0  0  0  0  0  0  0  0  0
    8.1595  -15.6743   20.1786 C   0  0  0  0  0  0  0  0  0  0  0  0
    7.1279  -16.0524   20.7693 O   0  0  0  0  0  0  0  0  0  0  0  0
    7.5017  -18.3830   21.2001 C   0  0  0  0  0  0  0  0  0  0  0  0
    8.9928  -18.4090   21.3411 C   0  0  1  0  0  0  0  0  0  0  0  0
    9.5297  -18.8954   20.1464 O   0  0  0  0  0  0  0  0  0  0  0  0
    9.5812  -17.0841   21.7237 C   0  0  2  0  0  0  0  0  0  0  0  0
    9.4129  -16.1624   20.6173 N   0  0  0  0  0  0  0  0  0  0  0  0
   11.0556  -17.2892   21.9233 C   0  0  0  0  0  0  0  0  0  0  0  0
   11.8817  -17.3600   20.9873 O   0  0  0  0  0  0  0  0  0  0  0  0
   14.0358  -15.3283   22.5142 N   0  0  0  0  0  0  0  0  0  0  0  0
   13.9485  -15.5044   23.9125 C   0  0  0  0  0  0  0  0  0  0  0  0
   14.1545  -14.5050   24.6541 O   0  0  0  0  0  0  0  0  0  0  0  0
   13.6269  -16.8121   24.4711 C   0  0  0  0  0  0  0  0  0  0  0  0
   12.9810  -17.7439   23.4683 C   0  0  2  0  0  0  0  0  0  0  0  0
   11.5985  -17.4190   23.2410 N   0  0  0  0  0  0  0  0  0  0  0  0
   13.2195  -19.1667   23.7196 C   0  0  0  0  0  0  0  0  0  0  0  0
   12.2054  -19.8943   24.0090 O   0  0  0  0  0  0  0  0  0  0  0  0
   14.4274  -19.8227   23.6797 O   0  0  0  0  0  0  0  0  0  0  0  0
  2  1  1  6
  2  3  1  0
  4  6  1  0
  4  2  1  0
  4  5  1  6
  6 12  1  0
  7  6  2  0
  9 10  1  0
  9  8  1  6
  9 11  1  0
 11 13  1  0
 11 12  1  6
 13 20  1  0
 13 14  2  0
 16 15  1  0
 16 18  1  0
 17 16  2  0
 19 21  1  0
 19 18  1  1
 20 19  1  0
 21 23  1  0
 22 21  2  0
M  END
$$$$
