VTN.pdb
     RDKit          3D

 23 22  0  0  1  0  0  0  0  0999 V2000
    7.8520  -12.3708   20.1462 C   0  0  0  0  0  0  0  0  0  0  0  0
    8.4980  -13.2505   19.0676 C   0  0  2  0  0  0  0  0  0  0  0  0
    8.2236  -12.5888   17.7557 C   0  0  0  0  0  0  0  0  0  0  0  0
    7.8653  -14.6061   19.1939 C   0  0  2  0  0  0  0  0  0  0  0  0
    6.4804  -14.5214   18.7669 N   0  0  0  0  0  0  0  0  0  0  0  0
    7.9487  -15.1941   20.5461 C   0  0  0  0  0  0  0  0  0  0  0  0
    7.1697  -14.8362   21.4522 O   0  0  0  0  0  0  0  0  0  0  0  0
    6.9079  -17.9468   22.0235 C   0  0  0  0  0  0  0  0  0  0  0  0
    8.3897  -18.0769   22.2004 C   0  0  1  0  0  0  0  0  0  0  0  0
    8.8603  -18.9771   21.2411 O   0  0  0  0  0  0  0  0  0  0  0  0
    9.1165  -16.7665   22.1461 C   0  0  2  0  0  0  0  0  0  0  0  0
    8.9219  -16.1797   20.8347 N   0  0  0  0  0  0  0  0  0  0  0  0
   10.5814  -17.0597   22.2993 C   0  0  0  0  0  0  0  0  0  0  0  0
   11.4161  -16.9382   21.3763 O   0  0  0  0  0  0  0  0  0  0  0  0
   14.9139  -15.5764   25.0838 N   0  0  0  0  0  0  0  0  0  0  0  0
   14.5084  -15.9583   23.7863 C   0  0  0  0  0  0  0  0  0  0  0  0
   15.4012  -16.1875   22.9252 O   0  0  0  0  0  0  0  0  0  0  0  0
   13.0919  -16.0816   23.4640 C   0  0  0  0  0  0  0  0  0  0  0  0
   12.5029  -17.4140   23.8752 C   0  0  2  0  0  0  0  0  0  0  0  0
   11.1044  -17.5090   23.5534 N   0  0  0  0  0  0  0  0  0  0  0  0
   12.8229  -17.8233   25.2443 C   0  0  0  0  0  0  0  0  0  0  0  0
   14.0611  -17.9276   25.5563 O   0  0  0  0  0  0  0  0  0  0  0  0
   11.9318  -18.1132   26.2507 O   0  0  0  0  0  0  0  0  0  0  0  0
  2  1  1  1
  2  3  1  0
  4  6  1  0
  4  2  1  0
  4  5  1  1
  6 12  1  0
  7  6  2  0
  9 10  1  0
  9  8  1  6
  9 11  1  0
 11 13  1  0
 11 12  1  6
 13 20  1  0
 13 14  2  0
 16 15  1  0
 16 18  1  0
 17 16  2  0
 19 21  1  0
 19 18  1  1
 20 19  1  0
 21 23  1  0
 22 21  2  0
M  END
$$$$
