VTN.pdb
     RDKit          3D

 23 22  0  0  1  0  0  0  0  0999 V2000
    7.9320  -12.7373   27.1390 C   0  0  0  0  0  0  0  0  0  0  0  0
    7.1344  -12.1288   25.9779 C   0  0  2  0  0  0  0  0  0  0  0  0
    6.3575  -10.9852   26.5461 C   0  0  0  0  0  0  0  0  0  0  0  0
    6.2660  -13.2291   25.4402 C   0  0  2  0  0  0  0  0  0  0  0  0
    5.3056  -13.6120   26.4591 N   0  0  0  0  0  0  0  0  0  0  0  0
    7.0080  -14.4143   24.9652 C   0  0  0  0  0  0  0  0  0  0  0  0
    7.2429  -15.3738   25.7269 O   0  0  0  0  0  0  0  0  0  0  0  0
    6.9156  -15.3819   21.0143 C   0  0  0  0  0  0  0  0  0  0  0  0
    8.2882  -15.4719   21.6072 C   0  0  1  0  0  0  0  0  0  0  0  0
    9.0314  -14.3854   21.1389 O   0  0  0  0  0  0  0  0  0  0  0  0
    8.2898  -15.5506   23.1045 C   0  0  2  0  0  0  0  0  0  0  0  0
    7.4669  -14.4780   23.6284 N   0  0  0  0  0  0  0  0  0  0  0  0
    9.6986  -15.3081   23.5647 C   0  0  0  0  0  0  0  0  0  0  0  0
   10.0415  -14.3391   24.2768 O   0  0  0  0  0  0  0  0  0  0  0  0
   11.8932  -15.2611   26.5147 N   0  0  0  0  0  0  0  0  0  0  0  0
   11.2495  -16.5164   26.5765 C   0  0  0  0  0  0  0  0  0  0  0  0
   10.8593  -16.9324   27.7016 O   0  0  0  0  0  0  0  0  0  0  0  0
   11.0468  -17.3002   25.3641 C   0  0  0  0  0  0  0  0  0  0  0  0
   11.7098  -16.6930   24.1463 C   0  0  2  0  0  0  0  0  0  0  0  0
   10.7484  -16.2071   23.1934 N   0  0  0  0  0  0  0  0  0  0  0  0
   12.7637  -17.5187   23.5531 C   0  0  0  0  0  0  0  0  0  0  0  0
   13.9339  -17.4450   24.0694 O   0  0  0  0  0  0  0  0  0  0  0  0
   12.6394  -18.3789   22.4875 O   0  0  0  0  0  0  0  0  0  0  0  0
  2  1  1  1
  2  3  1  0
  4  6  1  0
  4  2  1  0
  4  5  1  1
  6 12  1  0
  7  6  2  0
  9 10  1  0
  9  8  1  1
  9 11  1  0
 11 13  1  0
 11 12  1  1
 13 20  1  0
 13 14  2  0
 16 15  1  0
 16 18  1  0
 17 16  2  0
 19 21  1  0
 19 18  1  1
 20 19  1  0
 21 23  1  0
 22 21  2  0
M  END
$$$$
