VDF.pdb
     RDKit          3D

 27 27  0  0  1  0  0  0  0  0999 V2000
    8.0704  -12.3782   19.3002 C   0  0  0  0  0  0  0  0  0  0  0  0
    8.2603  -13.3367   20.4468 C   0  0  1  0  0  0  0  0  0  0  0  0
    7.2117  -13.0372   21.4922 C   0  0  0  0  0  0  0  0  0  0  0  0
    8.1624  -14.7799   20.0033 C   0  0  2  0  0  0  0  0  0  0  0  0
    6.8558  -15.0706   19.4603 N   0  0  0  0  0  0  0  0  0  0  0  0
    8.5270  -15.6833   21.1099 C   0  0  0  0  0  0  0  0  0  0  0  0
    7.6223  -16.3676   21.6509 O   0  0  0  0  0  0  0  0  0  0  0  0
    9.8455  -15.8296   21.6063 N   0  0  0  0  0  0  0  0  0  0  0  0
   10.1842  -16.8468   22.5802 C   0  0  1  0  0  0  0  0  0  0  0  0
   11.5009  -17.4909   22.2713 C   0  0  0  0  0  0  0  0  0  0  0  0
   11.8860  -18.5473   23.2034 C   0  0  0  0  0  0  0  0  0  0  0  0
   11.1192  -19.5259   23.3698 O   0  0  0  0  0  0  0  0  0  0  0  0
   10.1232  -16.3126   23.9665 C   0  0  0  0  0  0  0  0  0  0  0  0
   10.9492  -15.4777   24.4086 O   0  0  0  0  0  0  0  0  0  0  0  0
   13.0703  -18.5178   23.9188 O   0  0  0  0  0  0  0  0  0  0  0  0
    9.0984  -16.7462   24.8526 N   0  0  0  0  0  0  0  0  0  0  0  0
    9.1112  -16.4105   26.2868 C   0  0  1  0  0  0  0  0  0  0  0  0
    7.7440  -16.0423   26.7584 C   0  0  0  0  0  0  0  0  0  0  0  0
    7.5013  -14.6099   26.5489 C   0  0  0  0  0  0  0  0  0  0  0  0
    6.2971  -14.1677   26.0434 C   0  0  0  0  0  0  0  0  0  0  0  0
    6.0440  -12.8285   25.8540 C   0  0  0  0  0  0  0  0  0  0  0  0
    6.9865  -11.8887   26.1641 C   0  0  0  0  0  0  0  0  0  0  0  0
    8.1889  -12.3132   26.6677 C   0  0  0  0  0  0  0  0  0  0  0  0
    8.4525  -13.6679   26.8622 C   0  0  0  0  0  0  0  0  0  0  0  0
    9.7848  -17.4709   27.0546 C   0  0  0  0  0  0  0  0  0  0  0  0
   10.4074  -17.2901   28.2772 O   0  0  0  0  0  0  0  0  0  0  0  0
    9.8365  -18.6741   26.6148 O   0  0  0  0  0  0  0  0  0  0  0  0
  2  3  1  1
  2  1  1  0
  4  2  1  0
  4  5  1  1
  6  7  2  0
  6  4  1  0
  8  6  1  0
  9  8  1  0
  9 10  1  6
 11 10  1  0
 12 11  2  0
 13 16  1  0
 13  9  1  0
 14 13  2  0
 15 11  1  0
 17 16  1  0
 17 25  1  0
 17 18  1  1
 19 20  2  0
 19 18  1  0
 21 20  1  0
 22 21  2  0
 23 22  1  0
 23 24  2  0
 24 19  1  0
 25 26  1  0
 27 25  2  0
M  END
$$$$
