VDF.pdb
     RDKit          3D

 27 27  0  0  1  0  0  0  0  0999 V2000
    7.0969  -13.9795   18.9616 C   0  0  0  0  0  0  0  0  0  0  0  0
    8.4351  -13.2893   19.0107 C   0  0  1  0  0  0  0  0  0  0  0  0
    8.3554  -12.1749   20.0275 C   0  0  0  0  0  0  0  0  0  0  0  0
    9.5543  -14.2439   19.3643 C   0  0  2  0  0  0  0  0  0  0  0  0
    9.8685  -15.1128   18.2539 N   0  0  0  0  0  0  0  0  0  0  0  0
    9.2226  -14.9929   20.5901 C   0  0  0  0  0  0  0  0  0  0  0  0
    8.8472  -14.3520   21.6039 O   0  0  0  0  0  0  0  0  0  0  0  0
    9.3013  -16.4031   20.6978 N   0  0  0  0  0  0  0  0  0  0  0  0
    8.9697  -17.0927   21.9276 C   0  0  1  0  0  0  0  0  0  0  0  0
    9.0962  -18.5780   21.7796 C   0  0  0  0  0  0  0  0  0  0  0  0
    8.6378  -19.0945   20.4927 C   0  0  0  0  0  0  0  0  0  0  0  0
    9.4723  -19.5978   19.7031 O   0  0  0  0  0  0  0  0  0  0  0  0
    9.7562  -16.5660   23.0743 C   0  0  0  0  0  0  0  0  0  0  0  0
   10.9880  -16.3366   23.0036 O   0  0  0  0  0  0  0  0  0  0  0  0
    7.3112  -19.0535   20.1005 O   0  0  0  0  0  0  0  0  0  0  0  0
    9.1151  -16.3009   24.3161 N   0  0  0  0  0  0  0  0  0  0  0  0
    9.8486  -15.7664   25.4763 C   0  0  1  0  0  0  0  0  0  0  0  0
    9.8338  -14.2741   25.4726 C   0  0  0  0  0  0  0  0  0  0  0  0
    8.4910  -13.7770   25.7959 C   0  0  0  0  0  0  0  0  0  0  0  0
    7.4785  -13.8292   24.8613 C   0  0  0  0  0  0  0  0  0  0  0  0
    6.2092  -13.3827   25.1494 C   0  0  0  0  0  0  0  0  0  0  0  0
    5.9116  -12.8699   26.3808 C   0  0  0  0  0  0  0  0  0  0  0  0
    6.9083  -12.8116   27.3205 C   0  0  0  0  0  0  0  0  0  0  0  0
    8.1963  -13.2619   27.0360 C   0  0  0  0  0  0  0  0  0  0  0  0
    9.3782  -16.4041   26.7173 C   0  0  0  0  0  0  0  0  0  0  0  0
    8.3499  -17.3272   26.7930 O   0  0  0  0  0  0  0  0  0  0  0  0
    9.9167  -16.1278   27.8475 O   0  0  0  0  0  0  0  0  0  0  0  0
  2  3  1  1
  2  1  1  0
  4  2  1  0
  4  5  1  6
  6  7  2  0
  6  4  1  0
  8  6  1  0
  9  8  1  0
  9 10  1  6
 11 10  1  0
 12 11  2  0
 13 16  1  0
 13  9  1  0
 14 13  2  0
 15 11  1  0
 17 16  1  0
 17 25  1  0
 17 18  1  1
 19 20  2  0
 19 18  1  0
 21 20  1  0
 22 21  2  0
 23 22  1  0
 23 24  2  0
 24 19  1  0
 25 26  1  0
 27 25  2  0
M  END
$$$$
