VDF.pdb
     RDKit          3D

 27 27  0  0  1  0  0  0  0  0999 V2000
    7.5792  -12.9597   21.2841 C   0  0  0  0  0  0  0  0  0  0  0  0
    7.4293  -13.5184   19.8931 C   0  0  1  0  0  0  0  0  0  0  0  0
    7.5098  -12.3725   18.9120 C   0  0  0  0  0  0  0  0  0  0  0  0
    8.4872  -14.5536   19.5795 C   0  0  2  0  0  0  0  0  0  0  0  0
    8.3552  -15.0398   18.2256 N   0  0  0  0  0  0  0  0  0  0  0  0
    8.4534  -15.6406   20.5748 C   0  0  0  0  0  0  0  0  0  0  0  0
    7.9949  -16.7586   20.2296 O   0  0  0  0  0  0  0  0  0  0  0  0
    8.9096  -15.5025   21.9087 N   0  0  0  0  0  0  0  0  0  0  0  0
    9.3689  -16.6403   22.6783 C   0  0  1  0  0  0  0  0  0  0  0  0
   10.5069  -17.3416   22.0022 C   0  0  0  0  0  0  0  0  0  0  0  0
   10.1491  -18.6217   21.3971 C   0  0  0  0  0  0  0  0  0  0  0  0
    9.7385  -19.5521   22.1314 O   0  0  0  0  0  0  0  0  0  0  0  0
    9.6888  -16.2552   24.0784 C   0  0  0  0  0  0  0  0  0  0  0  0
   10.6581  -15.5147   24.3735 O   0  0  0  0  0  0  0  0  0  0  0  0
   10.2432  -18.8577   20.0366 O   0  0  0  0  0  0  0  0  0  0  0  0
    8.8820  -16.7292   25.1497 N   0  0  0  0  0  0  0  0  0  0  0  0
    9.2236  -16.4711   26.5592 C   0  0  1  0  0  0  0  0  0  0  0  0
    8.0582  -15.8938   27.2911 C   0  0  0  0  0  0  0  0  0  0  0  0
    7.8281  -14.5067   26.8697 C   0  0  0  0  0  0  0  0  0  0  0  0
    8.6659  -13.4960   27.2914 C   0  0  0  0  0  0  0  0  0  0  0  0
    8.4767  -12.1918   26.8955 C   0  0  0  0  0  0  0  0  0  0  0  0
    7.4441  -11.8564   26.0654 C   0  0  0  0  0  0  0  0  0  0  0  0
    6.6026  -12.8508   25.6377 C   0  0  0  0  0  0  0  0  0  0  0  0
    6.7879  -14.1740   26.0345 C   0  0  0  0  0  0  0  0  0  0  0  0
    9.8268  -17.6687   27.1672 C   0  0  0  0  0  0  0  0  0  0  0  0
   10.4467  -17.7025   28.4041 O   0  0  0  0  0  0  0  0  0  0  0  0
    9.8128  -18.7971   26.5588 O   0  0  0  0  0  0  0  0  0  0  0  0
  2  3  1  6
  2  1  1  0
  4  2  1  0
  4  5  1  6
  6  7  2  0
  6  4  1  0
  8  6  1  0
  9  8  1  0
  9 10  1  6
 11 10  1  0
 12 11  2  0
 13 16  1  0
 13  9  1  0
 14 13  2  0
 15 11  1  0
 17 16  1  0
 17 25  1  0
 17 18  1  1
 19 20  2  0
 19 18  1  0
 21 20  1  0
 22 21  2  0
 23 22  1  0
 23 24  2  0
 24 19  1  0
 25 26  1  0
 27 25  2  0
M  END
$$$$
