VDF.pdb
     RDKit          3D

 27 27  0  0  1  0  0  0  0  0999 V2000
    7.7511  -12.5082   20.1513 C   0  0  0  0  0  0  0  0  0  0  0  0
    7.8534  -13.6026   19.1210 C   0  0  1  0  0  0  0  0  0  0  0  0
    8.0191  -12.9603   17.7638 C   0  0  0  0  0  0  0  0  0  0  0  0
    9.0059  -14.5416   19.4018 C   0  0  2  0  0  0  0  0  0  0  0  0
    9.1904  -15.4787   18.3181 N   0  0  0  0  0  0  0  0  0  0  0  0
    8.8173  -15.2122   20.7012 C   0  0  0  0  0  0  0  0  0  0  0  0
    8.6689  -14.5034   21.7283 O   0  0  0  0  0  0  0  0  0  0  0  0
    8.7928  -16.6189   20.8661 N   0  0  0  0  0  0  0  0  0  0  0  0
    8.5824  -17.2303   22.1621 C   0  0  1  0  0  0  0  0  0  0  0  0
    8.6081  -18.7257   22.0783 C   0  0  0  0  0  0  0  0  0  0  0  0
    8.3776  -19.4026   23.3518 C   0  0  0  0  0  0  0  0  0  0  0  0
    9.3621  -19.7610   24.0413 O   0  0  0  0  0  0  0  0  0  0  0  0
    9.5350  -16.7004   23.1734 C   0  0  0  0  0  0  0  0  0  0  0  0
   10.7757  -16.6720   22.9869 O   0  0  0  0  0  0  0  0  0  0  0  0
    7.1094  -19.6695   23.8376 O   0  0  0  0  0  0  0  0  0  0  0  0
    9.0515  -16.1978   24.4131 N   0  0  0  0  0  0  0  0  0  0  0  0
    9.9535  -15.6444   25.4377 C   0  0  1  0  0  0  0  0  0  0  0  0
    9.8778  -14.1542   25.4632 C   0  0  0  0  0  0  0  0  0  0  0  0
    8.5447  -13.7191   25.8973 C   0  0  0  0  0  0  0  0  0  0  0  0
    7.4523  -13.8695   25.0695 C   0  0  0  0  0  0  0  0  0  0  0  0
    6.1920  -13.4824   25.4633 C   0  0  0  0  0  0  0  0  0  0  0  0
    5.9836  -12.9326   26.6971 C   0  0  0  0  0  0  0  0  0  0  0  0
    7.0603  -12.7767   27.5312 C   0  0  0  0  0  0  0  0  0  0  0  0
    8.3399  -13.1664   27.1394 C   0  0  0  0  0  0  0  0  0  0  0  0
    9.7329  -16.3148   26.7299 C   0  0  0  0  0  0  0  0  0  0  0  0
    8.8040  -17.3158   26.9546 O   0  0  0  0  0  0  0  0  0  0  0  0
   10.4171  -15.9948   27.7658 O   0  0  0  0  0  0  0  0  0  0  0  0
  2  3  1  6
  2  1  1  0
  4  2  1  0
  4  5  1  6
  6  7  2  0
  6  4  1  0
  8  6  1  0
  9  8  1  0
  9 10  1  6
 11 10  1  0
 12 11  2  0
 13 16  1  0
 13  9  1  0
 14 13  2  0
 15 11  1  0
 17 16  1  0
 17 25  1  0
 17 18  1  1
 19 20  2  0
 19 18  1  0
 21 20  1  0
 22 21  2  0
 23 22  1  0
 23 24  2  0
 24 19  1  0
 25 26  1  0
 27 25  2  0
M  END
$$$$
