VDF.pdb
     RDKit          3D

 27 27  0  0  1  0  0  0  0  0999 V2000
    7.6506  -12.5745   19.3018 C   0  0  0  0  0  0  0  0  0  0  0  0
    8.0690  -13.3813   20.5033 C   0  0  1  0  0  0  0  0  0  0  0  0
    7.0149  -13.2179   21.5731 C   0  0  0  0  0  0  0  0  0  0  0  0
    8.2548  -14.8450   20.1684 C   0  0  2  0  0  0  0  0  0  0  0  0
    7.0328  -15.4219   19.6579 N   0  0  0  0  0  0  0  0  0  0  0  0
    8.7790  -15.5767   21.3360 C   0  0  0  0  0  0  0  0  0  0  0  0
    7.9733  -16.2209   22.0538 O   0  0  0  0  0  0  0  0  0  0  0  0
   10.1469  -15.5993   21.7031 N   0  0  0  0  0  0  0  0  0  0  0  0
   10.6330  -16.4381   22.7792 C   0  0  1  0  0  0  0  0  0  0  0  0
   12.1285  -16.5245   22.7800 C   0  0  0  0  0  0  0  0  0  0  0  0
   12.6939  -17.1629   21.5943 C   0  0  0  0  0  0  0  0  0  0  0  0
   13.4168  -16.4886   20.8223 O   0  0  0  0  0  0  0  0  0  0  0  0
   10.0872  -16.0061   24.0931 C   0  0  0  0  0  0  0  0  0  0  0  0
    9.7490  -14.8211   24.3305 O   0  0  0  0  0  0  0  0  0  0  0  0
   12.4660  -18.4914   21.2802 O   0  0  0  0  0  0  0  0  0  0  0  0
    9.9296  -16.9510   25.1446 N   0  0  0  0  0  0  0  0  0  0  0  0
    9.2339  -16.6161   26.3990 C   0  0  1  0  0  0  0  0  0  0  0  0
    7.7896  -16.3375   26.1473 C   0  0  0  0  0  0  0  0  0  0  0  0
    7.5280  -14.8951   26.2233 C   0  0  0  0  0  0  0  0  0  0  0  0
    8.1470  -14.1181   27.1795 C   0  0  0  0  0  0  0  0  0  0  0  0
    7.9273  -12.7620   27.2578 C   0  0  0  0  0  0  0  0  0  0  0  0
    7.0819  -12.1395   26.3828 C   0  0  0  0  0  0  0  0  0  0  0  0
    6.4592  -12.8991   25.4264 C   0  0  0  0  0  0  0  0  0  0  0  0
    6.6767  -14.2732   25.3408 C   0  0  0  0  0  0  0  0  0  0  0  0
    9.5161  -17.6312   27.4275 C   0  0  0  0  0  0  0  0  0  0  0  0
   10.1494  -18.8396   27.1952 O   0  0  0  0  0  0  0  0  0  0  0  0
    9.1756  -17.4462   28.6496 O   0  0  0  0  0  0  0  0  0  0  0  0
  2  3  1  1
  2  1  1  0
  4  2  1  0
  4  5  1  1
  6  7  2  0
  6  4  1  0
  8  6  1  0
  9  8  1  0
  9 10  1  1
 11 10  1  0
 12 11  2  0
 13 16  1  0
 13  9  1  0
 14 13  2  0
 15 11  1  0
 17 16  1  0
 17 25  1  0
 17 18  1  6
 19 20  2  0
 19 18  1  0
 21 20  1  0
 22 21  2  0
 23 22  1  0
 23 24  2  0
 24 19  1  0
 25 26  1  0
 27 25  2  0
M  END
$$$$
