VDF.pdb
     RDKit          3D

 27 27  0  0  1  0  0  0  0  0999 V2000
    8.4309  -12.8021   21.6550 C   0  0  0  0  0  0  0  0  0  0  0  0
    7.3314  -13.6215   21.0311 C   0  0  1  0  0  0  0  0  0  0  0  0
    6.6743  -12.7896   19.9548 C   0  0  0  0  0  0  0  0  0  0  0  0
    7.8494  -14.9185   20.4494 C   0  0  2  0  0  0  0  0  0  0  0  0
    6.8301  -15.5849   19.6724 N   0  0  0  0  0  0  0  0  0  0  0  0
    8.3973  -15.7771   21.5153 C   0  0  0  0  0  0  0  0  0  0  0  0
    7.6124  -16.5311   22.1436 O   0  0  0  0  0  0  0  0  0  0  0  0
    9.7659  -15.8055   21.8792 N   0  0  0  0  0  0  0  0  0  0  0  0
   10.2638  -16.7031   22.9011 C   0  0  1  0  0  0  0  0  0  0  0  0
   11.6943  -17.0764   22.6594 C   0  0  0  0  0  0  0  0  0  0  0  0
   11.9251  -17.7909   21.4067 C   0  0  0  0  0  0  0  0  0  0  0  0
   11.2859  -18.8454   21.1770 O   0  0  0  0  0  0  0  0  0  0  0  0
   10.0423  -16.1506   24.2637 C   0  0  0  0  0  0  0  0  0  0  0  0
   10.7078  -15.1909   24.7229 O   0  0  0  0  0  0  0  0  0  0  0  0
   12.8262  -17.3533   20.4517 O   0  0  0  0  0  0  0  0  0  0  0  0
    9.0422  -16.7111   25.1058 N   0  0  0  0  0  0  0  0  0  0  0  0
    8.9600  -16.3918   26.5415 C   0  0  1  0  0  0  0  0  0  0  0  0
    7.5948  -15.9081   26.9007 C   0  0  0  0  0  0  0  0  0  0  0  0
    7.4450  -14.4925   26.5423 C   0  0  0  0  0  0  0  0  0  0  0  0
    8.4404  -13.5844   26.8352 C   0  0  0  0  0  0  0  0  0  0  0  0
    8.3263  -12.2562   26.4940 C   0  0  0  0  0  0  0  0  0  0  0  0
    7.2135  -11.7936   25.8492 C   0  0  0  0  0  0  0  0  0  0  0  0
    6.2153  -12.6849   25.5514 C   0  0  0  0  0  0  0  0  0  0  0  0
    6.3238  -14.0316   25.8938 C   0  0  0  0  0  0  0  0  0  0  0  0
    9.4688  -17.5154   27.3455 C   0  0  0  0  0  0  0  0  0  0  0  0
    9.8244  -18.7539   26.8405 O   0  0  0  0  0  0  0  0  0  0  0  0
    9.6166  -17.4065   28.6144 O   0  0  0  0  0  0  0  0  0  0  0  0
  2  3  1  6
  2  1  1  0
  4  2  1  0
  4  5  1  1
  6  7  2  0
  6  4  1  0
  8  6  1  0
  9  8  1  0
  9 10  1  6
 11 10  1  0
 12 11  2  0
 13 16  1  0
 13  9  1  0
 14 13  2  0
 15 11  1  0
 17 16  1  0
 17 25  1  0
 17 18  1  1
 19 20  2  0
 19 18  1  0
 21 20  1  0
 22 21  2  0
 23 22  1  0
 23 24  2  0
 24 19  1  0
 25 26  1  0
 27 25  2  0
M  END
$$$$
