VDF.pdb
     RDKit          3D

 27 27  0  0  1  0  0  0  0  0999 V2000
    7.6404  -12.3958   19.3718 C   0  0  0  0  0  0  0  0  0  0  0  0
    8.1836  -13.3568   20.3969 C   0  0  1  0  0  0  0  0  0  0  0  0
    7.3008  -13.2912   21.6211 C   0  0  0  0  0  0  0  0  0  0  0  0
    8.2467  -14.7738   19.8704 C   0  0  2  0  0  0  0  0  0  0  0  0
    6.9769  -15.1801   19.3144 N   0  0  0  0  0  0  0  0  0  0  0  0
    8.7215  -15.6919   20.9217 C   0  0  0  0  0  0  0  0  0  0  0  0
    7.9005  -16.4906   21.4389 O   0  0  0  0  0  0  0  0  0  0  0  0
   10.0578  -15.7305   21.3899 N   0  0  0  0  0  0  0  0  0  0  0  0
   10.4977  -16.7145   22.3575 C   0  0  1  0  0  0  0  0  0  0  0  0
   11.9295  -17.0991   22.1426 C   0  0  0  0  0  0  0  0  0  0  0  0
   12.4067  -18.1570   23.0292 C   0  0  0  0  0  0  0  0  0  0  0  0
   13.5300  -18.0381   23.5743 O   0  0  0  0  0  0  0  0  0  0  0  0
   10.2323  -16.2635   23.7493 C   0  0  0  0  0  0  0  0  0  0  0  0
   10.9731  -15.4487   24.3511 O   0  0  0  0  0  0  0  0  0  0  0  0
   11.6686  -19.2965   23.2981 O   0  0  0  0  0  0  0  0  0  0  0  0
    9.1002  -16.7576   24.4546 N   0  0  0  0  0  0  0  0  0  0  0  0
    8.8334  -16.3951   25.8572 C   0  0  1  0  0  0  0  0  0  0  0  0
    7.4088  -15.9898   26.0394 C   0  0  0  0  0  0  0  0  0  0  0  0
    7.2970  -14.5269   26.0856 C   0  0  0  0  0  0  0  0  0  0  0  0
    6.1324  -13.8985   25.6984 C   0  0  0  0  0  0  0  0  0  0  0  0
    6.0019  -12.5297   25.7488 C   0  0  0  0  0  0  0  0  0  0  0  0
    7.0314  -11.7453   26.1879 C   0  0  0  0  0  0  0  0  0  0  0  0
    8.1958  -12.3560   26.5763 C   0  0  0  0  0  0  0  0  0  0  0  0
    8.3354  -13.7419   26.5281 C   0  0  0  0  0  0  0  0  0  0  0  0
    9.3139  -17.4544   26.7599 C   0  0  0  0  0  0  0  0  0  0  0  0
    9.8441  -18.6650   26.3491 O   0  0  0  0  0  0  0  0  0  0  0  0
    9.2653  -17.3104   28.0329 O   0  0  0  0  0  0  0  0  0  0  0  0
  2  3  1  1
  2  1  1  0
  4  2  1  0
  4  5  1  1
  6  7  2  0
  6  4  1  0
  8  6  1  0
  9  8  1  0
  9 10  1  1
 11 10  1  0
 12 11  2  0
 13 16  1  0
 13  9  1  0
 14 13  2  0
 15 11  1  0
 17 16  1  0
 17 25  1  0
 17 18  1  6
 19 20  2  0
 19 18  1  0
 21 20  1  0
 22 21  2  0
 23 22  1  0
 23 24  2  0
 24 19  1  0
 25 26  1  0
 27 25  2  0
M  END
$$$$
