VDF.pdb
     RDKit          3D

 27 27  0  0  1  0  0  0  0  0999 V2000
    8.1553  -12.2515   19.5334 C   0  0  0  0  0  0  0  0  0  0  0  0
    8.3681  -13.2383   20.6517 C   0  0  1  0  0  0  0  0  0  0  0  0
    7.2858  -13.0241   21.6837 C   0  0  0  0  0  0  0  0  0  0  0  0
    8.3483  -14.6686   20.1591 C   0  0  2  0  0  0  0  0  0  0  0  0
    7.0905  -14.9829   19.5220 N   0  0  0  0  0  0  0  0  0  0  0  0
    8.6702  -15.5955   21.2595 C   0  0  0  0  0  0  0  0  0  0  0  0
    7.7288  -16.0557   21.9534 O   0  0  0  0  0  0  0  0  0  0  0  0
    9.9865  -16.0037   21.5868 N   0  0  0  0  0  0  0  0  0  0  0  0
   10.2453  -16.9787   22.6261 C   0  0  1  0  0  0  0  0  0  0  0  0
   11.5899  -17.6181   22.4615 C   0  0  0  0  0  0  0  0  0  0  0  0
   11.7982  -18.2529   21.1628 C   0  0  0  0  0  0  0  0  0  0  0  0
   11.0146  -19.1595   20.7922 O   0  0  0  0  0  0  0  0  0  0  0  0
   10.0556  -16.3926   23.9795 C   0  0  0  0  0  0  0  0  0  0  0  0
   10.7149  -15.4070   24.3902 O   0  0  0  0  0  0  0  0  0  0  0  0
   12.8311  -17.8962   20.3135 O   0  0  0  0  0  0  0  0  0  0  0  0
    9.0952  -16.9495   24.8687 N   0  0  0  0  0  0  0  0  0  0  0  0
    8.9751  -16.5051   26.2680 C   0  0  1  0  0  0  0  0  0  0  0  0
    7.5620  -16.1536   26.5944 C   0  0  0  0  0  0  0  0  0  0  0  0
    7.3153  -14.7319   26.3250 C   0  0  0  0  0  0  0  0  0  0  0  0
    6.2069  -14.3346   25.6074 C   0  0  0  0  0  0  0  0  0  0  0  0
    5.9494  -13.0062   25.3574 C   0  0  0  0  0  0  0  0  0  0  0  0
    6.7915  -12.0327   25.8168 C   0  0  0  0  0  0  0  0  0  0  0  0
    7.8977  -12.4125   26.5320 C   0  0  0  0  0  0  0  0  0  0  0  0
    8.1652  -13.7560   26.7892 C   0  0  0  0  0  0  0  0  0  0  0  0
    9.6134  -17.4778   27.1704 C   0  0  0  0  0  0  0  0  0  0  0  0
    9.9552  -17.2299   28.4884 O   0  0  0  0  0  0  0  0  0  0  0  0
    9.9026  -18.6606   26.7692 O   0  0  0  0  0  0  0  0  0  0  0  0
  2  3  1  1
  2  1  1  0
  4  2  1  0
  4  5  1  1
  6  7  2  0
  6  4  1  0
  8  6  1  0
  9  8  1  0
  9 10  1  1
 11 10  1  0
 12 11  2  0
 13 16  1  0
 13  9  1  0
 14 13  2  0
 15 11  1  0
 17 16  1  0
 17 25  1  0
 17 18  1  1
 19 20  2  0
 19 18  1  0
 21 20  1  0
 22 21  2  0
 23 22  1  0
 23 24  2  0
 24 19  1  0
 25 26  1  0
 27 25  2  0
M  END
$$$$
