VDF.pdb
     RDKit          3D

 27 27  0  0  1  0  0  0  0  0999 V2000
    6.1676  -14.0934   21.2016 C   0  0  0  0  0  0  0  0  0  0  0  0
    7.2657  -14.7583   21.9899 C   0  0  1  0  0  0  0  0  0  0  0  0
    6.6308  -15.5611   23.1010 C   0  0  0  0  0  0  0  0  0  0  0  0
    8.1270  -15.6507   21.1234 C   0  0  2  0  0  0  0  0  0  0  0  0
    7.3279  -16.6393   20.4373 N   0  0  0  0  0  0  0  0  0  0  0  0
    9.2076  -16.2556   21.9234 C   0  0  0  0  0  0  0  0  0  0  0  0
    9.1129  -17.4669   22.2445 O   0  0  0  0  0  0  0  0  0  0  0  0
   10.3570  -15.5502   22.3570 N   0  0  0  0  0  0  0  0  0  0  0  0
   11.4620  -16.2221   23.0091 C   0  0  1  0  0  0  0  0  0  0  0  0
   12.7693  -15.5554   22.7082 C   0  0  0  0  0  0  0  0  0  0  0  0
   13.9259  -16.1918   23.3329 C   0  0  0  0  0  0  0  0  0  0  0  0
   14.2954  -17.3205   22.9293 O   0  0  0  0  0  0  0  0  0  0  0  0
   11.2217  -16.3706   24.4690 C   0  0  0  0  0  0  0  0  0  0  0  0
   12.0670  -16.8746   25.2477 O   0  0  0  0  0  0  0  0  0  0  0  0
   14.6402  -15.6005   24.3603 O   0  0  0  0  0  0  0  0  0  0  0  0
    9.9931  -15.9329   25.0369 N   0  0  0  0  0  0  0  0  0  0  0  0
    9.6146  -16.2540   26.4238 C   0  0  1  0  0  0  0  0  0  0  0  0
    9.2776  -15.0143   27.1831 C   0  0  0  0  0  0  0  0  0  0  0  0
    8.4327  -14.1321   26.3692 C   0  0  0  0  0  0  0  0  0  0  0  0
    7.1009  -13.9529   26.6786 C   0  0  0  0  0  0  0  0  0  0  0  0
    6.2957  -13.1185   25.9378 C   0  0  0  0  0  0  0  0  0  0  0  0
    6.7961  -12.4366   24.8642 C   0  0  0  0  0  0  0  0  0  0  0  0
    8.1186  -12.6047   24.5444 C   0  0  0  0  0  0  0  0  0  0  0  0
    8.9404  -13.4481   25.2900 C   0  0  0  0  0  0  0  0  0  0  0  0
    8.5889  -17.3102   26.4428 C   0  0  0  0  0  0  0  0  0  0  0  0
    7.9746  -17.8382   25.3207 O   0  0  0  0  0  0  0  0  0  0  0  0
    8.1880  -17.8223   27.5477 O   0  0  0  0  0  0  0  0  0  0  0  0
  2  3  1  1
  2  1  1  0
  4  2  1  0
  4  5  1  1
  6  7  2  0
  6  4  1  0
  8  6  1  0
  9  8  1  0
  9 10  1  1
 11 10  1  0
 12 11  2  0
 13 16  1  0
 13  9  1  0
 14 13  2  0
 15 11  1  0
 17 16  1  0
 17 25  1  0
 17 18  1  6
 19 20  2  0
 19 18  1  0
 21 20  1  0
 22 21  2  0
 23 22  1  0
 23 24  2  0
 24 19  1  0
 25 26  1  0
 27 25  2  0
M  END
$$$$
