VDF.pdb
     RDKit          3D

 27 27  0  0  1  0  0  0  0  0999 V2000
    8.5573  -12.2158   19.4188 C   0  0  0  0  0  0  0  0  0  0  0  0
    8.4028  -13.3070   20.4459 C   0  0  1  0  0  0  0  0  0  0  0  0
    6.9479  -13.3768   20.8465 C   0  0  0  0  0  0  0  0  0  0  0  0
    8.8689  -14.6485   19.9244 C   0  0  2  0  0  0  0  0  0  0  0  0
    8.2562  -14.9545   18.6525 N   0  0  0  0  0  0  0  0  0  0  0  0
    8.6349  -15.7003   20.9306 C   0  0  0  0  0  0  0  0  0  0  0  0
    7.6869  -16.5055   20.7503 O   0  0  0  0  0  0  0  0  0  0  0  0
    9.4191  -15.8619   22.0991 N   0  0  0  0  0  0  0  0  0  0  0  0
    9.0324  -16.7737   23.1559 C   0  0  1  0  0  0  0  0  0  0  0  0
    9.8815  -18.0078   23.1592 C   0  0  0  0  0  0  0  0  0  0  0  0
   11.3137  -17.7517   23.0326 C   0  0  0  0  0  0  0  0  0  0  0  0
   11.7279  -16.5680   23.0539 O   0  0  0  0  0  0  0  0  0  0  0  0
    9.0110  -16.0941   24.4783 C   0  0  0  0  0  0  0  0  0  0  0  0
    8.0717  -15.3448   24.8406 O   0  0  0  0  0  0  0  0  0  0  0  0
   12.2445  -18.7659   22.8887 O   0  0  0  0  0  0  0  0  0  0  0  0
   10.0844  -16.2808   25.3928 N   0  0  0  0  0  0  0  0  0  0  0  0
   10.1749  -15.5290   26.6563 C   0  0  1  0  0  0  0  0  0  0  0  0
    8.8582  -15.5094   27.3582 C   0  0  0  0  0  0  0  0  0  0  0  0
    8.1077  -14.2997   27.0000 C   0  0  0  0  0  0  0  0  0  0  0  0
    6.9310  -14.3881   26.2867 C   0  0  0  0  0  0  0  0  0  0  0  0
    6.2047  -13.2677   25.9543 C   0  0  0  0  0  0  0  0  0  0  0  0
    6.6315  -12.0232   26.3245 C   0  0  0  0  0  0  0  0  0  0  0  0
    7.7998  -11.9195   27.0343 C   0  0  0  0  0  0  0  0  0  0  0  0
    8.5409  -13.0498   27.3745 C   0  0  0  0  0  0  0  0  0  0  0  0
   11.3150  -16.0073   27.4558 C   0  0  0  0  0  0  0  0  0  0  0  0
   11.8115  -15.3773   28.5836 O   0  0  0  0  0  0  0  0  0  0  0  0
   11.9408  -17.0804   27.1386 O   0  0  0  0  0  0  0  0  0  0  0  0
  2  3  1  6
  2  1  1  0
  4  2  1  0
  4  5  1  6
  6  7  2  0
  6  4  1  0
  8  6  1  0
  9  8  1  0
  9 10  1  1
 11 10  1  0
 12 11  2  0
 13 16  1  0
 13  9  1  0
 14 13  2  0
 15 11  1  0
 17 16  1  0
 17 25  1  0
 17 18  1  1
 19 20  2  0
 19 18  1  0
 21 20  1  0
 22 21  2  0
 23 22  1  0
 23 24  2  0
 24 19  1  0
 25 26  1  0
 27 25  2  0
M  END
$$$$
