VDF.pdb
     RDKit          3D

 27 27  0  0  1  0  0  0  0  0999 V2000
    8.5889  -12.2306   19.3291 C   0  0  0  0  0  0  0  0  0  0  0  0
    8.3997  -13.2053   20.4622 C   0  0  1  0  0  0  0  0  0  0  0  0
    7.3274  -12.6634   21.3780 C   0  0  0  0  0  0  0  0  0  0  0  0
    8.0209  -14.5843   19.9684 C   0  0  2  0  0  0  0  0  0  0  0  0
    6.7622  -14.5566   19.2601 N   0  0  0  0  0  0  0  0  0  0  0  0
    8.0186  -15.5471   21.0849 C   0  0  0  0  0  0  0  0  0  0  0  0
    7.0072  -16.2745   21.2501 O   0  0  0  0  0  0  0  0  0  0  0  0
    9.0952  -15.7051   21.9917 N   0  0  0  0  0  0  0  0  0  0  0  0
    9.4984  -17.0094   22.4755 C   0  0  1  0  0  0  0  0  0  0  0  0
   10.4861  -17.6590   21.5554 C   0  0  0  0  0  0  0  0  0  0  0  0
   10.8575  -19.0190   21.9365 C   0  0  0  0  0  0  0  0  0  0  0  0
   12.0597  -19.2789   22.1820 O   0  0  0  0  0  0  0  0  0  0  0  0
    9.9870  -16.9409   23.8782 C   0  0  0  0  0  0  0  0  0  0  0  0
   10.4692  -17.9324   24.4776 O   0  0  0  0  0  0  0  0  0  0  0  0
    9.9341  -20.0448   22.0401 O   0  0  0  0  0  0  0  0  0  0  0  0
    9.9188  -15.7155   24.5973 N   0  0  0  0  0  0  0  0  0  0  0  0
    9.4004  -15.6449   25.9743 C   0  0  1  0  0  0  0  0  0  0  0  0
    7.9108  -15.5542   25.9771 C   0  0  0  0  0  0  0  0  0  0  0  0
    7.4858  -14.1499   26.0215 C   0  0  0  0  0  0  0  0  0  0  0  0
    6.1560  -13.8134   25.8817 C   0  0  0  0  0  0  0  0  0  0  0  0
    5.7351  -12.5044   25.9358 C   0  0  0  0  0  0  0  0  0  0  0  0
    6.6301  -11.4902   26.1313 C   0  0  0  0  0  0  0  0  0  0  0  0
    7.9560  -11.8095   26.2720 C   0  0  0  0  0  0  0  0  0  0  0  0
    8.3898  -13.1329   26.2184 C   0  0  0  0  0  0  0  0  0  0  0  0
    9.9735  -16.7261   26.7930 C   0  0  0  0  0  0  0  0  0  0  0  0
    9.9599  -16.7646   28.1763 O   0  0  0  0  0  0  0  0  0  0  0  0
   10.5436  -17.7368   26.2478 O   0  0  0  0  0  0  0  0  0  0  0  0
  2  3  1  1
  2  1  1  0
  4  2  1  0
  4  5  1  1
  6  7  2  0
  6  4  1  0
  8  6  1  0
  9  8  1  0
  9 10  1  6
 11 10  1  0
 12 11  2  0
 13 16  1  0
 13  9  1  0
 14 13  2  0
 15 11  1  0
 17 16  1  0
 17 25  1  0
 17 18  1  6
 19 20  2  0
 19 18  1  0
 21 20  1  0
 22 21  2  0
 23 22  1  0
 23 24  2  0
 24 19  1  0
 25 26  1  0
 27 25  2  0
M  END
$$$$
