VDF.pdb
     RDKit          3D

 27 27  0  0  1  0  0  0  0  0999 V2000
    7.6241  -12.3035   18.7462 C   0  0  0  0  0  0  0  0  0  0  0  0
    7.5145  -13.4215   19.7500 C   0  0  1  0  0  0  0  0  0  0  0  0
    6.9939  -14.6475   19.0372 C   0  0  0  0  0  0  0  0  0  0  0  0
    8.8411  -13.7227   20.4122 C   0  0  2  0  0  0  0  0  0  0  0  0
    9.8572  -14.0234   19.4304 N   0  0  0  0  0  0  0  0  0  0  0  0
    8.6851  -14.7972   21.4095 C   0  0  0  0  0  0  0  0  0  0  0  0
    7.7217  -14.7362   22.2142 O   0  0  0  0  0  0  0  0  0  0  0  0
    9.5616  -15.9047   21.5187 N   0  0  0  0  0  0  0  0  0  0  0  0
    9.3511  -16.9486   22.5004 C   0  0  1  0  0  0  0  0  0  0  0  0
   10.1535  -18.1737   22.1849 C   0  0  0  0  0  0  0  0  0  0  0  0
    9.7672  -18.8418   20.9450 C   0  0  0  0  0  0  0  0  0  0  0  0
    8.5496  -19.0026   20.6902 O   0  0  0  0  0  0  0  0  0  0  0  0
    9.5903  -16.4516   23.8812 C   0  0  0  0  0  0  0  0  0  0  0  0
   10.6689  -15.9140   24.2311 O   0  0  0  0  0  0  0  0  0  0  0  0
   10.6927  -19.3104   20.0288 O   0  0  0  0  0  0  0  0  0  0  0  0
    8.5745  -16.5759   24.8691 N   0  0  0  0  0  0  0  0  0  0  0  0
    8.8265  -16.2841   26.2908 C   0  0  1  0  0  0  0  0  0  0  0  0
    7.5858  -15.7959   26.9610 C   0  0  0  0  0  0  0  0  0  0  0  0
    7.3500  -14.3850   26.6313 C   0  0  0  0  0  0  0  0  0  0  0  0
    8.3220  -13.4361   26.8684 C   0  0  0  0  0  0  0  0  0  0  0  0
    8.1267  -12.1112   26.5525 C   0  0  0  0  0  0  0  0  0  0  0  0
    6.9538  -11.6926   25.9895 C   0  0  0  0  0  0  0  0  0  0  0  0
    5.9780  -12.6248   25.7479 C   0  0  0  0  0  0  0  0  0  0  0  0
    6.1684  -13.9686   26.0651 C   0  0  0  0  0  0  0  0  0  0  0  0
    9.4912  -17.4275   26.9379 C   0  0  0  0  0  0  0  0  0  0  0  0
   10.1439  -17.3782   28.1572 O   0  0  0  0  0  0  0  0  0  0  0  0
    9.5051  -18.5839   26.3842 O   0  0  0  0  0  0  0  0  0  0  0  0
  2  3  1  6
  2  1  1  0
  4  2  1  0
  4  5  1  6
  6  7  2  0
  6  4  1  0
  8  6  1  0
  9  8  1  0
  9 10  1  6
 11 10  1  0
 12 11  2  0
 13 16  1  0
 13  9  1  0
 14 13  2  0
 15 11  1  0
 17 16  1  0
 17 25  1  0
 17 18  1  1
 19 20  2  0
 19 18  1  0
 21 20  1  0
 22 21  2  0
 23 22  1  0
 23 24  2  0
 24 19  1  0
 25 26  1  0
 27 25  2  0
M  END
$$$$
