VDF.pdb
     RDKit          3D

 27 27  0  0  1  0  0  0  0  0999 V2000
    7.8886  -12.2363   19.6211 C   0  0  0  0  0  0  0  0  0  0  0  0
    8.2388  -13.2422   20.6865 C   0  0  1  0  0  0  0  0  0  0  0  0
    7.2652  -13.0783   21.8300 C   0  0  0  0  0  0  0  0  0  0  0  0
    8.2002  -14.6612   20.1632 C   0  0  2  0  0  0  0  0  0  0  0  0
    6.9261  -14.9558   19.5496 N   0  0  0  0  0  0  0  0  0  0  0  0
    8.5435  -15.6136   21.2350 C   0  0  0  0  0  0  0  0  0  0  0  0
    7.6127  -16.2240   21.8185 O   0  0  0  0  0  0  0  0  0  0  0  0
    9.8693  -15.8862   21.6524 N   0  0  0  0  0  0  0  0  0  0  0  0
   10.1576  -16.8597   22.6854 C   0  0  1  0  0  0  0  0  0  0  0  0
   11.4310  -17.5985   22.4086 C   0  0  0  0  0  0  0  0  0  0  0  0
   11.3889  -18.4425   21.2175 C   0  0  0  0  0  0  0  0  0  0  0  0
   10.4015  -19.1941   21.0348 O   0  0  0  0  0  0  0  0  0  0  0  0
   10.1423  -16.2384   24.0363 C   0  0  0  0  0  0  0  0  0  0  0  0
   10.9076  -15.2975   24.3588 O   0  0  0  0  0  0  0  0  0  0  0  0
   12.3990  -18.4512   20.2714 O   0  0  0  0  0  0  0  0  0  0  0  0
    9.2344  -16.7073   25.0258 N   0  0  0  0  0  0  0  0  0  0  0  0
    9.2655  -16.2123   26.4129 C   0  0  1  0  0  0  0  0  0  0  0  0
    7.8855  -15.9385   26.9103 C   0  0  0  0  0  0  0  0  0  0  0  0
    7.4297  -14.6213   26.4498 C   0  0  0  0  0  0  0  0  0  0  0  0
    7.9315  -13.4674   27.0137 C   0  0  0  0  0  0  0  0  0  0  0  0
    7.5290  -12.2231   26.5859 C   0  0  0  0  0  0  0  0  0  0  0  0
    6.6121  -12.0926   25.5808 C   0  0  0  0  0  0  0  0  0  0  0  0
    6.1043  -13.2311   25.0104 C   0  0  0  0  0  0  0  0  0  0  0  0
    6.5072  -14.4949   25.4383 C   0  0  0  0  0  0  0  0  0  0  0  0
   10.0806  -17.1028   27.2558 C   0  0  0  0  0  0  0  0  0  0  0  0
   10.6449  -18.2943   26.8351 O   0  0  0  0  0  0  0  0  0  0  0  0
   10.3235  -16.8135   28.4810 O   0  0  0  0  0  0  0  0  0  0  0  0
  2  3  1  1
  2  1  1  0
  4  2  1  0
  4  5  1  1
  6  7  2  0
  6  4  1  0
  8  6  1  0
  9  8  1  0
  9 10  1  6
 11 10  1  0
 12 11  2  0
 13 16  1  0
 13  9  1  0
 14 13  2  0
 15 11  1  0
 17 16  1  0
 17 25  1  0
 17 18  1  1
 19 20  2  0
 19 18  1  0
 21 20  1  0
 22 21  2  0
 23 22  1  0
 23 24  2  0
 24 19  1  0
 25 26  1  0
 27 25  2  0
M  END
$$$$
