YNN.pdb
     RDKit          3D

 29 29  0  0  1  0  0  0  0  0999 V2000
   21.5985   -3.7277  -14.4302 O   0  0  0  0  0  0  0  0  0  0  0  0
   22.1424   -4.7945  -15.1222 C   0  0  0  0  0  0  0  0  0  0  0  0
   22.7297   -4.5684  -16.3425 C   0  0  0  0  0  0  0  0  0  0  0  0
   23.2635   -5.6281  -17.0176 C   0  0  0  0  0  0  0  0  0  0  0  0
   23.2446   -6.9211  -16.5378 C   0  0  0  0  0  0  0  0  0  0  0  0
   23.8272   -8.0436  -17.2967 C   0  0  0  0  0  0  0  0  0  0  0  0
   25.2890   -8.2092  -16.9315 C   0  0  2  0  0  0  0  0  0  0  0  0
   26.0914   -7.1206  -17.4243 N   0  0  0  0  0  0  0  0  0  0  0  0
   25.8426   -9.4801  -17.4218 C   0  0  0  0  0  0  0  0  0  0  0  0
   26.3763   -9.5044  -18.5590 O   0  0  0  0  0  0  0  0  0  0  0  0
   22.6537   -7.1328  -15.3151 C   0  0  0  0  0  0  0  0  0  0  0  0
   22.1031   -6.0619  -14.6104 C   0  0  0  0  0  0  0  0  0  0  0  0
   28.5908  -11.2147  -15.9951 N   0  0  0  0  0  0  0  0  0  0  0  0
   27.9722  -12.4674  -15.7568 C   0  0  0  0  0  0  0  0  0  0  0  0
   28.5232  -13.2431  -14.9001 O   0  0  0  0  0  0  0  0  0  0  0  0
   26.7440  -12.9410  -16.4207 C   0  0  0  0  0  0  0  0  0  0  0  0
   26.1576  -11.9398  -17.3451 C   0  0  2  0  0  0  0  0  0  0  0  0
   25.8225  -10.7133  -16.6980 N   0  0  0  0  0  0  0  0  0  0  0  0
   25.0262  -12.4694  -18.1629 C   0  0  0  0  0  0  0  0  0  0  0  0
   25.0681  -13.6484  -18.5519 O   0  0  0  0  0  0  0  0  0  0  0  0
   19.5700  -13.7447  -18.7912 N   0  0  0  0  0  0  0  0  0  0  0  0
   20.8945  -13.7394  -19.2612 C   0  0  0  0  0  0  0  0  0  0  0  0
   21.1475  -14.1654  -20.4445 O   0  0  0  0  0  0  0  0  0  0  0  0
   22.0472  -13.2661  -18.4664 C   0  0  0  0  0  0  0  0  0  0  0  0
   22.7402  -12.1577  -19.2298 C   0  0  2  0  0  0  0  0  0  0  0  0
   23.9063  -11.6864  -18.5133 N   0  0  0  0  0  0  0  0  0  0  0  0
   21.8100  -11.0396  -19.4130 C   0  0  0  0  0  0  0  0  0  0  0  0
   21.1009  -10.9273  -20.6013 O   0  0  0  0  0  0  0  0  0  0  0  0
   21.6051  -10.1479  -18.5388 O   0  0  0  0  0  0  0  0  0  0  0  0
  2  1  1  0
  2 12  2  0
  3  2  1  0
  4  3  2  0
  4  5  1  0
  5 11  2  0
  6  5  1  0
  7  8  1  6
  7  6  1  0
  9  7  1  0
 10  9  2  0
 11 12  1  0
 13 14  1  0
 14 15  2  0
 14 16  1  0
 17 16  1  1
 17 19  1  0
 17 18  1  0
 18  9  1  0
 19 20  2  0
 22 21  1  0
 22 24  1  0
 23 22  2  0
 25 24  1  1
 26 25  1  0
 26 19  1  0
 27 28  1  0
 27 25  1  0
 29 27  2  0
M  END
$$$$
