YNN.pdb
     RDKit          3D

 29 29  0  0  1  0  0  0  0  0999 V2000
   17.6370  -14.4202  -12.4621 O   0  0  0  0  0  0  0  0  0  0  0  0
   17.3939  -13.0687  -12.2965 C   0  0  0  0  0  0  0  0  0  0  0  0
   17.1211  -12.2998  -13.4008 C   0  0  0  0  0  0  0  0  0  0  0  0
   16.8827  -10.9669  -13.2266 C   0  0  0  0  0  0  0  0  0  0  0  0
   16.9013  -10.3471  -11.9947 C   0  0  0  0  0  0  0  0  0  0  0  0
   16.6435   -8.9028  -11.8439 C   0  0  0  0  0  0  0  0  0  0  0  0
   15.3476   -8.6865  -11.0879 C   0  0  2  0  0  0  0  0  0  0  0  0
   14.2232   -9.2663  -11.7744 N   0  0  0  0  0  0  0  0  0  0  0  0
   15.0817   -7.2619  -10.8392 C   0  0  0  0  0  0  0  0  0  0  0  0
   14.5288   -6.5868  -11.7432 O   0  0  0  0  0  0  0  0  0  0  0  0
   17.1756  -11.1289  -10.8981 C   0  0  0  0  0  0  0  0  0  0  0  0
   17.4215  -12.4931  -11.0565 C   0  0  0  0  0  0  0  0  0  0  0  0
   14.1689   -5.9227   -6.0329 N   0  0  0  0  0  0  0  0  0  0  0  0
   14.0170   -5.3426   -7.3171 C   0  0  0  0  0  0  0  0  0  0  0  0
   12.8482   -5.3648   -7.8391 O   0  0  0  0  0  0  0  0  0  0  0  0
   15.1029   -4.7167   -8.0932 C   0  0  0  0  0  0  0  0  0  0  0  0
   15.1482   -5.1715   -9.5046 C   0  0  2  0  0  0  0  0  0  0  0  0
   15.4072   -6.5687   -9.6315 N   0  0  0  0  0  0  0  0  0  0  0  0
   16.0495   -4.3536  -10.3693 C   0  0  0  0  0  0  0  0  0  0  0  0
   17.1680   -4.8054  -10.6658 O   0  0  0  0  0  0  0  0  0  0  0  0
   17.5836   -1.1673  -14.0905 N   0  0  0  0  0  0  0  0  0  0  0  0
   16.9614   -2.4105  -14.2970 C   0  0  0  0  0  0  0  0  0  0  0  0
   16.9659   -2.9332  -15.4684 O   0  0  0  0  0  0  0  0  0  0  0  0
   16.2831   -3.1777  -13.2313 C   0  0  0  0  0  0  0  0  0  0  0  0
   16.3461   -2.3815  -11.9454 C   0  0  2  0  0  0  0  0  0  0  0  0
   15.6841   -3.0854  -10.8677 N   0  0  0  0  0  0  0  0  0  0  0  0
   15.6877   -1.0868  -12.1435 C   0  0  0  0  0  0  0  0  0  0  0  0
   16.3788    0.0830  -11.8583 O   0  0  0  0  0  0  0  0  0  0  0  0
   14.5021   -0.9611  -12.5677 O   0  0  0  0  0  0  0  0  0  0  0  0
  2  1  1  0
  2 12  2  0
  3  2  1  0
  4  3  2  0
  4  5  1  0
  5 11  2  0
  6  5  1  0
  7  8  1  6
  7  6  1  0
  9  7  1  0
 10  9  2  0
 11 12  1  0
 13 14  1  0
 14 15  2  0
 14 16  1  0
 17 16  1  1
 17 19  1  0
 17 18  1  0
 18  9  1  0
 19 20  2  0
 22 21  1  0
 22 24  1  0
 23 22  2  0
 25 24  1  6
 26 25  1  0
 26 19  1  0
 27 28  1  0
 27 25  1  0
 29 27  2  0
M  END
$$$$
