YNN.pdb
     RDKit          3D

 29 29  0  0  1  0  0  0  0  0999 V2000
   29.6950  -20.4335   -3.4534 O   0  0  0  0  0  0  0  0  0  0  0  0
   29.0296  -20.1463   -4.6314 C   0  0  0  0  0  0  0  0  0  0  0  0
   29.6686  -19.4061   -5.5951 C   0  0  0  0  0  0  0  0  0  0  0  0
   29.0030  -19.1279   -6.7542 C   0  0  0  0  0  0  0  0  0  0  0  0
   27.7161  -19.5523   -7.0111 C   0  0  0  0  0  0  0  0  0  0  0  0
   27.0253  -19.2292   -8.2735 C   0  0  0  0  0  0  0  0  0  0  0  0
   26.9765  -20.4556   -9.1631 C   0  0  2  0  0  0  0  0  0  0  0  0
   28.2935  -20.9511   -9.4658 N   0  0  0  0  0  0  0  0  0  0  0  0
   26.2536  -20.2020  -10.4182 C   0  0  0  0  0  0  0  0  0  0  0  0
   26.6917  -19.3180  -11.1961 O   0  0  0  0  0  0  0  0  0  0  0  0
   27.0886  -20.2923   -6.0377 C   0  0  0  0  0  0  0  0  0  0  0  0
   27.7531  -20.5868   -4.8468 C   0  0  0  0  0  0  0  0  0  0  0  0
   27.2421  -22.3163  -13.1045 N   0  0  0  0  0  0  0  0  0  0  0  0
   25.9483  -21.8925  -13.4988 C   0  0  0  0  0  0  0  0  0  0  0  0
   25.2262  -22.7286  -14.1458 O   0  0  0  0  0  0  0  0  0  0  0  0
   25.3748  -20.5637  -13.2186 C   0  0  0  0  0  0  0  0  0  0  0  0
   24.4371  -20.5637  -12.0689 C   0  0  2  0  0  0  0  0  0  0  0  0
   25.0710  -20.8906  -10.8334 N   0  0  0  0  0  0  0  0  0  0  0  0
   23.2060  -21.3761  -12.2994 C   0  0  0  0  0  0  0  0  0  0  0  0
   23.2451  -22.3025  -13.1261 O   0  0  0  0  0  0  0  0  0  0  0  0
   18.2664  -19.6260  -11.8351 N   0  0  0  0  0  0  0  0  0  0  0  0
   19.3187  -18.8196  -12.3015 C   0  0  0  0  0  0  0  0  0  0  0  0
   19.1150  -17.5697  -12.5063 O   0  0  0  0  0  0  0  0  0  0  0  0
   20.6795  -19.3240  -12.5813 C   0  0  0  0  0  0  0  0  0  0  0  0
   20.7319  -20.7964  -12.2337 C   0  0  2  0  0  0  0  0  0  0  0  0
   21.9954  -21.1377  -11.6154 N   0  0  0  0  0  0  0  0  0  0  0  0
   20.5706  -21.5896  -13.4560 C   0  0  0  0  0  0  0  0  0  0  0  0
   21.5281  -21.5053  -14.4577 O   0  0  0  0  0  0  0  0  0  0  0  0
   19.5926  -22.3652  -13.6642 O   0  0  0  0  0  0  0  0  0  0  0  0
  2  1  1  0
  2 12  2  0
  3  2  1  0
  4  3  2  0
  4  5  1  0
  5 11  2  0
  6  5  1  0
  7  8  1  6
  7  6  1  0
  9  7  1  0
 10  9  2  0
 11 12  1  0
 13 14  1  0
 14 15  2  0
 14 16  1  0
 17 16  1  6
 17 19  1  0
 17 18  1  0
 18  9  1  0
 19 20  2  0
 22 21  1  0
 22 24  1  0
 23 22  2  0
 25 24  1  6
 26 25  1  0
 26 19  1  0
 27 28  1  0
 27 25  1  0
 29 27  2  0
M  END
$$$$
