YNN.pdb
     RDKit          3D

 29 29  0  0  1  0  0  0  0  0999 V2000
   28.7578  -20.4576   -4.8795 O   0  0  0  0  0  0  0  0  0  0  0  0
   28.0462  -20.3107   -6.0564 C   0  0  0  0  0  0  0  0  0  0  0  0
   28.6768  -19.7829   -7.1558 C   0  0  0  0  0  0  0  0  0  0  0  0
   27.9655  -19.6419   -8.3125 C   0  0  0  0  0  0  0  0  0  0  0  0
   26.6402  -20.0027   -8.4374 C   0  0  0  0  0  0  0  0  0  0  0  0
   25.9009  -19.8319   -9.7022 C   0  0  0  0  0  0  0  0  0  0  0  0
   26.0833  -21.0573  -10.5756 C   0  0  2  0  0  0  0  0  0  0  0  0
   27.4731  -21.3332  -10.8287 N   0  0  0  0  0  0  0  0  0  0  0  0
   25.3719  -20.9361  -11.8568 C   0  0  0  0  0  0  0  0  0  0  0  0
   25.1412  -19.7871  -12.3098 O   0  0  0  0  0  0  0  0  0  0  0  0
   26.0216  -20.5297   -7.3291 C   0  0  0  0  0  0  0  0  0  0  0  0
   26.7326  -20.6817   -6.1382 C   0  0  0  0  0  0  0  0  0  0  0  0
   25.6918  -24.8721  -14.2804 N   0  0  0  0  0  0  0  0  0  0  0  0
   25.6607  -23.5146  -14.6868 C   0  0  0  0  0  0  0  0  0  0  0  0
   26.7841  -22.9272  -14.8654 O   0  0  0  0  0  0  0  0  0  0  0  0
   24.4330  -22.7321  -14.9189 C   0  0  0  0  0  0  0  0  0  0  0  0
   24.1032  -21.8181  -13.7978 C   0  0  2  0  0  0  0  0  0  0  0  0
   24.9121  -22.0382  -12.6434 N   0  0  0  0  0  0  0  0  0  0  0  0
   22.6485  -21.7797  -13.4638 C   0  0  0  0  0  0  0  0  0  0  0  0
   22.2799  -22.1726  -12.3445 O   0  0  0  0  0  0  0  0  0  0  0  0
   18.7365  -18.7775  -11.8029 N   0  0  0  0  0  0  0  0  0  0  0  0
   19.4246  -18.6689  -13.0235 C   0  0  0  0  0  0  0  0  0  0  0  0
   18.9290  -17.9562  -13.9679 O   0  0  0  0  0  0  0  0  0  0  0  0
   20.7130  -19.3370  -13.3034 C   0  0  0  0  0  0  0  0  0  0  0  0
   20.4362  -20.6503  -14.0035 C   0  0  2  0  0  0  0  0  0  0  0  0
   21.6705  -21.3133  -14.3671 N   0  0  0  0  0  0  0  0  0  0  0  0
   19.6559  -20.3974  -15.2186 C   0  0  0  0  0  0  0  0  0  0  0  0
   18.2696  -20.4470  -15.1641 O   0  0  0  0  0  0  0  0  0  0  0  0
   20.1745  -20.1301  -16.3416 O   0  0  0  0  0  0  0  0  0  0  0  0
  2  1  1  0
  2 12  2  0
  3  2  1  0
  4  3  2  0
  4  5  1  0
  5 11  2  0
  6  5  1  0
  7  8  1  6
  7  6  1  0
  9  7  1  0
 10  9  2  0
 11 12  1  0
 13 14  1  0
 14 15  2  0
 14 16  1  0
 17 16  1  6
 17 19  1  0
 17 18  1  0
 18  9  1  0
 19 20  2  0
 22 21  1  0
 22 24  1  0
 23 22  2  0
 25 24  1  6
 26 25  1  0
 26 19  1  0
 27 28  1  0
 27 25  1  0
 29 27  2  0
M  END
$$$$
