YNN.pdb
     RDKit          3D

 29 29  0  0  1  0  0  0  0  0999 V2000
   19.3702  -31.4325  -15.9998 O   0  0  0  0  0  0  0  0  0  0  0  0
   20.6125  -30.8246  -15.9936 C   0  0  0  0  0  0  0  0  0  0  0  0
   20.7396  -29.5720  -15.4460 C   0  0  0  0  0  0  0  0  0  0  0  0
   21.9700  -28.9807  -15.4450 C   0  0  0  0  0  0  0  0  0  0  0  0
   23.0989  -29.5764  -15.9674 C   0  0  0  0  0  0  0  0  0  0  0  0
   24.4125  -28.9058  -15.9536 C   0  0  0  0  0  0  0  0  0  0  0  0
   24.4233  -27.7720  -16.9596 C   0  0  2  0  0  0  0  0  0  0  0  0
   24.3747  -28.2565  -18.3141 N   0  0  0  0  0  0  0  0  0  0  0  0
   25.5955  -26.8990  -16.7988 C   0  0  0  0  0  0  0  0  0  0  0  0
   25.7818  -26.3413  -15.6885 O   0  0  0  0  0  0  0  0  0  0  0  0
   22.9571  -30.8301  -16.5124 C   0  0  0  0  0  0  0  0  0  0  0  0
   21.7075  -31.4504  -16.5221 C   0  0  0  0  0  0  0  0  0  0  0  0
   30.6594  -24.8599  -16.1721 N   0  0  0  0  0  0  0  0  0  0  0  0
   30.0463  -25.3909  -17.3344 C   0  0  0  0  0  0  0  0  0  0  0  0
   30.5098  -25.0176  -18.4679 O   0  0  0  0  0  0  0  0  0  0  0  0
   28.9176  -26.3393  -17.3336 C   0  0  0  0  0  0  0  0  0  0  0  0
   27.6098  -25.6898  -17.5960 C   0  0  2  0  0  0  0  0  0  0  0  0
   26.5579  -26.6268  -17.8210 N   0  0  0  0  0  0  0  0  0  0  0  0
   27.6634  -24.6416  -18.6578 C   0  0  0  0  0  0  0  0  0  0  0  0
   27.6002  -24.9906  -19.8483 O   0  0  0  0  0  0  0  0  0  0  0  0
   28.3058  -19.6495  -18.4170 N   0  0  0  0  0  0  0  0  0  0  0  0
   26.9767  -20.0000  -18.7100 C   0  0  0  0  0  0  0  0  0  0  0  0
   26.0422  -19.1385  -18.5359 O   0  0  0  0  0  0  0  0  0  0  0  0
   26.5688  -21.3271  -19.2169 C   0  0  0  0  0  0  0  0  0  0  0  0
   27.8008  -22.1977  -19.3429 C   0  0  2  0  0  0  0  0  0  0  0  0
   27.7815  -23.2663  -18.3668 N   0  0  0  0  0  0  0  0  0  0  0  0
   28.9977  -21.3787  -19.1286 C   0  0  0  0  0  0  0  0  0  0  0  0
   29.3204  -20.3861  -20.0440 O   0  0  0  0  0  0  0  0  0  0  0  0
   29.7755  -21.5196  -18.1404 O   0  0  0  0  0  0  0  0  0  0  0  0
  2  1  1  0
  2 12  2  0
  3  2  1  0
  4  3  2  0
  4  5  1  0
  5 11  2  0
  6  5  1  0
  7  8  1  6
  7  6  1  0
  9  7  1  0
 10  9  2  0
 11 12  1  0
 13 14  1  0
 14 15  2  0
 14 16  1  0
 17 16  1  6
 17 19  1  0
 17 18  1  0
 18  9  1  0
 19 20  2  0
 22 21  1  0
 22 24  1  0
 23 22  2  0
 25 24  1  1
 26 25  1  0
 26 19  1  0
 27 28  1  0
 27 25  1  0
 29 27  2  0
M  END
$$$$
