YNN.pdb
     RDKit          3D

 29 29  0  0  1  0  0  0  0  0999 V2000
   18.2750  -31.4308  -10.2835 O   0  0  0  0  0  0  0  0  0  0  0  0
   18.3257  -30.1411  -10.7807 C   0  0  0  0  0  0  0  0  0  0  0  0
   17.1961  -29.3621  -10.7309 C   0  0  0  0  0  0  0  0  0  0  0  0
   17.2566  -28.0907  -11.2244 C   0  0  0  0  0  0  0  0  0  0  0  0
   18.3970  -27.5431  -11.7736 C   0  0  0  0  0  0  0  0  0  0  0  0
   18.4252  -26.1663  -12.3020 C   0  0  0  0  0  0  0  0  0  0  0  0
   19.2281  -25.2748  -11.3755 C   0  0  2  0  0  0  0  0  0  0  0  0
   18.5887  -25.1173  -10.0957 N   0  0  0  0  0  0  0  0  0  0  0  0
   19.4767  -23.9485  -11.9598 C   0  0  0  0  0  0  0  0  0  0  0  0
   18.5705  -23.0811  -11.8890 O   0  0  0  0  0  0  0  0  0  0  0  0
   19.5202  -28.3340  -11.8169 C   0  0  0  0  0  0  0  0  0  0  0  0
   19.4775  -29.6359  -11.3170 C   0  0  0  0  0  0  0  0  0  0  0  0
   22.3386  -19.2424  -13.2690 N   0  0  0  0  0  0  0  0  0  0  0  0
   22.2982  -20.4700  -13.9762 C   0  0  0  0  0  0  0  0  0  0  0  0
   22.3620  -20.4163  -15.2538 O   0  0  0  0  0  0  0  0  0  0  0  0
   22.1892  -21.8002  -13.3503 C   0  0  0  0  0  0  0  0  0  0  0  0
   20.7903  -22.2833  -13.2469 C   0  0  2  0  0  0  0  0  0  0  0  0
   20.6866  -23.5579  -12.6144 N   0  0  0  0  0  0  0  0  0  0  0  0
   20.0428  -22.2361  -14.5384 C   0  0  0  0  0  0  0  0  0  0  0  0
   19.8446  -23.2959  -15.1554 O   0  0  0  0  0  0  0  0  0  0  0  0
   15.0955  -22.1377  -15.9868 N   0  0  0  0  0  0  0  0  0  0  0  0
   15.8389  -21.3281  -15.1110 C   0  0  0  0  0  0  0  0  0  0  0  0
   15.3152  -20.2542  -14.6441 O   0  0  0  0  0  0  0  0  0  0  0  0
   17.2189  -21.6346  -14.6796 C   0  0  0  0  0  0  0  0  0  0  0  0
   18.1796  -20.7960  -15.4952 C   0  0  2  0  0  0  0  0  0  0  0  0
   19.5484  -21.0356  -15.0902 N   0  0  0  0  0  0  0  0  0  0  0  0
   17.8679  -19.3764  -15.3033 C   0  0  0  0  0  0  0  0  0  0  0  0
   18.4391  -18.6881  -14.2415 O   0  0  0  0  0  0  0  0  0  0  0  0
   17.0940  -18.7202  -16.0596 O   0  0  0  0  0  0  0  0  0  0  0  0
  2  1  1  0
  2 12  2  0
  3  2  1  0
  4  3  2  0
  4  5  1  0
  5 11  2  0
  6  5  1  0
  7  8  1  1
  7  6  1  0
  9  7  1  0
 10  9  2  0
 11 12  1  0
 13 14  1  0
 14 15  2  0
 14 16  1  0
 17 16  1  6
 17 19  1  0
 17 18  1  0
 18  9  1  0
 19 20  2  0
 22 21  1  0
 22 24  1  0
 23 22  2  0
 25 24  1  1
 26 25  1  0
 26 19  1  0
 27 28  1  0
 27 25  1  0
 29 27  2  0
M  END
$$$$
