YNN.pdb
     RDKit          3D

 29 29  0  0  1  0  0  0  0  0999 V2000
   29.0712  -20.3899   -3.7320 O   0  0  0  0  0  0  0  0  0  0  0  0
   28.5571  -20.2167   -5.0042 C   0  0  0  0  0  0  0  0  0  0  0  0
   27.3170  -20.7276   -5.2979 C   0  0  0  0  0  0  0  0  0  0  0  0
   26.8186  -20.5515   -6.5566 C   0  0  0  0  0  0  0  0  0  0  0  0
   27.4972  -19.8847   -7.5552 C   0  0  0  0  0  0  0  0  0  0  0  0
   26.9300  -19.7169   -8.9063 C   0  0  0  0  0  0  0  0  0  0  0  0
   27.1200  -20.9899   -9.7070 C   0  0  2  0  0  0  0  0  0  0  0  0
   28.5082  -21.2424   -9.9912 N   0  0  0  0  0  0  0  0  0  0  0  0
   26.3628  -20.9706  -10.9673 C   0  0  0  0  0  0  0  0  0  0  0  0
   26.7661  -20.2311  -11.8995 O   0  0  0  0  0  0  0  0  0  0  0  0
   28.7373  -19.3785   -7.2473 C   0  0  0  0  0  0  0  0  0  0  0  0
   29.2628  -19.5484   -5.9660 C   0  0  0  0  0  0  0  0  0  0  0  0
   25.6239  -22.8930  -15.0640 N   0  0  0  0  0  0  0  0  0  0  0  0
   25.0974  -23.4060  -13.8522 C   0  0  0  0  0  0  0  0  0  0  0  0
   25.6052  -24.4917  -13.4022 O   0  0  0  0  0  0  0  0  0  0  0  0
   24.0116  -22.7825  -13.0740 C   0  0  0  0  0  0  0  0  0  0  0  0
   24.4205  -21.5207  -12.4095 C   0  0  2  0  0  0  0  0  0  0  0  0
   25.1834  -21.7377  -11.2237 N   0  0  0  0  0  0  0  0  0  0  0  0
   23.2923  -20.5692  -12.1838 C   0  0  0  0  0  0  0  0  0  0  0  0
   23.4707  -19.5948  -11.4344 O   0  0  0  0  0  0  0  0  0  0  0  0
   19.9127  -17.6394  -14.7015 N   0  0  0  0  0  0  0  0  0  0  0  0
   21.2023  -17.9733  -15.1495 C   0  0  0  0  0  0  0  0  0  0  0  0
   21.7255  -17.3153  -16.1185 O   0  0  0  0  0  0  0  0  0  0  0  0
   22.0195  -19.0589  -14.5679 C   0  0  0  0  0  0  0  0  0  0  0  0
   21.2560  -19.6767  -13.4160 C   0  0  2  0  0  0  0  0  0  0  0  0
   22.0276  -20.7283  -12.7884 N   0  0  0  0  0  0  0  0  0  0  0  0
   19.9987  -20.2419  -13.9148 C   0  0  0  0  0  0  0  0  0  0  0  0
   20.0323  -21.2448  -14.8741 O   0  0  0  0  0  0  0  0  0  0  0  0
   18.8563  -19.8673  -13.5194 O   0  0  0  0  0  0  0  0  0  0  0  0
  2  1  1  0
  2 12  2  0
  3  2  1  0
  4  3  2  0
  4  5  1  0
  5 11  2  0
  6  5  1  0
  7  8  1  6
  7  6  1  0
  9  7  1  0
 10  9  2  0
 11 12  1  0
 13 14  1  0
 14 15  2  0
 14 16  1  0
 17 16  1  1
 17 19  1  0
 17 18  1  0
 18  9  1  0
 19 20  2  0
 22 21  1  0
 22 24  1  0
 23 22  2  0
 25 24  1  6
 26 25  1  0
 26 19  1  0
 27 28  1  0
 27 25  1  0
 29 27  2  0
M  END
$$$$
