YNN.pdb
     RDKit          3D

 29 29  0  0  1  0  0  0  0  0999 V2000
   17.7120  -24.9496  -15.7800 O   0  0  0  0  0  0  0  0  0  0  0  0
   18.8721  -24.2245  -15.5769 C   0  0  0  0  0  0  0  0  0  0  0  0
   18.9289  -22.9221  -16.0076 C   0  0  0  0  0  0  0  0  0  0  0  0
   20.0786  -22.2151  -15.8025 C   0  0  0  0  0  0  0  0  0  0  0  0
   21.1928  -22.7412  -15.1827 C   0  0  0  0  0  0  0  0  0  0  0  0
   22.4208  -21.9494  -14.9817 C   0  0  0  0  0  0  0  0  0  0  0  0
   22.4759  -21.4363  -13.5564 C   0  0  2  0  0  0  0  0  0  0  0  0
   21.3722  -20.5619  -13.2583 N   0  0  0  0  0  0  0  0  0  0  0  0
   23.7381  -20.7402  -13.2660 C   0  0  0  0  0  0  0  0  0  0  0  0
   23.8209  -19.5132  -13.5234 O   0  0  0  0  0  0  0  0  0  0  0  0
   21.1220  -24.0460  -14.7566 C   0  0  0  0  0  0  0  0  0  0  0  0
   19.9551  -24.7840  -14.9573 C   0  0  0  0  0  0  0  0  0  0  0  0
   25.2413  -21.7940   -9.2607 N   0  0  0  0  0  0  0  0  0  0  0  0
   25.6285  -20.7023  -10.0775 C   0  0  0  0  0  0  0  0  0  0  0  0
   25.0431  -19.5812   -9.8789 O   0  0  0  0  0  0  0  0  0  0  0  0
   26.6535  -20.7630  -11.1354 C   0  0  0  0  0  0  0  0  0  0  0  0
   26.0937  -20.6016  -12.4998 C   0  0  2  0  0  0  0  0  0  0  0  0
   24.9005  -21.3561  -12.7051 N   0  0  0  0  0  0  0  0  0  0  0  0
   27.0919  -20.8245  -13.5875 C   0  0  0  0  0  0  0  0  0  0  0  0
   27.9759  -21.6816  -13.4234 O   0  0  0  0  0  0  0  0  0  0  0  0
   29.5290  -22.5534  -16.3299 N   0  0  0  0  0  0  0  0  0  0  0  0
   28.1708  -22.8762  -16.4915 C   0  0  0  0  0  0  0  0  0  0  0  0
   27.8280  -24.0995  -16.6691 O   0  0  0  0  0  0  0  0  0  0  0  0
   27.0805  -21.8784  -16.4721 C   0  0  0  0  0  0  0  0  0  0  0  0
   27.6534  -20.5422  -16.0505 C   0  0  2  0  0  0  0  0  0  0  0  0
   27.0739  -20.1022  -14.7992 N   0  0  0  0  0  0  0  0  0  0  0  0
   27.3673  -19.5434  -17.0848 C   0  0  0  0  0  0  0  0  0  0  0  0
   28.4027  -19.0571  -17.8713 O   0  0  0  0  0  0  0  0  0  0  0  0
   26.2108  -19.0837  -17.3143 O   0  0  0  0  0  0  0  0  0  0  0  0
  2  1  1  0
  2 12  2  0
  3  2  1  0
  4  3  2  0
  4  5  1  0
  5 11  2  0
  6  5  1  0
  7  8  1  6
  7  6  1  0
  9  7  1  0
 10  9  2  0
 11 12  1  0
 13 14  1  0
 14 15  2  0
 14 16  1  0
 17 16  1  1
 17 19  1  0
 17 18  1  0
 18  9  1  0
 19 20  2  0
 22 21  1  0
 22 24  1  0
 23 22  2  0
 25 24  1  6
 26 25  1  0
 26 19  1  0
 27 28  1  0
 27 25  1  0
 29 27  2  0
M  END
$$$$
