YNN.pdb
     RDKit          3D

 29 29  0  0  1  0  0  0  0  0999 V2000
   20.4646  -20.6541  -17.6036 O   0  0  0  0  0  0  0  0  0  0  0  0
   21.5832  -19.8513  -17.7345 C   0  0  0  0  0  0  0  0  0  0  0  0
   21.7800  -19.1676  -18.9088 C   0  0  0  0  0  0  0  0  0  0  0  0
   22.8873  -18.3780  -19.0279 C   0  0  0  0  0  0  0  0  0  0  0  0
   23.8246  -18.2292  -18.0271 C   0  0  0  0  0  0  0  0  0  0  0  0
   25.0126  -17.3707  -18.1920 C   0  0  0  0  0  0  0  0  0  0  0  0
   26.0322  -18.0650  -19.0728 C   0  0  2  0  0  0  0  0  0  0  0  0
   26.5235  -19.2768  -18.4714 N   0  0  0  0  0  0  0  0  0  0  0  0
   27.1685  -17.1912  -19.4006 C   0  0  0  0  0  0  0  0  0  0  0  0
   28.2889  -17.4460  -18.8923 O   0  0  0  0  0  0  0  0  0  0  0  0
   23.6150  -18.9192  -16.8572 C   0  0  0  0  0  0  0  0  0  0  0  0
   22.4888  -19.7308  -16.7170 C   0  0  0  0  0  0  0  0  0  0  0  0
   31.3584  -15.6086  -22.5724 N   0  0  0  0  0  0  0  0  0  0  0  0
   30.6154  -15.4215  -21.3800 C   0  0  0  0  0  0  0  0  0  0  0  0
   31.0259  -14.5237  -20.5648 O   0  0  0  0  0  0  0  0  0  0  0  0
   29.4077  -16.1822  -21.0111 C   0  0  0  0  0  0  0  0  0  0  0  0
   28.2803  -15.3167  -20.5860 C   0  0  2  0  0  0  0  0  0  0  0  0
   27.1020  -16.0543  -20.2656 N   0  0  0  0  0  0  0  0  0  0  0  0
   27.9992  -14.1929  -21.5279 C   0  0  0  0  0  0  0  0  0  0  0  0
   27.3856  -14.4326  -22.5810 O   0  0  0  0  0  0  0  0  0  0  0  0
   24.8605  -11.9845  -21.8965 N   0  0  0  0  0  0  0  0  0  0  0  0
   25.2617  -11.7777  -20.5655 C   0  0  0  0  0  0  0  0  0  0  0  0
   24.3803  -11.7667  -19.6336 O   0  0  0  0  0  0  0  0  0  0  0  0
   26.6650  -11.5649  -20.1533 C   0  0  0  0  0  0  0  0  0  0  0  0
   27.5536  -11.6952  -21.3719 C   0  0  2  0  0  0  0  0  0  0  0  0
   28.4005  -12.8648  -21.2723 N   0  0  0  0  0  0  0  0  0  0  0  0
   28.3994  -10.5033  -21.4853 C   0  0  0  0  0  0  0  0  0  0  0  0
   27.9803   -9.4393  -22.2725 O   0  0  0  0  0  0  0  0  0  0  0  0
   29.5136  -10.3761  -20.8990 O   0  0  0  0  0  0  0  0  0  0  0  0
  2  1  1  0
  2 12  2  0
  3  2  1  0
  4  3  2  0
  4  5  1  0
  5 11  2  0
  6  5  1  0
  7  8  1  1
  7  6  1  0
  9  7  1  0
 10  9  2  0
 11 12  1  0
 13 14  1  0
 14 15  2  0
 14 16  1  0
 17 16  1  6
 17 19  1  0
 17 18  1  0
 18  9  1  0
 19 20  2  0
 22 21  1  0
 22 24  1  0
 23 22  2  0
 25 24  1  1
 26 25  1  0
 26 19  1  0
 27 28  1  0
 27 25  1  0
 29 27  2  0
M  END
$$$$
