YNN.pdb
     RDKit          3D

 29 29  0  0  1  0  0  0  0  0999 V2000
   10.9376  -15.8929    1.5388 O   0  0  0  0  0  0  0  0  0  0  0  0
   11.8903  -16.7472    2.0637 C   0  0  0  0  0  0  0  0  0  0  0  0
   11.8226  -18.0858    1.7658 C   0  0  0  0  0  0  0  0  0  0  0  0
   12.7676  -18.9206    2.2891 C   0  0  0  0  0  0  0  0  0  0  0  0
   13.7923  -18.4901    3.1056 C   0  0  0  0  0  0  0  0  0  0  0  0
   14.7941  -19.4214    3.6574 C   0  0  0  0  0  0  0  0  0  0  0  0
   16.0987  -19.2848    2.8978 C   0  0  2  0  0  0  0  0  0  0  0  0
   16.0189  -19.8704    1.5855 N   0  0  0  0  0  0  0  0  0  0  0  0
   17.2294  -19.8793    3.6260 C   0  0  0  0  0  0  0  0  0  0  0  0
   17.6380  -21.0153    3.2779 O   0  0  0  0  0  0  0  0  0  0  0  0
   13.8480  -17.1477    3.3954 C   0  0  0  0  0  0  0  0  0  0  0  0
   12.8910  -16.2793    2.8694 C   0  0  0  0  0  0  0  0  0  0  0  0
   21.3200  -21.0642    6.6222 N   0  0  0  0  0  0  0  0  0  0  0  0
   21.1701  -19.6590    6.5137 C   0  0  0  0  0  0  0  0  0  0  0  0
   22.1113  -18.9281    6.9817 O   0  0  0  0  0  0  0  0  0  0  0  0
   20.0133  -18.9794    5.9026 C   0  0  0  0  0  0  0  0  0  0  0  0
   19.0036  -19.9209    5.3597 C   0  0  2  0  0  0  0  0  0  0  0  0
   17.9141  -19.2601    4.7182 N   0  0  0  0  0  0  0  0  0  0  0  0
   18.5382  -20.9371    6.3496 C   0  0  0  0  0  0  0  0  0  0  0  0
   17.5210  -20.6977    7.0213 O   0  0  0  0  0  0  0  0  0  0  0  0
   15.7011  -24.9876    7.7468 N   0  0  0  0  0  0  0  0  0  0  0  0
   16.8599  -25.0245    6.9524 C   0  0  0  0  0  0  0  0  0  0  0  0
   17.4645  -26.1405    6.7670 O   0  0  0  0  0  0  0  0  0  0  0  0
   17.4472  -23.8358    6.2992 C   0  0  0  0  0  0  0  0  0  0  0  0
   18.6182  -23.3551    7.1294 C   0  0  2  0  0  0  0  0  0  0  0  0
   19.2052  -22.1631    6.5551 N   0  0  0  0  0  0  0  0  0  0  0  0
   19.6371  -24.4075    7.1862 C   0  0  0  0  0  0  0  0  0  0  0  0
   20.8860  -24.1818    6.6234 O   0  0  0  0  0  0  0  0  0  0  0  0
   19.4498  -25.5359    7.7275 O   0  0  0  0  0  0  0  0  0  0  0  0
  2  1  1  0
  2 12  2  0
  3  2  1  0
  4  3  2  0
  4  5  1  0
  5 11  2  0
  6  5  1  0
  7  8  1  6
  7  6  1  0
  9  7  1  0
 10  9  2  0
 11 12  1  0
 13 14  1  0
 14 15  2  0
 14 16  1  0
 17 16  1  1
 17 19  1  0
 17 18  1  0
 18  9  1  0
 19 20  2  0
 22 21  1  0
 22 24  1  0
 23 22  2  0
 25 24  1  6
 26 25  1  0
 26 19  1  0
 27 28  1  0
 27 25  1  0
 29 27  2  0
M  END
$$$$
