YEE.pdb
     RDKit          3D

 31 31  0  0  1  0  0  0  0  0999 V2000
    4.8034  -10.3128   27.1191 O   0  0  0  0  0  0  0  0  0  0  0  0
    5.6011  -11.3626   26.6438 C   0  0  0  0  0  0  0  0  0  0  0  0
    6.6040  -11.8900   27.4164 C   0  0  0  0  0  0  0  0  0  0  0  0
    7.4004  -12.9259   26.9630 C   0  0  0  0  0  0  0  0  0  0  0  0
    7.1834  -13.4368   25.7156 C   0  0  0  0  0  0  0  0  0  0  0  0
    8.0232  -14.5526   25.1976 C   0  0  0  0  0  0  0  0  0  0  0  0
    7.0608  -15.6173   24.6731 C   0  0  2  0  0  0  0  0  0  0  0  0
    6.4250  -16.2242   25.8048 N   0  0  0  0  0  0  0  0  0  0  0  0
    7.9009  -16.5870   23.9124 C   0  0  0  0  0  0  0  0  0  0  0  0
    8.4303  -17.5706   24.4894 O   0  0  0  0  0  0  0  0  0  0  0  0
    6.1670  -12.9166   24.9080 C   0  0  0  0  0  0  0  0  0  0  0  0
    5.3905  -11.8817   25.3927 C   0  0  0  0  0  0  0  0  0  0  0  0
    8.1213  -16.4252   22.5309 N   0  0  0  0  0  0  0  0  0  0  0  0
    9.0707  -17.2784   21.8120 C   0  0  1  0  0  0  0  0  0  0  0  0
    8.9589  -16.9831   20.3507 C   0  0  0  0  0  0  0  0  0  0  0  0
    9.9620  -17.6604   19.4856 C   0  0  0  0  0  0  0  0  0  0  0  0
    9.7484  -17.3642   18.0646 C   0  0  0  0  0  0  0  0  0  0  0  0
   10.6598  -16.8991   17.3639 O   0  0  0  0  0  0  0  0  0  0  0  0
   10.4543  -16.9692   22.3056 C   0  0  0  0  0  0  0  0  0  0  0  0
   10.9135  -15.8143   22.4182 O   0  0  0  0  0  0  0  0  0  0  0  0
    8.5117  -17.6082   17.5003 O   0  0  0  0  0  0  0  0  0  0  0  0
   11.3288  -18.0408   22.6788 N   0  0  0  0  0  0  0  0  0  0  0  0
   12.4870  -17.8154   23.5585 C   0  0  1  0  0  0  0  0  0  0  0  0
   12.3948  -18.7865   24.6915 C   0  0  0  0  0  0  0  0  0  0  0  0
   13.5811  -18.9166   25.5604 C   0  0  0  0  0  0  0  0  0  0  0  0
   13.3866  -19.8874   26.6456 C   0  0  0  0  0  0  0  0  0  0  0  0
   12.3533  -20.5305   26.8392 O   0  0  0  0  0  0  0  0  0  0  0  0
   13.6973  -17.9288   22.7556 C   0  0  0  0  0  0  0  0  0  0  0  0
   13.6699  -18.6451   21.5788 O   0  0  0  0  0  0  0  0  0  0  0  0
   14.4778  -20.0771   27.5134 O   0  0  0  0  0  0  0  0  0  0  0  0
   14.7619  -17.3916   23.1080 O   0  0  0  0  0  0  0  0  0  0  0  0
  2  1  1  0
  3  2  2  0
  4  3  1  0
  5 11  1  0
  5  4  2  0
  6  5  1  0
  7  6  1  0
  7  8  1  1
  9 10  2  0
  9  7  1  0
 11 12  2  0
 12  2  1  0
 13  9  1  0
 14 13  1  0
 14 15  1  6
 15 16  1  0
 16 17  1  0
 17 21  1  0
 18 17  2  0
 19 14  1  0
 20 19  2  0
 22 19  1  0
 23 22  1  0
 23 24  1  1
 24 25  1  0
 26 30  1  0
 26 25  1  0
 27 26  2  0
 28 23  1  0
 28 29  1  0
 31 28  2  0
M  END
$$$$
