YEE.pdb
     RDKit          3D

 31 31  0  0  1  0  0  0  0  0999 V2000
    5.1210  -10.5395   27.6626 O   0  0  0  0  0  0  0  0  0  0  0  0
    5.8623  -11.5371   27.0148 C   0  0  0  0  0  0  0  0  0  0  0  0
    5.9707  -11.5579   25.6479 C   0  0  0  0  0  0  0  0  0  0  0  0
    6.6981  -12.5348   24.9927 C   0  0  0  0  0  0  0  0  0  0  0  0
    7.3242  -13.5029   25.7240 C   0  0  0  0  0  0  0  0  0  0  0  0
    8.1156  -14.5691   25.0491 C   0  0  0  0  0  0  0  0  0  0  0  0
    7.1118  -15.6010   24.5369 C   0  0  2  0  0  0  0  0  0  0  0  0
    6.6706  -16.3734   25.6604 N   0  0  0  0  0  0  0  0  0  0  0  0
    7.8508  -16.4288   23.5402 C   0  0  0  0  0  0  0  0  0  0  0  0
    8.4634  -17.4680   23.8946 O   0  0  0  0  0  0  0  0  0  0  0  0
    7.2292  -13.5041   27.1194 C   0  0  0  0  0  0  0  0  0  0  0  0
    6.4942  -12.5131   27.7411 C   0  0  0  0  0  0  0  0  0  0  0  0
    7.8804  -16.0675   22.1794 N   0  0  0  0  0  0  0  0  0  0  0  0
    8.6727  -16.8306   21.2119 C   0  0  1  0  0  0  0  0  0  0  0  0
    8.3444  -16.3381   19.8389 C   0  0  0  0  0  0  0  0  0  0  0  0
    9.1243  -16.9609   18.7357 C   0  0  0  0  0  0  0  0  0  0  0  0
    8.7280  -16.4392   17.4229 C   0  0  0  0  0  0  0  0  0  0  0  0
    7.9423  -15.4848   17.3243 O   0  0  0  0  0  0  0  0  0  0  0  0
   10.1272  -16.6136   21.5135 C   0  0  0  0  0  0  0  0  0  0  0  0
   10.6059  -15.5272   21.8984 O   0  0  0  0  0  0  0  0  0  0  0  0
    9.2394  -17.0218   16.2800 O   0  0  0  0  0  0  0  0  0  0  0  0
   11.0512  -17.6977   21.3610 N   0  0  0  0  0  0  0  0  0  0  0  0
   12.4080  -17.6353   21.9279 C   0  0  1  0  0  0  0  0  0  0  0  0
   12.4323  -18.4983   23.1486 C   0  0  0  0  0  0  0  0  0  0  0  0
   13.4300  -18.1655   24.1844 C   0  0  0  0  0  0  0  0  0  0  0  0
   13.3664  -19.0649   25.3441 C   0  0  0  0  0  0  0  0  0  0  0  0
   12.3292  -19.5353   25.8151 O   0  0  0  0  0  0  0  0  0  0  0  0
   13.3535  -18.0219   20.8893 C   0  0  0  0  0  0  0  0  0  0  0  0
   14.6737  -17.6411   20.9933 O   0  0  0  0  0  0  0  0  0  0  0  0
   14.5961  -19.3973   25.9417 O   0  0  0  0  0  0  0  0  0  0  0  0
   12.9966  -18.6917   19.9042 O   0  0  0  0  0  0  0  0  0  0  0  0
  2  1  1  0
  3  2  2  0
  4  3  1  0
  5 11  1  0
  5  4  2  0
  6  5  1  0
  7  6  1  0
  7  8  1  1
  9 10  2  0
  9  7  1  0
 11 12  2  0
 12  2  1  0
 13  9  1  0
 14 13  1  0
 14 15  1  6
 15 16  1  0
 16 17  1  0
 17 21  1  0
 18 17  2  0
 19 14  1  0
 20 19  2  0
 22 19  1  0
 23 22  1  0
 23 24  1  1
 24 25  1  0
 26 30  1  0
 26 25  1  0
 27 26  2  0
 28 23  1  0
 28 29  1  0
 31 28  2  0
M  END
$$$$
