YEE.pdb
     RDKit          3D

 31 31  0  0  1  0  0  0  0  0999 V2000
    4.9623  -10.0253   25.5284 O   0  0  0  0  0  0  0  0  0  0  0  0
    5.7466  -11.1868   25.5456 C   0  0  0  0  0  0  0  0  0  0  0  0
    5.7333  -12.0292   26.6276 C   0  0  0  0  0  0  0  0  0  0  0  0
    6.5008  -13.1792   26.6610 C   0  0  0  0  0  0  0  0  0  0  0  0
    7.2917  -13.4842   25.5907 C   0  0  0  0  0  0  0  0  0  0  0  0
    8.1302  -14.7152   25.5949 C   0  0  0  0  0  0  0  0  0  0  0  0
    7.3965  -15.7471   24.7395 C   0  0  2  0  0  0  0  0  0  0  0  0
    6.2251  -16.1536   25.4579 N   0  0  0  0  0  0  0  0  0  0  0  0
    8.3562  -16.8722   24.5453 C   0  0  0  0  0  0  0  0  0  0  0  0
    8.3205  -17.8843   25.2904 O   0  0  0  0  0  0  0  0  0  0  0  0
    7.3232  -12.6415   24.4749 C   0  0  0  0  0  0  0  0  0  0  0  0
    6.5436  -11.5008   24.4754 C   0  0  0  0  0  0  0  0  0  0  0  0
    9.3247  -16.8289   23.5238 N   0  0  0  0  0  0  0  0  0  0  0  0
   10.2229  -17.9614   23.2854 C   0  0  1  0  0  0  0  0  0  0  0  0
   10.6627  -17.9233   21.8569 C   0  0  0  0  0  0  0  0  0  0  0  0
   11.5463  -16.7831   21.4929 C   0  0  0  0  0  0  0  0  0  0  0  0
   11.8877  -16.7890   20.0660 C   0  0  0  0  0  0  0  0  0  0  0  0
   12.9870  -16.3739   19.6695 O   0  0  0  0  0  0  0  0  0  0  0  0
   11.4047  -17.8307   24.2019 C   0  0  0  0  0  0  0  0  0  0  0  0
   12.1097  -16.8048   24.2902 O   0  0  0  0  0  0  0  0  0  0  0  0
   10.9687  -17.2651   19.1516 O   0  0  0  0  0  0  0  0  0  0  0  0
   11.7749  -18.9313   25.0410 N   0  0  0  0  0  0  0  0  0  0  0  0
   12.8550  -18.8105   26.0334 C   0  0  1  0  0  0  0  0  0  0  0  0
   12.4525  -19.5919   27.2428 C   0  0  0  0  0  0  0  0  0  0  0  0
   11.2933  -19.0921   28.0079 C   0  0  0  0  0  0  0  0  0  0  0  0
   10.8907  -20.0023   29.0884 C   0  0  0  0  0  0  0  0  0  0  0  0
   10.5168  -21.1656   28.9274 O   0  0  0  0  0  0  0  0  0  0  0  0
   14.0968  -19.2486   25.4102 C   0  0  0  0  0  0  0  0  0  0  0  0
   15.3022  -18.9409   26.0024 O   0  0  0  0  0  0  0  0  0  0  0  0
   10.9460  -19.4808   30.3940 O   0  0  0  0  0  0  0  0  0  0  0  0
   14.0962  -19.8979   24.3496 O   0  0  0  0  0  0  0  0  0  0  0  0
  2  1  1  0
  3  2  2  0
  4  3  1  0
  5 11  1  0
  5  4  2  0
  6  5  1  0
  7  6  1  0
  7  8  1  1
  9 10  2  0
  9  7  1  0
 11 12  2  0
 12  2  1  0
 13  9  1  0
 14 13  1  0
 14 15  1  6
 15 16  1  0
 16 17  1  0
 17 21  1  0
 18 17  2  0
 19 14  1  0
 20 19  2  0
 22 19  1  0
 23 22  1  0
 23 24  1  1
 24 25  1  0
 26 30  1  0
 26 25  1  0
 27 26  2  0
 28 23  1  0
 28 29  1  0
 31 28  2  0
M  END
$$$$
