YEE.pdb
     RDKit          3D

 31 31  0  0  1  0  0  0  0  0999 V2000
    5.0427  -10.0922   25.9771 O   0  0  0  0  0  0  0  0  0  0  0  0
    5.8139  -11.2541   25.8360 C   0  0  0  0  0  0  0  0  0  0  0  0
    5.7719  -12.2460   26.7820 C   0  0  0  0  0  0  0  0  0  0  0  0
    6.5261  -13.3986   26.6585 C   0  0  0  0  0  0  0  0  0  0  0  0
    7.3327  -13.5538   25.5679 C   0  0  0  0  0  0  0  0  0  0  0  0
    8.1576  -14.7833   25.4047 C   0  0  0  0  0  0  0  0  0  0  0  0
    7.3707  -15.7194   24.4885 C   0  0  2  0  0  0  0  0  0  0  0  0
    6.3020  -16.2841   25.2581 N   0  0  0  0  0  0  0  0  0  0  0  0
    8.3428  -16.7541   24.0311 C   0  0  0  0  0  0  0  0  0  0  0  0
    8.5309  -17.8011   24.7013 O   0  0  0  0  0  0  0  0  0  0  0  0
    7.3935  -12.5569   24.5888 C   0  0  0  0  0  0  0  0  0  0  0  0
    6.6265  -11.4183   24.7444 C   0  0  0  0  0  0  0  0  0  0  0  0
    9.0727  -16.5842   22.8388 N   0  0  0  0  0  0  0  0  0  0  0  0
   10.1051  -17.5447   22.4413 C   0  0  1  0  0  0  0  0  0  0  0  0
   10.5262  -17.2334   21.0409 C   0  0  0  0  0  0  0  0  0  0  0  0
    9.5704  -17.6524   19.9806 C   0  0  0  0  0  0  0  0  0  0  0  0
   10.0571  -17.3117   18.6392 C   0  0  0  0  0  0  0  0  0  0  0  0
    9.3437  -17.4774   17.6384 O   0  0  0  0  0  0  0  0  0  0  0  0
   11.2674  -17.4079   23.3815 C   0  0  0  0  0  0  0  0  0  0  0  0
   11.7930  -16.3183   23.6879 O   0  0  0  0  0  0  0  0  0  0  0  0
   11.3306  -16.7984   18.4908 O   0  0  0  0  0  0  0  0  0  0  0  0
   11.8336  -18.5787   23.9822 N   0  0  0  0  0  0  0  0  0  0  0  0
   12.7339  -18.4871   25.1428 C   0  0  1  0  0  0  0  0  0  0  0  0
   12.0988  -19.2324   26.2726 C   0  0  0  0  0  0  0  0  0  0  0  0
   12.9158  -19.4339   27.4854 C   0  0  0  0  0  0  0  0  0  0  0  0
   12.2059  -20.1834   28.5305 C   0  0  0  0  0  0  0  0  0  0  0  0
   11.0498  -20.6001   28.4370 O   0  0  0  0  0  0  0  0  0  0  0  0
   14.0433  -18.9854   24.7437 C   0  0  0  0  0  0  0  0  0  0  0  0
   15.1470  -18.6972   25.5167 O   0  0  0  0  0  0  0  0  0  0  0  0
   12.9233  -20.4295   29.7156 O   0  0  0  0  0  0  0  0  0  0  0  0
   14.1912  -19.6692   23.7156 O   0  0  0  0  0  0  0  0  0  0  0  0
  2  1  1  0
  3  2  2  0
  4  3  1  0
  5 11  1  0
  5  4  2  0
  6  5  1  0
  7  6  1  0
  7  8  1  1
  9 10  2  0
  9  7  1  0
 11 12  2  0
 12  2  1  0
 13  9  1  0
 14 13  1  0
 14 15  1  6
 15 16  1  0
 16 17  1  0
 17 21  1  0
 18 17  2  0
 19 14  1  0
 20 19  2  0
 22 19  1  0
 23 22  1  0
 23 24  1  1
 24 25  1  0
 26 30  1  0
 26 25  1  0
 27 26  2  0
 28 23  1  0
 28 29  1  0
 31 28  2  0
M  END
$$$$
