YEE.pdb
     RDKit          3D

 31 31  0  0  1  0  0  0  0  0999 V2000
    5.8276  -10.5206   26.4163 O   0  0  0  0  0  0  0  0  0  0  0  0
    6.4833  -11.7517   26.2774 C   0  0  0  0  0  0  0  0  0  0  0  0
    7.8299  -11.8072   26.0242 C   0  0  0  0  0  0  0  0  0  0  0  0
    8.4925  -13.0131   25.8844 C   0  0  0  0  0  0  0  0  0  0  0  0
    7.7894  -14.1776   26.0013 C   0  0  0  0  0  0  0  0  0  0  0  0
    8.4731  -15.4930   25.8563 C   0  0  0  0  0  0  0  0  0  0  0  0
    8.7197  -15.6954   24.3619 C   0  0  2  0  0  0  0  0  0  0  0  0
    7.4545  -15.9634   23.7448 N   0  0  0  0  0  0  0  0  0  0  0  0
    9.6540  -16.8532   24.2562 C   0  0  0  0  0  0  0  0  0  0  0  0
    9.5532  -17.8346   25.0355 O   0  0  0  0  0  0  0  0  0  0  0  0
    6.4152  -14.1482   26.2594 C   0  0  0  0  0  0  0  0  0  0  0  0
    5.7853  -12.9257   26.3932 C   0  0  0  0  0  0  0  0  0  0  0  0
   10.6707  -16.8758   23.2819 N   0  0  0  0  0  0  0  0  0  0  0  0
   11.5827  -18.0166   23.1676 C   0  0  1  0  0  0  0  0  0  0  0  0
   12.4542  -17.8070   21.9710 C   0  0  0  0  0  0  0  0  0  0  0  0
   11.7749  -17.9512   20.6554 C   0  0  0  0  0  0  0  0  0  0  0  0
   12.6769  -17.6515   19.5378 C   0  0  0  0  0  0  0  0  0  0  0  0
   13.8643  -17.3538   19.7360 O   0  0  0  0  0  0  0  0  0  0  0  0
   12.4134  -18.0867   24.4161 C   0  0  0  0  0  0  0  0  0  0  0  0
   12.8608  -17.0868   25.0140 O   0  0  0  0  0  0  0  0  0  0  0  0
   12.1937  -17.7023   18.2450 O   0  0  0  0  0  0  0  0  0  0  0  0
   12.7317  -19.3629   24.9839 N   0  0  0  0  0  0  0  0  0  0  0  0
   13.5295  -19.4777   26.2153 C   0  0  1  0  0  0  0  0  0  0  0  0
   12.7956  -20.3836   27.1512 C   0  0  0  0  0  0  0  0  0  0  0  0
   11.5309  -19.8772   27.7198 C   0  0  0  0  0  0  0  0  0  0  0  0
   10.8491  -20.8693   28.5616 C   0  0  0  0  0  0  0  0  0  0  0  0
   11.2103  -22.0388   28.7058 O   0  0  0  0  0  0  0  0  0  0  0  0
   14.8656  -19.9300   25.8516 C   0  0  0  0  0  0  0  0  0  0  0  0
   15.9312  -19.6402   26.6757 O   0  0  0  0  0  0  0  0  0  0  0  0
    9.7011  -20.4237   29.2423 O   0  0  0  0  0  0  0  0  0  0  0  0
   15.0701  -20.5758   24.8087 O   0  0  0  0  0  0  0  0  0  0  0  0
  2  1  1  0
  3  2  2  0
  4  3  1  0
  5 11  1  0
  5  4  2  0
  6  5  1  0
  7  6  1  0
  7  8  1  6
  9 10  2  0
  9  7  1  0
 11 12  2  0
 12  2  1  0
 13  9  1  0
 14 13  1  0
 14 15  1  6
 15 16  1  0
 16 17  1  0
 17 21  1  0
 18 17  2  0
 19 14  1  0
 20 19  2  0
 22 19  1  0
 23 22  1  0
 23 24  1  1
 24 25  1  0
 26 30  1  0
 26 25  1  0
 27 26  2  0
 28 23  1  0
 28 29  1  0
 31 28  2  0
M  END
$$$$
