YEE.pdb
     RDKit          3D

 31 31  0  0  1  0  0  0  0  0999 V2000
    5.7906  -11.8761   18.8066 O   0  0  0  0  0  0  0  0  0  0  0  0
    6.9906  -12.4884   19.1935 C   0  0  0  0  0  0  0  0  0  0  0  0
    6.9869  -13.6946   19.8460 C   0  0  0  0  0  0  0  0  0  0  0  0
    8.1615  -14.3125   20.2348 C   0  0  0  0  0  0  0  0  0  0  0  0
    9.3548  -13.7075   19.9627 C   0  0  0  0  0  0  0  0  0  0  0  0
   10.6378  -14.3466   20.3677 C   0  0  0  0  0  0  0  0  0  0  0  0
   11.1891  -15.0461   19.1260 C   0  0  2  0  0  0  0  0  0  0  0  0
   10.2154  -16.0072   18.6999 N   0  0  0  0  0  0  0  0  0  0  0  0
   12.4652  -15.6893   19.5533 C   0  0  0  0  0  0  0  0  0  0  0  0
   12.4565  -16.7351   20.2510 O   0  0  0  0  0  0  0  0  0  0  0  0
    9.3858  -12.4772   19.2983 C   0  0  0  0  0  0  0  0  0  0  0  0
    8.1932  -11.8882   18.9244 C   0  0  0  0  0  0  0  0  0  0  0  0
   13.7097  -15.1418   19.1861 N   0  0  0  0  0  0  0  0  0  0  0  0
   14.9621  -15.8338   19.5006 C   0  0  1  0  0  0  0  0  0  0  0  0
   16.0150  -15.3606   18.5505 C   0  0  0  0  0  0  0  0  0  0  0  0
   16.1494  -13.8836   18.4330 C   0  0  0  0  0  0  0  0  0  0  0  0
   17.1761  -13.5032   17.4566 C   0  0  0  0  0  0  0  0  0  0  0  0
   17.9548  -12.5642   17.6798 O   0  0  0  0  0  0  0  0  0  0  0  0
   15.3443  -15.5039   20.9143 C   0  0  0  0  0  0  0  0  0  0  0  0
   15.2088  -14.3751   21.4289 O   0  0  0  0  0  0  0  0  0  0  0  0
   17.2754  -14.2037   16.2704 O   0  0  0  0  0  0  0  0  0  0  0  0
   15.9019  -16.5228   21.7531 N   0  0  0  0  0  0  0  0  0  0  0  0
   16.2543  -16.2539   23.1565 C   0  0  1  0  0  0  0  0  0  0  0  0
   15.9401  -17.4821   23.9489 C   0  0  0  0  0  0  0  0  0  0  0  0
   16.3798  -17.5009   25.3579 C   0  0  0  0  0  0  0  0  0  0  0  0
   16.0698  -18.7682   26.0329 C   0  0  0  0  0  0  0  0  0  0  0  0
   15.4057  -19.6836   25.5430 O   0  0  0  0  0  0  0  0  0  0  0  0
   17.6499  -15.8385   23.2037 C   0  0  0  0  0  0  0  0  0  0  0  0
   18.1378  -15.2157   24.3318 O   0  0  0  0  0  0  0  0  0  0  0  0
   16.5818  -18.9212   27.3345 O   0  0  0  0  0  0  0  0  0  0  0  0
   18.4173  -16.0333   22.2448 O   0  0  0  0  0  0  0  0  0  0  0  0
  2  1  1  0
  3  2  2  0
  4  3  1  0
  5 11  1  0
  5  4  2  0
  6  5  1  0
  7  6  1  0
  7  8  1  1
  9 10  2  0
  9  7  1  0
 11 12  2  0
 12  2  1  0
 13  9  1  0
 14 13  1  0
 14 15  1  6
 15 16  1  0
 16 17  1  0
 17 21  1  0
 18 17  2  0
 19 14  1  0
 20 19  2  0
 22 19  1  0
 23 22  1  0
 23 24  1  1
 24 25  1  0
 26 30  1  0
 26 25  1  0
 27 26  2  0
 28 23  1  0
 28 29  1  0
 31 28  2  0
M  END
$$$$
