YEE.pdb
     RDKit          3D

 31 31  0  0  1  0  0  0  0  0999 V2000
    4.8416  -10.5113   26.9165 O   0  0  0  0  0  0  0  0  0  0  0  0
    5.7237  -11.5518   26.5942 C   0  0  0  0  0  0  0  0  0  0  0  0
    6.9022  -11.7123   27.2769 C   0  0  0  0  0  0  0  0  0  0  0  0
    7.7838  -12.7334   26.9719 C   0  0  0  0  0  0  0  0  0  0  0  0
    7.4739  -13.6036   25.9665 C   0  0  0  0  0  0  0  0  0  0  0  0
    8.4016  -14.7141   25.6133 C   0  0  0  0  0  0  0  0  0  0  0  0
    7.6180  -15.6695   24.7144 C   0  0  2  0  0  0  0  0  0  0  0  0
    6.6539  -16.3438   25.5325 N   0  0  0  0  0  0  0  0  0  0  0  0
    8.6252  -16.6086   24.1415 C   0  0  0  0  0  0  0  0  0  0  0  0
    8.8150  -17.7403   24.6553 O   0  0  0  0  0  0  0  0  0  0  0  0
    6.2782  -13.4615   25.2550 C   0  0  0  0  0  0  0  0  0  0  0  0
    5.4208  -12.4301   25.5863 C   0  0  0  0  0  0  0  0  0  0  0  0
    9.3873  -16.2515   23.0124 N   0  0  0  0  0  0  0  0  0  0  0  0
   10.4108  -17.1519   22.4758 C   0  0  1  0  0  0  0  0  0  0  0  0
   10.5659  -16.8741   21.0150 C   0  0  0  0  0  0  0  0  0  0  0  0
   11.5505  -17.7337   20.3044 C   0  0  0  0  0  0  0  0  0  0  0  0
   11.6441  -17.3961   18.8797 C   0  0  0  0  0  0  0  0  0  0  0  0
   12.0444  -16.2816   18.5111 O   0  0  0  0  0  0  0  0  0  0  0  0
   11.6997  -16.8899   23.1996 C   0  0  0  0  0  0  0  0  0  0  0  0
   12.2363  -15.7665   23.2855 O   0  0  0  0  0  0  0  0  0  0  0  0
   11.2801  -18.3360   17.9355 O   0  0  0  0  0  0  0  0  0  0  0  0
   12.3832  -17.9724   23.8426 N   0  0  0  0  0  0  0  0  0  0  0  0
   13.5636  -17.7394   24.6902 C   0  0  1  0  0  0  0  0  0  0  0  0
   13.4659  -18.6535   25.8692 C   0  0  0  0  0  0  0  0  0  0  0  0
   12.2100  -18.6156   26.6440 C   0  0  0  0  0  0  0  0  0  0  0  0
   12.1585  -19.6425   27.6931 C   0  0  0  0  0  0  0  0  0  0  0  0
   11.2200  -19.8045   28.4754 O   0  0  0  0  0  0  0  0  0  0  0  0
   14.7549  -17.9247   23.8724 C   0  0  0  0  0  0  0  0  0  0  0  0
   14.6396  -18.4776   22.6156 O   0  0  0  0  0  0  0  0  0  0  0  0
   13.2773  -20.4904   27.7890 O   0  0  0  0  0  0  0  0  0  0  0  0
   15.8812  -17.5941   24.2830 O   0  0  0  0  0  0  0  0  0  0  0  0
  2  1  1  0
  3  2  2  0
  4  3  1  0
  5 11  1  0
  5  4  2  0
  6  5  1  0
  7  6  1  0
  7  8  1  1
  9 10  2  0
  9  7  1  0
 11 12  2  0
 12  2  1  0
 13  9  1  0
 14 13  1  0
 14 15  1  6
 15 16  1  0
 16 17  1  0
 17 21  1  0
 18 17  2  0
 19 14  1  0
 20 19  2  0
 22 19  1  0
 23 22  1  0
 23 24  1  1
 24 25  1  0
 26 30  1  0
 26 25  1  0
 27 26  2  0
 28 23  1  0
 28 29  1  0
 31 28  2  0
M  END
$$$$
