YEE.pdb
     RDKit          3D

 31 31  0  0  1  0  0  0  0  0999 V2000
    6.1917  -11.6613   18.8912 O   0  0  0  0  0  0  0  0  0  0  0  0
    7.0113  -12.6108   19.5169 C   0  0  0  0  0  0  0  0  0  0  0  0
    6.5115  -13.4426   20.4860 C   0  0  0  0  0  0  0  0  0  0  0  0
    7.3061  -14.3849   21.1133 C   0  0  0  0  0  0  0  0  0  0  0  0
    8.6206  -14.4903   20.7598 C   0  0  0  0  0  0  0  0  0  0  0  0
    9.5031  -15.4949   21.4161 C   0  0  0  0  0  0  0  0  0  0  0  0
    9.5088  -16.7280   20.5136 C   0  0  2  0  0  0  0  0  0  0  0  0
    8.2935  -17.4482   20.7539 N   0  0  0  0  0  0  0  0  0  0  0  0
   10.7151  -17.5134   20.9042 C   0  0  0  0  0  0  0  0  0  0  0  0
   10.7141  -18.2195   21.9445 O   0  0  0  0  0  0  0  0  0  0  0  0
    9.1546  -13.6538   19.7744 C   0  0  0  0  0  0  0  0  0  0  0  0
    8.3322  -12.7237   19.1684 C   0  0  0  0  0  0  0  0  0  0  0  0
   11.8834  -17.4837   20.1184 N   0  0  0  0  0  0  0  0  0  0  0  0
   13.0439  -18.3108   20.4580 C   0  0  1  0  0  0  0  0  0  0  0  0
   13.8820  -18.4759   19.2310 C   0  0  0  0  0  0  0  0  0  0  0  0
   15.0520  -19.3832   19.3764 C   0  0  0  0  0  0  0  0  0  0  0  0
   15.8185  -19.4920   18.1302 C   0  0  0  0  0  0  0  0  0  0  0  0
   17.0480  -19.3297   18.1189 O   0  0  0  0  0  0  0  0  0  0  0  0
   13.8232  -17.6149   21.5361 C   0  0  0  0  0  0  0  0  0  0  0  0
   13.9786  -16.3782   21.5977 O   0  0  0  0  0  0  0  0  0  0  0  0
   15.1583  -19.7799   16.9518 O   0  0  0  0  0  0  0  0  0  0  0  0
   14.4399  -18.3862   22.5739 N   0  0  0  0  0  0  0  0  0  0  0  0
   15.1399  -17.7415   23.6966 C   0  0  1  0  0  0  0  0  0  0  0  0
   15.2892  -18.7565   24.7841 C   0  0  0  0  0  0  0  0  0  0  0  0
   16.0725  -18.3574   25.9700 C   0  0  0  0  0  0  0  0  0  0  0  0
   16.1319  -19.4105   26.9923 C   0  0  0  0  0  0  0  0  0  0  0  0
   17.1356  -20.0715   27.2658 O   0  0  0  0  0  0  0  0  0  0  0  0
   16.3943  -17.1946   23.1970 C   0  0  0  0  0  0  0  0  0  0  0  0
   16.9527  -16.0963   23.8138 O   0  0  0  0  0  0  0  0  0  0  0  0
   14.9398  -19.6622   27.6961 O   0  0  0  0  0  0  0  0  0  0  0  0
   16.9780  -17.6976   22.2209 O   0  0  0  0  0  0  0  0  0  0  0  0
  2  1  1  0
  3  2  2  0
  4  3  1  0
  5 11  1  0
  5  4  2  0
  6  5  1  0
  7  6  1  0
  7  8  1  1
  9 10  2  0
  9  7  1  0
 11 12  2  0
 12  2  1  0
 13  9  1  0
 14 13  1  0
 14 15  1  6
 15 16  1  0
 16 17  1  0
 17 21  1  0
 18 17  2  0
 19 14  1  0
 20 19  2  0
 22 19  1  0
 23 22  1  0
 23 24  1  1
 24 25  1  0
 26 30  1  0
 26 25  1  0
 27 26  2  0
 28 23  1  0
 28 29  1  0
 31 28  2  0
M  END
$$$$
