YEE.pdb
     RDKit          3D

 31 31  0  0  1  0  0  0  0  0999 V2000
    7.0671  -10.7867   25.6625 O   0  0  0  0  0  0  0  0  0  0  0  0
    7.1194  -12.1662   25.9054 C   0  0  0  0  0  0  0  0  0  0  0  0
    8.2039  -12.9090   25.5147 C   0  0  0  0  0  0  0  0  0  0  0  0
    8.2718  -14.2708   25.7464 C   0  0  0  0  0  0  0  0  0  0  0  0
    7.2339  -14.8918   26.3799 C   0  0  0  0  0  0  0  0  0  0  0  0
    7.2760  -16.3570   26.6448 C   0  0  0  0  0  0  0  0  0  0  0  0
    6.6855  -17.0413   25.4128 C   0  0  2  0  0  0  0  0  0  0  0  0
    6.1013  -18.2780   25.8404 N   0  0  0  0  0  0  0  0  0  0  0  0
    7.8277  -17.2524   24.4771 C   0  0  0  0  0  0  0  0  0  0  0  0
    8.7474  -18.0627   24.7569 O   0  0  0  0  0  0  0  0  0  0  0  0
    6.1164  -14.1568   26.7885 C   0  0  0  0  0  0  0  0  0  0  0  0
    6.0819  -12.7980   26.5407 C   0  0  0  0  0  0  0  0  0  0  0  0
    7.9039  -16.5503   23.2587 N   0  0  0  0  0  0  0  0  0  0  0  0
    9.0113  -16.7735   22.3258 C   0  0  1  0  0  0  0  0  0  0  0  0
    8.6601  -16.1441   21.0160 C   0  0  0  0  0  0  0  0  0  0  0  0
    9.6943  -16.2656   19.9535 C   0  0  0  0  0  0  0  0  0  0  0  0
    9.2049  -15.7868   18.6559 C   0  0  0  0  0  0  0  0  0  0  0  0
    9.9847  -15.3285   17.8074 O   0  0  0  0  0  0  0  0  0  0  0  0
   10.2474  -16.1415   22.8970 C   0  0  0  0  0  0  0  0  0  0  0  0
   10.3186  -14.9492   23.2588 O   0  0  0  0  0  0  0  0  0  0  0  0
    7.8537  -15.8485   18.3768 O   0  0  0  0  0  0  0  0  0  0  0  0
   11.4369  -16.9250   23.0505 N   0  0  0  0  0  0  0  0  0  0  0  0
   12.6741  -16.3435   23.5956 C   0  0  1  0  0  0  0  0  0  0  0  0
   13.1789  -17.2625   24.6613 C   0  0  0  0  0  0  0  0  0  0  0  0
   12.2467  -17.5939   25.7568 C   0  0  0  0  0  0  0  0  0  0  0  0
   12.8265  -18.5250   26.7339 C   0  0  0  0  0  0  0  0  0  0  0  0
   13.9397  -19.0451   26.6374 O   0  0  0  0  0  0  0  0  0  0  0  0
   13.5990  -16.1243   22.4915 C   0  0  0  0  0  0  0  0  0  0  0  0
   13.2909  -16.6070   21.2382 O   0  0  0  0  0  0  0  0  0  0  0  0
   12.0296  -18.8279   27.8533 O   0  0  0  0  0  0  0  0  0  0  0  0
   14.6670  -15.5082   22.6529 O   0  0  0  0  0  0  0  0  0  0  0  0
  2  1  1  0
  3  2  2  0
  4  3  1  0
  5 11  1  0
  5  4  2  0
  6  5  1  0
  7  6  1  0
  7  8  1  1
  9 10  2  0
  9  7  1  0
 11 12  2  0
 12  2  1  0
 13  9  1  0
 14 13  1  0
 14 15  1  6
 15 16  1  0
 16 17  1  0
 17 21  1  0
 18 17  2  0
 19 14  1  0
 20 19  2  0
 22 19  1  0
 23 22  1  0
 23 24  1  1
 24 25  1  0
 26 30  1  0
 26 25  1  0
 27 26  2  0
 28 23  1  0
 28 29  1  0
 31 28  2  0
M  END
$$$$
