YEE.pdb
     RDKit          3D

 31 31  0  0  1  0  0  0  0  0999 V2000
    5.4036  -10.1943   26.3056 O   0  0  0  0  0  0  0  0  0  0  0  0
    6.0496  -11.4305   26.1670 C   0  0  0  0  0  0  0  0  0  0  0  0
    5.7034  -12.4978   26.9553 C   0  0  0  0  0  0  0  0  0  0  0  0
    6.3304  -13.7244   26.8318 C   0  0  0  0  0  0  0  0  0  0  0  0
    7.3185  -13.8773   25.9022 C   0  0  0  0  0  0  0  0  0  0  0  0
    8.0135  -15.1852   25.7437 C   0  0  0  0  0  0  0  0  0  0  0  0
    7.2951  -15.9286   24.6184 C   0  0  2  0  0  0  0  0  0  0  0  0
    6.1658  -16.5989   25.1917 N   0  0  0  0  0  0  0  0  0  0  0  0
    8.2936  -16.8855   24.0597 C   0  0  0  0  0  0  0  0  0  0  0  0
    8.4386  -18.0295   24.5606 O   0  0  0  0  0  0  0  0  0  0  0  0
    7.6903  -12.8043   25.0858 C   0  0  0  0  0  0  0  0  0  0  0  0
    7.0428  -11.5931   25.2364 C   0  0  0  0  0  0  0  0  0  0  0  0
    9.0973  -16.5317   22.9587 N   0  0  0  0  0  0  0  0  0  0  0  0
   10.1777  -17.4080   22.4992 C   0  0  1  0  0  0  0  0  0  0  0  0
   10.5683  -16.9919   21.1173 C   0  0  0  0  0  0  0  0  0  0  0  0
    9.7202  -17.5387   20.0241 C   0  0  0  0  0  0  0  0  0  0  0  0
   10.0620  -16.9551   18.7221 C   0  0  0  0  0  0  0  0  0  0  0  0
    9.9985  -15.7311   18.5331 O   0  0  0  0  0  0  0  0  0  0  0  0
   11.3391  -17.2620   23.4391 C   0  0  0  0  0  0  0  0  0  0  0  0
   11.5744  -16.2322   24.1036 O   0  0  0  0  0  0  0  0  0  0  0  0
   10.4606  -17.7840   17.6919 O   0  0  0  0  0  0  0  0  0  0  0  0
   12.2539  -18.3514   23.6086 N   0  0  0  0  0  0  0  0  0  0  0  0
   13.0156  -18.5273   24.8556 C   0  0  1  0  0  0  0  0  0  0  0  0
   12.0407  -18.8399   25.9451 C   0  0  0  0  0  0  0  0  0  0  0  0
   12.6011  -19.2309   27.2536 C   0  0  0  0  0  0  0  0  0  0  0  0
   11.5635  -19.5194   28.2526 C   0  0  0  0  0  0  0  0  0  0  0  0
   11.7805  -19.9044   29.4031 O   0  0  0  0  0  0  0  0  0  0  0  0
   14.0271  -19.5512   24.6306 C   0  0  0  0  0  0  0  0  0  0  0  0
   15.2147  -19.5009   25.3275 O   0  0  0  0  0  0  0  0  0  0  0  0
   10.2319  -19.3336   27.8378 O   0  0  0  0  0  0  0  0  0  0  0  0
   13.8444  -20.4761   23.8196 O   0  0  0  0  0  0  0  0  0  0  0  0
  2  1  1  0
  3  2  2  0
  4  3  1  0
  5 11  1  0
  5  4  2  0
  6  5  1  0
  7  6  1  0
  7  8  1  1
  9 10  2  0
  9  7  1  0
 11 12  2  0
 12  2  1  0
 13  9  1  0
 14 13  1  0
 14 15  1  6
 15 16  1  0
 16 17  1  0
 17 21  1  0
 18 17  2  0
 19 14  1  0
 20 19  2  0
 22 19  1  0
 23 22  1  0
 23 24  1  1
 24 25  1  0
 26 30  1  0
 26 25  1  0
 27 26  2  0
 28 23  1  0
 28 29  1  0
 31 28  2  0
M  END
$$$$
