YEE.pdb
     RDKit          3D

 31 31  0  0  1  0  0  0  0  0999 V2000
    5.6583  -11.8059   19.1303 O   0  0  0  0  0  0  0  0  0  0  0  0
    6.5025  -12.7341   19.7550 C   0  0  0  0  0  0  0  0  0  0  0  0
    6.1787  -14.0662   19.7924 C   0  0  0  0  0  0  0  0  0  0  0  0
    7.0002  -14.9954   20.4045 C   0  0  0  0  0  0  0  0  0  0  0  0
    8.1624  -14.5770   20.9861 C   0  0  0  0  0  0  0  0  0  0  0  0
    9.0693  -15.5523   21.6532 C   0  0  0  0  0  0  0  0  0  0  0  0
   10.3238  -15.6470   20.7860 C   0  0  2  0  0  0  0  0  0  0  0  0
    9.9085  -15.9791   19.4553 N   0  0  0  0  0  0  0  0  0  0  0  0
   11.1623  -16.7183   21.3977 C   0  0  0  0  0  0  0  0  0  0  0  0
   10.9377  -17.1223   22.5668 O   0  0  0  0  0  0  0  0  0  0  0  0
    8.5155  -13.2240   20.9616 C   0  0  0  0  0  0  0  0  0  0  0  0
    7.6713  -12.3231   20.3415 C   0  0  0  0  0  0  0  0  0  0  0  0
   12.2247  -17.3029   20.6816 N   0  0  0  0  0  0  0  0  0  0  0  0
   13.1230  -18.2699   21.3175 C   0  0  1  0  0  0  0  0  0  0  0  0
   14.0010  -18.8637   20.2631 C   0  0  0  0  0  0  0  0  0  0  0  0
   15.0061  -19.8462   20.7505 C   0  0  0  0  0  0  0  0  0  0  0  0
   15.8426  -20.3602   19.6603 C   0  0  0  0  0  0  0  0  0  0  0  0
   16.7691  -21.1537   19.8841 O   0  0  0  0  0  0  0  0  0  0  0  0
   13.9485  -17.5477   22.3424 C   0  0  0  0  0  0  0  0  0  0  0  0
   14.4344  -16.4108   22.1726 O   0  0  0  0  0  0  0  0  0  0  0  0
   15.5924  -19.9527   18.3646 O   0  0  0  0  0  0  0  0  0  0  0  0
   14.2153  -18.1717   23.6041 N   0  0  0  0  0  0  0  0  0  0  0  0
   14.9507  -17.4689   24.6678 C   0  0  1  0  0  0  0  0  0  0  0  0
   14.5855  -18.1043   25.9709 C   0  0  0  0  0  0  0  0  0  0  0  0
   13.1692  -18.0276   26.3799 C   0  0  0  0  0  0  0  0  0  0  0  0
   12.9273  -18.6181   27.7031 C   0  0  0  0  0  0  0  0  0  0  0  0
   13.5407  -18.3215   28.7301 O   0  0  0  0  0  0  0  0  0  0  0  0
   16.3706  -17.5129   24.3450 C   0  0  0  0  0  0  0  0  0  0  0  0
   16.8732  -18.5743   23.6243 O   0  0  0  0  0  0  0  0  0  0  0  0
   11.9143  -19.5920   27.7738 O   0  0  0  0  0  0  0  0  0  0  0  0
   17.1459  -16.6102   24.7061 O   0  0  0  0  0  0  0  0  0  0  0  0
  2  1  1  0
  3  2  2  0
  4  3  1  0
  5 11  1  0
  5  4  2  0
  6  5  1  0
  7  6  1  0
  7  8  1  6
  9 10  2  0
  9  7  1  0
 11 12  2  0
 12  2  1  0
 13  9  1  0
 14 13  1  0
 14 15  1  6
 15 16  1  0
 16 17  1  0
 17 21  1  0
 18 17  2  0
 19 14  1  0
 20 19  2  0
 22 19  1  0
 23 22  1  0
 23 24  1  1
 24 25  1  0
 26 30  1  0
 26 25  1  0
 27 26  2  0
 28 23  1  0
 28 29  1  0
 31 28  2  0
M  END
$$$$
