YEE.pdb
     RDKit          3D

 31 31  0  0  1  0  0  0  0  0999 V2000
    6.7775  -12.1511   28.7292 O   0  0  0  0  0  0  0  0  0  0  0  0
    6.9043  -12.5819   27.4014 C   0  0  0  0  0  0  0  0  0  0  0  0
    8.0408  -13.2190   26.9736 C   0  0  0  0  0  0  0  0  0  0  0  0
    8.1824  -13.6505   25.6673 C   0  0  0  0  0  0  0  0  0  0  0  0
    7.1660  -13.4374   24.7810 C   0  0  0  0  0  0  0  0  0  0  0  0
    7.2868  -13.8900   23.3670 C   0  0  0  0  0  0  0  0  0  0  0  0
    6.7910  -15.3348   23.3264 C   0  0  2  0  0  0  0  0  0  0  0  0
    6.0771  -15.5840   24.5436 N   0  0  0  0  0  0  0  0  0  0  0  0
    8.0129  -16.1819   23.2071 C   0  0  0  0  0  0  0  0  0  0  0  0
    8.3511  -16.9578   24.1367 O   0  0  0  0  0  0  0  0  0  0  0  0
    5.9965  -12.7900   25.1922 C   0  0  0  0  0  0  0  0  0  0  0  0
    5.8889  -12.3721   26.5047 C   0  0  0  0  0  0  0  0  0  0  0  0
    8.8167  -16.1336   22.0517 N   0  0  0  0  0  0  0  0  0  0  0  0
    9.9272  -17.0705   21.8639 C   0  0  1  0  0  0  0  0  0  0  0  0
   10.3807  -16.9869   20.4417 C   0  0  0  0  0  0  0  0  0  0  0  0
   11.5394  -17.8516   20.0910 C   0  0  0  0  0  0  0  0  0  0  0  0
   11.9134  -17.7194   18.6785 C   0  0  0  0  0  0  0  0  0  0  0  0
   12.6360  -16.7884   18.2924 O   0  0  0  0  0  0  0  0  0  0  0  0
   11.0395  -16.6801   22.7933 C   0  0  0  0  0  0  0  0  0  0  0  0
   11.5360  -15.5364   22.8464 O   0  0  0  0  0  0  0  0  0  0  0  0
   11.4524  -18.6479   17.7660 O   0  0  0  0  0  0  0  0  0  0  0  0
   11.5893  -17.6545   23.6881 N   0  0  0  0  0  0  0  0  0  0  0  0
   12.6205  -17.2952   24.6748 C   0  0  1  0  0  0  0  0  0  0  0  0
   12.4240  -18.1630   25.8763 C   0  0  0  0  0  0  0  0  0  0  0  0
   13.4334  -18.0609   26.9486 C   0  0  0  0  0  0  0  0  0  0  0  0
   13.1448  -18.9442   28.0863 C   0  0  0  0  0  0  0  0  0  0  0  0
   12.1972  -19.7300   28.1459 O   0  0  0  0  0  0  0  0  0  0  0  0
   13.9243  -17.4226   24.0376 C   0  0  0  0  0  0  0  0  0  0  0  0
   14.9740  -16.6422   24.4709 O   0  0  0  0  0  0  0  0  0  0  0  0
   14.0327  -18.8664   29.1751 O   0  0  0  0  0  0  0  0  0  0  0  0
   14.1151  -18.2236   23.1057 O   0  0  0  0  0  0  0  0  0  0  0  0
  2  1  1  0
  3  2  2  0
  4  3  1  0
  5 11  1  0
  5  4  2  0
  6  5  1  0
  7  6  1  0
  7  8  1  1
  9 10  2  0
  9  7  1  0
 11 12  2  0
 12  2  1  0
 13  9  1  0
 14 13  1  0
 14 15  1  6
 15 16  1  0
 16 17  1  0
 17 21  1  0
 18 17  2  0
 19 14  1  0
 20 19  2  0
 22 19  1  0
 23 22  1  0
 23 24  1  1
 24 25  1  0
 26 30  1  0
 26 25  1  0
 27 26  2  0
 28 23  1  0
 28 29  1  0
 31 28  2  0
M  END
$$$$
