YEE.pdb
     RDKit          3D

 31 31  0  0  1  0  0  0  0  0999 V2000
    6.0210  -10.9874   27.0990 O   0  0  0  0  0  0  0  0  0  0  0  0
    6.4728  -12.1245   26.4153 C   0  0  0  0  0  0  0  0  0  0  0  0
    6.0783  -12.3734   25.1257 C   0  0  0  0  0  0  0  0  0  0  0  0
    6.5145  -13.4904   24.4365 C   0  0  0  0  0  0  0  0  0  0  0  0
    7.3588  -14.3674   25.0546 C   0  0  0  0  0  0  0  0  0  0  0  0
    7.8471  -15.5798   24.3402 C   0  0  0  0  0  0  0  0  0  0  0  0
    9.0593  -15.1444   23.5180 C   0  0  2  0  0  0  0  0  0  0  0  0
    8.5861  -14.7356   22.2287 N   0  0  0  0  0  0  0  0  0  0  0  0
    9.9482  -16.3395   23.4382 C   0  0  0  0  0  0  0  0  0  0  0  0
   10.1413  -17.0661   24.4459 O   0  0  0  0  0  0  0  0  0  0  0  0
    7.7760  -14.1364   26.3694 C   0  0  0  0  0  0  0  0  0  0  0  0
    7.3206  -13.0105   27.0280 C   0  0  0  0  0  0  0  0  0  0  0  0
   10.5922  -16.6830   22.2338 N   0  0  0  0  0  0  0  0  0  0  0  0
   11.6225  -17.7240   22.1979 C   0  0  1  0  0  0  0  0  0  0  0  0
   12.1688  -17.8005   20.8083 C   0  0  0  0  0  0  0  0  0  0  0  0
   13.2013  -18.8484   20.5869 C   0  0  0  0  0  0  0  0  0  0  0  0
   13.6703  -18.8697   19.1969 C   0  0  0  0  0  0  0  0  0  0  0  0
   14.5801  -18.1175   18.8170 O   0  0  0  0  0  0  0  0  0  0  0  0
   12.7061  -17.3526   23.1681 C   0  0  0  0  0  0  0  0  0  0  0  0
   12.8488  -16.2112   23.6522 O   0  0  0  0  0  0  0  0  0  0  0  0
   13.0879  -19.7424   18.2988 O   0  0  0  0  0  0  0  0  0  0  0  0
   13.6523  -18.3438   23.5860 N   0  0  0  0  0  0  0  0  0  0  0  0
   14.1357  -18.4062   24.9747 C   0  0  1  0  0  0  0  0  0  0  0  0
   13.0425  -18.9882   25.8123 C   0  0  0  0  0  0  0  0  0  0  0  0
   12.5487  -18.1663   26.9346 C   0  0  0  0  0  0  0  0  0  0  0  0
   11.6707  -18.9149   27.8437 C   0  0  0  0  0  0  0  0  0  0  0  0
   10.4812  -18.6612   28.0427 O   0  0  0  0  0  0  0  0  0  0  0  0
   15.3820  -19.1605   24.9894 C   0  0  0  0  0  0  0  0  0  0  0  0
   15.5643  -20.1931   24.0955 O   0  0  0  0  0  0  0  0  0  0  0  0
   12.2579  -19.9972   28.5246 O   0  0  0  0  0  0  0  0  0  0  0  0
   16.2918  -18.8940   25.7941 O   0  0  0  0  0  0  0  0  0  0  0  0
  2  1  1  0
  3  2  2  0
  4  3  1  0
  5 11  1  0
  5  4  2  0
  6  5  1  0
  7  6  1  0
  7  8  1  6
  9 10  2  0
  9  7  1  0
 11 12  2  0
 12  2  1  0
 13  9  1  0
 14 13  1  0
 14 15  1  6
 15 16  1  0
 16 17  1  0
 17 21  1  0
 18 17  2  0
 19 14  1  0
 20 19  2  0
 22 19  1  0
 23 22  1  0
 23 24  1  1
 24 25  1  0
 26 30  1  0
 26 25  1  0
 27 26  2  0
 28 23  1  0
 28 29  1  0
 31 28  2  0
M  END
$$$$
