YEE.pdb
     RDKit          3D

 31 31  0  0  1  0  0  0  0  0999 V2000
    8.9503  -13.1094   29.2396 O   0  0  0  0  0  0  0  0  0  0  0  0
    8.4333  -13.3681   27.9628 C   0  0  0  0  0  0  0  0  0  0  0  0
    9.2433  -13.8247   26.9547 C   0  0  0  0  0  0  0  0  0  0  0  0
    8.7497  -14.0851   25.6893 C   0  0  0  0  0  0  0  0  0  0  0  0
    7.4233  -13.8829   25.4365 C   0  0  0  0  0  0  0  0  0  0  0  0
    6.8601  -14.1539   24.0844 C   0  0  0  0  0  0  0  0  0  0  0  0
    6.5101  -15.6409   24.0464 C   0  0  2  0  0  0  0  0  0  0  0  0
    6.0292  -16.0077   25.3455 N   0  0  0  0  0  0  0  0  0  0  0  0
    7.7749  -16.3485   23.6940 C   0  0  0  0  0  0  0  0  0  0  0  0
    8.3960  -17.0230   24.5543 O   0  0  0  0  0  0  0  0  0  0  0  0
    6.5761  -13.4179   26.4474 C   0  0  0  0  0  0  0  0  0  0  0  0
    7.1029  -13.1680   27.6999 C   0  0  0  0  0  0  0  0  0  0  0  0
    8.3040  -16.2788   22.3907 N   0  0  0  0  0  0  0  0  0  0  0  0
    9.4830  -17.0611   22.0108 C   0  0  1  0  0  0  0  0  0  0  0  0
    9.7054  -16.8974   20.5415 C   0  0  0  0  0  0  0  0  0  0  0  0
   10.8537  -17.6603   19.9824 C   0  0  0  0  0  0  0  0  0  0  0  0
   10.9484  -17.5175   18.5253 C   0  0  0  0  0  0  0  0  0  0  0  0
   10.1221  -16.8422   17.8936 O   0  0  0  0  0  0  0  0  0  0  0  0
   10.6634  -16.5444   22.7811 C   0  0  0  0  0  0  0  0  0  0  0  0
   10.9162  -15.3329   22.9417 O   0  0  0  0  0  0  0  0  0  0  0  0
   11.9751  -18.1459   17.8484 O   0  0  0  0  0  0  0  0  0  0  0  0
   11.5767  -17.4701   23.3821 N   0  0  0  0  0  0  0  0  0  0  0  0
   12.6675  -17.0131   24.2581 C   0  0  1  0  0  0  0  0  0  0  0  0
   12.7333  -17.9427   25.4272 C   0  0  0  0  0  0  0  0  0  0  0  0
   13.8246  -17.7236   26.3967 C   0  0  0  0  0  0  0  0  0  0  0  0
   13.7840  -18.6683   27.5208 C   0  0  0  0  0  0  0  0  0  0  0  0
   12.9625  -19.5782   27.6475 O   0  0  0  0  0  0  0  0  0  0  0  0
   13.8882  -16.9426   23.4661 C   0  0  0  0  0  0  0  0  0  0  0  0
   14.0517  -17.7866   22.3893 O   0  0  0  0  0  0  0  0  0  0  0  0
   14.7680  -18.4982   28.5121 O   0  0  0  0  0  0  0  0  0  0  0  0
   14.7927  -16.1342   23.7394 O   0  0  0  0  0  0  0  0  0  0  0  0
  2  1  1  0
  3  2  2  0
  4  3  1  0
  5 11  1  0
  5  4  2  0
  6  5  1  0
  7  6  1  0
  7  8  1  1
  9 10  2  0
  9  7  1  0
 11 12  2  0
 12  2  1  0
 13  9  1  0
 14 13  1  0
 14 15  1  6
 15 16  1  0
 16 17  1  0
 17 21  1  0
 18 17  2  0
 19 14  1  0
 20 19  2  0
 22 19  1  0
 23 22  1  0
 23 24  1  1
 24 25  1  0
 26 30  1  0
 26 25  1  0
 27 26  2  0
 28 23  1  0
 28 29  1  0
 31 28  2  0
M  END
$$$$
