WWE.pdb
     RDKit          3D

 38 41  0  0  1  0  0  0  0  0999 V2000
    7.9840  -19.1744   20.0325 N   0  0  0  0  0  0  0  0  0  0  0  0
    8.1950  -17.8225   20.5025 C   0  0  1  0  0  0  0  0  0  0  0  0
    6.9114  -16.9906   20.4503 C   0  0  0  0  0  0  0  0  0  0  0  0
    7.2626  -15.6221   20.0073 C   0  0  0  0  0  0  0  0  0  0  0  0
    7.5339  -15.2104   18.7092 C   0  0  0  0  0  0  0  0  0  0  0  0
    7.8064  -13.8795   18.7383 N   0  0  0  0  0  0  0  0  0  0  0  0
    7.7244  -13.4155   19.9805 C   0  0  0  0  0  0  0  0  0  0  0  0
    7.8964  -12.1986   20.5875 C   0  0  0  0  0  0  0  0  0  0  0  0
    7.7346  -12.0575   21.9576 C   0  0  0  0  0  0  0  0  0  0  0  0
    7.3990  -13.1219   22.7524 C   0  0  0  0  0  0  0  0  0  0  0  0
    7.2254  -14.3539   22.1340 C   0  0  0  0  0  0  0  0  0  0  0  0
    7.3836  -14.4972   20.7888 C   0  0  0  0  0  0  0  0  0  0  0  0
    8.5199  -17.9370   21.9575 C   0  0  0  0  0  0  0  0  0  0  0  0
    9.5279  -18.5663   22.3530 O   0  0  0  0  0  0  0  0  0  0  0  0
    7.7156  -17.3509   22.9854 N   0  0  0  0  0  0  0  0  0  0  0  0
    8.3117  -16.5131   23.9950 C   0  0  1  0  0  0  0  0  0  0  0  0
    7.4249  -16.4630   25.2090 C   0  0  0  0  0  0  0  0  0  0  0  0
    7.9594  -15.6372   26.3012 C   0  0  0  0  0  0  0  0  0  0  0  0
    8.7800  -16.1097   27.3120 C   0  0  0  0  0  0  0  0  0  0  0  0
    9.0952  -15.0543   28.0737 N   0  0  0  0  0  0  0  0  0  0  0  0
    8.5210  -13.9364   27.6073 C   0  0  0  0  0  0  0  0  0  0  0  0
    8.5162  -12.6150   28.0168 C   0  0  0  0  0  0  0  0  0  0  0  0
    7.7980  -11.6815   27.3071 C   0  0  0  0  0  0  0  0  0  0  0  0
    7.0692  -12.0080   26.1879 C   0  0  0  0  0  0  0  0  0  0  0  0
    7.0764  -13.3238   25.7849 C   0  0  0  0  0  0  0  0  0  0  0  0
    7.7947  -14.2740   26.4852 C   0  0  0  0  0  0  0  0  0  0  0  0
    9.6260  -17.0873   24.4395 C   0  0  0  0  0  0  0  0  0  0  0  0
    9.6349  -18.3132   24.7139 O   0  0  0  0  0  0  0  0  0  0  0  0
   10.8169  -16.3736   24.5645 N   0  0  0  0  0  0  0  0  0  0  0  0
   12.0761  -17.0567   24.8398 C   0  0  1  0  0  0  0  0  0  0  0  0
   13.1990  -16.4048   24.1245 C   0  0  0  0  0  0  0  0  0  0  0  0
   14.5657  -16.9306   24.3248 C   0  0  0  0  0  0  0  0  0  0  0  0
   15.4605  -16.8160   23.1538 C   0  0  0  0  0  0  0  0  0  0  0  0
   15.1238  -16.0866   22.1985 O   0  0  0  0  0  0  0  0  0  0  0  0
   12.2192  -17.3669   26.2407 C   0  0  0  0  0  0  0  0  0  0  0  0
   12.0178  -16.4229   27.0783 O   0  0  0  0  0  0  0  0  0  0  0  0
   16.6716  -17.5187   23.1143 O   0  0  0  0  0  0  0  0  0  0  0  0
   12.5594  -18.5950   26.7819 O   0  0  0  0  0  0  0  0  0  0  0  0
  2  1  1  1
  3  2  1  0
  4  5  2  0
  4  3  1  0
  6  5  1  0
  7 12  2  0
  7  6  1  0
  8  7  1  0
  9 10  1  0
  9  8  2  0
 10 11  2  0
 11 12  1  0
 12  4  1  0
 13  2  1  0
 14 13  2  0
 15 13  1  0
 16 15  1  0
 16 17  1  1
 18 19  2  0
 18 17  1  0
 20 19  1  0
 21 26  2  0
 21 20  1  0
 22 21  1  0
 23 24  1  0
 23 22  2  0
 24 25  2  0
 25 26  1  0
 26 18  1  0
 27 29  1  0
 27 16  1  0
 28 27  2  0
 30 29  1  0
 30 31  1  1
 31 32  1  0
 32 33  1  0
 33 37  1  0
 34 33  2  0
 35 38  1  0
 35 30  1  0
 36 35  2  0
M  END
$$$$
