WWE.pdb
     RDKit          3D

 38 41  0  0  1  0  0  0  0  0999 V2000
    8.6419  -17.8644   20.5607 N   0  0  0  0  0  0  0  0  0  0  0  0
    9.9300  -17.2590   20.8207 C   0  0  1  0  0  0  0  0  0  0  0  0
   10.0038  -15.8221   20.2988 C   0  0  0  0  0  0  0  0  0  0  0  0
    8.6270  -15.2814   20.2311 C   0  0  0  0  0  0  0  0  0  0  0  0
    7.5155  -15.7428   20.9239 C   0  0  0  0  0  0  0  0  0  0  0  0
    6.4536  -14.9685   20.5791 N   0  0  0  0  0  0  0  0  0  0  0  0
    6.8216  -14.0373   19.7058 C   0  0  0  0  0  0  0  0  0  0  0  0
    6.1956  -13.0212   19.0314 C   0  0  0  0  0  0  0  0  0  0  0  0
    6.8997  -12.2088   18.1554 C   0  0  0  0  0  0  0  0  0  0  0  0
    8.2393  -12.3889   17.9313 C   0  0  0  0  0  0  0  0  0  0  0  0
    8.8707  -13.4197   18.6164 C   0  0  0  0  0  0  0  0  0  0  0  0
    8.1832  -14.2203   19.4774 C   0  0  0  0  0  0  0  0  0  0  0  0
   10.0352  -17.1339   22.3069 C   0  0  0  0  0  0  0  0  0  0  0  0
   11.0811  -16.7147   22.8536 O   0  0  0  0  0  0  0  0  0  0  0  0
    8.9704  -17.4819   23.1969 N   0  0  0  0  0  0  0  0  0  0  0  0
    8.9555  -16.9889   24.5508 C   0  0  1  0  0  0  0  0  0  0  0  0
    7.5362  -16.8321   25.0239 C   0  0  0  0  0  0  0  0  0  0  0  0
    7.3965  -15.9730   26.2084 C   0  0  0  0  0  0  0  0  0  0  0  0
    7.2411  -16.4412   27.5026 C   0  0  0  0  0  0  0  0  0  0  0  0
    7.2041  -15.3640   28.2973 N   0  0  0  0  0  0  0  0  0  0  0  0
    7.3252  -14.2358   27.5834 C   0  0  0  0  0  0  0  0  0  0  0  0
    7.3390  -12.8906   27.9062 C   0  0  0  0  0  0  0  0  0  0  0  0
    7.4728  -11.9500   26.9121 C   0  0  0  0  0  0  0  0  0  0  0  0
    7.5947  -12.2920   25.5860 C   0  0  0  0  0  0  0  0  0  0  0  0
    7.5796  -13.6313   25.2698 C   0  0  0  0  0  0  0  0  0  0  0  0
    7.4483  -14.5894   26.2567 C   0  0  0  0  0  0  0  0  0  0  0  0
    9.6147  -17.9749   25.4718 C   0  0  0  0  0  0  0  0  0  0  0  0
    9.2731  -19.1765   25.3394 O   0  0  0  0  0  0  0  0  0  0  0  0
   10.5638  -17.6610   26.4433 N   0  0  0  0  0  0  0  0  0  0  0  0
   11.4195  -18.6933   27.0180 C   0  0  1  0  0  0  0  0  0  0  0  0
   12.7199  -18.7573   26.3092 C   0  0  0  0  0  0  0  0  0  0  0  0
   13.7293  -19.7338   26.7700 C   0  0  0  0  0  0  0  0  0  0  0  0
   15.0067  -19.7147   26.0263 C   0  0  0  0  0  0  0  0  0  0  0  0
   15.9503  -19.0182   26.4534 O   0  0  0  0  0  0  0  0  0  0  0  0
   11.4043  -18.6571   28.4593 C   0  0  0  0  0  0  0  0  0  0  0  0
   10.8708  -17.6396   29.0191 O   0  0  0  0  0  0  0  0  0  0  0  0
   15.1573  -20.4674   24.8546 O   0  0  0  0  0  0  0  0  0  0  0  0
   11.9162  -19.6194   29.3129 O   0  0  0  0  0  0  0  0  0  0  0  0
  2  1  1  1
  3  2  1  0
  4  5  2  0
  4  3  1  0
  6  5  1  0
  7 12  2  0
  7  6  1  0
  8  7  1  0
  9 10  1  0
  9  8  2  0
 10 11  2  0
 11 12  1  0
 12  4  1  0
 13  2  1  0
 14 13  2  0
 15 13  1  0
 16 15  1  0
 16 17  1  1
 18 19  2  0
 18 17  1  0
 20 19  1  0
 21 26  2  0
 21 20  1  0
 22 21  1  0
 23 24  1  0
 23 22  2  0
 24 25  2  0
 25 26  1  0
 26 18  1  0
 27 29  1  0
 27 16  1  0
 28 27  2  0
 30 29  1  0
 30 31  1  6
 31 32  1  0
 32 33  1  0
 33 37  1  0
 34 33  2  0
 35 38  1  0
 35 30  1  0
 36 35  2  0
M  END
$$$$
