WWE.pdb
     RDKit          3D

 38 41  0  0  1  0  0  0  0  0999 V2000
    7.4180  -17.3990   25.9944 N   0  0  0  0  0  0  0  0  0  0  0  0
    7.8591  -16.4016   25.0437 C   0  0  1  0  0  0  0  0  0  0  0  0
    9.0505  -15.5969   25.5684 C   0  0  0  0  0  0  0  0  0  0  0  0
    8.5424  -14.5802   26.5173 C   0  0  0  0  0  0  0  0  0  0  0  0
    8.7644  -14.5342   27.8873 C   0  0  0  0  0  0  0  0  0  0  0  0
    8.1252  -13.4414   28.3806 N   0  0  0  0  0  0  0  0  0  0  0  0
    7.5074  -12.7846   27.4049 C   0  0  0  0  0  0  0  0  0  0  0  0
    6.7316  -11.6578   27.3174 C   0  0  0  0  0  0  0  0  0  0  0  0
    6.2207  -11.2384   26.0983 C   0  0  0  0  0  0  0  0  0  0  0  0
    6.4697  -11.9294   24.9416 C   0  0  0  0  0  0  0  0  0  0  0  0
    7.2564  -13.0709   25.0338 C   0  0  0  0  0  0  0  0  0  0  0  0
    7.7599  -13.4868   26.2290 C   0  0  0  0  0  0  0  0  0  0  0  0
    8.3933  -17.1578   23.8696 C   0  0  0  0  0  0  0  0  0  0  0  0
    8.3956  -18.4100   23.8467 O   0  0  0  0  0  0  0  0  0  0  0  0
    8.9350  -16.5184   22.7101 N   0  0  0  0  0  0  0  0  0  0  0  0
    9.4564  -17.3000   21.6175 C   0  0  1  0  0  0  0  0  0  0  0  0
    9.3414  -16.5264   20.3326 C   0  0  0  0  0  0  0  0  0  0  0  0
    8.1830  -15.6229   20.2850 C   0  0  0  0  0  0  0  0  0  0  0  0
    6.9351  -15.9198   20.8077 C   0  0  0  0  0  0  0  0  0  0  0  0
    6.1730  -14.8352   20.6180 N   0  0  0  0  0  0  0  0  0  0  0  0
    6.8631  -13.8645   20.0025 C   0  0  0  0  0  0  0  0  0  0  0  0
    6.5524  -12.5853   19.5774 C   0  0  0  0  0  0  0  0  0  0  0  0
    7.5086  -11.8219   18.9498 C   0  0  0  0  0  0  0  0  0  0  0  0
    8.7839  -12.2814   18.7199 C   0  0  0  0  0  0  0  0  0  0  0  0
    9.0879  -13.5549   19.1439 C   0  0  0  0  0  0  0  0  0  0  0  0
    8.1396  -14.3343   19.7782 C   0  0  0  0  0  0  0  0  0  0  0  0
   10.9165  -17.5804   21.8275 C   0  0  0  0  0  0  0  0  0  0  0  0
   11.4475  -18.3972   21.0343 O   0  0  0  0  0  0  0  0  0  0  0  0
   11.7133  -17.0084   22.8181 N   0  0  0  0  0  0  0  0  0  0  0  0
   13.1257  -17.3532   22.9376 C   0  0  1  0  0  0  0  0  0  0  0  0
   13.9756  -16.3429   22.2634 C   0  0  0  0  0  0  0  0  0  0  0  0
   13.9242  -16.2451   20.7895 C   0  0  0  0  0  0  0  0  0  0  0  0
   15.1056  -15.6180   20.1602 C   0  0  0  0  0  0  0  0  0  0  0  0
   15.1858  -14.3731   20.1194 O   0  0  0  0  0  0  0  0  0  0  0  0
   13.4604  -17.7751   24.2751 C   0  0  0  0  0  0  0  0  0  0  0  0
   14.6697  -18.1222   24.4998 O   0  0  0  0  0  0  0  0  0  0  0  0
   16.1232  -16.4103   19.6137 O   0  0  0  0  0  0  0  0  0  0  0  0
   12.5982  -17.8481   25.3559 O   0  0  0  0  0  0  0  0  0  0  0  0
  2  1  1  1
  3  2  1  0
  4  5  2  0
  4  3  1  0
  6  5  1  0
  7 12  2  0
  7  6  1  0
  8  7  1  0
  9 10  1  0
  9  8  2  0
 10 11  2  0
 11 12  1  0
 12  4  1  0
 13  2  1  0
 14 13  2  0
 15 13  1  0
 16 15  1  0
 16 17  1  6
 18 19  2  0
 18 17  1  0
 20 19  1  0
 21 26  2  0
 21 20  1  0
 22 21  1  0
 23 24  1  0
 23 22  2  0
 24 25  2  0
 25 26  1  0
 26 18  1  0
 27 29  1  0
 27 16  1  0
 28 27  2  0
 30 29  1  0
 30 31  1  1
 31 32  1  0
 32 33  1  0
 33 37  1  0
 34 33  2  0
 35 38  1  0
 35 30  1  0
 36 35  2  0
M  END
$$$$
