WWE.pdb
     RDKit          3D

 38 41  0  0  1  0  0  0  0  0999 V2000
    6.1210  -19.1743   24.4829 N   0  0  0  0  0  0  0  0  0  0  0  0
    6.5789  -19.5226   23.1554 C   0  0  1  0  0  0  0  0  0  0  0  0
    5.4188  -19.8880   22.2265 C   0  0  0  0  0  0  0  0  0  0  0  0
    4.6322  -20.9661   22.8679 C   0  0  0  0  0  0  0  0  0  0  0  0
    3.5345  -21.6276   22.3334 C   0  0  0  0  0  0  0  0  0  0  0  0
    3.1122  -22.5447   23.2428 N   0  0  0  0  0  0  0  0  0  0  0  0
    3.8771  -22.5087   24.3284 C   0  0  0  0  0  0  0  0  0  0  0  0
    3.9161  -23.1767   25.5249 C   0  0  0  0  0  0  0  0  0  0  0  0
    4.8790  -22.8765   26.4765 C   0  0  0  0  0  0  0  0  0  0  0  0
    5.8225  -21.9069   26.2596 C   0  0  0  0  0  0  0  0  0  0  0  0
    5.7802  -21.2318   25.0460 C   0  0  0  0  0  0  0  0  0  0  0  0
    4.8361  -21.5230   24.1085 C   0  0  0  0  0  0  0  0  0  0  0  0
    7.1558  -18.2708   22.5758 C   0  0  0  0  0  0  0  0  0  0  0  0
    7.3383  -18.1469   21.3430 O   0  0  0  0  0  0  0  0  0  0  0  0
    7.5387  -17.1459   23.3726 N   0  0  0  0  0  0  0  0  0  0  0  0
    8.4584  -16.1625   22.8593 C   0  0  1  0  0  0  0  0  0  0  0  0
    7.9204  -14.7794   23.1053 C   0  0  0  0  0  0  0  0  0  0  0  0
    7.1971  -14.6411   24.3773 C   0  0  0  0  0  0  0  0  0  0  0  0
    6.4345  -15.6409   24.9584 C   0  0  0  0  0  0  0  0  0  0  0  0
    5.9877  -15.1533   26.1228 N   0  0  0  0  0  0  0  0  0  0  0  0
    6.4204  -13.8993   26.3165 C   0  0  0  0  0  0  0  0  0  0  0  0
    6.2445  -12.9661   27.3225 C   0  0  0  0  0  0  0  0  0  0  0  0
    6.8303  -11.7266   27.2158 C   0  0  0  0  0  0  0  0  0  0  0  0
    7.5968  -11.3649   26.1332 C   0  0  0  0  0  0  0  0  0  0  0  0
    7.7682  -12.2963   25.1346 C   0  0  0  0  0  0  0  0  0  0  0  0
    7.1885  -13.5472   25.2273 C   0  0  0  0  0  0  0  0  0  0  0  0
    9.7730  -16.2525   23.5792 C   0  0  0  0  0  0  0  0  0  0  0  0
    9.7797  -16.9123   24.6482 O   0  0  0  0  0  0  0  0  0  0  0  0
   10.9666  -15.6709   23.1544 N   0  0  0  0  0  0  0  0  0  0  0  0
   12.2218  -16.4127   23.2021 C   0  0  1  0  0  0  0  0  0  0  0  0
   13.1532  -15.9446   22.1481 C   0  0  0  0  0  0  0  0  0  0  0  0
   14.4650  -16.6127   22.0157 C   0  0  0  0  0  0  0  0  0  0  0  0
   15.3269  -16.0947   20.9323 C   0  0  0  0  0  0  0  0  0  0  0  0
   16.2388  -15.2893   21.2110 O   0  0  0  0  0  0  0  0  0  0  0  0
   12.7038  -16.5589   24.5532 C   0  0  0  0  0  0  0  0  0  0  0  0
   12.3265  -15.6910   25.4121 O   0  0  0  0  0  0  0  0  0  0  0  0
   15.1227  -16.5006   19.6072 O   0  0  0  0  0  0  0  0  0  0  0  0
   13.5459  -17.5516   25.0244 O   0  0  0  0  0  0  0  0  0  0  0  0
  2  1  1  1
  3  2  1  0
  4  5  2  0
  4  3  1  0
  6  5  1  0
  7 12  2  0
  7  6  1  0
  8  7  1  0
  9 10  1  0
  9  8  2  0
 10 11  2  0
 11 12  1  0
 12  4  1  0
 13  2  1  0
 14 13  2  0
 15 13  1  0
 16 15  1  0
 16 17  1  1
 18 19  2  0
 18 17  1  0
 20 19  1  0
 21 26  2  0
 21 20  1  0
 22 21  1  0
 23 24  1  0
 23 22  2  0
 24 25  2  0
 25 26  1  0
 26 18  1  0
 27 29  1  0
 27 16  1  0
 28 27  2  0
 30 29  1  0
 30 31  1  6
 31 32  1  0
 32 33  1  0
 33 37  1  0
 34 33  2  0
 35 38  1  0
 35 30  1  0
 36 35  2  0
M  END
$$$$
