WWE.pdb
     RDKit          3D

 38 41  0  0  1  0  0  0  0  0999 V2000
    8.8165  -18.1872   21.4876 N   0  0  0  0  0  0  0  0  0  0  0  0
    8.3507  -16.8183   21.4393 C   0  0  1  0  0  0  0  0  0  0  0  0
    7.0938  -16.6706   20.5785 C   0  0  0  0  0  0  0  0  0  0  0  0
    7.3503  -15.6300   19.5569 C   0  0  0  0  0  0  0  0  0  0  0  0
    7.4583  -15.8176   18.1852 C   0  0  0  0  0  0  0  0  0  0  0  0
    7.6920  -14.6079   17.6123 N   0  0  0  0  0  0  0  0  0  0  0  0
    7.7391  -13.6565   18.5385 C   0  0  0  0  0  0  0  0  0  0  0  0
    7.9427  -12.3009   18.5443 C   0  0  0  0  0  0  0  0  0  0  0  0
    7.9350  -11.5852   19.7321 C   0  0  0  0  0  0  0  0  0  0  0  0
    7.7251  -12.2011   20.9380 C   0  0  0  0  0  0  0  0  0  0  0  0
    7.5191  -13.5751   20.9285 C   0  0  0  0  0  0  0  0  0  0  0  0
    7.5262  -14.2821   19.7644 C   0  0  0  0  0  0  0  0  0  0  0  0
    7.9073  -16.4836   22.8275 C   0  0  0  0  0  0  0  0  0  0  0  0
    6.8515  -15.8437   23.0383 O   0  0  0  0  0  0  0  0  0  0  0  0
    8.6452  -16.8586   23.9944 N   0  0  0  0  0  0  0  0  0  0  0  0
    9.4658  -15.8958   24.6842 C   0  0  1  0  0  0  0  0  0  0  0  0
    8.9740  -15.7197   26.0949 C   0  0  0  0  0  0  0  0  0  0  0  0
    7.7028  -14.9887   26.1938 C   0  0  0  0  0  0  0  0  0  0  0  0
    6.4530  -15.5858   26.1959 C   0  0  0  0  0  0  0  0  0  0  0  0
    5.5590  -14.6016   26.3549 N   0  0  0  0  0  0  0  0  0  0  0  0
    6.1673  -13.4109   26.4524 C   0  0  0  0  0  0  0  0  0  0  0  0
    5.7184  -12.1122   26.6120 C   0  0  0  0  0  0  0  0  0  0  0  0
    6.6228  -11.0778   26.6674 C   0  0  0  0  0  0  0  0  0  0  0  0
    7.9792  -11.2792   26.5681 C   0  0  0  0  0  0  0  0  0  0  0  0
    8.4209  -12.5729   26.4086 C   0  0  0  0  0  0  0  0  0  0  0  0
    7.5257  -13.6240   26.3535 C   0  0  0  0  0  0  0  0  0  0  0  0
   10.8816  -16.3875   24.7751 C   0  0  0  0  0  0  0  0  0  0  0  0
   11.3134  -16.6345   25.9287 O   0  0  0  0  0  0  0  0  0  0  0  0
   11.7361  -16.5900   23.6924 N   0  0  0  0  0  0  0  0  0  0  0  0
   13.0881  -17.1014   23.8886 C   0  0  1  0  0  0  0  0  0  0  0  0
   13.0617  -18.4223   24.5610 C   0  0  0  0  0  0  0  0  0  0  0  0
   12.4424  -19.5634   23.8545 C   0  0  0  0  0  0  0  0  0  0  0  0
   12.6205  -20.8775   24.5074 C   0  0  0  0  0  0  0  0  0  0  0  0
   12.0810  -21.8853   24.0062 O   0  0  0  0  0  0  0  0  0  0  0  0
   13.9003  -16.9276   22.7099 C   0  0  0  0  0  0  0  0  0  0  0  0
   13.3216  -16.5080   21.6505 O   0  0  0  0  0  0  0  0  0  0  0  0
   13.3839  -20.9919   25.6763 O   0  0  0  0  0  0  0  0  0  0  0  0
   15.2584  -17.1733   22.6018 O   0  0  0  0  0  0  0  0  0  0  0  0
  2  1  1  1
  3  2  1  0
  4  5  2  0
  4  3  1  0
  6  5  1  0
  7 12  2  0
  7  6  1  0
  8  7  1  0
  9 10  1  0
  9  8  2  0
 10 11  2  0
 11 12  1  0
 12  4  1  0
 13  2  1  0
 14 13  2  0
 15 13  1  0
 16 15  1  0
 16 17  1  1
 18 19  2  0
 18 17  1  0
 20 19  1  0
 21 26  2  0
 21 20  1  0
 22 21  1  0
 23 24  1  0
 23 22  2  0
 24 25  2  0
 25 26  1  0
 26 18  1  0
 27 29  1  0
 27 16  1  0
 28 27  2  0
 30 29  1  0
 30 31  1  6
 31 32  1  0
 32 33  1  0
 33 37  1  0
 34 33  2  0
 35 38  1  0
 35 30  1  0
 36 35  2  0
M  END
$$$$
