WWE.pdb
     RDKit          3D

 38 41  0  0  1  0  0  0  0  0999 V2000
    8.3656  -16.8652   21.6768 N   0  0  0  0  0  0  0  0  0  0  0  0
    9.0017  -15.5980   21.9644 C   0  0  1  0  0  0  0  0  0  0  0  0
    8.0200  -14.4282   21.8645 C   0  0  0  0  0  0  0  0  0  0  0  0
    7.7244  -14.1909   20.4331 C   0  0  0  0  0  0  0  0  0  0  0  0
    6.5020  -14.3578   19.7959 C   0  0  0  0  0  0  0  0  0  0  0  0
    6.6617  -14.0297   18.4870 N   0  0  0  0  0  0  0  0  0  0  0  0
    7.9161  -13.6617   18.2500 C   0  0  0  0  0  0  0  0  0  0  0  0
    8.6276  -13.2477   17.1538 C   0  0  0  0  0  0  0  0  0  0  0  0
    9.9751  -12.9366   17.2560 C   0  0  0  0  0  0  0  0  0  0  0  0
   10.6434  -13.0305   18.4485 C   0  0  0  0  0  0  0  0  0  0  0  0
    9.9193  -13.4503   19.5574 C   0  0  0  0  0  0  0  0  0  0  0  0
    8.5958  -13.7573   19.4618 C   0  0  0  0  0  0  0  0  0  0  0  0
    9.3925  -15.6498   23.4067 C   0  0  0  0  0  0  0  0  0  0  0  0
   10.0011  -14.7007   23.9518 O   0  0  0  0  0  0  0  0  0  0  0  0
    9.1092  -16.7684   24.2525 N   0  0  0  0  0  0  0  0  0  0  0  0
    9.5394  -16.7756   25.6277 C   0  0  1  0  0  0  0  0  0  0  0  0
    8.3439  -16.7289   26.5394 C   0  0  0  0  0  0  0  0  0  0  0  0
    7.4318  -15.6092   26.2660 C   0  0  0  0  0  0  0  0  0  0  0  0
    6.1293  -15.7507   25.8167 C   0  0  0  0  0  0  0  0  0  0  0  0
    5.6145  -14.5167   25.7411 N   0  0  0  0  0  0  0  0  0  0  0  0
    6.5150  -13.5966   26.1148 C   0  0  0  0  0  0  0  0  0  0  0  0
    6.4976  -12.2164   26.2075 C   0  0  0  0  0  0  0  0  0  0  0  0
    7.6216  -11.5449   26.6278 C   0  0  0  0  0  0  0  0  0  0  0  0
    8.7850  -12.1951   26.9654 C   0  0  0  0  0  0  0  0  0  0  0  0
    8.7977  -13.5680   26.8707 C   0  0  0  0  0  0  0  0  0  0  0  0
    7.6763  -14.2584   26.4525 C   0  0  0  0  0  0  0  0  0  0  0  0
   10.2735  -18.0483   25.9375 C   0  0  0  0  0  0  0  0  0  0  0  0
    9.7190  -19.1150   25.5732 O   0  0  0  0  0  0  0  0  0  0  0  0
   11.5052  -18.1318   26.5852 N   0  0  0  0  0  0  0  0  0  0  0  0
   12.1510  -19.4209   26.8066 C   0  0  1  0  0  0  0  0  0  0  0  0
   13.3282  -19.5819   25.9201 C   0  0  0  0  0  0  0  0  0  0  0  0
   14.6686  -19.2729   26.4610 C   0  0  0  0  0  0  0  0  0  0  0  0
   15.6108  -18.6676   25.4961 C   0  0  0  0  0  0  0  0  0  0  0  0
   16.7606  -19.1410   25.3880 O   0  0  0  0  0  0  0  0  0  0  0  0
   12.2820  -19.7174   28.2116 C   0  0  0  0  0  0  0  0  0  0  0  0
   11.9285  -18.8123   29.0417 O   0  0  0  0  0  0  0  0  0  0  0  0
   15.2198  -17.5741   24.7128 O   0  0  0  0  0  0  0  0  0  0  0  0
   12.7595  -20.8935   28.7643 O   0  0  0  0  0  0  0  0  0  0  0  0
  2  1  1  1
  3  2  1  0
  4  5  2  0
  4  3  1  0
  6  5  1  0
  7 12  2  0
  7  6  1  0
  8  7  1  0
  9 10  1  0
  9  8  2  0
 10 11  2  0
 11 12  1  0
 12  4  1  0
 13  2  1  0
 14 13  2  0
 15 13  1  0
 16 15  1  0
 16 17  1  1
 18 19  2  0
 18 17  1  0
 20 19  1  0
 21 26  2  0
 21 20  1  0
 22 21  1  0
 23 24  1  0
 23 22  2  0
 24 25  2  0
 25 26  1  0
 26 18  1  0
 27 29  1  0
 27 16  1  0
 28 27  2  0
 30 29  1  0
 30 31  1  1
 31 32  1  0
 32 33  1  0
 33 37  1  0
 34 33  2  0
 35 38  1  0
 35 30  1  0
 36 35  2  0
M  END
$$$$
