WWE.pdb
     RDKit          3D

 38 41  0  0  1  0  0  0  0  0999 V2000
    8.3898  -16.3587   21.1050 N   0  0  0  0  0  0  0  0  0  0  0  0
    9.2762  -15.2628   21.4311 C   0  0  1  0  0  0  0  0  0  0  0  0
    8.6291  -13.9024   21.1607 C   0  0  0  0  0  0  0  0  0  0  0  0
    8.5791  -13.6949   19.6955 C   0  0  0  0  0  0  0  0  0  0  0  0
    7.4467  -13.4703   18.9238 C   0  0  0  0  0  0  0  0  0  0  0  0
    7.8399  -13.3293   17.6308 N   0  0  0  0  0  0  0  0  0  0  0  0
    9.1592  -13.4500   17.5307 C   0  0  0  0  0  0  0  0  0  0  0  0
   10.0747  -13.4067   16.5113 C   0  0  0  0  0  0  0  0  0  0  0  0
   11.4270  -13.5855   16.7611 C   0  0  0  0  0  0  0  0  0  0  0  0
   11.8975  -13.8110   18.0281 C   0  0  0  0  0  0  0  0  0  0  0  0
   10.9670  -13.8543   19.0589 C   0  0  0  0  0  0  0  0  0  0  0  0
    9.6379  -13.6796   18.8182 C   0  0  0  0  0  0  0  0  0  0  0  0
    9.4646  -15.3109   22.9136 C   0  0  0  0  0  0  0  0  0  0  0  0
   10.0745  -14.4027   23.5232 O   0  0  0  0  0  0  0  0  0  0  0  0
    8.9752  -16.3803   23.7283 N   0  0  0  0  0  0  0  0  0  0  0  0
    9.3593  -16.4821   25.1134 C   0  0  1  0  0  0  0  0  0  0  0  0
    8.1371  -16.6540   25.9733 C   0  0  0  0  0  0  0  0  0  0  0  0
    7.2305  -15.4973   25.9550 C   0  0  0  0  0  0  0  0  0  0  0  0
    5.8792  -15.5649   25.6583 C   0  0  0  0  0  0  0  0  0  0  0  0
    5.3942  -14.3246   25.7990 N   0  0  0  0  0  0  0  0  0  0  0  0
    6.3593  -13.4699   26.1666 C   0  0  0  0  0  0  0  0  0  0  0  0
    6.3924  -12.1120   26.4286 C   0  0  0  0  0  0  0  0  0  0  0  0
    7.5780  -11.5126   26.7838 C   0  0  0  0  0  0  0  0  0  0  0  0
    8.7552  -12.2148   26.8912 C   0  0  0  0  0  0  0  0  0  0  0  0
    8.7173  -13.5652   26.6288 C   0  0  0  0  0  0  0  0  0  0  0  0
    7.5340  -14.1836   26.2730 C   0  0  0  0  0  0  0  0  0  0  0  0
   10.2171  -17.6956   25.3286 C   0  0  0  0  0  0  0  0  0  0  0  0
    9.7780  -18.7781   24.8665 O   0  0  0  0  0  0  0  0  0  0  0  0
   11.4448  -17.7086   25.9888 N   0  0  0  0  0  0  0  0  0  0  0  0
   12.1952  -18.9486   26.1539 C   0  0  1  0  0  0  0  0  0  0  0  0
   13.5999  -18.7798   25.7115 C   0  0  0  0  0  0  0  0  0  0  0  0
   14.5265  -19.9233   25.8467 C   0  0  0  0  0  0  0  0  0  0  0  0
   15.9002  -19.6796   25.3583 C   0  0  0  0  0  0  0  0  0  0  0  0
   16.3013  -20.2813   24.3410 O   0  0  0  0  0  0  0  0  0  0  0  0
   11.9281  -19.5679   27.4284 C   0  0  0  0  0  0  0  0  0  0  0  0
   12.3792  -18.9869   28.4734 O   0  0  0  0  0  0  0  0  0  0  0  0
   16.7441  -18.7854   26.0295 O   0  0  0  0  0  0  0  0  0  0  0  0
   11.2279  -20.7428   27.6427 O   0  0  0  0  0  0  0  0  0  0  0  0
  2  1  1  1
  3  2  1  0
  4  5  2  0
  4  3  1  0
  6  5  1  0
  7 12  2  0
  7  6  1  0
  8  7  1  0
  9 10  1  0
  9  8  2  0
 10 11  2  0
 11 12  1  0
 12  4  1  0
 13  2  1  0
 14 13  2  0
 15 13  1  0
 16 15  1  0
 16 17  1  1
 18 19  2  0
 18 17  1  0
 20 19  1  0
 21 26  2  0
 21 20  1  0
 22 21  1  0
 23 24  1  0
 23 22  2  0
 24 25  2  0
 25 26  1  0
 26 18  1  0
 27 29  1  0
 27 16  1  0
 28 27  2  0
 30 29  1  0
 30 31  1  1
 31 32  1  0
 32 33  1  0
 33 37  1  0
 34 33  2  0
 35 38  1  0
 35 30  1  0
 36 35  2  0
M  END
$$$$
