WWE.pdb
     RDKit          3D

 38 41  0  0  1  0  0  0  0  0999 V2000
    8.4876  -17.4680   20.0625 N   0  0  0  0  0  0  0  0  0  0  0  0
    9.0279  -18.3230   21.0969 C   0  0  1  0  0  0  0  0  0  0  0  0
   10.3937  -18.8961   20.7114 C   0  0  0  0  0  0  0  0  0  0  0  0
   10.1979  -19.8559   19.6011 C   0  0  0  0  0  0  0  0  0  0  0  0
   10.5299  -19.6651   18.2663 C   0  0  0  0  0  0  0  0  0  0  0  0
   10.1883  -20.7888   17.5830 N   0  0  0  0  0  0  0  0  0  0  0  0
    9.6573  -21.6884   18.4040 C   0  0  0  0  0  0  0  0  0  0  0  0
    9.1455  -22.9536   18.2758 C   0  0  0  0  0  0  0  0  0  0  0  0
    8.6472  -23.6345   19.3763 C   0  0  0  0  0  0  0  0  0  0  0  0
    8.6470  -23.0730   20.6262 C   0  0  0  0  0  0  0  0  0  0  0  0
    9.1665  -21.7906   20.7525 C   0  0  0  0  0  0  0  0  0  0  0  0
    9.6566  -21.1178   19.6745 C   0  0  0  0  0  0  0  0  0  0  0  0
    9.3008  -17.4335   22.2674 C   0  0  0  0  0  0  0  0  0  0  0  0
    9.9371  -16.3625   22.1381 O   0  0  0  0  0  0  0  0  0  0  0  0
    8.8672  -17.7372   23.5965 N   0  0  0  0  0  0  0  0  0  0  0  0
    9.1354  -16.8275   24.6814 C   0  0  1  0  0  0  0  0  0  0  0  0
    7.8954  -16.6400   25.5120 C   0  0  0  0  0  0  0  0  0  0  0  0
    7.1806  -15.3855   25.2373 C   0  0  0  0  0  0  0  0  0  0  0  0
    6.1005  -15.2705   24.3778 C   0  0  0  0  0  0  0  0  0  0  0  0
    5.6979  -13.9948   24.4379 N   0  0  0  0  0  0  0  0  0  0  0  0
    6.4606  -13.2895   25.2851 C   0  0  0  0  0  0  0  0  0  0  0  0
    6.4756  -11.9675   25.6923 C   0  0  0  0  0  0  0  0  0  0  0  0
    7.4216  -11.5402   26.5943 C   0  0  0  0  0  0  0  0  0  0  0  0
    8.3725  -12.3831   27.1192 C   0  0  0  0  0  0  0  0  0  0  0  0
    8.3541  -13.6971   26.7105 C   0  0  0  0  0  0  0  0  0  0  0  0
    7.4089  -14.1434   25.8067 C   0  0  0  0  0  0  0  0  0  0  0  0
   10.1864  -17.3962   25.5906 C   0  0  0  0  0  0  0  0  0  0  0  0
   10.0766  -18.6144   25.8770 O   0  0  0  0  0  0  0  0  0  0  0  0
   11.2583  -16.6852   26.1282 N   0  0  0  0  0  0  0  0  0  0  0  0
   12.2937  -17.3601   26.9030 C   0  0  1  0  0  0  0  0  0  0  0  0
   13.6376  -16.8384   26.5574 C   0  0  0  0  0  0  0  0  0  0  0  0
   14.2436  -17.2416   25.2710 C   0  0  0  0  0  0  0  0  0  0  0  0
   15.3401  -16.3727   24.7938 C   0  0  0  0  0  0  0  0  0  0  0  0
   15.0625  -15.3270   24.1714 O   0  0  0  0  0  0  0  0  0  0  0  0
   11.9236  -17.4876   28.2907 C   0  0  0  0  0  0  0  0  0  0  0  0
   10.9087  -16.8241   28.6947 O   0  0  0  0  0  0  0  0  0  0  0  0
   16.6760  -16.7184   25.0349 O   0  0  0  0  0  0  0  0  0  0  0  0
   12.5614  -18.2608   29.2457 O   0  0  0  0  0  0  0  0  0  0  0  0
  2  1  1  6
  3  2  1  0
  4  5  2  0
  4  3  1  0
  6  5  1  0
  7 12  2  0
  7  6  1  0
  8  7  1  0
  9 10  1  0
  9  8  2  0
 10 11  2  0
 11 12  1  0
 12  4  1  0
 13  2  1  0
 14 13  2  0
 15 13  1  0
 16 15  1  0
 16 17  1  1
 18 19  2  0
 18 17  1  0
 20 19  1  0
 21 26  2  0
 21 20  1  0
 22 21  1  0
 23 24  1  0
 23 22  2  0
 24 25  2  0
 25 26  1  0
 26 18  1  0
 27 29  1  0
 27 16  1  0
 28 27  2  0
 30 29  1  0
 30 31  1  1
 31 32  1  0
 32 33  1  0
 33 37  1  0
 34 33  2  0
 35 38  1  0
 35 30  1  0
 36 35  2  0
M  END
$$$$
