WWE.pdb
     RDKit          3D

 38 41  0  0  1  0  0  0  0  0999 V2000
    7.9014  -19.4611   27.1548 N   0  0  0  0  0  0  0  0  0  0  0  0
    8.2150  -18.1451   26.6420 C   0  0  1  0  0  0  0  0  0  0  0  0
    9.7169  -17.8545   26.6894 C   0  0  0  0  0  0  0  0  0  0  0  0
    9.9636  -16.8584   27.7568 C   0  0  0  0  0  0  0  0  0  0  0  0
   10.4797  -17.1036   29.0224 C   0  0  0  0  0  0  0  0  0  0  0  0
   10.5483  -15.9196   29.6854 N   0  0  0  0  0  0  0  0  0  0  0  0
   10.1063  -14.9303   28.9167 C   0  0  0  0  0  0  0  0  0  0  0  0
    9.9443  -13.5762   29.0553 C   0  0  0  0  0  0  0  0  0  0  0  0
    9.4300  -12.8112   28.0193 C   0  0  0  0  0  0  0  0  0  0  0  0
    9.0659  -13.3754   26.8249 C   0  0  0  0  0  0  0  0  0  0  0  0
    9.2314  -14.7480   26.6877 C   0  0  0  0  0  0  0  0  0  0  0  0
    9.7358  -15.5034   27.7026 C   0  0  0  0  0  0  0  0  0  0  0  0
    7.8755  -18.1773   25.1862 C   0  0  0  0  0  0  0  0  0  0  0  0
    8.2131  -19.1394   24.4590 O   0  0  0  0  0  0  0  0  0  0  0  0
    7.1576  -17.1288   24.5287 N   0  0  0  0  0  0  0  0  0  0  0  0
    7.4061  -16.8277   23.1416 C   0  0  1  0  0  0  0  0  0  0  0  0
    6.4568  -15.7601   22.6705 C   0  0  0  0  0  0  0  0  0  0  0  0
    6.6298  -15.3930   21.2578 C   0  0  0  0  0  0  0  0  0  0  0  0
    6.2327  -16.1795   20.1890 C   0  0  0  0  0  0  0  0  0  0  0  0
    6.5089  -15.4837   19.0786 N   0  0  0  0  0  0  0  0  0  0  0  0
    7.0611  -14.2995   19.3784 C   0  0  0  0  0  0  0  0  0  0  0  0
    7.5278  -13.2378   18.6242 C   0  0  0  0  0  0  0  0  0  0  0  0
    8.0632  -12.1369   19.2505 C   0  0  0  0  0  0  0  0  0  0  0  0
    8.1588  -12.0418   20.6188 C   0  0  0  0  0  0  0  0  0  0  0  0
    7.6939  -13.1008   21.3647 C   0  0  0  0  0  0  0  0  0  0  0  0
    7.1509  -14.2135   20.7514 C   0  0  0  0  0  0  0  0  0  0  0  0
    8.7946  -16.2832   22.9671 C   0  0  0  0  0  0  0  0  0  0  0  0
    9.3491  -15.8281   23.9985 O   0  0  0  0  0  0  0  0  0  0  0  0
    9.5026  -16.2494   21.7668 N   0  0  0  0  0  0  0  0  0  0  0  0
   10.9598  -16.3156   21.7527 C   0  0  1  0  0  0  0  0  0  0  0  0
   11.4505  -17.3675   22.6748 C   0  0  0  0  0  0  0  0  0  0  0  0
   12.8813  -17.7355   22.6310 C   0  0  0  0  0  0  0  0  0  0  0  0
   13.2887  -18.7874   23.5862 C   0  0  0  0  0  0  0  0  0  0  0  0
   13.8513  -18.4593   24.6510 O   0  0  0  0  0  0  0  0  0  0  0  0
   11.4835  -16.2558   20.4106 C   0  0  0  0  0  0  0  0  0  0  0  0
   10.9253  -16.9897   19.5256 O   0  0  0  0  0  0  0  0  0  0  0  0
   13.0486  -20.1375   23.3003 O   0  0  0  0  0  0  0  0  0  0  0  0
   12.5432  -15.4795   19.9736 O   0  0  0  0  0  0  0  0  0  0  0  0
  2  1  1  6
  3  2  1  0
  4  5  2  0
  4  3  1  0
  6  5  1  0
  7 12  2  0
  7  6  1  0
  8  7  1  0
  9 10  1  0
  9  8  2  0
 10 11  2  0
 11 12  1  0
 12  4  1  0
 13  2  1  0
 14 13  2  0
 15 13  1  0
 16 15  1  0
 16 17  1  1
 18 19  2  0
 18 17  1  0
 20 19  1  0
 21 26  2  0
 21 20  1  0
 22 21  1  0
 23 24  1  0
 23 22  2  0
 24 25  2  0
 25 26  1  0
 26 18  1  0
 27 29  1  0
 27 16  1  0
 28 27  2  0
 30 29  1  0
 30 31  1  6
 31 32  1  0
 32 33  1  0
 33 37  1  0
 34 33  2  0
 35 38  1  0
 35 30  1  0
 36 35  2  0
M  END
$$$$
