WWE.pdb
     RDKit          3D

 38 41  0  0  1  0  0  0  0  0999 V2000
    8.0192  -16.2379   22.5634 N   0  0  0  0  0  0  0  0  0  0  0  0
    9.1343  -17.0830   22.1953 C   0  0  1  0  0  0  0  0  0  0  0  0
    9.6539  -16.7668   20.7909 C   0  0  0  0  0  0  0  0  0  0  0  0
    9.5534  -15.3051   20.5768 C   0  0  0  0  0  0  0  0  0  0  0  0
   10.5987  -14.4256   20.3278 C   0  0  0  0  0  0  0  0  0  0  0  0
   10.0758  -13.1792   20.1891 N   0  0  0  0  0  0  0  0  0  0  0  0
    8.7555  -13.2104   20.3343 C   0  0  0  0  0  0  0  0  0  0  0  0
    7.7421  -12.2878   20.3042 C   0  0  0  0  0  0  0  0  0  0  0  0
    6.4251  -12.6703   20.5095 C   0  0  0  0  0  0  0  0  0  0  0  0
    6.0877  -13.9766   20.7488 C   0  0  0  0  0  0  0  0  0  0  0  0
    7.1172  -14.9092   20.7786 C   0  0  0  0  0  0  0  0  0  0  0  0
    8.4122  -14.5380   20.5779 C   0  0  0  0  0  0  0  0  0  0  0  0
   10.2550  -16.7109   23.1126 C   0  0  0  0  0  0  0  0  0  0  0  0
   11.4000  -17.1992   22.9747 O   0  0  0  0  0  0  0  0  0  0  0  0
   10.1030  -15.7906   24.1974 N   0  0  0  0  0  0  0  0  0  0  0  0
    9.7236  -16.2568   25.5070 C   0  0  1  0  0  0  0  0  0  0  0  0
    8.2753  -16.6634   25.5071 C   0  0  0  0  0  0  0  0  0  0  0  0
    7.3415  -15.5341   25.6213 C   0  0  0  0  0  0  0  0  0  0  0  0
    5.9673  -15.6357   25.4800 C   0  0  0  0  0  0  0  0  0  0  0  0
    5.4682  -14.4137   25.7059 N   0  0  0  0  0  0  0  0  0  0  0  0
    6.4457  -13.5386   25.9812 C   0  0  0  0  0  0  0  0  0  0  0  0
    6.4719  -12.1862   26.2711 C   0  0  0  0  0  0  0  0  0  0  0  0
    7.6737  -11.5594   26.5026 C   0  0  0  0  0  0  0  0  0  0  0  0
    8.8741  -12.2282   26.4570 C   0  0  0  0  0  0  0  0  0  0  0  0
    8.8430  -13.5733   26.1675 C   0  0  0  0  0  0  0  0  0  0  0  0
    7.6438  -14.2190   25.9347 C   0  0  0  0  0  0  0  0  0  0  0  0
   10.5179  -17.4763   25.8765 C   0  0  0  0  0  0  0  0  0  0  0  0
    9.9010  -18.3766   26.4988 O   0  0  0  0  0  0  0  0  0  0  0  0
   11.8650  -17.6811   25.5820 N   0  0  0  0  0  0  0  0  0  0  0  0
   12.5469  -18.9023   25.9966 C   0  0  1  0  0  0  0  0  0  0  0  0
   13.7033  -19.1880   25.1142 C   0  0  0  0  0  0  0  0  0  0  0  0
   14.9788  -18.4864   25.3702 C   0  0  0  0  0  0  0  0  0  0  0  0
   16.0592  -18.7752   24.4036 C   0  0  0  0  0  0  0  0  0  0  0  0
   16.8030  -19.7588   24.5966 O   0  0  0  0  0  0  0  0  0  0  0  0
   12.7225  -18.9557   27.4268 C   0  0  0  0  0  0  0  0  0  0  0  0
   12.4711  -17.8943   28.0927 O   0  0  0  0  0  0  0  0  0  0  0  0
   16.2487  -17.9543   23.2845 O   0  0  0  0  0  0  0  0  0  0  0  0
   13.1432  -20.0488   28.1648 O   0  0  0  0  0  0  0  0  0  0  0  0
  2  1  1  1
  3  2  1  0
  4  5  2  0
  4  3  1  0
  6  5  1  0
  7 12  2  0
  7  6  1  0
  8  7  1  0
  9 10  1  0
  9  8  2  0
 10 11  2  0
 11 12  1  0
 12  4  1  0
 13  2  1  0
 14 13  2  0
 15 13  1  0
 16 15  1  0
 16 17  1  6
 18 19  2  0
 18 17  1  0
 20 19  1  0
 21 26  2  0
 21 20  1  0
 22 21  1  0
 23 24  1  0
 23 22  2  0
 24 25  2  0
 25 26  1  0
 26 18  1  0
 27 29  1  0
 27 16  1  0
 28 27  2  0
 30 29  1  0
 30 31  1  6
 31 32  1  0
 32 33  1  0
 33 37  1  0
 34 33  2  0
 35 38  1  0
 35 30  1  0
 36 35  2  0
M  END
$$$$
