FAQ.pdb
     RDKit          3D

 26 26  0  0  1  0  0  0  0  0999 V2000
   28.8845  -21.4317   -9.0646 N   0  0  0  0  0  0  0  0  0  0  0  0
   27.5130  -20.9658   -9.0448 C   0  0  1  0  0  0  0  0  0  0  0  0
   27.4387  -19.5740   -8.4297 C   0  0  0  0  0  0  0  0  0  0  0  0
   27.9553  -19.6414   -7.0366 C   0  0  0  0  0  0  0  0  0  0  0  0
   29.1923  -19.1335   -6.6875 C   0  0  0  0  0  0  0  0  0  0  0  0
   29.6889  -19.1861   -5.4022 C   0  0  0  0  0  0  0  0  0  0  0  0
   28.9416  -19.7653   -4.3981 C   0  0  0  0  0  0  0  0  0  0  0  0
   27.7066  -20.2731   -4.7433 C   0  0  0  0  0  0  0  0  0  0  0  0
   27.2107  -20.2198   -6.0296 C   0  0  0  0  0  0  0  0  0  0  0  0
   26.9297  -21.0082  -10.3887 C   0  0  0  0  0  0  0  0  0  0  0  0
   27.6687  -20.7734  -11.3826 O   0  0  0  0  0  0  0  0  0  0  0  0
   24.8808  -22.7767  -12.4736 C   0  0  0  0  0  0  0  0  0  0  0  0
   25.0575  -21.3530  -11.9990 C   0  0  2  0  0  0  0  0  0  0  0  0
   25.5683  -21.3005  -10.6439 N   0  0  0  0  0  0  0  0  0  0  0  0
   23.7602  -20.6411  -12.1237 C   0  0  0  0  0  0  0  0  0  0  0  0
   22.8910  -20.6555  -11.2152 O   0  0  0  0  0  0  0  0  0  0  0  0
   21.8147  -16.5969  -16.7567 N   0  0  0  0  0  0  0  0  0  0  0  0
   20.7226  -16.7461  -15.8620 C   0  0  0  0  0  0  0  0  0  0  0  0
   19.6684  -16.1151  -16.1206 O   0  0  0  0  0  0  0  0  0  0  0  0
   20.8931  -17.6244  -14.6962 C   0  0  0  0  0  0  0  0  0  0  0  0
   22.2024  -18.3337  -14.6622 C   0  0  0  0  0  0  0  0  0  0  0  0
   22.2191  -19.2630  -13.4639 C   0  0  2  0  0  0  0  0  0  0  0  0
   23.4945  -19.9222  -13.3059 N   0  0  0  0  0  0  0  0  0  0  0  0
   21.1818  -20.3305  -13.6020 C   0  0  0  0  0  0  0  0  0  0  0  0
   21.4364  -21.5154  -14.3180 O   0  0  0  0  0  0  0  0  0  0  0  0
   20.0516  -20.2254  -13.0952 O   0  0  0  0  0  0  0  0  0  0  0  0
  2  1  1  6
  2  3  1  0
  2 10  1  0
  3  4  1  0
  4  5  2  0
  4  9  1  0
  5  6  1  0
  6  7  2  0
  8  7  1  0
  9  8  2  0
 10 11  2  0
 13 12  1  1
 14 13  1  0
 14 10  1  0
 15 16  2  0
 15 13  1  0
 17 18  1  0
 18 20  1  0
 19 18  2  0
 20 21  1  0
 22 21  1  6
 22 24  1  0
 22 23  1  0
 23 15  1  0
 24 25  1  0
 26 24  2  0
M  END
$$$$
