FAQ.pdb
     RDKit          3D

 26 26  0  0  1  0  0  0  0  0999 V2000
   27.4430  -21.4904   -8.5408 N   0  0  0  0  0  0  0  0  0  0  0  0
   26.5415  -20.3572   -8.5831 C   0  0  1  0  0  0  0  0  0  0  0  0
   27.2509  -19.1017   -8.0920 C   0  0  0  0  0  0  0  0  0  0  0  0
   27.6954  -19.3239   -6.6902 C   0  0  0  0  0  0  0  0  0  0  0  0
   28.8280  -18.7221   -6.1754 C   0  0  0  0  0  0  0  0  0  0  0  0
   29.2565  -18.9152   -4.8792 C   0  0  0  0  0  0  0  0  0  0  0  0
   28.5443  -19.7402   -4.0339 C   0  0  0  0  0  0  0  0  0  0  0  0
   27.4135  -20.3423   -4.5445 C   0  0  0  0  0  0  0  0  0  0  0  0
   26.9856  -20.1483   -5.8418 C   0  0  0  0  0  0  0  0  0  0  0  0
   25.9829  -20.1867   -9.9274 C   0  0  0  0  0  0  0  0  0  0  0  0
   25.2491  -19.1888  -10.1615 O   0  0  0  0  0  0  0  0  0  0  0  0
   26.5297  -21.4806  -13.3922 C   0  0  0  0  0  0  0  0  0  0  0  0
   25.6892  -20.8289  -12.3186 C   0  0  2  0  0  0  0  0  0  0  0  0
   26.2194  -21.0859  -10.9948 N   0  0  0  0  0  0  0  0  0  0  0  0
   24.2889  -21.3054  -12.4503 C   0  0  0  0  0  0  0  0  0  0  0  0
   23.9590  -22.5008  -12.2423 O   0  0  0  0  0  0  0  0  0  0  0  0
   20.7636  -21.9840   -9.4702 N   0  0  0  0  0  0  0  0  0  0  0  0
   20.1603  -21.1274  -10.4283 C   0  0  0  0  0  0  0  0  0  0  0  0
   18.9856  -21.3898  -10.7851 O   0  0  0  0  0  0  0  0  0  0  0  0
   20.9438  -19.9940  -10.9393 C   0  0  0  0  0  0  0  0  0  0  0  0
   20.9242  -19.8679  -12.4233 C   0  0  0  0  0  0  0  0  0  0  0  0
   21.9344  -20.8376  -13.0054 C   0  0  2  0  0  0  0  0  0  0  0  0
   23.2925  -20.3814  -12.8227 N   0  0  0  0  0  0  0  0  0  0  0  0
   21.7195  -21.0145  -14.4742 C   0  0  0  0  0  0  0  0  0  0  0  0
   20.7378  -21.8908  -14.9737 O   0  0  0  0  0  0  0  0  0  0  0  0
   22.3921  -20.4009  -15.3206 O   0  0  0  0  0  0  0  0  0  0  0  0
  2  1  1  6
  2  3  1  0
  2 10  1  0
  3  4  1  0
  4  5  2  0
  4  9  1  0
  5  6  1  0
  6  7  2  0
  8  7  1  0
  9  8  2  0
 10 11  2  0
 13 12  1  6
 14 13  1  0
 14 10  1  0
 15 16  2  0
 15 13  1  0
 17 18  1  0
 18 20  1  0
 19 18  2  0
 20 21  1  0
 22 21  1  6
 22 24  1  0
 22 23  1  0
 23 15  1  0
 24 25  1  0
 26 24  2  0
M  END
$$$$
