FAQ.pdb
     RDKit          3D

 26 26  0  0  1  0  0  0  0  0999 V2000
   23.3310  -11.4741  -17.2064 N   0  0  0  0  0  0  0  0  0  0  0  0
   23.6814  -10.9346  -15.9084 C   0  0  1  0  0  0  0  0  0  0  0  0
   25.1596  -10.5679  -15.8724 C   0  0  0  0  0  0  0  0  0  0  0  0
   25.9612  -11.8014  -16.0912 C   0  0  0  0  0  0  0  0  0  0  0  0
   26.7098  -11.9965  -17.2364 C   0  0  0  0  0  0  0  0  0  0  0  0
   27.4593  -13.1324  -17.4579 C   0  0  0  0  0  0  0  0  0  0  0  0
   27.4835  -14.1369  -16.5131 C   0  0  0  0  0  0  0  0  0  0  0  0
   26.7375  -13.9453  -15.3690 C   0  0  0  0  0  0  0  0  0  0  0  0
   25.9879  -12.8082  -15.1484 C   0  0  0  0  0  0  0  0  0  0  0  0
   22.8212   -9.7978  -15.5681 C   0  0  0  0  0  0  0  0  0  0  0  0
   22.4906   -8.9889  -16.4767 O   0  0  0  0  0  0  0  0  0  0  0  0
   20.9679   -8.4240  -12.5673 C   0  0  0  0  0  0  0  0  0  0  0  0
   21.4532   -8.4261  -13.9985 C   0  0  2  0  0  0  0  0  0  0  0  0
   22.3314   -9.5478  -14.2637 N   0  0  0  0  0  0  0  0  0  0  0  0
   22.1197   -7.1294  -14.2810 C   0  0  0  0  0  0  0  0  0  0  0  0
   23.2672   -7.0557  -14.7899 O   0  0  0  0  0  0  0  0  0  0  0  0
   22.5216   -2.4774  -18.9665 N   0  0  0  0  0  0  0  0  0  0  0  0
   22.2831   -3.6759  -18.2439 C   0  0  0  0  0  0  0  0  0  0  0  0
   22.3916   -4.7613  -18.8654 O   0  0  0  0  0  0  0  0  0  0  0  0
   21.9263   -3.5719  -16.8221 C   0  0  0  0  0  0  0  0  0  0  0  0
   21.6363   -4.8822  -16.1759 C   0  0  0  0  0  0  0  0  0  0  0  0
   21.7714   -4.7222  -14.6739 C   0  0  2  0  0  0  0  0  0  0  0  0
   21.4389   -5.9367  -13.9665 N   0  0  0  0  0  0  0  0  0  0  0  0
   20.8610   -3.6501  -14.1674 C   0  0  0  0  0  0  0  0  0  0  0  0
   19.4698   -3.8465  -14.0814 O   0  0  0  0  0  0  0  0  0  0  0  0
   21.2843   -2.5406  -13.8000 O   0  0  0  0  0  0  0  0  0  0  0  0
  2  1  1  6
  2  3  1  0
  2 10  1  0
  3  4  1  0
  4  5  2  0
  4  9  1  0
  5  6  1  0
  6  7  2  0
  8  7  1  0
  9  8  2  0
 10 11  2  0
 13 12  1  1
 14 13  1  0
 14 10  1  0
 15 16  2  0
 15 13  1  0
 17 18  1  0
 18 20  1  0
 19 18  2  0
 20 21  1  0
 22 21  1  6
 22 24  1  0
 22 23  1  0
 23 15  1  0
 24 25  1  0
 26 24  2  0
M  END
$$$$
