FAQ.pdb
     RDKit          3D

 26 26  0  0  1  0  0  0  0  0999 V2000
   28.6906  -21.8528   -8.5399 N   0  0  0  0  0  0  0  0  0  0  0  0
   27.4967  -21.0324   -8.5410 C   0  0  1  0  0  0  0  0  0  0  0  0
   27.8229  -19.6274   -8.0510 C   0  0  0  0  0  0  0  0  0  0  0  0
   28.0300  -19.6730   -6.5790 C   0  0  0  0  0  0  0  0  0  0  0  0
   26.9889  -19.5038   -5.6859 C   0  0  0  0  0  0  0  0  0  0  0  0
   27.1604  -19.5427   -4.3183 C   0  0  0  0  0  0  0  0  0  0  0  0
   28.4148  -19.7582   -3.7871 C   0  0  0  0  0  0  0  0  0  0  0  0
   29.4559  -19.9274   -4.6756 C   0  0  0  0  0  0  0  0  0  0  0  0
   29.2832  -19.8884   -6.0439 C   0  0  0  0  0  0  0  0  0  0  0  0
   26.8722  -21.0245   -9.8670 C   0  0  0  0  0  0  0  0  0  0  0  0
   27.5988  -20.8543  -10.8830 O   0  0  0  0  0  0  0  0  0  0  0  0
   23.4333  -21.4125  -11.4038 C   0  0  0  0  0  0  0  0  0  0  0  0
   24.9285  -21.1937  -11.4195 C   0  0  2  0  0  0  0  0  0  0  0  0
   25.4838  -21.1986  -10.0810 N   0  0  0  0  0  0  0  0  0  0  0  0
   25.2199  -19.9221  -12.1292 C   0  0  0  0  0  0  0  0  0  0  0  0
   25.2055  -18.8060  -11.5502 O   0  0  0  0  0  0  0  0  0  0  0  0
   28.8991  -16.6215  -17.4476 N   0  0  0  0  0  0  0  0  0  0  0  0
   28.6666  -17.6907  -16.5430 C   0  0  0  0  0  0  0  0  0  0  0  0
   29.5165  -18.6138  -16.5026 O   0  0  0  0  0  0  0  0  0  0  0  0
   27.4529  -17.6503  -15.7153 C   0  0  0  0  0  0  0  0  0  0  0  0
   27.1333  -18.9444  -15.0505 C   0  0  0  0  0  0  0  0  0  0  0  0
   25.8989  -18.7552  -14.1901 C   0  0  2  0  0  0  0  0  0  0  0  0
   25.5241  -19.9696  -13.5040 N   0  0  0  0  0  0  0  0  0  0  0  0
   24.7289  -18.3353  -15.0204 C   0  0  0  0  0  0  0  0  0  0  0  0
   24.5785  -17.0070  -15.4612 O   0  0  0  0  0  0  0  0  0  0  0  0
   23.8376  -19.1325  -15.3601 O   0  0  0  0  0  0  0  0  0  0  0  0
  2  1  1  6
  2  3  1  0
  2 10  1  0
  3  4  1  0
  4  5  2  0
  4  9  1  0
  5  6  1  0
  6  7  2  0
  8  7  1  0
  9  8  2  0
 10 11  2  0
 13 12  1  1
 14 13  1  0
 14 10  1  0
 15 16  2  0
 15 13  1  0
 17 18  1  0
 18 20  1  0
 19 18  2  0
 20 21  1  0
 22 21  1  6
 22 24  1  0
 22 23  1  0
 23 15  1  0
 24 25  1  0
 26 24  2  0
M  END
$$$$
