FAQ.pdb
     RDKit          3D

 26 26  0  0  1  0  0  0  0  0999 V2000
   24.6958  -20.3896   -8.6417 N   0  0  0  0  0  0  0  0  0  0  0  0
   26.0026  -20.1680   -9.2264 C   0  0  1  0  0  0  0  0  0  0  0  0
   27.0540  -20.9906   -8.4924 C   0  0  0  0  0  0  0  0  0  0  0  0
   27.2355  -20.4236   -7.1295 C   0  0  0  0  0  0  0  0  0  0  0  0
   26.5071  -20.8736   -6.0446 C   0  0  0  0  0  0  0  0  0  0  0  0
   26.6606  -20.3612   -4.7738 C   0  0  0  0  0  0  0  0  0  0  0  0
   27.5737  -19.3537   -4.5429 C   0  0  0  0  0  0  0  0  0  0  0  0
   28.3022  -18.9023   -5.6234 C   0  0  0  0  0  0  0  0  0  0  0  0
   28.1479  -19.4158   -6.8946 C   0  0  0  0  0  0  0  0  0  0  0  0
   25.9839  -20.4509  -10.6644 C   0  0  0  0  0  0  0  0  0  0  0  0
   24.8904  -20.7564  -11.2123 O   0  0  0  0  0  0  0  0  0  0  0  0
   28.2083  -18.5936  -12.7434 C   0  0  0  0  0  0  0  0  0  0  0  0
   27.1316  -19.6540  -12.7294 C   0  0  2  0  0  0  0  0  0  0  0  0
   27.1339  -20.4020  -11.4884 N   0  0  0  0  0  0  0  0  0  0  0  0
   27.3175  -20.5420  -13.9051 C   0  0  0  0  0  0  0  0  0  0  0  0
   27.4674  -20.0970  -15.0715 O   0  0  0  0  0  0  0  0  0  0  0  0
   22.4381  -22.9548  -12.7807 N   0  0  0  0  0  0  0  0  0  0  0  0
   22.7677  -23.8069  -13.8673 C   0  0  0  0  0  0  0  0  0  0  0  0
   21.8650  -24.5572  -14.3127 O   0  0  0  0  0  0  0  0  0  0  0  0
   24.1366  -23.7578  -14.3997 C   0  0  0  0  0  0  0  0  0  0  0  0
   25.0238  -22.7920  -13.6934 C   0  0  0  0  0  0  0  0  0  0  0  0
   26.3649  -22.7595  -14.4008 C   0  0  2  0  0  0  0  0  0  0  0  0
   27.3260  -21.9365  -13.7044 N   0  0  0  0  0  0  0  0  0  0  0  0
   26.2260  -22.2067  -15.7827 C   0  0  0  0  0  0  0  0  0  0  0  0
   26.3433  -23.0291  -16.9191 O   0  0  0  0  0  0  0  0  0  0  0  0
   26.0017  -21.0026  -15.9951 O   0  0  0  0  0  0  0  0  0  0  0  0
  2  1  1  1
  2  3  1  0
  2 10  1  0
  3  4  1  0
  4  5  2  0
  4  9  1  0
  5  6  1  0
  6  7  2  0
  8  7  1  0
  9  8  2  0
 10 11  2  0
 13 12  1  1
 14 13  1  0
 14 10  1  0
 15 16  2  0
 15 13  1  0
 17 18  1  0
 18 20  1  0
 19 18  2  0
 20 21  1  0
 22 21  1  1
 22 24  1  0
 22 23  1  0
 23 15  1  0
 24 25  1  0
 26 24  2  0
M  END
$$$$
