FAQ.pdb
     RDKit          3D

 26 26  0  0  1  0  0  0  0  0999 V2000
   25.1394  -19.3628  -15.6410 N   0  0  0  0  0  0  0  0  0  0  0  0
   24.1062  -18.5235  -15.0693 C   0  0  1  0  0  0  0  0  0  0  0  0
   23.6998  -17.4402  -16.0603 C   0  0  0  0  0  0  0  0  0  0  0  0
   24.8444  -16.5081  -16.2421 C   0  0  0  0  0  0  0  0  0  0  0  0
   25.6462  -16.5414  -17.3673 C   0  0  0  0  0  0  0  0  0  0  0  0
   26.7115  -15.6862  -17.5544 C   0  0  0  0  0  0  0  0  0  0  0  0
   27.0159  -14.7444  -16.5940 C   0  0  0  0  0  0  0  0  0  0  0  0
   26.2176  -14.7086  -15.4699 C   0  0  0  0  0  0  0  0  0  0  0  0
   25.1519  -15.5647  -15.2836 C   0  0  0  0  0  0  0  0  0  0  0  0
   22.9632  -19.3303  -14.6325 C   0  0  0  0  0  0  0  0  0  0  0  0
   22.8449  -20.5075  -15.0677 O   0  0  0  0  0  0  0  0  0  0  0  0
   20.8012  -19.4330  -11.6631 C   0  0  0  0  0  0  0  0  0  0  0  0
   21.0365  -19.7798  -13.1151 C   0  0  2  0  0  0  0  0  0  0  0  0
   21.9692  -18.8632  -13.7394 N   0  0  0  0  0  0  0  0  0  0  0  0
   19.7304  -19.7988  -13.8216 C   0  0  0  0  0  0  0  0  0  0  0  0
   18.8085  -18.9846  -13.5603 O   0  0  0  0  0  0  0  0  0  0  0  0
   18.7441  -23.7330  -12.3399 N   0  0  0  0  0  0  0  0  0  0  0  0
   18.8258  -24.2850  -13.6454 C   0  0  0  0  0  0  0  0  0  0  0  0
   19.3775  -25.4059  -13.7695 O   0  0  0  0  0  0  0  0  0  0  0  0
   18.2630  -23.5145  -14.7631 C   0  0  0  0  0  0  0  0  0  0  0  0
   17.6109  -22.2408  -14.3494 C   0  0  0  0  0  0  0  0  0  0  0  0
   18.1667  -21.1138  -15.1984 C   0  0  2  0  0  0  0  0  0  0  0  0
   19.5175  -20.7667  -14.8229 N   0  0  0  0  0  0  0  0  0  0  0  0
   17.3356  -19.8793  -15.0570 C   0  0  0  0  0  0  0  0  0  0  0  0
   17.1869  -19.2308  -13.8166 O   0  0  0  0  0  0  0  0  0  0  0  0
   16.7392  -19.3685  -16.0206 O   0  0  0  0  0  0  0  0  0  0  0  0
  2  1  1  6
  2  3  1  0
  2 10  1  0
  3  4  1  0
  4  5  2  0
  4  9  1  0
  5  6  1  0
  6  7  2  0
  8  7  1  0
  9  8  2  0
 10 11  2  0
 13 12  1  1
 14 13  1  0
 14 10  1  0
 15 16  2  0
 15 13  1  0
 17 18  1  0
 18 20  1  0
 19 18  2  0
 20 21  1  0
 22 21  1  1
 22 24  1  0
 22 23  1  0
 23 15  1  0
 24 25  1  0
 26 24  2  0
M  END
$$$$
