FAQ.pdb
     RDKit          3D

 26 26  0  0  1  0  0  0  0  0999 V2000
   40.5906   -7.8973   -5.5424 N   0  0  0  0  0  0  0  0  0  0  0  0
   41.0429   -9.2561   -5.3242 C   0  0  1  0  0  0  0  0  0  0  0  0
   39.9097  -10.2378   -5.5942 C   0  0  0  0  0  0  0  0  0  0  0  0
   39.2577   -9.8701   -6.8793 C   0  0  0  0  0  0  0  0  0  0  0  0
   39.5713  -10.5014   -8.0682 C   0  0  0  0  0  0  0  0  0  0  0  0
   38.9784  -10.1751   -9.2695 C   0  0  0  0  0  0  0  0  0  0  0  0
   38.0262   -9.1787   -9.3196 C   0  0  0  0  0  0  0  0  0  0  0  0
   37.7109   -8.5468   -8.1350 C   0  0  0  0  0  0  0  0  0  0  0  0
   38.3048   -8.8740   -6.9334 C   0  0  0  0  0  0  0  0  0  0  0  0
   42.2299   -9.5456   -6.1338 C   0  0  0  0  0  0  0  0  0  0  0  0
   42.4443   -8.8600   -7.1697 O   0  0  0  0  0  0  0  0  0  0  0  0
   45.3841  -11.5872   -5.9624 C   0  0  0  0  0  0  0  0  0  0  0  0
   44.2958  -10.8280   -6.6855 C   0  0  2  0  0  0  0  0  0  0  0  0
   43.1641  -10.5619   -5.8204 N   0  0  0  0  0  0  0  0  0  0  0  0
   43.8951  -11.5961   -7.8917 C   0  0  0  0  0  0  0  0  0  0  0  0
   42.7778  -12.1644   -7.9911 O   0  0  0  0  0  0  0  0  0  0  0  0
   40.8408  -10.9562  -12.0516 N   0  0  0  0  0  0  0  0  0  0  0  0
   41.5217  -12.0613  -12.6265 C   0  0  0  0  0  0  0  0  0  0  0  0
   41.0300  -12.5728  -13.6622 O   0  0  0  0  0  0  0  0  0  0  0  0
   42.7522  -12.5347  -11.9772 C   0  0  0  0  0  0  0  0  0  0  0  0
   43.1010  -11.7935  -10.7333 C   0  0  0  0  0  0  0  0  0  0  0  0
   44.3965  -12.3562  -10.1810 C   0  0  2  0  0  0  0  0  0  0  0  0
   44.8027  -11.6909   -8.9651 N   0  0  0  0  0  0  0  0  0  0  0  0
   45.5096  -12.1987  -11.1663 C   0  0  0  0  0  0  0  0  0  0  0  0
   45.9312  -13.2692  -11.9772 O   0  0  0  0  0  0  0  0  0  0  0  0
   46.1134  -11.1226  -11.3170 O   0  0  0  0  0  0  0  0  0  0  0  0
  2  1  1  6
  2  3  1  0
  2 10  1  0
  3  4  1  0
  4  5  2  0
  4  9  1  0
  5  6  1  0
  6  7  2  0
  8  7  1  0
  9  8  2  0
 10 11  2  0
 13 12  1  1
 14 13  1  0
 14 10  1  0
 15 16  2  0
 15 13  1  0
 17 18  1  0
 18 20  1  0
 19 18  2  0
 20 21  1  0
 22 21  1  6
 22 24  1  0
 22 23  1  0
 23 15  1  0
 24 25  1  0
 26 24  2  0
M  END
$$$$
