FAQ.pdb
     RDKit          3D

 26 26  0  0  1  0  0  0  0  0999 V2000
   24.5084  -15.4127  -17.6768 N   0  0  0  0  0  0  0  0  0  0  0  0
   24.9734  -14.0916  -18.0470 C   0  0  1  0  0  0  0  0  0  0  0  0
   24.4031  -13.6935  -19.4024 C   0  0  0  0  0  0  0  0  0  0  0  0
   25.0225  -14.5494  -20.4492 C   0  0  0  0  0  0  0  0  0  0  0  0
   26.2986  -14.3173  -20.9265 C   0  0  0  0  0  0  0  0  0  0  0  0
   26.8901  -15.0989  -21.8962 C   0  0  0  0  0  0  0  0  0  0  0  0
   26.2033  -16.1675  -22.4334 C   0  0  0  0  0  0  0  0  0  0  0  0
   24.9296  -16.4018  -21.9592 C   0  0  0  0  0  0  0  0  0  0  0  0
   24.3386  -15.6191  -20.9889 C   0  0  0  0  0  0  0  0  0  0  0  0
   24.6508  -13.1150  -17.0029 C   0  0  0  0  0  0  0  0  0  0  0  0
   23.5260  -13.1756  -16.4369 O   0  0  0  0  0  0  0  0  0  0  0  0
   26.2843  -10.2464  -15.1594 C   0  0  0  0  0  0  0  0  0  0  0  0
   25.1213  -11.0947  -15.6195 C   0  0  2  0  0  0  0  0  0  0  0  0
   25.5364  -12.0931  -16.5843 N   0  0  0  0  0  0  0  0  0  0  0  0
   24.0669  -10.2055  -16.1700 C   0  0  0  0  0  0  0  0  0  0  0  0
   23.9233  -10.0104  -17.4038 O   0  0  0  0  0  0  0  0  0  0  0  0
   18.3007  -10.4646  -16.2725 N   0  0  0  0  0  0  0  0  0  0  0  0
   18.4695   -9.0918  -16.5926 C   0  0  0  0  0  0  0  0  0  0  0  0
   17.4893   -8.4858  -17.0907 O   0  0  0  0  0  0  0  0  0  0  0  0
   19.7732   -8.4696  -16.3226 C   0  0  0  0  0  0  0  0  0  0  0  0
   20.8062   -9.4235  -15.8310 C   0  0  0  0  0  0  0  0  0  0  0  0
   22.1446   -8.7112  -15.7932 C   0  0  2  0  0  0  0  0  0  0  0  0
   23.1947   -9.5562  -15.2742 N   0  0  0  0  0  0  0  0  0  0  0  0
   22.0792   -7.4984  -14.9217 C   0  0  0  0  0  0  0  0  0  0  0  0
   21.6005   -6.2676  -15.4087 O   0  0  0  0  0  0  0  0  0  0  0  0
   22.4417   -7.5169  -13.7328 O   0  0  0  0  0  0  0  0  0  0  0  0
  2  1  1  1
  2  3  1  0
  2 10  1  0
  3  4  1  0
  4  5  2  0
  4  9  1  0
  5  6  1  0
  6  7  2  0
  8  7  1  0
  9  8  2  0
 10 11  2  0
 13 12  1  6
 14 13  1  0
 14 10  1  0
 15 16  2  0
 15 13  1  0
 17 18  1  0
 18 20  1  0
 19 18  2  0
 20 21  1  0
 22 21  1  1
 22 24  1  0
 22 23  1  0
 23 15  1  0
 24 25  1  0
 26 24  2  0
M  END
$$$$
