FAQ.pdb
     RDKit          3D

 26 26  0  0  1  0  0  0  0  0999 V2000
   25.4961  -22.8595  -13.5025 N   0  0  0  0  0  0  0  0  0  0  0  0
   25.0026  -22.2762  -14.7333 C   0  0  1  0  0  0  0  0  0  0  0  0
   24.7354  -23.3670  -15.7627 C   0  0  0  0  0  0  0  0  0  0  0  0
   26.0348  -23.9635  -16.1720 C   0  0  0  0  0  0  0  0  0  0  0  0
   26.3861  -25.2576  -15.8372 C   0  0  0  0  0  0  0  0  0  0  0  0
   27.5855  -25.8285  -16.2070 C   0  0  0  0  0  0  0  0  0  0  0  0
   28.4963  -25.1013  -16.9443 C   0  0  0  0  0  0  0  0  0  0  0  0
   28.1488  -23.8095  -17.2801 C   0  0  0  0  0  0  0  0  0  0  0  0
   26.9484  -23.2392  -16.9096 C   0  0  0  0  0  0  0  0  0  0  0  0
   23.8170  -21.4526  -14.4799 C   0  0  0  0  0  0  0  0  0  0  0  0
   23.0756  -21.7350  -13.5003 O   0  0  0  0  0  0  0  0  0  0  0  0
   22.2328  -18.2693  -15.7494 C   0  0  0  0  0  0  0  0  0  0  0  0
   22.2644  -19.5647  -14.9717 C   0  0  2  0  0  0  0  0  0  0  0  0
   23.4471  -20.3438  -15.2783 N   0  0  0  0  0  0  0  0  0  0  0  0
   21.0196  -20.3239  -15.2533 C   0  0  0  0  0  0  0  0  0  0  0  0
   20.9605  -21.2246  -16.1288 O   0  0  0  0  0  0  0  0  0  0  0  0
   17.4608  -24.9036  -12.8724 N   0  0  0  0  0  0  0  0  0  0  0  0
   17.8814  -23.5595  -12.6934 C   0  0  0  0  0  0  0  0  0  0  0  0
   18.6642  -23.3167  -11.7424 O   0  0  0  0  0  0  0  0  0  0  0  0
   17.3773  -22.5425  -13.6268 C   0  0  0  0  0  0  0  0  0  0  0  0
   17.9884  -21.1970  -13.4400 C   0  0  0  0  0  0  0  0  0  0  0  0
   18.6545  -20.7830  -14.7380 C   0  0  2  0  0  0  0  0  0  0  0  0
   19.8611  -20.0225  -14.5104 N   0  0  0  0  0  0  0  0  0  0  0  0
   17.7408  -19.9305  -15.5584 C   0  0  0  0  0  0  0  0  0  0  0  0
   18.0956  -18.6209  -15.9330 O   0  0  0  0  0  0  0  0  0  0  0  0
   16.6309  -20.3331  -15.9474 O   0  0  0  0  0  0  0  0  0  0  0  0
  2  1  1  1
  2  3  1  0
  2 10  1  0
  3  4  1  0
  4  5  2  0
  4  9  1  0
  5  6  1  0
  6  7  2  0
  8  7  1  0
  9  8  2  0
 10 11  2  0
 13 12  1  6
 14 13  1  0
 14 10  1  0
 15 16  2  0
 15 13  1  0
 17 18  1  0
 18 20  1  0
 19 18  2  0
 20 21  1  0
 22 21  1  1
 22 24  1  0
 22 23  1  0
 23 15  1  0
 24 25  1  0
 26 24  2  0
M  END
$$$$
