FAQ.pdb
     RDKit          3D

 26 26  0  0  1  0  0  0  0  0999 V2000
   22.0304  -14.3209  -19.8495 N   0  0  0  0  0  0  0  0  0  0  0  0
   20.9153  -13.3962  -19.8380 C   0  0  1  0  0  0  0  0  0  0  0  0
   19.8989  -13.8104  -18.7816 C   0  0  0  0  0  0  0  0  0  0  0  0
   19.1801  -15.0207  -19.2616 C   0  0  0  0  0  0  0  0  0  0  0  0
   18.2117  -14.9570  -20.2456 C   0  0  0  0  0  0  0  0  0  0  0  0
   17.5344  -16.0670  -20.7041 C   0  0  0  0  0  0  0  0  0  0  0  0
   17.8132  -17.3106  -20.1769 C   0  0  0  0  0  0  0  0  0  0  0  0
   18.7791  -17.3776  -19.1947 C   0  0  0  0  0  0  0  0  0  0  0  0
   19.4563  -16.2662  -18.7367 C   0  0  0  0  0  0  0  0  0  0  0  0
   21.3825  -12.0202  -19.6463 C   0  0  0  0  0  0  0  0  0  0  0  0
   22.3199  -11.8016  -18.8322 O   0  0  0  0  0  0  0  0  0  0  0  0
   21.0051   -8.6415  -21.2490 C   0  0  0  0  0  0  0  0  0  0  0  0
   21.3604   -9.5708  -20.1114 C   0  0  2  0  0  0  0  0  0  0  0  0
   20.8389  -10.9052  -20.3283 N   0  0  0  0  0  0  0  0  0  0  0  0
   20.8606   -8.9867  -18.8408 C   0  0  0  0  0  0  0  0  0  0  0  0
   19.7888   -9.3611  -18.3001 O   0  0  0  0  0  0  0  0  0  0  0  0
   23.7430   -4.7132  -14.9707 N   0  0  0  0  0  0  0  0  0  0  0  0
   22.5199   -5.0687  -14.3436 C   0  0  0  0  0  0  0  0  0  0  0  0
   22.2426   -4.5130  -13.2526 O   0  0  0  0  0  0  0  0  0  0  0  0
   21.6601   -6.0590  -15.0067 C   0  0  0  0  0  0  0  0  0  0  0  0
   22.2126   -6.5737  -16.2906 C   0  0  0  0  0  0  0  0  0  0  0  0
   21.1387   -7.3846  -16.9898 C   0  0  2  0  0  0  0  0  0  0  0  0
   21.6173   -7.9744  -18.2183 N   0  0  0  0  0  0  0  0  0  0  0  0
   19.9641   -6.5275  -17.3372 C   0  0  0  0  0  0  0  0  0  0  0  0
   18.8491   -6.4270  -16.4840 O   0  0  0  0  0  0  0  0  0  0  0  0
   19.9145   -5.8663  -18.3886 O   0  0  0  0  0  0  0  0  0  0  0  0
  2  1  1  1
  2  3  1  0
  2 10  1  0
  3  4  1  0
  4  5  2  0
  4  9  1  0
  5  6  1  0
  6  7  2  0
  8  7  1  0
  9  8  2  0
 10 11  2  0
 13 12  1  6
 14 13  1  0
 14 10  1  0
 15 16  2  0
 15 13  1  0
 17 18  1  0
 18 20  1  0
 19 18  2  0
 20 21  1  0
 22 21  1  6
 22 24  1  0
 22 23  1  0
 23 15  1  0
 24 25  1  0
 26 24  2  0
M  END
$$$$
