FAQ.pdb
     RDKit          3D

 26 26  0  0  1  0  0  0  0  0999 V2000
   28.2740  -20.9559   -8.8785 N   0  0  0  0  0  0  0  0  0  0  0  0
   26.8549  -20.8251   -9.1390 C   0  0  1  0  0  0  0  0  0  0  0  0
   26.2461  -19.7723   -8.2215 C   0  0  0  0  0  0  0  0  0  0  0  0
   26.9742  -19.7930   -6.9247 C   0  0  0  0  0  0  0  0  0  0  0  0
   26.5364  -20.5427   -5.8493 C   0  0  0  0  0  0  0  0  0  0  0  0
   27.1969  -20.5752   -4.6394 C   0  0  0  0  0  0  0  0  0  0  0  0
   28.3488  -19.8374   -4.4634 C   0  0  0  0  0  0  0  0  0  0  0  0
   28.7883  -19.0882   -5.5346 C   0  0  0  0  0  0  0  0  0  0  0  0
   28.1267  -19.0564   -6.7449 C   0  0  0  0  0  0  0  0  0  0  0  0
   26.6105  -20.5331  -10.5543 C   0  0  0  0  0  0  0  0  0  0  0  0
   26.9935  -19.4279  -11.0246 O   0  0  0  0  0  0  0  0  0  0  0  0
   26.3825  -22.0906  -13.7592 C   0  0  0  0  0  0  0  0  0  0  0  0
   25.7508  -21.0801  -12.8299 C   0  0  2  0  0  0  0  0  0  0  0  0
   25.9618  -21.4276  -11.4390 N   0  0  0  0  0  0  0  0  0  0  0  0
   24.3059  -20.9680  -13.1538 C   0  0  0  0  0  0  0  0  0  0  0  0
   23.8911  -20.6949  -14.3090 O   0  0  0  0  0  0  0  0  0  0  0  0
   17.8631  -23.6690  -12.4405 N   0  0  0  0  0  0  0  0  0  0  0  0
   18.8905  -23.1746  -11.5946 C   0  0  0  0  0  0  0  0  0  0  0  0
   19.0153  -23.7015  -10.4619 O   0  0  0  0  0  0  0  0  0  0  0  0
   19.7387  -22.0836  -12.0947 C   0  0  0  0  0  0  0  0  0  0  0  0
   21.1932  -22.2896  -11.8487 C   0  0  0  0  0  0  0  0  0  0  0  0
   21.9545  -21.1153  -12.4330 C   0  0  2  0  0  0  0  0  0  0  0  0
   23.3646  -21.1759  -12.1263 N   0  0  0  0  0  0  0  0  0  0  0  0
   21.4376  -19.8215  -11.8912 C   0  0  0  0  0  0  0  0  0  0  0  0
   20.2349  -19.2573  -12.3563 O   0  0  0  0  0  0  0  0  0  0  0  0
   22.0399  -19.1848  -11.0097 O   0  0  0  0  0  0  0  0  0  0  0  0
  2  1  1  6
  2  3  1  0
  2 10  1  0
  3  4  1  0
  4  5  2  0
  4  9  1  0
  5  6  1  0
  6  7  2  0
  8  7  1  0
  9  8  2  0
 10 11  2  0
 13 12  1  6
 14 13  1  0
 14 10  1  0
 15 16  2  0
 15 13  1  0
 17 18  1  0
 18 20  1  0
 19 18  2  0
 20 21  1  0
 22 21  1  1
 22 24  1  0
 22 23  1  0
 23 15  1  0
 24 25  1  0
 26 24  2  0
M  END
$$$$
