FAQ.pdb
     RDKit          3D

 26 26  0  0  1  0  0  0  0  0999 V2000
   18.9199  -11.4991  -17.6599 N   0  0  0  0  0  0  0  0  0  0  0  0
   20.2055  -10.8463  -17.8001 C   0  0  1  0  0  0  0  0  0  0  0  0
   20.2028   -9.9350  -19.0209 C   0  0  0  0  0  0  0  0  0  0  0  0
   20.0985  -10.7767  -20.2426 C   0  0  0  0  0  0  0  0  0  0  0  0
   18.9433  -10.8320  -20.9992 C   0  0  0  0  0  0  0  0  0  0  0  0
   18.8267  -11.6058  -22.1345 C   0  0  0  0  0  0  0  0  0  0  0  0
   19.8932  -12.3698  -22.5599 C   0  0  0  0  0  0  0  0  0  0  0  0
   21.0476  -12.3168  -21.8071 C   0  0  0  0  0  0  0  0  0  0  0  0
   21.1631  -11.5422  -20.6713 C   0  0  0  0  0  0  0  0  0  0  0  0
   20.5600  -10.1265  -16.5736 C   0  0  0  0  0  0  0  0  0  0  0  0
   19.7206   -9.3346  -16.0662 O   0  0  0  0  0  0  0  0  0  0  0  0
   23.2807  -10.0934  -13.9668 C   0  0  0  0  0  0  0  0  0  0  0  0
   22.1016   -9.5127  -14.7126 C   0  0  2  0  0  0  0  0  0  0  0  0
   21.8043  -10.2671  -15.9135 N   0  0  0  0  0  0  0  0  0  0  0  0
   22.3815   -8.0863  -15.0165 C   0  0  0  0  0  0  0  0  0  0  0  0
   22.9139   -7.7164  -16.0940 O   0  0  0  0  0  0  0  0  0  0  0  0
   19.6612   -4.3479  -17.4297 N   0  0  0  0  0  0  0  0  0  0  0  0
   19.0962   -4.7679  -16.1969 C   0  0  0  0  0  0  0  0  0  0  0  0
   17.8491   -4.6927  -16.0729 O   0  0  0  0  0  0  0  0  0  0  0  0
   20.0008   -5.2617  -15.1492 C   0  0  0  0  0  0  0  0  0  0  0  0
   21.4391   -5.2405  -15.5355 C   0  0  0  0  0  0  0  0  0  0  0  0
   22.2648   -5.7157  -14.3555 C   0  0  2  0  0  0  0  0  0  0  0  0
   22.0367   -7.1109  -14.0601 N   0  0  0  0  0  0  0  0  0  0  0  0
   21.9289   -4.9403  -13.1224 C   0  0  0  0  0  0  0  0  0  0  0  0
   21.2448   -5.5329  -12.0444 O   0  0  0  0  0  0  0  0  0  0  0  0
   22.2349   -3.7429  -12.9891 O   0  0  0  0  0  0  0  0  0  0  0  0
  2  1  1  1
  2  3  1  0
  2 10  1  0
  3  4  1  0
  4  5  2  0
  4  9  1  0
  5  6  1  0
  6  7  2  0
  8  7  1  0
  9  8  2  0
 10 11  2  0
 13 12  1  6
 14 13  1  0
 14 10  1  0
 15 16  2  0
 15 13  1  0
 17 18  1  0
 18 20  1  0
 19 18  2  0
 20 21  1  0
 22 21  1  6
 22 24  1  0
 22 23  1  0
 23 15  1  0
 24 25  1  0
 26 24  2  0
M  END
$$$$
