FAQ.pdb
     RDKit          3D

 26 26  0  0  1  0  0  0  0  0999 V2000
   28.6343  -21.1050   -9.1257 N   0  0  0  0  0  0  0  0  0  0  0  0
   27.2434  -20.7547   -8.9227 C   0  0  1  0  0  0  0  0  0  0  0  0
   27.1356  -19.5144   -8.0447 C   0  0  0  0  0  0  0  0  0  0  0  0
   27.7882  -19.7980   -6.7386 C   0  0  0  0  0  0  0  0  0  0  0  0
   28.9825  -19.2073   -6.3715 C   0  0  0  0  0  0  0  0  0  0  0  0
   29.6031  -19.4571   -5.1659 C   0  0  0  0  0  0  0  0  0  0  0  0
   29.0314  -20.3306   -4.2647 C   0  0  0  0  0  0  0  0  0  0  0  0
   27.8395  -20.9217   -4.6280 C   0  0  0  0  0  0  0  0  0  0  0  0
   27.2193  -20.6711   -5.8346 C   0  0  0  0  0  0  0  0  0  0  0  0
   26.5571  -20.5845  -10.2066 C   0  0  0  0  0  0  0  0  0  0  0  0
   26.9902  -19.7253  -11.0211 O   0  0  0  0  0  0  0  0  0  0  0  0
   24.8583  -22.4316  -12.7115 C   0  0  0  0  0  0  0  0  0  0  0  0
   24.8193  -21.1571  -11.9003 C   0  0  2  0  0  0  0  0  0  0  0  0
   25.4218  -21.3357  -10.5946 N   0  0  0  0  0  0  0  0  0  0  0  0
   23.4109  -20.6978  -11.7960 C   0  0  0  0  0  0  0  0  0  0  0  0
   22.7131  -20.8851  -10.7669 O   0  0  0  0  0  0  0  0  0  0  0  0
   18.5150  -17.0017  -12.1091 N   0  0  0  0  0  0  0  0  0  0  0  0
   19.3074  -17.0097  -13.2872 C   0  0  0  0  0  0  0  0  0  0  0  0
   18.7509  -16.6849  -14.3647 O   0  0  0  0  0  0  0  0  0  0  0  0
   20.7208  -17.3954  -13.1725 C   0  0  0  0  0  0  0  0  0  0  0  0
   21.0632  -18.6524  -13.8944 C   0  0  0  0  0  0  0  0  0  0  0  0
   21.4258  -19.7139  -12.8738 C   0  0  2  0  0  0  0  0  0  0  0  0
   22.8358  -20.0263  -12.8930 N   0  0  0  0  0  0  0  0  0  0  0  0
   20.6859  -20.9852  -13.1403 C   0  0  0  0  0  0  0  0  0  0  0  0
   19.4488  -21.2587  -12.5270 O   0  0  0  0  0  0  0  0  0  0  0  0
   21.1233  -21.8571  -13.9108 O   0  0  0  0  0  0  0  0  0  0  0  0
  2  1  1  6
  2  3  1  0
  2 10  1  0
  3  4  1  0
  4  5  2  0
  4  9  1  0
  5  6  1  0
  6  7  2  0
  8  7  1  0
  9  8  2  0
 10 11  2  0
 13 12  1  1
 14 13  1  0
 14 10  1  0
 15 16  2  0
 15 13  1  0
 17 18  1  0
 18 20  1  0
 19 18  2  0
 20 21  1  0
 22 21  1  6
 22 24  1  0
 22 23  1  0
 23 15  1  0
 24 25  1  0
 26 24  2  0
M  END
$$$$
