FAQ.pdb
     RDKit          3D

 26 26  0  0  1  0  0  0  0  0999 V2000
   17.4401  -11.8866  -14.8967 N   0  0  0  0  0  0  0  0  0  0  0  0
   18.3689  -11.4317  -15.9110 C   0  0  1  0  0  0  0  0  0  0  0  0
   17.6681  -11.3321  -17.2600 C   0  0  0  0  0  0  0  0  0  0  0  0
   17.3152  -12.7034  -17.7151 C   0  0  0  0  0  0  0  0  0  0  0  0
   18.2535  -13.5602  -18.2589 C   0  0  0  0  0  0  0  0  0  0  0  0
   17.9464  -14.8345  -18.6866 C   0  0  0  0  0  0  0  0  0  0  0  0
   16.6540  -15.3041  -18.5803 C   0  0  0  0  0  0  0  0  0  0  0  0
   15.7153  -14.4516  -18.0380 C   0  0  0  0  0  0  0  0  0  0  0  0
   16.0236  -13.1767  -17.6104 C   0  0  0  0  0  0  0  0  0  0  0  0
   18.9909  -10.1647  -15.5162 C   0  0  0  0  0  0  0  0  0  0  0  0
   18.2607   -9.2393  -15.0694 O   0  0  0  0  0  0  0  0  0  0  0  0
   22.4357   -8.6856  -15.0834 C   0  0  0  0  0  0  0  0  0  0  0  0
   20.9321   -8.6277  -15.2225 C   0  0  2  0  0  0  0  0  0  0  0  0
   20.3807   -9.9115  -15.6066 N   0  0  0  0  0  0  0  0  0  0  0  0
   20.5812   -7.5659  -16.1996 C   0  0  0  0  0  0  0  0  0  0  0  0
   20.2109   -7.8228  -17.3735 O   0  0  0  0  0  0  0  0  0  0  0  0
   17.0078   -3.3765  -17.3782 N   0  0  0  0  0  0  0  0  0  0  0  0
   16.9697   -4.3381  -16.3344 C   0  0  0  0  0  0  0  0  0  0  0  0
   15.9868   -4.3108  -15.5539 O   0  0  0  0  0  0  0  0  0  0  0  0
   18.0766   -5.2995  -16.2334 C   0  0  0  0  0  0  0  0  0  0  0  0
   19.0574   -5.2092  -17.3507 C   0  0  0  0  0  0  0  0  0  0  0  0
   20.4561   -5.1713  -16.7658 C   0  0  2  0  0  0  0  0  0  0  0  0
   20.6669   -6.2192  -15.7945 N   0  0  0  0  0  0  0  0  0  0  0  0
   20.7112   -3.8695  -16.0766 C   0  0  0  0  0  0  0  0  0  0  0  0
   20.7988   -2.6619  -16.7944 O   0  0  0  0  0  0  0  0  0  0  0  0
   20.8574   -3.7898  -14.8447 O   0  0  0  0  0  0  0  0  0  0  0  0
  2  1  1  1
  2  3  1  0
  2 10  1  0
  3  4  1  0
  4  5  2  0
  4  9  1  0
  5  6  1  0
  6  7  2  0
  8  7  1  0
  9  8  2  0
 10 11  2  0
 13 12  1  6
 14 13  1  0
 14 10  1  0
 15 16  2  0
 15 13  1  0
 17 18  1  0
 18 20  1  0
 19 18  2  0
 20 21  1  0
 22 21  1  1
 22 24  1  0
 22 23  1  0
 23 15  1  0
 24 25  1  0
 26 24  2  0
M  END
$$$$
