IWE.pdb
     RDKit          3D

 32 33  0  0  1  0  0  0  0  0999 V2000
    7.3172  -12.4297   18.7967 C   0  0  0  0  0  0  0  0  0  0  0  0
    7.0551  -13.7651   19.4402 C   0  0  0  0  0  0  0  0  0  0  0  0
    7.8442  -13.9663   20.6889 C   0  0  2  0  0  0  0  0  0  0  0  0
    9.0304  -13.0478   20.7288 C   0  0  0  0  0  0  0  0  0  0  0  0
    8.2118  -15.4222   20.9056 C   0  0  2  0  0  0  0  0  0  0  0  0
    7.1699  -16.3400   20.6741 N   0  0  0  0  0  0  0  0  0  0  0  0
    8.8972  -15.5056   22.2168 C   0  0  0  0  0  0  0  0  0  0  0  0
   10.0247  -14.9054   22.3819 O   0  0  0  0  0  0  0  0  0  0  0  0
    8.4388  -16.1969   23.3620 N   0  0  0  0  0  0  0  0  0  0  0  0
    9.2130  -16.2577   24.5913 C   0  0  1  0  0  0  0  0  0  0  0  0
    8.3497  -16.2281   25.8089 C   0  0  0  0  0  0  0  0  0  0  0  0
    7.2496  -15.2709   25.8074 C   0  0  0  0  0  0  0  0  0  0  0  0
    5.9051  -15.3749   25.5663 C   0  0  0  0  0  0  0  0  0  0  0  0
    5.3305  -14.1612   25.7066 N   0  0  0  0  0  0  0  0  0  0  0  0
    6.2717  -13.2691   26.0338 C   0  0  0  0  0  0  0  0  0  0  0  0
    6.1903  -11.9140   26.2809 C   0  0  0  0  0  0  0  0  0  0  0  0
    7.3348  -11.2024   26.6049 C   0  0  0  0  0  0  0  0  0  0  0  0
    8.5642  -11.8283   26.6861 C   0  0  0  0  0  0  0  0  0  0  0  0
    8.5963  -13.1782   26.4320 C   0  0  0  0  0  0  0  0  0  0  0  0
    7.4793  -13.9180   26.1066 C   0  0  0  0  0  0  0  0  0  0  0  0
   10.2134  -17.3530   24.5953 C   0  0  0  0  0  0  0  0  0  0  0  0
   10.3340  -17.9942   23.5040 O   0  0  0  0  0  0  0  0  0  0  0  0
   10.9835  -17.6744   25.7164 N   0  0  0  0  0  0  0  0  0  0  0  0
   12.1483  -18.5748   25.5758 C   0  0  1  0  0  0  0  0  0  0  0  0
   13.0916  -17.9831   24.5963 C   0  0  0  0  0  0  0  0  0  0  0  0
   14.4167  -18.5965   24.4196 C   0  0  0  0  0  0  0  0  0  0  0  0
   15.2509  -17.9577   23.4086 C   0  0  0  0  0  0  0  0  0  0  0  0
   16.0541  -17.0443   23.6731 O   0  0  0  0  0  0  0  0  0  0  0  0
   12.6768  -18.8108   26.9013 C   0  0  0  0  0  0  0  0  0  0  0  0
   13.6653  -19.5905   27.0664 O   0  0  0  0  0  0  0  0  0  0  0  0
   15.1508  -18.3920   22.0821 O   0  0  0  0  0  0  0  0  0  0  0  0
   12.1755  -18.2236   28.0444 O   0  0  0  0  0  0  0  0  0  0  0  0
  2  1  1  0
  3  2  1  0
  3  4  1  6
  5  3  1  0
  5  6  1  1
  7  5  1  0
  7  8  2  0
  9  7  1  0
 10  9  1  0
 10 21  1  0
 10 11  1  1
 12 11  1  0
 13 12  2  0
 14 13  1  0
 15 14  1  0
 15 20  2  0
 16 15  1  0
 17 16  2  0
 17 18  1  0
 18 19  2  0
 19 20  1  0
 20 12  1  0
 21 23  1  0
 22 21  2  0
 23 24  1  0
 24 29  1  0
 24 25  1  6
 26 25  1  0
 27 28  2  0
 27 26  1  0
 29 30  2  0
 29 32  1  0
 31 27  1  0
M  END
$$$$
