IWE.pdb
     RDKit          3D

 32 33  0  0  1  0  0  0  0  0999 V2000
    7.6837  -12.8823   18.0922 C   0  0  0  0  0  0  0  0  0  0  0  0
    7.2002  -13.9603   19.0251 C   0  0  0  0  0  0  0  0  0  0  0  0
    8.0029  -14.0383   20.2787 C   0  0  2  0  0  0  0  0  0  0  0  0
    9.4689  -14.1364   19.9729 C   0  0  0  0  0  0  0  0  0  0  0  0
    7.5138  -15.1363   21.2045 C   0  0  2  0  0  0  0  0  0  0  0  0
    6.1158  -15.2909   21.2579 N   0  0  0  0  0  0  0  0  0  0  0  0
    8.2166  -14.9586   22.4970 C   0  0  0  0  0  0  0  0  0  0  0  0
    8.4823  -13.7699   22.9157 O   0  0  0  0  0  0  0  0  0  0  0  0
    8.6493  -15.9864   23.3663 N   0  0  0  0  0  0  0  0  0  0  0  0
    9.3728  -15.7068   24.5962 C   0  0  1  0  0  0  0  0  0  0  0  0
    8.5496  -15.9725   25.8130 C   0  0  0  0  0  0  0  0  0  0  0  0
    7.3366  -15.1783   25.9680 C   0  0  0  0  0  0  0  0  0  0  0  0
    6.0009  -15.4576   25.8473 C   0  0  0  0  0  0  0  0  0  0  0  0
    5.2856  -14.3427   26.1091 N   0  0  0  0  0  0  0  0  0  0  0  0
    6.1265  -13.3437   26.3977 C   0  0  0  0  0  0  0  0  0  0  0  0
    5.8892  -12.0250   26.7279 C   0  0  0  0  0  0  0  0  0  0  0  0
    6.9546  -11.1762   26.9842 C   0  0  0  0  0  0  0  0  0  0  0  0
    8.2587  -11.6280   26.9151 C   0  0  0  0  0  0  0  0  0  0  0  0
    8.4460  -12.9480   26.5828 C   0  0  0  0  0  0  0  0  0  0  0  0
    7.4115  -13.8209   26.3210 C   0  0  0  0  0  0  0  0  0  0  0  0
   10.7167  -16.3336   24.6360 C   0  0  0  0  0  0  0  0  0  0  0  0
   11.3605  -16.1902   25.7230 O   0  0  0  0  0  0  0  0  0  0  0  0
   11.2574  -17.0406   23.5585 N   0  0  0  0  0  0  0  0  0  0  0  0
   12.6329  -17.5774   23.6462 C   0  0  1  0  0  0  0  0  0  0  0  0
   13.5887  -16.4937   23.3124 C   0  0  0  0  0  0  0  0  0  0  0  0
   15.0277  -16.7233   23.5118 C   0  0  0  0  0  0  0  0  0  0  0  0
   15.8921  -15.9846   22.5991 C   0  0  0  0  0  0  0  0  0  0  0  0
   15.4559  -15.1722   21.7630 O   0  0  0  0  0  0  0  0  0  0  0  0
   12.7832  -18.1737   24.9553 C   0  0  0  0  0  0  0  0  0  0  0  0
   13.0280  -19.4145   25.0686 O   0  0  0  0  0  0  0  0  0  0  0  0
   17.2745  -16.1912   22.6673 O   0  0  0  0  0  0  0  0  0  0  0  0
   12.6863  -17.4685   26.1368 O   0  0  0  0  0  0  0  0  0  0  0  0
  2  1  1  0
  3  2  1  0
  3  4  1  6
  5  3  1  0
  5  6  1  1
  7  5  1  0
  7  8  2  0
  9  7  1  0
 10  9  1  0
 10 21  1  0
 10 11  1  1
 12 11  1  0
 13 12  2  0
 14 13  1  0
 15 14  1  0
 15 20  2  0
 16 15  1  0
 17 16  2  0
 17 18  1  0
 18 19  2  0
 19 20  1  0
 20 12  1  0
 21 23  1  0
 22 21  2  0
 23 24  1  0
 24 29  1  0
 24 25  1  1
 26 25  1  0
 27 28  2  0
 27 26  1  0
 29 30  2  0
 29 32  1  0
 31 27  1  0
M  END
$$$$
