IWE.pdb
     RDKit          3D

 32 33  0  0  1  0  0  0  0  0999 V2000
    6.7537  -11.5877   18.8475 C   0  0  0  0  0  0  0  0  0  0  0  0
    7.1541  -13.0336   18.9696 C   0  0  0  0  0  0  0  0  0  0  0  0
    7.7120  -13.3643   20.3118 C   0  0  2  0  0  0  0  0  0  0  0  0
    8.8686  -12.4692   20.6485 C   0  0  0  0  0  0  0  0  0  0  0  0
    8.0423  -14.8390   20.4472 C   0  0  2  0  0  0  0  0  0  0  0  0
    7.0321  -15.7175   20.0122 N   0  0  0  0  0  0  0  0  0  0  0  0
    8.5599  -15.0429   21.8206 C   0  0  0  0  0  0  0  0  0  0  0  0
    9.7144  -14.5695   22.1396 O   0  0  0  0  0  0  0  0  0  0  0  0
    7.9063  -15.7262   22.8720 N   0  0  0  0  0  0  0  0  0  0  0  0
    8.5089  -15.8832   24.1859 C   0  0  1  0  0  0  0  0  0  0  0  0
    7.4882  -16.0188   25.2669 C   0  0  0  0  0  0  0  0  0  0  0  0
    7.9922  -16.1700   26.6269 C   0  0  0  0  0  0  0  0  0  0  0  0
    8.1462  -17.2426   27.4651 C   0  0  0  0  0  0  0  0  0  0  0  0
    8.6750  -16.8235   28.6347 N   0  0  0  0  0  0  0  0  0  0  0  0
    8.8685  -15.5016   28.5761 C   0  0  0  0  0  0  0  0  0  0  0  0
    9.3772  -14.6172   29.5054 C   0  0  0  0  0  0  0  0  0  0  0  0
    9.4737  -13.2700   29.1941 C   0  0  0  0  0  0  0  0  0  0  0  0
    9.0677  -12.7921   27.9626 C   0  0  0  0  0  0  0  0  0  0  0  0
    8.5681  -13.7094   27.0700 C   0  0  0  0  0  0  0  0  0  0  0  0
    8.4569  -15.0558   27.3446 C   0  0  0  0  0  0  0  0  0  0  0  0
    9.5600  -16.9293   24.2227 C   0  0  0  0  0  0  0  0  0  0  0  0
    9.2617  -18.0312   23.6629 O   0  0  0  0  0  0  0  0  0  0  0  0
   10.8043  -16.7350   24.8288 N   0  0  0  0  0  0  0  0  0  0  0  0
   11.7718  -17.8515   24.8978 C   0  0  1  0  0  0  0  0  0  0  0  0
   13.0146  -17.4482   24.1963 C   0  0  0  0  0  0  0  0  0  0  0  0
   12.9642  -17.1780   22.7513 C   0  0  0  0  0  0  0  0  0  0  0  0
   14.2463  -16.8200   22.1561 C   0  0  0  0  0  0  0  0  0  0  0  0
   15.0003  -15.9573   22.6422 O   0  0  0  0  0  0  0  0  0  0  0  0
   11.9192  -18.2124   26.2907 C   0  0  0  0  0  0  0  0  0  0  0  0
   11.3372  -17.5337   27.1923 O   0  0  0  0  0  0  0  0  0  0  0  0
   14.6527  -17.4778   20.9897 O   0  0  0  0  0  0  0  0  0  0  0  0
   12.6657  -19.2852   26.7318 O   0  0  0  0  0  0  0  0  0  0  0  0
  2  1  1  0
  3  2  1  0
  3  4  1  6
  5  3  1  0
  5  6  1  1
  7  5  1  0
  7  8  2  0
  9  7  1  0
 10  9  1  0
 10 21  1  0
 10 11  1  1
 12 11  1  0
 13 12  2  0
 14 13  1  0
 15 14  1  0
 15 20  2  0
 16 15  1  0
 17 16  2  0
 17 18  1  0
 18 19  2  0
 19 20  1  0
 20 12  1  0
 21 23  1  0
 22 21  2  0
 23 24  1  0
 24 29  1  0
 24 25  1  1
 26 25  1  0
 27 28  2  0
 27 26  1  0
 29 30  2  0
 29 32  1  0
 31 27  1  0
M  END
$$$$
