IWE.pdb
     RDKit          3D

 32 33  0  0  1  0  0  0  0  0999 V2000
    7.7625  -12.0731   20.5662 C   0  0  0  0  0  0  0  0  0  0  0  0
    7.6039  -13.4699   21.1046 C   0  0  0  0  0  0  0  0  0  0  0  0
    8.3290  -14.4859   20.2896 C   0  0  2  0  0  0  0  0  0  0  0  0
    7.9205  -14.4093   18.8476 C   0  0  0  0  0  0  0  0  0  0  0  0
    8.2026  -15.8820   20.8702 C   0  0  2  0  0  0  0  0  0  0  0  0
    6.9042  -16.4246   20.8381 N   0  0  0  0  0  0  0  0  0  0  0  0
    8.8896  -15.8692   22.1831 C   0  0  0  0  0  0  0  0  0  0  0  0
   10.0085  -15.2434   22.3069 O   0  0  0  0  0  0  0  0  0  0  0  0
    8.4416  -16.4902   23.3718 N   0  0  0  0  0  0  0  0  0  0  0  0
    9.1811  -16.3968   24.6203 C   0  0  1  0  0  0  0  0  0  0  0  0
    8.2820  -16.3443   25.8110 C   0  0  0  0  0  0  0  0  0  0  0  0
    7.2204  -15.3450   25.7851 C   0  0  0  0  0  0  0  0  0  0  0  0
    5.8633  -15.4105   25.6096 C   0  0  0  0  0  0  0  0  0  0  0  0
    5.3424  -14.1670   25.6838 N   0  0  0  0  0  0  0  0  0  0  0  0
    6.3308  -13.2933   25.9037 C   0  0  0  0  0  0  0  0  0  0  0  0
    6.3125  -11.9216   26.0528 C   0  0  0  0  0  0  0  0  0  0  0  0
    7.4969  -11.2365   26.2743 C   0  0  0  0  0  0  0  0  0  0  0  0
    8.7039  -11.9052   26.3495 C   0  0  0  0  0  0  0  0  0  0  0  0
    8.6729  -13.2701   26.1950 C   0  0  0  0  0  0  0  0  0  0  0  0
    7.5149  -13.9846   25.9731 C   0  0  0  0  0  0  0  0  0  0  0  0
   10.2625  -17.4060   24.7330 C   0  0  0  0  0  0  0  0  0  0  0  0
   10.0877  -18.3061   25.6139 O   0  0  0  0  0  0  0  0  0  0  0  0
   11.4071  -17.3856   23.9313 N   0  0  0  0  0  0  0  0  0  0  0  0
   12.4013  -18.4753   24.0399 C   0  0  1  0  0  0  0  0  0  0  0  0
   13.2738  -18.4445   22.8411 C   0  0  0  0  0  0  0  0  0  0  0  0
   14.1225  -17.2666   22.6047 C   0  0  0  0  0  0  0  0  0  0  0  0
   14.9282  -17.3332   21.3913 C   0  0  0  0  0  0  0  0  0  0  0  0
   14.5978  -16.7758   20.3286 O   0  0  0  0  0  0  0  0  0  0  0  0
   13.0698  -18.3271   25.3139 C   0  0  0  0  0  0  0  0  0  0  0  0
   12.8514  -17.3057   26.0359 O   0  0  0  0  0  0  0  0  0  0  0  0
   16.1298  -18.0499   21.4209 O   0  0  0  0  0  0  0  0  0  0  0  0
   13.9546  -19.2513   25.8297 O   0  0  0  0  0  0  0  0  0  0  0  0
  2  1  1  0
  3  2  1  0
  3  4  1  6
  5  3  1  0
  5  6  1  1
  7  5  1  0
  7  8  2  0
  9  7  1  0
 10  9  1  0
 10 21  1  0
 10 11  1  1
 12 11  1  0
 13 12  2  0
 14 13  1  0
 15 14  1  0
 15 20  2  0
 16 15  1  0
 17 16  2  0
 17 18  1  0
 18 19  2  0
 19 20  1  0
 20 12  1  0
 21 23  1  0
 22 21  2  0
 23 24  1  0
 24 29  1  0
 24 25  1  6
 26 25  1  0
 27 28  2  0
 27 26  1  0
 29 30  2  0
 29 32  1  0
 31 27  1  0
M  END
$$$$
