IWE.pdb
     RDKit          3D

 32 33  0  0  1  0  0  0  0  0999 V2000
    6.5166  -12.3345   19.2806 C   0  0  0  0  0  0  0  0  0  0  0  0
    6.8214  -13.7872   19.5310 C   0  0  0  0  0  0  0  0  0  0  0  0
    7.7833  -13.9879   20.6520 C   0  0  2  0  0  0  0  0  0  0  0  0
    9.0715  -13.2636   20.3910 C   0  0  0  0  0  0  0  0  0  0  0  0
    7.9822  -15.4558   20.9799 C   0  0  2  0  0  0  0  0  0  0  0  0
    6.8024  -16.2225   21.0177 N   0  0  0  0  0  0  0  0  0  0  0  0
    8.8588  -15.5185   22.1731 C   0  0  0  0  0  0  0  0  0  0  0  0
   10.0203  -14.9632   22.1361 O   0  0  0  0  0  0  0  0  0  0  0  0
    8.5573  -16.1434   23.4051 N   0  0  0  0  0  0  0  0  0  0  0  0
    9.4975  -16.1624   24.5141 C   0  0  1  0  0  0  0  0  0  0  0  0
    8.8195  -16.0215   25.8367 C   0  0  0  0  0  0  0  0  0  0  0  0
    7.6056  -15.2141   25.8665 C   0  0  0  0  0  0  0  0  0  0  0  0
    6.2750  -15.4999   25.7098 C   0  0  0  0  0  0  0  0  0  0  0  0
    5.5556  -14.3648   25.8406 N   0  0  0  0  0  0  0  0  0  0  0  0
    6.3888  -13.3462   26.0790 C   0  0  0  0  0  0  0  0  0  0  0  0
    6.1450  -12.0032   26.2817 C   0  0  0  0  0  0  0  0  0  0  0  0
    7.2029  -11.1376   26.5112 C   0  0  0  0  0  0  0  0  0  0  0  0
    8.5060  -11.5967   26.5413 C   0  0  0  0  0  0  0  0  0  0  0  0
    8.6999  -12.9411   26.3343 C   0  0  0  0  0  0  0  0  0  0  0  0
    7.6729  -13.8312   26.1028 C   0  0  0  0  0  0  0  0  0  0  0  0
   10.4504  -17.2975   24.4498 C   0  0  0  0  0  0  0  0  0  0  0  0
    9.9446  -18.4266   24.1563 O   0  0  0  0  0  0  0  0  0  0  0  0
   11.8193  -17.1549   24.6926 N   0  0  0  0  0  0  0  0  0  0  0  0
   12.7253  -18.3078   24.4984 C   0  0  1  0  0  0  0  0  0  0  0  0
   13.8012  -17.9140   23.5567 C   0  0  0  0  0  0  0  0  0  0  0  0
   14.6340  -16.7433   23.8720 C   0  0  0  0  0  0  0  0  0  0  0  0
   15.7021  -16.4831   22.9142 C   0  0  0  0  0  0  0  0  0  0  0  0
   15.9025  -17.1965   21.9141 O   0  0  0  0  0  0  0  0  0  0  0  0
   13.1579  -18.7449   25.8075 C   0  0  0  0  0  0  0  0  0  0  0  0
   13.9554  -19.7263   25.9229 O   0  0  0  0  0  0  0  0  0  0  0  0
   16.5375  -15.3799   23.1224 O   0  0  0  0  0  0  0  0  0  0  0  0
   12.7623  -18.1483   26.9866 O   0  0  0  0  0  0  0  0  0  0  0  0
  2  1  1  0
  3  2  1  0
  3  4  1  6
  5  3  1  0
  5  6  1  1
  7  5  1  0
  7  8  2  0
  9  7  1  0
 10  9  1  0
 10 21  1  0
 10 11  1  1
 12 11  1  0
 13 12  2  0
 14 13  1  0
 15 14  1  0
 15 20  2  0
 16 15  1  0
 17 16  2  0
 17 18  1  0
 18 19  2  0
 19 20  1  0
 20 12  1  0
 21 23  1  0
 22 21  2  0
 23 24  1  0
 24 29  1  0
 24 25  1  6
 26 25  1  0
 27 28  2  0
 27 26  1  0
 29 30  2  0
 29 32  1  0
 31 27  1  0
M  END
$$$$
