IWE.pdb
     RDKit          3D

 32 33  0  0  1  0  0  0  0  0999 V2000
    8.3918  -16.6831   17.4099 C   0  0  0  0  0  0  0  0  0  0  0  0
    7.5199  -16.1797   18.5290 C   0  0  0  0  0  0  0  0  0  0  0  0
    8.2259  -16.1561   19.8417 C   0  0  2  0  0  0  0  0  0  0  0  0
    8.9713  -17.4377   20.0742 C   0  0  0  0  0  0  0  0  0  0  0  0
    7.2971  -15.7924   20.9850 C   0  0  2  0  0  0  0  0  0  0  0  0
    6.5055  -14.6490   20.7680 N   0  0  0  0  0  0  0  0  0  0  0  0
    8.1063  -15.8197   22.2262 C   0  0  0  0  0  0  0  0  0  0  0  0
    9.0097  -14.9211   22.4137 O   0  0  0  0  0  0  0  0  0  0  0  0
    7.9987  -16.7578   23.2787 N   0  0  0  0  0  0  0  0  0  0  0  0
    8.9029  -16.7509   24.4174 C   0  0  1  0  0  0  0  0  0  0  0  0
    8.2039  -16.4278   25.6964 C   0  0  0  0  0  0  0  0  0  0  0  0
    7.2502  -15.3253   25.6599 C   0  0  0  0  0  0  0  0  0  0  0  0
    5.9165  -15.2375   25.3596 C   0  0  0  0  0  0  0  0  0  0  0  0
    5.5122  -13.9560   25.4909 N   0  0  0  0  0  0  0  0  0  0  0  0
    6.5536  -13.2075   25.8702 C   0  0  0  0  0  0  0  0  0  0  0  0
    6.6521  -11.8561   26.1314 C   0  0  0  0  0  0  0  0  0  0  0  0
    7.8695  -11.3150   26.5139 C   0  0  0  0  0  0  0  0  0  0  0  0
    8.9941  -12.1082   26.6399 C   0  0  0  0  0  0  0  0  0  0  0  0
    8.8478  -13.4474   26.3697 C   0  0  0  0  0  0  0  0  0  0  0  0
    7.6538  -14.0203   25.9866 C   0  0  0  0  0  0  0  0  0  0  0  0
    9.7537  -17.9638   24.4920 C   0  0  0  0  0  0  0  0  0  0  0  0
    9.4036  -18.9304   23.7439 O   0  0  0  0  0  0  0  0  0  0  0  0
   10.8723  -18.0570   25.3247 N   0  0  0  0  0  0  0  0  0  0  0  0
   12.1552  -18.5536   24.7813 C   0  0  1  0  0  0  0  0  0  0  0  0
   12.5952  -17.6450   23.6949 C   0  0  0  0  0  0  0  0  0  0  0  0
   13.9185  -17.8477   23.0857 C   0  0  0  0  0  0  0  0  0  0  0  0
   13.8988  -18.0308   21.6393 C   0  0  0  0  0  0  0  0  0  0  0  0
   12.8946  -18.4299   21.0217 O   0  0  0  0  0  0  0  0  0  0  0  0
   13.0689  -18.7013   25.8927 C   0  0  0  0  0  0  0  0  0  0  0  0
   13.9740  -19.5914   25.8627 O   0  0  0  0  0  0  0  0  0  0  0  0
   15.0568  -17.7404   20.9092 O   0  0  0  0  0  0  0  0  0  0  0  0
   13.0374  -17.9123   27.0237 O   0  0  0  0  0  0  0  0  0  0  0  0
  2  1  1  0
  3  2  1  0
  3  4  1  1
  5  3  1  0
  5  6  1  6
  7  5  1  0
  7  8  2  0
  9  7  1  0
 10  9  1  0
 10 21  1  0
 10 11  1  1
 12 11  1  0
 13 12  2  0
 14 13  1  0
 15 14  1  0
 15 20  2  0
 16 15  1  0
 17 16  2  0
 17 18  1  0
 18 19  2  0
 19 20  1  0
 20 12  1  0
 21 23  1  0
 22 21  2  0
 23 24  1  0
 24 29  1  0
 24 25  1  6
 26 25  1  0
 27 28  2  0
 27 26  1  0
 29 30  2  0
 29 32  1  0
 31 27  1  0
M  END
$$$$
