IWE.pdb
     RDKit          3D

 32 33  0  0  1  0  0  0  0  0999 V2000
    7.4845  -12.2284   18.7446 C   0  0  0  0  0  0  0  0  0  0  0  0
    7.5020  -13.5439   19.4761 C   0  0  0  0  0  0  0  0  0  0  0  0
    8.4135  -14.5405   18.8451 C   0  0  2  0  0  0  0  0  0  0  0  0
    8.1565  -14.6457   17.3703 C   0  0  0  0  0  0  0  0  0  0  0  0
    8.3732  -15.8820   19.5529 C   0  0  2  0  0  0  0  0  0  0  0  0
    7.2008  -16.6316   19.3415 N   0  0  0  0  0  0  0  0  0  0  0  0
    8.7681  -15.6412   20.9608 C   0  0  0  0  0  0  0  0  0  0  0  0
    9.9237  -15.1336   21.2169 O   0  0  0  0  0  0  0  0  0  0  0  0
    7.9904  -15.9139   22.1098 N   0  0  0  0  0  0  0  0  0  0  0  0
    8.4814  -15.6612   23.4549 C   0  0  1  0  0  0  0  0  0  0  0  0
    7.3898  -15.6884   24.4730 C   0  0  0  0  0  0  0  0  0  0  0  0
    7.7022  -15.1266   25.7818 C   0  0  0  0  0  0  0  0  0  0  0  0
    8.3193  -15.6206   26.9007 C   0  0  0  0  0  0  0  0  0  0  0  0
    8.3561  -14.6620   27.8509 N   0  0  0  0  0  0  0  0  0  0  0  0
    7.7764  -13.5547   27.3750 C   0  0  0  0  0  0  0  0  0  0  0  0
    7.5669  -12.3199   27.9542 C   0  0  0  0  0  0  0  0  0  0  0  0
    6.9280  -11.3212   27.2361 C   0  0  0  0  0  0  0  0  0  0  0  0
    6.4939  -11.5397   25.9425 C   0  0  0  0  0  0  0  0  0  0  0  0
    6.7244  -12.7842   25.4077 C   0  0  0  0  0  0  0  0  0  0  0  0
    7.3558  -13.8012   26.0916 C   0  0  0  0  0  0  0  0  0  0  0  0
    9.6530  -16.4975   23.8134 C   0  0  0  0  0  0  0  0  0  0  0  0
    9.3947  -17.7001   24.1354 O   0  0  0  0  0  0  0  0  0  0  0  0
   10.9638  -16.0128   23.8035 N   0  0  0  0  0  0  0  0  0  0  0  0
   12.0820  -16.9069   24.1748 C   0  0  1  0  0  0  0  0  0  0  0  0
   13.3602  -16.1909   23.9448 C   0  0  0  0  0  0  0  0  0  0  0  0
   14.6184  -16.8172   24.3784 C   0  0  0  0  0  0  0  0  0  0  0  0
   15.8158  -16.2711   23.7505 C   0  0  0  0  0  0  0  0  0  0  0  0
   15.9152  -16.0955   22.5223 O   0  0  0  0  0  0  0  0  0  0  0  0
   11.8443  -17.3601   25.5276 C   0  0  0  0  0  0  0  0  0  0  0  0
   12.2686  -18.4956   25.9056 O   0  0  0  0  0  0  0  0  0  0  0  0
   16.9010  -15.9226   24.5623 O   0  0  0  0  0  0  0  0  0  0  0  0
   11.1735  -16.6204   26.4793 O   0  0  0  0  0  0  0  0  0  0  0  0
  2  1  1  0
  3  2  1  0
  3  4  1  6
  5  3  1  0
  5  6  1  1
  7  5  1  0
  7  8  2  0
  9  7  1  0
 10  9  1  0
 10 21  1  0
 10 11  1  1
 12 11  1  0
 13 12  2  0
 14 13  1  0
 15 14  1  0
 15 20  2  0
 16 15  1  0
 17 16  2  0
 17 18  1  0
 18 19  2  0
 19 20  1  0
 20 12  1  0
 21 23  1  0
 22 21  2  0
 23 24  1  0
 24 29  1  0
 24 25  1  1
 26 25  1  0
 27 28  2  0
 27 26  1  0
 29 30  2  0
 29 32  1  0
 31 27  1  0
M  END
$$$$
