IWE.pdb
     RDKit          3D

 32 33  0  0  1  0  0  0  0  0999 V2000
   10.2889  -20.0908   17.5926 C   0  0  0  0  0  0  0  0  0  0  0  0
    9.6247  -18.7407   17.6378 C   0  0  0  0  0  0  0  0  0  0  0  0
    9.7349  -18.0901   18.9745 C   0  0  2  0  0  0  0  0  0  0  0  0
    9.2924  -19.0224   20.0641 C   0  0  0  0  0  0  0  0  0  0  0  0
    9.0296  -16.7475   19.0178 C   0  0  2  0  0  0  0  0  0  0  0  0
    9.4002  -15.8474   18.0011 N   0  0  0  0  0  0  0  0  0  0  0  0
    9.1203  -16.2550   20.4125 C   0  0  0  0  0  0  0  0  0  0  0  0
   10.2042  -15.6876   20.8150 O   0  0  0  0  0  0  0  0  0  0  0  0
    8.1112  -16.3366   21.3996 N   0  0  0  0  0  0  0  0  0  0  0  0
    8.2940  -15.8028   22.7397 C   0  0  1  0  0  0  0  0  0  0  0  0
    6.9977  -15.4649   23.3987 C   0  0  0  0  0  0  0  0  0  0  0  0
    7.0553  -15.1120   24.8124 C   0  0  0  0  0  0  0  0  0  0  0  0
    7.1203  -15.8441   25.9685 C   0  0  0  0  0  0  0  0  0  0  0  0
    7.1603  -15.0062   27.0265 N   0  0  0  0  0  0  0  0  0  0  0  0
    7.1228  -13.7446   26.5844 C   0  0  0  0  0  0  0  0  0  0  0  0
    7.1383  -12.5441   27.2648 C   0  0  0  0  0  0  0  0  0  0  0  0
    7.0874  -11.3517   26.5600 C   0  0  0  0  0  0  0  0  0  0  0  0
    7.0211  -11.3417   25.1797 C   0  0  0  0  0  0  0  0  0  0  0  0
    7.0080  -12.5606   24.5458 C   0  0  0  0  0  0  0  0  0  0  0  0
    7.0570  -13.7659   25.2133 C   0  0  0  0  0  0  0  0  0  0  0  0
    9.1919  -16.6330   23.5793 C   0  0  0  0  0  0  0  0  0  0  0  0
    8.9513  -17.8815   23.5770 O   0  0  0  0  0  0  0  0  0  0  0  0
   10.2404  -16.0958   24.3312 N   0  0  0  0  0  0  0  0  0  0  0  0
   11.1653  -16.9965   25.0530 C   0  0  1  0  0  0  0  0  0  0  0  0
   12.5588  -16.6179   24.7149 C   0  0  0  0  0  0  0  0  0  0  0  0
   13.0426  -16.8252   23.3415 C   0  0  0  0  0  0  0  0  0  0  0  0
   14.4182  -16.3996   23.1122 C   0  0  0  0  0  0  0  0  0  0  0  0
   14.9221  -16.3228   21.9767 O   0  0  0  0  0  0  0  0  0  0  0  0
   10.8169  -16.9426   26.4557 C   0  0  0  0  0  0  0  0  0  0  0  0
   11.4750  -17.6196   27.3048 O   0  0  0  0  0  0  0  0  0  0  0  0
   15.2081  -16.0560   24.2151 O   0  0  0  0  0  0  0  0  0  0  0  0
    9.7896  -16.1748   26.9635 O   0  0  0  0  0  0  0  0  0  0  0  0
  2  1  1  0
  3  2  1  0
  3  4  1  1
  5  3  1  0
  5  6  1  6
  7  5  1  0
  7  8  2  0
  9  7  1  0
 10  9  1  0
 10 21  1  0
 10 11  1  1
 12 11  1  0
 13 12  2  0
 14 13  1  0
 15 14  1  0
 15 20  2  0
 16 15  1  0
 17 16  2  0
 17 18  1  0
 18 19  2  0
 19 20  1  0
 20 12  1  0
 21 23  1  0
 22 21  2  0
 23 24  1  0
 24 29  1  0
 24 25  1  1
 26 25  1  0
 27 28  2  0
 27 26  1  0
 29 30  2  0
 29 32  1  0
 31 27  1  0
M  END
$$$$
