IWE.pdb
     RDKit          3D

 32 33  0  0  1  0  0  0  0  0999 V2000
    8.7054  -21.4314   19.0021 C   0  0  0  0  0  0  0  0  0  0  0  0
    8.6214  -19.9478   18.7618 C   0  0  0  0  0  0  0  0  0  0  0  0
    9.1797  -19.1500   19.8905 C   0  0  2  0  0  0  0  0  0  0  0  0
    8.5400  -19.5385   21.1913 C   0  0  0  0  0  0  0  0  0  0  0  0
    9.1213  -17.6580   19.6212 C   0  0  2  0  0  0  0  0  0  0  0  0
    9.7026  -17.2494   18.4062 N   0  0  0  0  0  0  0  0  0  0  0  0
    9.5922  -16.9770   20.8502 C   0  0  0  0  0  0  0  0  0  0  0  0
   10.8526  -16.9441   21.1131 O   0  0  0  0  0  0  0  0  0  0  0  0
    8.7851  -16.3277   21.8126 N   0  0  0  0  0  0  0  0  0  0  0  0
    9.3499  -15.6685   22.9791 C   0  0  1  0  0  0  0  0  0  0  0  0
    8.6204  -14.4148   23.3326 C   0  0  0  0  0  0  0  0  0  0  0  0
    7.6324  -14.5122   24.4006 C   0  0  0  0  0  0  0  0  0  0  0  0
    6.8431  -15.5289   24.8697 C   0  0  0  0  0  0  0  0  0  0  0  0
    6.0980  -15.0770   25.9010 N   0  0  0  0  0  0  0  0  0  0  0  0
    6.3850  -13.7882   26.1137 C   0  0  0  0  0  0  0  0  0  0  0  0
    5.8948  -12.8906   27.0400 C   0  0  0  0  0  0  0  0  0  0  0  0
    6.3635  -11.5862   27.0509 C   0  0  0  0  0  0  0  0  0  0  0  0
    7.3190  -11.1645   26.1461 C   0  0  0  0  0  0  0  0  0  0  0  0
    7.7774  -12.0930   25.2429 C   0  0  0  0  0  0  0  0  0  0  0  0
    7.3344  -13.3979   25.2020 C   0  0  0  0  0  0  0  0  0  0  0  0
    9.5494  -16.5869   24.1268 C   0  0  0  0  0  0  0  0  0  0  0  0
    8.6030  -17.4066   24.3486 O   0  0  0  0  0  0  0  0  0  0  0  0
   10.6968  -16.5677   24.9246 N   0  0  0  0  0  0  0  0  0  0  0  0
   10.8934  -17.6092   25.9563 C   0  0  1  0  0  0  0  0  0  0  0  0
   12.1183  -18.3783   25.6285 C   0  0  0  0  0  0  0  0  0  0  0  0
   13.2441  -17.6878   24.9810 C   0  0  0  0  0  0  0  0  0  0  0  0
   14.4014  -18.5334   24.7134 C   0  0  0  0  0  0  0  0  0  0  0  0
   14.4086  -19.7588   24.9313 O   0  0  0  0  0  0  0  0  0  0  0  0
   10.8843  -16.9511   27.2442 C   0  0  0  0  0  0  0  0  0  0  0  0
   10.7483  -15.6908   27.3176 O   0  0  0  0  0  0  0  0  0  0  0  0
   15.5550  -17.9454   24.1826 O   0  0  0  0  0  0  0  0  0  0  0  0
   11.0076  -17.6147   28.4472 O   0  0  0  0  0  0  0  0  0  0  0  0
  2  1  1  0
  3  2  1  0
  3  4  1  1
  5  3  1  0
  5  6  1  6
  7  5  1  0
  7  8  2  0
  9  7  1  0
 10  9  1  0
 10 21  1  0
 10 11  1  1
 12 11  1  0
 13 12  2  0
 14 13  1  0
 15 14  1  0
 15 20  2  0
 16 15  1  0
 17 16  2  0
 17 18  1  0
 18 19  2  0
 19 20  1  0
 20 12  1  0
 21 23  1  0
 22 21  2  0
 23 24  1  0
 24 29  1  0
 24 25  1  6
 26 25  1  0
 27 28  2  0
 27 26  1  0
 29 30  2  0
 29 32  1  0
 31 27  1  0
M  END
$$$$
