IWE.pdb
     RDKit          3D

 32 33  0  0  1  0  0  0  0  0999 V2000
    9.0173  -16.2128   15.3900 C   0  0  0  0  0  0  0  0  0  0  0  0
    8.4019  -15.0633   16.1423 C   0  0  0  0  0  0  0  0  0  0  0  0
    8.6028  -15.1672   17.6157 C   0  0  2  0  0  0  0  0  0  0  0  0
    8.1610  -16.5079   18.1251 C   0  0  0  0  0  0  0  0  0  0  0  0
    7.9691  -14.0088   18.3631 C   0  0  2  0  0  0  0  0  0  0  0  0
    8.2785  -12.7327   17.8559 N   0  0  0  0  0  0  0  0  0  0  0  0
    8.2214  -14.2340   19.8059 C   0  0  0  0  0  0  0  0  0  0  0  0
    9.4025  -14.0384   20.2809 O   0  0  0  0  0  0  0  0  0  0  0  0
    7.2755  -14.6565   20.7682 N   0  0  0  0  0  0  0  0  0  0  0  0
    7.6172  -14.8138   22.1728 C   0  0  1  0  0  0  0  0  0  0  0  0
    6.4257  -14.6953   23.0645 C   0  0  0  0  0  0  0  0  0  0  0  0
    6.6615  -14.8509   24.4950 C   0  0  0  0  0  0  0  0  0  0  0  0
    6.7728  -15.9366   25.3231 C   0  0  0  0  0  0  0  0  0  0  0  0
    7.0020  -15.5146   26.5850 N   0  0  0  0  0  0  0  0  0  0  0  0
    7.0425  -14.1779   26.5966 C   0  0  0  0  0  0  0  0  0  0  0  0
    7.2443  -13.2853   27.6294 C   0  0  0  0  0  0  0  0  0  0  0  0
    7.2380  -11.9230   27.3743 C   0  0  0  0  0  0  0  0  0  0  0  0
    7.0324  -11.4379   26.0968 C   0  0  0  0  0  0  0  0  0  0  0  0
    6.8360  -12.3639   25.1008 C   0  0  0  0  0  0  0  0  0  0  0  0
    6.8352  -13.7254   25.3171 C   0  0  0  0  0  0  0  0  0  0  0  0
    8.4450  -16.0156   22.4391 C   0  0  0  0  0  0  0  0  0  0  0  0
    8.3212  -16.9670   21.6047 O   0  0  0  0  0  0  0  0  0  0  0  0
    9.3113  -16.1145   23.5314 N   0  0  0  0  0  0  0  0  0  0  0  0
   10.3982  -17.1175   23.5204 C   0  0  1  0  0  0  0  0  0  0  0  0
   11.2206  -16.9145   22.3031 C   0  0  0  0  0  0  0  0  0  0  0  0
   12.4369  -17.7209   22.1194 C   0  0  0  0  0  0  0  0  0  0  0  0
   13.1194  -17.5085   20.8486 C   0  0  0  0  0  0  0  0  0  0  0  0
   12.5252  -17.1617   19.8114 O   0  0  0  0  0  0  0  0  0  0  0  0
   11.0976  -17.0132   24.7821 C   0  0  0  0  0  0  0  0  0  0  0  0
   12.1011  -17.7540   25.0204 O   0  0  0  0  0  0  0  0  0  0  0  0
   14.5049  -17.6963   20.7902 O   0  0  0  0  0  0  0  0  0  0  0  0
   10.7503  -16.1294   25.7826 O   0  0  0  0  0  0  0  0  0  0  0  0
  2  1  1  0
  3  2  1  0
  3  4  1  1
  5  3  1  0
  5  6  1  6
  7  5  1  0
  7  8  2  0
  9  7  1  0
 10  9  1  0
 10 21  1  0
 10 11  1  1
 12 11  1  0
 13 12  2  0
 14 13  1  0
 15 14  1  0
 15 20  2  0
 16 15  1  0
 17 16  2  0
 17 18  1  0
 18 19  2  0
 19 20  1  0
 20 12  1  0
 21 23  1  0
 22 21  2  0
 23 24  1  0
 24 29  1  0
 24 25  1  6
 26 25  1  0
 27 28  2  0
 27 26  1  0
 29 30  2  0
 29 32  1  0
 31 27  1  0
M  END
$$$$
