IWE.pdb
     RDKit          3D

 32 33  0  0  1  0  0  0  0  0999 V2000
   10.0694  -20.7944   17.9573 C   0  0  0  0  0  0  0  0  0  0  0  0
    9.7326  -19.3376   17.7837 C   0  0  0  0  0  0  0  0  0  0  0  0
    9.7783  -18.5801   19.0668 C   0  0  2  0  0  0  0  0  0  0  0  0
    8.9310  -19.2434   20.1129 C   0  0  0  0  0  0  0  0  0  0  0  0
    9.4476  -17.1116   18.8769 C   0  0  2  0  0  0  0  0  0  0  0  0
   10.1311  -16.4793   17.8213 N   0  0  0  0  0  0  0  0  0  0  0  0
    9.5375  -16.4711   20.2103 C   0  0  0  0  0  0  0  0  0  0  0  0
   10.6936  -16.2769   20.7434 O   0  0  0  0  0  0  0  0  0  0  0  0
    8.4546  -16.0261   21.0032 N   0  0  0  0  0  0  0  0  0  0  0  0
    8.6509  -15.4021   22.3018 C   0  0  1  0  0  0  0  0  0  0  0  0
    7.4903  -14.5548   22.7066 C   0  0  0  0  0  0  0  0  0  0  0  0
    7.1019  -14.6058   24.1112 C   0  0  0  0  0  0  0  0  0  0  0  0
    6.6868  -15.6127   24.9422 C   0  0  0  0  0  0  0  0  0  0  0  0
    6.4575  -15.1096   26.1740 N   0  0  0  0  0  0  0  0  0  0  0  0
    6.7142  -13.7972   26.1631 C   0  0  0  0  0  0  0  0  0  0  0  0
    6.6313  -12.8483   27.1616 C   0  0  0  0  0  0  0  0  0  0  0  0
    6.9573  -11.5293   26.8878 C   0  0  0  0  0  0  0  0  0  0  0  0
    7.3668  -11.1434   25.6256 C   0  0  0  0  0  0  0  0  0  0  0  0
    7.4342  -12.1225   24.6639 C   0  0  0  0  0  0  0  0  0  0  0  0
    7.1176  -13.4434   24.8994 C   0  0  0  0  0  0  0  0  0  0  0  0
    9.0844  -16.3601   23.3481 C   0  0  0  0  0  0  0  0  0  0  0  0
    8.7644  -17.5747   23.1510 O   0  0  0  0  0  0  0  0  0  0  0  0
    9.7995  -15.9717   24.4844 N   0  0  0  0  0  0  0  0  0  0  0  0
   10.8608  -16.8503   25.0222 C   0  0  1  0  0  0  0  0  0  0  0  0
   12.0893  -16.6626   24.2130 C   0  0  0  0  0  0  0  0  0  0  0  0
   13.3417  -17.2925   24.6581 C   0  0  0  0  0  0  0  0  0  0  0  0
   14.4673  -17.1136   23.7488 C   0  0  0  0  0  0  0  0  0  0  0  0
   14.4346  -17.4640   22.5549 O   0  0  0  0  0  0  0  0  0  0  0  0
   10.9836  -16.5673   26.4353 C   0  0  0  0  0  0  0  0  0  0  0  0
   11.8052  -17.2210   27.1495 O   0  0  0  0  0  0  0  0  0  0  0  0
   15.6359  -16.5167   24.2350 O   0  0  0  0  0  0  0  0  0  0  0  0
   10.2545  -15.5973   27.0911 O   0  0  0  0  0  0  0  0  0  0  0  0
  2  1  1  0
  3  2  1  0
  3  4  1  1
  5  3  1  0
  5  6  1  6
  7  5  1  0
  7  8  2  0
  9  7  1  0
 10  9  1  0
 10 21  1  0
 10 11  1  1
 12 11  1  0
 13 12  2  0
 14 13  1  0
 15 14  1  0
 15 20  2  0
 16 15  1  0
 17 16  2  0
 17 18  1  0
 18 19  2  0
 19 20  1  0
 20 12  1  0
 21 23  1  0
 22 21  2  0
 23 24  1  0
 24 29  1  0
 24 25  1  6
 26 25  1  0
 27 28  2  0
 27 26  1  0
 29 30  2  0
 29 32  1  0
 31 27  1  0
M  END
$$$$
