IWE.pdb
     RDKit          3D

 32 33  0  0  1  0  0  0  0  0999 V2000
    7.2329  -12.1206   20.1829 C   0  0  0  0  0  0  0  0  0  0  0  0
    7.3522  -13.4835   20.8107 C   0  0  0  0  0  0  0  0  0  0  0  0
    8.1887  -14.4170   20.0038 C   0  0  2  0  0  0  0  0  0  0  0  0
    7.7645  -14.4109   18.5643 C   0  0  0  0  0  0  0  0  0  0  0  0
    8.2345  -15.8096   20.6044 C   0  0  2  0  0  0  0  0  0  0  0  0
    7.0031  -16.4913   20.6212 N   0  0  0  0  0  0  0  0  0  0  0  0
    8.9568  -15.7019   21.8938 C   0  0  0  0  0  0  0  0  0  0  0  0
   10.0385  -15.0059   21.9581 O   0  0  0  0  0  0  0  0  0  0  0  0
    8.5815  -16.2992   23.1193 N   0  0  0  0  0  0  0  0  0  0  0  0
    9.3894  -16.1727   24.3217 C   0  0  1  0  0  0  0  0  0  0  0  0
    8.5673  -16.2228   25.5669 C   0  0  0  0  0  0  0  0  0  0  0  0
    7.4524  -15.2869   25.6523 C   0  0  0  0  0  0  0  0  0  0  0  0
    6.1056  -15.3965   25.4267 C   0  0  0  0  0  0  0  0  0  0  0  0
    5.5144  -14.2059   25.6634 N   0  0  0  0  0  0  0  0  0  0  0  0
    6.4469  -13.3236   26.0382 C   0  0  0  0  0  0  0  0  0  0  0  0
    6.3483  -11.9912   26.3834 C   0  0  0  0  0  0  0  0  0  0  0  0
    7.4869  -11.2852   26.7386 C   0  0  0  0  0  0  0  0  0  0  0  0
    8.7274  -11.8940   26.7542 C   0  0  0  0  0  0  0  0  0  0  0  0
    8.7764  -13.2216   26.4033 C   0  0  0  0  0  0  0  0  0  0  0  0
    7.6658  -13.9552   26.0442 C   0  0  0  0  0  0  0  0  0  0  0  0
   10.5551  -17.0901   24.3386 C   0  0  0  0  0  0  0  0  0  0  0  0
   10.3442  -18.2587   23.8841 O   0  0  0  0  0  0  0  0  0  0  0  0
   11.8120  -16.7125   24.8190 N   0  0  0  0  0  0  0  0  0  0  0  0
   12.9349  -17.6743   24.7784 C   0  0  1  0  0  0  0  0  0  0  0  0
   14.1754  -16.9428   24.4244 C   0  0  0  0  0  0  0  0  0  0  0  0
   15.4525  -17.6719   24.3984 C   0  0  0  0  0  0  0  0  0  0  0  0
   16.6063  -16.8615   24.0268 C   0  0  0  0  0  0  0  0  0  0  0  0
   17.7745  -17.2891   24.0675 O   0  0  0  0  0  0  0  0  0  0  0  0
   12.9518  -18.3751   26.0435 C   0  0  0  0  0  0  0  0  0  0  0  0
   12.2991  -17.9225   27.0342 O   0  0  0  0  0  0  0  0  0  0  0  0
   16.3940  -15.5459   23.5997 O   0  0  0  0  0  0  0  0  0  0  0  0
   13.6426  -19.5488   26.2629 O   0  0  0  0  0  0  0  0  0  0  0  0
  2  1  1  0
  3  2  1  0
  3  4  1  6
  5  3  1  0
  5  6  1  1
  7  5  1  0
  7  8  2  0
  9  7  1  0
 10  9  1  0
 10 21  1  0
 10 11  1  1
 12 11  1  0
 13 12  2  0
 14 13  1  0
 15 14  1  0
 15 20  2  0
 16 15  1  0
 17 16  2  0
 17 18  1  0
 18 19  2  0
 19 20  1  0
 20 12  1  0
 21 23  1  0
 22 21  2  0
 23 24  1  0
 24 29  1  0
 24 25  1  1
 26 25  1  0
 27 28  2  0
 27 26  1  0
 29 30  2  0
 29 32  1  0
 31 27  1  0
M  END
$$$$
