CQG.pdb
     RDKit          3D

 20 19  0  0  1  0  0  0  0  0999 V2000
    8.0055  -13.8762   18.1211 N   0  0  0  0  0  0  0  0  0  0  0  0
    9.0563  -13.7450   19.1118 C   0  0  1  0  0  0  0  0  0  0  0  0
    8.5312  -13.1127   20.3846 C   0  0  0  0  0  0  0  0  0  0  0  0
    7.9866  -11.4154   20.0670 S   0  0  0  0  0  0  0  0  0  0  0  0
    9.6001  -15.1125   19.4335 C   0  0  0  0  0  0  0  0  0  0  0  0
    9.5337  -15.9865   18.5491 O   0  0  0  0  0  0  0  0  0  0  0  0
   15.0098  -14.4083   19.4666 N   0  0  0  0  0  0  0  0  0  0  0  0
   14.0458  -14.7328   18.4804 C   0  0  0  0  0  0  0  0  0  0  0  0
   14.4292  -14.9250   17.3041 O   0  0  0  0  0  0  0  0  0  0  0  0
   12.6359  -14.8356   18.8529 C   0  0  0  0  0  0  0  0  0  0  0  0
   12.3731  -14.5607   20.3051 C   0  0  0  0  0  0  0  0  0  0  0  0
   11.5643  -15.6871   20.8553 C   0  0  2  0  0  0  0  0  0  0  0  0
   10.1605  -15.3722   20.6982 N   0  0  0  0  0  0  0  0  0  0  0  0
   11.8238  -15.9728   22.2979 C   0  0  0  0  0  0  0  0  0  0  0  0
   12.9724  -16.1906   22.7593 O   0  0  0  0  0  0  0  0  0  0  0  0
   10.7555  -16.0152   23.2552 N   0  0  0  0  0  0  0  0  0  0  0  0
   10.9608  -16.3060   24.6373 C   0  0  0  0  0  0  0  0  0  0  0  0
   11.1988  -17.7395   24.9145 C   0  0  0  0  0  0  0  0  0  0  0  0
   11.1957  -18.5133   23.9212 O   0  0  0  0  0  0  0  0  0  0  0  0
   11.4186  -18.2754   26.1531 O   0  0  0  0  0  0  0  0  0  0  0  0
  2  3  1  0
  2  1  1  6
  4  3  1  0
  5  6  2  0
  5  2  1  0
  7  8  1  0
  8 10  1  0
  9  8  2  0
 10 11  1  0
 12 11  1  1
 12 13  1  0
 13  5  1  0
 14 16  1  0
 14 12  1  0
 15 14  2  0
 17 16  1  0
 18 17  1  0
 19 18  2  0
 20 18  1  0
M  END
$$$$
