CQG.pdb
     RDKit          3D

 20 19  0  0  1  0  0  0  0  0999 V2000
    8.1154  -12.4217   19.5126 N   0  0  0  0  0  0  0  0  0  0  0  0
    7.5919  -13.5753   20.2184 C   0  0  1  0  0  0  0  0  0  0  0  0
    8.0324  -14.8658   19.5582 C   0  0  0  0  0  0  0  0  0  0  0  0
    7.1183  -15.1296   18.0177 S   0  0  0  0  0  0  0  0  0  0  0  0
    8.0990  -13.5537   21.6367 C   0  0  0  0  0  0  0  0  0  0  0  0
    9.2080  -13.0287   21.8490 O   0  0  0  0  0  0  0  0  0  0  0  0
    5.9428  -13.0887   27.5102 N   0  0  0  0  0  0  0  0  0  0  0  0
    6.2823  -12.0612   26.5957 C   0  0  0  0  0  0  0  0  0  0  0  0
    6.2144  -10.8702   26.9761 O   0  0  0  0  0  0  0  0  0  0  0  0
    6.7010  -12.4091   25.2390 C   0  0  0  0  0  0  0  0  0  0  0  0
    6.7018  -13.8855   24.9670 C   0  0  0  0  0  0  0  0  0  0  0  0
    7.8234  -14.1877   24.0309 C   0  0  2  0  0  0  0  0  0  0  0  0
    7.3286  -14.1142   22.6728 N   0  0  0  0  0  0  0  0  0  0  0  0
    8.4388  -15.5330   24.2351 C   0  0  0  0  0  0  0  0  0  0  0  0
    7.7692  -16.5601   24.5111 O   0  0  0  0  0  0  0  0  0  0  0  0
    9.8559  -15.7308   24.1255 N   0  0  0  0  0  0  0  0  0  0  0  0
   10.4824  -16.9971   24.3277 C   0  0  0  0  0  0  0  0  0  0  0  0
   11.9605  -16.9356   24.3313 C   0  0  0  0  0  0  0  0  0  0  0  0
   12.4783  -15.8187   24.0673 O   0  0  0  0  0  0  0  0  0  0  0  0
   12.7911  -17.9888   24.5968 O   0  0  0  0  0  0  0  0  0  0  0  0
  2  3  1  0
  2  1  1  6
  4  3  1  0
  5  6  2  0
  5  2  1  0
  7  8  1  0
  8 10  1  0
  9  8  2  0
 10 11  1  0
 12 11  1  1
 12 13  1  0
 13  5  1  0
 14 16  1  0
 14 12  1  0
 15 14  2  0
 17 16  1  0
 18 17  1  0
 19 18  2  0
 20 18  1  0
M  END
$$$$
