CQG.pdb
     RDKit          3D

 20 19  0  0  1  0  0  0  0  0999 V2000
    9.0386  -17.3990   19.3201 N   0  0  0  0  0  0  0  0  0  0  0  0
    9.9929  -17.9326   20.2727 C   0  0  1  0  0  0  0  0  0  0  0  0
   11.2157  -18.4857   19.5695 C   0  0  0  0  0  0  0  0  0  0  0  0
   10.8600  -20.1216   18.8799 S   0  0  0  0  0  0  0  0  0  0  0  0
   10.4221  -16.8307   21.2059 C   0  0  0  0  0  0  0  0  0  0  0  0
   10.6048  -15.6981   20.7219 O   0  0  0  0  0  0  0  0  0  0  0  0
    8.5693  -17.9932   25.9718 N   0  0  0  0  0  0  0  0  0  0  0  0
    7.9827  -17.0582   25.0836 C   0  0  0  0  0  0  0  0  0  0  0  0
    6.7489  -17.1153   24.8784 O   0  0  0  0  0  0  0  0  0  0  0  0
    8.8221  -16.0552   24.4307 C   0  0  0  0  0  0  0  0  0  0  0  0
   10.2812  -16.1812   24.7603 C   0  0  0  0  0  0  0  0  0  0  0  0
   11.0584  -16.0695   23.4919 C   0  0  2  0  0  0  0  0  0  0  0  0
   10.6049  -17.0945   22.5764 N   0  0  0  0  0  0  0  0  0  0  0  0
   12.5340  -16.2164   23.6690 C   0  0  0  0  0  0  0  0  0  0  0  0
   13.0719  -16.4582   24.7788 O   0  0  0  0  0  0  0  0  0  0  0  0
   13.4362  -16.0870   22.5606 N   0  0  0  0  0  0  0  0  0  0  0  0
   14.5928  -15.2515   22.5926 C   0  0  0  0  0  0  0  0  0  0  0  0
   15.7139  -15.8174   23.3746 C   0  0  0  0  0  0  0  0  0  0  0  0
   15.7977  -15.4595   24.5789 O   0  0  0  0  0  0  0  0  0  0  0  0
   16.6506  -16.6877   22.8901 O   0  0  0  0  0  0  0  0  0  0  0  0
  2  3  1  0
  2  1  1  6
  4  3  1  0
  5  6  2  0
  5  2  1  0
  7  8  1  0
  8 10  1  0
  9  8  2  0
 10 11  1  0
 12 11  1  1
 12 13  1  0
 13  5  1  0
 14 16  1  0
 14 12  1  0
 15 14  2  0
 17 16  1  0
 18 17  1  0
 19 18  2  0
 20 18  1  0
M  END
$$$$
