CQG.pdb
     RDKit          3D

 20 19  0  0  1  0  0  0  0  0999 V2000
    6.9913  -15.4442   21.1200 N   0  0  0  0  0  0  0  0  0  0  0  0
    8.0881  -14.5530   20.7944 C   0  0  1  0  0  0  0  0  0  0  0  0
    7.5800  -13.2585   20.1930 C   0  0  0  0  0  0  0  0  0  0  0  0
    6.3708  -13.6011   18.8897 S   0  0  0  0  0  0  0  0  0  0  0  0
    8.8550  -14.2398   22.0526 C   0  0  0  0  0  0  0  0  0  0  0  0
    9.8103  -13.4456   21.9678 O   0  0  0  0  0  0  0  0  0  0  0  0
    7.0757  -12.1698   27.0508 N   0  0  0  0  0  0  0  0  0  0  0  0
    6.3989  -13.1149   26.2408 C   0  0  0  0  0  0  0  0  0  0  0  0
    5.1530  -13.2013   26.3298 O   0  0  0  0  0  0  0  0  0  0  0  0
    7.1620  -13.9621   25.3260 C   0  0  0  0  0  0  0  0  0  0  0  0
    8.6448  -13.7366   25.3885 C   0  0  0  0  0  0  0  0  0  0  0  0
    9.3039  -14.7005   24.4601 C   0  0  2  0  0  0  0  0  0  0  0  0
    8.4869  -14.8362   23.2732 N   0  0  0  0  0  0  0  0  0  0  0  0
    9.5144  -16.0587   25.0442 C   0  0  0  0  0  0  0  0  0  0  0  0
    8.6188  -16.9400   25.0740 O   0  0  0  0  0  0  0  0  0  0  0  0
   10.7749  -16.4397   25.6144 N   0  0  0  0  0  0  0  0  0  0  0  0
   12.0286  -15.9947   25.0977 C   0  0  0  0  0  0  0  0  0  0  0  0
   12.6073  -16.8993   24.0801 C   0  0  0  0  0  0  0  0  0  0  0  0
   13.8628  -16.9107   23.9854 O   0  0  0  0  0  0  0  0  0  0  0  0
   11.8870  -17.7111   23.2483 O   0  0  0  0  0  0  0  0  0  0  0  0
  2  3  1  0
  2  1  1  1
  4  3  1  0
  5  6  2  0
  5  2  1  0
  7  8  1  0
  8 10  1  0
  9  8  2  0
 10 11  1  0
 12 11  1  1
 12 13  1  0
 13  5  1  0
 14 16  1  0
 14 12  1  0
 15 14  2  0
 17 16  1  0
 18 17  1  0
 19 18  2  0
 20 18  1  0
M  END
$$$$
