CQG.pdb
     RDKit          3D

 20 19  0  0  1  0  0  0  0  0999 V2000
    8.2616  -16.0653   20.0933 N   0  0  0  0  0  0  0  0  0  0  0  0
    8.1421  -16.6019   21.4352 C   0  0  1  0  0  0  0  0  0  0  0  0
    8.3263  -18.1058   21.4406 C   0  0  0  0  0  0  0  0  0  0  0  0
    9.9397  -18.5455   20.7463 S   0  0  0  0  0  0  0  0  0  0  0  0
    9.1982  -15.9768   22.3088 C   0  0  0  0  0  0  0  0  0  0  0  0
   10.1249  -15.3612   21.7494 O   0  0  0  0  0  0  0  0  0  0  0  0
    9.1032  -15.3882   28.6108 N   0  0  0  0  0  0  0  0  0  0  0  0
   10.1816  -14.5798   28.1739 C   0  0  0  0  0  0  0  0  0  0  0  0
   10.8828  -13.9966   29.0317 O   0  0  0  0  0  0  0  0  0  0  0  0
   10.4514  -14.4444   26.7435 C   0  0  0  0  0  0  0  0  0  0  0  0
    9.4409  -15.1304   25.8706 C   0  0  0  0  0  0  0  0  0  0  0  0
   10.0994  -15.4787   24.5781 C   0  0  2  0  0  0  0  0  0  0  0  0
    9.1210  -16.0967   23.7090 N   0  0  0  0  0  0  0  0  0  0  0  0
   11.2585  -16.4098   24.7187 C   0  0  0  0  0  0  0  0  0  0  0  0
   11.1299  -17.6317   24.9832 O   0  0  0  0  0  0  0  0  0  0  0  0
   12.6088  -15.9518   24.5567 N   0  0  0  0  0  0  0  0  0  0  0  0
   13.7430  -16.8044   24.7101 C   0  0  0  0  0  0  0  0  0  0  0  0
   15.0379  -16.0982   24.5956 C   0  0  0  0  0  0  0  0  0  0  0  0
   14.9882  -14.8758   24.2978 O   0  0  0  0  0  0  0  0  0  0  0  0
   16.2652  -16.6696   24.7870 O   0  0  0  0  0  0  0  0  0  0  0  0
  2  3  1  0
  2  1  1  6
  4  3  1  0
  5  6  2  0
  5  2  1  0
  7  8  1  0
  8 10  1  0
  9  8  2  0
 10 11  1  0
 12 11  1  1
 12 13  1  0
 13  5  1  0
 14 16  1  0
 14 12  1  0
 15 14  2  0
 17 16  1  0
 18 17  1  0
 19 18  2  0
 20 18  1  0
M  END
$$$$
