CQG.pdb
     RDKit          3D

 20 19  0  0  1  0  0  0  0  0999 V2000
    7.9565  -12.4464   20.0148 N   0  0  0  0  0  0  0  0  0  0  0  0
    7.4273  -13.6243   20.6747 C   0  0  1  0  0  0  0  0  0  0  0  0
    7.6549  -14.8673   19.8389 C   0  0  0  0  0  0  0  0  0  0  0  0
    6.7448  -14.7523   18.2778 S   0  0  0  0  0  0  0  0  0  0  0  0
    8.1187  -13.7944   22.0022 C   0  0  0  0  0  0  0  0  0  0  0  0
    9.0971  -13.0636   22.2453 O   0  0  0  0  0  0  0  0  0  0  0  0
    7.5608  -11.7598   26.9162 N   0  0  0  0  0  0  0  0  0  0  0  0
    6.4785  -12.5587   26.4716 C   0  0  0  0  0  0  0  0  0  0  0  0
    5.3428  -12.3589   26.9592 O   0  0  0  0  0  0  0  0  0  0  0  0
    6.7077  -13.5907   25.4619 C   0  0  0  0  0  0  0  0  0  0  0  0
    8.1345  -13.6816   25.0041 C   0  0  0  0  0  0  0  0  0  0  0  0
    8.2921  -14.9353   24.2109 C   0  0  2  0  0  0  0  0  0  0  0  0
    7.6574  -14.7539   22.9230 N   0  0  0  0  0  0  0  0  0  0  0  0
    7.7011  -16.1431   24.8607 C   0  0  0  0  0  0  0  0  0  0  0  0
    6.4689  -16.2780   25.0681 O   0  0  0  0  0  0  0  0  0  0  0  0
    8.5234  -17.2371   25.2924 N   0  0  0  0  0  0  0  0  0  0  0  0
    7.9998  -18.3934   25.9447 C   0  0  0  0  0  0  0  0  0  0  0  0
    8.5393  -18.6038   27.3061 C   0  0  0  0  0  0  0  0  0  0  0  0
    9.2608  -17.6843   27.7743 O   0  0  0  0  0  0  0  0  0  0  0  0
    8.3136  -19.7085   28.0797 O   0  0  0  0  0  0  0  0  0  0  0  0
  2  3  1  0
  2  1  1  6
  4  3  1  0
  5  6  2  0
  5  2  1  0
  7  8  1  0
  8 10  1  0
  9  8  2  0
 10 11  1  0
 12 11  1  1
 12 13  1  0
 13  5  1  0
 14 16  1  0
 14 12  1  0
 15 14  2  0
 17 16  1  0
 18 17  1  0
 19 18  2  0
 20 18  1  0
M  END
$$$$
