CQG.pdb
     RDKit          3D

 20 19  0  0  1  0  0  0  0  0999 V2000
    8.5156  -15.3638   19.8447 N   0  0  0  0  0  0  0  0  0  0  0  0
    9.2807  -16.4340   20.4549 C   0  0  1  0  0  0  0  0  0  0  0  0
   10.0563  -17.2139   19.4129 C   0  0  0  0  0  0  0  0  0  0  0  0
    8.9263  -18.1760   18.3757 S   0  0  0  0  0  0  0  0  0  0  0  0
   10.2503  -15.8411   21.4436 C   0  0  0  0  0  0  0  0  0  0  0  0
   10.6149  -14.6639   21.2649 O   0  0  0  0  0  0  0  0  0  0  0  0
   12.0865  -17.7748   27.0906 N   0  0  0  0  0  0  0  0  0  0  0  0
   11.3713  -18.5145   26.1166 C   0  0  0  0  0  0  0  0  0  0  0  0
   11.1896  -19.7390   26.3043 O   0  0  0  0  0  0  0  0  0  0  0  0
   10.8648  -17.8392   24.9231 C   0  0  0  0  0  0  0  0  0  0  0  0
   11.2347  -16.3862   24.8483 C   0  0  0  0  0  0  0  0  0  0  0  0
   11.6935  -16.0914   23.4597 C   0  0  2  0  0  0  0  0  0  0  0  0
   10.7160  -16.6098   22.5268 N   0  0  0  0  0  0  0  0  0  0  0  0
   13.0240  -16.6796   23.1222 C   0  0  0  0  0  0  0  0  0  0  0  0
   13.1629  -17.8285   22.6322 O   0  0  0  0  0  0  0  0  0  0  0  0
   14.2406  -15.9512   23.3431 N   0  0  0  0  0  0  0  0  0  0  0  0
   14.9768  -15.3292   22.2904 C   0  0  0  0  0  0  0  0  0  0  0  0
   16.0155  -16.1992   21.6963 C   0  0  0  0  0  0  0  0  0  0  0  0
   15.6864  -17.3925   21.4662 O   0  0  0  0  0  0  0  0  0  0  0  0
   17.2872  -15.8056   21.3845 O   0  0  0  0  0  0  0  0  0  0  0  0
  2  3  1  0
  2  1  1  6
  4  3  1  0
  5  6  2  0
  5  2  1  0
  7  8  1  0
  8 10  1  0
  9  8  2  0
 10 11  1  0
 12 11  1  1
 12 13  1  0
 13  5  1  0
 14 16  1  0
 14 12  1  0
 15 14  2  0
 17 16  1  0
 18 17  1  0
 19 18  2  0
 20 18  1  0
M  END
$$$$
