CQG.pdb
     RDKit          3D

 20 19  0  0  1  0  0  0  0  0999 V2000
    9.5356  -14.6423   18.4114 N   0  0  0  0  0  0  0  0  0  0  0  0
    9.0908  -13.5128   19.2048 C   0  0  1  0  0  0  0  0  0  0  0  0
    7.7600  -12.9862   18.7074 C   0  0  0  0  0  0  0  0  0  0  0  0
    7.7866  -12.8076   16.9058 S   0  0  0  0  0  0  0  0  0  0  0  0
    8.9385  -13.9505   20.6381 C   0  0  0  0  0  0  0  0  0  0  0  0
    8.5196  -13.1135   21.4595 O   0  0  0  0  0  0  0  0  0  0  0  0
    8.1595  -18.1166   19.9482 N   0  0  0  0  0  0  0  0  0  0  0  0
    7.0686  -17.6890   20.7447 C   0  0  0  0  0  0  0  0  0  0  0  0
    5.9095  -17.7898   20.2821 O   0  0  0  0  0  0  0  0  0  0  0  0
    7.3161  -17.1438   22.0784 C   0  0  0  0  0  0  0  0  0  0  0  0
    8.7686  -17.1070   22.4559 C   0  0  0  0  0  0  0  0  0  0  0  0
    9.2307  -15.6897   22.3987 C   0  0  2  0  0  0  0  0  0  0  0  0
    9.2647  -15.2667   21.0151 N   0  0  0  0  0  0  0  0  0  0  0  0
   10.5832  -15.4677   22.9919 C   0  0  0  0  0  0  0  0  0  0  0  0
   10.8281  -15.6102   24.2164 O   0  0  0  0  0  0  0  0  0  0  0  0
   11.6989  -15.0717   22.1810 N   0  0  0  0  0  0  0  0  0  0  0  0
   13.0054  -14.8495   22.7108 C   0  0  0  0  0  0  0  0  0  0  0  0
   13.8444  -16.0672   22.7547 C   0  0  0  0  0  0  0  0  0  0  0  0
   13.3002  -17.1398   22.3823 O   0  0  0  0  0  0  0  0  0  0  0  0
   15.1482  -16.1098   23.1645 O   0  0  0  0  0  0  0  0  0  0  0  0
  2  3  1  0
  2  1  1  6
  4  3  1  0
  5  6  2  0
  5  2  1  0
  7  8  1  0
  8 10  1  0
  9  8  2  0
 10 11  1  0
 12 11  1  6
 12 13  1  0
 13  5  1  0
 14 16  1  0
 14 12  1  0
 15 14  2  0
 17 16  1  0
 18 17  1  0
 19 18  2  0
 20 18  1  0
M  END
$$$$
