CQG.pdb
     RDKit          3D

 20 19  0  0  1  0  0  0  0  0999 V2000
    5.2106  -13.5440   26.2006 N   0  0  0  0  0  0  0  0  0  0  0  0
    6.4107  -13.0587   25.5470 C   0  0  1  0  0  0  0  0  0  0  0  0
    7.3927  -12.4971   26.5549 C   0  0  0  0  0  0  0  0  0  0  0  0
    6.7136  -11.0115   27.3361 S   0  0  0  0  0  0  0  0  0  0  0  0
    7.0637  -14.1996   24.8115 C   0  0  0  0  0  0  0  0  0  0  0  0
    7.0254  -15.3275   25.3378 O   0  0  0  0  0  0  0  0  0  0  0  0
    7.8674  -12.2477   19.1569 N   0  0  0  0  0  0  0  0  0  0  0  0
    7.7105  -13.6186   19.4784 C   0  0  0  0  0  0  0  0  0  0  0  0
    7.7356  -14.4607   18.5522 O   0  0  0  0  0  0  0  0  0  0  0  0
    7.5243  -14.0184   20.8721 C   0  0  0  0  0  0  0  0  0  0  0  0
    8.7692  -14.5529   21.5188 C   0  0  0  0  0  0  0  0  0  0  0  0
    8.4180  -15.0255   22.8896 C   0  0  2  0  0  0  0  0  0  0  0  0
    7.6910  -13.9762   23.5715 N   0  0  0  0  0  0  0  0  0  0  0  0
    9.5989  -15.3986   23.7241 C   0  0  0  0  0  0  0  0  0  0  0  0
   10.1945  -14.5851   24.4744 O   0  0  0  0  0  0  0  0  0  0  0  0
   10.1286  -16.7323   23.7153 N   0  0  0  0  0  0  0  0  0  0  0  0
   11.2323  -17.1361   24.5251 C   0  0  0  0  0  0  0  0  0  0  0  0
   11.5660  -18.5721   24.4022 C   0  0  0  0  0  0  0  0  0  0  0  0
   10.8256  -19.2602   23.6515 O   0  0  0  0  0  0  0  0  0  0  0  0
   12.6051  -19.1953   25.0360 O   0  0  0  0  0  0  0  0  0  0  0  0
  2  3  1  0
  2  1  1  1
  4  3  1  0
  5  6  2  0
  5  2  1  0
  7  8  1  0
  8 10  1  0
  9  8  2  0
 10 11  1  0
 12 11  1  6
 12 13  1  0
 13  5  1  0
 14 16  1  0
 14 12  1  0
 15 14  2  0
 17 16  1  0
 18 17  1  0
 19 18  2  0
 20 18  1  0
M  END
$$$$
