CQG.pdb
     RDKit          3D

 20 19  0  0  1  0  0  0  0  0999 V2000
    7.8207  -13.4224   18.8001 N   0  0  0  0  0  0  0  0  0  0  0  0
    7.1581  -14.0354   19.9351 C   0  0  1  0  0  0  0  0  0  0  0  0
    6.9421  -15.5175   19.7065 C   0  0  0  0  0  0  0  0  0  0  0  0
    8.5279  -16.3536   19.4528 S   0  0  0  0  0  0  0  0  0  0  0  0
    8.0134  -13.8493   21.1611 C   0  0  0  0  0  0  0  0  0  0  0  0
    9.1360  -13.3314   21.0128 O   0  0  0  0  0  0  0  0  0  0  0  0
    5.4163  -12.7747   26.7185 N   0  0  0  0  0  0  0  0  0  0  0  0
    6.8060  -12.6060   26.9370 C   0  0  0  0  0  0  0  0  0  0  0  0
    7.1886  -12.1013   28.0171 O   0  0  0  0  0  0  0  0  0  0  0  0
    7.7562  -13.0208   25.9065 C   0  0  0  0  0  0  0  0  0  0  0  0
    7.1052  -13.5719   24.6711 C   0  0  0  0  0  0  0  0  0  0  0  0
    8.1657  -13.8048   23.6480 C   0  0  2  0  0  0  0  0  0  0  0  0
    7.5398  -14.2545   22.4231 N   0  0  0  0  0  0  0  0  0  0  0  0
    9.1880  -14.8154   24.0525 C   0  0  0  0  0  0  0  0  0  0  0  0
   10.0265  -14.6162   24.9673 O   0  0  0  0  0  0  0  0  0  0  0  0
    9.2710  -16.0942   23.4066 N   0  0  0  0  0  0  0  0  0  0  0  0
   10.1837  -17.1132   23.8133 C   0  0  0  0  0  0  0  0  0  0  0  0
    9.8529  -17.7204   25.1212 C   0  0  0  0  0  0  0  0  0  0  0  0
   10.5048  -17.3061   26.1155 O   0  0  0  0  0  0  0  0  0  0  0  0
    8.9045  -18.6844   25.3236 O   0  0  0  0  0  0  0  0  0  0  0  0
  2  3  1  0
  2  1  1  6
  4  3  1  0
  5  6  2  0
  5  2  1  0
  7  8  1  0
  8 10  1  0
  9  8  2  0
 10 11  1  0
 12 11  1  1
 12 13  1  0
 13  5  1  0
 14 16  1  0
 14 12  1  0
 15 14  2  0
 17 16  1  0
 18 17  1  0
 19 18  2  0
 20 18  1  0
M  END
$$$$
