CQG.pdb
     RDKit          3D

 20 19  0  0  1  0  0  0  0  0999 V2000
    5.4228  -17.6557   22.9991 N   0  0  0  0  0  0  0  0  0  0  0  0
    5.4680  -17.9156   21.5732 C   0  0  1  0  0  0  0  0  0  0  0  0
    4.1538  -17.5562   20.9105 C   0  0  0  0  0  0  0  0  0  0  0  0
    2.7729  -18.3323   21.7875 S   0  0  0  0  0  0  0  0  0  0  0  0
    6.5674  -17.0889   20.9591 C   0  0  0  0  0  0  0  0  0  0  0  0
    6.7945  -17.2357   19.7435 O   0  0  0  0  0  0  0  0  0  0  0  0
    7.1105  -12.8583   17.9884 N   0  0  0  0  0  0  0  0  0  0  0  0
    7.8969  -13.2044   19.1149 C   0  0  0  0  0  0  0  0  0  0  0  0
    9.1407  -13.2659   18.9847 O   0  0  0  0  0  0  0  0  0  0  0  0
    7.2463  -13.4804   20.3945 C   0  0  0  0  0  0  0  0  0  0  0  0
    8.1838  -13.9861   21.4523 C   0  0  0  0  0  0  0  0  0  0  0  0
    8.4184  -15.4398   21.2129 C   0  0  2  0  0  0  0  0  0  0  0  0
    7.3014  -16.1862   21.7512 N   0  0  0  0  0  0  0  0  0  0  0  0
    9.6741  -15.9619   21.8300 C   0  0  0  0  0  0  0  0  0  0  0  0
   10.8157  -15.5224   21.5412 O   0  0  0  0  0  0  0  0  0  0  0  0
    9.6460  -17.0142   22.8053 N   0  0  0  0  0  0  0  0  0  0  0  0
   10.8257  -17.6433   23.3048 C   0  0  0  0  0  0  0  0  0  0  0  0
   11.2977  -17.0860   24.5913 C   0  0  0  0  0  0  0  0  0  0  0  0
   10.5960  -16.1731   25.1009 O   0  0  0  0  0  0  0  0  0  0  0  0
   12.4240  -17.4854   25.2558 O   0  0  0  0  0  0  0  0  0  0  0  0
  2  3  1  0
  2  1  1  1
  4  3  1  0
  5  6  2  0
  5  2  1  0
  7  8  1  0
  8 10  1  0
  9  8  2  0
 10 11  1  0
 12 11  1  1
 12 13  1  0
 13  5  1  0
 14 16  1  0
 14 12  1  0
 15 14  2  0
 17 16  1  0
 18 17  1  0
 19 18  2  0
 20 18  1  0
M  END
$$$$
