CQG.pdb
     RDKit          3D

 20 19  0  0  1  0  0  0  0  0999 V2000
    8.2938  -12.8151   19.5723 N   0  0  0  0  0  0  0  0  0  0  0  0
    7.3989  -13.2203   20.6391 C   0  0  1  0  0  0  0  0  0  0  0  0
    6.6002  -14.4462   20.2460 C   0  0  0  0  0  0  0  0  0  0  0  0
    7.6808  -15.8951   20.1400 S   0  0  0  0  0  0  0  0  0  0  0  0
    8.2123  -13.5394   21.8662 C   0  0  0  0  0  0  0  0  0  0  0  0
    9.4337  -13.2995   21.8319 O   0  0  0  0  0  0  0  0  0  0  0  0
    6.0293  -10.8361   27.2272 N   0  0  0  0  0  0  0  0  0  0  0  0
    6.0788  -12.1420   26.6799 C   0  0  0  0  0  0  0  0  0  0  0  0
    5.2953  -13.0112   27.1250 O   0  0  0  0  0  0  0  0  0  0  0  0
    7.0348  -12.4452   25.6164 C   0  0  0  0  0  0  0  0  0  0  0  0
    7.2005  -13.9139   25.3537 C   0  0  0  0  0  0  0  0  0  0  0  0
    8.2400  -14.0856   24.2974 C   0  0  2  0  0  0  0  0  0  0  0  0
    7.5921  -14.0902   23.0033 N   0  0  0  0  0  0  0  0  0  0  0  0
    9.0374  -15.3415   24.4289 C   0  0  0  0  0  0  0  0  0  0  0  0
    9.6554  -15.6563   25.4770 O   0  0  0  0  0  0  0  0  0  0  0  0
    9.1439  -16.2758   23.3449 N   0  0  0  0  0  0  0  0  0  0  0  0
    9.7966  -17.5390   23.4682 C   0  0  0  0  0  0  0  0  0  0  0  0
   11.2697  -17.4607   23.3569 C   0  0  0  0  0  0  0  0  0  0  0  0
   11.7563  -16.3260   23.1097 O   0  0  0  0  0  0  0  0  0  0  0  0
   12.1267  -18.5163   23.5010 O   0  0  0  0  0  0  0  0  0  0  0  0
  2  3  1  0
  2  1  1  6
  4  3  1  0
  5  6  2  0
  5  2  1  0
  7  8  1  0
  8 10  1  0
  9  8  2  0
 10 11  1  0
 12 11  1  1
 12 13  1  0
 13  5  1  0
 14 16  1  0
 14 12  1  0
 15 14  2  0
 17 16  1  0
 18 17  1  0
 19 18  2  0
 20 18  1  0
M  END
$$$$
