CQG.pdb
     RDKit          3D

 20 19  0  0  1  0  0  0  0  0999 V2000
    5.2743  -19.5383   21.4943 N   0  0  0  0  0  0  0  0  0  0  0  0
    5.3298  -18.1926   22.0319 C   0  0  1  0  0  0  0  0  0  0  0  0
    5.0677  -18.1893   23.5242 C   0  0  0  0  0  0  0  0  0  0  0  0
    5.9070  -19.5855   24.3145 S   0  0  0  0  0  0  0  0  0  0  0  0
    6.6984  -17.6182   21.7745 C   0  0  0  0  0  0  0  0  0  0  0  0
    7.6188  -18.4109   21.5008 O   0  0  0  0  0  0  0  0  0  0  0  0
    7.0801  -12.2176   19.4258 N   0  0  0  0  0  0  0  0  0  0  0  0
    7.6648  -13.3143   18.7456 C   0  0  0  0  0  0  0  0  0  0  0  0
    7.6865  -13.3039   17.4938 O   0  0  0  0  0  0  0  0  0  0  0  0
    8.2257  -14.4256   19.5120 C   0  0  0  0  0  0  0  0  0  0  0  0
    8.0282  -14.2974   20.9947 C   0  0  0  0  0  0  0  0  0  0  0  0
    8.2108  -15.6446   21.6089 C   0  0  2  0  0  0  0  0  0  0  0  0
    6.9079  -16.2282   21.8464 N   0  0  0  0  0  0  0  0  0  0  0  0
    8.9606  -15.6264   22.9002 C   0  0  0  0  0  0  0  0  0  0  0  0
    8.4331  -15.3116   23.9966 O   0  0  0  0  0  0  0  0  0  0  0  0
   10.3516  -15.9742   22.9615 N   0  0  0  0  0  0  0  0  0  0  0  0
   11.0974  -15.9859   24.1783 C   0  0  0  0  0  0  0  0  0  0  0  0
   12.5455  -16.2201   23.9860 C   0  0  0  0  0  0  0  0  0  0  0  0
   12.9274  -16.4489   22.8082 O   0  0  0  0  0  0  0  0  0  0  0  0
   13.4835  -16.2061   24.9807 O   0  0  0  0  0  0  0  0  0  0  0  0
  2  3  1  0
  2  1  1  1
  4  3  1  0
  5  6  2  0
  5  2  1  0
  7  8  1  0
  8 10  1  0
  9  8  2  0
 10 11  1  0
 12 11  1  1
 12 13  1  0
 13  5  1  0
 14 16  1  0
 14 12  1  0
 15 14  2  0
 17 16  1  0
 18 17  1  0
 19 18  2  0
 20 18  1  0
M  END
$$$$
