TAS.pdb
     RDKit          3D

 19 18  0  0  1  0  0  0  0  0999 V2000
    7.9939  -11.7611   19.3306 C   0  0  0  0  0  0  0  0  0  0  0  0
    8.9620  -12.8261   19.7773 C   0  0  1  0  0  0  0  0  0  0  0  0
    8.4023  -13.5370   20.8282 O   0  0  0  0  0  0  0  0  0  0  0  0
    9.2391  -13.7578   18.6024 C   0  0  2  0  0  0  0  0  0  0  0  0
    7.9997  -14.2503   18.0875 N   0  0  0  0  0  0  0  0  0  0  0  0
   10.1972  -14.8208   18.9411 C   0  0  0  0  0  0  0  0  0  0  0  0
    9.8362  -15.9845   19.3019 O   0  0  0  0  0  0  0  0  0  0  0  0
   13.9817  -15.1150   18.8333 C   0  0  0  0  0  0  0  0  0  0  0  0
   12.5987  -15.4860   19.3063 C   0  0  2  0  0  0  0  0  0  0  0  0
   11.5899  -14.5484   18.8658 N   0  0  0  0  0  0  0  0  0  0  0  0
   12.5607  -15.6935   20.7795 C   0  0  0  0  0  0  0  0  0  0  0  0
   12.4394  -14.7396   21.5911 O   0  0  0  0  0  0  0  0  0  0  0  0
   10.3708  -18.0237   22.8382 O   0  0  0  0  0  0  0  0  0  0  0  0
   11.6799  -18.4614   22.9328 C   0  0  0  0  0  0  0  0  0  0  0  0
   12.6711  -17.3150   22.7157 C   0  0  2  0  0  0  0  0  0  0  0  0
   12.6623  -17.0011   21.3273 N   0  0  0  0  0  0  0  0  0  0  0  0
   14.0044  -17.8221   23.1091 C   0  0  0  0  0  0  0  0  0  0  0  0
   14.2710  -18.0477   24.4421 O   0  0  0  0  0  0  0  0  0  0  0  0
   14.8542  -18.0330   22.2243 O   0  0  0  0  0  0  0  0  0  0  0  0
  2  3  1  0
  2  1  1  6
  4  2  1  0
  4  5  1  1
  6  4  1  0
  6 10  1  0
  7  6  2  0
  9  8  1  1
  9 10  1  0
  9 11  1  0
 11 12  2  0
 13 14  1  0
 15 14  1  6
 15 17  1  0
 16 11  1  0
 16 15  1  0
 17 18  1  0
 19 17  2  0
M  END
$$$$
