TAS.pdb
     RDKit          3D

 19 18  0  0  1  0  0  0  0  0999 V2000
   10.9231  -13.9602   19.9494 C   0  0  0  0  0  0  0  0  0  0  0  0
    9.7993  -13.1033   19.4263 C   0  0  1  0  0  0  0  0  0  0  0  0
   10.2459  -12.3923   18.3226 O   0  0  0  0  0  0  0  0  0  0  0  0
    8.6376  -14.0090   19.0319 C   0  0  2  0  0  0  0  0  0  0  0  0
    7.6128  -13.2230   18.4189 N   0  0  0  0  0  0  0  0  0  0  0  0
    8.1562  -14.8277   20.1546 C   0  0  0  0  0  0  0  0  0  0  0  0
    7.4645  -14.3510   21.1081 O   0  0  0  0  0  0  0  0  0  0  0  0
    8.3798  -18.5202   21.0306 C   0  0  0  0  0  0  0  0  0  0  0  0
    8.1989  -17.0538   21.3318 C   0  0  2  0  0  0  0  0  0  0  0  0
    8.4708  -16.2131   20.1872 N   0  0  0  0  0  0  0  0  0  0  0  0
    8.9835  -16.6388   22.5263 C   0  0  0  0  0  0  0  0  0  0  0  0
   10.1800  -16.2573   22.4471 O   0  0  0  0  0  0  0  0  0  0  0  0
    8.6101  -15.3824   27.1947 O   0  0  0  0  0  0  0  0  0  0  0  0
    8.0433  -15.7098   25.9757 C   0  0  0  0  0  0  0  0  0  0  0  0
    9.0669  -16.3536   25.0368 C   0  0  2  0  0  0  0  0  0  0  0  0
    8.3951  -16.6607   23.8200 N   0  0  0  0  0  0  0  0  0  0  0  0
    9.5213  -17.6011   25.6901 C   0  0  0  0  0  0  0  0  0  0  0  0
   10.5264  -17.5394   26.6308 O   0  0  0  0  0  0  0  0  0  0  0  0
    8.9832  -18.6780   25.3734 O   0  0  0  0  0  0  0  0  0  0  0  0
  2  3  1  0
  2  1  1  6
  4  2  1  0
  4  5  1  1
  6  4  1  0
  6 10  1  0
  7  6  2  0
  9  8  1  6
  9 10  1  0
  9 11  1  0
 11 12  2  0
 13 14  1  0
 15 14  1  1
 15 17  1  0
 16 11  1  0
 16 15  1  0
 17 18  1  0
 19 17  2  0
M  END
$$$$
