TAS.pdb
     RDKit          3D

 19 18  0  0  1  0  0  0  0  0999 V2000
    7.7341  -17.4624   16.5529 C   0  0  0  0  0  0  0  0  0  0  0  0
    8.2133  -16.9793   15.2083 C   0  0  1  0  0  0  0  0  0  0  0  0
    7.4643  -17.5888   14.2131 O   0  0  0  0  0  0  0  0  0  0  0  0
    8.0395  -15.4657   15.1431 C   0  0  2  0  0  0  0  0  0  0  0  0
    8.2518  -15.0232   13.8004 N   0  0  0  0  0  0  0  0  0  0  0  0
    8.8700  -14.7609   16.1311 C   0  0  0  0  0  0  0  0  0  0  0  0
   10.1392  -14.7391   16.0743 O   0  0  0  0  0  0  0  0  0  0  0  0
    8.0775  -12.8017   19.3001 C   0  0  0  0  0  0  0  0  0  0  0  0
    8.9667  -13.5416   18.3327 C   0  0  2  0  0  0  0  0  0  0  0  0
    8.2387  -14.0702   17.2007 N   0  0  0  0  0  0  0  0  0  0  0  0
    9.7686  -14.5912   19.0184 C   0  0  0  0  0  0  0  0  0  0  0  0
    9.3597  -15.7741   19.1477 O   0  0  0  0  0  0  0  0  0  0  0  0
   13.8209  -14.3209   18.9857 O   0  0  0  0  0  0  0  0  0  0  0  0
   13.3099  -14.5664   20.2479 C   0  0  0  0  0  0  0  0  0  0  0  0
   11.9268  -15.2189   20.1752 C   0  0  2  0  0  0  0  0  0  0  0  0
   11.0467  -14.2849   19.5596 N   0  0  0  0  0  0  0  0  0  0  0  0
   11.4992  -15.4711   21.5691 C   0  0  0  0  0  0  0  0  0  0  0  0
   12.1719  -16.4115   22.3188 O   0  0  0  0  0  0  0  0  0  0  0  0
   10.5401  -14.8260   22.0315 O   0  0  0  0  0  0  0  0  0  0  0  0
  2  3  1  0
  2  1  1  1
  4  2  1  0
  4  5  1  6
  6  4  1  0
  6 10  1  0
  7  6  2  0
  9  8  1  1
  9 10  1  0
  9 11  1  0
 11 12  2  0
 13 14  1  0
 15 14  1  1
 15 17  1  0
 16 11  1  0
 16 15  1  0
 17 18  1  0
 19 17  2  0
M  END
$$$$
