TAS.pdb
     RDKit          3D

 19 18  0  0  1  0  0  0  0  0999 V2000
   11.4227  -14.7097   19.1818 C   0  0  0  0  0  0  0  0  0  0  0  0
   10.5611  -13.6007   18.6354 C   0  0  1  0  0  0  0  0  0  0  0  0
   11.0327  -13.2333   17.3841 O   0  0  0  0  0  0  0  0  0  0  0  0
    9.1261  -14.1053   18.5277 C   0  0  2  0  0  0  0  0  0  0  0  0
    8.3155  -13.0978   17.9181 N   0  0  0  0  0  0  0  0  0  0  0  0
    8.5993  -14.5824   19.8151 C   0  0  0  0  0  0  0  0  0  0  0  0
    8.1432  -13.7992   20.7058 O   0  0  0  0  0  0  0  0  0  0  0  0
    7.9675  -18.0371   21.2737 C   0  0  0  0  0  0  0  0  0  0  0  0
    8.0845  -16.5344   21.3210 C   0  0  2  0  0  0  0  0  0  0  0  0
    8.5941  -15.9771   20.0879 N   0  0  0  0  0  0  0  0  0  0  0  0
    8.8689  -16.0827   22.5023 C   0  0  0  0  0  0  0  0  0  0  0  0
   10.1239  -15.9946   22.4838 O   0  0  0  0  0  0  0  0  0  0  0  0
    6.6149  -14.8112   25.6887 O   0  0  0  0  0  0  0  0  0  0  0  0
    7.8638  -14.2357   25.5352 C   0  0  0  0  0  0  0  0  0  0  0  0
    8.8485  -15.2024   24.8719 C   0  0  2  0  0  0  0  0  0  0  0  0
    8.2126  -15.7297   23.7126 N   0  0  0  0  0  0  0  0  0  0  0  0
    9.1030  -16.2879   25.8447 C   0  0  0  0  0  0  0  0  0  0  0  0
    9.8782  -16.0280   26.9540 O   0  0  0  0  0  0  0  0  0  0  0  0
    8.6095  -17.4117   25.6367 O   0  0  0  0  0  0  0  0  0  0  0  0
  2  3  1  0
  2  1  1  6
  4  2  1  0
  4  5  1  1
  6  4  1  0
  6 10  1  0
  7  6  2  0
  9  8  1  6
  9 10  1  0
  9 11  1  0
 11 12  2  0
 13 14  1  0
 15 14  1  1
 15 17  1  0
 16 11  1  0
 16 15  1  0
 17 18  1  0
 19 17  2  0
M  END
$$$$
