TAS.pdb
     RDKit          3D

 19 18  0  0  1  0  0  0  0  0999 V2000
    7.6876  -12.4602   19.2908 C   0  0  0  0  0  0  0  0  0  0  0  0
    7.8295  -13.9413   19.0516 C   0  0  1  0  0  0  0  0  0  0  0  0
    8.3417  -14.1491   17.7797 O   0  0  0  0  0  0  0  0  0  0  0  0
    8.7769  -14.5165   20.0989 C   0  0  2  0  0  0  0  0  0  0  0  0
    9.1896  -15.8243   19.6952 N   0  0  0  0  0  0  0  0  0  0  0  0
    8.2097  -14.4730   21.4550 C   0  0  0  0  0  0  0  0  0  0  0  0
    7.8177  -13.3961   22.0038 O   0  0  0  0  0  0  0  0  0  0  0  0
    7.3855  -17.1479   24.0371 C   0  0  0  0  0  0  0  0  0  0  0  0
    7.4947  -15.7386   23.5117 C   0  0  2  0  0  0  0  0  0  0  0  0
    8.0891  -15.6803   22.1949 N   0  0  0  0  0  0  0  0  0  0  0  0
    8.1920  -14.8464   24.4773 C   0  0  0  0  0  0  0  0  0  0  0  0
    9.4461  -14.7565   24.5268 O   0  0  0  0  0  0  0  0  0  0  0  0
    5.7075  -12.7003   26.9062 O   0  0  0  0  0  0  0  0  0  0  0  0
    6.9543  -12.1322   26.7134 C   0  0  0  0  0  0  0  0  0  0  0  0
    8.0075  -13.1922   26.3801 C   0  0  2  0  0  0  0  0  0  0  0  0
    7.4492  -14.0519   25.3924 N   0  0  0  0  0  0  0  0  0  0  0  0
    8.2590  -13.9515   27.6249 C   0  0  0  0  0  0  0  0  0  0  0  0
    8.9047  -13.3305   28.6720 O   0  0  0  0  0  0  0  0  0  0  0  0
    7.8802  -15.1352   27.6960 O   0  0  0  0  0  0  0  0  0  0  0  0
  2  3  1  0
  2  1  1  1
  4  2  1  0
  4  5  1  6
  6  4  1  0
  6 10  1  0
  7  6  2  0
  9  8  1  1
  9 10  1  0
  9 11  1  0
 11 12  2  0
 13 14  1  0
 15 14  1  1
 15 17  1  0
 16 11  1  0
 16 15  1  0
 17 18  1  0
 19 17  2  0
M  END
$$$$
