TAS.pdb
     RDKit          3D

 19 18  0  0  1  0  0  0  0  0999 V2000
    7.5114  -12.2337   18.0487 C   0  0  0  0  0  0  0  0  0  0  0  0
    7.5914  -13.4922   18.8738 C   0  0  1  0  0  0  0  0  0  0  0  0
    7.0272  -14.5394   18.1609 O   0  0  0  0  0  0  0  0  0  0  0  0
    9.0574  -13.7892   19.1702 C   0  0  2  0  0  0  0  0  0  0  0  0
    9.7363  -14.0847   17.9473 N   0  0  0  0  0  0  0  0  0  0  0  0
    9.2245  -14.8266   20.1991 C   0  0  0  0  0  0  0  0  0  0  0  0
    8.6892  -14.7491   21.3490 O   0  0  0  0  0  0  0  0  0  0  0  0
   10.8686  -18.2535   20.2288 C   0  0  0  0  0  0  0  0  0  0  0  0
   10.2274  -17.0413   20.8562 C   0  0  2  0  0  0  0  0  0  0  0  0
   10.0161  -15.9703   19.9081 N   0  0  0  0  0  0  0  0  0  0  0  0
   10.9794  -16.5827   22.0558 C   0  0  0  0  0  0  0  0  0  0  0  0
   12.0539  -15.9335   21.9697 O   0  0  0  0  0  0  0  0  0  0  0  0
    8.9477  -16.6647   25.5271 O   0  0  0  0  0  0  0  0  0  0  0  0
   10.1114  -15.9163   25.5112 C   0  0  0  0  0  0  0  0  0  0  0  0
   11.1584  -16.5283   24.5768 C   0  0  2  0  0  0  0  0  0  0  0  0
   10.4987  -16.8690   23.3624 N   0  0  0  0  0  0  0  0  0  0  0  0
   11.6589  -17.7531   25.2391 C   0  0  0  0  0  0  0  0  0  0  0  0
   12.4178  -17.6361   26.3834 O   0  0  0  0  0  0  0  0  0  0  0  0
   11.3815  -18.8617   24.7454 O   0  0  0  0  0  0  0  0  0  0  0  0
  2  3  1  0
  2  1  1  6
  4  2  1  0
  4  5  1  6
  6  4  1  0
  6 10  1  0
  7  6  2  0
  9  8  1  6
  9 10  1  0
  9 11  1  0
 11 12  2  0
 13 14  1  0
 15 14  1  1
 15 17  1  0
 16 11  1  0
 16 15  1  0
 17 18  1  0
 19 17  2  0
M  END
$$$$
