TAS.pdb
     RDKit          3D

 19 18  0  0  1  0  0  0  0  0999 V2000
   -1.6005  -28.3818   29.0603 C   0  0  0  0  0  0  0  0  0  0  0  0
   -2.0550  -27.0609   29.6258 C   0  0  1  0  0  0  0  0  0  0  0  0
   -0.9505  -26.2444   29.8170 O   0  0  0  0  0  0  0  0  0  0  0  0
   -3.0210  -26.4139   28.6391 C   0  0  2  0  0  0  0  0  0  0  0  0
   -2.3385  -26.1560   27.4097 N   0  0  0  0  0  0  0  0  0  0  0  0
   -3.6879  -25.2290   29.1994 C   0  0  0  0  0  0  0  0  0  0  0  0
   -4.3124  -25.2485   30.3058 O   0  0  0  0  0  0  0  0  0  0  0  0
   -4.0040  -21.6044   28.0856 C   0  0  0  0  0  0  0  0  0  0  0  0
   -4.3722  -22.8249   28.8912 C   0  0  2  0  0  0  0  0  0  0  0  0
   -3.6396  -24.0027   28.4828 N   0  0  0  0  0  0  0  0  0  0  0  0
   -5.8423  -23.0566   28.8939 C   0  0  0  0  0  0  0  0  0  0  0  0
   -6.4521  -23.5256   27.8982 O   0  0  0  0  0  0  0  0  0  0  0  0
   -7.9647  -24.9085   31.5571 O   0  0  0  0  0  0  0  0  0  0  0  0
   -8.2856  -23.5627   31.5397 C   0  0  0  0  0  0  0  0  0  0  0  0
   -8.0246  -22.9422   30.1646 C   0  0  2  0  0  0  0  0  0  0  0  0
   -6.6195  -22.7496   30.0436 N   0  0  0  0  0  0  0  0  0  0  0  0
   -8.7158  -21.6340   30.1476 C   0  0  0  0  0  0  0  0  0  0  0  0
   -7.9703  -20.4788   30.2394 O   0  0  0  0  0  0  0  0  0  0  0  0
   -9.9567  -21.6090   30.0504 O   0  0  0  0  0  0  0  0  0  0  0  0
  2  3  1  0
  2  1  1  6
  4  2  1  0
  4  5  1  6
  6  4  1  0
  6 10  1  0
  7  6  2  0
  9  8  1  6
  9 10  1  0
  9 11  1  0
 11 12  2  0
 13 14  1  0
 15 14  1  1
 15 17  1  0
 16 11  1  0
 16 15  1  0
 17 18  1  0
 19 17  2  0
M  END
$$$$
