TAS.pdb
     RDKit          3D

 19 18  0  0  1  0  0  0  0  0999 V2000
    9.0488  -15.7678   17.3655 C   0  0  0  0  0  0  0  0  0  0  0  0
    8.7605  -14.2925   17.4731 C   0  0  1  0  0  0  0  0  0  0  0  0
    8.4842  -13.7903   16.2104 O   0  0  0  0  0  0  0  0  0  0  0  0
    7.5584  -14.0957   18.3905 C   0  0  2  0  0  0  0  0  0  0  0  0
    7.1741  -12.7188   18.3768 N   0  0  0  0  0  0  0  0  0  0  0  0
    7.7892  -14.6267   19.7423 C   0  0  0  0  0  0  0  0  0  0  0  0
    8.5404  -14.0506   20.5899 O   0  0  0  0  0  0  0  0  0  0  0  0
    6.5310  -17.6953   21.6136 C   0  0  0  0  0  0  0  0  0  0  0  0
    7.4127  -16.4922   21.3918 C   0  0  2  0  0  0  0  0  0  0  0  0
    7.1508  -15.8355   20.1305 N   0  0  0  0  0  0  0  0  0  0  0  0
    8.8527  -16.8308   21.5548 C   0  0  0  0  0  0  0  0  0  0  0  0
    9.5555  -17.2606   20.6036 O   0  0  0  0  0  0  0  0  0  0  0  0
   12.8607  -15.9379   23.8995 O   0  0  0  0  0  0  0  0  0  0  0  0
   11.5171  -15.7317   23.6414 C   0  0  0  0  0  0  0  0  0  0  0  0
   10.8510  -16.9969   23.0942 C   0  0  2  0  0  0  0  0  0  0  0  0
    9.4926  -16.6766   22.8146 N   0  0  0  0  0  0  0  0  0  0  0  0
   10.9184  -18.0138   24.1670 C   0  0  0  0  0  0  0  0  0  0  0  0
   12.1133  -18.6553   24.4108 O   0  0  0  0  0  0  0  0  0  0  0  0
    9.8916  -18.2653   24.8245 O   0  0  0  0  0  0  0  0  0  0  0  0
  2  3  1  0
  2  1  1  6
  4  2  1  0
  4  5  1  1
  6  4  1  0
  6 10  1  0
  7  6  2  0
  9  8  1  6
  9 10  1  0
  9 11  1  0
 11 12  2  0
 13 14  1  0
 15 14  1  1
 15 17  1  0
 16 11  1  0
 16 15  1  0
 17 18  1  0
 19 17  2  0
M  END
$$$$
