TAS.pdb
     RDKit          3D

 19 18  0  0  1  0  0  0  0  0999 V2000
   10.0917  -14.0711   19.7234 C   0  0  0  0  0  0  0  0  0  0  0  0
    8.8476  -13.2806   19.4096 C   0  0  1  0  0  0  0  0  0  0  0  0
    9.0221  -12.6185   18.2037 O   0  0  0  0  0  0  0  0  0  0  0  0
    7.6688  -14.2432   19.3136 C   0  0  2  0  0  0  0  0  0  0  0  0
    6.5254  -13.5421   18.8188 N   0  0  0  0  0  0  0  0  0  0  0  0
    7.4193  -14.9549   20.5761 C   0  0  0  0  0  0  0  0  0  0  0  0
    6.8729  -14.4031   21.5818 O   0  0  0  0  0  0  0  0  0  0  0  0
    7.6256  -18.5865   21.6230 C   0  0  0  0  0  0  0  0  0  0  0  0
    7.5710  -17.1022   21.8835 C   0  0  2  0  0  0  0  0  0  0  0  0
    7.8008  -16.3191   20.6898 N   0  0  0  0  0  0  0  0  0  0  0  0
    8.4810  -16.7066   22.9926 C   0  0  0  0  0  0  0  0  0  0  0  0
    9.6846  -16.3955   22.7979 O   0  0  0  0  0  0  0  0  0  0  0  0
    7.4643  -14.2630   25.5711 O   0  0  0  0  0  0  0  0  0  0  0  0
    7.9129  -15.3427   26.3111 C   0  0  0  0  0  0  0  0  0  0  0  0
    8.7803  -16.2794   25.4662 C   0  0  2  0  0  0  0  0  0  0  0  0
    8.0105  -16.6670   24.3333 N   0  0  0  0  0  0  0  0  0  0  0  0
    9.0738  -17.4628   26.3046 C   0  0  0  0  0  0  0  0  0  0  0  0
    9.8090  -17.3028   27.4591 O   0  0  0  0  0  0  0  0  0  0  0  0
    8.6484  -18.5763   25.9457 O   0  0  0  0  0  0  0  0  0  0  0  0
  2  3  1  0
  2  1  1  6
  4  2  1  0
  4  5  1  1
  6  4  1  0
  6 10  1  0
  7  6  2  0
  9  8  1  6
  9 10  1  0
  9 11  1  0
 11 12  2  0
 13 14  1  0
 15 14  1  1
 15 17  1  0
 16 11  1  0
 16 15  1  0
 17 18  1  0
 19 17  2  0
M  END
$$$$
