TAS.pdb
     RDKit          3D

 19 18  0  0  1  0  0  0  0  0999 V2000
    8.0744  -12.8667   18.9951 C   0  0  0  0  0  0  0  0  0  0  0  0
    7.7785  -13.5022   17.6611 C   0  0  1  0  0  0  0  0  0  0  0  0
    8.0222  -12.5800   16.6545 O   0  0  0  0  0  0  0  0  0  0  0  0
    8.6822  -14.7183   17.4885 C   0  0  2  0  0  0  0  0  0  0  0  0
    8.5460  -15.2230   16.1579 N   0  0  0  0  0  0  0  0  0  0  0  0
    8.4611  -15.7356   18.5271 C   0  0  0  0  0  0  0  0  0  0  0  0
    7.8100  -16.8061   18.3156 O   0  0  0  0  0  0  0  0  0  0  0  0
    9.6898  -17.8272   20.3354 C   0  0  0  0  0  0  0  0  0  0  0  0
    9.0394  -16.5617   20.8349 C   0  0  2  0  0  0  0  0  0  0  0  0
    8.9932  -15.5251   19.8279 N   0  0  0  0  0  0  0  0  0  0  0  0
    9.6670  -16.0844   22.0970 C   0  0  0  0  0  0  0  0  0  0  0  0
   10.8819  -15.7639   22.1659 O   0  0  0  0  0  0  0  0  0  0  0  0
    7.1703  -14.3187   24.7218 O   0  0  0  0  0  0  0  0  0  0  0  0
    8.0950  -15.1237   25.3633 C   0  0  0  0  0  0  0  0  0  0  0  0
    9.3342  -15.3556   24.4947 C   0  0  2  0  0  0  0  0  0  0  0  0
    8.8994  -15.9731   23.2881 N   0  0  0  0  0  0  0  0  0  0  0  0
   10.2150  -16.2786   25.2440 C   0  0  0  0  0  0  0  0  0  0  0  0
   10.4100  -17.5568   24.7674 O   0  0  0  0  0  0  0  0  0  0  0  0
   10.7597  -15.8770   26.2889 O   0  0  0  0  0  0  0  0  0  0  0  0
  2  3  1  0
  2  1  1  1
  4  2  1  0
  4  5  1  6
  6  4  1  0
  6 10  1  0
  7  6  2  0
  9  8  1  6
  9 10  1  0
  9 11  1  0
 11 12  2  0
 13 14  1  0
 15 14  1  1
 15 17  1  0
 16 11  1  0
 16 15  1  0
 17 18  1  0
 19 17  2  0
M  END
$$$$
