TAS.pdb
     RDKit          3D

 19 18  0  0  1  0  0  0  0  0999 V2000
    7.8670  -17.7147   18.8756 C   0  0  0  0  0  0  0  0  0  0  0  0
    8.8297  -17.5250   17.7318 C   0  0  1  0  0  0  0  0  0  0  0  0
    8.6412  -18.5403   16.8061 O   0  0  0  0  0  0  0  0  0  0  0  0
    8.5600  -16.1700   17.0864 C   0  0  2  0  0  0  0  0  0  0  0  0
    9.1585  -16.1374   15.7885 N   0  0  0  0  0  0  0  0  0  0  0  0
    8.9628  -15.0471   17.9462 C   0  0  0  0  0  0  0  0  0  0  0  0
   10.1762  -14.7105   18.1167 O   0  0  0  0  0  0  0  0  0  0  0  0
    7.1383  -12.3302   19.8437 C   0  0  0  0  0  0  0  0  0  0  0  0
    8.2687  -13.3044   19.6268 C   0  0  2  0  0  0  0  0  0  0  0  0
    7.9620  -14.2975   18.6215 N   0  0  0  0  0  0  0  0  0  0  0  0
    8.7106  -13.9245   20.9054 C   0  0  0  0  0  0  0  0  0  0  0  0
    9.1406  -13.2425   21.8715 O   0  0  0  0  0  0  0  0  0  0  0  0
    7.0071  -17.3562   22.0715 O   0  0  0  0  0  0  0  0  0  0  0  0
    8.3842  -17.4256   22.1865 C   0  0  0  0  0  0  0  0  0  0  0  0
    9.0104  -16.0311   22.2704 C   0  0  2  0  0  0  0  0  0  0  0  0
    8.6601  -15.3343   21.0796 N   0  0  0  0  0  0  0  0  0  0  0  0
   10.4764  -16.2234   22.3288 C   0  0  0  0  0  0  0  0  0  0  0  0
   11.2544  -15.7817   21.2807 O   0  0  0  0  0  0  0  0  0  0  0  0
   10.9720  -16.7807   23.3256 O   0  0  0  0  0  0  0  0  0  0  0  0
  2  3  1  0
  2  1  1  1
  4  2  1  0
  4  5  1  6
  6  4  1  0
  6 10  1  0
  7  6  2  0
  9  8  1  1
  9 10  1  0
  9 11  1  0
 11 12  2  0
 13 14  1  0
 15 14  1  6
 15 17  1  0
 16 11  1  0
 16 15  1  0
 17 18  1  0
 19 17  2  0
M  END
$$$$
