TAS.pdb
     RDKit          3D

 19 18  0  0  1  0  0  0  0  0999 V2000
    7.1173  -17.0916   14.2404 C   0  0  0  0  0  0  0  0  0  0  0  0
    7.8186  -16.7223   15.5221 C   0  0  1  0  0  0  0  0  0  0  0  0
    8.9575  -17.5019   15.6579 O   0  0  0  0  0  0  0  0  0  0  0  0
    8.1973  -15.2463   15.4636 C   0  0  2  0  0  0  0  0  0  0  0  0
    8.9641  -15.0017   14.2821 N   0  0  0  0  0  0  0  0  0  0  0  0
    8.8548  -14.7848   16.6954 C   0  0  0  0  0  0  0  0  0  0  0  0
   10.1113  -14.8518   16.8724 O   0  0  0  0  0  0  0  0  0  0  0  0
    7.6030  -13.0997   19.8705 C   0  0  0  0  0  0  0  0  0  0  0  0
    8.6211  -13.7875   18.9962 C   0  0  2  0  0  0  0  0  0  0  0  0
    8.0626  -14.2382   17.7409 N   0  0  0  0  0  0  0  0  0  0  0  0
    9.3152  -14.8852   19.7229 C   0  0  0  0  0  0  0  0  0  0  0  0
    8.9356  -16.0830   19.6555 O   0  0  0  0  0  0  0  0  0  0  0  0
   13.2113  -15.7737   22.5559 O   0  0  0  0  0  0  0  0  0  0  0  0
   12.4633  -14.9150   21.7701 C   0  0  0  0  0  0  0  0  0  0  0  0
   11.1524  -15.5655   21.3205 C   0  0  2  0  0  0  0  0  0  0  0  0
   10.4510  -14.6103   20.5320 N   0  0  0  0  0  0  0  0  0  0  0  0
   10.3827  -15.8688   22.5473 C   0  0  0  0  0  0  0  0  0  0  0  0
   10.6887  -17.0017   23.2697 O   0  0  0  0  0  0  0  0  0  0  0  0
    9.4757  -15.0914   22.8975 O   0  0  0  0  0  0  0  0  0  0  0  0
  2  3  1  0
  2  1  1  6
  4  2  1  0
  4  5  1  6
  6  4  1  0
  6 10  1  0
  7  6  2  0
  9  8  1  1
  9 10  1  0
  9 11  1  0
 11 12  2  0
 13 14  1  0
 15 14  1  1
 15 17  1  0
 16 11  1  0
 16 15  1  0
 17 18  1  0
 19 17  2  0
M  END
$$$$
