TAS.pdb
     RDKit          3D

 19 18  0  0  1  0  0  0  0  0999 V2000
    8.2089  -12.4512   18.3167 C   0  0  0  0  0  0  0  0  0  0  0  0
    8.6672  -13.2868   19.4841 C   0  0  1  0  0  0  0  0  0  0  0  0
    8.4513  -12.5828   20.6592 O   0  0  0  0  0  0  0  0  0  0  0  0
    7.8696  -14.5864   19.4971 C   0  0  2  0  0  0  0  0  0  0  0  0
    6.4731  -14.2842   19.4524 N   0  0  0  0  0  0  0  0  0  0  0  0
    8.2440  -15.4651   20.6154 C   0  0  0  0  0  0  0  0  0  0  0  0
    7.5678  -15.5406   21.6886 O   0  0  0  0  0  0  0  0  0  0  0  0
   11.0789  -17.9474   21.1697 C   0  0  0  0  0  0  0  0  0  0  0  0
    9.8667  -17.1416   21.5636 C   0  0  2  0  0  0  0  0  0  0  0  0
    9.4099  -16.2700   20.5042 N   0  0  0  0  0  0  0  0  0  0  0  0
   10.0900  -16.4021   22.8356 C   0  0  0  0  0  0  0  0  0  0  0  0
   10.6218  -15.2621   22.8676 O   0  0  0  0  0  0  0  0  0  0  0  0
    7.7703  -15.1515   25.1610 O   0  0  0  0  0  0  0  0  0  0  0  0
    8.4476  -16.0996   25.9072 C   0  0  0  0  0  0  0  0  0  0  0  0
    9.8519  -16.3513   25.3518 C   0  0  2  0  0  0  0  0  0  0  0  0
    9.7022  -16.9709   24.0791 N   0  0  0  0  0  0  0  0  0  0  0  0
   10.5222  -17.2800   26.2887 C   0  0  0  0  0  0  0  0  0  0  0  0
   10.8470  -16.8403   27.5536 O   0  0  0  0  0  0  0  0  0  0  0  0
   10.7768  -18.4383   25.9103 O   0  0  0  0  0  0  0  0  0  0  0  0
  2  3  1  0
  2  1  1  6
  4  2  1  0
  4  5  1  1
  6  4  1  0
  6 10  1  0
  7  6  2  0
  9  8  1  6
  9 10  1  0
  9 11  1  0
 11 12  2  0
 13 14  1  0
 15 14  1  1
 15 17  1  0
 16 11  1  0
 16 15  1  0
 17 18  1  0
 19 17  2  0
M  END
$$$$
