TAS.pdb
     RDKit          3D

 19 18  0  0  1  0  0  0  0  0999 V2000
    7.1541  -17.4024   16.5529 C   0  0  0  0  0  0  0  0  0  0  0  0
    8.2478  -16.9828   15.6049 C   0  0  1  0  0  0  0  0  0  0  0  0
    7.8836  -17.3246   14.3111 O   0  0  0  0  0  0  0  0  0  0  0  0
    8.4371  -15.4737   15.7152 C   0  0  2  0  0  0  0  0  0  0  0  0
    9.2431  -15.0178   14.6260 N   0  0  0  0  0  0  0  0  0  0  0  0
    8.9467  -15.0654   17.0329 C   0  0  0  0  0  0  0  0  0  0  0  0
   10.1128  -15.3606   17.4424 O   0  0  0  0  0  0  0  0  0  0  0  0
    7.4591  -13.0886   19.9286 C   0  0  0  0  0  0  0  0  0  0  0  0
    8.4809  -13.9661   19.2504 C   0  0  2  0  0  0  0  0  0  0  0  0
    8.1093  -14.3076   17.8954 N   0  0  0  0  0  0  0  0  0  0  0  0
    8.7926  -15.1731   20.0633 C   0  0  0  0  0  0  0  0  0  0  0  0
    8.3002  -16.3026   19.8081 O   0  0  0  0  0  0  0  0  0  0  0  0
   12.4350  -17.3393   21.7821 O   0  0  0  0  0  0  0  0  0  0  0  0
   11.7408  -16.2683   21.2479 C   0  0  0  0  0  0  0  0  0  0  0  0
   10.3170  -16.1894   21.8051 C   0  0  2  0  0  0  0  0  0  0  0  0
    9.6734  -15.0869   21.1755 N   0  0  0  0  0  0  0  0  0  0  0  0
   10.4397  -15.9386   23.2582 C   0  0  0  0  0  0  0  0  0  0  0  0
   10.9036  -16.9450   24.0771 O   0  0  0  0  0  0  0  0  0  0  0  0
   10.1201  -14.8219   23.7062 O   0  0  0  0  0  0  0  0  0  0  0  0
  2  3  1  0
  2  1  1  1
  4  2  1  0
  4  5  1  6
  6  4  1  0
  6 10  1  0
  7  6  2  0
  9  8  1  1
  9 10  1  0
  9 11  1  0
 11 12  2  0
 13 14  1  0
 15 14  1  6
 15 17  1  0
 16 11  1  0
 16 15  1  0
 17 18  1  0
 19 17  2  0
M  END
$$$$
