TAS.pdb
     RDKit          3D

 19 18  0  0  1  0  0  0  0  0999 V2000
    7.1346  -16.3455   13.9702 C   0  0  0  0  0  0  0  0  0  0  0  0
    7.6571  -16.1778   15.3737 C   0  0  1  0  0  0  0  0  0  0  0  0
    8.6094  -17.1544   15.6238 O   0  0  0  0  0  0  0  0  0  0  0  0
    8.2811  -14.7922   15.5000 C   0  0  2  0  0  0  0  0  0  0  0  0
    9.2352  -14.6064   14.4516 N   0  0  0  0  0  0  0  0  0  0  0  0
    8.8280  -14.5415   16.8419 C   0  0  0  0  0  0  0  0  0  0  0  0
   10.0242  -14.8262   17.1626 O   0  0  0  0  0  0  0  0  0  0  0  0
    7.4114  -12.9995   20.0204 C   0  0  0  0  0  0  0  0  0  0  0  0
    8.4043  -13.7931   19.2090 C   0  0  2  0  0  0  0  0  0  0  0  0
    7.9937  -13.9561   17.8322 N   0  0  0  0  0  0  0  0  0  0  0  0
    8.7216  -15.0964   19.8535 C   0  0  0  0  0  0  0  0  0  0  0  0
    8.0734  -16.1460   19.6054 O   0  0  0  0  0  0  0  0  0  0  0  0
   12.4411  -15.6670   21.2246 O   0  0  0  0  0  0  0  0  0  0  0  0
   11.5816  -16.7406   21.0728 C   0  0  0  0  0  0  0  0  0  0  0  0
   10.1546  -16.3797   21.4937 C   0  0  2  0  0  0  0  0  0  0  0  0
    9.7876  -15.1992   20.7880 N   0  0  0  0  0  0  0  0  0  0  0  0
   10.1937  -16.1060   22.9474 C   0  0  0  0  0  0  0  0  0  0  0  0
   10.4957  -17.1318   23.8164 O   0  0  0  0  0  0  0  0  0  0  0  0
    9.9525  -14.9531   23.3504 O   0  0  0  0  0  0  0  0  0  0  0  0
  2  3  1  0
  2  1  1  6
  4  2  1  0
  4  5  1  6
  6  4  1  0
  6 10  1  0
  7  6  2  0
  9  8  1  1
  9 10  1  0
  9 11  1  0
 11 12  2  0
 13 14  1  0
 15 14  1  6
 15 17  1  0
 16 11  1  0
 16 15  1  0
 17 18  1  0
 19 17  2  0
M  END
$$$$
