TAS.pdb
     RDKit          3D

 19 18  0  0  1  0  0  0  0  0999 V2000
    6.5793  -18.1138   15.8339 C   0  0  0  0  0  0  0  0  0  0  0  0
    7.1185  -17.6124   17.1488 C   0  0  1  0  0  0  0  0  0  0  0  0
    7.8305  -18.6301   17.7656 O   0  0  0  0  0  0  0  0  0  0  0  0
    8.0321  -16.4216   16.8796 C   0  0  2  0  0  0  0  0  0  0  0  0
    9.0321  -16.7984   15.9300 N   0  0  0  0  0  0  0  0  0  0  0  0
    8.5840  -15.8452   18.1149 C   0  0  0  0  0  0  0  0  0  0  0  0
    9.6679  -16.2503   18.6399 O   0  0  0  0  0  0  0  0  0  0  0  0
    7.3915  -13.1247   20.4999 C   0  0  0  0  0  0  0  0  0  0  0  0
    8.2845  -14.2495   20.0403 C   0  0  2  0  0  0  0  0  0  0  0  0
    7.8851  -14.7891   18.7596 N   0  0  0  0  0  0  0  0  0  0  0  0
    8.4079  -15.3099   21.0772 C   0  0  0  0  0  0  0  0  0  0  0  0
    7.5323  -16.1989   21.2391 O   0  0  0  0  0  0  0  0  0  0  0  0
   12.1405  -15.8757   22.4999 O   0  0  0  0  0  0  0  0  0  0  0  0
   11.2211  -16.9047   22.6007 C   0  0  0  0  0  0  0  0  0  0  0  0
    9.8145  -16.3732   22.8887 C   0  0  2  0  0  0  0  0  0  0  0  0
    9.5408  -15.3530   21.9345 N   0  0  0  0  0  0  0  0  0  0  0  0
    9.8464  -15.7944   24.2501 C   0  0  0  0  0  0  0  0  0  0  0  0
    9.6671  -14.4373   24.4077 O   0  0  0  0  0  0  0  0  0  0  0  0
   10.0348  -16.5494   25.2218 O   0  0  0  0  0  0  0  0  0  0  0  0
  2  3  1  0
  2  1  1  6
  4  2  1  0
  4  5  1  6
  6  4  1  0
  6 10  1  0
  7  6  2  0
  9  8  1  1
  9 10  1  0
  9 11  1  0
 11 12  2  0
 13 14  1  0
 15 14  1  6
 15 17  1  0
 16 11  1  0
 16 15  1  0
 17 18  1  0
 19 17  2  0
M  END
$$$$
