ARY.pdb
     RDKit          3D

 29 29  0  0  1  0  0  0  0  0999 V2000
    7.0097  -12.8677   19.0271 C   0  0  0  0  0  0  0  0  0  0  0  0
    8.1224  -13.2992   19.9527 C   0  0  2  0  0  0  0  0  0  0  0  0
    9.1768  -13.8954   19.1585 N   0  0  0  0  0  0  0  0  0  0  0  0
    7.6682  -14.2723   20.9752 C   0  0  0  0  0  0  0  0  0  0  0  0
    6.6916  -14.0481   21.7355 O   0  0  0  0  0  0  0  0  0  0  0  0
   10.8127  -17.7684   18.1652 N   0  0  0  0  0  0  0  0  0  0  0  0
   11.8040  -18.5290   18.8519 C   0  0  0  0  0  0  0  0  0  0  0  0
   13.0381  -18.4249   18.4999 N   0  0  0  0  0  0  0  0  0  0  0  0
   11.3725  -19.3723   19.9021 N   0  0  0  0  0  0  0  0  0  0  0  0
    9.8984  -19.3334   20.1892 C   0  0  0  0  0  0  0  0  0  0  0  0
    9.6327  -18.0782   20.9101 C   0  0  0  0  0  0  0  0  0  0  0  0
    8.2687  -17.8063   21.3639 C   0  0  0  0  0  0  0  0  0  0  0  0
    7.8474  -16.5637   22.0532 C   0  0  2  0  0  0  0  0  0  0  0  0
    8.3385  -15.4889   21.1131 N   0  0  0  0  0  0  0  0  0  0  0  0
    8.6515  -16.3069   23.2689 C   0  0  0  0  0  0  0  0  0  0  0  0
    9.8858  -15.9645   23.2484 O   0  0  0  0  0  0  0  0  0  0  0  0
   13.7794  -18.9155   19.0129 O   0  0  0  0  0  0  0  0  0  0  0  0
    6.1807  -10.3760   25.4508 C   0  0  0  0  0  0  0  0  0  0  0  0
    6.5598  -11.6651   25.8136 C   0  0  0  0  0  0  0  0  0  0  0  0
    7.5437  -12.2825   25.0718 C   0  0  0  0  0  0  0  0  0  0  0  0
    7.9206  -13.5595   25.4309 C   0  0  0  0  0  0  0  0  0  0  0  0
    7.3622  -14.2514   26.4960 C   0  0  0  0  0  0  0  0  0  0  0  0
    7.8093  -15.6168   26.7932 C   0  0  2  0  0  0  0  0  0  0  0  0
    8.7903  -16.0740   25.7496 N   0  0  0  0  0  0  0  0  0  0  0  0
    8.0292  -16.4447   24.5497 C   0  0  0  0  0  0  0  0  0  0  0  0
    9.4747  -17.2937   26.2263 O   0  0  0  0  0  0  0  0  0  0  0  0
    9.2367  -18.5070   25.5880 C   0  0  0  0  0  0  0  0  0  0  0  0
    6.3925  -13.6152   27.2088 C   0  0  0  0  0  0  0  0  0  0  0  0
    5.9866  -12.3284   26.8769 O   0  0  0  0  0  0  0  0  0  0  0  0
  2  3  1  0
  2  1  1  6
  4  2  1  0
  5  4  2  0
  7  6  1  0
  7  9  1  0
  8  7  2  0
 10  9  1  0
 10 11  1  0
 12 11  1  0
 13 12  1  6
 13 14  1  0
 14  4  1  0
 15 24  1  0
 15 13  1  0
 16 15  2  0
 18 17  1  0
 18 28  2  0
 19 18  1  0
 20 19  2  0
 20 21  1  0
 21 27  2  0
 22 21  1  0
 23 22  1  6
 23 24  1  0
 25 23  1  0
 25 26  1  0
 27 28  1  0
 29 25  2  0
M  END
$$$$
