ARY.pdb
     RDKit          3D

 29 29  0  0  1  0  0  0  0  0999 V2000
    6.8346  -11.7706   26.7759 C   0  0  0  0  0  0  0  0  0  0  0  0
    5.7989  -12.5895   26.0427 C   0  0  2  0  0  0  0  0  0  0  0  0
    4.9576  -13.2494   27.0198 N   0  0  0  0  0  0  0  0  0  0  0  0
    6.4041  -13.6066   25.1495 C   0  0  0  0  0  0  0  0  0  0  0  0
    6.6572  -14.7778   25.5319 O   0  0  0  0  0  0  0  0  0  0  0  0
   11.0308  -13.9238   18.9966 N   0  0  0  0  0  0  0  0  0  0  0  0
   10.1217  -14.3280   17.9753 C   0  0  0  0  0  0  0  0  0  0  0  0
   10.5693  -14.9436   16.9369 N   0  0  0  0  0  0  0  0  0  0  0  0
    8.7522  -14.0266   18.1597 N   0  0  0  0  0  0  0  0  0  0  0  0
    8.4320  -13.2359   19.3963 C   0  0  0  0  0  0  0  0  0  0  0  0
    7.7516  -14.1496   20.3280 C   0  0  0  0  0  0  0  0  0  0  0  0
    7.2260  -13.6082   21.5814 C   0  0  0  0  0  0  0  0  0  0  0  0
    7.4308  -14.2276   22.9123 C   0  0  2  0  0  0  0  0  0  0  0  0
    6.7113  -13.2687   23.8304 N   0  0  0  0  0  0  0  0  0  0  0  0
    8.8333  -14.1044   23.3687 C   0  0  0  0  0  0  0  0  0  0  0  0
    9.3955  -12.9889   23.6526 O   0  0  0  0  0  0  0  0  0  0  0  0
    9.9672  -15.1215   16.1250 O   0  0  0  0  0  0  0  0  0  0  0  0
   11.9071  -16.1331   30.8723 C   0  0  0  0  0  0  0  0  0  0  0  0
   11.2726  -16.0125   29.6394 C   0  0  0  0  0  0  0  0  0  0  0  0
   11.1498  -14.7521   29.0960 C   0  0  0  0  0  0  0  0  0  0  0  0
   10.5220  -14.6317   27.8740 C   0  0  0  0  0  0  0  0  0  0  0  0
   10.0097  -15.7100   27.1671 C   0  0  0  0  0  0  0  0  0  0  0  0
    9.3371  -15.4866   25.8826 C   0  0  2  0  0  0  0  0  0  0  0  0
   10.3419  -15.5196   24.7647 N   0  0  0  0  0  0  0  0  0  0  0  0
    9.6210  -15.2907   23.5060 C   0  0  0  0  0  0  0  0  0  0  0  0
   10.9388  -16.8690   24.6866 O   0  0  0  0  0  0  0  0  0  0  0  0
   12.2116  -17.0864   25.2055 C   0  0  0  0  0  0  0  0  0  0  0  0
   10.1459  -16.9419   27.7304 C   0  0  0  0  0  0  0  0  0  0  0  0
   10.7727  -17.1024   28.9601 O   0  0  0  0  0  0  0  0  0  0  0  0
  2  3  1  0
  2  1  1  1
  4  2  1  0
  5  4  2  0
  7  6  1  0
  7  9  1  0
  8  7  2  0
 10  9  1  0
 10 11  1  0
 12 11  1  0
 13 12  1  6
 13 14  1  0
 14  4  1  0
 15 24  1  0
 15 13  1  0
 16 15  2  0
 18 17  1  0
 18 28  2  0
 19 18  1  0
 20 19  2  0
 20 21  1  0
 21 27  2  0
 22 21  1  0
 23 22  1  1
 23 24  1  0
 25 23  1  0
 25 26  1  0
 27 28  1  0
 29 25  2  0
M  END
$$$$
