ARY.pdb
     RDKit          3D

 29 29  0  0  1  0  0  0  0  0999 V2000
    7.9542  -12.0375   19.9768 C   0  0  0  0  0  0  0  0  0  0  0  0
    8.2361  -13.3260   19.2411 C   0  0  2  0  0  0  0  0  0  0  0  0
    7.1879  -13.5372   18.2640 N   0  0  0  0  0  0  0  0  0  0  0  0
    8.3046  -14.4970   20.1481 C   0  0  0  0  0  0  0  0  0  0  0  0
    7.3068  -15.2231   20.3918 O   0  0  0  0  0  0  0  0  0  0  0  0
   14.2152  -20.3801   19.8167 N   0  0  0  0  0  0  0  0  0  0  0  0
   13.5107  -20.8984   20.9426 C   0  0  0  0  0  0  0  0  0  0  0  0
   13.8072  -22.0682   21.3912 N   0  0  0  0  0  0  0  0  0  0  0  0
   12.5057  -20.0863   21.5180 N   0  0  0  0  0  0  0  0  0  0  0  0
   12.2260  -18.8024   20.7897 C   0  0  0  0  0  0  0  0  0  0  0  0
   11.2069  -18.0792   21.5670 C   0  0  0  0  0  0  0  0  0  0  0  0
   10.6955  -16.8122   21.0439 C   0  0  0  0  0  0  0  0  0  0  0  0
    9.6400  -16.0017   21.6965 C   0  0  2  0  0  0  0  0  0  0  0  0
    9.5148  -14.8208   20.7639 N   0  0  0  0  0  0  0  0  0  0  0  0
   10.1232  -15.3661   22.9426 C   0  0  0  0  0  0  0  0  0  0  0  0
   10.3983  -14.1193   23.0470 O   0  0  0  0  0  0  0  0  0  0  0  0
   13.3377  -22.4541   22.2182 O   0  0  0  0  0  0  0  0  0  0  0  0
    6.3735  -10.7287   27.1923 C   0  0  0  0  0  0  0  0  0  0  0  0
    6.7722  -11.9468   26.6498 C   0  0  0  0  0  0  0  0  0  0  0  0
    7.9804  -11.9956   25.9886 C   0  0  0  0  0  0  0  0  0  0  0  0
    8.3768  -13.2023   25.4514 C   0  0  0  0  0  0  0  0  0  0  0  0
    7.6245  -14.3646   25.5421 C   0  0  0  0  0  0  0  0  0  0  0  0
    8.1141  -15.6003   24.9211 C   0  0  2  0  0  0  0  0  0  0  0  0
    9.5424  -15.8449   25.3219 N   0  0  0  0  0  0  0  0  0  0  0  0
   10.2988  -16.1773   24.1079 C   0  0  0  0  0  0  0  0  0  0  0  0
    9.6035  -17.0238   26.2106 O   0  0  0  0  0  0  0  0  0  0  0  0
    9.8666  -18.2780   25.6682 C   0  0  0  0  0  0  0  0  0  0  0  0
    6.4357  -14.2841   26.2006 C   0  0  0  0  0  0  0  0  0  0  0  0
    6.0032  -13.0857   26.7551 O   0  0  0  0  0  0  0  0  0  0  0  0
  2  3  1  0
  2  1  1  1
  4  2  1  0
  5  4  2  0
  7  6  1  0
  7  9  1  0
  8  7  2  0
 10  9  1  0
 10 11  1  0
 12 11  1  0
 13 12  1  6
 13 14  1  0
 14  4  1  0
 15 24  1  0
 15 13  1  0
 16 15  2  0
 18 17  1  0
 18 28  2  0
 19 18  1  0
 20 19  2  0
 20 21  1  0
 21 27  2  0
 22 21  1  0
 23 22  1  6
 23 24  1  0
 25 23  1  0
 25 26  1  0
 27 28  1  0
 29 25  2  0
M  END
$$$$
