ARY.pdb
     RDKit          3D

 29 29  0  0  1  0  0  0  0  0999 V2000
    8.1138  -12.1579   19.7760 C   0  0  0  0  0  0  0  0  0  0  0  0
    8.2461  -13.4996   19.0953 C   0  0  2  0  0  0  0  0  0  0  0  0
    7.1097  -13.6839   18.2162 N   0  0  0  0  0  0  0  0  0  0  0  0
    8.3081  -14.6244   20.0595 C   0  0  0  0  0  0  0  0  0  0  0  0
    7.2967  -15.3038   20.3721 O   0  0  0  0  0  0  0  0  0  0  0  0
    7.6644  -19.7501   17.6970 N   0  0  0  0  0  0  0  0  0  0  0  0
    8.5430  -18.8005   17.0978 C   0  0  0  0  0  0  0  0  0  0  0  0
    8.0920  -18.0042   16.1922 N   0  0  0  0  0  0  0  0  0  0  0  0
    9.8872  -18.7824   17.5374 N   0  0  0  0  0  0  0  0  0  0  0  0
   10.0724  -18.7171   19.0268 C   0  0  0  0  0  0  0  0  0  0  0  0
   10.5452  -17.3598   19.3433 C   0  0  0  0  0  0  0  0  0  0  0  0
   10.6864  -16.9772   20.7483 C   0  0  0  0  0  0  0  0  0  0  0  0
    9.6848  -16.1911   21.5069 C   0  0  2  0  0  0  0  0  0  0  0  0
    9.5274  -14.9559   20.6527 N   0  0  0  0  0  0  0  0  0  0  0  0
   10.2500  -15.6365   22.7573 C   0  0  0  0  0  0  0  0  0  0  0  0
   10.8480  -14.5059   22.8297 O   0  0  0  0  0  0  0  0  0  0  0  0
    8.6873  -17.2760   15.7815 O   0  0  0  0  0  0  0  0  0  0  0  0
    6.5336  -10.4901   26.8317 C   0  0  0  0  0  0  0  0  0  0  0  0
    6.8899  -11.7019   26.2472 C   0  0  0  0  0  0  0  0  0  0  0  0
    7.1340  -12.7737   27.0785 C   0  0  0  0  0  0  0  0  0  0  0  0
    7.4863  -13.9751   26.5002 C   0  0  0  0  0  0  0  0  0  0  0  0
    7.6071  -14.1590   25.1304 C   0  0  0  0  0  0  0  0  0  0  0  0
    8.0085  -15.4678   24.6030 C   0  0  2  0  0  0  0  0  0  0  0  0
    9.3868  -15.8171   25.0917 N   0  0  0  0  0  0  0  0  0  0  0  0
   10.1300  -16.3946   23.9646 C   0  0  0  0  0  0  0  0  0  0  0  0
    9.2844  -16.8642   26.1292 O   0  0  0  0  0  0  0  0  0  0  0  0
    9.6322  -16.5639   27.4427 C   0  0  0  0  0  0  0  0  0  0  0  0
    7.3602  -13.0815   24.3358 C   0  0  0  0  0  0  0  0  0  0  0  0
    7.0027  -11.8550   24.8822 O   0  0  0  0  0  0  0  0  0  0  0  0
  2  3  1  0
  2  1  1  1
  4  2  1  0
  5  4  2  0
  7  6  1  0
  7  9  1  0
  8  7  2  0
 10  9  1  0
 10 11  1  0
 12 11  1  0
 13 12  1  6
 13 14  1  0
 14  4  1  0
 15 24  1  0
 15 13  1  0
 16 15  2  0
 18 17  1  0
 18 28  2  0
 19 18  1  0
 20 19  2  0
 20 21  1  0
 21 27  2  0
 22 21  1  0
 23 22  1  6
 23 24  1  0
 25 23  1  0
 25 26  1  0
 27 28  1  0
 29 25  2  0
M  END
$$$$
