ARY.pdb
     RDKit          3D

 29 29  0  0  1  0  0  0  0  0999 V2000
    8.3729  -20.3677   23.6503 C   0  0  0  0  0  0  0  0  0  0  0  0
    8.0350  -19.5130   22.4519 C   0  0  2  0  0  0  0  0  0  0  0  0
    8.3734  -20.2491   21.2512 N   0  0  0  0  0  0  0  0  0  0  0  0
    8.7572  -18.2180   22.4535 C   0  0  0  0  0  0  0  0  0  0  0  0
    9.9814  -18.1260   22.1799 O   0  0  0  0  0  0  0  0  0  0  0  0
    8.6444  -12.0304   17.8079 N   0  0  0  0  0  0  0  0  0  0  0  0
    8.0921  -13.2610   17.3456 C   0  0  0  0  0  0  0  0  0  0  0  0
    8.0708  -13.5104   16.0827 N   0  0  0  0  0  0  0  0  0  0  0  0
    7.5882  -14.1588   18.3153 N   0  0  0  0  0  0  0  0  0  0  0  0
    7.9816  -13.8560   19.7333 C   0  0  0  0  0  0  0  0  0  0  0  0
    7.3516  -14.8790   20.5832 C   0  0  0  0  0  0  0  0  0  0  0  0
    7.6480  -14.8788   22.0159 C   0  0  0  0  0  0  0  0  0  0  0  0
    8.7161  -15.6873   22.6502 C   0  0  2  0  0  0  0  0  0  0  0  0
    8.0677  -17.0458   22.7683 N   0  0  0  0  0  0  0  0  0  0  0  0
    8.9223  -15.3150   24.0677 C   0  0  0  0  0  0  0  0  0  0  0  0
    8.4552  -14.2474   24.5999 O   0  0  0  0  0  0  0  0  0  0  0  0
    7.7567  -14.4203   15.7268 O   0  0  0  0  0  0  0  0  0  0  0  0
    5.9861  -10.7889   26.5743 C   0  0  0  0  0  0  0  0  0  0  0  0
    6.6399  -12.0135   26.6745 C   0  0  0  0  0  0  0  0  0  0  0  0
    5.9068  -13.1583   26.4479 C   0  0  0  0  0  0  0  0  0  0  0  0
    6.5539  -14.3721   26.5462 C   0  0  0  0  0  0  0  0  0  0  0  0
    7.8993  -14.4991   26.8603 C   0  0  0  0  0  0  0  0  0  0  0  0
    8.5009  -15.8331   26.9651 C   0  0  2  0  0  0  0  0  0  0  0  0
    9.8595  -15.8352   26.3212 N   0  0  0  0  0  0  0  0  0  0  0  0
    9.6854  -16.1874   24.9063 C   0  0  0  0  0  0  0  0  0  0  0  0
   10.6875  -16.8936   26.9357 O   0  0  0  0  0  0  0  0  0  0  0  0
   11.1652  -16.7243   28.2317 C   0  0  0  0  0  0  0  0  0  0  0  0
    8.5962  -13.3502   27.0792 C   0  0  0  0  0  0  0  0  0  0  0  0
    7.9783  -12.1090   26.9890 O   0  0  0  0  0  0  0  0  0  0  0  0
  2  3  1  0
  2  1  1  1
  4  2  1  0
  5  4  2  0
  7  6  1  0
  7  9  1  0
  8  7  2  0
 10  9  1  0
 10 11  1  0
 12 11  1  0
 13 12  1  1
 13 14  1  0
 14  4  1  0
 15 24  1  0
 15 13  1  0
 16 15  2  0
 18 17  1  0
 18 28  2  0
 19 18  1  0
 20 19  2  0
 20 21  1  0
 21 27  2  0
 22 21  1  0
 23 22  1  6
 23 24  1  0
 25 23  1  0
 25 26  1  0
 27 28  1  0
 29 25  2  0
M  END
$$$$
