ARY.pdb
     RDKit          3D

 29 29  0  0  1  0  0  0  0  0999 V2000
    7.8913  -12.5665   19.7321 C   0  0  0  0  0  0  0  0  0  0  0  0
    8.4075  -13.6964   18.8732 C   0  0  2  0  0  0  0  0  0  0  0  0
    7.4812  -13.9033   17.7790 N   0  0  0  0  0  0  0  0  0  0  0  0
    8.5638  -14.9621   19.6298 C   0  0  0  0  0  0  0  0  0  0  0  0
    7.7387  -15.9077   19.5439 O   0  0  0  0  0  0  0  0  0  0  0  0
   11.6358  -19.0643   15.9821 N   0  0  0  0  0  0  0  0  0  0  0  0
   11.4788  -19.8972   17.1286 C   0  0  0  0  0  0  0  0  0  0  0  0
   11.1486  -21.1320   16.9734 N   0  0  0  0  0  0  0  0  0  0  0  0
   11.6978  -19.3135   18.3981 N   0  0  0  0  0  0  0  0  0  0  0  0
   12.0467  -17.8524   18.3788 C   0  0  0  0  0  0  0  0  0  0  0  0
   10.9391  -17.1361   19.0314 C   0  0  0  0  0  0  0  0  0  0  0  0
   10.8837  -17.1145   20.4932 C   0  0  0  0  0  0  0  0  0  0  0  0
    9.8602  -16.3884   21.2819 C   0  0  2  0  0  0  0  0  0  0  0  0
    9.6626  -15.1279   20.4744 N   0  0  0  0  0  0  0  0  0  0  0  0
   10.4112  -15.8634   22.5512 C   0  0  0  0  0  0  0  0  0  0  0  0
   11.3043  -14.9473   22.6162 O   0  0  0  0  0  0  0  0  0  0  0  0
   11.0162  -21.7514   17.7810 O   0  0  0  0  0  0  0  0  0  0  0  0
    6.4493  -10.8426   27.9191 C   0  0  0  0  0  0  0  0  0  0  0  0
    6.9458  -11.7559   26.9936 C   0  0  0  0  0  0  0  0  0  0  0  0
    6.1591  -12.8398   26.6689 C   0  0  0  0  0  0  0  0  0  0  0  0
    6.6498  -13.7449   25.7514 C   0  0  0  0  0  0  0  0  0  0  0  0
    7.8897  -13.6206   25.1414 C   0  0  0  0  0  0  0  0  0  0  0  0
    8.3412  -14.6440   24.1921 C   0  0  2  0  0  0  0  0  0  0  0  0
    9.4300  -15.4746   24.8125 N   0  0  0  0  0  0  0  0  0  0  0  0
    9.9290  -16.3995   23.7869 C   0  0  0  0  0  0  0  0  0  0  0  0
    8.8565  -16.2958   25.8988 O   0  0  0  0  0  0  0  0  0  0  0  0
    9.0483  -15.9119   27.2225 C   0  0  0  0  0  0  0  0  0  0  0  0
    8.6435  -12.5397   25.4834 C   0  0  0  0  0  0  0  0  0  0  0  0
    8.1824  -11.6066   26.4039 O   0  0  0  0  0  0  0  0  0  0  0  0
  2  3  1  0
  2  1  1  1
  4  2  1  0
  5  4  2  0
  7  6  1  0
  7  9  1  0
  8  7  2  0
 10  9  1  0
 10 11  1  0
 12 11  1  0
 13 12  1  6
 13 14  1  0
 14  4  1  0
 15 24  1  0
 15 13  1  0
 16 15  2  0
 18 17  1  0
 18 28  2  0
 19 18  1  0
 20 19  2  0
 20 21  1  0
 21 27  2  0
 22 21  1  0
 23 22  1  6
 23 24  1  0
 25 23  1  0
 25 26  1  0
 27 28  1  0
 29 25  2  0
M  END
$$$$
