ARY.pdb
     RDKit          3D

 29 29  0  0  1  0  0  0  0  0999 V2000
    4.2306  -19.1350   21.7787 C   0  0  0  0  0  0  0  0  0  0  0  0
    5.3297  -18.9812   20.7544 C   0  0  2  0  0  0  0  0  0  0  0  0
    5.6747  -20.2939   20.2486 N   0  0  0  0  0  0  0  0  0  0  0  0
    6.5427  -18.3360   21.3122 C   0  0  0  0  0  0  0  0  0  0  0  0
    7.5096  -18.9964   21.7716 O   0  0  0  0  0  0  0  0  0  0  0  0
    7.8205  -12.2690   18.2753 N   0  0  0  0  0  0  0  0  0  0  0  0
    8.0265  -13.2644   17.2755 C   0  0  0  0  0  0  0  0  0  0  0  0
    8.6379  -12.9509   16.1867 N   0  0  0  0  0  0  0  0  0  0  0  0
    7.5403  -14.5666   17.5367 N   0  0  0  0  0  0  0  0  0  0  0  0
    6.9225  -14.7587   18.8926 C   0  0  0  0  0  0  0  0  0  0  0  0
    7.9887  -14.5500   19.8855 C   0  0  0  0  0  0  0  0  0  0  0  0
    7.7170  -14.8796   21.2847 C   0  0  0  0  0  0  0  0  0  0  0  0
    7.8552  -16.2352   21.8678 C   0  0  2  0  0  0  0  0  0  0  0  0
    6.6319  -16.9432   21.3365 N   0  0  0  0  0  0  0  0  0  0  0  0
    7.6080  -16.2365   23.3271 C   0  0  0  0  0  0  0  0  0  0  0  0
    6.7762  -15.4560   23.9101 O   0  0  0  0  0  0  0  0  0  0  0  0
    8.8234  -13.6528   15.4612 O   0  0  0  0  0  0  0  0  0  0  0  0
   10.8900  -12.8993   29.5008 C   0  0  0  0  0  0  0  0  0  0  0  0
   10.0956  -13.6356   28.6267 C   0  0  0  0  0  0  0  0  0  0  0  0
    8.9939  -13.0165   28.0770 C   0  0  0  0  0  0  0  0  0  0  0  0
    8.2067  -13.7449   27.2102 C   0  0  0  0  0  0  0  0  0  0  0  0
    8.4659  -15.0634   26.8649 C   0  0  0  0  0  0  0  0  0  0  0  0
    7.5611  -15.7692   25.9508 C   0  0  2  0  0  0  0  0  0  0  0  0
    8.1314  -17.1161   25.6029 N   0  0  0  0  0  0  0  0  0  0  0  0
    8.3320  -17.1569   24.1488 C   0  0  0  0  0  0  0  0  0  0  0  0
    7.1440  -18.1635   25.9368 O   0  0  0  0  0  0  0  0  0  0  0  0
    6.4195  -18.7725   24.9167 C   0  0  0  0  0  0  0  0  0  0  0  0
    9.5608  -15.6473   27.4249 C   0  0  0  0  0  0  0  0  0  0  0  0
   10.3777  -14.9450   28.3025 O   0  0  0  0  0  0  0  0  0  0  0  0
  2  3  1  0
  2  1  1  1
  4  2  1  0
  5  4  2  0
  7  6  1  0
  7  9  1  0
  8  7  2  0
 10  9  1  0
 10 11  1  0
 12 11  1  0
 13 12  1  6
 13 14  1  0
 14  4  1  0
 15 24  1  0
 15 13  1  0
 16 15  2  0
 18 17  1  0
 18 28  2  0
 19 18  1  0
 20 19  2  0
 20 21  1  0
 21 27  2  0
 22 21  1  0
 23 22  1  1
 23 24  1  0
 25 23  1  0
 25 26  1  0
 27 28  1  0
 29 25  2  0
M  END
$$$$
