ARY.pdb
     RDKit          3D

 29 29  0  0  1  0  0  0  0  0999 V2000
    8.4392  -12.1323   20.1892 C   0  0  0  0  0  0  0  0  0  0  0  0
    8.5036  -13.4992   19.5502 C   0  0  2  0  0  0  0  0  0  0  0  0
    7.4965  -13.5699   18.5115 N   0  0  0  0  0  0  0  0  0  0  0  0
    8.2815  -14.5949   20.5243 C   0  0  0  0  0  0  0  0  0  0  0  0
    7.1627  -15.1496   20.6749 O   0  0  0  0  0  0  0  0  0  0  0  0
   12.6080  -18.1751   18.6663 N   0  0  0  0  0  0  0  0  0  0  0  0
   11.4996  -18.5791   17.8657 C   0  0  0  0  0  0  0  0  0  0  0  0
   11.5754  -18.4813   16.5842 N   0  0  0  0  0  0  0  0  0  0  0  0
   10.3551  -19.0748   18.5326 N   0  0  0  0  0  0  0  0  0  0  0  0
   10.4702  -19.1532   20.0285 C   0  0  0  0  0  0  0  0  0  0  0  0
    9.5359  -18.1617   20.5852 C   0  0  0  0  0  0  0  0  0  0  0  0
   10.0178  -17.2512   21.6239 C   0  0  0  0  0  0  0  0  0  0  0  0
    9.1919  -16.2014   22.2665 C   0  0  2  0  0  0  0  0  0  0  0  0
    9.3436  -15.0405   21.3129 N   0  0  0  0  0  0  0  0  0  0  0  0
    9.8239  -15.6787   23.4985 C   0  0  0  0  0  0  0  0  0  0  0  0
   10.3098  -14.4982   23.6051 O   0  0  0  0  0  0  0  0  0  0  0  0
   10.8322  -18.8485   15.9791 O   0  0  0  0  0  0  0  0  0  0  0  0
    6.0987  -10.5886   26.3118 C   0  0  0  0  0  0  0  0  0  0  0  0
    6.5704  -11.8916   26.1823 C   0  0  0  0  0  0  0  0  0  0  0  0
    5.6802  -12.8646   25.7822 C   0  0  0  0  0  0  0  0  0  0  0  0
    6.1468  -14.1559   25.6528 C   0  0  0  0  0  0  0  0  0  0  0  0
    7.4608  -14.5238   25.9039 C   0  0  0  0  0  0  0  0  0  0  0  0
    7.8651  -15.9269   25.7615 C   0  0  2  0  0  0  0  0  0  0  0  0
    9.3549  -16.0502   25.9211 N   0  0  0  0  0  0  0  0  0  0  0  0
    9.9051  -16.5286   24.6464 C   0  0  0  0  0  0  0  0  0  0  0  0
    9.6518  -17.0800   26.9384 O   0  0  0  0  0  0  0  0  0  0  0  0
   10.2056  -16.6999   28.1570 C   0  0  0  0  0  0  0  0  0  0  0  0
    8.3156  -13.5403   26.2981 C   0  0  0  0  0  0  0  0  0  0  0  0
    7.8819  -12.2279   26.4394 O   0  0  0  0  0  0  0  0  0  0  0  0
  2  3  1  0
  2  1  1  1
  4  2  1  0
  5  4  2  0
  7  6  1  0
  7  9  1  0
  8  7  2  0
 10  9  1  0
 10 11  1  0
 12 11  1  0
 13 12  1  6
 13 14  1  0
 14  4  1  0
 15 24  1  0
 15 13  1  0
 16 15  2  0
 18 17  1  0
 18 28  2  0
 19 18  1  0
 20 19  2  0
 20 21  1  0
 21 27  2  0
 22 21  1  0
 23 22  1  6
 23 24  1  0
 25 23  1  0
 25 26  1  0
 27 28  1  0
 29 25  2  0
M  END
$$$$
