ARY.pdb
     RDKit          3D

 29 29  0  0  1  0  0  0  0  0999 V2000
    8.3515  -11.9398   19.3186 C   0  0  0  0  0  0  0  0  0  0  0  0
    8.3532  -13.2821   18.6263 C   0  0  2  0  0  0  0  0  0  0  0  0
    7.4737  -13.2089   17.4777 N   0  0  0  0  0  0  0  0  0  0  0  0
    7.9087  -14.3825   19.5153 C   0  0  0  0  0  0  0  0  0  0  0  0
    6.6942  -14.6354   19.7231 O   0  0  0  0  0  0  0  0  0  0  0  0
    6.6263  -20.3622   23.4158 N   0  0  0  0  0  0  0  0  0  0  0  0
    7.9209  -20.8584   23.0831 C   0  0  0  0  0  0  0  0  0  0  0  0
    8.7345  -21.1865   24.0255 N   0  0  0  0  0  0  0  0  0  0  0  0
    8.2492  -20.9663   21.7116 N   0  0  0  0  0  0  0  0  0  0  0  0
    7.9699  -19.7409   20.8887 C   0  0  0  0  0  0  0  0  0  0  0  0
    9.0678  -18.7935   21.1399 C   0  0  0  0  0  0  0  0  0  0  0  0
    9.0193  -17.4792   20.4990 C   0  0  0  0  0  0  0  0  0  0  0  0
    8.4656  -16.2588   21.1321 C   0  0  2  0  0  0  0  0  0  0  0  0
    8.8610  -15.1783   20.1542 N   0  0  0  0  0  0  0  0  0  0  0  0
    9.2214  -15.8745   22.3451 C   0  0  0  0  0  0  0  0  0  0  0  0
   10.4729  -15.6011   22.3488 O   0  0  0  0  0  0  0  0  0  0  0  0
    9.6809  -21.5237   23.8160 O   0  0  0  0  0  0  0  0  0  0  0  0
   10.9585  -14.8332   30.8597 C   0  0  0  0  0  0  0  0  0  0  0  0
   10.3111  -14.8559   29.6278 C   0  0  0  0  0  0  0  0  0  0  0  0
    9.7062  -16.0309   29.2369 C   0  0  0  0  0  0  0  0  0  0  0  0
    9.0637  -16.0542   28.0169 C   0  0  0  0  0  0  0  0  0  0  0  0
    8.9957  -14.9599   27.1666 C   0  0  0  0  0  0  0  0  0  0  0  0
    8.3091  -15.0811   25.8757 C   0  0  1  0  0  0  0  0  0  0  0  0
    9.2909  -15.4753   24.8075 N   0  0  0  0  0  0  0  0  0  0  0  0
    8.5289  -15.7992   23.5947 C   0  0  0  0  0  0  0  0  0  0  0  0
    9.9938  -16.7068   25.2230 O   0  0  0  0  0  0  0  0  0  0  0  0
   11.3230  -16.6335   25.6286 C   0  0  0  0  0  0  0  0  0  0  0  0
    9.6033  -13.8142   27.5805 C   0  0  0  0  0  0  0  0  0  0  0  0
   10.2602  -13.7527   28.8034 O   0  0  0  0  0  0  0  0  0  0  0  0
  2  3  1  0
  2  1  1  1
  4  2  1  0
  5  4  2  0
  7  6  1  0
  7  9  1  0
  8  7  2  0
 10  9  1  0
 10 11  1  0
 12 11  1  0
 13 12  1  6
 13 14  1  0
 14  4  1  0
 15 24  1  0
 15 13  1  0
 16 15  2  0
 18 17  1  0
 18 28  2  0
 19 18  1  0
 20 19  2  0
 20 21  1  0
 21 27  2  0
 22 21  1  0
 23 22  1  6
 23 24  1  0
 25 23  1  0
 25 26  1  0
 27 28  1  0
 29 25  2  0
M  END
$$$$
