ARY.pdb
     RDKit          3D

 29 29  0  0  1  0  0  0  0  0999 V2000
    8.2334  -11.7948   20.0933 C   0  0  0  0  0  0  0  0  0  0  0  0
    8.4462  -13.1033   19.3698 C   0  0  2  0  0  0  0  0  0  0  0  0
    7.6188  -13.1120   18.1810 N   0  0  0  0  0  0  0  0  0  0  0  0
    8.1122  -14.2795   20.2087 C   0  0  0  0  0  0  0  0  0  0  0  0
    7.0264  -14.9043   20.0959 O   0  0  0  0  0  0  0  0  0  0  0  0
   11.1699  -20.6979   18.1672 N   0  0  0  0  0  0  0  0  0  0  0  0
   11.0667  -21.2902   19.4601 C   0  0  0  0  0  0  0  0  0  0  0  0
   10.9413  -22.5674   19.5630 N   0  0  0  0  0  0  0  0  0  0  0  0
   11.1085  -20.4288   20.5811 N   0  0  0  0  0  0  0  0  0  0  0  0
   11.1302  -18.9614   20.2599 C   0  0  0  0  0  0  0  0  0  0  0  0
   10.1283  -18.3163   21.1236 C   0  0  0  0  0  0  0  0  0  0  0  0
    9.8937  -16.8802   20.9723 C   0  0  0  0  0  0  0  0  0  0  0  0
    8.9262  -16.1000   21.7797 C   0  0  2  0  0  0  0  0  0  0  0  0
    9.0261  -14.7242   21.1655 N   0  0  0  0  0  0  0  0  0  0  0  0
    9.4183  -15.8646   23.1555 C   0  0  0  0  0  0  0  0  0  0  0  0
   10.5130  -15.2574   23.4273 O   0  0  0  0  0  0  0  0  0  0  0  0
   10.9357  -23.0278   20.4803 O   0  0  0  0  0  0  0  0  0  0  0  0
    6.0842  -10.4679   25.9659 C   0  0  0  0  0  0  0  0  0  0  0  0
    6.5669  -11.7677   26.0872 C   0  0  0  0  0  0  0  0  0  0  0  0
    5.6506  -12.7960   26.1332 C   0  0  0  0  0  0  0  0  0  0  0  0
    6.1279  -14.0843   26.2525 C   0  0  0  0  0  0  0  0  0  0  0  0
    7.4776  -14.3966   26.3285 C   0  0  0  0  0  0  0  0  0  0  0  0
    7.8952  -15.7952   26.4765 C   0  0  2  0  0  0  0  0  0  0  0  0
    9.1038  -16.0628   25.6231 N   0  0  0  0  0  0  0  0  0  0  0  0
    8.6378  -16.3364   24.2578 C   0  0  0  0  0  0  0  0  0  0  0  0
    9.7799  -17.2845   26.1065 O   0  0  0  0  0  0  0  0  0  0  0  0
   10.5833  -17.2200   27.2409 C   0  0  0  0  0  0  0  0  0  0  0  0
    8.3578  -13.3591   26.2811 C   0  0  0  0  0  0  0  0  0  0  0  0
    7.9143  -12.0478   26.1611 O   0  0  0  0  0  0  0  0  0  0  0  0
  2  3  1  0
  2  1  1  1
  4  2  1  0
  5  4  2  0
  7  6  1  0
  7  9  1  0
  8  7  2  0
 10  9  1  0
 10 11  1  0
 12 11  1  0
 13 12  1  6
 13 14  1  0
 14  4  1  0
 15 24  1  0
 15 13  1  0
 16 15  2  0
 18 17  1  0
 18 28  2  0
 19 18  1  0
 20 19  2  0
 20 21  1  0
 21 27  2  0
 22 21  1  0
 23 22  1  6
 23 24  1  0
 25 23  1  0
 25 26  1  0
 27 28  1  0
 29 25  2  0
M  END
$$$$
