TSL.pdb
     RDKit          3D

 22 21  0  0  1  0  0  0  0  0999 V2000
   10.8727  -13.0399   18.0145 C   0  0  0  0  0  0  0  0  0  0  0  0
   10.1139  -13.3285   19.2723 C   0  0  1  0  0  0  0  0  0  0  0  0
    9.6077  -12.1747   19.8575 O   0  0  0  0  0  0  0  0  0  0  0  0
    8.9835  -14.3088   19.0586 C   0  0  2  0  0  0  0  0  0  0  0  0
    8.0207  -13.6566   18.1987 N   0  0  0  0  0  0  0  0  0  0  0  0
    8.3199  -14.7129   20.3112 C   0  0  0  0  0  0  0  0  0  0  0  0
    7.2774  -14.1130   20.6680 O   0  0  0  0  0  0  0  0  0  0  0  0
    9.5325  -18.0530   22.5067 O   0  0  0  0  0  0  0  0  0  0  0  0
    8.2071  -17.6785   22.4956 C   0  0  0  0  0  0  0  0  0  0  0  0
    8.0518  -16.1583   22.3571 C   0  0  2  0  0  0  0  0  0  0  0  0
    8.7774  -15.7524   21.1674 N   0  0  0  0  0  0  0  0  0  0  0  0
    8.5861  -15.5296   23.5810 C   0  0  0  0  0  0  0  0  0  0  0  0
    9.8203  -15.2508   23.5816 O   0  0  0  0  0  0  0  0  0  0  0  0
    7.7607  -11.7225   25.5108 C   0  0  0  0  0  0  0  0  0  0  0  0
    6.7689  -12.7418   26.0294 C   0  0  2  0  0  0  0  0  0  0  0  0
    5.5910  -12.0693   26.6061 C   0  0  0  0  0  0  0  0  0  0  0  0
    7.3445  -13.9129   26.6968 C   0  0  0  0  0  0  0  0  0  0  0  0
    8.3764  -14.6909   25.9710 C   0  0  2  0  0  0  0  0  0  0  0  0
    7.8101  -15.2313   24.7211 N   0  0  0  0  0  0  0  0  0  0  0  0
    8.8407  -15.8377   26.7318 C   0  0  0  0  0  0  0  0  0  0  0  0
    9.6678  -15.7397   27.8252 O   0  0  0  0  0  0  0  0  0  0  0  0
    8.4917  -16.9940   26.3969 O   0  0  0  0  0  0  0  0  0  0  0  0
  2  1  1  6
  2  3  1  0
  4  5  1  6
  4  2  1  0
  6  4  1  0
  6  7  2  0
  9  8  1  0
 10  9  1  1
 10 11  1  0
 10 12  1  0
 11  6  1  0
 12 13  2  0
 12 19  1  0
 15 16  1  1
 15 14  1  0
 17 15  1  0
 18 17  1  1
 19 18  1  0
 20 18  1  0
 20 21  1  0
 22 20  2  0
M  END
$$$$
