TSL.pdb
     RDKit          3D

 22 21  0  0  1  0  0  0  0  0999 V2000
    9.0906  -12.3123   20.0376 C   0  0  0  0  0  0  0  0  0  0  0  0
    8.5578  -13.0191   18.8302 C   0  0  1  0  0  0  0  0  0  0  0  0
    9.1047  -12.5301   17.6505 O   0  0  0  0  0  0  0  0  0  0  0  0
    8.7712  -14.5142   18.8892 C   0  0  2  0  0  0  0  0  0  0  0  0
    8.1258  -15.0756   17.7229 N   0  0  0  0  0  0  0  0  0  0  0  0
    8.2071  -15.1345   20.1015 C   0  0  0  0  0  0  0  0  0  0  0  0
    6.9610  -15.2292   20.2127 O   0  0  0  0  0  0  0  0  0  0  0  0
   10.1071  -17.8724   22.3010 O   0  0  0  0  0  0  0  0  0  0  0  0
    8.7497  -17.6851   22.4407 C   0  0  0  0  0  0  0  0  0  0  0  0
    8.3763  -16.1982   22.3790 C   0  0  2  0  0  0  0  0  0  0  0  0
    8.9802  -15.6463   21.1801 N   0  0  0  0  0  0  0  0  0  0  0  0
    8.8747  -15.5490   23.6073 C   0  0  0  0  0  0  0  0  0  0  0  0
   10.0871  -15.1868   23.6040 O   0  0  0  0  0  0  0  0  0  0  0  0
    7.9079  -11.7363   25.7463 C   0  0  0  0  0  0  0  0  0  0  0  0
    6.9547  -12.8603   26.0922 C   0  0  2  0  0  0  0  0  0  0  0  0
    5.6769  -12.3192   26.5888 C   0  0  0  0  0  0  0  0  0  0  0  0
    7.5542  -14.0327   26.7359 C   0  0  0  0  0  0  0  0  0  0  0  0
    8.6247  -14.7552   26.0087 C   0  0  2  0  0  0  0  0  0  0  0  0
    8.0880  -15.3179   24.7556 N   0  0  0  0  0  0  0  0  0  0  0  0
    9.1445  -15.8805   26.7655 C   0  0  0  0  0  0  0  0  0  0  0  0
    8.9634  -17.1924   26.3973 O   0  0  0  0  0  0  0  0  0  0  0  0
    9.7930  -15.6803   27.8194 O   0  0  0  0  0  0  0  0  0  0  0  0
  2  1  1  1
  2  3  1  0
  4  5  1  6
  4  2  1  0
  6  4  1  0
  6  7  2  0
  9  8  1  0
 10  9  1  1
 10 11  1  0
 10 12  1  0
 11  6  1  0
 12 13  2  0
 12 19  1  0
 15 16  1  1
 15 14  1  0
 17 15  1  0
 18 17  1  1
 19 18  1  0
 20 18  1  0
 20 21  1  0
 22 20  2  0
M  END
$$$$
