TSL.pdb
     RDKit          3D

 22 21  0  0  1  0  0  0  0  0999 V2000
    6.1987  -18.1065   25.4859 C   0  0  0  0  0  0  0  0  0  0  0  0
    6.9577  -19.2599   24.9075 C   0  0  1  0  0  0  0  0  0  0  0  0
    6.5855  -20.4721   25.4749 O   0  0  0  0  0  0  0  0  0  0  0  0
    6.8167  -19.3554   23.4056 C   0  0  2  0  0  0  0  0  0  0  0  0
    7.3582  -20.6385   23.0151 N   0  0  0  0  0  0  0  0  0  0  0  0
    7.5328  -18.2871   22.6854 C   0  0  0  0  0  0  0  0  0  0  0  0
    8.7842  -18.3369   22.6111 O   0  0  0  0  0  0  0  0  0  0  0  0
    7.3191  -14.1466   20.0861 O   0  0  0  0  0  0  0  0  0  0  0  0
    6.6829  -15.2178   20.6734 C   0  0  0  0  0  0  0  0  0  0  0  0
    7.6558  -16.0660   21.5029 C   0  0  2  0  0  0  0  0  0  0  0  0
    6.9041  -17.1789   22.0534 N   0  0  0  0  0  0  0  0  0  0  0  0
    8.2329  -15.2052   22.5540 C   0  0  0  0  0  0  0  0  0  0  0  0
    9.0318  -14.3020   22.1704 O   0  0  0  0  0  0  0  0  0  0  0  0
    5.8694  -12.2898   27.1753 C   0  0  0  0  0  0  0  0  0  0  0  0
    7.1527  -12.6213   26.4440 C   0  0  2  0  0  0  0  0  0  0  0  0
    7.9585  -11.4046   26.2376 C   0  0  0  0  0  0  0  0  0  0  0  0
    7.0410  -13.6171   25.3743 C   0  0  0  0  0  0  0  0  0  0  0  0
    8.2774  -14.3030   24.9296 C   0  0  2  0  0  0  0  0  0  0  0  0
    7.9462  -15.3350   23.9294 N   0  0  0  0  0  0  0  0  0  0  0  0
    8.9466  -14.9956   26.0167 C   0  0  0  0  0  0  0  0  0  0  0  0
   10.0326  -14.4862   26.6878 O   0  0  0  0  0  0  0  0  0  0  0  0
    8.5410  -16.1232   26.3844 O   0  0  0  0  0  0  0  0  0  0  0  0
  2  1  1  1
  2  3  1  0
  4  5  1  6
  4  2  1  0
  6  4  1  0
  6  7  2  0
  9  8  1  0
 10  9  1  6
 10 11  1  0
 10 12  1  0
 11  6  1  0
 12 13  2  0
 12 19  1  0
 15 16  1  6
 15 14  1  0
 17 15  1  0
 18 17  1  1
 19 18  1  0
 20 18  1  0
 20 21  1  0
 22 20  2  0
M  END
$$$$
