TSL.pdb
     RDKit          3D

 22 21  0  0  1  0  0  0  0  0999 V2000
   10.9181  -14.1942   17.8330 C   0  0  0  0  0  0  0  0  0  0  0  0
   10.2076  -14.3638   19.1397 C   0  0  1  0  0  0  0  0  0  0  0  0
   10.6614  -13.4733   20.1046 O   0  0  0  0  0  0  0  0  0  0  0  0
    8.7081  -14.2264   19.0094 C   0  0  2  0  0  0  0  0  0  0  0  0
    8.4480  -12.8723   18.5729 N   0  0  0  0  0  0  0  0  0  0  0  0
    7.9896  -14.4755   20.2722 C   0  0  0  0  0  0  0  0  0  0  0  0
    7.5777  -13.4969   20.9406 O   0  0  0  0  0  0  0  0  0  0  0  0
    7.9791  -18.1730   22.2781 O   0  0  0  0  0  0  0  0  0  0  0  0
    6.7992  -17.4631   22.2450 C   0  0  0  0  0  0  0  0  0  0  0  0
    7.0507  -15.9587   22.0792 C   0  0  2  0  0  0  0  0  0  0  0  0
    7.7197  -15.7660   20.8057 N   0  0  0  0  0  0  0  0  0  0  0  0
    7.8717  -15.5029   23.2181 C   0  0  0  0  0  0  0  0  0  0  0  0
    9.1208  -15.4410   23.0263 O   0  0  0  0  0  0  0  0  0  0  0  0
    7.5305  -11.6753   25.5110 C   0  0  0  0  0  0  0  0  0  0  0  0
    6.6537  -12.7312   26.1497 C   0  0  2  0  0  0  0  0  0  0  0  0
    5.6388  -12.1050   27.0158 C   0  0  0  0  0  0  0  0  0  0  0  0
    7.3368  -13.9526   26.5854 C   0  0  0  0  0  0  0  0  0  0  0  0
    8.1801  -14.6685   25.5988 C   0  0  2  0  0  0  0  0  0  0  0  0
    7.3475  -15.1422   24.4775 N   0  0  0  0  0  0  0  0  0  0  0  0
    8.8070  -15.8511   26.1626 C   0  0  0  0  0  0  0  0  0  0  0  0
    9.8681  -15.8057   27.0352 O   0  0  0  0  0  0  0  0  0  0  0  0
    8.3860  -16.9905   25.8536 O   0  0  0  0  0  0  0  0  0  0  0  0
  2  1  1  6
  2  3  1  0
  4  5  1  1
  4  2  1  0
  6  4  1  0
  6  7  2  0
  9  8  1  0
 10  9  1  1
 10 11  1  0
 10 12  1  0
 11  6  1  0
 12 13  2  0
 12 19  1  0
 15 16  1  1
 15 14  1  0
 17 15  1  0
 18 17  1  1
 19 18  1  0
 20 18  1  0
 20 21  1  0
 22 20  2  0
M  END
$$$$
