TSL.pdb
     RDKit          3D

 22 21  0  0  1  0  0  0  0  0999 V2000
   11.2064  -13.7036   18.0033 C   0  0  0  0  0  0  0  0  0  0  0  0
   10.5010  -14.0409   19.2799 C   0  0  1  0  0  0  0  0  0  0  0  0
   10.6374  -13.0423   20.2360 O   0  0  0  0  0  0  0  0  0  0  0  0
    9.0314  -14.3286   19.0747 C   0  0  2  0  0  0  0  0  0  0  0  0
    8.4402  -13.1237   18.5357 N   0  0  0  0  0  0  0  0  0  0  0  0
    8.3321  -14.6977   20.3187 C   0  0  0  0  0  0  0  0  0  0  0  0
    7.5423  -13.8737   20.8397 O   0  0  0  0  0  0  0  0  0  0  0  0
    9.1696  -18.1801   22.6174 O   0  0  0  0  0  0  0  0  0  0  0  0
    7.8673  -17.7745   22.4261 C   0  0  0  0  0  0  0  0  0  0  0  0
    7.7742  -16.2574   22.2168 C   0  0  2  0  0  0  0  0  0  0  0  0
    8.4844  -15.9417   20.9911 N   0  0  0  0  0  0  0  0  0  0  0  0
    8.3676  -15.5949   23.3948 C   0  0  0  0  0  0  0  0  0  0  0  0
    9.5751  -15.2310   23.2910 O   0  0  0  0  0  0  0  0  0  0  0  0
    7.6631  -11.7721   25.5056 C   0  0  0  0  0  0  0  0  0  0  0  0
    6.6838  -12.8116   26.0077 C   0  0  2  0  0  0  0  0  0  0  0  0
    5.5383  -12.1638   26.6715 C   0  0  0  0  0  0  0  0  0  0  0  0
    7.2751  -14.0233   26.5824 C   0  0  0  0  0  0  0  0  0  0  0  0
    8.2992  -14.7425   25.7882 C   0  0  2  0  0  0  0  0  0  0  0  0
    7.6746  -15.3530   24.5998 N   0  0  0  0  0  0  0  0  0  0  0  0
    8.9072  -15.8337   26.5291 C   0  0  0  0  0  0  0  0  0  0  0  0
    8.7613  -17.1574   26.1888 O   0  0  0  0  0  0  0  0  0  0  0  0
    9.6045  -15.5907   27.5420 O   0  0  0  0  0  0  0  0  0  0  0  0
  2  1  1  6
  2  3  1  0
  4  5  1  1
  4  2  1  0
  6  4  1  0
  6  7  2  0
  9  8  1  0
 10  9  1  1
 10 11  1  0
 10 12  1  0
 11  6  1  0
 12 13  2  0
 12 19  1  0
 15 16  1  1
 15 14  1  0
 17 15  1  0
 18 17  1  1
 19 18  1  0
 20 18  1  0
 20 21  1  0
 22 20  2  0
M  END
$$$$
