TSL.pdb
     RDKit          3D

 22 21  0  0  1  0  0  0  0  0999 V2000
    8.9659  -12.2598   19.8894 C   0  0  0  0  0  0  0  0  0  0  0  0
    8.4745  -13.0019   18.6857 C   0  0  1  0  0  0  0  0  0  0  0  0
    9.0142  -12.5060   17.5056 O   0  0  0  0  0  0  0  0  0  0  0  0
    8.7464  -14.4865   18.7657 C   0  0  2  0  0  0  0  0  0  0  0  0
    8.1642  -15.0831   17.5837 N   0  0  0  0  0  0  0  0  0  0  0  0
    8.1672  -15.1198   19.9642 C   0  0  0  0  0  0  0  0  0  0  0  0
    7.1378  -15.8264   19.8413 O   0  0  0  0  0  0  0  0  0  0  0  0
    8.2124  -18.1449   23.0229 O   0  0  0  0  0  0  0  0  0  0  0  0
    8.4887  -17.2847   21.9832 C   0  0  0  0  0  0  0  0  0  0  0  0
    8.2490  -15.8226   22.3821 C   0  0  2  0  0  0  0  0  0  0  0  0
    8.6942  -14.9910   21.2790 N   0  0  0  0  0  0  0  0  0  0  0  0
    9.0020  -15.5569   23.6235 C   0  0  0  0  0  0  0  0  0  0  0  0
   10.2631  -15.6240   23.5459 O   0  0  0  0  0  0  0  0  0  0  0  0
    7.0663  -11.7935   26.7972 C   0  0  0  0  0  0  0  0  0  0  0  0
    7.3886  -13.1545   26.2180 C   0  0  2  0  0  0  0  0  0  0  0  0
    6.1509  -13.8659   25.8514 C   0  0  0  0  0  0  0  0  0  0  0  0
    8.4882  -13.8797   26.8608 C   0  0  0  0  0  0  0  0  0  0  0  0
    9.1703  -14.9416   26.0837 C   0  0  2  0  0  0  0  0  0  0  0  0
    8.4020  -15.2400   24.8607 N   0  0  0  0  0  0  0  0  0  0  0  0
    9.2609  -16.1916   26.8175 C   0  0  0  0  0  0  0  0  0  0  0  0
    8.6980  -17.3688   26.3855 O   0  0  0  0  0  0  0  0  0  0  0  0
    9.8737  -16.2331   27.9102 O   0  0  0  0  0  0  0  0  0  0  0  0
  2  1  1  1
  2  3  1  0
  4  5  1  6
  4  2  1  0
  6  4  1  0
  6  7  2  0
  9  8  1  0
 10  9  1  6
 10 11  1  0
 10 12  1  0
 11  6  1  0
 12 13  2  0
 12 19  1  0
 15 16  1  1
 15 14  1  0
 17 15  1  0
 18 17  1  1
 19 18  1  0
 20 18  1  0
 20 21  1  0
 22 20  2  0
M  END
$$$$
