TSL.pdb
     RDKit          3D

 22 21  0  0  1  0  0  0  0  0999 V2000
    9.0894  -12.3379   20.0954 C   0  0  0  0  0  0  0  0  0  0  0  0
    8.4027  -13.0764   18.9891 C   0  0  1  0  0  0  0  0  0  0  0  0
    8.7665  -12.6022   17.7350 O   0  0  0  0  0  0  0  0  0  0  0  0
    8.6495  -14.5666   19.0426 C   0  0  2  0  0  0  0  0  0  0  0  0
    7.9086  -15.1532   17.9476 N   0  0  0  0  0  0  0  0  0  0  0  0
    8.2135  -15.1829   20.3086 C   0  0  0  0  0  0  0  0  0  0  0  0
    6.9878  -15.2276   20.5728 O   0  0  0  0  0  0  0  0  0  0  0  0
   10.6389  -17.6657   22.4256 O   0  0  0  0  0  0  0  0  0  0  0  0
    9.2753  -17.7461   22.6024 C   0  0  0  0  0  0  0  0  0  0  0  0
    8.6107  -16.3672   22.4964 C   0  0  2  0  0  0  0  0  0  0  0  0
    9.0913  -15.7439   21.2769 N   0  0  0  0  0  0  0  0  0  0  0  0
    8.9686  -15.5921   23.7005 C   0  0  0  0  0  0  0  0  0  0  0  0
   10.0844  -14.9957   23.6787 O   0  0  0  0  0  0  0  0  0  0  0  0
    7.6369  -11.8705   25.7387 C   0  0  0  0  0  0  0  0  0  0  0  0
    6.7534  -13.0593   26.0515 C   0  0  2  0  0  0  0  0  0  0  0  0
    5.4152  -12.6107   26.4761 C   0  0  0  0  0  0  0  0  0  0  0  0
    7.4048  -14.1773   26.7402 C   0  0  0  0  0  0  0  0  0  0  0  0
    8.5742  -14.8114   26.0868 C   0  0  2  0  0  0  0  0  0  0  0  0
    8.1507  -15.4853   24.8452 N   0  0  0  0  0  0  0  0  0  0  0  0
    9.1809  -15.8382   26.9156 C   0  0  0  0  0  0  0  0  0  0  0  0
    9.1853  -17.1735   26.5896 O   0  0  0  0  0  0  0  0  0  0  0  0
    9.7340  -15.5249   27.9960 O   0  0  0  0  0  0  0  0  0  0  0  0
  2  1  1  1
  2  3  1  0
  4  5  1  6
  4  2  1  0
  6  4  1  0
  6  7  2  0
  9  8  1  0
 10  9  1  1
 10 11  1  0
 10 12  1  0
 11  6  1  0
 12 13  2  0
 12 19  1  0
 15 16  1  1
 15 14  1  0
 17 15  1  0
 18 17  1  1
 19 18  1  0
 20 18  1  0
 20 21  1  0
 22 20  2  0
M  END
$$$$
