TSL.pdb
     RDKit          3D

 22 21  0  0  1  0  0  0  0  0999 V2000
    8.9680  -13.1443   18.1963 C   0  0  0  0  0  0  0  0  0  0  0  0
    8.5928  -13.5575   19.5854 C   0  0  1  0  0  0  0  0  0  0  0  0
    7.7661  -12.6288   20.2051 O   0  0  0  0  0  0  0  0  0  0  0  0
    7.9289  -14.9146   19.6300 C   0  0  2  0  0  0  0  0  0  0  0  0
    6.7322  -14.8220   18.8231 N   0  0  0  0  0  0  0  0  0  0  0  0
    7.5631  -15.3382   20.9936 C   0  0  0  0  0  0  0  0  0  0  0  0
    6.3909  -15.1445   21.3966 O   0  0  0  0  0  0  0  0  0  0  0  0
    9.8464  -17.9670   23.2796 O   0  0  0  0  0  0  0  0  0  0  0  0
    8.4850  -17.8272   23.4347 C   0  0  0  0  0  0  0  0  0  0  0  0
    8.0418  -16.3711   23.2410 C   0  0  2  0  0  0  0  0  0  0  0  0
    8.4530  -15.9634   21.9101 N   0  0  0  0  0  0  0  0  0  0  0  0
    8.6731  -15.5556   24.2969 C   0  0  0  0  0  0  0  0  0  0  0  0
    9.8099  -15.0675   24.0315 O   0  0  0  0  0  0  0  0  0  0  0  0
    7.8426  -11.7168   25.7687 C   0  0  0  0  0  0  0  0  0  0  0  0
    7.0273  -12.7235   26.5518 C   0  0  2  0  0  0  0  0  0  0  0  0
    5.8318  -12.0831   27.1288 C   0  0  0  0  0  0  0  0  0  0  0  0
    7.7932  -13.6924   27.3411 C   0  0  0  0  0  0  0  0  0  0  0  0
    8.7680  -14.5538   26.6308 C   0  0  2  0  0  0  0  0  0  0  0  0
    8.0881  -15.2991   25.5551 N   0  0  0  0  0  0  0  0  0  0  0  0
    9.3594  -15.5539   27.5022 C   0  0  0  0  0  0  0  0  0  0  0  0
    9.2026  -16.9075   27.3216 O   0  0  0  0  0  0  0  0  0  0  0  0
   10.0514  -15.1977   28.4848 O   0  0  0  0  0  0  0  0  0  0  0  0
  2  1  1  6
  2  3  1  0
  4  5  1  6
  4  2  1  0
  6  4  1  0
  6  7  2  0
  9  8  1  0
 10  9  1  1
 10 11  1  0
 10 12  1  0
 11  6  1  0
 12 13  2  0
 12 19  1  0
 15 16  1  1
 15 14  1  0
 17 15  1  0
 18 17  1  1
 19 18  1  0
 20 18  1  0
 20 21  1  0
 22 20  2  0
M  END
$$$$
