TSL.pdb
     RDKit          3D

 22 21  0  0  1  0  0  0  0  0999 V2000
    8.8453  -12.3795   19.9464 C   0  0  0  0  0  0  0  0  0  0  0  0
    8.3602  -13.1344   18.7482 C   0  0  1  0  0  0  0  0  0  0  0  0
    8.7819  -12.5574   17.5569 O   0  0  0  0  0  0  0  0  0  0  0  0
    8.7778  -14.5869   18.7666 C   0  0  2  0  0  0  0  0  0  0  0  0
    8.2275  -15.1959   17.5757 N   0  0  0  0  0  0  0  0  0  0  0  0
    8.2933  -15.3160   19.9526 C   0  0  0  0  0  0  0  0  0  0  0  0
    7.0777  -15.6176   20.0263 O   0  0  0  0  0  0  0  0  0  0  0  0
   10.5894  -17.6537   22.3022 O   0  0  0  0  0  0  0  0  0  0  0  0
    9.2153  -17.7261   22.3642 C   0  0  0  0  0  0  0  0  0  0  0  0
    8.5711  -16.3394   22.2378 C   0  0  2  0  0  0  0  0  0  0  0  0
    9.1124  -15.7141   21.0450 N   0  0  0  0  0  0  0  0  0  0  0  0
    8.8834  -15.5756   23.4617 C   0  0  0  0  0  0  0  0  0  0  0  0
   10.0493  -15.0907   23.5442 O   0  0  0  0  0  0  0  0  0  0  0  0
    5.9278  -11.8146   26.8059 C   0  0  0  0  0  0  0  0  0  0  0  0
    7.1992  -12.5048   26.3599 C   0  0  2  0  0  0  0  0  0  0  0  0
    7.8357  -11.7554   25.2619 C   0  0  0  0  0  0  0  0  0  0  0  0
    7.1514  -13.9691   26.3171 C   0  0  0  0  0  0  0  0  0  0  0  0
    8.3298  -14.6887   25.7782 C   0  0  2  0  0  0  0  0  0  0  0  0
    7.9712  -15.3643   24.5172 N   0  0  0  0  0  0  0  0  0  0  0  0
    8.7982  -15.7311   26.6746 C   0  0  0  0  0  0  0  0  0  0  0  0
    9.7372  -15.5234   27.6566 O   0  0  0  0  0  0  0  0  0  0  0  0
    8.3464  -16.8957   26.5707 O   0  0  0  0  0  0  0  0  0  0  0  0
  2  1  1  1
  2  3  1  0
  4  5  1  6
  4  2  1  0
  6  4  1  0
  6  7  2  0
  9  8  1  0
 10  9  1  1
 10 11  1  0
 10 12  1  0
 11  6  1  0
 12 13  2  0
 12 19  1  0
 15 16  1  6
 15 14  1  0
 17 15  1  0
 18 17  1  1
 19 18  1  0
 20 18  1  0
 20 21  1  0
 22 20  2  0
M  END
$$$$
