TSL.pdb
     RDKit          3D

 22 21  0  0  1  0  0  0  0  0999 V2000
    9.1704  -12.3077   19.9807 C   0  0  0  0  0  0  0  0  0  0  0  0
    8.6356  -13.0117   18.7727 C   0  0  1  0  0  0  0  0  0  0  0  0
    9.1674  -12.5083   17.5922 O   0  0  0  0  0  0  0  0  0  0  0  0
    8.8660  -14.5048   18.8192 C   0  0  2  0  0  0  0  0  0  0  0  0
    8.2762  -15.0569   17.6195 N   0  0  0  0  0  0  0  0  0  0  0  0
    8.2610  -15.1499   19.9984 C   0  0  0  0  0  0  0  0  0  0  0  0
    7.0135  -15.2721   20.0517 O   0  0  0  0  0  0  0  0  0  0  0  0
   10.1001  -17.8729   22.3101 O   0  0  0  0  0  0  0  0  0  0  0  0
    8.7340  -17.7016   22.3506 C   0  0  0  0  0  0  0  0  0  0  0  0
    8.3492  -16.2181   22.2783 C   0  0  2  0  0  0  0  0  0  0  0  0
    8.9952  -15.6565   21.1061 N   0  0  0  0  0  0  0  0  0  0  0  0
    8.7920  -15.5684   23.5275 C   0  0  0  0  0  0  0  0  0  0  0  0
   10.0006  -15.1966   23.5744 O   0  0  0  0  0  0  0  0  0  0  0  0
    7.8727  -11.7550   25.7875 C   0  0  0  0  0  0  0  0  0  0  0  0
    6.8359  -12.8329   26.0212 C   0  0  2  0  0  0  0  0  0  0  0  0
    5.5748  -12.2408   26.5022 C   0  0  0  0  0  0  0  0  0  0  0  0
    7.3312  -14.0808   26.6091 C   0  0  0  0  0  0  0  0  0  0  0  0
    8.4384  -14.7843   25.9190 C   0  0  2  0  0  0  0  0  0  0  0  0
    7.9574  -15.3465   24.6433 N   0  0  0  0  0  0  0  0  0  0  0  0
    8.9444  -15.9071   26.6888 C   0  0  0  0  0  0  0  0  0  0  0  0
    9.8263  -15.7753   27.7348 O   0  0  0  0  0  0  0  0  0  0  0  0
    8.5821  -17.0735   26.4069 O   0  0  0  0  0  0  0  0  0  0  0  0
  2  1  1  1
  2  3  1  0
  4  5  1  6
  4  2  1  0
  6  4  1  0
  6  7  2  0
  9  8  1  0
 10  9  1  1
 10 11  1  0
 10 12  1  0
 11  6  1  0
 12 13  2  0
 12 19  1  0
 15 16  1  1
 15 14  1  0
 17 15  1  0
 18 17  1  1
 19 18  1  0
 20 18  1  0
 20 21  1  0
 22 20  2  0
M  END
$$$$
