TSL.pdb
     RDKit          3D

 22 21  0  0  1  0  0  0  0  0999 V2000
    8.7277  -12.3825   19.9376 C   0  0  0  0  0  0  0  0  0  0  0  0
    8.3005  -13.1997   18.7584 C   0  0  1  0  0  0  0  0  0  0  0  0
    8.7776  -12.6835   17.5601 O   0  0  0  0  0  0  0  0  0  0  0  0
    8.7181  -14.6480   18.8714 C   0  0  2  0  0  0  0  0  0  0  0  0
    8.2312  -15.3179   17.6856 N   0  0  0  0  0  0  0  0  0  0  0  0
    8.1733  -15.3185   20.0657 C   0  0  0  0  0  0  0  0  0  0  0  0
    6.9426  -15.5557   20.1217 O   0  0  0  0  0  0  0  0  0  0  0  0
   10.1231  -17.9062   22.3475 O   0  0  0  0  0  0  0  0  0  0  0  0
    8.7610  -17.7498   22.4794 C   0  0  0  0  0  0  0  0  0  0  0  0
    8.3514  -16.2739   22.3900 C   0  0  2  0  0  0  0  0  0  0  0  0
    8.9491  -15.7276   21.1854 N   0  0  0  0  0  0  0  0  0  0  0  0
    8.8260  -15.5918   23.6099 C   0  0  0  0  0  0  0  0  0  0  0  0
   10.0391  -15.2321   23.6216 O   0  0  0  0  0  0  0  0  0  0  0  0
    8.0254  -11.6982   25.6313 C   0  0  0  0  0  0  0  0  0  0  0  0
    6.9652  -12.7224   25.9758 C   0  0  2  0  0  0  0  0  0  0  0  0
    5.7405  -12.0569   26.4548 C   0  0  0  0  0  0  0  0  0  0  0  0
    7.4430  -13.9415   26.6345 C   0  0  0  0  0  0  0  0  0  0  0  0
    8.5241  -14.7115   25.9749 C   0  0  2  0  0  0  0  0  0  0  0  0
    8.0163  -15.3273   24.7348 N   0  0  0  0  0  0  0  0  0  0  0  0
    9.0059  -15.8053   26.7999 C   0  0  0  0  0  0  0  0  0  0  0  0
    9.8893  -15.6406   27.8400 O   0  0  0  0  0  0  0  0  0  0  0  0
    8.6197  -16.9764   26.5749 O   0  0  0  0  0  0  0  0  0  0  0  0
  2  1  1  1
  2  3  1  0
  4  5  1  6
  4  2  1  0
  6  4  1  0
  6  7  2  0
  9  8  1  0
 10  9  1  1
 10 11  1  0
 10 12  1  0
 11  6  1  0
 12 13  2  0
 12 19  1  0
 15 16  1  1
 15 14  1  0
 17 15  1  0
 18 17  1  1
 19 18  1  0
 20 18  1  0
 20 21  1  0
 22 20  2  0
M  END
$$$$
