TSL.pdb
     RDKit          3D

 22 21  0  0  1  0  0  0  0  0999 V2000
   12.3471  -17.4691   21.5157 C   0  0  0  0  0  0  0  0  0  0  0  0
   12.3125  -17.5516   20.0214 C   0  0  1  0  0  0  0  0  0  0  0  0
   13.3046  -18.3832   19.5175 O   0  0  0  0  0  0  0  0  0  0  0  0
   10.9719  -18.0091   19.4943 C   0  0  2  0  0  0  0  0  0  0  0  0
   11.0996  -18.1108   18.0572 N   0  0  0  0  0  0  0  0  0  0  0  0
    9.8725  -17.0826   19.8193 C   0  0  0  0  0  0  0  0  0  0  0  0
    9.0974  -16.7139   18.9042 O   0  0  0  0  0  0  0  0  0  0  0  0
    6.3707  -17.8595   22.1311 O   0  0  0  0  0  0  0  0  0  0  0  0
    7.6300  -17.8475   21.5733 C   0  0  0  0  0  0  0  0  0  0  0  0
    8.2731  -16.4573   21.6625 C   0  0  2  0  0  0  0  0  0  0  0  0
    9.6141  -16.5612   21.1170 N   0  0  0  0  0  0  0  0  0  0  0  0
    8.2751  -16.0433   23.0794 C   0  0  0  0  0  0  0  0  0  0  0  0
    9.0550  -16.6727   23.8518 O   0  0  0  0  0  0  0  0  0  0  0  0
    8.1435  -12.6562   27.1311 C   0  0  0  0  0  0  0  0  0  0  0  0
    7.0612  -12.2445   26.1561 C   0  0  2  0  0  0  0  0  0  0  0  0
    5.8944  -11.7050   26.8772 C   0  0  0  0  0  0  0  0  0  0  0  0
    6.8663  -13.1301   25.0046 C   0  0  0  0  0  0  0  0  0  0  0  0
    7.8015  -14.2674   24.8347 C   0  0  2  0  0  0  0  0  0  0  0  0
    7.4720  -15.0079   23.6026 N   0  0  0  0  0  0  0  0  0  0  0  0
    7.7062  -15.2281   25.9198 C   0  0  0  0  0  0  0  0  0  0  0  0
    6.6682  -16.1186   26.0571 O   0  0  0  0  0  0  0  0  0  0  0  0
    8.5988  -15.2704   26.7987 O   0  0  0  0  0  0  0  0  0  0  0  0
  2  1  1  1
  2  3  1  0
  4  5  1  6
  4  2  1  0
  6  4  1  0
  6  7  2  0
  9  8  1  0
 10  9  1  1
 10 11  1  0
 10 12  1  0
 11  6  1  0
 12 13  2  0
 12 19  1  0
 15 16  1  1
 15 14  1  0
 17 15  1  0
 18 17  1  1
 19 18  1  0
 20 18  1  0
 20 21  1  0
 22 20  2  0
M  END
$$$$
