TSL.pdb
     RDKit          3D

 22 21  0  0  1  0  0  0  0  0999 V2000
    8.9808  -12.2762   19.8471 C   0  0  0  0  0  0  0  0  0  0  0  0
    8.5234  -13.0933   18.6791 C   0  0  1  0  0  0  0  0  0  0  0  0
    9.0379  -12.6257   17.4764 O   0  0  0  0  0  0  0  0  0  0  0  0
    8.8648  -14.5586   18.8240 C   0  0  2  0  0  0  0  0  0  0  0  0
    8.3653  -15.2239   17.6409 N   0  0  0  0  0  0  0  0  0  0  0  0
    8.2658  -15.1795   20.0192 C   0  0  0  0  0  0  0  0  0  0  0  0
    7.0398  -15.4455   20.0165 O   0  0  0  0  0  0  0  0  0  0  0  0
   10.1135  -17.6929   22.4740 O   0  0  0  0  0  0  0  0  0  0  0  0
    8.7441  -17.5450   22.4658 C   0  0  0  0  0  0  0  0  0  0  0  0
    8.3369  -16.0685   22.3754 C   0  0  2  0  0  0  0  0  0  0  0  0
    8.9831  -15.5088   21.2024 N   0  0  0  0  0  0  0  0  0  0  0  0
    8.7600  -15.3992   23.6211 C   0  0  0  0  0  0  0  0  0  0  0  0
    9.9823  -15.0832   23.7068 O   0  0  0  0  0  0  0  0  0  0  0  0
    7.7464  -11.5887   25.7308 C   0  0  0  0  0  0  0  0  0  0  0  0
    6.7256  -12.6580   26.0566 C   0  0  2  0  0  0  0  0  0  0  0  0
    5.4826  -12.0484   26.5622 C   0  0  0  0  0  0  0  0  0  0  0  0
    7.2512  -13.8761   26.6798 C   0  0  0  0  0  0  0  0  0  0  0  0
    8.3572  -14.5869   25.9954 C   0  0  2  0  0  0  0  0  0  0  0  0
    7.8929  -15.1016   24.6937 N   0  0  0  0  0  0  0  0  0  0  0  0
    8.8185  -15.7426   26.7443 C   0  0  0  0  0  0  0  0  0  0  0  0
    8.6355  -17.0399   26.3285 O   0  0  0  0  0  0  0  0  0  0  0  0
    9.4143  -15.5843   27.8357 O   0  0  0  0  0  0  0  0  0  0  0  0
  2  1  1  1
  2  3  1  0
  4  5  1  6
  4  2  1  0
  6  4  1  0
  6  7  2  0
  9  8  1  0
 10  9  1  1
 10 11  1  0
 10 12  1  0
 11  6  1  0
 12 13  2  0
 12 19  1  0
 15 16  1  1
 15 14  1  0
 17 15  1  0
 18 17  1  1
 19 18  1  0
 20 18  1  0
 20 21  1  0
 22 20  2  0
M  END
$$$$
