YFE.pdb
     RDKit          3D

 33 34  0  0  1  0  0  0  0  0999 V2000
    7.2545  -13.5704   14.9402 O   0  0  0  0  0  0  0  0  0  0  0  0
    7.5102  -14.1968   16.1556 C   0  0  0  0  0  0  0  0  0  0  0  0
    7.6771  -15.5697   16.2099 C   0  0  0  0  0  0  0  0  0  0  0  0
    7.9268  -16.1436   17.4264 C   0  0  0  0  0  0  0  0  0  0  0  0
    8.0233  -15.4356   18.6087 C   0  0  0  0  0  0  0  0  0  0  0  0
    8.2927  -16.0730   19.9063 C   0  0  0  0  0  0  0  0  0  0  0  0
    9.5654  -15.5078   20.5004 C   0  0  2  0  0  0  0  0  0  0  0  0
   10.6460  -16.3841   20.0822 N   0  0  0  0  0  0  0  0  0  0  0  0
    9.5398  -15.4936   21.9698 C   0  0  0  0  0  0  0  0  0  0  0  0
   10.5868  -15.7810   22.5998 O   0  0  0  0  0  0  0  0  0  0  0  0
    7.8500  -14.0578   18.5148 C   0  0  0  0  0  0  0  0  0  0  0  0
    7.5956  -13.4367   17.3043 C   0  0  0  0  0  0  0  0  0  0  0  0
    8.3909  -15.1711   22.7307 N   0  0  0  0  0  0  0  0  0  0  0  0
    8.5329  -14.5108   24.0467 C   0  0  1  0  0  0  0  0  0  0  0  0
    7.3131  -13.6937   24.2095 C   0  0  0  0  0  0  0  0  0  0  0  0
    7.0851  -12.9835   25.4453 C   0  0  0  0  0  0  0  0  0  0  0  0
    6.1327  -13.4136   26.3391 C   0  0  0  0  0  0  0  0  0  0  0  0
    5.9020  -12.7341   27.5401 C   0  0  0  0  0  0  0  0  0  0  0  0
    6.6298  -11.6120   27.8538 C   0  0  0  0  0  0  0  0  0  0  0  0
    7.5882  -11.1704   26.9653 C   0  0  0  0  0  0  0  0  0  0  0  0
    7.7984  -11.8591   25.7835 C   0  0  0  0  0  0  0  0  0  0  0  0
    8.7423  -15.5838   25.0423 C   0  0  0  0  0  0  0  0  0  0  0  0
    8.9428  -15.2210   26.2577 O   0  0  0  0  0  0  0  0  0  0  0  0
    8.7360  -16.9641   24.7750 N   0  0  0  0  0  0  0  0  0  0  0  0
    9.0540  -17.9152   25.8558 C   0  0  1  0  0  0  0  0  0  0  0  0
    9.5574  -19.1805   25.2462 C   0  0  0  0  0  0  0  0  0  0  0  0
   10.8412  -19.1384   24.5399 C   0  0  0  0  0  0  0  0  0  0  0  0
   11.1004  -20.1196   23.4974 C   0  0  0  0  0  0  0  0  0  0  0  0
   10.8461  -19.8207   22.2853 O   0  0  0  0  0  0  0  0  0  0  0  0
    9.8813  -17.2370   26.8255 C   0  0  0  0  0  0  0  0  0  0  0  0
   10.1080  -17.7719   28.0898 O   0  0  0  0  0  0  0  0  0  0  0  0
   11.6215  -21.3935   23.7117 O   0  0  0  0  0  0  0  0  0  0  0  0
   10.4455  -16.1263   26.6103 O   0  0  0  0  0  0  0  0  0  0  0  0
  2  1  1  0
  3  2  2  0
  4  3  1  0
  5 11  1  0
  5  4  2  0
  6  5  1  0
  7  6  1  0
  7  8  1  1
  9  7  1  0
  9 10  2  0
 11 12  2  0
 12  2  1  0
 13  9  1  0
 14 13  1  0
 14 15  1  1
 16 15  1  0
 16 17  2  0
 18 17  1  0
 19 18  2  0
 20 21  2  0
 20 19  1  0
 21 16  1  0
 22 14  1  0
 23 22  2  0
 24 22  1  0
 25 24  1  0
 25 26  1  6
 26 27  1  0
 27 28  1  0
 28 32  1  0
 28 29  2  0
 30 31  1  0
 30 25  1  0
 33 30  2  0
M  END
$$$$
