YFE.pdb
     RDKit          3D

 33 34  0  0  1  0  0  0  0  0999 V2000
   13.1996  -20.0076   18.0413 O   0  0  0  0  0  0  0  0  0  0  0  0
   12.0082  -19.7147   18.6970 C   0  0  0  0  0  0  0  0  0  0  0  0
   12.0281  -19.2204   19.9896 C   0  0  0  0  0  0  0  0  0  0  0  0
   10.8329  -18.9462   20.5961 C   0  0  0  0  0  0  0  0  0  0  0  0
    9.6024  -19.1328   19.9965 C   0  0  0  0  0  0  0  0  0  0  0  0
    8.3288  -18.8313   20.6671 C   0  0  0  0  0  0  0  0  0  0  0  0
    7.9032  -17.4145   20.3454 C   0  0  2  0  0  0  0  0  0  0  0  0
    8.5159  -17.0735   19.0731 N   0  0  0  0  0  0  0  0  0  0  0  0
    8.3746  -16.4469   21.3463 C   0  0  0  0  0  0  0  0  0  0  0  0
    9.4814  -15.8810   21.1719 O   0  0  0  0  0  0  0  0  0  0  0  0
    9.6222  -19.6311   18.6971 C   0  0  0  0  0  0  0  0  0  0  0  0
   10.8089  -19.9218   18.0467 C   0  0  0  0  0  0  0  0  0  0  0  0
    7.6475  -16.1080   22.5122 N   0  0  0  0  0  0  0  0  0  0  0  0
    8.2076  -15.1419   23.4823 C   0  0  1  0  0  0  0  0  0  0  0  0
    7.0464  -14.3954   24.0079 C   0  0  0  0  0  0  0  0  0  0  0  0
    7.2222  -13.4760   25.1066 C   0  0  0  0  0  0  0  0  0  0  0  0
    6.9400  -13.8586   26.3969 C   0  0  0  0  0  0  0  0  0  0  0  0
    7.1061  -12.9769   27.4704 C   0  0  0  0  0  0  0  0  0  0  0  0
    7.5592  -11.6981   27.2548 C   0  0  0  0  0  0  0  0  0  0  0  0
    7.8458  -11.3022   25.9648 C   0  0  0  0  0  0  0  0  0  0  0  0
    7.6736  -12.1920   24.9191 C   0  0  0  0  0  0  0  0  0  0  0  0
    8.9840  -15.9265   24.4662 C   0  0  0  0  0  0  0  0  0  0  0  0
    8.5462  -17.0989   24.7536 O   0  0  0  0  0  0  0  0  0  0  0  0
   10.1604  -15.5029   25.1092 N   0  0  0  0  0  0  0  0  0  0  0  0
   11.1120  -16.5069   25.6190 C   0  0  1  0  0  0  0  0  0  0  0  0
   12.4020  -16.3593   24.8840 C   0  0  0  0  0  0  0  0  0  0  0  0
   13.5294  -17.1981   25.3015 C   0  0  0  0  0  0  0  0  0  0  0  0
   14.7684  -17.1363   24.5415 C   0  0  0  0  0  0  0  0  0  0  0  0
   14.9782  -17.9948   23.6237 O   0  0  0  0  0  0  0  0  0  0  0  0
   11.1238  -16.4272   27.0607 C   0  0  0  0  0  0  0  0  0  0  0  0
   10.4236  -15.4355   27.7404 O   0  0  0  0  0  0  0  0  0  0  0  0
   15.7743  -16.1914   24.7299 O   0  0  0  0  0  0  0  0  0  0  0  0
   11.7622  -17.2285   27.8013 O   0  0  0  0  0  0  0  0  0  0  0  0
  2  1  1  0
  3  2  2  0
  4  3  1  0
  5 11  1  0
  5  4  2  0
  6  5  1  0
  7  6  1  0
  7  8  1  6
  9  7  1  0
  9 10  2  0
 11 12  2  0
 12  2  1  0
 13  9  1  0
 14 13  1  0
 14 15  1  1
 16 15  1  0
 16 17  2  0
 18 17  1  0
 19 18  2  0
 20 21  2  0
 20 19  1  0
 21 16  1  0
 22 14  1  0
 23 22  2  0
 24 22  1  0
 25 24  1  0
 25 26  1  6
 26 27  1  0
 27 28  1  0
 28 32  1  0
 28 29  2  0
 30 31  1  0
 30 25  1  0
 33 30  2  0
M  END
$$$$
