YFE.pdb
     RDKit          3D

 33 34  0  0  1  0  0  0  0  0999 V2000
    5.2449  -19.8641   15.5643 O   0  0  0  0  0  0  0  0  0  0  0  0
    5.9107  -19.4008   16.6944 C   0  0  0  0  0  0  0  0  0  0  0  0
    7.2877  -19.2622   16.6835 C   0  0  0  0  0  0  0  0  0  0  0  0
    7.9010  -18.8032   17.8170 C   0  0  0  0  0  0  0  0  0  0  0  0
    7.2289  -18.4679   18.9764 C   0  0  0  0  0  0  0  0  0  0  0  0
    7.9083  -17.9759   20.1843 C   0  0  0  0  0  0  0  0  0  0  0  0
    8.2968  -16.5245   19.9985 C   0  0  2  0  0  0  0  0  0  0  0  0
    9.4633  -16.5124   19.1327 N   0  0  0  0  0  0  0  0  0  0  0  0
    8.6687  -15.8774   21.2646 C   0  0  0  0  0  0  0  0  0  0  0  0
    9.8562  -15.9576   21.6636 O   0  0  0  0  0  0  0  0  0  0  0  0
    5.8457  -18.6201   18.9498 C   0  0  0  0  0  0  0  0  0  0  0  0
    5.1854  -19.0814   17.8242 C   0  0  0  0  0  0  0  0  0  0  0  0
    7.7577  -15.1584   22.0746 N   0  0  0  0  0  0  0  0  0  0  0  0
    8.2147  -14.5424   23.3395 C   0  0  1  0  0  0  0  0  0  0  0  0
    7.1746  -13.5551   23.6935 C   0  0  0  0  0  0  0  0  0  0  0  0
    7.1553  -12.9762   25.0156 C   0  0  0  0  0  0  0  0  0  0  0  0
    6.0744  -13.1546   25.8467 C   0  0  0  0  0  0  0  0  0  0  0  0
    6.0434  -12.5987   27.1301 C   0  0  0  0  0  0  0  0  0  0  0  0
    7.1032  -11.8558   27.5907 C   0  0  0  0  0  0  0  0  0  0  0  0
    8.1936  -11.6696   26.7665 C   0  0  0  0  0  0  0  0  0  0  0  0
    8.2013  -12.2293   25.5009 C   0  0  0  0  0  0  0  0  0  0  0  0
    8.4262  -15.6466   24.3000 C   0  0  0  0  0  0  0  0  0  0  0  0
    7.4600  -16.4781   24.4550 O   0  0  0  0  0  0  0  0  0  0  0  0
    9.5928  -15.8673   25.0530 N   0  0  0  0  0  0  0  0  0  0  0  0
    9.6735  -17.0414   25.9411 C   0  0  1  0  0  0  0  0  0  0  0  0
   10.4118  -18.1270   25.2324 C   0  0  0  0  0  0  0  0  0  0  0  0
   11.7955  -17.8637   24.8263 C   0  0  0  0  0  0  0  0  0  0  0  0
   12.5123  -18.8837   24.0763 C   0  0  0  0  0  0  0  0  0  0  0  0
   12.9543  -19.9099   24.6885 O   0  0  0  0  0  0  0  0  0  0  0  0
   10.1571  -16.6016   27.2285 C   0  0  0  0  0  0  0  0  0  0  0  0
   10.3869  -15.2563   27.4989 O   0  0  0  0  0  0  0  0  0  0  0  0
   12.7622  -18.8397   22.7067 O   0  0  0  0  0  0  0  0  0  0  0  0
   10.4113  -17.3863   28.1866 O   0  0  0  0  0  0  0  0  0  0  0  0
  2  1  1  0
  3  2  2  0
  4  3  1  0
  5 11  1  0
  5  4  2  0
  6  5  1  0
  7  6  1  0
  7  8  1  6
  9  7  1  0
  9 10  2  0
 11 12  2  0
 12  2  1  0
 13  9  1  0
 14 13  1  0
 14 15  1  1
 16 15  1  0
 16 17  2  0
 18 17  1  0
 19 18  2  0
 20 21  2  0
 20 19  1  0
 21 16  1  0
 22 14  1  0
 23 22  2  0
 24 22  1  0
 25 24  1  0
 25 26  1  6
 26 27  1  0
 27 28  1  0
 28 32  1  0
 28 29  2  0
 30 31  1  0
 30 25  1  0
 33 30  2  0
M  END
$$$$
