YFE.pdb
     RDKit          3D

 33 34  0  0  1  0  0  0  0  0999 V2000
    6.9162  -11.9956   18.0966 O   0  0  0  0  0  0  0  0  0  0  0  0
    7.7770  -13.0373   18.4268 C   0  0  0  0  0  0  0  0  0  0  0  0
    8.9341  -12.7840   19.1427 C   0  0  0  0  0  0  0  0  0  0  0  0
    9.7516  -13.8383   19.4455 C   0  0  0  0  0  0  0  0  0  0  0  0
    9.4932  -15.1452   19.0799 C   0  0  0  0  0  0  0  0  0  0  0  0
   10.3862  -16.2642   19.4161 C   0  0  0  0  0  0  0  0  0  0  0  0
    9.8145  -17.0437   20.5813 C   0  0  2  0  0  0  0  0  0  0  0  0
    8.4306  -17.3352   20.2493 N   0  0  0  0  0  0  0  0  0  0  0  0
    9.8249  -16.2709   21.8315 C   0  0  0  0  0  0  0  0  0  0  0  0
   10.9101  -15.7924   22.2425 O   0  0  0  0  0  0  0  0  0  0  0  0
    8.3210  -15.3611   18.3614 C   0  0  0  0  0  0  0  0  0  0  0  0
    7.4660  -14.3231   18.0340 C   0  0  0  0  0  0  0  0  0  0  0  0
    8.6700  -16.0288   22.6129 N   0  0  0  0  0  0  0  0  0  0  0  0
    8.7840  -15.3226   23.9077 C   0  0  1  0  0  0  0  0  0  0  0  0
    7.5713  -14.4851   24.0061 C   0  0  0  0  0  0  0  0  0  0  0  0
    7.3783  -13.6345   25.1563 C   0  0  0  0  0  0  0  0  0  0  0  0
    8.2958  -12.6607   25.4736 C   0  0  0  0  0  0  0  0  0  0  0  0
    8.1204  -11.8300   26.5856 C   0  0  0  0  0  0  0  0  0  0  0  0
    7.0167  -11.9720   27.3910 C   0  0  0  0  0  0  0  0  0  0  0  0
    6.0889  -12.9453   27.0833 C   0  0  0  0  0  0  0  0  0  0  0  0
    6.2841  -13.7551   25.9782 C   0  0  0  0  0  0  0  0  0  0  0  0
    8.9511  -16.3612   24.9470 C   0  0  0  0  0  0  0  0  0  0  0  0
    8.1495  -17.3634   24.9044 O   0  0  0  0  0  0  0  0  0  0  0  0
    9.9129  -16.3489   25.9724 N   0  0  0  0  0  0  0  0  0  0  0  0
   10.1653  -17.5777   26.7470 C   0  0  1  0  0  0  0  0  0  0  0  0
   11.3041  -18.3113   26.1219 C   0  0  0  0  0  0  0  0  0  0  0  0
   11.7730  -19.5364   26.7763 C   0  0  0  0  0  0  0  0  0  0  0  0
   12.9299  -20.2262   26.2265 C   0  0  0  0  0  0  0  0  0  0  0  0
   13.3982  -19.8551   25.1012 O   0  0  0  0  0  0  0  0  0  0  0  0
   10.2546  -17.2212   28.1434 C   0  0  0  0  0  0  0  0  0  0  0  0
   10.2879  -15.8924   28.5545 O   0  0  0  0  0  0  0  0  0  0  0  0
   13.5944  -21.2853   26.8407 O   0  0  0  0  0  0  0  0  0  0  0  0
   10.3158  -18.0682   29.0799 O   0  0  0  0  0  0  0  0  0  0  0  0
  2  1  1  0
  3  2  2  0
  4  3  1  0
  5 11  1  0
  5  4  2  0
  6  5  1  0
  7  6  1  0
  7  8  1  6
  9  7  1  0
  9 10  2  0
 11 12  2  0
 12  2  1  0
 13  9  1  0
 14 13  1  0
 14 15  1  1
 16 15  1  0
 16 17  2  0
 18 17  1  0
 19 18  2  0
 20 21  2  0
 20 19  1  0
 21 16  1  0
 22 14  1  0
 23 22  2  0
 24 22  1  0
 25 24  1  0
 25 26  1  6
 26 27  1  0
 27 28  1  0
 28 32  1  0
 28 29  2  0
 30 31  1  0
 30 25  1  0
 33 30  2  0
M  END
$$$$
