YFE.pdb
     RDKit          3D

 33 34  0  0  1  0  0  0  0  0999 V2000
    9.0904  -21.7029   15.9213 O   0  0  0  0  0  0  0  0  0  0  0  0
    9.3351  -20.7988   16.9497 C   0  0  0  0  0  0  0  0  0  0  0  0
    8.6213  -20.8798   18.1327 C   0  0  0  0  0  0  0  0  0  0  0  0
    8.8948  -19.9701   19.1172 C   0  0  0  0  0  0  0  0  0  0  0  0
    9.8428  -18.9717   19.0038 C   0  0  0  0  0  0  0  0  0  0  0  0
   10.1210  -18.0036   20.0753 C   0  0  0  0  0  0  0  0  0  0  0  0
    8.9543  -17.0496   20.2195 C   0  0  2  0  0  0  0  0  0  0  0  0
    8.8852  -16.2856   18.9858 N   0  0  0  0  0  0  0  0  0  0  0  0
    9.1394  -16.1013   21.3270 C   0  0  0  0  0  0  0  0  0  0  0  0
   10.2491  -15.5297   21.4601 O   0  0  0  0  0  0  0  0  0  0  0  0
   10.5403  -18.9215   17.8005 C   0  0  0  0  0  0  0  0  0  0  0  0
   10.2951  -19.8223   16.7786 C   0  0  0  0  0  0  0  0  0  0  0  0
    8.1293  -15.7873   22.2672 N   0  0  0  0  0  0  0  0  0  0  0  0
    8.4251  -14.8853   23.4018 C   0  0  1  0  0  0  0  0  0  0  0  0
    7.1321  -14.2670   23.7590 C   0  0  0  0  0  0  0  0  0  0  0  0
    7.0049  -13.5339   24.9959 C   0  0  0  0  0  0  0  0  0  0  0  0
    7.5647  -12.2857   25.1354 C   0  0  0  0  0  0  0  0  0  0  0  0
    7.4486  -11.5651   26.3290 C   0  0  0  0  0  0  0  0  0  0  0  0
    6.7661  -12.0956   27.3966 C   0  0  0  0  0  0  0  0  0  0  0  0
    6.2000  -13.3470   27.2693 C   0  0  0  0  0  0  0  0  0  0  0  0
    6.3280  -14.0408   26.0787 C   0  0  0  0  0  0  0  0  0  0  0  0
    9.0694  -15.7103   24.4461 C   0  0  0  0  0  0  0  0  0  0  0  0
    8.5955  -16.8889   24.6335 O   0  0  0  0  0  0  0  0  0  0  0  0
   10.1569  -15.3187   25.2466 N   0  0  0  0  0  0  0  0  0  0  0  0
   11.0130  -16.3481   25.8639 C   0  0  1  0  0  0  0  0  0  0  0  0
   12.3957  -16.2082   25.3214 C   0  0  0  0  0  0  0  0  0  0  0  0
   13.4342  -17.0962   25.8524 C   0  0  0  0  0  0  0  0  0  0  0  0
   14.7979  -16.9486   25.3676 C   0  0  0  0  0  0  0  0  0  0  0  0
   15.3714  -17.9417   24.8126 O   0  0  0  0  0  0  0  0  0  0  0  0
   10.8221  -16.2962   27.2942 C   0  0  0  0  0  0  0  0  0  0  0  0
   11.2536  -17.3264   28.1239 O   0  0  0  0  0  0  0  0  0  0  0  0
   15.5542  -15.7820   25.4544 O   0  0  0  0  0  0  0  0  0  0  0  0
   10.2545  -15.3369   27.8907 O   0  0  0  0  0  0  0  0  0  0  0  0
  2  1  1  0
  3  2  2  0
  4  3  1  0
  5 11  1  0
  5  4  2  0
  6  5  1  0
  7  6  1  0
  7  8  1  6
  9  7  1  0
  9 10  2  0
 11 12  2  0
 12  2  1  0
 13  9  1  0
 14 13  1  0
 14 15  1  1
 16 15  1  0
 16 17  2  0
 18 17  1  0
 19 18  2  0
 20 21  2  0
 20 19  1  0
 21 16  1  0
 22 14  1  0
 23 22  2  0
 24 22  1  0
 25 24  1  0
 25 26  1  1
 26 27  1  0
 27 28  1  0
 28 32  1  0
 28 29  2  0
 30 31  1  0
 30 25  1  0
 33 30  2  0
M  END
$$$$
