YFE.pdb
     RDKit          3D

 33 34  0  0  1  0  0  0  0  0999 V2000
    9.1789  -21.6774   16.2460 O   0  0  0  0  0  0  0  0  0  0  0  0
    9.3525  -20.8936   17.3821 C   0  0  0  0  0  0  0  0  0  0  0  0
    8.3122  -20.7287   18.2799 C   0  0  0  0  0  0  0  0  0  0  0  0
    8.5273  -19.9494   19.3836 C   0  0  0  0  0  0  0  0  0  0  0  0
    9.7228  -19.3143   19.6589 C   0  0  0  0  0  0  0  0  0  0  0  0
    9.9326  -18.4806   20.8520 C   0  0  0  0  0  0  0  0  0  0  0  0
    9.3348  -17.1076   20.6292 C   0  0  2  0  0  0  0  0  0  0  0  0
   10.1012  -16.4870   19.5624 N   0  0  0  0  0  0  0  0  0  0  0  0
    9.4416  -16.2502   21.8182 C   0  0  0  0  0  0  0  0  0  0  0  0
   10.4409  -15.5005   21.9404 O   0  0  0  0  0  0  0  0  0  0  0  0
   10.7453  -19.5032   18.7338 C   0  0  0  0  0  0  0  0  0  0  0  0
   10.5703  -20.2835   17.6041 C   0  0  0  0  0  0  0  0  0  0  0  0
    8.4733  -16.2165   22.8498 N   0  0  0  0  0  0  0  0  0  0  0  0
    8.6460  -15.3038   24.0010 C   0  0  1  0  0  0  0  0  0  0  0  0
    7.4279  -14.4687   24.0259 C   0  0  0  0  0  0  0  0  0  0  0  0
    7.2487  -13.4925   25.0740 C   0  0  0  0  0  0  0  0  0  0  0  0
    8.0400  -12.3694   25.1329 C   0  0  0  0  0  0  0  0  0  0  0  0
    7.8765  -11.4160   26.1436 C   0  0  0  0  0  0  0  0  0  0  0  0
    6.9121  -11.5843   27.1074 C   0  0  0  0  0  0  0  0  0  0  0  0
    6.1119  -12.7069   27.0593 C   0  0  0  0  0  0  0  0  0  0  0  0
    6.2924  -13.6362   26.0499 C   0  0  0  0  0  0  0  0  0  0  0  0
    8.8840  -16.1536   25.1875 C   0  0  0  0  0  0  0  0  0  0  0  0
    8.1519  -15.9334   26.2192 O   0  0  0  0  0  0  0  0  0  0  0  0
    9.8371  -17.1829   25.2820 N   0  0  0  0  0  0  0  0  0  0  0  0
   10.9275  -17.0755   26.2684 C   0  0  1  0  0  0  0  0  0  0  0  0
   12.0046  -16.2146   25.6984 C   0  0  0  0  0  0  0  0  0  0  0  0
   12.5312  -16.5607   24.3749 C   0  0  0  0  0  0  0  0  0  0  0  0
   13.9687  -16.7128   24.2101 C   0  0  0  0  0  0  0  0  0  0  0  0
   14.4455  -17.8636   23.9427 O   0  0  0  0  0  0  0  0  0  0  0  0
   10.3511  -16.7112   27.5412 C   0  0  0  0  0  0  0  0  0  0  0  0
   11.0463  -16.8906   28.7330 O   0  0  0  0  0  0  0  0  0  0  0  0
   14.8981  -15.6808   24.3174 O   0  0  0  0  0  0  0  0  0  0  0  0
    9.1938  -16.2194   27.6708 O   0  0  0  0  0  0  0  0  0  0  0  0
  2  1  1  0
  3  2  2  0
  4  3  1  0
  5 11  1  0
  5  4  2  0
  6  5  1  0
  7  6  1  0
  7  8  1  6
  9  7  1  0
  9 10  2  0
 11 12  2  0
 12  2  1  0
 13  9  1  0
 14 13  1  0
 14 15  1  1
 16 15  1  0
 16 17  2  0
 18 17  1  0
 19 18  2  0
 20 21  2  0
 20 19  1  0
 21 16  1  0
 22 14  1  0
 23 22  2  0
 24 22  1  0
 25 24  1  0
 25 26  1  6
 26 27  1  0
 27 28  1  0
 28 32  1  0
 28 29  2  0
 30 31  1  0
 30 25  1  0
 33 30  2  0
M  END
$$$$
