YFE.pdb
     RDKit          3D

 33 34  0  0  1  0  0  0  0  0999 V2000
    7.7297  -14.8651   13.7157 O   0  0  0  0  0  0  0  0  0  0  0  0
    7.9865  -14.6182   15.0604 C   0  0  0  0  0  0  0  0  0  0  0  0
    8.7061  -15.5315   15.8110 C   0  0  0  0  0  0  0  0  0  0  0  0
    8.9352  -15.2480   17.1297 C   0  0  0  0  0  0  0  0  0  0  0  0
    8.4912  -14.1024   17.7612 C   0  0  0  0  0  0  0  0  0  0  0  0
    8.7488  -13.8172   19.1808 C   0  0  0  0  0  0  0  0  0  0  0  0
    9.0435  -15.1068   19.9171 C   0  0  2  0  0  0  0  0  0  0  0  0
    7.8857  -15.9653   19.7347 N   0  0  0  0  0  0  0  0  0  0  0  0
    9.2271  -14.8986   21.3604 C   0  0  0  0  0  0  0  0  0  0  0  0
   10.2689  -14.3274   21.7654 O   0  0  0  0  0  0  0  0  0  0  0  0
    7.7713  -13.2078   16.9748 C   0  0  0  0  0  0  0  0  0  0  0  0
    7.5171  -13.4556   15.6370 C   0  0  0  0  0  0  0  0  0  0  0  0
    8.2885  -15.3082   22.3371 N   0  0  0  0  0  0  0  0  0  0  0  0
    8.4733  -14.9217   23.7530 C   0  0  1  0  0  0  0  0  0  0  0  0
    7.1678  -14.3838   24.1867 C   0  0  0  0  0  0  0  0  0  0  0  0
    7.0794  -13.6068   25.4000 C   0  0  0  0  0  0  0  0  0  0  0  0
    6.2702  -14.0092   26.4364 C   0  0  0  0  0  0  0  0  0  0  0  0
    6.1757  -13.2650   27.6173 C   0  0  0  0  0  0  0  0  0  0  0  0
    6.8969  -12.1053   27.7667 C   0  0  0  0  0  0  0  0  0  0  0  0
    7.7123  -11.6909   26.7341 C   0  0  0  0  0  0  0  0  0  0  0  0
    7.7894  -12.4438   25.5755 C   0  0  0  0  0  0  0  0  0  0  0  0
    8.9571  -16.1246   24.4641 C   0  0  0  0  0  0  0  0  0  0  0  0
    8.3526  -17.2304   24.2178 O   0  0  0  0  0  0  0  0  0  0  0  0
   10.0225  -16.1633   25.3806 N   0  0  0  0  0  0  0  0  0  0  0  0
   10.4707  -17.4602   25.9198 C   0  0  1  0  0  0  0  0  0  0  0  0
   11.8838  -17.6899   25.4997 C   0  0  0  0  0  0  0  0  0  0  0  0
   12.5868  -18.8475   26.0607 C   0  0  0  0  0  0  0  0  0  0  0  0
   13.9770  -19.0690   25.6935 C   0  0  0  0  0  0  0  0  0  0  0  0
   14.8120  -18.1146   25.8158 O   0  0  0  0  0  0  0  0  0  0  0  0
   10.1522  -17.4986   27.3276 C   0  0  0  0  0  0  0  0  0  0  0  0
    9.8449  -16.3412   28.0361 O   0  0  0  0  0  0  0  0  0  0  0  0
   14.4935  -20.2688   25.2096 O   0  0  0  0  0  0  0  0  0  0  0  0
   10.1351  -18.5607   28.0132 O   0  0  0  0  0  0  0  0  0  0  0  0
  2  1  1  0
  3  2  2  0
  4  3  1  0
  5 11  1  0
  5  4  2  0
  6  5  1  0
  7  6  1  0
  7  8  1  1
  9  7  1  0
  9 10  2  0
 11 12  2  0
 12  2  1  0
 13  9  1  0
 14 13  1  0
 14 15  1  1
 16 15  1  0
 16 17  2  0
 18 17  1  0
 19 18  2  0
 20 21  2  0
 20 19  1  0
 21 16  1  0
 22 14  1  0
 23 22  2  0
 24 22  1  0
 25 24  1  0
 25 26  1  1
 26 27  1  0
 27 28  1  0
 28 32  1  0
 28 29  2  0
 30 31  1  0
 30 25  1  0
 33 30  2  0
M  END
$$$$
