YFE.pdb
     RDKit          3D

 33 34  0  0  1  0  0  0  0  0999 V2000
    7.3030  -11.7441   18.6409 O   0  0  0  0  0  0  0  0  0  0  0  0
    7.9782  -12.9328   18.8982 C   0  0  0  0  0  0  0  0  0  0  0  0
    9.2458  -12.9075   19.4532 C   0  0  0  0  0  0  0  0  0  0  0  0
    9.8729  -14.1002   19.6894 C   0  0  0  0  0  0  0  0  0  0  0  0
    9.3175  -15.3333   19.4073 C   0  0  0  0  0  0  0  0  0  0  0  0
   10.0095  -16.6042   19.6694 C   0  0  0  0  0  0  0  0  0  0  0  0
    9.3584  -17.3102   20.8397 C   0  0  2  0  0  0  0  0  0  0  0  0
    7.9470  -17.4348   20.5191 N   0  0  0  0  0  0  0  0  0  0  0  0
    9.4708  -16.5443   22.0891 C   0  0  0  0  0  0  0  0  0  0  0  0
   10.6116  -16.2506   22.5227 O   0  0  0  0  0  0  0  0  0  0  0  0
    8.0422  -15.3190   18.8501 C   0  0  0  0  0  0  0  0  0  0  0  0
    7.3723  -14.1350   18.5950 C   0  0  0  0  0  0  0  0  0  0  0  0
    8.3561  -16.1106   22.8455 N   0  0  0  0  0  0  0  0  0  0  0  0
    8.5592  -15.3984   24.1261 C   0  0  1  0  0  0  0  0  0  0  0  0
    7.3278  -14.6102   24.3364 C   0  0  0  0  0  0  0  0  0  0  0  0
    7.2158  -13.7483   25.4888 C   0  0  0  0  0  0  0  0  0  0  0  0
    6.0694  -13.0245   25.7181 C   0  0  0  0  0  0  0  0  0  0  0  0
    5.9485  -12.1856   26.8311 C   0  0  0  0  0  0  0  0  0  0  0  0
    6.9834  -12.0668   27.7266 C   0  0  0  0  0  0  0  0  0  0  0  0
    8.1389  -12.7878   27.5078 C   0  0  0  0  0  0  0  0  0  0  0  0
    8.2351  -13.6111   26.3997 C   0  0  0  0  0  0  0  0  0  0  0  0
    8.8620  -16.4277   25.1436 C   0  0  0  0  0  0  0  0  0  0  0  0
    8.0359  -17.4052   25.2484 O   0  0  0  0  0  0  0  0  0  0  0  0
    9.9763  -16.4316   26.0009 N   0  0  0  0  0  0  0  0  0  0  0  0
   10.3932  -17.6903   26.6454 C   0  0  1  0  0  0  0  0  0  0  0  0
   11.6653  -18.1509   26.0164 C   0  0  0  0  0  0  0  0  0  0  0  0
   12.3469  -19.3041   26.6119 C   0  0  0  0  0  0  0  0  0  0  0  0
   13.6058  -19.7493   26.0345 C   0  0  0  0  0  0  0  0  0  0  0  0
   14.0779  -19.1347   25.0232 O   0  0  0  0  0  0  0  0  0  0  0  0
   10.3582  -17.4985   28.0761 C   0  0  0  0  0  0  0  0  0  0  0  0
   10.2622  -16.2293   28.6380 O   0  0  0  0  0  0  0  0  0  0  0  0
   14.3667  -20.8170   26.5052 O   0  0  0  0  0  0  0  0  0  0  0  0
   10.4183  -18.4455   28.9113 O   0  0  0  0  0  0  0  0  0  0  0  0
  2  1  1  0
  3  2  2  0
  4  3  1  0
  5 11  1  0
  5  4  2  0
  6  5  1  0
  7  6  1  0
  7  8  1  6
  9  7  1  0
  9 10  2  0
 11 12  2  0
 12  2  1  0
 13  9  1  0
 14 13  1  0
 14 15  1  1
 16 15  1  0
 16 17  2  0
 18 17  1  0
 19 18  2  0
 20 21  2  0
 20 19  1  0
 21 16  1  0
 22 14  1  0
 23 22  2  0
 24 22  1  0
 25 24  1  0
 25 26  1  6
 26 27  1  0
 27 28  1  0
 28 32  1  0
 28 29  2  0
 30 31  1  0
 30 25  1  0
 33 30  2  0
M  END
$$$$
