YFE.pdb
     RDKit          3D

 33 34  0  0  1  0  0  0  0  0999 V2000
    9.1811  -19.3041   30.0563 O   0  0  0  0  0  0  0  0  0  0  0  0
    8.6979  -19.7469   28.8293 C   0  0  0  0  0  0  0  0  0  0  0  0
    7.6948  -20.6991   28.7786 C   0  0  0  0  0  0  0  0  0  0  0  0
    7.2498  -21.1056   27.5504 C   0  0  0  0  0  0  0  0  0  0  0  0
    7.7413  -20.6231   26.3529 C   0  0  0  0  0  0  0  0  0  0  0  0
    7.2484  -21.0741   25.0429 C   0  0  0  0  0  0  0  0  0  0  0  0
    6.1705  -20.1325   24.5491 C   0  0  2  0  0  0  0  0  0  0  0  0
    5.6908  -20.6719   23.2884 N   0  0  0  0  0  0  0  0  0  0  0  0
    6.6828  -18.7788   24.2943 C   0  0  0  0  0  0  0  0  0  0  0  0
    7.3637  -18.5700   23.2606 O   0  0  0  0  0  0  0  0  0  0  0  0
    8.7489  -19.6672   26.4436 C   0  0  0  0  0  0  0  0  0  0  0  0
    9.2281  -19.2281   27.6657 C   0  0  0  0  0  0  0  0  0  0  0  0
    6.4529  -17.6788   25.1546 N   0  0  0  0  0  0  0  0  0  0  0  0
    6.9420  -16.3324   24.7857 C   0  0  1  0  0  0  0  0  0  0  0  0
    6.2022  -15.3944   25.6543 C   0  0  0  0  0  0  0  0  0  0  0  0
    6.5918  -14.0055   25.7062 C   0  0  0  0  0  0  0  0  0  0  0  0
    6.4957  -13.2904   26.8768 C   0  0  0  0  0  0  0  0  0  0  0  0
    6.8699  -11.9439   26.9401 C   0  0  0  0  0  0  0  0  0  0  0  0
    7.3458  -11.3023   25.8224 C   0  0  0  0  0  0  0  0  0  0  0  0
    7.4469  -12.0087   24.6419 C   0  0  0  0  0  0  0  0  0  0  0  0
    7.0706  -13.3399   24.6038 C   0  0  0  0  0  0  0  0  0  0  0  0
    8.4120  -16.3541   24.9443 C   0  0  0  0  0  0  0  0  0  0  0  0
    8.8683  -16.5744   26.1242 O   0  0  0  0  0  0  0  0  0  0  0  0
    9.3514  -16.1598   23.9165 N   0  0  0  0  0  0  0  0  0  0  0  0
   10.7874  -16.1022   24.2455 C   0  0  1  0  0  0  0  0  0  0  0  0
   11.1748  -17.3757   24.9196 C   0  0  0  0  0  0  0  0  0  0  0  0
   12.5947  -17.5928   25.2120 C   0  0  0  0  0  0  0  0  0  0  0  0
   12.9955  -18.8323   25.8598 C   0  0  0  0  0  0  0  0  0  0  0  0
   12.1163  -19.7243   26.0934 O   0  0  0  0  0  0  0  0  0  0  0  0
   11.5068  -15.6999   23.0600 C   0  0  0  0  0  0  0  0  0  0  0  0
   10.8647  -15.5504   21.8347 O   0  0  0  0  0  0  0  0  0  0  0  0
   14.2946  -19.1425   26.2555 O   0  0  0  0  0  0  0  0  0  0  0  0
   12.7488  -15.4647   23.0404 O   0  0  0  0  0  0  0  0  0  0  0  0
  2  1  1  0
  3  2  2  0
  4  3  1  0
  5 11  1  0
  5  4  2  0
  6  5  1  0
  7  6  1  0
  7  8  1  6
  9  7  1  0
  9 10  2  0
 11 12  2  0
 12  2  1  0
 13  9  1  0
 14 13  1  0
 14 15  1  1
 16 15  1  0
 16 17  2  0
 18 17  1  0
 19 18  2  0
 20 21  2  0
 20 19  1  0
 21 16  1  0
 22 14  1  0
 23 22  2  0
 24 22  1  0
 25 24  1  0
 25 26  1  6
 26 27  1  0
 27 28  1  0
 28 32  1  0
 28 29  2  0
 30 31  1  0
 30 25  1  0
 33 30  2  0
M  END
$$$$
