YFE.pdb
     RDKit          3D

 33 34  0  0  1  0  0  0  0  0999 V2000
    6.5643  -18.9384   14.4788 O   0  0  0  0  0  0  0  0  0  0  0  0
    6.9795  -18.5970   15.7618 C   0  0  0  0  0  0  0  0  0  0  0  0
    6.7243  -19.4455   16.8251 C   0  0  0  0  0  0  0  0  0  0  0  0
    7.1506  -19.0698   18.0695 C   0  0  0  0  0  0  0  0  0  0  0  0
    7.8225  -17.8916   18.3322 C   0  0  0  0  0  0  0  0  0  0  0  0
    8.2721  -17.5070   19.6786 C   0  0  0  0  0  0  0  0  0  0  0  0
    8.8480  -16.1072   19.6460 C   0  0  2  0  0  0  0  0  0  0  0  0
   10.1193  -16.1952   18.9486 N   0  0  0  0  0  0  0  0  0  0  0  0
    9.1080  -15.5769   20.9919 C   0  0  0  0  0  0  0  0  0  0  0  0
   10.2572  -15.6977   21.4823 O   0  0  0  0  0  0  0  0  0  0  0  0
    8.0609  -17.0642   17.2388 C   0  0  0  0  0  0  0  0  0  0  0  0
    7.6469  -17.4060   15.9630 C   0  0  0  0  0  0  0  0  0  0  0  0
    8.1288  -14.9285   21.7816 N   0  0  0  0  0  0  0  0  0  0  0  0
    8.4617  -14.4680   23.1473 C   0  0  1  0  0  0  0  0  0  0  0  0
    7.4926  -13.3941   23.4466 C   0  0  0  0  0  0  0  0  0  0  0  0
    7.4332  -12.8310   24.7744 C   0  0  0  0  0  0  0  0  0  0  0  0
    6.3199  -13.0030   25.5629 C   0  0  0  0  0  0  0  0  0  0  0  0
    6.2499  -12.4623   26.8513 C   0  0  0  0  0  0  0  0  0  0  0  0
    7.3028  -11.7413   27.3598 C   0  0  0  0  0  0  0  0  0  0  0  0
    8.4254  -11.5616   26.5785 C   0  0  0  0  0  0  0  0  0  0  0  0
    8.4715  -12.1060   25.3071 C   0  0  0  0  0  0  0  0  0  0  0  0
    8.4138  -15.6586   24.0228 C   0  0  0  0  0  0  0  0  0  0  0  0
    7.6961  -16.6465   23.6253 O   0  0  0  0  0  0  0  0  0  0  0  0
    9.0884  -15.8045   25.2477 N   0  0  0  0  0  0  0  0  0  0  0  0
    9.6389  -17.1200   25.6221 C   0  0  1  0  0  0  0  0  0  0  0  0
   10.6438  -17.5269   24.5972 C   0  0  0  0  0  0  0  0  0  0  0  0
   11.4629  -18.7113   24.8718 C   0  0  0  0  0  0  0  0  0  0  0  0
   12.5174  -19.0670   23.9347 C   0  0  0  0  0  0  0  0  0  0  0  0
   13.5985  -19.5742   24.3786 O   0  0  0  0  0  0  0  0  0  0  0  0
   10.0463  -17.0618   27.0061 C   0  0  0  0  0  0  0  0  0  0  0  0
   10.2887  -18.2172   27.7426 O   0  0  0  0  0  0  0  0  0  0  0  0
   12.4470  -18.9019   22.5533 O   0  0  0  0  0  0  0  0  0  0  0  0
   10.2040  -15.9824   27.6451 O   0  0  0  0  0  0  0  0  0  0  0  0
  2  1  1  0
  3  2  2  0
  4  3  1  0
  5 11  1  0
  5  4  2  0
  6  5  1  0
  7  6  1  0
  7  8  1  6
  9  7  1  0
  9 10  2  0
 11 12  2  0
 12  2  1  0
 13  9  1  0
 14 13  1  0
 14 15  1  1
 16 15  1  0
 16 17  2  0
 18 17  1  0
 19 18  2  0
 20 21  2  0
 20 19  1  0
 21 16  1  0
 22 14  1  0
 23 22  2  0
 24 22  1  0
 25 24  1  0
 25 26  1  6
 26 27  1  0
 27 28  1  0
 28 32  1  0
 28 29  2  0
 30 31  1  0
 30 25  1  0
 33 30  2  0
M  END
$$$$
