YFE.pdb
     RDKit          3D

 33 34  0  0  1  0  0  0  0  0999 V2000
    7.0425  -12.0633   18.3009 O   0  0  0  0  0  0  0  0  0  0  0  0
    7.8792  -13.1325   18.6040 C   0  0  0  0  0  0  0  0  0  0  0  0
    7.4673  -14.4306   18.3575 C   0  0  0  0  0  0  0  0  0  0  0  0
    8.3224  -15.4514   18.6711 C   0  0  0  0  0  0  0  0  0  0  0  0
    9.5763  -15.2667   19.2205 C   0  0  0  0  0  0  0  0  0  0  0  0
   10.4801  -16.3790   19.5500 C   0  0  0  0  0  0  0  0  0  0  0  0
    9.9134  -17.1739   20.7073 C   0  0  2  0  0  0  0  0  0  0  0  0
    8.5420  -17.5009   20.3569 N   0  0  0  0  0  0  0  0  0  0  0  0
    9.8873  -16.4021   21.9577 C   0  0  0  0  0  0  0  0  0  0  0  0
   10.9728  -16.0289   22.4657 O   0  0  0  0  0  0  0  0  0  0  0  0
    9.9558  -13.9482   19.4540 C   0  0  0  0  0  0  0  0  0  0  0  0
    9.1216  -12.8859   19.1517 C   0  0  0  0  0  0  0  0  0  0  0  0
    8.6965  -16.0477   22.6354 N   0  0  0  0  0  0  0  0  0  0  0  0
    8.7624  -15.3308   23.9276 C   0  0  1  0  0  0  0  0  0  0  0  0
    7.6275  -14.3855   23.9104 C   0  0  0  0  0  0  0  0  0  0  0  0
    7.3554  -13.5702   25.0700 C   0  0  0  0  0  0  0  0  0  0  0  0
    6.2903  -13.8502   25.8935 C   0  0  0  0  0  0  0  0  0  0  0  0
    6.0159  -13.0676   27.0202 C   0  0  0  0  0  0  0  0  0  0  0  0
    6.8132  -11.9926   27.3298 C   0  0  0  0  0  0  0  0  0  0  0  0
    7.8849  -11.7013   26.5115 C   0  0  0  0  0  0  0  0  0  0  0  0
    8.1364  -12.4899   25.4025 C   0  0  0  0  0  0  0  0  0  0  0  0
    8.7435  -16.3606   24.9886 C   0  0  0  0  0  0  0  0  0  0  0  0
    8.0668  -17.4266   24.7549 O   0  0  0  0  0  0  0  0  0  0  0  0
    9.4050  -16.2761   26.2263 N   0  0  0  0  0  0  0  0  0  0  0  0
   10.0245  -17.4831   26.8033 C   0  0  1  0  0  0  0  0  0  0  0  0
   10.9337  -18.0866   25.7859 C   0  0  0  0  0  0  0  0  0  0  0  0
   11.7086  -19.2690   26.1737 C   0  0  0  0  0  0  0  0  0  0  0  0
   12.6639  -19.8228   25.2264 C   0  0  0  0  0  0  0  0  0  0  0  0
   13.8918  -19.9030   25.5568 O   0  0  0  0  0  0  0  0  0  0  0  0
   10.5649  -17.1391   28.0973 C   0  0  0  0  0  0  0  0  0  0  0  0
   10.9986  -18.1160   28.9880 O   0  0  0  0  0  0  0  0  0  0  0  0
   12.3461  -20.2914   23.9537 O   0  0  0  0  0  0  0  0  0  0  0  0
   10.6771  -15.9516   28.5162 O   0  0  0  0  0  0  0  0  0  0  0  0
  2  1  1  0
  3  2  2  0
  4  3  1  0
  5 11  1  0
  5  4  2  0
  6  5  1  0
  7  6  1  0
  7  8  1  6
  9  7  1  0
  9 10  2  0
 11 12  2  0
 12  2  1  0
 13  9  1  0
 14 13  1  0
 14 15  1  1
 16 15  1  0
 16 17  2  0
 18 17  1  0
 19 18  2  0
 20 21  2  0
 20 19  1  0
 21 16  1  0
 22 14  1  0
 23 22  2  0
 24 22  1  0
 25 24  1  0
 25 26  1  6
 26 27  1  0
 27 28  1  0
 28 32  1  0
 28 29  2  0
 30 31  1  0
 30 25  1  0
 33 30  2  0
M  END
$$$$
