YFE.pdb
     RDKit          3D

 33 34  0  0  1  0  0  0  0  0999 V2000
    8.1826  -13.0673   16.2375 O   0  0  0  0  0  0  0  0  0  0  0  0
    7.8318  -13.3644   17.5504 C   0  0  0  0  0  0  0  0  0  0  0  0
    8.4315  -12.6916   18.6007 C   0  0  0  0  0  0  0  0  0  0  0  0
    8.0562  -13.0160   19.8757 C   0  0  0  0  0  0  0  0  0  0  0  0
    7.1121  -13.9771   20.1814 C   0  0  0  0  0  0  0  0  0  0  0  0
    6.7233  -14.3103   21.5599 C   0  0  0  0  0  0  0  0  0  0  0  0
    7.4404  -15.5672   22.0050 C   0  0  2  0  0  0  0  0  0  0  0  0
    6.9278  -16.6521   21.1860 N   0  0  0  0  0  0  0  0  0  0  0  0
    7.1707  -15.8981   23.4114 C   0  0  0  0  0  0  0  0  0  0  0  0
    6.0717  -15.5618   23.9160 O   0  0  0  0  0  0  0  0  0  0  0  0
    6.5309  -14.6324   19.0998 C   0  0  0  0  0  0  0  0  0  0  0  0
    6.8816  -14.3350   17.7942 C   0  0  0  0  0  0  0  0  0  0  0  0
    8.0867  -16.5827   24.2451 N   0  0  0  0  0  0  0  0  0  0  0  0
    8.9607  -15.8255   25.1675 C   0  0  1  0  0  0  0  0  0  0  0  0
    8.1049  -15.4732   26.3187 C   0  0  0  0  0  0  0  0  0  0  0  0
    7.6237  -14.1204   26.4675 C   0  0  0  0  0  0  0  0  0  0  0  0
    6.2878  -13.8284   26.3229 C   0  0  0  0  0  0  0  0  0  0  0  0
    5.8090  -12.5215   26.4645 C   0  0  0  0  0  0  0  0  0  0  0  0
    6.6727  -11.4932   26.7538 C   0  0  0  0  0  0  0  0  0  0  0  0
    8.0154  -11.7732   26.9012 C   0  0  0  0  0  0  0  0  0  0  0  0
    8.4655  -13.0738   26.7565 C   0  0  0  0  0  0  0  0  0  0  0  0
   10.1266  -16.6882   25.4556 C   0  0  0  0  0  0  0  0  0  0  0  0
    9.8963  -17.9383   25.6382 O   0  0  0  0  0  0  0  0  0  0  0  0
   11.4630  -16.2603   25.5417 N   0  0  0  0  0  0  0  0  0  0  0  0
   12.5505  -17.2058   25.2304 C   0  0  1  0  0  0  0  0  0  0  0  0
   13.5960  -16.4896   24.4432 C   0  0  0  0  0  0  0  0  0  0  0  0
   14.8720  -17.1740   24.2148 C   0  0  0  0  0  0  0  0  0  0  0  0
   15.9111  -16.4875   23.4626 C   0  0  0  0  0  0  0  0  0  0  0  0
   17.0502  -17.0420   23.3276 O   0  0  0  0  0  0  0  0  0  0  0  0
   12.9376  -17.8678   26.4539 C   0  0  0  0  0  0  0  0  0  0  0  0
   13.6401  -19.0687   26.4408 O   0  0  0  0  0  0  0  0  0  0  0  0
   15.7663  -15.2426   22.8547 O   0  0  0  0  0  0  0  0  0  0  0  0
   12.6686  -17.4230   27.6063 O   0  0  0  0  0  0  0  0  0  0  0  0
  2  1  1  0
  3  2  2  0
  4  3  1  0
  5 11  1  0
  5  4  2  0
  6  5  1  0
  7  6  1  0
  7  8  1  6
  9  7  1  0
  9 10  2  0
 11 12  2  0
 12  2  1  0
 13  9  1  0
 14 13  1  0
 14 15  1  1
 16 15  1  0
 16 17  2  0
 18 17  1  0
 19 18  2  0
 20 21  2  0
 20 19  1  0
 21 16  1  0
 22 14  1  0
 23 22  2  0
 24 22  1  0
 25 24  1  0
 25 26  1  1
 26 27  1  0
 27 28  1  0
 28 32  1  0
 28 29  2  0
 30 31  1  0
 30 25  1  0
 33 30  2  0
M  END
$$$$
