YFE.pdb
     RDKit          3D

 33 34  0  0  1  0  0  0  0  0999 V2000
    6.8995  -21.9350   16.2701 O   0  0  0  0  0  0  0  0  0  0  0  0
    7.3214  -21.1104   17.3080 C   0  0  0  0  0  0  0  0  0  0  0  0
    6.7074  -21.1803   18.5464 C   0  0  0  0  0  0  0  0  0  0  0  0
    7.1545  -20.3508   19.5382 C   0  0  0  0  0  0  0  0  0  0  0  0
    8.1848  -19.4443   19.3802 C   0  0  0  0  0  0  0  0  0  0  0  0
    8.6500  -18.5615   20.4605 C   0  0  0  0  0  0  0  0  0  0  0  0
    8.2642  -17.1299   20.1542 C   0  0  2  0  0  0  0  0  0  0  0  0
    8.9980  -16.7464   18.9605 N   0  0  0  0  0  0  0  0  0  0  0  0
    8.6420  -16.2049   21.2321 C   0  0  0  0  0  0  0  0  0  0  0  0
    9.8349  -15.8233   21.3167 O   0  0  0  0  0  0  0  0  0  0  0  0
    8.7779  -19.4025   18.1218 C   0  0  0  0  0  0  0  0  0  0  0  0
    8.3564  -20.2239   17.0905 C   0  0  0  0  0  0  0  0  0  0  0  0
    7.7310  -15.7099   22.1953 N   0  0  0  0  0  0  0  0  0  0  0  0
    8.2109  -14.8477   23.2974 C   0  0  1  0  0  0  0  0  0  0  0  0
    7.0101  -14.1517   23.8028 C   0  0  0  0  0  0  0  0  0  0  0  0
    7.0611  -13.4607   25.0690 C   0  0  0  0  0  0  0  0  0  0  0  0
    6.4475  -13.9848   26.1824 C   0  0  0  0  0  0  0  0  0  0  0  0
    6.4896  -13.3248   27.4152 C   0  0  0  0  0  0  0  0  0  0  0  0
    7.1515  -12.1275   27.5395 C   0  0  0  0  0  0  0  0  0  0  0  0
    7.7711  -11.5912   26.4298 C   0  0  0  0  0  0  0  0  0  0  0  0
    7.7159  -12.2625   25.2209 C   0  0  0  0  0  0  0  0  0  0  0  0
    8.9108  -15.7299   24.2557 C   0  0  0  0  0  0  0  0  0  0  0  0
    8.4049  -16.8934   24.4542 O   0  0  0  0  0  0  0  0  0  0  0  0
   10.0824  -15.4079   24.9631 N   0  0  0  0  0  0  0  0  0  0  0  0
   10.9783  -16.4878   25.4155 C   0  0  1  0  0  0  0  0  0  0  0  0
   12.3679  -16.1731   24.9727 C   0  0  0  0  0  0  0  0  0  0  0  0
   13.4468  -17.0610   25.4159 C   0  0  0  0  0  0  0  0  0  0  0  0
   14.8157  -16.7428   25.0398 C   0  0  0  0  0  0  0  0  0  0  0  0
   15.0355  -15.7438   24.2802 O   0  0  0  0  0  0  0  0  0  0  0  0
   10.7348  -16.7181   26.8200 C   0  0  0  0  0  0  0  0  0  0  0  0
   10.3302  -15.6907   27.6665 O   0  0  0  0  0  0  0  0  0  0  0  0
   15.9421  -17.4513   25.4516 O   0  0  0  0  0  0  0  0  0  0  0  0
   10.8741  -17.8430   27.3797 O   0  0  0  0  0  0  0  0  0  0  0  0
  2  1  1  0
  3  2  2  0
  4  3  1  0
  5 11  1  0
  5  4  2  0
  6  5  1  0
  7  6  1  0
  7  8  1  6
  9  7  1  0
  9 10  2  0
 11 12  2  0
 12  2  1  0
 13  9  1  0
 14 13  1  0
 14 15  1  1
 16 15  1  0
 16 17  2  0
 18 17  1  0
 19 18  2  0
 20 21  2  0
 20 19  1  0
 21 16  1  0
 22 14  1  0
 23 22  2  0
 24 22  1  0
 25 24  1  0
 25 26  1  1
 26 27  1  0
 27 28  1  0
 28 32  1  0
 28 29  2  0
 30 31  1  0
 30 25  1  0
 33 30  2  0
M  END
$$$$
