AQT.pdb
     RDKit          3D

 22 21  0  0  1  0  0  0  0  0999 V2000
   15.5403   -7.0884   -7.3862 C   0  0  0  0  0  0  0  0  0  0  0  0
   14.6398   -7.0785   -8.5869 C   0  0  2  0  0  0  0  0  0  0  0  0
   13.6011   -8.1006   -8.4300 N   0  0  0  0  0  0  0  0  0  0  0  0
   15.3728   -7.3262   -9.8519 C   0  0  0  0  0  0  0  0  0  0  0  0
   15.3992   -8.5108  -10.2894 O   0  0  0  0  0  0  0  0  0  0  0  0
   14.1901   -6.7107  -14.8327 N   0  0  0  0  0  0  0  0  0  0  0  0
   15.5210   -6.5030  -15.2864 C   0  0  0  0  0  0  0  0  0  0  0  0
   15.7927   -6.8067  -16.4742 O   0  0  0  0  0  0  0  0  0  0  0  0
   16.5090   -5.9421  -14.3367 C   0  0  0  0  0  0  0  0  0  0  0  0
   15.9570   -5.7383  -12.9671 C   0  0  0  0  0  0  0  0  0  0  0  0
   16.6275   -6.5208  -11.8842 C   0  0  2  0  0  0  0  0  0  0  0  0
   16.0376   -6.3098  -10.5853 N   0  0  0  0  0  0  0  0  0  0  0  0
   18.0748   -6.0996  -11.8893 C   0  0  0  0  0  0  0  0  0  0  0  0
   18.4392   -5.1566  -11.1421 O   0  0  0  0  0  0  0  0  0  0  0  0
   22.7175   -6.4741  -13.5756 C   0  0  0  0  0  0  0  0  0  0  0  0
   21.3303   -7.0243  -13.5203 C   0  0  1  0  0  0  0  0  0  0  0  0
   21.3563   -8.2304  -12.8218 O   0  0  0  0  0  0  0  0  0  0  0  0
   20.3477   -6.1173  -12.8260 C   0  0  2  0  0  0  0  0  0  0  0  0
   19.0387   -6.7207  -12.6989 N   0  0  0  0  0  0  0  0  0  0  0  0
   20.2835   -4.8392  -13.5936 C   0  0  0  0  0  0  0  0  0  0  0  0
   21.1505   -3.8173  -13.3158 O   0  0  0  0  0  0  0  0  0  0  0  0
   19.4308   -4.6883  -14.5047 O   0  0  0  0  0  0  0  0  0  0  0  0
  2  1  1  1
  2  4  1  0
  3  2  1  0
  4  5  2  0
  6  7  1  0
  7  8  2  0
  7  9  1  0
  9 10  1  0
 11 10  1  6
 11 13  1  0
 12 11  1  0
 12  4  1  0
 13 19  1  0
 14 13  2  0
 16 15  1  1
 16 17  1  0
 18 16  1  0
 18 19  1  6
 20 18  1  0
 21 20  1  0
 22 20  2  0
M  END
$$$$
