AQT.pdb
     RDKit          3D

 22 21  0  0  1  0  0  0  0  0999 V2000
   16.8298  -11.3998  -14.1103 C   0  0  0  0  0  0  0  0  0  0  0  0
   15.7890  -10.6179  -13.3633 C   0  0  2  0  0  0  0  0  0  0  0  0
   14.5626  -10.5445  -14.1625 N   0  0  0  0  0  0  0  0  0  0  0  0
   16.2347   -9.2417  -13.0366 C   0  0  0  0  0  0  0  0  0  0  0  0
   16.1957   -8.3806  -13.9596 O   0  0  0  0  0  0  0  0  0  0  0  0
   15.6577   -6.5046   -7.5084 N   0  0  0  0  0  0  0  0  0  0  0  0
   14.6697   -6.5120   -8.5302 C   0  0  0  0  0  0  0  0  0  0  0  0
   13.4893   -6.2269   -8.2105 O   0  0  0  0  0  0  0  0  0  0  0  0
   15.0861   -6.8540   -9.9095 C   0  0  0  0  0  0  0  0  0  0  0  0
   16.5492   -7.1098  -10.0349 C   0  0  0  0  0  0  0  0  0  0  0  0
   17.0174   -7.4891  -11.4030 C   0  0  2  0  0  0  0  0  0  0  0  0
   16.6969   -8.8507  -11.7535 N   0  0  0  0  0  0  0  0  0  0  0  0
   18.5085   -7.2696  -11.4179 C   0  0  0  0  0  0  0  0  0  0  0  0
   19.2481   -8.0550  -10.7725 O   0  0  0  0  0  0  0  0  0  0  0  0
   20.3270   -7.1822  -14.6109 C   0  0  0  0  0  0  0  0  0  0  0  0
   21.0028   -7.2669  -13.2819 C   0  0  1  0  0  0  0  0  0  0  0  0
   22.3744   -7.1014  -13.4675 O   0  0  0  0  0  0  0  0  0  0  0  0
   20.5457   -6.2161  -12.3035 C   0  0  2  0  0  0  0  0  0  0  0  0
   19.1094   -6.2178  -12.1272 N   0  0  0  0  0  0  0  0  0  0  0  0
   21.0303   -4.8927  -12.7939 C   0  0  0  0  0  0  0  0  0  0  0  0
   22.3674   -4.6006  -12.7992 O   0  0  0  0  0  0  0  0  0  0  0  0
   20.2137   -4.0315  -13.2077 O   0  0  0  0  0  0  0  0  0  0  0  0
  2  1  1  6
  2  4  1  0
  3  2  1  0
  4  5  2  0
  6  7  1  0
  7  8  2  0
  7  9  1  0
  9 10  1  0
 11 10  1  1
 11 13  1  0
 12 11  1  0
 12  4  1  0
 13 19  1  0
 14 13  2  0
 16 15  1  6
 16 17  1  0
 18 16  1  0
 18 19  1  6
 20 18  1  0
 21 20  1  0
 22 20  2  0
M  END
$$$$
