AQT.pdb
     RDKit          3D

 22 21  0  0  1  0  0  0  0  0999 V2000
   27.8348  -19.2491  -16.3961 C   0  0  0  0  0  0  0  0  0  0  0  0
   28.2117  -20.5200  -15.6920 C   0  0  2  0  0  0  0  0  0  0  0  0
   28.5470  -21.5483  -16.6812 N   0  0  0  0  0  0  0  0  0  0  0  0
   27.1295  -21.0290  -14.8152 C   0  0  0  0  0  0  0  0  0  0  0  0
   26.3306  -21.8758  -15.3050 O   0  0  0  0  0  0  0  0  0  0  0  0
   26.1722  -19.8250   -8.5948 N   0  0  0  0  0  0  0  0  0  0  0  0
   25.1946  -20.8204   -8.8663 C   0  0  0  0  0  0  0  0  0  0  0  0
   24.5182  -21.2599   -7.9040 O   0  0  0  0  0  0  0  0  0  0  0  0
   25.0289  -21.2815  -10.2637 C   0  0  0  0  0  0  0  0  0  0  0  0
   26.0513  -20.7209  -11.1923 C   0  0  0  0  0  0  0  0  0  0  0  0
   25.8679  -21.0729  -12.6336 C   0  0  2  0  0  0  0  0  0  0  0  0
   26.9503  -20.6160  -13.4698 N   0  0  0  0  0  0  0  0  0  0  0  0
   24.5630  -20.4507  -13.0603 C   0  0  0  0  0  0  0  0  0  0  0  0
   24.4728  -19.1980  -13.1161 O   0  0  0  0  0  0  0  0  0  0  0  0
   22.7963  -20.2816  -16.2128 C   0  0  0  0  0  0  0  0  0  0  0  0
   21.8307  -20.8274  -15.2129 C   0  0  1  0  0  0  0  0  0  0  0  0
   21.7662  -22.2117  -15.3645 O   0  0  0  0  0  0  0  0  0  0  0  0
   22.2153  -20.5433  -13.7841 C   0  0  2  0  0  0  0  0  0  0  0  0
   23.4370  -21.2170  -13.4001 N   0  0  0  0  0  0  0  0  0  0  0  0
   21.0743  -20.9516  -12.9133 C   0  0  0  0  0  0  0  0  0  0  0  0
   19.8709  -20.3047  -12.9958 O   0  0  0  0  0  0  0  0  0  0  0  0
   21.2073  -21.8953  -12.0939 O   0  0  0  0  0  0  0  0  0  0  0  0
  2  1  1  6
  2  4  1  0
  3  2  1  0
  4  5  2  0
  6  7  1  0
  7  8  2  0
  7  9  1  0
  9 10  1  0
 11 10  1  1
 11 13  1  0
 12 11  1  0
 12  4  1  0
 13 19  1  0
 14 13  2  0
 16 15  1  6
 16 17  1  0
 18 16  1  0
 18 19  1  1
 20 18  1  0
 21 20  1  0
 22 20  2  0
M  END
$$$$
