AQT.pdb
     RDKit          3D

 22 21  0  0  1  0  0  0  0  0999 V2000
   26.0378  -13.1628  -15.3225 C   0  0  0  0  0  0  0  0  0  0  0  0
   24.7285  -13.8778  -15.4872 C   0  0  2  0  0  0  0  0  0  0  0  0
   24.9209  -15.0691  -16.3191 N   0  0  0  0  0  0  0  0  0  0  0  0
   23.6851  -13.0229  -16.1032 C   0  0  0  0  0  0  0  0  0  0  0  0
   23.6901  -12.9101  -17.3612 O   0  0  0  0  0  0  0  0  0  0  0  0
   17.7397  -12.3199  -14.7501 N   0  0  0  0  0  0  0  0  0  0  0  0
   17.8896  -11.2826  -15.7102 C   0  0  0  0  0  0  0  0  0  0  0  0
   16.8514  -10.7178  -16.1343 O   0  0  0  0  0  0  0  0  0  0  0  0
   19.2567  -10.9272  -16.1547 C   0  0  0  0  0  0  0  0  0  0  0  0
   20.3106  -11.8065  -15.5732 C   0  0  0  0  0  0  0  0  0  0  0  0
   21.7143  -11.4589  -15.9519 C   0  0  2  0  0  0  0  0  0  0  0  0
   22.6940  -12.3342  -15.3573 N   0  0  0  0  0  0  0  0  0  0  0  0
   21.9328  -10.0339  -15.5117 C   0  0  0  0  0  0  0  0  0  0  0  0
   22.3599   -9.8119  -14.3504 O   0  0  0  0  0  0  0  0  0  0  0  0
   22.0764   -5.1691  -16.4693 C   0  0  0  0  0  0  0  0  0  0  0  0
   21.8226   -6.5618  -16.9448 C   0  0  1  0  0  0  0  0  0  0  0  0
   22.7653   -6.8784  -17.9217 O   0  0  0  0  0  0  0  0  0  0  0  0
   21.9272   -7.5999  -15.8578 C   0  0  2  0  0  0  0  0  0  0  0  0
   21.6775   -8.9375  -16.3502 N   0  0  0  0  0  0  0  0  0  0  0  0
   20.9650   -7.2309  -14.7785 C   0  0  0  0  0  0  0  0  0  0  0  0
   21.4112   -6.6769  -13.6092 O   0  0  0  0  0  0  0  0  0  0  0  0
   19.7329   -7.4256  -14.9329 O   0  0  0  0  0  0  0  0  0  0  0  0
  2  1  1  6
  2  4  1  0
  3  2  1  0
  4  5  2  0
  6  7  1  0
  7  8  2  0
  7  9  1  0
  9 10  1  0
 11 10  1  1
 11 13  1  0
 12 11  1  0
 12  4  1  0
 13 19  1  0
 14 13  2  0
 16 15  1  1
 16 17  1  0
 18 16  1  0
 18 19  1  6
 20 18  1  0
 21 20  1  0
 22 20  2  0
M  END
$$$$
