AQT.pdb
     RDKit          3D

 22 21  0  0  1  0  0  0  0  0999 V2000
   10.6122  -11.3017  -10.6880 C   0  0  0  0  0  0  0  0  0  0  0  0
   11.6077  -12.0461  -11.5292 C   0  0  2  0  0  0  0  0  0  0  0  0
   11.5368  -13.4775  -11.2222 N   0  0  0  0  0  0  0  0  0  0  0  0
   12.9982  -11.5759  -11.3178 C   0  0  0  0  0  0  0  0  0  0  0  0
   13.6890  -12.1701  -10.4433 O   0  0  0  0  0  0  0  0  0  0  0  0
   17.4984  -10.7743  -15.2300 N   0  0  0  0  0  0  0  0  0  0  0  0
   16.8758  -11.9294  -14.6839 C   0  0  0  0  0  0  0  0  0  0  0  0
   17.1386  -13.0418  -15.2037 O   0  0  0  0  0  0  0  0  0  0  0  0
   15.9557  -11.7571  -13.5365 C   0  0  0  0  0  0  0  0  0  0  0  0
   15.7623  -10.3311  -13.1478 C   0  0  0  0  0  0  0  0  0  0  0  0
   14.9627  -10.1098  -11.9042 C   0  0  2  0  0  0  0  0  0  0  0  0
   13.5825  -10.5045  -12.0413 N   0  0  0  0  0  0  0  0  0  0  0  0
   15.0698   -8.6404  -11.5860 C   0  0  0  0  0  0  0  0  0  0  0  0
   14.2001   -7.8526  -12.0369 O   0  0  0  0  0  0  0  0  0  0  0  0
   15.1216   -6.9315   -8.1096 C   0  0  0  0  0  0  0  0  0  0  0  0
   16.2838   -6.5135   -8.9490 C   0  0  1  0  0  0  0  0  0  0  0  0
   17.3953   -7.2699   -8.5804 O   0  0  0  0  0  0  0  0  0  0  0  0
   16.0657   -6.7149  -10.4262 C   0  0  2  0  0  0  0  0  0  0  0  0
   16.1072   -8.1117  -10.8018 N   0  0  0  0  0  0  0  0  0  0  0  0
   17.1032   -5.9267  -11.1536 C   0  0  0  0  0  0  0  0  0  0  0  0
   17.1596   -4.5654  -11.0238 O   0  0  0  0  0  0  0  0  0  0  0  0
   17.9372   -6.5063  -11.8941 O   0  0  0  0  0  0  0  0  0  0  0  0
  2  1  1  1
  2  4  1  0
  3  2  1  0
  4  5  2  0
  6  7  1  0
  7  8  2  0
  7  9  1  0
  9 10  1  0
 11 10  1  6
 11 13  1  0
 12 11  1  0
 12  4  1  0
 13 19  1  0
 14 13  2  0
 16 15  1  1
 16 17  1  0
 18 16  1  0
 18 19  1  1
 20 18  1  0
 21 20  1  0
 22 20  2  0
M  END
$$$$
