AQT.pdb
     RDKit          3D

 22 21  0  0  1  0  0  0  0  0999 V2000
   19.7012  -14.8098  -16.4092 C   0  0  0  0  0  0  0  0  0  0  0  0
   18.8144  -14.1155  -17.4013 C   0  0  2  0  0  0  0  0  0  0  0  0
   19.1241  -14.5902  -18.7530 N   0  0  0  0  0  0  0  0  0  0  0  0
   18.9609  -12.6403  -17.3630 C   0  0  0  0  0  0  0  0  0  0  0  0
   19.9171  -12.1313  -18.0123 O   0  0  0  0  0  0  0  0  0  0  0  0
   15.1445   -6.3706  -17.1270 N   0  0  0  0  0  0  0  0  0  0  0  0
   15.4044   -7.6500  -16.5651 C   0  0  0  0  0  0  0  0  0  0  0  0
   14.4697   -8.2277  -15.9575 O   0  0  0  0  0  0  0  0  0  0  0  0
   16.7580   -8.2282  -16.7274 C   0  0  0  0  0  0  0  0  0  0  0  0
   16.7879   -9.7092  -16.5609 C   0  0  0  0  0  0  0  0  0  0  0  0
   18.1296  -10.3455  -16.7341 C   0  0  2  0  0  0  0  0  0  0  0  0
   18.0898  -11.7840  -16.6413 N   0  0  0  0  0  0  0  0  0  0  0  0
   19.0168   -9.7646  -15.6629 C   0  0  0  0  0  0  0  0  0  0  0  0
   18.9171  -10.1964  -14.4865 O   0  0  0  0  0  0  0  0  0  0  0  0
   22.5117  -10.0303  -14.8060 C   0  0  0  0  0  0  0  0  0  0  0  0
   22.2158   -8.5780  -14.9885 C   0  0  1  0  0  0  0  0  0  0  0  0
   22.6072   -8.2009  -16.2722 O   0  0  0  0  0  0  0  0  0  0  0  0
   20.7562   -8.2352  -14.8386 C   0  0  2  0  0  0  0  0  0  0  0  0
   19.9557   -8.7549  -15.9263 N   0  0  0  0  0  0  0  0  0  0  0  0
   20.6424   -6.7505  -14.7427 C   0  0  0  0  0  0  0  0  0  0  0  0
   21.0900   -6.0894  -13.6310 O   0  0  0  0  0  0  0  0  0  0  0  0
   20.1333   -6.0910  -15.6838 O   0  0  0  0  0  0  0  0  0  0  0  0
  2  1  1  1
  2  4  1  0
  3  2  1  0
  4  5  2  0
  6  7  1  0
  7  8  2  0
  7  9  1  0
  9 10  1  0
 11 10  1  1
 11 13  1  0
 12 11  1  0
 12  4  1  0
 13 19  1  0
 14 13  2  0
 16 15  1  6
 16 17  1  0
 18 16  1  0
 18 19  1  6
 20 18  1  0
 21 20  1  0
 22 20  2  0
M  END
$$$$
