AQT.pdb
     RDKit          3D

 22 21  0  0  1  0  0  0  0  0999 V2000
   27.1795  -10.1626  -15.8418 C   0  0  0  0  0  0  0  0  0  0  0  0
   25.9257  -10.9839  -15.7627 C   0  0  2  0  0  0  0  0  0  0  0  0
   26.0359  -12.1359  -16.6620 N   0  0  0  0  0  0  0  0  0  0  0  0
   24.7126  -10.2087  -16.1185 C   0  0  0  0  0  0  0  0  0  0  0  0
   24.4562  -10.0559  -17.3457 O   0  0  0  0  0  0  0  0  0  0  0  0
   19.5314   -9.2802  -12.6357 N   0  0  0  0  0  0  0  0  0  0  0  0
   19.1562   -8.7478  -13.8991 C   0  0  0  0  0  0  0  0  0  0  0  0
   17.9462   -8.4687  -14.0850 O   0  0  0  0  0  0  0  0  0  0  0  0
   20.2095   -8.5525  -14.9215 C   0  0  0  0  0  0  0  0  0  0  0  0
   21.5306   -9.1128  -14.5182 C   0  0  0  0  0  0  0  0  0  0  0  0
   22.6364   -8.9179  -15.5051 C   0  0  2  0  0  0  0  0  0  0  0  0
   23.8370   -9.6378  -15.1591 N   0  0  0  0  0  0  0  0  0  0  0  0
   22.8993   -7.4348  -15.5613 C   0  0  0  0  0  0  0  0  0  0  0  0
   23.6770   -6.9198  -14.7185 O   0  0  0  0  0  0  0  0  0  0  0  0
   22.7363   -3.1000  -17.9166 C   0  0  0  0  0  0  0  0  0  0  0  0
   22.4071   -4.5561  -17.8761 C   0  0  1  0  0  0  0  0  0  0  0  0
   23.2150   -5.2219  -18.7967 O   0  0  0  0  0  0  0  0  0  0  0  0
   22.6352   -5.1899  -16.5283 C   0  0  2  0  0  0  0  0  0  0  0  0
   22.3079   -6.5994  -16.5220 N   0  0  0  0  0  0  0  0  0  0  0  0
   21.8223   -4.4400  -15.5265 C   0  0  0  0  0  0  0  0  0  0  0  0
   22.4038   -3.4916  -14.7293 O   0  0  0  0  0  0  0  0  0  0  0  0
   20.5931   -4.6724  -15.4048 O   0  0  0  0  0  0  0  0  0  0  0  0
  2  1  1  6
  2  4  1  0
  3  2  1  0
  4  5  2  0
  6  7  1  0
  7  8  2  0
  7  9  1  0
  9 10  1  0
 11 10  1  1
 11 13  1  0
 12 11  1  0
 12  4  1  0
 13 19  1  0
 14 13  2  0
 16 15  1  1
 16 17  1  0
 18 16  1  0
 18 19  1  6
 20 18  1  0
 21 20  1  0
 22 20  2  0
M  END
$$$$
