AQT.pdb
     RDKit          3D

 22 21  0  0  1  0  0  0  0  0999 V2000
   26.8654  -20.9849  -17.5520 C   0  0  0  0  0  0  0  0  0  0  0  0
   27.4149  -21.3888  -16.2150 C   0  0  2  0  0  0  0  0  0  0  0  0
   28.2938  -22.5505  -16.3761 N   0  0  0  0  0  0  0  0  0  0  0  0
   26.3505  -21.7213  -15.2374 C   0  0  0  0  0  0  0  0  0  0  0  0
   25.6042  -22.7061  -15.4990 O   0  0  0  0  0  0  0  0  0  0  0  0
   26.1647  -20.1939   -9.1139 N   0  0  0  0  0  0  0  0  0  0  0  0
   25.0163  -21.0212   -9.2438 C   0  0  0  0  0  0  0  0  0  0  0  0
   24.4434  -21.4031   -8.1937 O   0  0  0  0  0  0  0  0  0  0  0  0
   24.5613  -21.3851  -10.6052 C   0  0  0  0  0  0  0  0  0  0  0  0
   25.4752  -20.9012  -11.6788 C   0  0  0  0  0  0  0  0  0  0  0  0
   25.1319  -21.3516  -13.0623 C   0  0  2  0  0  0  0  0  0  0  0  0
   26.1326  -20.9959  -14.0378 N   0  0  0  0  0  0  0  0  0  0  0  0
   23.8069  -20.7171  -13.3993 C   0  0  0  0  0  0  0  0  0  0  0  0
   23.7520  -19.4734  -13.5741 O   0  0  0  0  0  0  0  0  0  0  0  0
   20.6012  -22.7276  -15.3473 C   0  0  0  0  0  0  0  0  0  0  0  0
   20.9552  -21.2772  -15.3154 C   0  0  1  0  0  0  0  0  0  0  0  0
   19.8280  -20.5350  -15.6647 O   0  0  0  0  0  0  0  0  0  0  0  0
   21.4153  -20.7971  -13.9634 C   0  0  2  0  0  0  0  0  0  0  0  0
   22.6241  -21.4622  -13.5268 N   0  0  0  0  0  0  0  0  0  0  0  0
   20.2987  -21.0123  -12.9971 C   0  0  0  0  0  0  0  0  0  0  0  0
   19.1058  -20.3608  -13.1572 O   0  0  0  0  0  0  0  0  0  0  0  0
   20.4431  -21.7955  -12.0247 O   0  0  0  0  0  0  0  0  0  0  0  0
  2  1  1  6
  2  4  1  0
  3  2  1  0
  4  5  2  0
  6  7  1  0
  7  8  2  0
  7  9  1  0
  9 10  1  0
 11 10  1  1
 11 13  1  0
 12 11  1  0
 12  4  1  0
 13 19  1  0
 14 13  2  0
 16 15  1  1
 16 17  1  0
 18 16  1  0
 18 19  1  1
 20 18  1  0
 21 20  1  0
 22 20  2  0
M  END
$$$$
