AQT.pdb
     RDKit          3D

 22 21  0  0  1  0  0  0  0  0999 V2000
   20.3389  -10.8997  -19.0981 C   0  0  0  0  0  0  0  0  0  0  0  0
   20.2364  -11.1099  -17.6156 C   0  0  2  0  0  0  0  0  0  0  0  0
   20.1198  -12.5428  -17.3298 N   0  0  0  0  0  0  0  0  0  0  0  0
   19.0778  -10.4032  -17.0178 C   0  0  0  0  0  0  0  0  0  0  0  0
   17.9370  -10.6330  -17.5084 O   0  0  0  0  0  0  0  0  0  0  0  0
   15.4406   -9.6130  -11.2224 N   0  0  0  0  0  0  0  0  0  0  0  0
   16.6480   -9.0613  -11.7303 C   0  0  0  0  0  0  0  0  0  0  0  0
   17.6049   -8.9032  -10.9328 O   0  0  0  0  0  0  0  0  0  0  0  0
   16.7097   -8.7053  -13.1664 C   0  0  0  0  0  0  0  0  0  0  0  0
   17.9082   -9.2599  -13.8579 C   0  0  0  0  0  0  0  0  0  0  0  0
   18.0524   -8.8753  -15.2953 C   0  0  2  0  0  0  0  0  0  0  0  0
   19.1876   -9.4929  -15.9351 N   0  0  0  0  0  0  0  0  0  0  0  0
   18.1743   -7.3732  -15.3232 C   0  0  0  0  0  0  0  0  0  0  0  0
   19.3022   -6.8483  -15.1428 O   0  0  0  0  0  0  0  0  0  0  0  0
   16.4554   -2.9854  -16.7358 C   0  0  0  0  0  0  0  0  0  0  0  0
   16.2843   -4.4629  -16.6020 C   0  0  1  0  0  0  0  0  0  0  0  0
   16.4276   -5.0444  -17.8609 O   0  0  0  0  0  0  0  0  0  0  0  0
   17.2919   -5.1073  -15.6856 C   0  0  2  0  0  0  0  0  0  0  0  0
   17.0733   -6.5307  -15.5437 N   0  0  0  0  0  0  0  0  0  0  0  0
   17.2200   -4.4135  -14.3664 C   0  0  0  0  0  0  0  0  0  0  0  0
   17.9341   -3.2672  -14.1442 O   0  0  0  0  0  0  0  0  0  0  0  0
   16.5017   -4.8759  -13.4445 O   0  0  0  0  0  0  0  0  0  0  0  0
  2  1  1  6
  2  4  1  0
  3  2  1  0
  4  5  2  0
  6  7  1  0
  7  8  2  0
  7  9  1  0
  9 10  1  0
 11 10  1  1
 11 13  1  0
 12 11  1  0
 12  4  1  0
 13 19  1  0
 14 13  2  0
 16 15  1  6
 16 17  1  0
 18 16  1  0
 18 19  1  1
 20 18  1  0
 21 20  1  0
 22 20  2  0
M  END
$$$$
