AQT.pdb
     RDKit          3D

 22 21  0  0  1  0  0  0  0  0999 V2000
   29.3012  -21.7466  -17.6209 C   0  0  0  0  0  0  0  0  0  0  0  0
   27.8128  -21.6906  -17.8061 C   0  0  2  0  0  0  0  0  0  0  0  0
   27.5011  -21.0399  -19.0819 N   0  0  0  0  0  0  0  0  0  0  0  0
   27.1288  -20.9596  -16.7121 C   0  0  0  0  0  0  0  0  0  0  0  0
   27.8529  -20.4000  -15.8416 O   0  0  0  0  0  0  0  0  0  0  0  0
   23.1463  -18.0324  -18.3510 N   0  0  0  0  0  0  0  0  0  0  0  0
   23.3638  -17.2617  -17.1767 C   0  0  0  0  0  0  0  0  0  0  0  0
   23.2813  -16.0121  -17.2684 O   0  0  0  0  0  0  0  0  0  0  0  0
   23.6742  -17.9729  -15.9155 C   0  0  0  0  0  0  0  0  0  0  0  0
   23.7801  -19.4500  -16.0849 C   0  0  0  0  0  0  0  0  0  0  0  0
   25.0549  -20.0600  -15.5974 C   0  0  2  0  0  0  0  0  0  0  0  0
   25.7182  -20.8597  -16.5974 N   0  0  0  0  0  0  0  0  0  0  0  0
   24.6938  -20.8965  -14.3966 C   0  0  0  0  0  0  0  0  0  0  0  0
   24.2513  -22.0599  -14.5732 O   0  0  0  0  0  0  0  0  0  0  0  0
   25.8285  -19.9803  -10.3177 C   0  0  0  0  0  0  0  0  0  0  0  0
   25.5535  -21.3218  -10.9134 C   0  0  1  0  0  0  0  0  0  0  0  0
   25.1204  -22.1785   -9.9025 O   0  0  0  0  0  0  0  0  0  0  0  0
   24.4898  -21.3025  -11.9805 C   0  0  2  0  0  0  0  0  0  0  0  0
   24.8320  -20.4273  -13.0809 N   0  0  0  0  0  0  0  0  0  0  0  0
   23.2063  -20.8917  -11.3398 C   0  0  0  0  0  0  0  0  0  0  0  0
   22.5900  -21.7092  -10.4315 O   0  0  0  0  0  0  0  0  0  0  0  0
   22.6775  -19.7885  -11.6284 O   0  0  0  0  0  0  0  0  0  0  0  0
  2  1  1  1
  2  4  1  0
  3  2  1  0
  4  5  2  0
  6  7  1  0
  7  8  2  0
  7  9  1  0
  9 10  1  0
 11 10  1  6
 11 13  1  0
 12 11  1  0
 12  4  1  0
 13 19  1  0
 14 13  2  0
 16 15  1  1
 16 17  1  0
 18 16  1  0
 18 19  1  6
 20 18  1  0
 21 20  1  0
 22 20  2  0
M  END
$$$$
