AQT.pdb
     RDKit          3D

 22 21  0  0  1  0  0  0  0  0999 V2000
   28.3101  -24.9382  -17.0821 C   0  0  0  0  0  0  0  0  0  0  0  0
   27.2350  -25.9732  -17.2428 C   0  0  2  0  0  0  0  0  0  0  0  0
   26.0588  -25.5849  -16.4593 N   0  0  0  0  0  0  0  0  0  0  0  0
   27.6747  -27.3235  -16.8156 C   0  0  0  0  0  0  0  0  0  0  0  0
   28.2884  -27.4171  -15.7157 O   0  0  0  0  0  0  0  0  0  0  0  0
   28.6872  -32.8808  -14.8386 N   0  0  0  0  0  0  0  0  0  0  0  0
   27.5195  -32.1262  -15.1338 C   0  0  0  0  0  0  0  0  0  0  0  0
   26.9731  -31.4949  -14.1959 O   0  0  0  0  0  0  0  0  0  0  0  0
   27.0145  -32.1264  -16.5259 C   0  0  0  0  0  0  0  0  0  0  0  0
   26.6775  -30.7642  -17.0287 C   0  0  0  0  0  0  0  0  0  0  0  0
   27.8304  -29.8187  -17.1361 C   0  0  2  0  0  0  0  0  0  0  0  0
   27.4422  -28.5004  -17.5730 N   0  0  0  0  0  0  0  0  0  0  0  0
   28.8006  -30.4402  -18.1079 C   0  0  0  0  0  0  0  0  0  0  0  0
   28.6758  -30.1979  -19.3352 O   0  0  0  0  0  0  0  0  0  0  0  0
   32.6528  -32.0064  -16.9608 C   0  0  0  0  0  0  0  0  0  0  0  0
   32.2359  -31.3565  -18.2391 C   0  0  1  0  0  0  0  0  0  0  0  0
   33.0993  -31.7705  -19.2523 O   0  0  0  0  0  0  0  0  0  0  0  0
   30.8335  -31.7056  -18.6652 C   0  0  2  0  0  0  0  0  0  0  0  0
   29.8445  -31.2839  -17.6967 N   0  0  0  0  0  0  0  0  0  0  0  0
   30.7774  -33.1795  -18.8910 C   0  0  0  0  0  0  0  0  0  0  0  0
   30.0034  -33.9762  -18.0912 O   0  0  0  0  0  0  0  0  0  0  0  0
   31.4417  -33.7050  -19.8196 O   0  0  0  0  0  0  0  0  0  0  0  0
  2  1  1  1
  2  4  1  0
  3  2  1  0
  4  5  2  0
  6  7  1  0
  7  8  2  0
  7  9  1  0
  9 10  1  0
 11 10  1  6
 11 13  1  0
 12 11  1  0
 12  4  1  0
 13 19  1  0
 14 13  2  0
 16 15  1  1
 16 17  1  0
 18 16  1  0
 18 19  1  1
 20 18  1  0
 21 20  1  0
 22 20  2  0
M  END
$$$$
