AQT.pdb
     RDKit          3D

 22 21  0  0  1  0  0  0  0  0999 V2000
   15.1634   -7.0213   -7.1731 C   0  0  0  0  0  0  0  0  0  0  0  0
   14.7072   -7.7320   -8.4139 C   0  0  2  0  0  0  0  0  0  0  0  0
   13.8925   -8.8927   -8.0434 N   0  0  0  0  0  0  0  0  0  0  0  0
   15.8375   -8.1864   -9.2594 C   0  0  0  0  0  0  0  0  0  0  0  0
   16.5051   -9.1802   -8.8572 O   0  0  0  0  0  0  0  0  0  0  0  0
   15.1387  -10.2944  -14.5205 N   0  0  0  0  0  0  0  0  0  0  0  0
   16.5575  -10.3788  -14.5100 C   0  0  0  0  0  0  0  0  0  0  0  0
   17.1103  -11.1151  -15.3638 O   0  0  0  0  0  0  0  0  0  0  0  0
   17.3016   -9.5964  -13.4966 C   0  0  0  0  0  0  0  0  0  0  0  0
   16.4122   -8.8612  -12.5529 C   0  0  0  0  0  0  0  0  0  0  0  0
   17.1098   -8.1551  -11.4350 C   0  0  2  0  0  0  0  0  0  0  0  0
   16.2007   -7.5665  -10.4829 N   0  0  0  0  0  0  0  0  0  0  0  0
   17.9740   -7.0981  -12.0737 C   0  0  0  0  0  0  0  0  0  0  0  0
   17.4680   -5.9814  -12.3520 O   0  0  0  0  0  0  0  0  0  0  0  0
   21.8908   -6.0539  -11.2079 C   0  0  0  0  0  0  0  0  0  0  0  0
   21.5673   -6.3416  -12.6372 C   0  0  1  0  0  0  0  0  0  0  0  0
   21.9685   -7.6437  -12.9320 O   0  0  0  0  0  0  0  0  0  0  0  0
   20.0990   -6.2340  -12.9578 C   0  0  2  0  0  0  0  0  0  0  0  0
   19.3290   -7.3103  -12.3724 N   0  0  0  0  0  0  0  0  0  0  0  0
   19.9555   -6.2100  -14.4429 C   0  0  0  0  0  0  0  0  0  0  0  0
   19.3094   -7.2249  -15.0953 O   0  0  0  0  0  0  0  0  0  0  0  0
   20.4276   -5.2555  -15.1107 O   0  0  0  0  0  0  0  0  0  0  0  0
  2  1  1  1
  2  4  1  0
  3  2  1  0
  4  5  2  0
  6  7  1  0
  7  8  2  0
  7  9  1  0
  9 10  1  0
 11 10  1  6
 11 13  1  0
 12 11  1  0
 12  4  1  0
 13 19  1  0
 14 13  2  0
 16 15  1  1
 16 17  1  0
 18 16  1  0
 18 19  1  6
 20 18  1  0
 21 20  1  0
 22 20  2  0
M  END
$$$$
