AQT.pdb
     RDKit          3D

 22 21  0  0  1  0  0  0  0  0999 V2000
   17.5529  -13.0872  -18.3156 C   0  0  0  0  0  0  0  0  0  0  0  0
   17.5419  -13.0785  -16.8147 C   0  0  2  0  0  0  0  0  0  0  0  0
   16.8041  -14.2454  -16.3225 N   0  0  0  0  0  0  0  0  0  0  0  0
   16.9287  -11.8494  -16.2558 C   0  0  0  0  0  0  0  0  0  0  0  0
   15.8957  -11.4002  -16.8271 O   0  0  0  0  0  0  0  0  0  0  0  0
   16.5472  -10.0591  -10.3432 N   0  0  0  0  0  0  0  0  0  0  0  0
   15.6410  -10.8979  -11.0471 C   0  0  0  0  0  0  0  0  0  0  0  0
   14.8225  -11.5744  -10.3769 O   0  0  0  0  0  0  0  0  0  0  0  0
   15.7125  -10.9269  -12.5259 C   0  0  0  0  0  0  0  0  0  0  0  0
   16.7404  -10.0019  -13.0824 C   0  0  0  0  0  0  0  0  0  0  0  0
   16.8357   -9.9743  -14.5741 C   0  0  2  0  0  0  0  0  0  0  0  0
   17.4398  -11.1623  -15.1246 N   0  0  0  0  0  0  0  0  0  0  0  0
   17.6434   -8.7512  -14.9257 C   0  0  0  0  0  0  0  0  0  0  0  0
   18.8834   -8.7577  -14.7187 O   0  0  0  0  0  0  0  0  0  0  0  0
   17.8036   -6.8750  -18.3756 C   0  0  0  0  0  0  0  0  0  0  0  0
   17.5259   -5.9502  -17.2365 C   0  0  1  0  0  0  0  0  0  0  0  0
   16.1570   -5.6895  -17.1968 O   0  0  0  0  0  0  0  0  0  0  0  0
   17.9220   -6.5088  -15.8943 C   0  0  2  0  0  0  0  0  0  0  0  0
   17.0647   -7.5979  -15.4783 N   0  0  0  0  0  0  0  0  0  0  0  0
   17.8952   -5.3901  -14.9071 C   0  0  0  0  0  0  0  0  0  0  0  0
   18.7957   -4.3633  -14.9957 O   0  0  0  0  0  0  0  0  0  0  0  0
   17.0437   -5.3798  -13.9826 O   0  0  0  0  0  0  0  0  0  0  0  0
  2  1  1  6
  2  4  1  0
  3  2  1  0
  4  5  2  0
  6  7  1  0
  7  8  2  0
  7  9  1  0
  9 10  1  0
 11 10  1  1
 11 13  1  0
 12 11  1  0
 12  4  1  0
 13 19  1  0
 14 13  2  0
 16 15  1  6
 16 17  1  0
 18 16  1  0
 18 19  1  1
 20 18  1  0
 21 20  1  0
 22 20  2  0
M  END
$$$$
