AQT.pdb
     RDKit          3D

 22 21  0  0  1  0  0  0  0  0999 V2000
   21.0441  -13.4796  -15.9393 C   0  0  0  0  0  0  0  0  0  0  0  0
   19.6153  -13.2062  -16.3089 C   0  0  2  0  0  0  0  0  0  0  0  0
   19.2144  -14.0905  -17.4069 N   0  0  0  0  0  0  0  0  0  0  0  0
   19.3911  -11.7983  -16.7173 C   0  0  0  0  0  0  0  0  0  0  0  0
   19.6582  -11.4870  -17.9118 O   0  0  0  0  0  0  0  0  0  0  0  0
   14.5596   -8.3456  -16.1459 N   0  0  0  0  0  0  0  0  0  0  0  0
   15.4628   -7.3349  -16.5736 C   0  0  0  0  0  0  0  0  0  0  0  0
   14.9916   -6.2073  -16.8621 O   0  0  0  0  0  0  0  0  0  0  0  0
   16.9037   -7.6669  -16.6545 C   0  0  0  0  0  0  0  0  0  0  0  0
   17.2097   -9.0621  -16.2285 C   0  0  0  0  0  0  0  0  0  0  0  0
   18.6577   -9.4334  -16.2460 C   0  0  2  0  0  0  0  0  0  0  0  0
   18.8972  -10.7968  -15.8421 N   0  0  0  0  0  0  0  0  0  0  0  0
   19.3545   -8.4705  -15.3191 C   0  0  0  0  0  0  0  0  0  0  0  0
   19.2679   -8.6468  -14.0774 O   0  0  0  0  0  0  0  0  0  0  0  0
   22.8069   -5.1498  -14.3436 C   0  0  0  0  0  0  0  0  0  0  0  0
   22.1201   -6.0755  -15.2931 C   0  0  1  0  0  0  0  0  0  0  0  0
   22.8973   -7.2238  -15.4374 O   0  0  0  0  0  0  0  0  0  0  0  0
   20.7517   -6.5068  -14.8331 C   0  0  2  0  0  0  0  0  0  0  0  0
   20.1009   -7.3780  -15.7879 N   0  0  0  0  0  0  0  0  0  0  0  0
   19.9443   -5.2770  -14.5830 C   0  0  0  0  0  0  0  0  0  0  0  0
   19.4393   -4.5526  -15.6286 O   0  0  0  0  0  0  0  0  0  0  0  0
   19.7197   -4.8937  -13.4072 O   0  0  0  0  0  0  0  0  0  0  0  0
  2  1  1  6
  2  4  1  0
  3  2  1  0
  4  5  2  0
  6  7  1  0
  7  8  2  0
  7  9  1  0
  9 10  1  0
 11 10  1  1
 11 13  1  0
 12 11  1  0
 12  4  1  0
 13 19  1  0
 14 13  2  0
 16 15  1  1
 16 17  1  0
 18 16  1  0
 18 19  1  6
 20 18  1  0
 21 20  1  0
 22 20  2  0
M  END
$$$$
