MTY.pdb
     RDKit          3D

 28 28  0  0  1  0  0  0  0  0999 V2000
    1.9223  -18.4288   19.5500 C   0  0  0  0  0  0  0  0  0  0  0  0
    2.0197  -18.7866   21.2863 S   0  0  0  0  0  0  0  0  0  0  0  0
    3.1866  -19.9913   21.8182 C   0  0  0  0  0  0  0  0  0  0  0  0
    4.6226  -19.6581   21.8648 C   0  0  0  0  0  0  0  0  0  0  0  0
    5.0063  -18.2534   22.1938 C   0  0  2  0  0  0  0  0  0  0  0  0
    4.3678  -17.2843   21.3448 N   0  0  0  0  0  0  0  0  0  0  0  0
    6.5075  -18.1097   22.1740 C   0  0  0  0  0  0  0  0  0  0  0  0
    7.2804  -19.1072   22.2325 O   0  0  0  0  0  0  0  0  0  0  0  0
    8.3850  -16.3642   19.4871 C   0  0  0  0  0  0  0  0  0  0  0  0
    8.7985  -15.6785   20.7783 C   0  0  1  0  0  0  0  0  0  0  0  0
    8.2120  -14.4395   20.8246 O   0  0  0  0  0  0  0  0  0  0  0  0
    8.4518  -16.5507   21.9709 C   0  0  2  0  0  0  0  0  0  0  0  0
    7.0490  -16.7948   22.0852 N   0  0  0  0  0  0  0  0  0  0  0  0
    9.0118  -15.8754   23.1787 C   0  0  0  0  0  0  0  0  0  0  0  0
    8.7871  -14.6573   23.4163 O   0  0  0  0  0  0  0  0  0  0  0  0
    5.9627  -11.1460   26.6351 O   0  0  0  0  0  0  0  0  0  0  0  0
    6.5648  -12.3973   26.5040 C   0  0  0  0  0  0  0  0  0  0  0  0
    5.8269  -13.5374   26.2677 C   0  0  0  0  0  0  0  0  0  0  0  0
    6.4938  -14.7511   26.1477 C   0  0  0  0  0  0  0  0  0  0  0  0
    7.8624  -14.8596   26.2559 C   0  0  0  0  0  0  0  0  0  0  0  0
    8.5249  -16.1318   26.1319 C   0  0  0  0  0  0  0  0  0  0  0  0
    9.8944  -16.1535   25.5430 C   0  0  2  0  0  0  0  0  0  0  0  0
    9.8248  -16.5534   24.1281 N   0  0  0  0  0  0  0  0  0  0  0  0
   10.7755  -17.0737   26.2972 C   0  0  0  0  0  0  0  0  0  0  0  0
   11.5391  -16.5857   27.1857 O   0  0  0  0  0  0  0  0  0  0  0  0
    8.5693  -13.6949   26.4931 C   0  0  0  0  0  0  0  0  0  0  0  0
    7.9361  -12.4877   26.6150 C   0  0  0  0  0  0  0  0  0  0  0  0
   10.7956  -18.4394   26.0707 O   0  0  0  0  0  0  0  0  0  0  0  0
  1  2  1  0
  2  3  1  0
  3  4  1  0
  4  5  1  0
  5  6  1  6
  7  5  1  0
  8  7  2  0
 10  9  1  6
 10 12  1  0
 11 10  1  0
 12 14  1  0
 12 13  1  1
 13  7  1  0
 14 23  1  0
 15 14  2  0
 16 17  1  0
 17 18  2  0
 17 27  1  0
 18 19  1  0
 19 20  2  0
 20 21  1  0
 22 21  1  1
 22 24  1  0
 23 22  1  0
 24 25  2  0
 24 28  1  0
 26 20  1  0
 27 26  2  0
M  END
$$$$
