MTY.pdb
     RDKit          3D

 28 28  0  0  1  0  0  0  0  0999 V2000
    7.4724  -11.8323   18.2322 C   0  0  0  0  0  0  0  0  0  0  0  0
    7.9703  -12.9752   19.4964 S   0  0  0  0  0  0  0  0  0  0  0  0
    6.7551  -14.0680   20.1485 C   0  0  0  0  0  0  0  0  0  0  0  0
    7.1196  -15.0331   21.2025 C   0  0  0  0  0  0  0  0  0  0  0  0
    8.5182  -15.0070   21.7241 C   0  0  2  0  0  0  0  0  0  0  0  0
    9.4896  -15.4118   20.7442 N   0  0  0  0  0  0  0  0  0  0  0  0
    8.6161  -15.8340   22.9816 C   0  0  0  0  0  0  0  0  0  0  0  0
    7.7954  -15.7112   23.9340 O   0  0  0  0  0  0  0  0  0  0  0  0
   10.3548  -19.6852   23.0209 C   0  0  0  0  0  0  0  0  0  0  0  0
   10.9046  -18.6814   24.0202 C   0  0  1  0  0  0  0  0  0  0  0  0
   12.1210  -18.2353   23.5701 O   0  0  0  0  0  0  0  0  0  0  0  0
    9.9032  -17.5639   24.2476 C   0  0  2  0  0  0  0  0  0  0  0  0
    9.6780  -16.7793   23.0753 N   0  0  0  0  0  0  0  0  0  0  0  0
   10.4159  -16.7484   25.3879 C   0  0  0  0  0  0  0  0  0  0  0  0
   11.2503  -15.8193   25.2110 O   0  0  0  0  0  0  0  0  0  0  0  0
    6.1551  -11.9938   25.7059 O   0  0  0  0  0  0  0  0  0  0  0  0
    6.9971  -12.8388   26.4287 C   0  0  0  0  0  0  0  0  0  0  0  0
    8.1938  -12.3980   26.9520 C   0  0  0  0  0  0  0  0  0  0  0  0
    8.9827  -13.2955   27.6621 C   0  0  0  0  0  0  0  0  0  0  0  0
    8.6162  -14.6077   27.8632 C   0  0  0  0  0  0  0  0  0  0  0  0
    9.4569  -15.5156   28.5991 C   0  0  0  0  0  0  0  0  0  0  0  0
   10.5561  -16.2041   27.8638 C   0  0  2  0  0  0  0  0  0  0  0  0
   10.0019  -16.9634   26.7312 N   0  0  0  0  0  0  0  0  0  0  0  0
   11.3105  -17.1016   28.7679 C   0  0  0  0  0  0  0  0  0  0  0  0
   11.9145  -16.5904   29.7601 O   0  0  0  0  0  0  0  0  0  0  0  0
    7.4094  -15.0139   27.3237 C   0  0  0  0  0  0  0  0  0  0  0  0
    6.6146  -14.1494   26.6207 C   0  0  0  0  0  0  0  0  0  0  0  0
   11.3795  -18.4705   28.5720 O   0  0  0  0  0  0  0  0  0  0  0  0
  1  2  1  0
  2  3  1  0
  3  4  1  0
  4  5  1  0
  5  6  1  6
  7  5  1  0
  8  7  2  0
 10  9  1  6
 10 12  1  0
 11 10  1  0
 12 14  1  0
 12 13  1  6
 13  7  1  0
 14 23  1  0
 15 14  2  0
 16 17  1  0
 17 18  2  0
 17 27  1  0
 18 19  1  0
 19 20  2  0
 20 21  1  0
 22 21  1  1
 22 24  1  0
 23 22  1  0
 24 25  2  0
 24 28  1  0
 26 20  1  0
 27 26  2  0
M  END
$$$$
