MTY.pdb
     RDKit          3D

 28 28  0  0  1  0  0  0  0  0999 V2000
    9.7142  -12.2471   19.0666 C   0  0  0  0  0  0  0  0  0  0  0  0
    8.1465  -11.9594   19.8487 S   0  0  0  0  0  0  0  0  0  0  0  0
    7.1209  -13.3498   20.1817 C   0  0  0  0  0  0  0  0  0  0  0  0
    7.4283  -14.2387   21.3178 C   0  0  0  0  0  0  0  0  0  0  0  0
    7.7923  -15.6558   21.0211 C   0  0  2  0  0  0  0  0  0  0  0  0
    6.7970  -16.3384   20.2396 N   0  0  0  0  0  0  0  0  0  0  0  0
    8.0958  -16.3904   22.3029 C   0  0  0  0  0  0  0  0  0  0  0  0
    7.1846  -16.8128   23.0691 O   0  0  0  0  0  0  0  0  0  0  0  0
   10.6715  -19.3283   22.4797 C   0  0  0  0  0  0  0  0  0  0  0  0
   11.0484  -18.2667   23.4992 C   0  0  1  0  0  0  0  0  0  0  0  0
   12.1478  -17.5875   23.0395 O   0  0  0  0  0  0  0  0  0  0  0  0
    9.8613  -17.3644   23.7817 C   0  0  2  0  0  0  0  0  0  0  0  0
    9.4637  -16.6038   22.6397 N   0  0  0  0  0  0  0  0  0  0  0  0
   10.2405  -16.4989   24.9373 C   0  0  0  0  0  0  0  0  0  0  0  0
   10.8932  -15.4319   24.7754 O   0  0  0  0  0  0  0  0  0  0  0  0
    5.6816  -11.9482   25.3199 O   0  0  0  0  0  0  0  0  0  0  0  0
    6.5422  -12.7935   26.0202 C   0  0  0  0  0  0  0  0  0  0  0  0
    7.7230  -12.3376   26.5662 C   0  0  0  0  0  0  0  0  0  0  0  0
    8.5321  -13.2364   27.2517 C   0  0  0  0  0  0  0  0  0  0  0  0
    8.2009  -14.5641   27.4066 C   0  0  0  0  0  0  0  0  0  0  0  0
    9.0618  -15.4727   28.1179 C   0  0  0  0  0  0  0  0  0  0  0  0
   10.2813  -15.9723   27.4207 C   0  0  2  0  0  0  0  0  0  0  0  0
    9.8946  -16.8175   26.2793 N   0  0  0  0  0  0  0  0  0  0  0  0
   11.1465  -16.7287   28.3541 C   0  0  0  0  0  0  0  0  0  0  0  0
   11.3159  -17.9697   28.1490 O   0  0  0  0  0  0  0  0  0  0  0  0
    7.0090  -14.9850   26.8454 C   0  0  0  0  0  0  0  0  0  0  0  0
    6.1949  -14.1197   26.1659 C   0  0  0  0  0  0  0  0  0  0  0  0
   11.7750  -16.1347   29.4353 O   0  0  0  0  0  0  0  0  0  0  0  0
  1  2  1  0
  2  3  1  0
  3  4  1  0
  4  5  1  0
  5  6  1  1
  7  5  1  0
  8  7  2  0
 10  9  1  6
 10 12  1  0
 11 10  1  0
 12 14  1  0
 12 13  1  6
 13  7  1  0
 14 23  1  0
 15 14  2  0
 16 17  1  0
 17 18  2  0
 17 27  1  0
 18 19  1  0
 19 20  2  0
 20 21  1  0
 22 21  1  1
 22 24  1  0
 23 22  1  0
 24 25  2  0
 24 28  1  0
 26 20  1  0
 27 26  2  0
M  END
$$$$
