MTY.pdb
     RDKit          3D

 28 28  0  0  1  0  0  0  0  0999 V2000
    7.5915  -11.4724   18.6404 C   0  0  0  0  0  0  0  0  0  0  0  0
    7.3344  -13.0522   17.8721 S   0  0  0  0  0  0  0  0  0  0  0  0
    8.2433  -14.4281   18.4860 C   0  0  0  0  0  0  0  0  0  0  0  0
    9.1245  -14.2672   19.6577 C   0  0  0  0  0  0  0  0  0  0  0  0
    9.8628  -15.4677   20.1501 C   0  0  2  0  0  0  0  0  0  0  0  0
    9.6669  -16.6256   19.3203 N   0  0  0  0  0  0  0  0  0  0  0  0
    9.5000  -15.7436   21.5878 C   0  0  0  0  0  0  0  0  0  0  0  0
    9.4747  -14.8328   22.4628 O   0  0  0  0  0  0  0  0  0  0  0  0
    7.1600  -19.2227   22.4132 C   0  0  0  0  0  0  0  0  0  0  0  0
    8.3113  -18.8994   23.3504 C   0  0  1  0  0  0  0  0  0  0  0  0
    9.3552  -19.7440   23.0708 O   0  0  0  0  0  0  0  0  0  0  0  0
    8.6820  -17.4318   23.2410 C   0  0  2  0  0  0  0  0  0  0  0  0
    9.1784  -17.0843   21.9474 N   0  0  0  0  0  0  0  0  0  0  0  0
    9.6713  -17.1530   24.3234 C   0  0  0  0  0  0  0  0  0  0  0  0
   10.9066  -17.3404   24.1514 O   0  0  0  0  0  0  0  0  0  0  0  0
    5.4534  -12.1008   26.4542 O   0  0  0  0  0  0  0  0  0  0  0  0
    6.6501  -12.7954   26.6297 C   0  0  0  0  0  0  0  0  0  0  0  0
    7.3949  -12.6792   27.7839 C   0  0  0  0  0  0  0  0  0  0  0  0
    8.5778  -13.4014   27.8902 C   0  0  0  0  0  0  0  0  0  0  0  0
    9.0353  -14.2280   26.8882 C   0  0  0  0  0  0  0  0  0  0  0  0
   10.2674  -14.9600   27.0252 C   0  0  0  0  0  0  0  0  0  0  0  0
   10.2627  -16.4099   26.6780 C   0  0  2  0  0  0  0  0  0  0  0  0
    9.2898  -16.6642   25.6031 N   0  0  0  0  0  0  0  0  0  0  0  0
    9.9459  -17.2332   27.8670 C   0  0  0  0  0  0  0  0  0  0  0  0
    8.8761  -17.9159   27.8610 O   0  0  0  0  0  0  0  0  0  0  0  0
    8.2618  -14.3193   25.7454 C   0  0  0  0  0  0  0  0  0  0  0  0
    7.0932  -13.6186   25.6165 C   0  0  0  0  0  0  0  0  0  0  0  0
   10.7703  -17.2862   28.9782 O   0  0  0  0  0  0  0  0  0  0  0  0
  1  2  1  0
  2  3  1  0
  3  4  1  0
  4  5  1  0
  5  6  1  6
  7  5  1  0
  8  7  2  0
 10  9  1  6
 10 12  1  0
 11 10  1  0
 12 14  1  0
 12 13  1  6
 13  7  1  0
 14 23  1  0
 15 14  2  0
 16 17  1  0
 17 18  2  0
 17 27  1  0
 18 19  1  0
 19 20  2  0
 20 21  1  0
 22 21  1  1
 22 24  1  0
 23 22  1  0
 24 25  2  0
 24 28  1  0
 26 20  1  0
 27 26  2  0
M  END
$$$$
