MTY.pdb
     RDKit          3D

 28 28  0  0  1  0  0  0  0  0999 V2000
    7.0766  -11.3512   17.9675 C   0  0  0  0  0  0  0  0  0  0  0  0
    7.3409  -13.0481   17.5173 S   0  0  0  0  0  0  0  0  0  0  0  0
    8.5696  -13.9541   18.3922 C   0  0  0  0  0  0  0  0  0  0  0  0
    9.3091  -13.3171   19.4979 C   0  0  0  0  0  0  0  0  0  0  0  0
   10.3377  -14.1289   20.2131 C   0  0  2  0  0  0  0  0  0  0  0  0
   11.1510  -14.9131   19.3236 N   0  0  0  0  0  0  0  0  0  0  0  0
    9.6799  -14.9838   21.2672 C   0  0  0  0  0  0  0  0  0  0  0  0
    8.7392  -14.5539   21.9925 O   0  0  0  0  0  0  0  0  0  0  0  0
    9.5214  -19.2066   20.8044 C   0  0  0  0  0  0  0  0  0  0  0  0
   10.0232  -18.6649   22.1323 C   0  0  1  0  0  0  0  0  0  0  0  0
   11.3892  -18.7840   22.1667 O   0  0  0  0  0  0  0  0  0  0  0  0
    9.5404  -17.2405   22.3350 C   0  0  2  0  0  0  0  0  0  0  0  0
   10.1520  -16.3180   21.4319 N   0  0  0  0  0  0  0  0  0  0  0  0
    9.8001  -16.8944   23.7637 C   0  0  0  0  0  0  0  0  0  0  0  0
   10.8725  -16.3357   24.1220 O   0  0  0  0  0  0  0  0  0  0  0  0
    6.4778  -10.9042   25.7359 O   0  0  0  0  0  0  0  0  0  0  0  0
    6.8066  -12.2261   26.0355 C   0  0  0  0  0  0  0  0  0  0  0  0
    6.7116  -12.7259   27.3167 C   0  0  0  0  0  0  0  0  0  0  0  0
    7.0557  -14.0536   27.5424 C   0  0  0  0  0  0  0  0  0  0  0  0
    7.4881  -14.8893   26.5368 C   0  0  0  0  0  0  0  0  0  0  0  0
    7.8422  -16.2593   26.8021 C   0  0  0  0  0  0  0  0  0  0  0  0
    9.1016  -16.7856   26.2022 C   0  0  2  0  0  0  0  0  0  0  0  0
    8.8666  -17.1689   24.8006 N   0  0  0  0  0  0  0  0  0  0  0  0
    9.6083  -17.9417   26.9760 C   0  0  0  0  0  0  0  0  0  0  0  0
    9.4816  -19.1028   26.4795 O   0  0  0  0  0  0  0  0  0  0  0  0
    7.5708  -14.3531   25.2648 C   0  0  0  0  0  0  0  0  0  0  0  0
    7.2375  -13.0490   25.0167 C   0  0  0  0  0  0  0  0  0  0  0  0
   10.2130  -17.8029   28.2138 O   0  0  0  0  0  0  0  0  0  0  0  0
  1  2  1  0
  2  3  1  0
  3  4  1  0
  4  5  1  0
  5  6  1  6
  7  5  1  0
  8  7  2  0
 10  9  1  6
 10 12  1  0
 11 10  1  0
 12 14  1  0
 12 13  1  6
 13  7  1  0
 14 23  1  0
 15 14  2  0
 16 17  1  0
 17 18  2  0
 17 27  1  0
 18 19  1  0
 19 20  2  0
 20 21  1  0
 22 21  1  1
 22 24  1  0
 23 22  1  0
 24 25  2  0
 24 28  1  0
 26 20  1  0
 27 26  2  0
M  END
$$$$
