MTY.pdb
     RDKit          3D

 28 28  0  0  1  0  0  0  0  0999 V2000
    9.2205  -11.2038   20.3236 C   0  0  0  0  0  0  0  0  0  0  0  0
    8.2149  -12.0705   19.1446 S   0  0  0  0  0  0  0  0  0  0  0  0
    8.0333  -13.8105   19.3333 C   0  0  0  0  0  0  0  0  0  0  0  0
    8.9466  -14.5563   20.2193 C   0  0  0  0  0  0  0  0  0  0  0  0
    8.7688  -16.0347   20.3255 C   0  0  2  0  0  0  0  0  0  0  0  0
    7.6804  -16.5274   19.5254 N   0  0  0  0  0  0  0  0  0  0  0  0
    8.6237  -16.4350   21.7724 C   0  0  0  0  0  0  0  0  0  0  0  0
    7.4993  -16.4940   22.3453 O   0  0  0  0  0  0  0  0  0  0  0  0
   10.1038  -19.7030   22.9817 C   0  0  0  0  0  0  0  0  0  0  0  0
   10.6567  -18.6006   23.8691 C   0  0  1  0  0  0  0  0  0  0  0  0
   11.9589  -18.3609   23.5114 O   0  0  0  0  0  0  0  0  0  0  0  0
    9.7757  -17.3676   23.7861 C   0  0  2  0  0  0  0  0  0  0  0  0
    9.8085  -16.7532   22.4969 N   0  0  0  0  0  0  0  0  0  0  0  0
   10.2230  -16.4421   24.8685 C   0  0  0  0  0  0  0  0  0  0  0  0
   11.0775  -15.5398   24.6528 O   0  0  0  0  0  0  0  0  0  0  0  0
    5.2503  -11.9672   25.6298 O   0  0  0  0  0  0  0  0  0  0  0  0
    6.2375  -12.7335   26.2492 C   0  0  0  0  0  0  0  0  0  0  0  0
    7.4915  -12.2259   26.5144 C   0  0  0  0  0  0  0  0  0  0  0  0
    8.4262  -13.0466   27.1348 C   0  0  0  0  0  0  0  0  0  0  0  0
    8.1492  -14.3468   27.4945 C   0  0  0  0  0  0  0  0  0  0  0  0
    9.1398  -15.1747   28.1317 C   0  0  0  0  0  0  0  0  0  0  0  0
   10.2580  -15.6978   27.2957 C   0  0  2  0  0  0  0  0  0  0  0  0
    9.7208  -16.5167   26.1968 N   0  0  0  0  0  0  0  0  0  0  0  0
   11.2013  -16.4899   28.1170 C   0  0  0  0  0  0  0  0  0  0  0  0
   11.8171  -15.9064   29.0609 O   0  0  0  0  0  0  0  0  0  0  0  0
    6.8812  -14.8213   27.2126 C   0  0  0  0  0  0  0  0  0  0  0  0
    5.9432  -14.0331   26.6028 C   0  0  0  0  0  0  0  0  0  0  0  0
   11.4336  -17.8367   27.8950 O   0  0  0  0  0  0  0  0  0  0  0  0
  1  2  1  0
  2  3  1  0
  3  4  1  0
  4  5  1  0
  5  6  1  6
  7  5  1  0
  8  7  2  0
 10  9  1  6
 10 12  1  0
 11 10  1  0
 12 14  1  0
 12 13  1  6
 13  7  1  0
 14 23  1  0
 15 14  2  0
 16 17  1  0
 17 18  2  0
 17 27  1  0
 18 19  1  0
 19 20  2  0
 20 21  1  0
 22 21  1  1
 22 24  1  0
 23 22  1  0
 24 25  2  0
 24 28  1  0
 26 20  1  0
 27 26  2  0
M  END
$$$$
