MTY.pdb
     RDKit          3D

 28 28  0  0  1  0  0  0  0  0999 V2000
    7.6809  -11.2571   21.0913 C   0  0  0  0  0  0  0  0  0  0  0  0
    7.9880  -11.9869   19.5022 S   0  0  0  0  0  0  0  0  0  0  0  0
    8.2565  -13.7243   19.4280 C   0  0  0  0  0  0  0  0  0  0  0  0
    8.5642  -14.4769   20.6585 C   0  0  0  0  0  0  0  0  0  0  0  0
    8.6152  -15.9666   20.5752 C   0  0  2  0  0  0  0  0  0  0  0  0
    7.6300  -16.5121   19.6811 N   0  0  0  0  0  0  0  0  0  0  0  0
    8.5084  -16.5652   21.9555 C   0  0  0  0  0  0  0  0  0  0  0  0
    7.4020  -16.9177   22.4529 O   0  0  0  0  0  0  0  0  0  0  0  0
    9.8792  -19.6981   23.1041 C   0  0  0  0  0  0  0  0  0  0  0  0
   10.5493  -18.6502   23.9768 C   0  0  1  0  0  0  0  0  0  0  0  0
   11.8363  -18.4714   23.5378 O   0  0  0  0  0  0  0  0  0  0  0  0
    9.7340  -17.3702   23.9808 C   0  0  2  0  0  0  0  0  0  0  0  0
    9.7093  -16.7291   22.7045 N   0  0  0  0  0  0  0  0  0  0  0  0
   10.3071  -16.4950   25.0456 C   0  0  0  0  0  0  0  0  0  0  0  0
   11.1659  -15.6103   24.7802 O   0  0  0  0  0  0  0  0  0  0  0  0
    6.0643  -11.6239   25.1934 O   0  0  0  0  0  0  0  0  0  0  0  0
    6.8662  -12.4926   25.9336 C   0  0  0  0  0  0  0  0  0  0  0  0
    6.4181  -13.7343   26.3306 C   0  0  0  0  0  0  0  0  0  0  0  0
    7.2719  -14.5481   27.0662 C   0  0  0  0  0  0  0  0  0  0  0  0
    8.5474  -14.1627   27.4144 C   0  0  0  0  0  0  0  0  0  0  0  0
    9.4073  -15.0257   28.1814 C   0  0  0  0  0  0  0  0  0  0  0  0
   10.4986  -15.7444   27.4635 C   0  0  2  0  0  0  0  0  0  0  0  0
    9.9267  -16.6007   26.4117 N   0  0  0  0  0  0  0  0  0  0  0  0
   11.3038  -16.5528   28.4069 C   0  0  0  0  0  0  0  0  0  0  0  0
   11.3078  -17.8146   28.2699 O   0  0  0  0  0  0  0  0  0  0  0  0
    8.9621  -12.9106   26.9987 C   0  0  0  0  0  0  0  0  0  0  0  0
    8.1405  -12.0908   26.2733 C   0  0  0  0  0  0  0  0  0  0  0  0
   12.0494  -15.9857   29.4265 O   0  0  0  0  0  0  0  0  0  0  0  0
  1  2  1  0
  2  3  1  0
  3  4  1  0
  4  5  1  0
  5  6  1  6
  7  5  1  0
  8  7  2  0
 10  9  1  6
 10 12  1  0
 11 10  1  0
 12 14  1  0
 12 13  1  6
 13  7  1  0
 14 23  1  0
 15 14  2  0
 16 17  1  0
 17 18  2  0
 17 27  1  0
 18 19  1  0
 19 20  2  0
 20 21  1  0
 22 21  1  1
 22 24  1  0
 23 22  1  0
 24 25  2  0
 24 28  1  0
 26 20  1  0
 27 26  2  0
M  END
$$$$
