MTY.pdb
     RDKit          3D

 28 28  0  0  1  0  0  0  0  0999 V2000
    8.3583  -11.6735   19.8033 C   0  0  0  0  0  0  0  0  0  0  0  0
    7.4833  -12.3856   18.4323 S   0  0  0  0  0  0  0  0  0  0  0  0
    7.6103  -14.1227   18.1826 C   0  0  0  0  0  0  0  0  0  0  0  0
    8.9223  -14.7338   17.8986 C   0  0  0  0  0  0  0  0  0  0  0  0
    8.9837  -16.2157   17.7287 C   0  0  2  0  0  0  0  0  0  0  0  0
    8.0951  -16.7002   16.7073 N   0  0  0  0  0  0  0  0  0  0  0  0
    8.7386  -16.8980   19.0512 C   0  0  0  0  0  0  0  0  0  0  0  0
    7.5919  -17.2959   19.4015 O   0  0  0  0  0  0  0  0  0  0  0  0
    9.9347  -20.0650   20.2306 C   0  0  0  0  0  0  0  0  0  0  0  0
   10.5268  -19.0636   21.2080 C   0  0  1  0  0  0  0  0  0  0  0  0
   11.8570  -18.8999   20.9167 O   0  0  0  0  0  0  0  0  0  0  0  0
    9.7410  -17.7657   21.1712 C   0  0  2  0  0  0  0  0  0  0  0  0
    9.8532  -17.0896   19.9179 N   0  0  0  0  0  0  0  0  0  0  0  0
   10.2258  -16.9335   22.3116 C   0  0  0  0  0  0  0  0  0  0  0  0
   11.1675  -16.1064   22.1704 O   0  0  0  0  0  0  0  0  0  0  0  0
   10.8307  -14.1317   30.8330 O   0  0  0  0  0  0  0  0  0  0  0  0
   10.4241  -14.6278   29.5944 C   0  0  0  0  0  0  0  0  0  0  0  0
    9.9023  -13.8058   28.6185 C   0  0  0  0  0  0  0  0  0  0  0  0
    9.5179  -14.3689   27.4071 C   0  0  0  0  0  0  0  0  0  0  0  0
    9.6375  -15.7153   27.1435 C   0  0  0  0  0  0  0  0  0  0  0  0
    9.2261  -16.2706   25.8806 C   0  0  0  0  0  0  0  0  0  0  0  0
   10.2170  -16.2863   24.7667 C   0  0  2  0  0  0  0  0  0  0  0  0
    9.6643  -17.0181   23.6153 N   0  0  0  0  0  0  0  0  0  0  0  0
   11.4907  -16.9001   25.2059 C   0  0  0  0  0  0  0  0  0  0  0  0
   12.4597  -16.1352   25.5000 O   0  0  0  0  0  0  0  0  0  0  0  0
   10.1651  -16.5085   28.1461 C   0  0  0  0  0  0  0  0  0  0  0  0
   10.5511  -15.9781   29.3473 C   0  0  0  0  0  0  0  0  0  0  0  0
   11.6616  -18.2703   25.3082 O   0  0  0  0  0  0  0  0  0  0  0  0
  1  2  1  0
  2  3  1  0
  3  4  1  0
  4  5  1  0
  5  6  1  6
  7  5  1  0
  8  7  2  0
 10  9  1  6
 10 12  1  0
 11 10  1  0
 12 14  1  0
 12 13  1  6
 13  7  1  0
 14 23  1  0
 15 14  2  0
 16 17  1  0
 17 18  2  0
 17 27  1  0
 18 19  1  0
 19 20  2  0
 20 21  1  0
 22 21  1  1
 22 24  1  0
 23 22  1  0
 24 25  2  0
 24 28  1  0
 26 20  1  0
 27 26  2  0
M  END
$$$$
