MTY.pdb
     RDKit          3D

 28 28  0  0  1  0  0  0  0  0999 V2000
    7.8678  -11.5813   20.0053 C   0  0  0  0  0  0  0  0  0  0  0  0
    8.2919  -12.5367   18.5702 S   0  0  0  0  0  0  0  0  0  0  0  0
    7.5401  -14.1157   18.3763 C   0  0  0  0  0  0  0  0  0  0  0  0
    7.5156  -15.0653   19.5046 C   0  0  0  0  0  0  0  0  0  0  0  0
    8.8054  -15.3729   20.1905 C   0  0  2  0  0  0  0  0  0  0  0  0
    9.7144  -16.1218   19.3655 N   0  0  0  0  0  0  0  0  0  0  0  0
    8.5400  -16.0687   21.5021 C   0  0  0  0  0  0  0  0  0  0  0  0
    7.6267  -15.6941   22.2904 O   0  0  0  0  0  0  0  0  0  0  0  0
    8.7656  -20.0899   22.1073 C   0  0  0  0  0  0  0  0  0  0  0  0
    9.6926  -19.3075   23.0222 C   0  0  1  0  0  0  0  0  0  0  0  0
   10.9810  -19.4623   22.5778 O   0  0  0  0  0  0  0  0  0  0  0  0
    9.2549  -17.8563   23.0975 C   0  0  2  0  0  0  0  0  0  0  0  0
    9.3594  -17.1837   21.8416 N   0  0  0  0  0  0  0  0  0  0  0  0
   10.0809  -17.2094   24.1594 C   0  0  0  0  0  0  0  0  0  0  0  0
   11.2427  -16.7804   23.9208 O   0  0  0  0  0  0  0  0  0  0  0  0
    5.7854  -11.9888   26.0773 O   0  0  0  0  0  0  0  0  0  0  0  0
    6.9749  -12.7105   26.1753 C   0  0  0  0  0  0  0  0  0  0  0  0
    7.8501  -12.5294   27.2249 C   0  0  0  0  0  0  0  0  0  0  0  0
    9.0172  -13.2836   27.2583 C   0  0  0  0  0  0  0  0  0  0  0  0
    9.3340  -14.2043   26.2843 C   0  0  0  0  0  0  0  0  0  0  0  0
   10.5532  -14.9676   26.3434 C   0  0  0  0  0  0  0  0  0  0  0  0
   10.4479  -16.4402   26.5510 C   0  0  2  0  0  0  0  0  0  0  0  0
    9.6171  -17.0369   25.4925 N   0  0  0  0  0  0  0  0  0  0  0  0
    9.8813  -16.7430   27.8849 C   0  0  0  0  0  0  0  0  0  0  0  0
    8.7615  -17.3373   27.9444 O   0  0  0  0  0  0  0  0  0  0  0  0
    8.4323  -14.3586   25.2471 C   0  0  0  0  0  0  0  0  0  0  0  0
    7.2762  -13.6282   25.1915 C   0  0  0  0  0  0  0  0  0  0  0  0
   10.5254  -16.4045   29.0628 O   0  0  0  0  0  0  0  0  0  0  0  0
  1  2  1  0
  2  3  1  0
  3  4  1  0
  4  5  1  0
  5  6  1  6
  7  5  1  0
  8  7  2  0
 10  9  1  6
 10 12  1  0
 11 10  1  0
 12 14  1  0
 12 13  1  6
 13  7  1  0
 14 23  1  0
 15 14  2  0
 16 17  1  0
 17 18  2  0
 17 27  1  0
 18 19  1  0
 19 20  2  0
 20 21  1  0
 22 21  1  6
 22 24  1  0
 23 22  1  0
 24 25  2  0
 24 28  1  0
 26 20  1  0
 27 26  2  0
M  END
$$$$
