MTY.pdb
     RDKit          3D

 28 28  0  0  1  0  0  0  0  0999 V2000
    9.2022  -11.3113   20.3056 C   0  0  0  0  0  0  0  0  0  0  0  0
    8.5053  -12.8314   20.9023 S   0  0  0  0  0  0  0  0  0  0  0  0
    7.1923  -13.5564   19.9823 C   0  0  0  0  0  0  0  0  0  0  0  0
    7.4845  -14.3171   18.7530 C   0  0  0  0  0  0  0  0  0  0  0  0
    8.5436  -15.3674   18.8131 C   0  0  2  0  0  0  0  0  0  0  0  0
    8.6788  -16.0984   17.5823 N   0  0  0  0  0  0  0  0  0  0  0  0
    8.2945  -16.2860   19.9832 C   0  0  0  0  0  0  0  0  0  0  0  0
    7.2166  -16.9312   20.1153 O   0  0  0  0  0  0  0  0  0  0  0  0
    9.1957  -19.3834   20.8969 C   0  0  0  0  0  0  0  0  0  0  0  0
    9.8492  -18.5713   22.0023 C   0  0  1  0  0  0  0  0  0  0  0  0
   11.1936  -18.4830   21.7459 O   0  0  0  0  0  0  0  0  0  0  0  0
    9.1733  -17.2185   22.1304 C   0  0  2  0  0  0  0  0  0  0  0  0
    9.3245  -16.4145   20.9593 N   0  0  0  0  0  0  0  0  0  0  0  0
    9.7405  -16.5643   23.3463 C   0  0  0  0  0  0  0  0  0  0  0  0
   10.7586  -15.8226   23.2815 O   0  0  0  0  0  0  0  0  0  0  0  0
    5.8863  -11.0643   25.4890 O   0  0  0  0  0  0  0  0  0  0  0  0
    6.5673  -12.2392   25.8069 C   0  0  0  0  0  0  0  0  0  0  0  0
    5.9582  -13.4739   25.7363 C   0  0  0  0  0  0  0  0  0  0  0  0
    6.6980  -14.6030   26.0677 C   0  0  0  0  0  0  0  0  0  0  0  0
    8.0153  -14.5371   26.4640 C   0  0  0  0  0  0  0  0  0  0  0  0
    8.7548  -15.7241   26.8058 C   0  0  0  0  0  0  0  0  0  0  0  0
    9.8053  -16.1920   25.8570 C   0  0  2  0  0  0  0  0  0  0  0  0
    9.1767  -16.7327   24.6408 N   0  0  0  0  0  0  0  0  0  0  0  0
   10.6676  -17.2148   26.4914 C   0  0  0  0  0  0  0  0  0  0  0  0
   10.5428  -18.4227   26.1226 O   0  0  0  0  0  0  0  0  0  0  0  0
    8.5927  -13.2819   26.5230 C   0  0  0  0  0  0  0  0  0  0  0  0
    7.8856  -12.1549   26.2016 C   0  0  0  0  0  0  0  0  0  0  0  0
   11.6005  -16.9030   27.4657 O   0  0  0  0  0  0  0  0  0  0  0  0
  1  2  1  0
  2  3  1  0
  3  4  1  0
  4  5  1  0
  5  6  1  6
  7  5  1  0
  8  7  2  0
 10  9  1  6
 10 12  1  0
 11 10  1  0
 12 14  1  0
 12 13  1  6
 13  7  1  0
 14 23  1  0
 15 14  2  0
 16 17  1  0
 17 18  2  0
 17 27  1  0
 18 19  1  0
 19 20  2  0
 20 21  1  0
 22 21  1  1
 22 24  1  0
 23 22  1  0
 24 25  2  0
 24 28  1  0
 26 20  1  0
 27 26  2  0
M  END
$$$$
