MTY.pdb
     RDKit          3D

 28 28  0  0  1  0  0  0  0  0999 V2000
    9.8189  -11.4772   19.9090 C   0  0  0  0  0  0  0  0  0  0  0  0
    8.1137  -11.9373   19.7285 S   0  0  0  0  0  0  0  0  0  0  0  0
    7.7414  -13.6301   19.4256 C   0  0  0  0  0  0  0  0  0  0  0  0
    7.6979  -14.5884   20.5459 C   0  0  0  0  0  0  0  0  0  0  0  0
    8.3904  -15.8997   20.3745 C   0  0  2  0  0  0  0  0  0  0  0  0
    7.8471  -16.6841   19.2988 N   0  0  0  0  0  0  0  0  0  0  0  0
    8.3864  -16.6603   21.6769 C   0  0  0  0  0  0  0  0  0  0  0  0
    7.3927  -17.3419   22.0558 O   0  0  0  0  0  0  0  0  0  0  0  0
   10.0180  -19.5654   22.6896 C   0  0  0  0  0  0  0  0  0  0  0  0
   10.6180  -18.5053   23.5977 C   0  0  1  0  0  0  0  0  0  0  0  0
   11.8583  -18.1683   23.1190 O   0  0  0  0  0  0  0  0  0  0  0  0
    9.6779  -17.3196   23.7140 C   0  0  2  0  0  0  0  0  0  0  0  0
    9.5543  -16.5929   22.4903 N   0  0  0  0  0  0  0  0  0  0  0  0
   10.1880  -16.4703   24.8306 C   0  0  0  0  0  0  0  0  0  0  0  0
   11.0270  -15.5505   24.6287 O   0  0  0  0  0  0  0  0  0  0  0  0
    5.6266  -11.7303   25.6375 O   0  0  0  0  0  0  0  0  0  0  0  0
    6.5388  -12.5842   26.2573 C   0  0  0  0  0  0  0  0  0  0  0  0
    7.7522  -12.1318   26.7297 C   0  0  0  0  0  0  0  0  0  0  0  0
    8.6123  -13.0392   27.3371 C   0  0  0  0  0  0  0  0  0  0  0  0
    8.3003  -14.3724   27.4853 C   0  0  0  0  0  0  0  0  0  0  0  0
    9.2140  -15.2899   28.1146 C   0  0  0  0  0  0  0  0  0  0  0  0
   10.3212  -15.8519   27.2894 C   0  0  2  0  0  0  0  0  0  0  0  0
    9.7662  -16.6411   26.1778 N   0  0  0  0  0  0  0  0  0  0  0  0
   11.2209  -16.6869   28.1172 C   0  0  0  0  0  0  0  0  0  0  0  0
   11.8560  -16.1326   29.0660 O   0  0  0  0  0  0  0  0  0  0  0  0
    7.0747  -14.7897   26.9993 C   0  0  0  0  0  0  0  0  0  0  0  0
    6.2102  -13.9158   26.3975 C   0  0  0  0  0  0  0  0  0  0  0  0
   11.3926  -18.0429   27.8961 O   0  0  0  0  0  0  0  0  0  0  0  0
  1  2  1  0
  2  3  1  0
  3  4  1  0
  4  5  1  0
  5  6  1  6
  7  5  1  0
  8  7  2  0
 10  9  1  6
 10 12  1  0
 11 10  1  0
 12 14  1  0
 12 13  1  6
 13  7  1  0
 14 23  1  0
 15 14  2  0
 16 17  1  0
 17 18  2  0
 17 27  1  0
 18 19  1  0
 19 20  2  0
 20 21  1  0
 22 21  1  1
 22 24  1  0
 23 22  1  0
 24 25  2  0
 24 28  1  0
 26 20  1  0
 27 26  2  0
M  END
$$$$
