MTY.pdb
     RDKit          3D

 28 28  0  0  1  0  0  0  0  0999 V2000
    8.9556  -11.3721   20.7765 C   0  0  0  0  0  0  0  0  0  0  0  0
    7.8489  -12.1343   19.6161 S   0  0  0  0  0  0  0  0  0  0  0  0
    7.9048  -13.8849   19.4473 C   0  0  0  0  0  0  0  0  0  0  0  0
    9.1858  -14.6004   19.5965 C   0  0  0  0  0  0  0  0  0  0  0  0
    9.1638  -16.0927   19.5619 C   0  0  2  0  0  0  0  0  0  0  0  0
    8.3953  -16.6168   18.4654 N   0  0  0  0  0  0  0  0  0  0  0  0
    8.6863  -16.6332   20.8866 C   0  0  0  0  0  0  0  0  0  0  0  0
    7.4641  -16.8428   21.1274 O   0  0  0  0  0  0  0  0  0  0  0  0
    9.0931  -19.8219   22.2907 C   0  0  0  0  0  0  0  0  0  0  0  0
    9.8213  -18.9230   23.2757 C   0  0  1  0  0  0  0  0  0  0  0  0
   11.1716  -19.0529   23.0728 O   0  0  0  0  0  0  0  0  0  0  0  0
    9.3304  -17.4930   23.1445 C   0  0  2  0  0  0  0  0  0  0  0  0
    9.6652  -16.9093   21.8844 N   0  0  0  0  0  0  0  0  0  0  0  0
    9.9025  -16.7315   24.2938 C   0  0  0  0  0  0  0  0  0  0  0  0
   10.9200  -15.9986   24.1577 O   0  0  0  0  0  0  0  0  0  0  0  0
    5.4205  -11.5836   25.3372 O   0  0  0  0  0  0  0  0  0  0  0  0
    6.2836  -12.5252   25.8974 C   0  0  0  0  0  0  0  0  0  0  0  0
    7.5561  -12.1904   26.3083 C   0  0  0  0  0  0  0  0  0  0  0  0
    8.3620  -13.1805   26.8584 C   0  0  0  0  0  0  0  0  0  0  0  0
    7.9395  -14.4826   27.0088 C   0  0  0  0  0  0  0  0  0  0  0  0
    8.7988  -15.4877   27.5778 C   0  0  0  0  0  0  0  0  0  0  0  0
    9.9032  -16.0249   26.7324 C   0  0  2  0  0  0  0  0  0  0  0  0
    9.3444  -16.7822   25.6007 N   0  0  0  0  0  0  0  0  0  0  0  0
   10.8067  -16.8827   27.5323 C   0  0  0  0  0  0  0  0  0  0  0  0
   11.4602  -16.3513   28.4817 O   0  0  0  0  0  0  0  0  0  0  0  0
    6.6572  -14.7811   26.5854 C   0  0  0  0  0  0  0  0  0  0  0  0
    5.8443  -13.8242   26.0407 C   0  0  0  0  0  0  0  0  0  0  0  0
   10.9628  -18.2360   27.2845 O   0  0  0  0  0  0  0  0  0  0  0  0
  1  2  1  0
  2  3  1  0
  3  4  1  0
  4  5  1  0
  5  6  1  6
  7  5  1  0
  8  7  2  0
 10  9  1  6
 10 12  1  0
 11 10  1  0
 12 14  1  0
 12 13  1  6
 13  7  1  0
 14 23  1  0
 15 14  2  0
 16 17  1  0
 17 18  2  0
 17 27  1  0
 18 19  1  0
 19 20  2  0
 20 21  1  0
 22 21  1  1
 22 24  1  0
 23 22  1  0
 24 25  2  0
 24 28  1  0
 26 20  1  0
 27 26  2  0
M  END
$$$$
