MTY.pdb
     RDKit          3D

 28 28  0  0  1  0  0  0  0  0999 V2000
    8.4682  -11.9403   19.2983 C   0  0  0  0  0  0  0  0  0  0  0  0
    7.3878  -12.8915   18.2590 S   0  0  0  0  0  0  0  0  0  0  0  0
    7.7584  -14.5949   18.0200 C   0  0  0  0  0  0  0  0  0  0  0  0
    9.0881  -14.9989   17.5262 C   0  0  0  0  0  0  0  0  0  0  0  0
    9.3585  -16.4567   17.3520 C   0  0  2  0  0  0  0  0  0  0  0  0
    8.6118  -17.0399   16.2704 N   0  0  0  0  0  0  0  0  0  0  0  0
    9.1203  -17.1851   18.6510 C   0  0  0  0  0  0  0  0  0  0  0  0
    8.1229  -17.9401   18.8267 O   0  0  0  0  0  0  0  0  0  0  0  0
   10.7262  -19.8421   20.4204 C   0  0  0  0  0  0  0  0  0  0  0  0
   10.9221  -18.6325   21.3187 C   0  0  1  0  0  0  0  0  0  0  0  0
   12.2137  -18.1910   21.1848 O   0  0  0  0  0  0  0  0  0  0  0  0
    9.8887  -17.5679   20.9994 C   0  0  2  0  0  0  0  0  0  0  0  0
   10.0660  -17.0004   19.7006 N   0  0  0  0  0  0  0  0  0  0  0  0
    9.9718  -16.5448   22.0832 C   0  0  0  0  0  0  0  0  0  0  0  0
   10.7521  -15.5574   21.9989 O   0  0  0  0  0  0  0  0  0  0  0  0
    6.6467  -10.8277   27.9409 O   0  0  0  0  0  0  0  0  0  0  0  0
    6.9271  -11.9286   27.1318 C   0  0  0  0  0  0  0  0  0  0  0  0
    7.7079  -12.9751   27.5741 C   0  0  0  0  0  0  0  0  0  0  0  0
    7.9458  -14.0404   26.7135 C   0  0  0  0  0  0  0  0  0  0  0  0
    7.4329  -14.0916   25.4365 C   0  0  0  0  0  0  0  0  0  0  0  0
    7.7008  -15.2065   24.5659 C   0  0  0  0  0  0  0  0  0  0  0  0
    9.1229  -15.5178   24.2444 C   0  0  2  0  0  0  0  0  0  0  0  0
    9.1863  -16.6160   23.2664 N   0  0  0  0  0  0  0  0  0  0  0  0
    9.8724  -15.8740   25.4706 C   0  0  0  0  0  0  0  0  0  0  0  0
   10.6216  -14.9952   25.9970 O   0  0  0  0  0  0  0  0  0  0  0  0
    6.6545  -13.0241   25.0277 C   0  0  0  0  0  0  0  0  0  0  0  0
    6.4053  -11.9636   25.8562 C   0  0  0  0  0  0  0  0  0  0  0  0
    9.7850  -17.1232   26.0611 O   0  0  0  0  0  0  0  0  0  0  0  0
  1  2  1  0
  2  3  1  0
  3  4  1  0
  4  5  1  0
  5  6  1  6
  7  5  1  0
  8  7  2  0
 10  9  1  6
 10 12  1  0
 11 10  1  0
 12 14  1  0
 12 13  1  6
 13  7  1  0
 14 23  1  0
 15 14  2  0
 16 17  1  0
 17 18  2  0
 17 27  1  0
 18 19  1  0
 19 20  2  0
 20 21  1  0
 22 21  1  1
 22 24  1  0
 23 22  1  0
 24 25  2  0
 24 28  1  0
 26 20  1  0
 27 26  2  0
M  END
$$$$
