ECP.pdb
     RDKit          3D

 23 23  0  0  1  0  0  0  0  0999 V2000
   16.3891  -12.2672  -15.7852 N   0  0  0  0  0  0  0  0  0  0  0  0
   17.7559  -11.9465  -15.5522 C   0  0  1  0  0  0  0  0  0  0  0  0
   18.7608  -12.8460  -16.1677 C   0  0  0  0  0  0  0  0  0  0  0  0
   18.8851  -14.2221  -15.6420 C   0  0  0  0  0  0  0  0  0  0  0  0
   17.7526  -15.1159  -15.7401 C   0  0  0  0  0  0  0  0  0  0  0  0
   17.3402  -15.8362  -14.8157 O   0  0  0  0  0  0  0  0  0  0  0  0
   18.0698  -10.5529  -16.0328 C   0  0  0  0  0  0  0  0  0  0  0  0
   17.4864  -10.1555  -17.0984 O   0  0  0  0  0  0  0  0  0  0  0  0
   17.0259  -15.2203  -16.9436 O   0  0  0  0  0  0  0  0  0  0  0  0
   18.9588   -9.6730  -15.3838 N   0  0  0  0  0  0  0  0  0  0  0  0
   19.1163   -8.3060  -15.7722 C   0  0  1  0  0  0  0  0  0  0  0  0
   17.7775   -7.6127  -15.9881 C   0  0  0  0  0  0  0  0  0  0  0  0
   16.7053   -7.7974  -14.5378 S   0  0  0  0  0  0  0  0  0  0  0  0
   20.0351   -7.4902  -14.9866 C   0  0  0  0  0  0  0  0  0  0  0  0
   20.1391   -7.8140  -13.7382 O   0  0  0  0  0  0  0  0  0  0  0  0
   20.8283   -6.3933  -15.3962 N   0  0  0  0  0  0  0  0  0  0  0  0
   20.8730   -5.6263  -16.6172 C   0  0  0  0  0  0  0  0  0  0  0  0
   22.3774   -5.6493  -16.8901 C   0  0  0  0  0  0  0  0  0  0  0  0
   23.0029   -5.5692  -15.5166 C   0  0  0  0  0  0  0  0  0  0  0  0
   21.8707   -5.7704  -14.5602 C   0  0  1  0  0  0  0  0  0  0  0  0
   21.4168   -4.4834  -14.0084 C   0  0  0  0  0  0  0  0  0  0  0  0
   20.2237   -3.8784  -14.4113 O   0  0  0  0  0  0  0  0  0  0  0  0
   22.0805   -3.8670  -13.1486 O   0  0  0  0  0  0  0  0  0  0  0  0
  2  1  1  6
  2  7  1  0
  3  4  1  0
  3  2  1  0
  4  5  1  0
  5  6  2  0
  7  8  2  0
  9  5  1  0
 10  7  1  0
 10 11  1  0
 11 14  1  0
 12 13  1  0
 11 12  1  1
 14 16  1  0
 15 14  2  0
 16 17  1  0
 16 20  1  0
 17 18  1  0
 18 19  1  0
 20 19  1  0
 20 21  1  6
 21 22  1  0
 23 21  2  0
M  END
$$$$
