ECP.pdb
     RDKit          3D

 23 23  0  0  1  0  0  0  0  0999 V2000
   22.7070  -18.2207  -15.3998 N   0  0  0  0  0  0  0  0  0  0  0  0
   22.4326  -17.1212  -16.2608 C   0  0  1  0  0  0  0  0  0  0  0  0
   21.0215  -16.9451  -16.6799 C   0  0  0  0  0  0  0  0  0  0  0  0
   19.9573  -17.2181  -15.6907 C   0  0  0  0  0  0  0  0  0  0  0  0
   18.5784  -17.2216  -16.1262 C   0  0  0  0  0  0  0  0  0  0  0  0
   17.6040  -17.4211  -15.3818 O   0  0  0  0  0  0  0  0  0  0  0  0
   22.8617  -15.8228  -15.6271 C   0  0  0  0  0  0  0  0  0  0  0  0
   22.3193  -15.5073  -14.5134 O   0  0  0  0  0  0  0  0  0  0  0  0
   18.2547  -16.9883  -17.4784 O   0  0  0  0  0  0  0  0  0  0  0  0
   23.8143  -14.9466  -16.1842 N   0  0  0  0  0  0  0  0  0  0  0  0
   24.2421  -13.7501  -15.5287 C   0  0  1  0  0  0  0  0  0  0  0  0
   25.6720  -13.3748  -15.8950 C   0  0  0  0  0  0  0  0  0  0  0  0
   26.8585  -14.5382  -15.1698 S   0  0  0  0  0  0  0  0  0  0  0  0
   23.3441  -12.6022  -15.5813 C   0  0  0  0  0  0  0  0  0  0  0  0
   22.4351  -12.6478  -16.5010 O   0  0  0  0  0  0  0  0  0  0  0  0
   23.3268  -11.4444  -14.7693 N   0  0  0  0  0  0  0  0  0  0  0  0
   24.1721  -11.0011  -13.6876 C   0  0  0  0  0  0  0  0  0  0  0  0
   23.1082  -10.6387  -12.6508 C   0  0  0  0  0  0  0  0  0  0  0  0
   21.9760  -10.0628  -13.4696 C   0  0  0  0  0  0  0  0  0  0  0  0
   22.3297  -10.3653  -14.8911 C   0  0  1  0  0  0  0  0  0  0  0  0
   22.9006   -9.1802  -15.5518 C   0  0  0  0  0  0  0  0  0  0  0  0
   22.1226   -8.0735  -15.9006 O   0  0  0  0  0  0  0  0  0  0  0  0
   24.1150   -9.1070  -15.8339 O   0  0  0  0  0  0  0  0  0  0  0  0
  2  1  1  1
  2  7  1  0
  3  4  1  0
  3  2  1  0
  4  5  1  0
  5  6  2  0
  7  8  2  0
  9  5  1  0
 10  7  1  0
 10 11  1  0
 11 14  1  0
 12 13  1  0
 11 12  1  6
 14 16  1  0
 15 14  2  0
 16 17  1  0
 16 20  1  0
 17 18  1  0
 18 19  1  0
 20 19  1  0
 20 21  1  1
 21 22  1  0
 23 21  2  0
M  END
$$$$
