ECP.pdb
     RDKit          3D

 23 23  0  0  1  0  0  0  0  0999 V2000
   29.4637  -22.4989  -18.0523 N   0  0  0  0  0  0  0  0  0  0  0  0
   28.3930  -21.5660  -17.9592 C   0  0  1  0  0  0  0  0  0  0  0  0
   27.1065  -21.9718  -18.5740 C   0  0  0  0  0  0  0  0  0  0  0  0
   27.1445  -22.8289  -19.7779 C   0  0  0  0  0  0  0  0  0  0  0  0
   27.7495  -22.3149  -20.9866 C   0  0  0  0  0  0  0  0  0  0  0  0
   28.7761  -22.7758  -21.5129 O   0  0  0  0  0  0  0  0  0  0  0  0
   28.0981  -21.2290  -16.5200 C   0  0  0  0  0  0  0  0  0  0  0  0
   28.1783  -22.1784  -15.6679 O   0  0  0  0  0  0  0  0  0  0  0  0
   27.1796  -21.2151  -21.6599 O   0  0  0  0  0  0  0  0  0  0  0  0
   27.7431  -19.9437  -16.0645 N   0  0  0  0  0  0  0  0  0  0  0  0
   27.3507  -19.6817  -14.7148 C   0  0  1  0  0  0  0  0  0  0  0  0
   27.2981  -18.1902  -14.4114 C   0  0  0  0  0  0  0  0  0  0  0  0
   25.7007  -17.4816  -14.8945 S   0  0  0  0  0  0  0  0  0  0  0  0
   26.1755  -20.3844  -14.2126 C   0  0  0  0  0  0  0  0  0  0  0  0
   25.4535  -20.9740  -15.1099 O   0  0  0  0  0  0  0  0  0  0  0  0
   25.7123  -20.5118  -12.8825 N   0  0  0  0  0  0  0  0  0  0  0  0
   26.1429  -19.9176  -11.6404 C   0  0  0  0  0  0  0  0  0  0  0  0
   26.2352  -21.1685  -10.7658 C   0  0  0  0  0  0  0  0  0  0  0  0
   25.0853  -22.0309  -11.2328 C   0  0  0  0  0  0  0  0  0  0  0  0
   24.5855  -21.3728  -12.4795 C   0  0  1  0  0  0  0  0  0  0  0  0
   23.3766  -20.5793  -12.2038 C   0  0  0  0  0  0  0  0  0  0  0  0
   23.3847  -19.1823  -12.2071 O   0  0  0  0  0  0  0  0  0  0  0  0
   22.2794  -21.1202  -11.9524 O   0  0  0  0  0  0  0  0  0  0  0  0
  2  1  1  1
  2  7  1  0
  3  4  1  0
  3  2  1  0
  4  5  1  0
  5  6  2  0
  7  8  2  0
  9  5  1  0
 10  7  1  0
 10 11  1  0
 11 14  1  0
 12 13  1  0
 11 12  1  6
 14 16  1  0
 15 14  2  0
 16 17  1  0
 16 20  1  0
 17 18  1  0
 18 19  1  0
 20 19  1  0
 20 21  1  1
 21 22  1  0
 23 21  2  0
M  END
$$$$
