ECP.pdb
     RDKit          3D

 23 23  0  0  1  0  0  0  0  0999 V2000
   27.4564  -16.3425  -20.5052 N   0  0  0  0  0  0  0  0  0  0  0  0
   28.6796  -15.7463  -20.9220 C   0  0  1  0  0  0  0  0  0  0  0  0
   28.6683  -15.0635  -22.2378 C   0  0  0  0  0  0  0  0  0  0  0  0
   27.5206  -14.1910  -22.5649 C   0  0  0  0  0  0  0  0  0  0  0  0
   27.4697  -13.5550  -23.8626 C   0  0  0  0  0  0  0  0  0  0  0  0
   26.9245  -14.0431  -24.8665 O   0  0  0  0  0  0  0  0  0  0  0  0
   29.1544  -14.7331  -19.9121 C   0  0  0  0  0  0  0  0  0  0  0  0
   28.2623  -14.0414  -19.3125 O   0  0  0  0  0  0  0  0  0  0  0  0
   28.0629  -12.2921  -24.0640 O   0  0  0  0  0  0  0  0  0  0  0  0
   30.5084  -14.5064  -19.5945 N   0  0  0  0  0  0  0  0  0  0  0  0
   30.9306  -13.4807  -18.6922 C   0  0  1  0  0  0  0  0  0  0  0  0
   32.0180  -13.9642  -17.7418 C   0  0  0  0  0  0  0  0  0  0  0  0
   31.7327  -15.6841  -17.2441 S   0  0  0  0  0  0  0  0  0  0  0  0
   31.2432  -12.1758  -19.2635 C   0  0  0  0  0  0  0  0  0  0  0  0
   31.5348  -12.1752  -20.5241 O   0  0  0  0  0  0  0  0  0  0  0  0
   31.2740  -10.9099  -18.6338 N   0  0  0  0  0  0  0  0  0  0  0  0
   31.0703  -10.4973  -17.2666 C   0  0  0  0  0  0  0  0  0  0  0  0
   30.0748   -9.3563  -17.4792 C   0  0  0  0  0  0  0  0  0  0  0  0
   30.5252   -8.7090  -18.7685 C   0  0  0  0  0  0  0  0  0  0  0  0
   31.5445   -9.6435  -19.3386 C   0  0  1  0  0  0  0  0  0  0  0  0
   32.9079   -9.1597  -19.0670 C   0  0  0  0  0  0  0  0  0  0  0  0
   33.5175   -8.1719  -19.8446 O   0  0  0  0  0  0  0  0  0  0  0  0
   33.5890   -9.6116  -18.1228 O   0  0  0  0  0  0  0  0  0  0  0  0
  2  1  1  1
  2  7  1  0
  3  4  1  0
  3  2  1  0
  4  5  1  0
  5  6  2  0
  7  8  2  0
  9  5  1  0
 10  7  1  0
 10 11  1  0
 11 14  1  0
 12 13  1  0
 11 12  1  6
 14 16  1  0
 15 14  2  0
 16 17  1  0
 16 20  1  0
 17 18  1  0
 18 19  1  0
 20 19  1  0
 20 21  1  1
 21 22  1  0
 23 21  2  0
M  END
$$$$
