ECP.pdb
     RDKit          3D

 23 23  0  0  1  0  0  0  0  0999 V2000
   25.5183  -21.1826  -14.7821 N   0  0  0  0  0  0  0  0  0  0  0  0
   26.9177  -21.1162  -14.5317 C   0  0  1  0  0  0  0  0  0  0  0  0
   27.7197  -20.2958  -15.4706 C   0  0  0  0  0  0  0  0  0  0  0  0
   27.0042  -19.4423  -16.4426 C   0  0  0  0  0  0  0  0  0  0  0  0
   26.8428  -19.9095  -17.8016 C   0  0  0  0  0  0  0  0  0  0  0  0
   25.7505  -20.0299  -18.3811 O   0  0  0  0  0  0  0  0  0  0  0  0
   27.1910  -20.5834  -13.1486 C   0  0  0  0  0  0  0  0  0  0  0  0
   28.4040  -20.5952  -12.7455 O   0  0  0  0  0  0  0  0  0  0  0  0
   27.9670  -20.2684  -18.5729 O   0  0  0  0  0  0  0  0  0  0  0  0
   26.1990  -20.0794  -12.2839 N   0  0  0  0  0  0  0  0  0  0  0  0
   26.4862  -19.6199  -10.9608 C   0  0  1  0  0  0  0  0  0  0  0  0
   25.8681  -18.2567  -10.6797 C   0  0  0  0  0  0  0  0  0  0  0  0
   24.4669  -18.3980   -9.5379 S   0  0  0  0  0  0  0  0  0  0  0  0
   26.2655  -20.5575   -9.8657 C   0  0  0  0  0  0  0  0  0  0  0  0
   25.6227  -21.6363  -10.1772 O   0  0  0  0  0  0  0  0  0  0  0  0
   26.6541  -20.4539   -8.5098 N   0  0  0  0  0  0  0  0  0  0  0  0
   27.3528  -19.4293   -7.7728 C   0  0  0  0  0  0  0  0  0  0  0  0
   28.4061  -20.2828   -7.0654 C   0  0  0  0  0  0  0  0  0  0  0  0
   27.6826  -21.5702   -6.7439 C   0  0  0  0  0  0  0  0  0  0  0  0
   26.3911  -21.4896   -7.4941 C   0  0  1  0  0  0  0  0  0  0  0  0
   25.2902  -21.0958   -6.5998 C   0  0  0  0  0  0  0  0  0  0  0  0
   24.6887  -21.9957   -5.7165 O   0  0  0  0  0  0  0  0  0  0  0  0
   24.8385  -19.9316   -6.5878 O   0  0  0  0  0  0  0  0  0  0  0  0
  2  1  1  6
  2  7  1  0
  3  4  1  0
  3  2  1  0
  4  5  1  0
  5  6  2  0
  7  8  2  0
  9  5  1  0
 10  7  1  0
 10 11  1  0
 11 14  1  0
 12 13  1  0
 11 12  1  1
 14 16  1  0
 15 14  2  0
 16 17  1  0
 16 20  1  0
 17 18  1  0
 18 19  1  0
 20 19  1  0
 20 21  1  1
 21 22  1  0
 23 21  2  0
M  END
$$$$
