ECP.pdb
     RDKit          3D

 23 23  0  0  1  0  0  0  0  0999 V2000
   20.3371  -20.8718  -12.2809 N   0  0  0  0  0  0  0  0  0  0  0  0
   21.3252  -21.4549  -13.1230 C   0  0  1  0  0  0  0  0  0  0  0  0
   21.0175  -21.4976  -14.5726 C   0  0  0  0  0  0  0  0  0  0  0  0
   19.6917  -21.9983  -14.9933 C   0  0  0  0  0  0  0  0  0  0  0  0
   19.3710  -22.0373  -16.4028 C   0  0  0  0  0  0  0  0  0  0  0  0
   20.1699  -21.7696  -17.3157 O   0  0  0  0  0  0  0  0  0  0  0  0
   22.6430  -20.7375  -12.9808 C   0  0  0  0  0  0  0  0  0  0  0  0
   22.6314  -19.4639  -13.0900 O   0  0  0  0  0  0  0  0  0  0  0  0
   18.0774  -22.3974  -16.8324 O   0  0  0  0  0  0  0  0  0  0  0  0
   23.8728  -21.3811  -12.7377 N   0  0  0  0  0  0  0  0  0  0  0  0
   25.1352  -20.7468  -12.9572 C   0  0  1  0  0  0  0  0  0  0  0  0
   26.2704  -21.4631  -12.2377 C   0  0  0  0  0  0  0  0  0  0  0  0
   26.0927  -21.3257  -10.4386 S   0  0  0  0  0  0  0  0  0  0  0  0
   25.4840  -20.4117  -14.3330 C   0  0  0  0  0  0  0  0  0  0  0  0
   24.7036  -20.9027  -15.2408 O   0  0  0  0  0  0  0  0  0  0  0  0
   26.5564  -19.6263  -14.8161 N   0  0  0  0  0  0  0  0  0  0  0  0
   27.6628  -18.9776  -14.1557 C   0  0  0  0  0  0  0  0  0  0  0  0
   27.5569  -17.5814  -14.7702 C   0  0  0  0  0  0  0  0  0  0  0  0
   27.1224  -17.8372  -16.1949 C   0  0  0  0  0  0  0  0  0  0  0  0
   26.7567  -19.2869  -16.2367 C   0  0  1  0  0  0  0  0  0  0  0  0
   27.8430  -20.0837  -16.8300 C   0  0  0  0  0  0  0  0  0  0  0  0
   28.5577  -21.0336  -16.0960 O   0  0  0  0  0  0  0  0  0  0  0  0
   28.1797  -19.9480  -18.0249 O   0  0  0  0  0  0  0  0  0  0  0  0
  2  1  1  1
  2  7  1  0
  3  4  1  0
  3  2  1  0
  4  5  1  0
  5  6  2  0
  7  8  2  0
  9  5  1  0
 10  7  1  0
 10 11  1  0
 11 14  1  0
 12 13  1  0
 11 12  1  6
 14 16  1  0
 15 14  2  0
 16 17  1  0
 16 20  1  0
 17 18  1  0
 18 19  1  0
 20 19  1  0
 20 21  1  1
 21 22  1  0
 23 21  2  0
M  END
$$$$
