ECP.pdb
     RDKit          3D

 23 23  0  0  1  0  0  0  0  0999 V2000
   27.4617  -22.6313  -17.1969 N   0  0  0  0  0  0  0  0  0  0  0  0
   28.3286  -21.7165  -16.5359 C   0  0  1  0  0  0  0  0  0  0  0  0
   29.1204  -20.8112  -17.4028 C   0  0  0  0  0  0  0  0  0  0  0  0
   29.7681  -21.3799  -18.6037 C   0  0  0  0  0  0  0  0  0  0  0  0
   28.9627  -21.6507  -19.7738 C   0  0  0  0  0  0  0  0  0  0  0  0
   27.9663  -20.9907  -20.1127 O   0  0  0  0  0  0  0  0  0  0  0  0
   27.5579  -20.8395  -15.5829 C   0  0  0  0  0  0  0  0  0  0  0  0
   28.2338  -20.0692  -14.8189 O   0  0  0  0  0  0  0  0  0  0  0  0
   29.2813  -22.7259  -20.6282 O   0  0  0  0  0  0  0  0  0  0  0  0
   26.1522  -20.8197  -15.4857 N   0  0  0  0  0  0  0  0  0  0  0  0
   25.4544  -20.0364  -14.5141 C   0  0  1  0  0  0  0  0  0  0  0  0
   24.6763  -18.8923  -15.1506 C   0  0  0  0  0  0  0  0  0  0  0  0
   23.2810  -18.3915  -14.1068 S   0  0  0  0  0  0  0  0  0  0  0  0
   24.6608  -20.7537  -13.5230 C   0  0  0  0  0  0  0  0  0  0  0  0
   24.0758  -21.8266  -13.9485 O   0  0  0  0  0  0  0  0  0  0  0  0
   24.4388  -20.4418  -12.1615 N   0  0  0  0  0  0  0  0  0  0  0  0
   24.8214  -19.3151  -11.3459 C   0  0  0  0  0  0  0  0  0  0  0  0
   25.4130  -20.0482  -10.1414 C   0  0  0  0  0  0  0  0  0  0  0  0
   24.5388  -21.2714   -9.9880 C   0  0  0  0  0  0  0  0  0  0  0  0
   23.6999  -21.3089  -11.2257 C   0  0  1  0  0  0  0  0  0  0  0  0
   22.3509  -20.7832  -10.9597 C   0  0  0  0  0  0  0  0  0  0  0  0
   21.4101  -21.4900  -10.2067 O   0  0  0  0  0  0  0  0  0  0  0  0
   21.9806  -19.6735  -11.3970 O   0  0  0  0  0  0  0  0  0  0  0  0
  2  1  1  6
  2  7  1  0
  3  4  1  0
  3  2  1  0
  4  5  1  0
  5  6  2  0
  7  8  2  0
  9  5  1  0
 10  7  1  0
 10 11  1  0
 11 14  1  0
 12 13  1  0
 11 12  1  6
 14 16  1  0
 15 14  2  0
 16 17  1  0
 16 20  1  0
 17 18  1  0
 18 19  1  0
 20 19  1  0
 20 21  1  1
 21 22  1  0
 23 21  2  0
M  END
$$$$
