ECP.pdb
     RDKit          3D

 23 23  0  0  1  0  0  0  0  0999 V2000
   26.6569  -22.6318  -16.2983 N   0  0  0  0  0  0  0  0  0  0  0  0
   27.4003  -23.2209  -17.3592 C   0  0  1  0  0  0  0  0  0  0  0  0
   27.4593  -22.4581  -18.6290 C   0  0  0  0  0  0  0  0  0  0  0  0
   26.2484  -22.4118  -19.4758 C   0  0  0  0  0  0  0  0  0  0  0  0
   26.2552  -21.5905  -20.6660 C   0  0  0  0  0  0  0  0  0  0  0  0
   26.7539  -21.9275  -21.7528 O   0  0  0  0  0  0  0  0  0  0  0  0
   28.8255  -23.4748  -16.9397 C   0  0  0  0  0  0  0  0  0  0  0  0
   29.2466  -22.8659  -15.8977 O   0  0  0  0  0  0  0  0  0  0  0  0
   25.6700  -20.3080  -20.6535 O   0  0  0  0  0  0  0  0  0  0  0  0
   29.7105  -24.3338  -17.6214 N   0  0  0  0  0  0  0  0  0  0  0  0
   30.9742  -24.7296  -17.0822 C   0  0  1  0  0  0  0  0  0  0  0  0
   30.8546  -25.2342  -15.6502 C   0  0  0  0  0  0  0  0  0  0  0  0
   29.5870  -26.5235  -15.5160 S   0  0  0  0  0  0  0  0  0  0  0  0
   31.8065  -25.6020  -17.9025 C   0  0  0  0  0  0  0  0  0  0  0  0
   31.1654  -26.4223  -18.6707 O   0  0  0  0  0  0  0  0  0  0  0  0
   33.2167  -25.6793  -17.9765 N   0  0  0  0  0  0  0  0  0  0  0  0
   34.2657  -25.1671  -17.1288 C   0  0  0  0  0  0  0  0  0  0  0  0
   35.1546  -24.5010  -18.1797 C   0  0  0  0  0  0  0  0  0  0  0  0
   35.0569  -25.4155  -19.3790 C   0  0  0  0  0  0  0  0  0  0  0  0
   33.9505  -26.3681  -19.0537 C   0  0  1  0  0  0  0  0  0  0  0  0
   34.4894  -27.6588  -18.5947 C   0  0  0  0  0  0  0  0  0  0  0  0
   35.0739  -28.5769  -19.4707 O   0  0  0  0  0  0  0  0  0  0  0  0
   34.4496  -27.9969  -17.3932 O   0  0  0  0  0  0  0  0  0  0  0  0
  2  1  1  1
  2  7  1  0
  3  4  1  0
  3  2  1  0
  4  5  1  0
  5  6  2  0
  7  8  2  0
  9  5  1  0
 10  7  1  0
 10 11  1  0
 11 14  1  0
 12 13  1  0
 11 12  1  1
 14 16  1  0
 15 14  2  0
 16 17  1  0
 16 20  1  0
 17 18  1  0
 18 19  1  0
 20 19  1  0
 20 21  1  1
 21 22  1  0
 23 21  2  0
M  END
$$$$
