ECP.pdb
     RDKit          3D

 23 23  0  0  1  0  0  0  0  0999 V2000
   18.8259  -15.7265  -16.9758 N   0  0  0  0  0  0  0  0  0  0  0  0
   18.3754  -14.3768  -16.9498 C   0  0  1  0  0  0  0  0  0  0  0  0
   17.2776  -14.0637  -16.0039 C   0  0  0  0  0  0  0  0  0  0  0  0
   16.6424  -15.1807  -15.2730 C   0  0  0  0  0  0  0  0  0  0  0  0
   15.4522  -14.9226  -14.4932 C   0  0  0  0  0  0  0  0  0  0  0  0
   14.8663  -15.7698  -13.7987 O   0  0  0  0  0  0  0  0  0  0  0  0
   19.5091  -13.4387  -16.6235 C   0  0  0  0  0  0  0  0  0  0  0  0
   20.2019  -13.6975  -15.5809 O   0  0  0  0  0  0  0  0  0  0  0  0
   14.8698  -13.6388  -14.4807 O   0  0  0  0  0  0  0  0  0  0  0  0
   19.8456  -12.3061  -17.3915 N   0  0  0  0  0  0  0  0  0  0  0  0
   20.9299  -11.4370  -17.0549 C   0  0  1  0  0  0  0  0  0  0  0  0
   21.4964  -10.7261  -18.2769 C   0  0  0  0  0  0  0  0  0  0  0  0
   21.8673  -11.9045  -19.6040 S   0  0  0  0  0  0  0  0  0  0  0  0
   20.7317  -10.5252  -15.9340 C   0  0  0  0  0  0  0  0  0  0  0  0
   19.4992  -10.2582  -15.6445 O   0  0  0  0  0  0  0  0  0  0  0  0
   21.6970   -9.8901  -15.1185 N   0  0  0  0  0  0  0  0  0  0  0  0
   23.1392   -9.9223  -15.1120 C   0  0  0  0  0  0  0  0  0  0  0  0
   23.3919  -10.1953  -13.6289 C   0  0  0  0  0  0  0  0  0  0  0  0
   22.3053   -9.4197  -12.9205 C   0  0  0  0  0  0  0  0  0  0  0  0
   21.3680   -8.9850  -14.0022 C   0  0  1  0  0  0  0  0  0  0  0  0
   21.6045   -7.5782  -14.3654 C   0  0  0  0  0  0  0  0  0  0  0  0
   21.1681   -6.5183  -13.5666 O   0  0  0  0  0  0  0  0  0  0  0  0
   22.2100   -7.2630  -15.4111 O   0  0  0  0  0  0  0  0  0  0  0  0
  2  1  1  1
  2  7  1  0
  3  4  1  0
  3  2  1  0
  4  5  1  0
  5  6  2  0
  7  8  2  0
  9  5  1  0
 10  7  1  0
 10 11  1  0
 11 14  1  0
 12 13  1  0
 11 12  1  6
 14 16  1  0
 15 14  2  0
 16 17  1  0
 16 20  1  0
 17 18  1  0
 18 19  1  0
 20 19  1  0
 20 21  1  6
 21 22  1  0
 23 21  2  0
M  END
$$$$
