ECP.pdb
     RDKit          3D

 23 23  0  0  1  0  0  0  0  0999 V2000
   23.0544  -13.8055  -19.2126 N   0  0  0  0  0  0  0  0  0  0  0  0
   23.6212  -12.5011  -19.2629 C   0  0  1  0  0  0  0  0  0  0  0  0
   23.0896  -11.5883  -20.3032 C   0  0  0  0  0  0  0  0  0  0  0  0
   21.6905  -11.1266  -20.1820 C   0  0  0  0  0  0  0  0  0  0  0  0
   21.1802  -10.1736  -21.1424 C   0  0  0  0  0  0  0  0  0  0  0  0
   20.0323   -9.6989  -21.1236 O   0  0  0  0  0  0  0  0  0  0  0  0
   23.4588  -11.7938  -17.9419 C   0  0  0  0  0  0  0  0  0  0  0  0
   22.3218  -11.8847  -17.3648 O   0  0  0  0  0  0  0  0  0  0  0  0
   21.9957   -9.7138  -22.1965 O   0  0  0  0  0  0  0  0  0  0  0  0
   24.4750  -11.0467  -17.3136 N   0  0  0  0  0  0  0  0  0  0  0  0
   24.2650  -10.3231  -16.0984 C   0  0  1  0  0  0  0  0  0  0  0  0
   25.5736   -9.9988  -15.3900 C   0  0  0  0  0  0  0  0  0  0  0  0
   26.5043   -8.7276  -16.2874 S   0  0  0  0  0  0  0  0  0  0  0  0
   23.3718   -9.1715  -16.1527 C   0  0  0  0  0  0  0  0  0  0  0  0
   23.2506   -8.6150  -17.3145 O   0  0  0  0  0  0  0  0  0  0  0  0
   22.6193   -8.5757  -15.1140 N   0  0  0  0  0  0  0  0  0  0  0  0
   22.4330   -8.9203  -13.7256 C   0  0  0  0  0  0  0  0  0  0  0  0
   20.9080   -8.8518  -13.6375 C   0  0  0  0  0  0  0  0  0  0  0  0
   20.5372   -7.7017  -14.5452 C   0  0  0  0  0  0  0  0  0  0  0  0
   21.7948   -7.3650  -15.2816 C   0  0  1  0  0  0  0  0  0  0  0  0
   22.4479   -6.1859  -14.6901 C   0  0  0  0  0  0  0  0  0  0  0  0
   21.9792   -4.8874  -14.9050 O   0  0  0  0  0  0  0  0  0  0  0  0
   23.4582   -6.2903  -13.9635 O   0  0  0  0  0  0  0  0  0  0  0  0
  2  1  1  1
  2  7  1  0
  3  4  1  0
  3  2  1  0
  4  5  1  0
  5  6  2  0
  7  8  2  0
  9  5  1  0
 10  7  1  0
 10 11  1  0
 11 14  1  0
 12 13  1  0
 11 12  1  6
 14 16  1  0
 15 14  2  0
 16 17  1  0
 16 20  1  0
 17 18  1  0
 18 19  1  0
 20 19  1  0
 20 21  1  1
 21 22  1  0
 23 21  2  0
M  END
$$$$
