YID.pdb
     RDKit          3D

 29 29  0  0  1  0  0  0  0  0999 V2000
   23.6649  -16.2982  -18.8432 O   0  0  0  0  0  0  0  0  0  0  0  0
   23.5591  -17.1604  -17.7445 C   0  0  0  0  0  0  0  0  0  0  0  0
   23.4554  -16.6003  -16.4773 C   0  0  0  0  0  0  0  0  0  0  0  0
   23.3507  -17.4286  -15.3868 C   0  0  0  0  0  0  0  0  0  0  0  0
   23.3494  -18.7854  -15.5567 C   0  0  0  0  0  0  0  0  0  0  0  0
   23.2381  -19.6882  -14.4009 C   0  0  0  0  0  0  0  0  0  0  0  0
   24.5617  -19.9297  -13.7149 C   0  0  2  0  0  0  0  0  0  0  0  0
   25.4855  -20.6405  -14.5676 N   0  0  0  0  0  0  0  0  0  0  0  0
   24.2896  -20.7886  -12.5275 C   0  0  0  0  0  0  0  0  0  0  0  0
   24.2492  -22.0392  -12.6406 O   0  0  0  0  0  0  0  0  0  0  0  0
   23.4518  -19.3611  -16.8114 C   0  0  0  0  0  0  0  0  0  0  0  0
   23.5562  -18.5311  -17.8977 C   0  0  0  0  0  0  0  0  0  0  0  0
   26.4890  -19.5519   -7.7815 C   0  0  0  0  0  0  0  0  0  0  0  0
   26.0370  -20.4369   -8.9673 C   0  0  0  0  0  0  0  0  0  0  0  0
   24.5658  -20.5608   -8.8973 C   0  0  2  0  0  0  0  0  0  0  0  0
   24.2520  -21.4747   -7.7011 C   0  0  0  0  0  0  0  0  0  0  0  0
   23.9072  -21.1602  -10.1153 C   0  0  2  0  0  0  0  0  0  0  0  0
   24.0694  -20.2330  -11.2444 N   0  0  0  0  0  0  0  0  0  0  0  0
   22.4508  -21.2462   -9.8945 C   0  0  0  0  0  0  0  0  0  0  0  0
   21.7319  -20.1846   -9.7784 O   0  0  0  0  0  0  0  0  0  0  0  0
   21.6937  -22.4511   -9.7945 N   0  0  0  0  0  0  0  0  0  0  0  0
   20.2778  -22.4028   -9.6068 C   0  0  1  0  0  0  0  0  0  0  0  0
   19.5117  -23.1715  -10.6626 C   0  0  0  0  0  0  0  0  0  0  0  0
   18.0651  -23.2077  -10.4432 C   0  0  0  0  0  0  0  0  0  0  0  0
   17.5711  -22.5568   -9.4927 O   0  0  0  0  0  0  0  0  0  0  0  0
   19.9422  -22.9386   -8.2760 C   0  0  0  0  0  0  0  0  0  0  0  0
   20.6350  -23.9514   -7.6475 O   0  0  0  0  0  0  0  0  0  0  0  0
   17.1988  -23.9375  -11.2466 O   0  0  0  0  0  0  0  0  0  0  0  0
   18.9499  -22.4397   -7.6610 O   0  0  0  0  0  0  0  0  0  0  0  0
  2  3  2  0
  2  1  1  0
  4  3  1  0
  5  4  2  0
  6  5  1  0
  7  6  1  0
  7  8  1  6
  9 18  1  0
  9  7  1  0
 10  9  2  0
 11  5  1  0
 11 12  2  0
 12  2  1  0
 13 14  1  0
 14 15  1  0
 15 17  1  0
 15 16  1  1
 17 18  1  6
 19 17  1  0
 20 19  2  0
 21 19  1  0
 22 26  1  0
 22 21  1  0
 23 24  1  0
 22 23  1  6
 24 25  2  0
 26 27  1  0
 28 24  1  0
 29 26  2  0
M  END
$$$$
