YID.pdb
     RDKit          3D

 29 29  0  0  1  0  0  0  0  0999 V2000
   28.6811  -20.2918   -3.6191 O   0  0  0  0  0  0  0  0  0  0  0  0
   28.1266  -20.2213   -4.9034 C   0  0  0  0  0  0  0  0  0  0  0  0
   28.8506  -19.5744   -5.8971 C   0  0  0  0  0  0  0  0  0  0  0  0
   28.3244  -19.4944   -7.1632 C   0  0  0  0  0  0  0  0  0  0  0  0
   27.1031  -20.0475   -7.4319 C   0  0  0  0  0  0  0  0  0  0  0  0
   26.5235  -19.9718   -8.7816 C   0  0  0  0  0  0  0  0  0  0  0  0
   26.7007  -21.2483   -9.5691 C   0  0  2  0  0  0  0  0  0  0  0  0
   28.0951  -21.5834   -9.7399 N   0  0  0  0  0  0  0  0  0  0  0  0
   26.1233  -21.0117  -10.9227 C   0  0  0  0  0  0  0  0  0  0  0  0
   26.7773  -20.3877  -11.7952 O   0  0  0  0  0  0  0  0  0  0  0  0
   26.3677  -20.6958   -6.4546 C   0  0  0  0  0  0  0  0  0  0  0  0
   26.8962  -20.7736   -5.1919 C   0  0  0  0  0  0  0  0  0  0  0  0
   25.3088  -24.5872  -14.3579 C   0  0  0  0  0  0  0  0  0  0  0  0
   25.5986  -23.2165  -13.7014 C   0  0  0  0  0  0  0  0  0  0  0  0
   24.2998  -22.6089  -13.3430 C   0  0  2  0  0  0  0  0  0  0  0  0
   23.5229  -22.4117  -14.6553 C   0  0  0  0  0  0  0  0  0  0  0  0
   24.3792  -21.2693  -12.6534 C   0  0  2  0  0  0  0  0  0  0  0  0
   24.8320  -21.4762  -11.2703 N   0  0  0  0  0  0  0  0  0  0  0  0
   23.0244  -20.6972  -12.5330 C   0  0  0  0  0  0  0  0  0  0  0  0
   22.2191  -21.0841  -11.6061 O   0  0  0  0  0  0  0  0  0  0  0  0
   22.4673  -19.6916  -13.3776 N   0  0  0  0  0  0  0  0  0  0  0  0
   21.1163  -19.2619  -13.1973 C   0  0  1  0  0  0  0  0  0  0  0  0
   20.8192  -17.9377  -13.8688 C   0  0  0  0  0  0  0  0  0  0  0  0
   19.4584  -17.4471  -13.6461 C   0  0  0  0  0  0  0  0  0  0  0  0
   18.7295  -18.0186  -12.8016 O   0  0  0  0  0  0  0  0  0  0  0  0
   20.2016  -20.2900  -13.7237 C   0  0  0  0  0  0  0  0  0  0  0  0
   19.1219  -20.7982  -13.0333 O   0  0  0  0  0  0  0  0  0  0  0  0
   18.9256  -16.3643  -14.3331 O   0  0  0  0  0  0  0  0  0  0  0  0
   20.4159  -20.7434  -14.8901 O   0  0  0  0  0  0  0  0  0  0  0  0
  2  3  2  0
  2  1  1  0
  4  3  1  0
  5  4  2  0
  6  5  1  0
  7  6  1  0
  7  8  1  6
  9 18  1  0
  9  7  1  0
 10  9  2  0
 11  5  1  0
 11 12  2  0
 12  2  1  0
 13 14  1  0
 14 15  1  0
 15 17  1  0
 15 16  1  6
 17 18  1  1
 19 17  1  0
 20 19  2  0
 21 19  1  0
 22 26  1  0
 22 21  1  0
 23 24  1  0
 22 23  1  6
 24 25  2  0
 26 27  1  0
 28 24  1  0
 29 26  2  0
M  END
$$$$
