YID.pdb
     RDKit          3D

 29 29  0  0  1  0  0  0  0  0999 V2000
   27.3383  -16.0982  -20.8497 O   0  0  0  0  0  0  0  0  0  0  0  0
   26.6775  -16.9008  -19.9111 C   0  0  0  0  0  0  0  0  0  0  0  0
   26.5790  -16.4386  -18.6046 C   0  0  0  0  0  0  0  0  0  0  0  0
   25.9349  -17.2106  -17.6690 C   0  0  0  0  0  0  0  0  0  0  0  0
   25.4009  -18.4169  -18.0288 C   0  0  0  0  0  0  0  0  0  0  0  0
   24.7076  -19.2575  -17.0409 C   0  0  0  0  0  0  0  0  0  0  0  0
   25.6578  -20.0033  -16.1344 C   0  0  2  0  0  0  0  0  0  0  0  0
   26.4519  -20.9637  -16.8642 N   0  0  0  0  0  0  0  0  0  0  0  0
   24.8268  -20.7562  -15.1526 C   0  0  0  0  0  0  0  0  0  0  0  0
   24.4849  -21.9429  -15.3835 O   0  0  0  0  0  0  0  0  0  0  0  0
   25.4893  -18.8934  -19.3255 C   0  0  0  0  0  0  0  0  0  0  0  0
   26.1331  -18.1200  -20.2567 C   0  0  0  0  0  0  0  0  0  0  0  0
   25.7884  -20.6354   -9.8553 C   0  0  0  0  0  0  0  0  0  0  0  0
   25.4710  -21.1180  -11.2907 C   0  0  0  0  0  0  0  0  0  0  0  0
   24.0830  -20.7158  -11.6009 C   0  0  2  0  0  0  0  0  0  0  0  0
   23.1681  -21.4976  -10.6436 C   0  0  0  0  0  0  0  0  0  0  0  0
   23.6240  -21.0043  -13.0089 C   0  0  2  0  0  0  0  0  0  0  0  0
   24.3976  -20.1685  -13.9384 N   0  0  0  0  0  0  0  0  0  0  0  0
   22.2247  -20.5644  -13.1698 C   0  0  0  0  0  0  0  0  0  0  0  0
   21.8745  -19.3530  -12.9107 O   0  0  0  0  0  0  0  0  0  0  0  0
   21.1421  -21.3791  -13.6159 N   0  0  0  0  0  0  0  0  0  0  0  0
   19.8308  -20.8280  -13.7544 C   0  0  1  0  0  0  0  0  0  0  0  0
   19.0367  -21.4587  -14.8788 C   0  0  0  0  0  0  0  0  0  0  0  0
   19.3922  -20.9664  -16.2104 C   0  0  0  0  0  0  0  0  0  0  0  0
   20.2812  -20.0904  -16.3248 O   0  0  0  0  0  0  0  0  0  0  0  0
   19.0952  -20.9915  -12.4884 C   0  0  0  0  0  0  0  0  0  0  0  0
   18.2216  -20.0595  -11.9699 O   0  0  0  0  0  0  0  0  0  0  0  0
   18.7854  -21.4275  -17.3713 O   0  0  0  0  0  0  0  0  0  0  0  0
   19.2729  -22.0592  -11.8248 O   0  0  0  0  0  0  0  0  0  0  0  0
  2  3  2  0
  2  1  1  0
  4  3  1  0
  5  4  2  0
  6  5  1  0
  7  6  1  0
  7  8  1  6
  9 18  1  0
  9  7  1  0
 10  9  2  0
 11  5  1  0
 11 12  2  0
 12  2  1  0
 13 14  1  0
 14 15  1  0
 15 17  1  0
 15 16  1  1
 17 18  1  6
 19 17  1  0
 20 19  2  0
 21 19  1  0
 22 26  1  0
 22 21  1  0
 23 24  1  0
 22 23  1  6
 24 25  2  0
 26 27  1  0
 28 24  1  0
 29 26  2  0
M  END
$$$$
