YID.pdb
     RDKit          3D

 29 29  0  0  1  0  0  0  0  0999 V2000
   19.8597  -27.9308  -19.7842 O   0  0  0  0  0  0  0  0  0  0  0  0
   20.0375  -26.9497  -18.8006 C   0  0  0  0  0  0  0  0  0  0  0  0
   18.9340  -26.5651  -18.0492 C   0  0  0  0  0  0  0  0  0  0  0  0
   19.0872  -25.6045  -17.0796 C   0  0  0  0  0  0  0  0  0  0  0  0
   20.3140  -25.0401  -16.8645 C   0  0  0  0  0  0  0  0  0  0  0  0
   20.4975  -24.0100  -15.8309 C   0  0  0  0  0  0  0  0  0  0  0  0
   21.1610  -24.5421  -14.5828 C   0  0  2  0  0  0  0  0  0  0  0  0
   20.3181  -25.4880  -13.8896 N   0  0  0  0  0  0  0  0  0  0  0  0
   21.3805  -23.3812  -13.6743 C   0  0  0  0  0  0  0  0  0  0  0  0
   20.5652  -23.1296  -12.7521 O   0  0  0  0  0  0  0  0  0  0  0  0
   21.4244  -25.4108  -17.6034 C   0  0  0  0  0  0  0  0  0  0  0  0
   21.2676  -26.3700  -18.5703 C   0  0  0  0  0  0  0  0  0  0  0  0
   26.1023  -22.2204  -11.3619 C   0  0  0  0  0  0  0  0  0  0  0  0
   24.6110  -22.4908  -11.6728 C   0  0  0  0  0  0  0  0  0  0  0  0
   24.0978  -21.3363  -12.4399 C   0  0  2  0  0  0  0  0  0  0  0  0
   24.2470  -20.1001  -11.5377 C   0  0  0  0  0  0  0  0  0  0  0  0
   22.6503  -21.4264  -12.8558 C   0  0  2  0  0  0  0  0  0  0  0  0
   22.5025  -22.5297  -13.8159 N   0  0  0  0  0  0  0  0  0  0  0  0
   22.2777  -20.2115  -13.6058 C   0  0  0  0  0  0  0  0  0  0  0  0
   22.9585  -19.8262  -14.6282 O   0  0  0  0  0  0  0  0  0  0  0  0
   21.1712  -19.3597  -13.3142 N   0  0  0  0  0  0  0  0  0  0  0  0
   20.6172  -18.5198  -14.3290 C   0  0  1  0  0  0  0  0  0  0  0  0
   20.4223  -19.2333  -15.6502 C   0  0  0  0  0  0  0  0  0  0  0  0
   19.8169  -18.4041  -16.6932 C   0  0  0  0  0  0  0  0  0  0  0  0
   20.4021  -17.3601  -17.0654 O   0  0  0  0  0  0  0  0  0  0  0  0
   19.3233  -17.9856  -13.8694 C   0  0  0  0  0  0  0  0  0  0  0  0
   18.6768  -18.3925  -12.7217 O   0  0  0  0  0  0  0  0  0  0  0  0
   18.6088  -18.7200  -17.3008 O   0  0  0  0  0  0  0  0  0  0  0  0
   18.7598  -17.0910  -14.5722 O   0  0  0  0  0  0  0  0  0  0  0  0
  2  3  2  0
  2  1  1  0
  4  3  1  0
  5  4  2  0
  6  5  1  0
  7  6  1  0
  7  8  1  1
  9 18  1  0
  9  7  1  0
 10  9  2  0
 11  5  1  0
 11 12  2  0
 12  2  1  0
 13 14  1  0
 14 15  1  0
 15 17  1  0
 15 16  1  1
 17 18  1  6
 19 17  1  0
 20 19  2  0
 21 19  1  0
 22 26  1  0
 22 21  1  0
 23 24  1  0
 22 23  1  6
 24 25  2  0
 26 27  1  0
 28 24  1  0
 29 26  2  0
M  END
$$$$
