YID.pdb
     RDKit          3D

 29 29  0  0  1  0  0  0  0  0999 V2000
   30.4731   -2.1854  -21.2853 O   0  0  0  0  0  0  0  0  0  0  0  0
   29.5502   -3.1815  -20.9421 C   0  0  0  0  0  0  0  0  0  0  0  0
   29.4300   -3.5327  -19.6033 C   0  0  0  0  0  0  0  0  0  0  0  0
   28.5307   -4.5073  -19.2459 C   0  0  0  0  0  0  0  0  0  0  0  0
   27.7682   -5.1178  -20.2028 C   0  0  0  0  0  0  0  0  0  0  0  0
   26.8000   -6.1635  -19.8392 C   0  0  0  0  0  0  0  0  0  0  0  0
   27.4607   -7.4500  -19.4043 C   0  0  2  0  0  0  0  0  0  0  0  0
   28.1293   -8.1071  -20.5030 N   0  0  0  0  0  0  0  0  0  0  0  0
   26.3799   -8.3574  -18.9247 C   0  0  0  0  0  0  0  0  0  0  0  0
   25.8527   -9.1895  -19.7044 O   0  0  0  0  0  0  0  0  0  0  0  0
   27.8744   -4.7808  -21.5412 C   0  0  0  0  0  0  0  0  0  0  0  0
   28.7732   -3.8075  -21.8942 C   0  0  0  0  0  0  0  0  0  0  0  0
   25.6336  -12.1245  -14.6043 C   0  0  0  0  0  0  0  0  0  0  0  0
   24.7517  -11.2579  -15.5343 C   0  0  0  0  0  0  0  0  0  0  0  0
   25.6369  -10.2899  -16.2156 C   0  0  2  0  0  0  0  0  0  0  0  0
   26.3031   -9.4455  -15.1167 C   0  0  0  0  0  0  0  0  0  0  0  0
   24.9498   -9.3417  -17.1670 C   0  0  2  0  0  0  0  0  0  0  0  0
   25.9137   -8.3150  -17.5887 N   0  0  0  0  0  0  0  0  0  0  0  0
   23.8926   -8.6045  -16.4485 C   0  0  0  0  0  0  0  0  0  0  0  0
   24.1730   -7.5790  -15.7224 O   0  0  0  0  0  0  0  0  0  0  0  0
   22.5000   -8.9126  -16.4718 N   0  0  0  0  0  0  0  0  0  0  0  0
   21.5611   -8.0711  -15.7990 C   0  0  1  0  0  0  0  0  0  0  0  0
   20.6478   -7.3229  -16.7469 C   0  0  0  0  0  0  0  0  0  0  0  0
   19.6035   -6.5440  -16.0800 C   0  0  0  0  0  0  0  0  0  0  0  0
   19.9244   -5.7180  -15.1935 O   0  0  0  0  0  0  0  0  0  0  0  0
   20.7465   -8.8845  -14.8794 C   0  0  0  0  0  0  0  0  0  0  0  0
   20.0804   -8.3848  -13.7807 O   0  0  0  0  0  0  0  0  0  0  0  0
   18.2549   -6.6753  -16.3839 O   0  0  0  0  0  0  0  0  0  0  0  0
   20.6471  -10.1295  -15.1073 O   0  0  0  0  0  0  0  0  0  0  0  0
  2  3  2  0
  2  1  1  0
  4  3  1  0
  5  4  2  0
  6  5  1  0
  7  6  1  0
  7  8  1  6
  9 18  1  0
  9  7  1  0
 10  9  2  0
 11  5  1  0
 11 12  2  0
 12  2  1  0
 13 14  1  0
 14 15  1  0
 15 17  1  0
 15 16  1  1
 17 18  1  1
 19 17  1  0
 20 19  2  0
 21 19  1  0
 22 26  1  0
 22 21  1  0
 23 24  1  0
 22 23  1  6
 24 25  2  0
 26 27  1  0
 28 24  1  0
 29 26  2  0
M  END
$$$$
