YID.pdb
     RDKit          3D

 29 29  0  0  1  0  0  0  0  0999 V2000
   19.2104  -23.6664   -6.9875 O   0  0  0  0  0  0  0  0  0  0  0  0
   20.1262  -22.9076   -7.7274 C   0  0  0  0  0  0  0  0  0  0  0  0
   20.7857  -21.8661   -7.0868 C   0  0  0  0  0  0  0  0  0  0  0  0
   21.6877  -21.1100   -7.7947 C   0  0  0  0  0  0  0  0  0  0  0  0
   21.9263  -21.3868   -9.1123 C   0  0  0  0  0  0  0  0  0  0  0  0
   22.8886  -20.5882   -9.8866 C   0  0  0  0  0  0  0  0  0  0  0  0
   24.2977  -21.1253   -9.8047 C   0  0  2  0  0  0  0  0  0  0  0  0
   24.8468  -20.9889   -8.4758 N   0  0  0  0  0  0  0  0  0  0  0  0
   25.1338  -20.3045  -10.7260 C   0  0  0  0  0  0  0  0  0  0  0  0
   25.6448  -19.2259  -10.3335 O   0  0  0  0  0  0  0  0  0  0  0  0
   21.2786  -22.4204   -9.7669 C   0  0  0  0  0  0  0  0  0  0  0  0
   20.3789  -23.1730   -9.0570 C   0  0  0  0  0  0  0  0  0  0  0  0
   29.6668  -21.5893  -11.7020 C   0  0  0  0  0  0  0  0  0  0  0  0
   28.3757  -20.7576  -11.5143 C   0  0  0  0  0  0  0  0  0  0  0  0
   27.6796  -20.7123  -12.8173 C   0  0  2  0  0  0  0  0  0  0  0  0
   28.6330  -20.0237  -13.8080 C   0  0  0  0  0  0  0  0  0  0  0  0
   26.3780  -19.9494  -12.8306 C   0  0  2  0  0  0  0  0  0  0  0  0
   25.3795  -20.7057  -12.0611 N   0  0  0  0  0  0  0  0  0  0  0  0
   25.8487  -19.9040  -14.2073 C   0  0  0  0  0  0  0  0  0  0  0  0
   25.4354  -20.9714  -14.7964 O   0  0  0  0  0  0  0  0  0  0  0  0
   25.7270  -18.7339  -15.0141 N   0  0  0  0  0  0  0  0  0  0  0  0
   24.9571  -18.7616  -16.2178 C   0  0  1  0  0  0  0  0  0  0  0  0
   24.0728  -17.5441  -16.3857 C   0  0  0  0  0  0  0  0  0  0  0  0
   23.3377  -17.5097  -17.6508 C   0  0  0  0  0  0  0  0  0  0  0  0
   23.0204  -16.4035  -18.1475 O   0  0  0  0  0  0  0  0  0  0  0  0
   25.8625  -18.8684  -17.3752 C   0  0  0  0  0  0  0  0  0  0  0  0
   25.5702  -19.5616  -18.5305 O   0  0  0  0  0  0  0  0  0  0  0  0
   22.9682  -18.6576  -18.3395 O   0  0  0  0  0  0  0  0  0  0  0  0
   26.9888  -18.2860  -17.3116 O   0  0  0  0  0  0  0  0  0  0  0  0
  2  3  2  0
  2  1  1  0
  4  3  1  0
  5  4  2  0
  6  5  1  0
  7  6  1  0
  7  8  1  1
  9 18  1  0
  9  7  1  0
 10  9  2  0
 11  5  1  0
 11 12  2  0
 12  2  1  0
 13 14  1  0
 14 15  1  0
 15 17  1  0
 15 16  1  6
 17 18  1  1
 19 17  1  0
 20 19  2  0
 21 19  1  0
 22 26  1  0
 22 21  1  0
 23 24  1  0
 22 23  1  6
 24 25  2  0
 26 27  1  0
 28 24  1  0
 29 26  2  0
M  END
$$$$
