YID.pdb
     RDKit          3D

 29 29  0  0  1  0  0  0  0  0999 V2000
   25.6966  -41.1859  -14.8498 O   0  0  0  0  0  0  0  0  0  0  0  0
   26.0027  -40.0603  -14.0746 C   0  0  0  0  0  0  0  0  0  0  0  0
   25.0540  -39.6116  -13.1643 C   0  0  0  0  0  0  0  0  0  0  0  0
   25.3348  -38.5094  -12.3944 C   0  0  0  0  0  0  0  0  0  0  0  0
   26.5354  -37.8691  -12.5298 C   0  0  0  0  0  0  0  0  0  0  0  0
   26.8540  -36.6873  -11.7143 C   0  0  0  0  0  0  0  0  0  0  0  0
   25.9757  -35.5005  -12.0321 C   0  0  2  0  0  0  0  0  0  0  0  0
   26.2924  -34.9290  -13.3201 N   0  0  0  0  0  0  0  0  0  0  0  0
   26.2494  -34.4632  -10.9973 C   0  0  0  0  0  0  0  0  0  0  0  0
   26.9609  -33.4638  -11.2684 O   0  0  0  0  0  0  0  0  0  0  0  0
   27.4925  -38.3018  -13.4314 C   0  0  0  0  0  0  0  0  0  0  0  0
   27.2086  -39.4025  -14.1982 C   0  0  0  0  0  0  0  0  0  0  0  0
   22.6780  -31.5042   -8.9942 C   0  0  0  0  0  0  0  0  0  0  0  0
   24.0176  -32.0667   -9.5261 C   0  0  0  0  0  0  0  0  0  0  0  0
   24.6687  -32.7945   -8.4166 C   0  0  2  0  0  0  0  0  0  0  0  0
   24.9403  -31.7651   -7.3072 C   0  0  0  0  0  0  0  0  0  0  0  0
   25.9813  -33.4558   -8.7575 C   0  0  2  0  0  0  0  0  0  0  0  0
   25.7238  -34.5653   -9.6869 N   0  0  0  0  0  0  0  0  0  0  0  0
   26.5413  -34.0894   -7.5482 C   0  0  0  0  0  0  0  0  0  0  0  0
   25.9667  -35.1036   -7.0019 O   0  0  0  0  0  0  0  0  0  0  0  0
   27.7304  -33.6855   -6.8715 N   0  0  0  0  0  0  0  0  0  0  0  0
   28.1993  -34.4139   -5.7350 C   0  0  1  0  0  0  0  0  0  0  0  0
   29.6929  -34.2859   -5.5219 C   0  0  0  0  0  0  0  0  0  0  0  0
   30.1966  -35.0255   -4.3637 C   0  0  0  0  0  0  0  0  0  0  0  0
   29.3926  -35.6653   -3.6459 O   0  0  0  0  0  0  0  0  0  0  0  0
   27.4943  -33.9458   -4.5289 C   0  0  0  0  0  0  0  0  0  0  0  0
   26.8074  -32.7536   -4.4425 O   0  0  0  0  0  0  0  0  0  0  0  0
   31.5403  -35.0549   -4.0143 O   0  0  0  0  0  0  0  0  0  0  0  0
   27.5167  -34.6840   -3.4963 O   0  0  0  0  0  0  0  0  0  0  0  0
  2  3  2  0
  2  1  1  0
  4  3  1  0
  5  4  2  0
  6  5  1  0
  7  6  1  0
  7  8  1  6
  9 18  1  0
  9  7  1  0
 10  9  2  0
 11  5  1  0
 11 12  2  0
 12  2  1  0
 13 14  1  0
 14 15  1  0
 15 17  1  0
 15 16  1  1
 17 18  1  6
 19 17  1  0
 20 19  2  0
 21 19  1  0
 22 26  1  0
 22 21  1  0
 23 24  1  0
 22 23  1  1
 24 25  2  0
 26 27  1  0
 28 24  1  0
 29 26  2  0
M  END
$$$$
