YID.pdb
     RDKit          3D

 29 29  0  0  1  0  0  0  0  0999 V2000
   21.0682  -16.9142  -18.0658 O   0  0  0  0  0  0  0  0  0  0  0  0
   21.2403  -17.7433  -16.9501 C   0  0  0  0  0  0  0  0  0  0  0  0
   21.2295  -17.1594  -15.6896 C   0  0  0  0  0  0  0  0  0  0  0  0
   21.3965  -17.9551  -14.5826 C   0  0  0  0  0  0  0  0  0  0  0  0
   21.5704  -19.3033  -14.7301 C   0  0  0  0  0  0  0  0  0  0  0  0
   21.7508  -20.1714  -13.5566 C   0  0  0  0  0  0  0  0  0  0  0  0
   23.1134  -20.0250  -12.9218 C   0  0  2  0  0  0  0  0  0  0  0  0
   24.1686  -20.4410  -13.8160 N   0  0  0  0  0  0  0  0  0  0  0  0
   23.1436  -20.9272  -11.7358 C   0  0  0  0  0  0  0  0  0  0  0  0
   23.2751  -22.1682  -11.8814 O   0  0  0  0  0  0  0  0  0  0  0  0
   21.5839  -19.9025  -15.9779 C   0  0  0  0  0  0  0  0  0  0  0  0
   21.4169  -19.1050  -17.0806 C   0  0  0  0  0  0  0  0  0  0  0  0
   25.9587  -19.5143   -7.5066 C   0  0  0  0  0  0  0  0  0  0  0  0
   25.3977  -20.5274   -8.5326 C   0  0  0  0  0  0  0  0  0  0  0  0
   23.9715  -20.7453   -8.2117 C   0  0  2  0  0  0  0  0  0  0  0  0
   23.9271  -21.6833   -6.9940 C   0  0  0  0  0  0  0  0  0  0  0  0
   23.1504  -21.3796   -9.3071 C   0  0  2  0  0  0  0  0  0  0  0  0
   23.0265  -20.4245  -10.4177 N   0  0  0  0  0  0  0  0  0  0  0  0
   21.7713  -21.5924   -8.8273 C   0  0  0  0  0  0  0  0  0  0  0  0
   20.9838  -20.5985   -8.6047 O   0  0  0  0  0  0  0  0  0  0  0  0
   21.1653  -22.8579   -8.5702 N   0  0  0  0  0  0  0  0  0  0  0  0
   19.8072  -22.9344   -8.1318 C   0  0  1  0  0  0  0  0  0  0  0  0
   18.9487  -23.8215   -9.0085 C   0  0  0  0  0  0  0  0  0  0  0  0
   17.5918  -24.0294   -8.5011 C   0  0  0  0  0  0  0  0  0  0  0  0
   17.0198  -23.1039   -7.8787 O   0  0  0  0  0  0  0  0  0  0  0  0
   19.7678  -23.4352   -6.7467 C   0  0  0  0  0  0  0  0  0  0  0  0
   18.7241  -23.2221   -5.8716 O   0  0  0  0  0  0  0  0  0  0  0  0
   16.8952  -25.2178   -8.6767 O   0  0  0  0  0  0  0  0  0  0  0  0
   20.7577  -24.1083   -6.3237 O   0  0  0  0  0  0  0  0  0  0  0  0
  2  3  2  0
  2  1  1  0
  4  3  1  0
  5  4  2  0
  6  5  1  0
  7  6  1  0
  7  8  1  6
  9 18  1  0
  9  7  1  0
 10  9  2  0
 11  5  1  0
 11 12  2  0
 12  2  1  0
 13 14  1  0
 14 15  1  0
 15 17  1  0
 15 16  1  1
 17 18  1  6
 19 17  1  0
 20 19  2  0
 21 19  1  0
 22 26  1  0
 22 21  1  0
 23 24  1  0
 22 23  1  6
 24 25  2  0
 26 27  1  0
 28 24  1  0
 29 26  2  0
M  END
$$$$
