RCL.pdb
     RDKit          3D

 26 25  0  0  1  0  0  0  0  0999 V2000
    8.5211  -12.8860   16.6769 N   0  0  0  0  0  0  0  0  0  0  0  0
    7.7958  -13.1935   17.8492 C   0  0  0  0  0  0  0  0  0  0  0  0
    8.1589  -12.6866   18.9773 N   0  0  0  0  0  0  0  0  0  0  0  0
    6.6515  -14.0599   17.8455 N   0  0  0  0  0  0  0  0  0  0  0  0
    6.0644  -14.5798   19.0398 C   0  0  0  0  0  0  0  0  0  0  0  0
    7.1241  -15.1503   19.9889 C   0  0  0  0  0  0  0  0  0  0  0  0
    7.1236  -16.6625   19.9243 C   0  0  0  0  0  0  0  0  0  0  0  0
    8.1842  -17.1866   20.8688 C   0  0  2  0  0  0  0  0  0  0  0  0
    8.3202  -18.6179   20.6738 N   0  0  0  0  0  0  0  0  0  0  0  0
    7.8498  -16.9329   22.2798 C   0  0  0  0  0  0  0  0  0  0  0  0
    7.4404  -15.7910   22.6087 O   0  0  0  0  0  0  0  0  0  0  0  0
    7.6622  -12.9032   19.8540 N   0  0  0  0  0  0  0  0  0  0  0  0
    7.9603  -17.9053   23.3070 C   0  0  2  0  0  0  0  0  0  0  0  0
    7.5503  -17.6312   24.6594 C   0  0  0  0  0  0  0  0  0  0  0  0
    7.7296  -18.9385   25.4453 S   0  0  0  0  0  0  0  0  0  0  0  0
    7.2185  -18.5882   27.1501 C   0  0  0  0  0  0  0  0  0  0  0  0
    8.4287  -16.6408   25.3259 O   0  0  0  0  0  0  0  0  0  0  0  0
    9.6863  -16.7831   25.2037 C   0  0  0  0  0  0  0  0  0  0  0  0
    8.1114  -12.1515   25.0751 C   0  0  2  0  0  0  0  0  0  0  0  0
    7.3916  -12.7595   26.2371 C   0  0  0  0  0  0  0  0  0  0  0  0
    6.4902  -11.6694   26.8393 C   0  0  0  0  0  0  0  0  0  0  0  0
    8.1520  -13.4700   27.2674 C   0  0  2  0  0  0  0  0  0  0  0  0
    8.8695  -14.6910   26.8951 N   0  0  0  0  0  0  0  0  0  0  0  0
    7.9651  -15.5578   26.0824 C   0  0  0  0  0  0  0  0  0  0  0  0
    9.3351  -15.5294   27.9748 O   0  0  0  0  0  0  0  0  0  0  0  0
    8.8404  -16.6109   28.3407 O   0  0  0  0  0  0  0  0  0  0  0  0
  2  1  1  0
  2  3  2  0
  4  2  1  0
  5  4  1  0
  6  5  1  0
  7  6  1  0
  8  7  1  0
  8  9  1  1
 10  8  1  0
 10 12  1  0
 11 10  2  0
 13 12  1  0
 13 16  1  0
 13 14  1  1
 15 14  1  0
 16 23  1  0
 16 17  2  0
 19 18  1  6
 19 21  1  0
 20 19  1  0
 22 21  1  6
 22 24  1  0
 23 22  1  0
 24 26  1  0
 25 24  2  0
M  END
$$$$
