RCL.pdb
     RDKit          3D

 26 25  0  0  1  0  0  0  0  0999 V2000
    8.4599  -13.2948   15.4614 N   0  0  0  0  0  0  0  0  0  0  0  0
    9.0398  -14.3911   16.1374 C   0  0  0  0  0  0  0  0  0  0  0  0
    9.4136  -15.4287   15.4703 N   0  0  0  0  0  0  0  0  0  0  0  0
    9.2372  -14.4062   17.5590 N   0  0  0  0  0  0  0  0  0  0  0  0
    8.7939  -13.3540   18.4181 C   0  0  0  0  0  0  0  0  0  0  0  0
    7.2850  -13.4319   18.6753 C   0  0  0  0  0  0  0  0  0  0  0  0
    7.0184  -14.0010   20.0523 C   0  0  0  0  0  0  0  0  0  0  0  0
    7.4701  -15.4456   20.0736 C   0  0  2  0  0  0  0  0  0  0  0  0
    6.5521  -16.2360   19.2749 N   0  0  0  0  0  0  0  0  0  0  0  0
    7.5055  -15.9995   21.4370 C   0  0  0  0  0  0  0  0  0  0  0  0
    6.4252  -16.3487   21.9764 O   0  0  0  0  0  0  0  0  0  0  0  0
    9.7609  -16.2783   15.9389 N   0  0  0  0  0  0  0  0  0  0  0  0
    8.6943  -16.1679   22.1928 C   0  0  1  0  0  0  0  0  0  0  0  0
    8.6743  -16.6935   23.5328 C   0  0  0  0  0  0  0  0  0  0  0  0
    9.6566  -17.8739   23.5554 S   0  0  0  0  0  0  0  0  0  0  0  0
    9.6795  -18.4917   25.2607 C   0  0  0  0  0  0  0  0  0  0  0  0
    9.1917  -15.7241   24.5273 O   0  0  0  0  0  0  0  0  0  0  0  0
   10.3977  -15.3384   24.4110 C   0  0  0  0  0  0  0  0  0  0  0  0
    7.5432  -11.7508   25.0903 C   0  0  2  0  0  0  0  0  0  0  0  0
    6.9859  -12.7317   26.0729 C   0  0  0  0  0  0  0  0  0  0  0  0
    5.7816  -12.0628   26.7554 C   0  0  0  0  0  0  0  0  0  0  0  0
    7.8782  -13.3699   27.0429 C   0  0  2  0  0  0  0  0  0  0  0  0
    8.9811  -14.1955   26.5466 N   0  0  0  0  0  0  0  0  0  0  0  0
    8.4400  -15.2044   25.5879 C   0  0  0  0  0  0  0  0  0  0  0  0
    9.7195  -14.9563   27.5271 O   0  0  0  0  0  0  0  0  0  0  0  0
    9.5473  -16.1531   27.8209 O   0  0  0  0  0  0  0  0  0  0  0  0
  2  1  1  0
  2  3  2  0
  4  2  1  0
  5  4  1  0
  6  5  1  0
  7  6  1  0
  8  7  1  0
  8  9  1  6
 10  8  1  0
 10 12  1  0
 11 10  2  0
 13 12  1  0
 13 16  1  0
 13 14  1  6
 15 14  1  0
 16 23  1  0
 16 17  2  0
 19 18  1  6
 19 21  1  0
 20 19  1  0
 22 21  1  6
 22 24  1  0
 23 22  1  0
 24 26  1  0
 25 24  2  0
M  END
$$$$
