RCL.pdb
     RDKit          3D

 26 25  0  0  1  0  0  0  0  0999 V2000
    9.1311  -13.3730   16.1673 N   0  0  0  0  0  0  0  0  0  0  0  0
    8.5950  -12.9962   17.4186 C   0  0  0  0  0  0  0  0  0  0  0  0
    9.3100  -12.3052   18.2387 N   0  0  0  0  0  0  0  0  0  0  0  0
    7.2667  -13.3524   17.8294 N   0  0  0  0  0  0  0  0  0  0  0  0
    6.9331  -13.6931   19.1763 C   0  0  0  0  0  0  0  0  0  0  0  0
    7.6705  -14.9543   19.6397 C   0  0  0  0  0  0  0  0  0  0  0  0
    6.9815  -16.1899   19.1015 C   0  0  0  0  0  0  0  0  0  0  0  0
    7.7014  -17.4127   19.6288 C   0  0  2  0  0  0  0  0  0  0  0  0
    7.0909  -18.5990   19.0585 N   0  0  0  0  0  0  0  0  0  0  0  0
    7.6370  -17.5088   21.0964 C   0  0  0  0  0  0  0  0  0  0  0  0
    6.5104  -17.5114   21.6537 O   0  0  0  0  0  0  0  0  0  0  0  0
    9.0032  -12.1244   19.2059 N   0  0  0  0  0  0  0  0  0  0  0  0
    8.7778  -17.6003   21.9348 C   0  0  2  0  0  0  0  0  0  0  0  0
    8.6694  -17.5748   23.3700 C   0  0  0  0  0  0  0  0  0  0  0  0
    9.8265  -18.4270   23.9122 S   0  0  0  0  0  0  0  0  0  0  0  0
   11.3566  -17.6542   23.3191 C   0  0  0  0  0  0  0  0  0  0  0  0
    8.8775  -16.2175   23.9279 O   0  0  0  0  0  0  0  0  0  0  0  0
    9.6235  -15.4162   23.2814 C   0  0  0  0  0  0  0  0  0  0  0  0
    7.7126  -12.1431   27.6820 C   0  0  1  0  0  0  0  0  0  0  0  0
    7.0939  -12.3926   26.3429 C   0  0  0  0  0  0  0  0  0  0  0  0
    5.6463  -11.8787   26.4039 C   0  0  0  0  0  0  0  0  0  0  0  0
    7.1748  -13.7275   25.7464 C   0  0  1  0  0  0  0  0  0  0  0  0
    8.4879  -14.3637   25.6220 N   0  0  0  0  0  0  0  0  0  0  0  0
    8.3066  -15.7587   25.1211 C   0  0  0  0  0  0  0  0  0  0  0  0
    9.2696  -14.4889   26.8297 O   0  0  0  0  0  0  0  0  0  0  0  0
   10.1724  -13.7227   27.2119 O   0  0  0  0  0  0  0  0  0  0  0  0
  2  1  1  0
  2  3  2  0
  4  2  1  0
  5  4  1  0
  6  5  1  0
  7  6  1  0
  8  7  1  0
  8  9  1  6
 10  8  1  0
 10 12  1  0
 11 10  2  0
 13 12  1  0
 13 16  1  0
 13 14  1  6
 15 14  1  0
 16 23  1  0
 16 17  2  0
 19 18  1  6
 19 21  1  0
 20 19  1  0
 22 21  1  6
 22 24  1  0
 23 22  1  0
 24 26  1  0
 25 24  2  0
M  END
$$$$
