RCL.pdb
     RDKit          3D

 26 25  0  0  1  0  0  0  0  0999 V2000
   10.9509  -13.6120   19.6932 N   0  0  0  0  0  0  0  0  0  0  0  0
    9.8109  -13.2537   18.9401 C   0  0  0  0  0  0  0  0  0  0  0  0
    9.3237  -12.0649   19.0438 N   0  0  0  0  0  0  0  0  0  0  0  0
    9.1559  -14.1668   18.0472 N   0  0  0  0  0  0  0  0  0  0  0  0
    8.2927  -15.2124   18.4979 C   0  0  0  0  0  0  0  0  0  0  0  0
    7.0025  -14.6560   19.1103 C   0  0  0  0  0  0  0  0  0  0  0  0
    6.0845  -15.7897   19.5143 C   0  0  0  0  0  0  0  0  0  0  0  0
    6.9116  -16.8642   20.1874 C   0  0  2  0  0  0  0  0  0  0  0  0
    6.5946  -18.1460   19.5858 N   0  0  0  0  0  0  0  0  0  0  0  0
    6.6508  -16.9452   21.6339 C   0  0  0  0  0  0  0  0  0  0  0  0
    5.4902  -17.2282   22.0245 O   0  0  0  0  0  0  0  0  0  0  0  0
    8.4881  -11.7735   18.5156 N   0  0  0  0  0  0  0  0  0  0  0  0
    7.6363  -16.7223   22.6300 C   0  0  2  0  0  0  0  0  0  0  0  0
    7.3461  -16.8714   24.0320 C   0  0  0  0  0  0  0  0  0  0  0  0
    7.7105  -18.3164   24.4038 S   0  0  0  0  0  0  0  0  0  0  0  0
    7.3681  -18.4935   26.1762 C   0  0  0  0  0  0  0  0  0  0  0  0
    8.2050  -16.0119   24.8808 O   0  0  0  0  0  0  0  0  0  0  0  0
    9.4636  -16.0776   24.7132 C   0  0  0  0  0  0  0  0  0  0  0  0
    6.9895  -11.8045   25.4860 C   0  0  1  0  0  0  0  0  0  0  0  0
    6.6984  -12.6262   26.7018 C   0  0  0  0  0  0  0  0  0  0  0  0
    5.8513  -11.7601   27.6483 C   0  0  0  0  0  0  0  0  0  0  0  0
    7.7973  -13.2902   27.4059 C   0  0  2  0  0  0  0  0  0  0  0  0
    8.6158  -14.2605   26.6758 N   0  0  0  0  0  0  0  0  0  0  0  0
    7.7217  -15.1316   25.8563 C   0  0  0  0  0  0  0  0  0  0  0  0
    9.4140  -15.1674   27.4668 O   0  0  0  0  0  0  0  0  0  0  0  0
    9.1815  -16.3720   27.6749 O   0  0  0  0  0  0  0  0  0  0  0  0
  2  1  1  0
  2  3  2  0
  4  2  1  0
  5  4  1  0
  6  5  1  0
  7  6  1  0
  8  7  1  0
  8  9  1  6
 10  8  1  0
 10 12  1  0
 11 10  2  0
 13 12  1  0
 13 16  1  0
 13 14  1  6
 15 14  1  0
 16 23  1  0
 16 17  2  0
 19 18  1  6
 19 21  1  0
 20 19  1  0
 22 21  1  6
 22 24  1  0
 23 22  1  0
 24 26  1  0
 25 24  2  0
M  END
$$$$
