RCL.pdb
     RDKit          3D

 26 25  0  0  1  0  0  0  0  0999 V2000
    8.7025  -15.5421   14.2124 N   0  0  0  0  0  0  0  0  0  0  0  0
    8.1725  -14.4850   14.9847 C   0  0  0  0  0  0  0  0  0  0  0  0
    7.0403  -13.9612   14.6603 N   0  0  0  0  0  0  0  0  0  0  0  0
    8.8464  -13.9552   16.1359 N   0  0  0  0  0  0  0  0  0  0  0  0
    8.9431  -14.6604   17.3748 C   0  0  0  0  0  0  0  0  0  0  0  0
    7.8495  -14.2287   18.3580 C   0  0  0  0  0  0  0  0  0  0  0  0
    8.4717  -13.6458   19.6087 C   0  0  0  0  0  0  0  0  0  0  0  0
    8.7653  -14.7750   20.5733 C   0  0  2  0  0  0  0  0  0  0  0  0
    7.6763  -15.7324   20.5203 N   0  0  0  0  0  0  0  0  0  0  0  0
    8.9095  -14.3016   21.9597 C   0  0  0  0  0  0  0  0  0  0  0  0
    9.6833  -13.3390   22.1930 O   0  0  0  0  0  0  0  0  0  0  0  0
    6.6545  -13.1491   15.1641 N   0  0  0  0  0  0  0  0  0  0  0  0
    8.2234  -14.8675   23.0651 C   0  0  1  0  0  0  0  0  0  0  0  0
    8.5329  -14.4973   24.4213 C   0  0  0  0  0  0  0  0  0  0  0  0
    7.2034  -14.1059   25.0832 S   0  0  0  0  0  0  0  0  0  0  0  0
    6.4510  -15.6461   25.6765 C   0  0  0  0  0  0  0  0  0  0  0  0
    9.0528  -15.6374   25.2130 O   0  0  0  0  0  0  0  0  0  0  0  0
    8.3014  -16.6525   25.3591 C   0  0  0  0  0  0  0  0  0  0  0  0
   11.4438  -13.3920   28.3953 C   0  0  2  0  0  0  0  0  0  0  0  0
   10.0579  -13.8979   28.1478 C   0  0  0  0  0  0  0  0  0  0  0  0
    9.1197  -13.1560   29.1137 C   0  0  0  0  0  0  0  0  0  0  0  0
    9.8050  -15.3403   28.1410 C   0  0  2  0  0  0  0  0  0  0  0  0
   10.5456  -16.1796   27.1969 N   0  0  0  0  0  0  0  0  0  0  0  0
   10.3180  -15.6705   25.8118 C   0  0  0  0  0  0  0  0  0  0  0  0
   10.1940  -17.5795   27.1531 O   0  0  0  0  0  0  0  0  0  0  0  0
    9.4078  -18.1225   26.3560 O   0  0  0  0  0  0  0  0  0  0  0  0
  2  1  1  0
  2  3  2  0
  4  2  1  0
  5  4  1  0
  6  5  1  0
  7  6  1  0
  8  7  1  0
  8  9  1  1
 10  8  1  0
 10 12  1  0
 11 10  2  0
 13 12  1  0
 13 16  1  0
 13 14  1  1
 15 14  1  0
 16 23  1  0
 16 17  2  0
 19 18  1  6
 19 21  1  0
 20 19  1  0
 22 21  1  1
 22 24  1  0
 23 22  1  0
 24 26  1  0
 25 24  2  0
M  END
$$$$
