RCL.pdb
     RDKit          3D

 26 25  0  0  1  0  0  0  0  0999 V2000
    8.4430  -19.9201   18.0607 N   0  0  0  0  0  0  0  0  0  0  0  0
    9.6995  -20.5535   18.1821 C   0  0  0  0  0  0  0  0  0  0  0  0
   10.0179  -21.5034   17.3711 N   0  0  0  0  0  0  0  0  0  0  0  0
   10.6583  -20.1836   19.1842 N   0  0  0  0  0  0  0  0  0  0  0  0
   10.4401  -19.1237   20.1172 C   0  0  0  0  0  0  0  0  0  0  0  0
    9.1773  -19.3580   20.9538 C   0  0  0  0  0  0  0  0  0  0  0  0
    9.0757  -18.3179   22.0489 C   0  0  0  0  0  0  0  0  0  0  0  0
    8.4439  -17.0692   21.4718 C   0  0  2  0  0  0  0  0  0  0  0  0
    9.0722  -16.7713   20.1982 N   0  0  0  0  0  0  0  0  0  0  0  0
    8.5996  -15.9041   22.3580 C   0  0  0  0  0  0  0  0  0  0  0  0
    9.6335  -15.1973   22.2521 O   0  0  0  0  0  0  0  0  0  0  0  0
   10.9024  -22.0237   17.4660 N   0  0  0  0  0  0  0  0  0  0  0  0
    7.6468  -15.5207   23.3368 C   0  0  2  0  0  0  0  0  0  0  0  0
    7.8452  -14.3713   24.1804 C   0  0  0  0  0  0  0  0  0  0  0  0
    6.5187  -14.1342   24.9173 S   0  0  0  0  0  0  0  0  0  0  0  0
    6.7747  -12.6911   25.9861 C   0  0  0  0  0  0  0  0  0  0  0  0
    8.8525  -14.6157   25.2398 O   0  0  0  0  0  0  0  0  0  0  0  0
    9.1075  -13.6683   26.0486 C   0  0  0  0  0  0  0  0  0  0  0  0
   11.1714  -14.6974   29.3864 C   0  0  2  0  0  0  0  0  0  0  0  0
    9.9328  -14.5375   28.5628 C   0  0  0  0  0  0  0  0  0  0  0  0
    8.8589  -13.9106   29.4669 C   0  0  0  0  0  0  0  0  0  0  0  0
    9.4129  -15.6804   27.8092 C   0  0  2  0  0  0  0  0  0  0  0  0
   10.2026  -16.2044   26.6929 N   0  0  0  0  0  0  0  0  0  0  0  0
    9.5430  -15.8217   25.4090 C   0  0  0  0  0  0  0  0  0  0  0  0
   10.3679  -17.6374   26.6263 O   0  0  0  0  0  0  0  0  0  0  0  0
    9.5432  -18.4599   26.1886 O   0  0  0  0  0  0  0  0  0  0  0  0
  2  1  1  0
  2  3  2  0
  4  2  1  0
  5  4  1  0
  6  5  1  0
  7  6  1  0
  8  7  1  0
  8  9  1  6
 10  8  1  0
 10 12  1  0
 11 10  2  0
 13 12  1  0
 13 16  1  0
 13 14  1  1
 15 14  1  0
 16 23  1  0
 16 17  2  0
 19 18  1  6
 19 21  1  0
 20 19  1  0
 22 21  1  6
 22 24  1  0
 23 22  1  0
 24 26  1  0
 25 24  2  0
M  END
$$$$
