RCL.pdb
     RDKit          3D

 26 25  0  0  1  0  0  0  0  0999 V2000
    9.6649  -13.3987   18.3464 N   0  0  0  0  0  0  0  0  0  0  0  0
    8.6543  -12.6537   18.9934 C   0  0  0  0  0  0  0  0  0  0  0  0
    8.8978  -11.4496   19.3835 N   0  0  0  0  0  0  0  0  0  0  0  0
    7.3434  -13.1826   19.2425 N   0  0  0  0  0  0  0  0  0  0  0  0
    6.9788  -14.5320   18.9463 C   0  0  0  0  0  0  0  0  0  0  0  0
    7.5411  -15.5103   19.9837 C   0  0  0  0  0  0  0  0  0  0  0  0
    7.2485  -16.9364   19.5693 C   0  0  0  0  0  0  0  0  0  0  0  0
    7.7118  -17.8643   20.6720 C   0  0  2  0  0  0  0  0  0  0  0  0
    7.3041  -19.2186   20.3477 N   0  0  0  0  0  0  0  0  0  0  0  0
    7.1447  -17.5023   21.9814 C   0  0  0  0  0  0  0  0  0  0  0  0
    5.9260  -17.2026   22.0508 O   0  0  0  0  0  0  0  0  0  0  0  0
    8.2071  -10.9029   19.9185 N   0  0  0  0  0  0  0  0  0  0  0  0
    7.8926  -17.4691   23.1865 C   0  0  2  0  0  0  0  0  0  0  0  0
    7.3067  -17.0493   24.4325 C   0  0  0  0  0  0  0  0  0  0  0  0
    7.1959  -18.3050   25.3099 S   0  0  0  0  0  0  0  0  0  0  0  0
    8.8911  -18.8822   25.5984 C   0  0  0  0  0  0  0  0  0  0  0  0
    8.1806  -16.1149   25.1808 O   0  0  0  0  0  0  0  0  0  0  0  0
    9.4222  -16.1126   24.9070 C   0  0  0  0  0  0  0  0  0  0  0  0
    7.8364  -11.7634   25.1386 C   0  0  2  0  0  0  0  0  0  0  0  0
    7.1219  -12.3953   26.2911 C   0  0  0  0  0  0  0  0  0  0  0  0
    6.2141  -11.3212   26.9123 C   0  0  0  0  0  0  0  0  0  0  0  0
    7.8881  -13.1178   27.3087 C   0  0  2  0  0  0  0  0  0  0  0  0
    8.6401  -14.3089   26.9087 N   0  0  0  0  0  0  0  0  0  0  0  0
    7.7292  -15.2337   26.1707 C   0  0  0  0  0  0  0  0  0  0  0  0
    9.2163  -15.1033   27.9680 O   0  0  0  0  0  0  0  0  0  0  0  0
    8.8229  -16.2176   28.3579 O   0  0  0  0  0  0  0  0  0  0  0  0
  2  1  1  0
  2  3  2  0
  4  2  1  0
  5  4  1  0
  6  5  1  0
  7  6  1  0
  8  7  1  0
  8  9  1  6
 10  8  1  0
 10 12  1  0
 11 10  2  0
 13 12  1  0
 13 16  1  0
 13 14  1  6
 15 14  1  0
 16 23  1  0
 16 17  2  0
 19 18  1  6
 19 21  1  0
 20 19  1  0
 22 21  1  6
 22 24  1  0
 23 22  1  0
 24 26  1  0
 25 24  2  0
M  END
$$$$
