RCL.pdb
     RDKit          3D

 26 25  0  0  1  0  0  0  0  0999 V2000
   13.6670  -14.7306   21.3632 N   0  0  0  0  0  0  0  0  0  0  0  0
   14.0739  -14.7790   20.0116 C   0  0  0  0  0  0  0  0  0  0  0  0
   15.0727  -14.0655   19.6184 N   0  0  0  0  0  0  0  0  0  0  0  0
   13.4164  -15.6004   19.0352 N   0  0  0  0  0  0  0  0  0  0  0  0
   12.1113  -16.1483   19.2300 C   0  0  0  0  0  0  0  0  0  0  0  0
   11.0661  -15.0511   19.4603 C   0  0  0  0  0  0  0  0  0  0  0  0
    9.7101  -15.6688   19.7262 C   0  0  0  0  0  0  0  0  0  0  0  0
    8.7308  -14.5616   20.0531 C   0  0  2  0  0  0  0  0  0  0  0  0
    9.0911  -13.3778   19.2954 N   0  0  0  0  0  0  0  0  0  0  0  0
    8.7298  -14.2220   21.4855 C   0  0  0  0  0  0  0  0  0  0  0  0
    9.5279  -13.3437   21.8996 O   0  0  0  0  0  0  0  0  0  0  0  0
   15.4069  -14.0908   18.6438 N   0  0  0  0  0  0  0  0  0  0  0  0
    7.8761  -14.8286   22.4426 C   0  0  1  0  0  0  0  0  0  0  0  0
    7.9267  -14.4754   23.8372 C   0  0  0  0  0  0  0  0  0  0  0  0
    6.5549  -14.8310   24.4295 S   0  0  0  0  0  0  0  0  0  0  0  0
    6.4840  -14.0527   26.0664 C   0  0  0  0  0  0  0  0  0  0  0  0
    8.9101  -15.2894   24.5903 O   0  0  0  0  0  0  0  0  0  0  0  0
    9.5321  -16.2032   23.9620 C   0  0  0  0  0  0  0  0  0  0  0  0
   11.1976  -13.1416   27.7371 C   0  0  1  0  0  0  0  0  0  0  0  0
   10.2150  -14.0749   28.3708 C   0  0  0  0  0  0  0  0  0  0  0  0
   10.2400  -13.8081   29.8846 C   0  0  0  0  0  0  0  0  0  0  0  0
   10.2777  -15.5061   28.0674 C   0  0  2  0  0  0  0  0  0  0  0  0
   10.2271  -15.9309   26.6669 N   0  0  0  0  0  0  0  0  0  0  0  0
    9.1997  -15.1189   25.9494 C   0  0  0  0  0  0  0  0  0  0  0  0
    9.8719  -17.3076   26.4148 O   0  0  0  0  0  0  0  0  0  0  0  0
    8.7649  -17.7308   26.0355 O   0  0  0  0  0  0  0  0  0  0  0  0
  2  1  1  0
  2  3  2  0
  4  2  1  0
  5  4  1  0
  6  5  1  0
  7  6  1  0
  8  7  1  0
  8  9  1  6
 10  8  1  0
 10 12  1  0
 11 10  2  0
 13 12  1  0
 13 16  1  0
 13 14  1  1
 15 14  1  0
 16 23  1  0
 16 17  2  0
 19 18  1  6
 19 21  1  0
 20 19  1  0
 22 21  1  6
 22 24  1  0
 23 22  1  0
 24 26  1  0
 25 24  2  0
M  END
$$$$
