RCL.pdb
     RDKit          3D

 26 25  0  0  1  0  0  0  0  0999 V2000
   10.1185  -13.3216   20.3256 N   0  0  0  0  0  0  0  0  0  0  0  0
    8.9544  -13.3945   19.5291 C   0  0  0  0  0  0  0  0  0  0  0  0
    8.2998  -12.3190   19.2532 N   0  0  0  0  0  0  0  0  0  0  0  0
    8.4551  -14.6324   19.0013 N   0  0  0  0  0  0  0  0  0  0  0  0
    9.0007  -15.9053   19.3525 C   0  0  0  0  0  0  0  0  0  0  0  0
    7.9142  -16.8723   19.8357 C   0  0  0  0  0  0  0  0  0  0  0  0
    8.5276  -18.2069   20.2017 C   0  0  0  0  0  0  0  0  0  0  0  0
    7.4411  -19.1007   20.7604 C   0  0  2  0  0  0  0  0  0  0  0  0
    6.2929  -19.0533   19.8746 N   0  0  0  0  0  0  0  0  0  0  0  0
    7.0148  -18.6863   22.1071 C   0  0  0  0  0  0  0  0  0  0  0  0
    6.0449  -17.8945   22.2177 O   0  0  0  0  0  0  0  0  0  0  0  0
    7.4578  -12.3341   18.6591 N   0  0  0  0  0  0  0  0  0  0  0  0
    7.6343  -19.1275   23.3047 C   0  0  2  0  0  0  0  0  0  0  0  0
    7.3020  -18.5601   24.5853 C   0  0  0  0  0  0  0  0  0  0  0  0
    7.9851  -19.4379   25.6443 S   0  0  0  0  0  0  0  0  0  0  0  0
    7.5511  -18.7301   27.2571 C   0  0  0  0  0  0  0  0  0  0  0  0
    7.8691  -17.2026   24.7655 O   0  0  0  0  0  0  0  0  0  0  0  0
    9.0649  -17.0014   24.3831 C   0  0  0  0  0  0  0  0  0  0  0  0
    7.8679  -11.9472   27.0858 C   0  0  1  0  0  0  0  0  0  0  0  0
    7.0498  -12.3904   25.9144 C   0  0  0  0  0  0  0  0  0  0  0  0
    5.8074  -11.4869   25.8549 C   0  0  0  0  0  0  0  0  0  0  0  0
    6.7031  -13.8057   25.7684 C   0  0  2  0  0  0  0  0  0  0  0  0
    7.7705  -14.7645   25.4755 N   0  0  0  0  0  0  0  0  0  0  0  0
    7.1746  -16.1259   25.3298 C   0  0  0  0  0  0  0  0  0  0  0  0
    8.8111  -14.9058   26.4667 O   0  0  0  0  0  0  0  0  0  0  0  0
    8.7322  -15.5273   27.5418 O   0  0  0  0  0  0  0  0  0  0  0  0
  2  1  1  0
  2  3  2  0
  4  2  1  0
  5  4  1  0
  6  5  1  0
  7  6  1  0
  8  7  1  0
  8  9  1  6
 10  8  1  0
 10 12  1  0
 11 10  2  0
 13 12  1  0
 13 16  1  0
 13 14  1  1
 15 14  1  0
 16 23  1  0
 16 17  2  0
 19 18  1  6
 19 21  1  0
 20 19  1  0
 22 21  1  6
 22 24  1  0
 23 22  1  0
 24 26  1  0
 25 24  2  0
M  END
$$$$
