RCL.pdb
     RDKit          3D

 26 25  0  0  1  0  0  0  0  0999 V2000
    7.8137  -23.2632   20.4453 N   0  0  0  0  0  0  0  0  0  0  0  0
    8.6069  -23.6430   21.5506 C   0  0  0  0  0  0  0  0  0  0  0  0
    9.1838  -24.7957   21.5578 N   0  0  0  0  0  0  0  0  0  0  0  0
    8.8058  -22.7912   22.6886 N   0  0  0  0  0  0  0  0  0  0  0  0
    8.3006  -21.4566   22.7602 C   0  0  0  0  0  0  0  0  0  0  0  0
    8.6468  -20.6528   21.5019 C   0  0  0  0  0  0  0  0  0  0  0  0
    9.1173  -19.2651   21.8813 C   0  0  0  0  0  0  0  0  0  0  0  0
    9.2702  -18.4448   20.6183 C   0  0  2  0  0  0  0  0  0  0  0  0
   10.4504  -18.8968   19.9053 N   0  0  0  0  0  0  0  0  0  0  0  0
    9.4118  -17.0069   20.9001 C   0  0  0  0  0  0  0  0  0  0  0  0
   10.0987  -16.3020   20.1184 O   0  0  0  0  0  0  0  0  0  0  0  0
    9.8543  -25.0618   22.2939 N   0  0  0  0  0  0  0  0  0  0  0  0
    8.8160  -16.3551   22.0105 C   0  0  2  0  0  0  0  0  0  0  0  0
    8.9048  -14.9298   22.1918 C   0  0  0  0  0  0  0  0  0  0  0  0
    8.0219  -14.2942   21.1077 S   0  0  0  0  0  0  0  0  0  0  0  0
    6.3426  -14.9252   21.3764 C   0  0  0  0  0  0  0  0  0  0  0  0
    8.3301  -14.4883   23.4846 O   0  0  0  0  0  0  0  0  0  0  0  0
    7.1543  -14.0044   23.4791 C   0  0  0  0  0  0  0  0  0  0  0  0
    7.5955  -12.2113   27.2552 C   0  0  2  0  0  0  0  0  0  0  0  0
    6.7993  -12.8862   26.1835 C   0  0  0  0  0  0  0  0  0  0  0  0
    5.3274  -12.4931   26.3895 C   0  0  0  0  0  0  0  0  0  0  0  0
    6.9546  -14.3259   25.9653 C   0  0  2  0  0  0  0  0  0  0  0  0
    8.3015  -14.9000   25.9922 N   0  0  0  0  0  0  0  0  0  0  0  0
    8.9969  -14.5684   24.7131 C   0  0  0  0  0  0  0  0  0  0  0  0
    8.3969  -16.3352   26.1192 O   0  0  0  0  0  0  0  0  0  0  0  0
    7.7866  -17.1822   25.4421 O   0  0  0  0  0  0  0  0  0  0  0  0
  2  1  1  0
  2  3  2  0
  4  2  1  0
  5  4  1  0
  6  5  1  0
  7  6  1  0
  8  7  1  0
  8  9  1  1
 10  8  1  0
 10 12  1  0
 11 10  2  0
 13 12  1  0
 13 16  1  0
 13 14  1  6
 15 14  1  0
 16 23  1  0
 16 17  2  0
 19 18  1  6
 19 21  1  0
 20 19  1  0
 22 21  1  1
 22 24  1  0
 23 22  1  0
 24 26  1  0
 25 24  2  0
M  END
$$$$
