HEH.pdb
     RDKit          3D

 30 31  0  0  1  0  0  0  0  0999 V2000
   15.3645  -12.8040  -14.9155 N   0  0  0  0  0  0  0  0  0  0  0  0
   15.9463  -12.0564  -15.9876 C   0  0  1  0  0  0  0  0  0  0  0  0
   14.9201  -11.1508  -16.5910 C   0  0  0  0  0  0  0  0  0  0  0  0
   13.9232  -12.0203  -17.2909 C   0  0  0  0  0  0  0  0  0  0  0  0
   13.8742  -12.3507  -18.6315 C   0  0  0  0  0  0  0  0  0  0  0  0
   12.8183  -13.1585  -18.8454 N   0  0  0  0  0  0  0  0  0  0  0  0
   12.2000  -13.3478  -17.6822 C   0  0  0  0  0  0  0  0  0  0  0  0
   12.8570  -12.6664  -16.7372 N   0  0  0  0  0  0  0  0  0  0  0  0
   17.1916  -11.3637  -15.6128 C   0  0  0  0  0  0  0  0  0  0  0  0
   17.2615  -10.6975  -14.5507 O   0  0  0  0  0  0  0  0  0  0  0  0
   18.3932  -11.3983  -16.4175 N   0  0  0  0  0  0  0  0  0  0  0  0
   19.5976  -10.7395  -16.0628 C   0  0  1  0  0  0  0  0  0  0  0  0
   20.8909  -11.3336  -16.4554 C   0  0  0  0  0  0  0  0  0  0  0  0
   22.1279  -10.6676  -15.9518 C   0  0  0  0  0  0  0  0  0  0  0  0
   23.4056  -11.2608  -16.3082 C   0  0  0  0  0  0  0  0  0  0  0  0
   24.2779  -10.7707  -17.0562 O   0  0  0  0  0  0  0  0  0  0  0  0
   19.5944   -9.2952  -16.5081 C   0  0  0  0  0  0  0  0  0  0  0  0
   19.3591   -9.0741  -17.7239 O   0  0  0  0  0  0  0  0  0  0  0  0
   23.7049  -12.5310  -15.7544 O   0  0  0  0  0  0  0  0  0  0  0  0
   19.8327   -8.2079  -15.6594 N   0  0  0  0  0  0  0  0  0  0  0  0
   19.8269   -6.8112  -16.1284 C   0  0  1  0  0  0  0  0  0  0  0  0
   18.5161   -6.1679  -15.7360 C   0  0  0  0  0  0  0  0  0  0  0  0
   18.4403   -4.7204  -16.0668 C   0  0  0  0  0  0  0  0  0  0  0  0
   18.8624   -4.0955  -17.2207 C   0  0  0  0  0  0  0  0  0  0  0  0
   18.6238   -2.7787  -17.0991 N   0  0  0  0  0  0  0  0  0  0  0  0
   18.0694   -2.5939  -15.9022 C   0  0  0  0  0  0  0  0  0  0  0  0
   17.9532   -3.7580  -15.2693 N   0  0  0  0  0  0  0  0  0  0  0  0
   20.9157   -6.1107  -15.4184 C   0  0  0  0  0  0  0  0  0  0  0  0
   21.5090   -6.7049  -14.4783 O   0  0  0  0  0  0  0  0  0  0  0  0
   21.3215   -4.8211  -15.7396 O   0  0  0  0  0  0  0  0  0  0  0  0
  2  1  1  1
  2  3  1  0
  3  4  1  0
  4  8  1  0
  5  4  2  0
  5  6  1  0
  6  7  1  0
  8  7  2  0
  9 11  1  0
  9  2  1  0
 10  9  2  0
 12 11  1  0
 13 14  1  0
 12 13  1  6
 14 15  1  0
 15 16  2  0
 15 19  1  0
 17 12  1  0
 17 20  1  0
 18 17  2  0
 21 20  1  0
 21 28  1  0
 21 22  1  1
 23 22  1  0
 23 24  2  0
 25 24  1  0
 26 25  1  0
 27 26  2  0
 27 23  1  0
 28 29  2  0
 28 30  1  0
M  END
$$$$
