HEH.pdb
     RDKit          3D

 30 31  0  0  1  0  0  0  0  0999 V2000
   16.0946  -15.9843    5.3325 N   0  0  0  0  0  0  0  0  0  0  0  0
   17.0933  -16.9924    5.1502 C   0  0  1  0  0  0  0  0  0  0  0  0
   18.4463  -16.3592    5.0744 C   0  0  0  0  0  0  0  0  0  0  0  0
   18.4704  -15.5199    3.8355 C   0  0  0  0  0  0  0  0  0  0  0  0
   18.4848  -15.9429    2.5204 C   0  0  0  0  0  0  0  0  0  0  0  0
   18.5026  -14.8651    1.7136 N   0  0  0  0  0  0  0  0  0  0  0  0
   18.4998  -13.7759    2.4782 C   0  0  0  0  0  0  0  0  0  0  0  0
   18.4805  -14.1579    3.7599 N   0  0  0  0  0  0  0  0  0  0  0  0
   17.0119  -18.0851    6.1353 C   0  0  0  0  0  0  0  0  0  0  0  0
   16.9339  -17.8379    7.3640 O   0  0  0  0  0  0  0  0  0  0  0  0
   17.0153  -19.4850    5.7712 N   0  0  0  0  0  0  0  0  0  0  0  0
   17.1959  -20.5401    6.7011 C   0  0  1  0  0  0  0  0  0  0  0  0
   17.0397  -21.9374    6.2506 C   0  0  0  0  0  0  0  0  0  0  0  0
   17.1565  -23.0048    7.2871 C   0  0  0  0  0  0  0  0  0  0  0  0
   17.1029  -24.3866    6.8406 C   0  0  0  0  0  0  0  0  0  0  0  0
   17.0104  -24.7914    5.6624 O   0  0  0  0  0  0  0  0  0  0  0  0
   18.5206  -20.4280    7.4201 C   0  0  0  0  0  0  0  0  0  0  0  0
   19.5375  -20.2140    6.7112 O   0  0  0  0  0  0  0  0  0  0  0  0
   17.1603  -25.3908    7.8396 O   0  0  0  0  0  0  0  0  0  0  0  0
   18.6779  -20.5452    8.8060 N   0  0  0  0  0  0  0  0  0  0  0  0
   19.9919  -20.4836    9.4697 C   0  0  1  0  0  0  0  0  0  0  0  0
   19.9437  -19.4324   10.5553 C   0  0  0  0  0  0  0  0  0  0  0  0
   21.2095  -19.3134   11.3259 C   0  0  0  0  0  0  0  0  0  0  0  0
   22.4766  -19.6846   10.9296 C   0  0  0  0  0  0  0  0  0  0  0  0
   23.3277  -19.4202   11.9352 N   0  0  0  0  0  0  0  0  0  0  0  0
   22.6069  -18.8998   12.9269 C   0  0  0  0  0  0  0  0  0  0  0  0
   21.3270  -18.8300   12.5718 N   0  0  0  0  0  0  0  0  0  0  0  0
   20.2175  -21.7960   10.1076 C   0  0  0  0  0  0  0  0  0  0  0  0
   21.3795  -22.2844   10.0984 O   0  0  0  0  0  0  0  0  0  0  0  0
   19.2050  -22.5221   10.7229 O   0  0  0  0  0  0  0  0  0  0  0  0
  2  1  1  1
  2  3  1  0
  3  4  1  0
  4  8  1  0
  5  4  2  0
  5  6  1  0
  6  7  1  0
  8  7  2  0
  9 11  1  0
  9  2  1  0
 10  9  2  0
 12 11  1  0
 13 14  1  0
 12 13  1  6
 14 15  1  0
 15 16  2  0
 15 19  1  0
 17 12  1  0
 17 20  1  0
 18 17  2  0
 21 20  1  0
 21 28  1  0
 21 22  1  1
 23 22  1  0
 23 24  2  0
 25 24  1  0
 26 25  1  0
 27 26  2  0
 27 23  1  0
 28 29  2  0
 28 30  1  0
M  END
$$$$
