HEH.pdb
     RDKit          3D

 30 31  0  0  1  0  0  0  0  0999 V2000
   22.7786  -14.6623  -20.2927 N   0  0  0  0  0  0  0  0  0  0  0  0
   23.3001  -13.4927  -19.6548 C   0  0  1  0  0  0  0  0  0  0  0  0
   24.5347  -13.0347  -20.3644 C   0  0  0  0  0  0  0  0  0  0  0  0
   25.5466  -14.1301  -20.2382 C   0  0  0  0  0  0  0  0  0  0  0  0
   25.4491  -15.2996  -19.5092 C   0  0  0  0  0  0  0  0  0  0  0  0
   26.5808  -16.0115  -19.6696 N   0  0  0  0  0  0  0  0  0  0  0  0
   27.3886  -15.3281  -20.4766 C   0  0  0  0  0  0  0  0  0  0  0  0
   26.7760  -14.1916  -20.8262 N   0  0  0  0  0  0  0  0  0  0  0  0
   22.2992  -12.4268  -19.4728 C   0  0  0  0  0  0  0  0  0  0  0  0
   21.6100  -12.0206  -20.4408 O   0  0  0  0  0  0  0  0  0  0  0  0
   22.0423  -11.7867  -18.2014 N   0  0  0  0  0  0  0  0  0  0  0  0
   21.0602  -10.7821  -18.0097 C   0  0  1  0  0  0  0  0  0  0  0  0
   19.7015  -11.1696  -17.5814 C   0  0  0  0  0  0  0  0  0  0  0  0
   19.5936  -12.1619  -16.4719 C   0  0  0  0  0  0  0  0  0  0  0  0
   18.2655  -12.4672  -15.9675 C   0  0  0  0  0  0  0  0  0  0  0  0
   17.8527  -12.3120  -14.7987 O   0  0  0  0  0  0  0  0  0  0  0  0
   21.5492   -9.6954  -17.0799 C   0  0  0  0  0  0  0  0  0  0  0  0
   22.3629  -10.0362  -16.1831 O   0  0  0  0  0  0  0  0  0  0  0  0
   17.3303  -12.9988  -16.8909 O   0  0  0  0  0  0  0  0  0  0  0  0
   21.1565   -8.3542  -17.1591 N   0  0  0  0  0  0  0  0  0  0  0  0
   21.6487   -7.3208  -16.2313 C   0  0  1  0  0  0  0  0  0  0  0  0
   21.0026   -5.9996  -16.5821 C   0  0  0  0  0  0  0  0  0  0  0  0
   21.4343   -4.8754  -15.7102 C   0  0  0  0  0  0  0  0  0  0  0  0
   22.4440   -4.8752  -14.7717 C   0  0  0  0  0  0  0  0  0  0  0  0
   22.4864   -3.6611  -14.1976 N   0  0  0  0  0  0  0  0  0  0  0  0
   21.5286   -2.9299  -14.7653 C   0  0  0  0  0  0  0  0  0  0  0  0
   20.8864   -3.6513  -15.6798 N   0  0  0  0  0  0  0  0  0  0  0  0
   21.2044   -7.7068  -14.8771 C   0  0  0  0  0  0  0  0  0  0  0  0
   20.0619   -8.2200  -14.7355 O   0  0  0  0  0  0  0  0  0  0  0  0
   21.9906   -7.5323  -13.7447 O   0  0  0  0  0  0  0  0  0  0  0  0
  2  1  1  6
  2  3  1  0
  3  4  1  0
  4  8  1  0
  5  4  2  0
  5  6  1  0
  6  7  1  0
  8  7  2  0
  9 11  1  0
  9  2  1  0
 10  9  2  0
 12 11  1  0
 13 14  1  0
 12 13  1  1
 14 15  1  0
 15 16  2  0
 15 19  1  0
 17 12  1  0
 17 20  1  0
 18 17  2  0
 21 20  1  0
 21 28  1  0
 21 22  1  6
 23 22  1  0
 23 24  2  0
 25 24  1  0
 26 25  1  0
 27 26  2  0
 27 23  1  0
 28 29  2  0
 28 30  1  0
M  END
$$$$
