HEH.pdb
     RDKit          3D

 30 31  0  0  1  0  0  0  0  0999 V2000
   28.2416  -21.0436  -16.7921 N   0  0  0  0  0  0  0  0  0  0  0  0
   27.5935  -19.9714  -16.1012 C   0  0  1  0  0  0  0  0  0  0  0  0
   27.1050  -18.9554  -17.0843 C   0  0  0  0  0  0  0  0  0  0  0  0
   28.3133  -18.3107  -17.6879 C   0  0  0  0  0  0  0  0  0  0  0  0
   29.2679  -17.5346  -17.0594 C   0  0  0  0  0  0  0  0  0  0  0  0
   30.1888  -17.1538  -17.9650 N   0  0  0  0  0  0  0  0  0  0  0  0
   29.8450  -17.6652  -19.1446 C   0  0  0  0  0  0  0  0  0  0  0  0
   28.7156  -18.3649  -18.9902 N   0  0  0  0  0  0  0  0  0  0  0  0
   26.5543  -20.4224  -15.1591 C   0  0  0  0  0  0  0  0  0  0  0  0
   25.5894  -21.1224  -15.5539 O   0  0  0  0  0  0  0  0  0  0  0  0
   26.5674  -20.1020  -13.7486 N   0  0  0  0  0  0  0  0  0  0  0  0
   25.5181  -20.4362  -12.8555 C   0  0  1  0  0  0  0  0  0  0  0  0
   25.6587  -20.1171  -11.4208 C   0  0  0  0  0  0  0  0  0  0  0  0
   24.5409  -20.5236  -10.5193 C   0  0  0  0  0  0  0  0  0  0  0  0
   24.8401  -21.4727   -9.4605 C   0  0  0  0  0  0  0  0  0  0  0  0
   25.9714  -21.8501   -9.0886 O   0  0  0  0  0  0  0  0  0  0  0  0
   24.1904  -19.8884  -13.3262 C   0  0  0  0  0  0  0  0  0  0  0  0
   24.1423  -18.6594  -13.5904 O   0  0  0  0  0  0  0  0  0  0  0  0
   23.7388  -22.0375   -8.7692 O   0  0  0  0  0  0  0  0  0  0  0  0
   23.0315  -20.6574  -13.4840 N   0  0  0  0  0  0  0  0  0  0  0  0
   21.7397  -20.0814  -13.8968 C   0  0  1  0  0  0  0  0  0  0  0  0
   21.1821  -20.8980  -15.0405 C   0  0  0  0  0  0  0  0  0  0  0  0
   19.8369  -20.4525  -15.4903 C   0  0  0  0  0  0  0  0  0  0  0  0
   19.1478  -19.3241  -15.1002 C   0  0  0  0  0  0  0  0  0  0  0  0
   17.9631  -19.3128  -15.7343 N   0  0  0  0  0  0  0  0  0  0  0  0
   17.9203  -20.4047  -16.4958 C   0  0  0  0  0  0  0  0  0  0  0  0
   19.0451  -21.1010  -16.3575 N   0  0  0  0  0  0  0  0  0  0  0  0
   20.8211  -20.2087  -12.7477 C   0  0  0  0  0  0  0  0  0  0  0  0
   21.0538  -21.0914  -11.8786 O   0  0  0  0  0  0  0  0  0  0  0  0
   19.7068  -19.3963  -12.5764 O   0  0  0  0  0  0  0  0  0  0  0  0
  2  1  1  6
  2  3  1  0
  3  4  1  0
  4  8  1  0
  5  4  2  0
  5  6  1  0
  6  7  1  0
  8  7  2  0
  9 11  1  0
  9  2  1  0
 10  9  2  0
 12 11  1  0
 13 14  1  0
 12 13  1  1
 14 15  1  0
 15 16  2  0
 15 19  1  0
 17 12  1  0
 17 20  1  0
 18 17  2  0
 21 20  1  0
 21 28  1  0
 21 22  1  6
 23 22  1  0
 23 24  2  0
 25 24  1  0
 26 25  1  0
 27 26  2  0
 27 23  1  0
 28 29  2  0
 28 30  1  0
M  END
$$$$
