HEH.pdb
     RDKit          3D

 30 31  0  0  1  0  0  0  0  0999 V2000
   20.8197  -11.1549  -16.7454 N   0  0  0  0  0  0  0  0  0  0  0  0
   19.5878  -10.5625  -16.3232 C   0  0  1  0  0  0  0  0  0  0  0  0
   18.4987  -11.5877  -16.3409 C   0  0  0  0  0  0  0  0  0  0  0  0
   18.2303  -11.9197  -17.7753 C   0  0  0  0  0  0  0  0  0  0  0  0
   17.9716  -11.0495  -18.8168 C   0  0  0  0  0  0  0  0  0  0  0  0
   17.7885  -11.7598  -19.9460 N   0  0  0  0  0  0  0  0  0  0  0  0
   17.9235  -13.0501  -19.6496 C   0  0  0  0  0  0  0  0  0  0  0  0
   18.1901  -13.1593  -18.3434 N   0  0  0  0  0  0  0  0  0  0  0  0
   19.6915   -9.8395  -15.0435 C   0  0  0  0  0  0  0  0  0  0  0  0
   20.1433  -10.4083  -14.0192 O   0  0  0  0  0  0  0  0  0  0  0  0
   19.2921   -8.4594  -14.8760 N   0  0  0  0  0  0  0  0  0  0  0  0
   19.3688   -7.7615  -13.6441 C   0  0  1  0  0  0  0  0  0  0  0  0
   20.0343   -6.4444  -13.5980 C   0  0  0  0  0  0  0  0  0  0  0  0
   21.4405   -6.3735  -14.0928 C   0  0  0  0  0  0  0  0  0  0  0  0
   22.1323   -5.1009  -13.9773 C   0  0  0  0  0  0  0  0  0  0  0  0
   23.2868   -4.8357  -14.3743 O   0  0  0  0  0  0  0  0  0  0  0  0
   18.0092   -7.6190  -12.9992 C   0  0  0  0  0  0  0  0  0  0  0  0
   17.0449   -7.3411  -13.7577 O   0  0  0  0  0  0  0  0  0  0  0  0
   21.4329   -4.0401  -13.3486 O   0  0  0  0  0  0  0  0  0  0  0  0
   17.7656   -7.7774  -11.6299 N   0  0  0  0  0  0  0  0  0  0  0  0
   16.4463   -7.5375  -11.0196 C   0  0  1  0  0  0  0  0  0  0  0  0
   16.5164   -7.8829   -9.5493 C   0  0  0  0  0  0  0  0  0  0  0  0
   15.2400   -7.6541   -8.8221 C   0  0  0  0  0  0  0  0  0  0  0  0
   14.0216   -7.2861   -9.3515 C   0  0  0  0  0  0  0  0  0  0  0  0
   13.1408   -7.1709   -8.3433 N   0  0  0  0  0  0  0  0  0  0  0  0
   13.7965   -7.4595   -7.2204 C   0  0  0  0  0  0  0  0  0  0  0  0
   15.0643   -7.7528   -7.4958 N   0  0  0  0  0  0  0  0  0  0  0  0
   16.1684   -6.0924  -11.1415 C   0  0  0  0  0  0  0  0  0  0  0  0
   17.1175   -5.2764  -10.9926 O   0  0  0  0  0  0  0  0  0  0  0  0
   14.9039   -5.5857  -11.4158 O   0  0  0  0  0  0  0  0  0  0  0  0
  2  1  1  1
  2  3  1  0
  3  4  1  0
  4  8  1  0
  5  4  2  0
  5  6  1  0
  6  7  1  0
  8  7  2  0
  9 11  1  0
  9  2  1  0
 10  9  2  0
 12 11  1  0
 13 14  1  0
 12 13  1  6
 14 15  1  0
 15 16  2  0
 15 19  1  0
 17 12  1  0
 17 20  1  0
 18 17  2  0
 21 20  1  0
 21 28  1  0
 21 22  1  1
 23 22  1  0
 23 24  2  0
 25 24  1  0
 26 25  1  0
 27 26  2  0
 27 23  1  0
 28 29  2  0
 28 30  1  0
M  END
$$$$
