HEH.pdb
     RDKit          3D

 30 31  0  0  1  0  0  0  0  0999 V2000
   18.5708  -11.6406  -17.3687 N   0  0  0  0  0  0  0  0  0  0  0  0
   18.9414  -10.2878  -17.6507 C   0  0  1  0  0  0  0  0  0  0  0  0
   17.7160   -9.4667  -17.8992 C   0  0  0  0  0  0  0  0  0  0  0  0
   17.0924   -9.9775  -19.1602 C   0  0  0  0  0  0  0  0  0  0  0  0
   15.9301  -10.7114  -19.2988 C   0  0  0  0  0  0  0  0  0  0  0  0
   15.7249  -10.9646  -20.6053 N   0  0  0  0  0  0  0  0  0  0  0  0
   16.7210  -10.4137  -21.2948 C   0  0  0  0  0  0  0  0  0  0  0  0
   17.5521   -9.8156  -20.4343 N   0  0  0  0  0  0  0  0  0  0  0  0
   19.8441   -9.7035  -16.6434 C   0  0  0  0  0  0  0  0  0  0  0  0
   19.5259   -9.6861  -15.4287 O   0  0  0  0  0  0  0  0  0  0  0  0
   21.1283   -9.1228  -16.9688 N   0  0  0  0  0  0  0  0  0  0  0  0
   22.0046   -8.5602  -16.0066 C   0  0  1  0  0  0  0  0  0  0  0  0
   23.4221   -8.9730  -15.9888 C   0  0  0  0  0  0  0  0  0  0  0  0
   23.7080  -10.4191  -15.7557 C   0  0  0  0  0  0  0  0  0  0  0  0
   25.1005  -10.8260  -15.6726 C   0  0  0  0  0  0  0  0  0  0  0  0
   26.1050  -10.1003  -15.8307 O   0  0  0  0  0  0  0  0  0  0  0  0
   21.9599   -7.0496  -16.0284 C   0  0  0  0  0  0  0  0  0  0  0  0
   22.1324   -6.4903  -17.1419 O   0  0  0  0  0  0  0  0  0  0  0  0
   25.3589  -12.1893  -15.3823 O   0  0  0  0  0  0  0  0  0  0  0  0
   21.7397   -6.2509  -14.9001 N   0  0  0  0  0  0  0  0  0  0  0  0
   21.6321   -4.7831  -14.9682 C   0  0  1  0  0  0  0  0  0  0  0  0
   20.1975   -4.3843  -14.7055 C   0  0  0  0  0  0  0  0  0  0  0  0
   19.2905   -4.6297  -15.8577 C   0  0  0  0  0  0  0  0  0  0  0  0
   19.5276   -4.3645  -17.1895 C   0  0  0  0  0  0  0  0  0  0  0  0
   18.4391   -4.7226  -17.8913 N   0  0  0  0  0  0  0  0  0  0  0  0
   17.5524   -5.1961  -17.0175 C   0  0  0  0  0  0  0  0  0  0  0  0
   18.0541   -5.1454  -15.7867 N   0  0  0  0  0  0  0  0  0  0  0  0
   22.4696   -4.2359  -13.8822 C   0  0  0  0  0  0  0  0  0  0  0  0
   23.0547   -5.0364  -13.1039 O   0  0  0  0  0  0  0  0  0  0  0  0
   22.6463   -2.8730  -13.6766 O   0  0  0  0  0  0  0  0  0  0  0  0
  2  1  1  1
  2  3  1  0
  3  4  1  0
  4  8  1  0
  5  4  2  0
  5  6  1  0
  6  7  1  0
  8  7  2  0
  9 11  1  0
  9  2  1  0
 10  9  2  0
 12 11  1  0
 13 14  1  0
 12 13  1  6
 14 15  1  0
 15 16  2  0
 15 19  1  0
 17 12  1  0
 17 20  1  0
 18 17  2  0
 21 20  1  0
 21 28  1  0
 21 22  1  1
 23 22  1  0
 23 24  2  0
 25 24  1  0
 26 25  1  0
 27 26  2  0
 27 23  1  0
 28 29  2  0
 28 30  1  0
M  END
$$$$
