HEH.pdb
     RDKit          3D

 30 31  0  0  1  0  0  0  0  0999 V2000
   17.8430  -11.3710  -14.6670 N   0  0  0  0  0  0  0  0  0  0  0  0
   16.7562  -10.4648  -14.4562 C   0  0  1  0  0  0  0  0  0  0  0  0
   15.6717  -11.1437  -13.6812 C   0  0  0  0  0  0  0  0  0  0  0  0
   15.1155  -12.2230  -14.5561 C   0  0  0  0  0  0  0  0  0  0  0  0
   14.3089  -12.0858  -15.6693 C   0  0  0  0  0  0  0  0  0  0  0  0
   14.0359  -13.3073  -16.1659 N   0  0  0  0  0  0  0  0  0  0  0  0
   14.6448  -14.2103  -15.4011 C   0  0  0  0  0  0  0  0  0  0  0  0
   15.2990  -13.5686  -14.4269 N   0  0  0  0  0  0  0  0  0  0  0  0
   17.1706   -9.1747  -13.8775 C   0  0  0  0  0  0  0  0  0  0  0  0
   17.8962   -9.1334  -12.8534 O   0  0  0  0  0  0  0  0  0  0  0  0
   16.7837   -7.8951  -14.4301 N   0  0  0  0  0  0  0  0  0  0  0  0
   17.1696   -6.6487  -13.8752 C   0  0  1  0  0  0  0  0  0  0  0  0
   17.3070   -5.4738  -14.7587 C   0  0  0  0  0  0  0  0  0  0  0  0
   17.8765   -4.2320  -14.1579 C   0  0  0  0  0  0  0  0  0  0  0  0
   17.9882   -3.0607  -15.0105 C   0  0  0  0  0  0  0  0  0  0  0  0
   18.8107   -2.8799  -15.9332 O   0  0  0  0  0  0  0  0  0  0  0  0
   16.2836   -6.2575  -12.7148 C   0  0  0  0  0  0  0  0  0  0  0  0
   15.0420   -6.3725  -12.8816 O   0  0  0  0  0  0  0  0  0  0  0  0
   17.0719   -2.0039  -14.7795 O   0  0  0  0  0  0  0  0  0  0  0  0
   16.7573   -5.7842  -11.4856 N   0  0  0  0  0  0  0  0  0  0  0  0
   15.8666   -5.2785  -10.4266 C   0  0  1  0  0  0  0  0  0  0  0  0
   15.9639   -6.1928   -9.2264 C   0  0  0  0  0  0  0  0  0  0  0  0
   15.0642   -7.3739   -9.3027 C   0  0  0  0  0  0  0  0  0  0  0  0
   14.1544   -7.6788  -10.2924 C   0  0  0  0  0  0  0  0  0  0  0  0
   13.5381   -8.8258   -9.9604 N   0  0  0  0  0  0  0  0  0  0  0  0
   14.0525   -9.2198   -8.7967 C   0  0  0  0  0  0  0  0  0  0  0  0
   14.9746   -8.3521   -8.3891 N   0  0  0  0  0  0  0  0  0  0  0  0
   16.3710   -3.9471  -10.0348 C   0  0  0  0  0  0  0  0  0  0  0  0
   17.4199   -3.5100  -10.5802 O   0  0  0  0  0  0  0  0  0  0  0  0
   15.7403   -3.1474   -9.0895 O   0  0  0  0  0  0  0  0  0  0  0  0
  2  1  1  1
  2  3  1  0
  3  4  1  0
  4  8  1  0
  5  4  2  0
  5  6  1  0
  6  7  1  0
  8  7  2  0
  9 11  1  0
  9  2  1  0
 10  9  2  0
 12 11  1  0
 13 14  1  0
 12 13  1  6
 14 15  1  0
 15 16  2  0
 15 19  1  0
 17 12  1  0
 17 20  1  0
 18 17  2  0
 21 20  1  0
 21 28  1  0
 21 22  1  1
 23 22  1  0
 23 24  2  0
 25 24  1  0
 26 25  1  0
 27 26  2  0
 27 23  1  0
 28 29  2  0
 28 30  1  0
M  END
$$$$
