HEH.pdb
     RDKit          3D

 30 31  0  0  1  0  0  0  0  0999 V2000
   22.2989  -10.5700  -21.5670 N   0  0  0  0  0  0  0  0  0  0  0  0
   22.9785  -10.1709  -20.3730 C   0  0  1  0  0  0  0  0  0  0  0  0
   24.2276   -9.4266  -20.7239 C   0  0  0  0  0  0  0  0  0  0  0  0
   25.1361  -10.3936  -21.4161 C   0  0  0  0  0  0  0  0  0  0  0  0
   25.7626  -11.5040  -20.8839 C   0  0  0  0  0  0  0  0  0  0  0  0
   26.4890  -12.1013  -21.8476 N   0  0  0  0  0  0  0  0  0  0  0  0
   26.3404  -11.4028  -22.9705 C   0  0  0  0  0  0  0  0  0  0  0  0
   25.5268  -10.3705  -22.7230 N   0  0  0  0  0  0  0  0  0  0  0  0
   22.1164   -9.4520  -19.4185 C   0  0  0  0  0  0  0  0  0  0  0  0
   21.3656   -8.5226  -19.8050 O   0  0  0  0  0  0  0  0  0  0  0  0
   22.0713   -9.7545  -18.0047 N   0  0  0  0  0  0  0  0  0  0  0  0
   21.2401   -9.0733  -17.0798 C   0  0  1  0  0  0  0  0  0  0  0  0
   20.3513   -9.8518  -16.1946 C   0  0  0  0  0  0  0  0  0  0  0  0
   19.3583   -9.0883  -15.3831 C   0  0  0  0  0  0  0  0  0  0  0  0
   18.4677   -9.8458  -14.5205 C   0  0  0  0  0  0  0  0  0  0  0  0
   18.3666  -11.0891  -14.4528 O   0  0  0  0  0  0  0  0  0  0  0  0
   22.0324   -8.1163  -16.2190 C   0  0  0  0  0  0  0  0  0  0  0  0
   23.0978   -8.5534  -15.7128 O   0  0  0  0  0  0  0  0  0  0  0  0
   17.6179   -9.1060  -13.6601 O   0  0  0  0  0  0  0  0  0  0  0  0
   21.6558   -6.7935  -15.9585 N   0  0  0  0  0  0  0  0  0  0  0  0
   22.4166   -5.9077  -15.0600 C   0  0  1  0  0  0  0  0  0  0  0  0
   22.7293   -4.6210  -15.7898 C   0  0  0  0  0  0  0  0  0  0  0  0
   23.8550   -4.7412  -16.7535 C   0  0  0  0  0  0  0  0  0  0  0  0
   24.6846   -5.8242  -16.9510 C   0  0  0  0  0  0  0  0  0  0  0  0
   25.5774   -5.5040  -17.9027 N   0  0  0  0  0  0  0  0  0  0  0  0
   25.3078   -4.2565  -18.2836 C   0  0  0  0  0  0  0  0  0  0  0  0
   24.2705   -3.7848  -17.5975 N   0  0  0  0  0  0  0  0  0  0  0  0
   21.5365   -5.5886  -13.9182 C   0  0  0  0  0  0  0  0  0  0  0  0
   20.2885   -5.6829  -14.0679 O   0  0  0  0  0  0  0  0  0  0  0  0
   22.0206   -5.1888  -12.6785 O   0  0  0  0  0  0  0  0  0  0  0  0
  2  1  1  6
  2  3  1  0
  3  4  1  0
  4  8  1  0
  5  4  2  0
  5  6  1  0
  6  7  1  0
  8  7  2  0
  9 11  1  0
  9  2  1  0
 10  9  2  0
 12 11  1  0
 13 14  1  0
 12 13  1  1
 14 15  1  0
 15 16  2  0
 15 19  1  0
 17 12  1  0
 17 20  1  0
 18 17  2  0
 21 20  1  0
 21 28  1  0
 21 22  1  6
 23 22  1  0
 23 24  2  0
 25 24  1  0
 26 25  1  0
 27 26  2  0
 27 23  1  0
 28 29  2  0
 28 30  1  0
M  END
$$$$
