HEH.pdb
     RDKit          3D

 30 31  0  0  1  0  0  0  0  0999 V2000
   29.0008  -23.5189  -19.3353 N   0  0  0  0  0  0  0  0  0  0  0  0
   28.9758  -23.3944  -17.9102 C   0  0  1  0  0  0  0  0  0  0  0  0
   30.3453  -23.0679  -17.4047 C   0  0  0  0  0  0  0  0  0  0  0  0
   31.2257  -24.2317  -17.7365 C   0  0  0  0  0  0  0  0  0  0  0  0
   30.8665  -25.4335  -18.3156 C   0  0  0  0  0  0  0  0  0  0  0  0
   31.9634  -26.2041  -18.4422 N   0  0  0  0  0  0  0  0  0  0  0  0
   33.0028  -25.5264  -17.9614 C   0  0  0  0  0  0  0  0  0  0  0  0
   32.5706  -24.3354  -17.5328 N   0  0  0  0  0  0  0  0  0  0  0  0
   27.9349  -22.4746  -17.4189 C   0  0  0  0  0  0  0  0  0  0  0  0
   28.0548  -21.2329  -17.5629 O   0  0  0  0  0  0  0  0  0  0  0  0
   26.7308  -22.9203  -16.7527 N   0  0  0  0  0  0  0  0  0  0  0  0
   25.6940  -22.0486  -16.3336 C   0  0  1  0  0  0  0  0  0  0  0  0
   24.3914  -22.0860  -17.0275 C   0  0  0  0  0  0  0  0  0  0  0  0
   24.3360  -21.5133  -18.4046 C   0  0  0  0  0  0  0  0  0  0  0  0
   24.2186  -20.0704  -18.5303 C   0  0  0  0  0  0  0  0  0  0  0  0
   23.2999  -19.3507  -18.0848 O   0  0  0  0  0  0  0  0  0  0  0  0
   25.4343  -22.1654  -14.8492 C   0  0  0  0  0  0  0  0  0  0  0  0
   25.7867  -23.2364  -14.2914 O   0  0  0  0  0  0  0  0  0  0  0  0
   25.2503  -19.3970  -19.2317 O   0  0  0  0  0  0  0  0  0  0  0  0
   24.8356  -21.1665  -14.0726 N   0  0  0  0  0  0  0  0  0  0  0  0
   24.6328  -21.2976  -12.6191 C   0  0  1  0  0  0  0  0  0  0  0  0
   25.7169  -20.5257  -11.9015 C   0  0  0  0  0  0  0  0  0  0  0  0
   25.5313  -20.4685  -10.4275 C   0  0  0  0  0  0  0  0  0  0  0  0
   24.4901  -20.9867   -9.6876 C   0  0  0  0  0  0  0  0  0  0  0  0
   24.7063  -20.6963   -8.3936 N   0  0  0  0  0  0  0  0  0  0  0  0
   25.8502  -20.0165   -8.3345 C   0  0  0  0  0  0  0  0  0  0  0  0
   26.3580  -19.8723   -9.5554 N   0  0  0  0  0  0  0  0  0  0  0  0
   23.3338  -20.6703  -12.3041 C   0  0  0  0  0  0  0  0  0  0  0  0
   22.7510  -19.9983  -13.1972 O   0  0  0  0  0  0  0  0  0  0  0  0
   22.7183  -20.7872  -11.0638 O   0  0  0  0  0  0  0  0  0  0  0  0
  2  1  1  6
  2  3  1  0
  3  4  1  0
  4  8  1  0
  5  4  2  0
  5  6  1  0
  6  7  1  0
  8  7  2  0
  9 11  1  0
  9  2  1  0
 10  9  2  0
 12 11  1  0
 13 14  1  0
 12 13  1  6
 14 15  1  0
 15 16  2  0
 15 19  1  0
 17 12  1  0
 17 20  1  0
 18 17  2  0
 21 20  1  0
 21 28  1  0
 21 22  1  1
 23 22  1  0
 23 24  2  0
 25 24  1  0
 26 25  1  0
 27 26  2  0
 27 23  1  0
 28 29  2  0
 28 30  1  0
M  END
$$$$
