HEH.pdb
     RDKit          3D

 30 31  0  0  1  0  0  0  0  0999 V2000
   23.6971  -17.2135  -19.8012 N   0  0  0  0  0  0  0  0  0  0  0  0
   24.3876  -17.8450  -18.7189 C   0  0  1  0  0  0  0  0  0  0  0  0
   25.6920  -17.1541  -18.4764 C   0  0  0  0  0  0  0  0  0  0  0  0
   26.5115  -17.3129  -19.7185 C   0  0  0  0  0  0  0  0  0  0  0  0
   27.0204  -16.3218  -20.5355 C   0  0  0  0  0  0  0  0  0  0  0  0
   27.7021  -16.8940  -21.5460 N   0  0  0  0  0  0  0  0  0  0  0  0
   27.6391  -18.2144  -21.3920 C   0  0  0  0  0  0  0  0  0  0  0  0
   26.9237  -18.4793  -20.2935 N   0  0  0  0  0  0  0  0  0  0  0  0
   23.5670  -17.9912  -17.5039 C   0  0  0  0  0  0  0  0  0  0  0  0
   23.6430  -17.1523  -16.5725 O   0  0  0  0  0  0  0  0  0  0  0  0
   22.6383  -19.0811  -17.2987 N   0  0  0  0  0  0  0  0  0  0  0  0
   21.7719  -19.1773  -16.1804 C   0  0  1  0  0  0  0  0  0  0  0  0
   20.3884  -19.6548  -16.3749 C   0  0  0  0  0  0  0  0  0  0  0  0
   20.2019  -21.1094  -16.6518 C   0  0  0  0  0  0  0  0  0  0  0  0
   18.8497  -21.5807  -16.8983 C   0  0  0  0  0  0  0  0  0  0  0  0
   18.1905  -21.4519  -17.9516 O   0  0  0  0  0  0  0  0  0  0  0  0
   22.3911  -19.9867  -15.0641 C   0  0  0  0  0  0  0  0  0  0  0  0
   23.0415  -21.0110  -15.3959 O   0  0  0  0  0  0  0  0  0  0  0  0
   18.1990  -22.2599  -15.8376 O   0  0  0  0  0  0  0  0  0  0  0  0
   22.2854  -19.6662  -13.7056 N   0  0  0  0  0  0  0  0  0  0  0  0
   22.9397  -20.4528  -12.6454 C   0  0  1  0  0  0  0  0  0  0  0  0
   23.6354  -19.5074  -11.6924 C   0  0  0  0  0  0  0  0  0  0  0  0
   24.1969  -20.1792  -10.4908 C   0  0  0  0  0  0  0  0  0  0  0  0
   24.2180  -21.5289  -10.2114 C   0  0  0  0  0  0  0  0  0  0  0  0
   24.8022  -21.7029   -9.0139 N   0  0  0  0  0  0  0  0  0  0  0  0
   25.1332  -20.4936   -8.5644 C   0  0  0  0  0  0  0  0  0  0  0  0
   24.7733  -19.5654   -9.4465 N   0  0  0  0  0  0  0  0  0  0  0  0
   21.8722  -21.1532  -11.9037 C   0  0  0  0  0  0  0  0  0  0  0  0
   20.6800  -20.7703  -12.0481 O   0  0  0  0  0  0  0  0  0  0  0  0
   22.1198  -22.2217  -11.0504 O   0  0  0  0  0  0  0  0  0  0  0  0
  2  1  1  6
  2  3  1  0
  3  4  1  0
  4  8  1  0
  5  4  2  0
  5  6  1  0
  6  7  1  0
  8  7  2  0
  9 11  1  0
  9  2  1  0
 10  9  2  0
 12 11  1  0
 13 14  1  0
 12 13  1  6
 14 15  1  0
 15 16  2  0
 15 19  1  0
 17 12  1  0
 17 20  1  0
 18 17  2  0
 21 20  1  0
 21 28  1  0
 21 22  1  1
 23 22  1  0
 23 24  2  0
 25 24  1  0
 26 25  1  0
 27 26  2  0
 27 23  1  0
 28 29  2  0
 28 30  1  0
M  END
$$$$
