HEH.pdb
     RDKit          3D

 30 31  0  0  1  0  0  0  0  0999 V2000
   24.9069  -10.6511  -18.6753 N   0  0  0  0  0  0  0  0  0  0  0  0
   24.4458  -10.0705  -17.4517 C   0  0  1  0  0  0  0  0  0  0  0  0
   25.5783   -9.3830  -16.7572 C   0  0  0  0  0  0  0  0  0  0  0  0
   26.5525  -10.4432  -16.3490 C   0  0  0  0  0  0  0  0  0  0  0  0
   27.7068  -10.8351  -16.9993 C   0  0  0  0  0  0  0  0  0  0  0  0
   28.2940  -11.8205  -16.2941 N   0  0  0  0  0  0  0  0  0  0  0  0
   27.5467  -12.0624  -15.2199 C   0  0  0  0  0  0  0  0  0  0  0  0
   26.4936  -11.2381  -15.2419 N   0  0  0  0  0  0  0  0  0  0  0  0
   23.2558   -9.2177  -17.6177 C   0  0  0  0  0  0  0  0  0  0  0  0
   23.0765   -8.5636  -18.6746 O   0  0  0  0  0  0  0  0  0  0  0  0
   22.2335   -9.0741  -16.6045 N   0  0  0  0  0  0  0  0  0  0  0  0
   21.0293   -8.3511  -16.7978 C   0  0  1  0  0  0  0  0  0  0  0  0
   19.7395   -9.0686  -16.7604 C   0  0  0  0  0  0  0  0  0  0  0  0
   19.7072  -10.3756  -16.0406 C   0  0  0  0  0  0  0  0  0  0  0  0
   18.4398  -11.0842  -15.9865 C   0  0  0  0  0  0  0  0  0  0  0  0
   17.5943  -11.0404  -15.0679 O   0  0  0  0  0  0  0  0  0  0  0  0
   20.9322   -7.1699  -15.8598 C   0  0  0  0  0  0  0  0  0  0  0  0
   21.3374   -7.3429  -14.6815 O   0  0  0  0  0  0  0  0  0  0  0  0
   18.1180  -11.9172  -17.0874 O   0  0  0  0  0  0  0  0  0  0  0  0
   20.4273   -5.9154  -16.2214 N   0  0  0  0  0  0  0  0  0  0  0  0
   20.3035   -4.7985  -15.2685 C   0  0  1  0  0  0  0  0  0  0  0  0
   20.8659   -3.5473  -15.9043 C   0  0  0  0  0  0  0  0  0  0  0  0
   22.3386   -3.5906  -16.1036 C   0  0  0  0  0  0  0  0  0  0  0  0
   23.0318   -4.1586  -17.1510 C   0  0  0  0  0  0  0  0  0  0  0  0
   24.3460   -3.9888  -16.9287 N   0  0  0  0  0  0  0  0  0  0  0  0
   24.4629   -3.3338  -15.7749 C   0  0  0  0  0  0  0  0  0  0  0  0
   23.2585   -3.0875  -15.2668 N   0  0  0  0  0  0  0  0  0  0  0  0
   18.8612   -4.5879  -15.0321 C   0  0  0  0  0  0  0  0  0  0  0  0
   18.0310   -5.2406  -15.7203 O   0  0  0  0  0  0  0  0  0  0  0  0
   18.3722   -3.7010  -14.0807 O   0  0  0  0  0  0  0  0  0  0  0  0
  2  1  1  6
  2  3  1  0
  3  4  1  0
  4  8  1  0
  5  4  2  0
  5  6  1  0
  6  7  1  0
  8  7  2  0
  9 11  1  0
  9  2  1  0
 10  9  2  0
 12 11  1  0
 13 14  1  0
 12 13  1  1
 14 15  1  0
 15 16  2  0
 15 19  1  0
 17 12  1  0
 17 20  1  0
 18 17  2  0
 21 20  1  0
 21 28  1  0
 21 22  1  6
 23 22  1  0
 23 24  2  0
 25 24  1  0
 26 25  1  0
 27 26  2  0
 27 23  1  0
 28 29  2  0
 28 30  1  0
M  END
$$$$
