HEH.pdb
     RDKit          3D

 30 31  0  0  1  0  0  0  0  0999 V2000
   14.9412  -17.6060    4.5913 N   0  0  0  0  0  0  0  0  0  0  0  0
   16.2646  -18.0143    4.9501 C   0  0  1  0  0  0  0  0  0  0  0  0
   17.1866  -17.8284    3.7869 C   0  0  0  0  0  0  0  0  0  0  0  0
   16.7756  -18.8136    2.7380 C   0  0  0  0  0  0  0  0  0  0  0  0
   17.2045  -20.1174    2.5795 C   0  0  0  0  0  0  0  0  0  0  0  0
   16.5853  -20.6555    1.5117 N   0  0  0  0  0  0  0  0  0  0  0  0
   15.7797  -19.7326    0.9920 C   0  0  0  0  0  0  0  0  0  0  0  0
   15.8857  -18.6174    1.7228 N   0  0  0  0  0  0  0  0  0  0  0  0
   16.7552  -17.3919    6.1922 C   0  0  0  0  0  0  0  0  0  0  0  0
   16.7750  -16.1428    6.3205 O   0  0  0  0  0  0  0  0  0  0  0  0
   17.2370  -18.1514    7.3251 N   0  0  0  0  0  0  0  0  0  0  0  0
   17.8791  -17.5696    8.4474 C   0  0  1  0  0  0  0  0  0  0  0  0
   18.1594  -18.4024    9.6339 C   0  0  0  0  0  0  0  0  0  0  0  0
   17.0074  -19.1281   10.2450 C   0  0  0  0  0  0  0  0  0  0  0  0
   17.2866  -20.3752   10.9364 C   0  0  0  0  0  0  0  0  0  0  0  0
   17.3765  -20.5449   12.1708 O   0  0  0  0  0  0  0  0  0  0  0  0
   19.1608  -16.8709    8.0556 C   0  0  0  0  0  0  0  0  0  0  0  0
   19.8173  -17.3739    7.1078 O   0  0  0  0  0  0  0  0  0  0  0  0
   17.4798  -21.5287   10.1353 O   0  0  0  0  0  0  0  0  0  0  0  0
   19.6500  -15.7151    8.6754 N   0  0  0  0  0  0  0  0  0  0  0  0
   20.9174  -15.0736    8.2843 C   0  0  1  0  0  0  0  0  0  0  0  0
   20.6777  -13.5935    8.0894 C   0  0  0  0  0  0  0  0  0  0  0  0
   19.9861  -13.2648    6.8150 C   0  0  0  0  0  0  0  0  0  0  0  0
   19.5759  -14.1361    5.8287 C   0  0  0  0  0  0  0  0  0  0  0  0
   19.0101  -13.4205    4.8421 N   0  0  0  0  0  0  0  0  0  0  0  0
   19.0689  -12.1411    5.2079 C   0  0  0  0  0  0  0  0  0  0  0  0
   19.6556  -12.0338    6.3968 N   0  0  0  0  0  0  0  0  0  0  0  0
   21.8560  -15.2447    9.4113 C   0  0  0  0  0  0  0  0  0  0  0  0
   21.4478  -15.8094   10.4617 O   0  0  0  0  0  0  0  0  0  0  0  0
   23.1759  -14.8123    9.3689 O   0  0  0  0  0  0  0  0  0  0  0  0
  2  1  1  6
  2  3  1  0
  3  4  1  0
  4  8  1  0
  5  4  2  0
  5  6  1  0
  6  7  1  0
  8  7  2  0
  9 11  1  0
  9  2  1  0
 10  9  2  0
 12 11  1  0
 13 14  1  0
 12 13  1  1
 14 15  1  0
 15 16  2  0
 15 19  1  0
 17 12  1  0
 17 20  1  0
 18 17  2  0
 21 20  1  0
 21 28  1  0
 21 22  1  1
 23 22  1  0
 23 24  2  0
 25 24  1  0
 26 25  1  0
 27 26  2  0
 27 23  1  0
 28 29  2  0
 28 30  1  0
M  END
$$$$
