EWN.pdb
     RDKit          3D

 32 33  0  0  1  0  0  0  0  0999 V2000
   24.1137  -18.4732  -15.9994 N   0  0  0  0  0  0  0  0  0  0  0  0
   23.7750  -19.8376  -15.7649 C   0  0  1  0  0  0  0  0  0  0  0  0
   22.3291  -20.1129  -15.9389 C   0  0  0  0  0  0  0  0  0  0  0  0
   21.3873  -19.3490  -15.0728 C   0  0  0  0  0  0  0  0  0  0  0  0
   20.9497  -18.0511  -15.5604 C   0  0  0  0  0  0  0  0  0  0  0  0
   21.2759  -17.4456  -16.5931 O   0  0  0  0  0  0  0  0  0  0  0  0
   24.6496  -20.7296  -16.5614 C   0  0  0  0  0  0  0  0  0  0  0  0
   24.2952  -21.0072  -17.7265 O   0  0  0  0  0  0  0  0  0  0  0  0
   20.0110  -17.3724  -14.7380 O   0  0  0  0  0  0  0  0  0  0  0  0
   25.8376  -21.2551  -16.0397 N   0  0  0  0  0  0  0  0  0  0  0  0
   26.7465  -22.1624  -16.6845 C   0  0  1  0  0  0  0  0  0  0  0  0
   28.1780  -22.0920  -16.1848 C   0  0  0  0  0  0  0  0  0  0  0  0
   29.1450  -22.8252  -16.9899 C   0  0  0  0  0  0  0  0  0  0  0  0
   30.0496  -22.3422  -17.8862 C   0  0  0  0  0  0  0  0  0  0  0  0
   30.7575  -23.3855  -18.3938 N   0  0  0  0  0  0  0  0  0  0  0  0
   30.3481  -24.5380  -17.8604 C   0  0  0  0  0  0  0  0  0  0  0  0
   30.7430  -25.8481  -18.0412 C   0  0  0  0  0  0  0  0  0  0  0  0
   30.1275  -26.8604  -17.3343 C   0  0  0  0  0  0  0  0  0  0  0  0
   29.1194  -26.5234  -16.4542 C   0  0  0  0  0  0  0  0  0  0  0  0
   28.7171  -25.2020  -16.2683 C   0  0  0  0  0  0  0  0  0  0  0  0
   29.3368  -24.2006  -16.9778 C   0  0  0  0  0  0  0  0  0  0  0  0
   26.3196  -23.5601  -16.7059 C   0  0  0  0  0  0  0  0  0  0  0  0
   25.9751  -24.2009  -15.6654 O   0  0  0  0  0  0  0  0  0  0  0  0
   23.3293  -27.6137  -15.9395 N   0  0  0  0  0  0  0  0  0  0  0  0
   24.3855  -27.2850  -16.8311 C   0  0  0  0  0  0  0  0  0  0  0  0
   24.8076  -28.1902  -17.5848 O   0  0  0  0  0  0  0  0  0  0  0  0
   24.9351  -25.9226  -16.8382 C   0  0  0  0  0  0  0  0  0  0  0  0
   25.8622  -25.6658  -18.0037 C   0  0  2  0  0  0  0  0  0  0  0  0
   26.2740  -24.2659  -17.9319 N   0  0  0  0  0  0  0  0  0  0  0  0
   25.0624  -25.7857  -19.2569 C   0  0  0  0  0  0  0  0  0  0  0  0
   25.2962  -26.8502  -20.1202 O   0  0  0  0  0  0  0  0  0  0  0  0
   24.1675  -24.9688  -19.5956 O   0  0  0  0  0  0  0  0  0  0  0  0
  2  1  1  6
  2  3  1  0
  3  4  1  0
  4  5  1  0
  5  9  1  0
  6  5  2  0
  7  2  1  0
  8  7  2  0
 10  7  1  0
 11 10  1  0
 11 12  1  1
 12 13  1  0
 13 14  2  0
 14 15  1  0
 16 15  1  0
 17 16  2  0
 18 17  1  0
 19 20  1  0
 19 18  2  0
 20 21  2  0
 21 13  1  0
 21 16  1  0
 22 11  1  0
 23 22  2  0
 25 24  1  0
 26 25  2  0
 28 27  1  1
 27 25  1  0
 28 29  1  0
 29 22  1  0
 30 28  1  0
 30 31  1  0
 32 30  2  0
M  END
$$$$
