EWN.pdb
     RDKit          3D

 32 33  0  0  1  0  0  0  0  0999 V2000
   29.4902  -22.6833  -17.2744 N   0  0  0  0  0  0  0  0  0  0  0  0
   28.1368  -22.3420  -17.5624 C   0  0  1  0  0  0  0  0  0  0  0  0
   27.5372  -23.1932  -18.6172 C   0  0  0  0  0  0  0  0  0  0  0  0
   27.9600  -22.9270  -20.0210 C   0  0  0  0  0  0  0  0  0  0  0  0
   28.1850  -21.5385  -20.3889 C   0  0  0  0  0  0  0  0  0  0  0  0
   29.2439  -20.8925  -20.4201 O   0  0  0  0  0  0  0  0  0  0  0  0
   27.3409  -22.2943  -16.3136 C   0  0  0  0  0  0  0  0  0  0  0  0
   26.5183  -23.2119  -16.1097 O   0  0  0  0  0  0  0  0  0  0  0  0
   27.0263  -20.8100  -20.7694 O   0  0  0  0  0  0  0  0  0  0  0  0
   27.4915  -21.2602  -15.3823 N   0  0  0  0  0  0  0  0  0  0  0  0
   26.8237  -21.1222  -14.1173 C   0  0  1  0  0  0  0  0  0  0  0  0
   27.4129  -20.0678  -13.1981 C   0  0  0  0  0  0  0  0  0  0  0  0
   26.8924  -20.0805  -11.8380 C   0  0  0  0  0  0  0  0  0  0  0  0
   25.6406  -19.7693  -11.4007 C   0  0  0  0  0  0  0  0  0  0  0  0
   25.5980  -19.9346  -10.0523 N   0  0  0  0  0  0  0  0  0  0  0  0
   26.7803  -20.3446   -9.5893 C   0  0  0  0  0  0  0  0  0  0  0  0
   27.2376  -20.6490   -8.3231 C   0  0  0  0  0  0  0  0  0  0  0  0
   28.5413  -21.0606   -8.1384 C   0  0  0  0  0  0  0  0  0  0  0  0
   29.3595  -21.1561   -9.2456 C   0  0  0  0  0  0  0  0  0  0  0  0
   28.9023  -20.8499  -10.5260 C   0  0  0  0  0  0  0  0  0  0  0  0
   27.6014  -20.4403  -10.6993 C   0  0  0  0  0  0  0  0  0  0  0  0
   25.3771  -20.9289  -14.1955 C   0  0  0  0  0  0  0  0  0  0  0  0
   24.8333  -19.9818  -14.8428 O   0  0  0  0  0  0  0  0  0  0  0  0
   20.3528  -23.6447  -14.3391 N   0  0  0  0  0  0  0  0  0  0  0  0
   21.0236  -23.1083  -13.2073 C   0  0  0  0  0  0  0  0  0  0  0  0
   20.3179  -22.6845  -12.2650 O   0  0  0  0  0  0  0  0  0  0  0  0
   22.4921  -23.0701  -13.1816 C   0  0  0  0  0  0  0  0  0  0  0  0
   23.0582  -21.7689  -13.7013 C   0  0  2  0  0  0  0  0  0  0  0  0
   24.5078  -21.8254  -13.5291 N   0  0  0  0  0  0  0  0  0  0  0  0
   22.5888  -20.6761  -12.8011 C   0  0  0  0  0  0  0  0  0  0  0  0
   21.6978  -19.7246  -13.2847 O   0  0  0  0  0  0  0  0  0  0  0  0
   22.9530  -20.5528  -11.6032 O   0  0  0  0  0  0  0  0  0  0  0  0
  2  1  1  1
  2  3  1  0
  3  4  1  0
  4  5  1  0
  5  9  1  0
  6  5  2  0
  7  2  1  0
  8  7  2  0
 10  7  1  0
 11 10  1  0
 11 12  1  6
 12 13  1  0
 13 14  2  0
 14 15  1  0
 16 15  1  0
 17 16  2  0
 18 17  1  0
 19 20  1  0
 19 18  2  0
 20 21  2  0
 21 13  1  0
 21 16  1  0
 22 11  1  0
 23 22  2  0
 25 24  1  0
 26 25  2  0
 28 27  1  1
 27 25  1  0
 28 29  1  0
 29 22  1  0
 30 28  1  0
 30 31  1  0
 32 30  2  0
M  END
$$$$
