EWN.pdb
     RDKit          3D

 32 33  0  0  1  0  0  0  0  0999 V2000
   22.3648  -18.7671  -15.1167 N   0  0  0  0  0  0  0  0  0  0  0  0
   21.0077  -19.1818  -14.9842 C   0  0  1  0  0  0  0  0  0  0  0  0
   20.8118  -20.1868  -13.9127 C   0  0  0  0  0  0  0  0  0  0  0  0
   21.3641  -21.5492  -14.1556 C   0  0  0  0  0  0  0  0  0  0  0  0
   20.6939  -22.3626  -15.1572 C   0  0  0  0  0  0  0  0  0  0  0  0
   21.0708  -22.6810  -16.2957 O   0  0  0  0  0  0  0  0  0  0  0  0
   20.1185  -18.0029  -14.8629 C   0  0  0  0  0  0  0  0  0  0  0  0
   20.3551  -17.1842  -13.9497 O   0  0  0  0  0  0  0  0  0  0  0  0
   19.4209  -22.8697  -14.7828 O   0  0  0  0  0  0  0  0  0  0  0  0
   19.0417  -17.7988  -15.7338 N   0  0  0  0  0  0  0  0  0  0  0  0
   18.1509  -16.6718  -15.7693 C   0  0  1  0  0  0  0  0  0  0  0  0
   18.2468  -15.8237  -17.0244 C   0  0  0  0  0  0  0  0  0  0  0  0
   19.4696  -15.0419  -17.1439 C   0  0  0  0  0  0  0  0  0  0  0  0
   20.6853  -15.4274  -17.6220 C   0  0  0  0  0  0  0  0  0  0  0  0
   21.5326  -14.3665  -17.5600 N   0  0  0  0  0  0  0  0  0  0  0  0
   20.9138  -13.2967  -17.0573 C   0  0  0  0  0  0  0  0  0  0  0  0
   21.3305  -12.0061  -16.8008 C   0  0  0  0  0  0  0  0  0  0  0  0
   20.4502  -11.0875  -16.2676 C   0  0  0  0  0  0  0  0  0  0  0  0
   19.1589  -11.4968  -16.0037 C   0  0  0  0  0  0  0  0  0  0  0  0
   18.7335  -12.7988  -16.2609 C   0  0  0  0  0  0  0  0  0  0  0  0
   19.6188  -13.7067  -16.7921 C   0  0  0  0  0  0  0  0  0  0  0  0
   16.7458  -16.9812  -15.5119 C   0  0  0  0  0  0  0  0  0  0  0  0
   16.1642  -18.0148  -15.9651 O   0  0  0  0  0  0  0  0  0  0  0  0
   12.0006  -16.6554  -13.3865 N   0  0  0  0  0  0  0  0  0  0  0  0
   12.8739  -15.8039  -12.6579 C   0  0  0  0  0  0  0  0  0  0  0  0
   12.4044  -15.2128  -11.6600 O   0  0  0  0  0  0  0  0  0  0  0  0
   14.2692  -15.6491  -13.0911 C   0  0  0  0  0  0  0  0  0  0  0  0
   14.5857  -16.4218  -14.3507 C   0  0  2  0  0  0  0  0  0  0  0  0
   15.9639  -16.1071  -14.7195 N   0  0  0  0  0  0  0  0  0  0  0  0
   13.7399  -15.8699  -15.4483 C   0  0  0  0  0  0  0  0  0  0  0  0
   12.6368  -16.5906  -15.8922 O   0  0  0  0  0  0  0  0  0  0  0  0
   13.9615  -14.7687  -16.0149 O   0  0  0  0  0  0  0  0  0  0  0  0
  2  1  1  1
  2  3  1  0
  3  4  1  0
  4  5  1  0
  5  9  1  0
  6  5  2  0
  7  2  1  0
  8  7  2  0
 10  7  1  0
 11 10  1  0
 11 12  1  6
 12 13  1  0
 13 14  2  0
 14 15  1  0
 16 15  1  0
 17 16  2  0
 18 17  1  0
 19 20  1  0
 19 18  2  0
 20 21  2  0
 21 13  1  0
 21 16  1  0
 22 11  1  0
 23 22  2  0
 25 24  1  0
 26 25  2  0
 28 27  1  1
 27 25  1  0
 28 29  1  0
 29 22  1  0
 30 28  1  0
 30 31  1  0
 32 30  2  0
M  END
$$$$
