EWN.pdb
     RDKit          3D

 32 33  0  0  1  0  0  0  0  0999 V2000
   28.2342  -21.7124  -14.7761 N   0  0  0  0  0  0  0  0  0  0  0  0
   27.2473  -20.7262  -14.4848 C   0  0  1  0  0  0  0  0  0  0  0  0
   26.5651  -20.2147  -15.6970 C   0  0  0  0  0  0  0  0  0  0  0  0
   27.4103  -19.5071  -16.6996 C   0  0  0  0  0  0  0  0  0  0  0  0
   27.3626  -18.0540  -16.6930 C   0  0  0  0  0  0  0  0  0  0  0  0
   26.3878  -17.2963  -16.8167 O   0  0  0  0  0  0  0  0  0  0  0  0
   26.3167  -21.2209  -13.4434 C   0  0  0  0  0  0  0  0  0  0  0  0
   25.6889  -22.2758  -13.6743 O   0  0  0  0  0  0  0  0  0  0  0  0
   28.6122  -17.4007  -16.5200 O   0  0  0  0  0  0  0  0  0  0  0  0
   26.1331  -20.5392  -12.2347 N   0  0  0  0  0  0  0  0  0  0  0  0
   25.2151  -20.8681  -11.1791 C   0  0  1  0  0  0  0  0  0  0  0  0
   25.5967  -20.3292   -9.8125 C   0  0  0  0  0  0  0  0  0  0  0  0
   26.9501  -20.6520   -9.3824 C   0  0  0  0  0  0  0  0  0  0  0  0
   27.8921  -21.4006  -10.0204 C   0  0  0  0  0  0  0  0  0  0  0  0
   29.0170  -21.4251   -9.2579 N   0  0  0  0  0  0  0  0  0  0  0  0
   28.8452  -20.7170   -8.1402 C   0  0  0  0  0  0  0  0  0  0  0  0
   29.6703  -20.4401   -7.0689 C   0  0  0  0  0  0  0  0  0  0  0  0
   29.2146  -19.6571   -6.0285 C   0  0  0  0  0  0  0  0  0  0  0  0
   27.9258  -19.1680   -6.0946 C   0  0  0  0  0  0  0  0  0  0  0  0
   27.0890  -19.4449   -7.1741 C   0  0  0  0  0  0  0  0  0  0  0  0
   27.5527  -20.2264   -8.2058 C   0  0  0  0  0  0  0  0  0  0  0  0
   23.8164  -20.5380  -11.4458 C   0  0  0  0  0  0  0  0  0  0  0  0
   23.3712  -19.3492  -11.4650 O   0  0  0  0  0  0  0  0  0  0  0  0
   19.0256  -21.1760  -13.3628 N   0  0  0  0  0  0  0  0  0  0  0  0
   19.8283  -22.2951  -13.7118 C   0  0  0  0  0  0  0  0  0  0  0  0
   19.3545  -23.1120  -14.5327 O   0  0  0  0  0  0  0  0  0  0  0  0
   21.1594  -22.4526  -13.1102 C   0  0  0  0  0  0  0  0  0  0  0  0
   21.5457  -21.2945  -12.2195 C   0  0  2  0  0  0  0  0  0  0  0  0
   22.8834  -21.5712  -11.7016 N   0  0  0  0  0  0  0  0  0  0  0  0
   20.6433  -21.3123  -11.0321 C   0  0  0  0  0  0  0  0  0  0  0  0
   21.1715  -21.5768   -9.7735 O   0  0  0  0  0  0  0  0  0  0  0  0
   19.4049  -21.0989  -11.0924 O   0  0  0  0  0  0  0  0  0  0  0  0
  2  1  1  6
  2  3  1  0
  3  4  1  0
  4  5  1  0
  5  9  1  0
  6  5  2  0
  7  2  1  0
  8  7  2  0
 10  7  1  0
 11 10  1  0
 11 12  1  1
 12 13  1  0
 13 14  2  0
 14 15  1  0
 16 15  1  0
 17 16  2  0
 18 17  1  0
 19 20  1  0
 19 18  2  0
 20 21  2  0
 21 13  1  0
 21 16  1  0
 22 11  1  0
 23 22  2  0
 25 24  1  0
 26 25  2  0
 28 27  1  6
 27 25  1  0
 28 29  1  0
 29 22  1  0
 30 28  1  0
 30 31  1  0
 32 30  2  0
M  END
$$$$
