EWN.pdb
     RDKit          3D

 32 33  0  0  1  0  0  0  0  0999 V2000
   28.9239  -22.9314  -16.3640 N   0  0  0  0  0  0  0  0  0  0  0  0
   28.0671  -21.8058  -16.1895 C   0  0  1  0  0  0  0  0  0  0  0  0
   27.3639  -21.4155  -17.4345 C   0  0  0  0  0  0  0  0  0  0  0  0
   28.0642  -20.4546  -18.3326 C   0  0  0  0  0  0  0  0  0  0  0  0
   28.1824  -20.8282  -19.7327 C   0  0  0  0  0  0  0  0  0  0  0  0
   27.7865  -21.8515  -20.3121 O   0  0  0  0  0  0  0  0  0  0  0  0
   27.1604  -22.0225  -15.0380 C   0  0  0  0  0  0  0  0  0  0  0  0
   26.7211  -23.1764  -14.8493 O   0  0  0  0  0  0  0  0  0  0  0  0
   28.8477  -19.8874  -20.5637 O   0  0  0  0  0  0  0  0  0  0  0  0
   26.7955  -20.9782  -14.1802 N   0  0  0  0  0  0  0  0  0  0  0  0
   25.9208  -21.0500  -13.0423 C   0  0  1  0  0  0  0  0  0  0  0  0
   26.2953  -20.1328  -11.8924 C   0  0  0  0  0  0  0  0  0  0  0  0
   27.4458  -20.5668  -11.1120 C   0  0  0  0  0  0  0  0  0  0  0  0
   28.6242  -21.0914  -11.5491 C   0  0  0  0  0  0  0  0  0  0  0  0
   29.4154  -21.3391  -10.4721 N   0  0  0  0  0  0  0  0  0  0  0  0
   28.7958  -20.9942   -9.3418 C   0  0  0  0  0  0  0  0  0  0  0  0
   29.1689  -21.0460   -8.0140 C   0  0  0  0  0  0  0  0  0  0  0  0
   28.3028  -20.6071   -7.0340 C   0  0  0  0  0  0  0  0  0  0  0  0
   27.0701  -20.1221   -7.4208 C   0  0  0  0  0  0  0  0  0  0  0  0
   26.6888  -20.0679   -8.7602 C   0  0  0  0  0  0  0  0  0  0  0  0
   27.5592  -20.5081   -9.7291 C   0  0  0  0  0  0  0  0  0  0  0  0
   24.4993  -20.8831  -13.3388 C   0  0  0  0  0  0  0  0  0  0  0  0
   24.0540  -20.0252  -14.1620 O   0  0  0  0  0  0  0  0  0  0  0  0
   19.4222  -22.4877  -13.5975 N   0  0  0  0  0  0  0  0  0  0  0  0
   19.9456  -22.5892  -12.2806 C   0  0  0  0  0  0  0  0  0  0  0  0
   19.1267  -22.6914  -11.3401 O   0  0  0  0  0  0  0  0  0  0  0  0
   21.3997  -22.5711  -12.0715 C   0  0  0  0  0  0  0  0  0  0  0  0
   22.1107  -21.5702  -12.9526 C   0  0  2  0  0  0  0  0  0  0  0  0
   23.5426  -21.7039  -12.6953 N   0  0  0  0  0  0  0  0  0  0  0  0
   21.7429  -20.2045  -12.4792 C   0  0  0  0  0  0  0  0  0  0  0  0
   20.8274  -19.4507  -13.2050 O   0  0  0  0  0  0  0  0  0  0  0  0
   22.2164  -19.6736  -11.4415 O   0  0  0  0  0  0  0  0  0  0  0  0
  2  1  1  6
  2  3  1  0
  3  4  1  0
  4  5  1  0
  5  9  1  0
  6  5  2  0
  7  2  1  0
  8  7  2  0
 10  7  1  0
 11 10  1  0
 11 12  1  1
 12 13  1  0
 13 14  2  0
 14 15  1  0
 16 15  1  0
 17 16  2  0
 18 17  1  0
 19 20  1  0
 19 18  2  0
 20 21  2  0
 21 13  1  0
 21 16  1  0
 22 11  1  0
 23 22  2  0
 25 24  1  0
 26 25  2  0
 28 27  1  1
 27 25  1  0
 28 29  1  0
 29 22  1  0
 30 28  1  0
 30 31  1  0
 32 30  2  0
M  END
$$$$
