EWN.pdb
     RDKit          3D

 32 33  0  0  1  0  0  0  0  0999 V2000
   22.9826  -22.1636  -18.3582 N   0  0  0  0  0  0  0  0  0  0  0  0
   21.8356  -22.8312  -17.8385 C   0  0  1  0  0  0  0  0  0  0  0  0
   21.7493  -24.2486  -18.2629 C   0  0  0  0  0  0  0  0  0  0  0  0
   21.5610  -24.5073  -19.7182 C   0  0  0  0  0  0  0  0  0  0  0  0
   22.6799  -25.1012  -20.4317 C   0  0  0  0  0  0  0  0  0  0  0  0
   23.8222  -25.3667  -20.0265 O   0  0  0  0  0  0  0  0  0  0  0  0
   21.7518  -22.6443  -16.3711 C   0  0  0  0  0  0  0  0  0  0  0  0
   22.7698  -22.8929  -15.6914 O   0  0  0  0  0  0  0  0  0  0  0  0
   22.4352  -25.4272  -21.7926 O   0  0  0  0  0  0  0  0  0  0  0  0
   20.5766  -22.2059  -15.7496 N   0  0  0  0  0  0  0  0  0  0  0  0
   20.3956  -21.8728  -14.3634 C   0  0  1  0  0  0  0  0  0  0  0  0
   20.2032  -20.3934  -14.0841 C   0  0  0  0  0  0  0  0  0  0  0  0
   21.3153  -19.5438  -14.4872 C   0  0  0  0  0  0  0  0  0  0  0  0
   22.5841  -19.5081  -13.9934 C   0  0  0  0  0  0  0  0  0  0  0  0
   23.2903  -18.5701  -14.6781 N   0  0  0  0  0  0  0  0  0  0  0  0
   22.5275  -17.9887  -15.6057 C   0  0  0  0  0  0  0  0  0  0  0  0
   22.7732  -17.0014  -16.5383 C   0  0  0  0  0  0  0  0  0  0  0  0
   21.7703  -16.5905  -17.3919 C   0  0  0  0  0  0  0  0  0  0  0  0
   20.5326  -17.1912  -17.2830 C   0  0  0  0  0  0  0  0  0  0  0  0
   20.2798  -18.1885  -16.3429 C   0  0  0  0  0  0  0  0  0  0  0  0
   21.2860  -18.5905  -15.4967 C   0  0  0  0  0  0  0  0  0  0  0  0
   19.3496  -22.6258  -13.6741 C   0  0  0  0  0  0  0  0  0  0  0  0
   18.2658  -22.9840  -14.2298 O   0  0  0  0  0  0  0  0  0  0  0  0
   18.4814  -25.1101   -8.0319 N   0  0  0  0  0  0  0  0  0  0  0  0
   18.0949  -24.7352   -9.3467 C   0  0  0  0  0  0  0  0  0  0  0  0
   16.9243  -24.9986   -9.7016 O   0  0  0  0  0  0  0  0  0  0  0  0
   19.0618  -24.0652  -10.2268 C   0  0  0  0  0  0  0  0  0  0  0  0
   18.4736  -23.6776  -11.5638 C   0  0  2  0  0  0  0  0  0  0  0  0
   19.5210  -22.9931  -12.3180 N   0  0  0  0  0  0  0  0  0  0  0  0
   17.4195  -22.6515  -11.3175 C   0  0  0  0  0  0  0  0  0  0  0  0
   16.0816  -22.9880  -11.4895 O   0  0  0  0  0  0  0  0  0  0  0  0
   17.6641  -21.4716  -10.9556 O   0  0  0  0  0  0  0  0  0  0  0  0
  2  1  1  1
  2  3  1  0
  3  4  1  0
  4  5  1  0
  5  9  1  0
  6  5  2  0
  7  2  1  0
  8  7  2  0
 10  7  1  0
 11 10  1  0
 11 12  1  6
 12 13  1  0
 13 14  2  0
 14 15  1  0
 16 15  1  0
 17 16  2  0
 18 17  1  0
 19 20  1  0
 19 18  2  0
 20 21  2  0
 21 13  1  0
 21 16  1  0
 22 11  1  0
 23 22  2  0
 25 24  1  0
 26 25  2  0
 28 27  1  1
 27 25  1  0
 28 29  1  0
 29 22  1  0
 30 28  1  0
 30 31  1  0
 32 30  2  0
M  END
$$$$
