EWN.pdb
     RDKit          3D

 32 33  0  0  1  0  0  0  0  0999 V2000
   22.1003  -15.3507  -18.4870 N   0  0  0  0  0  0  0  0  0  0  0  0
   21.4529  -14.1078  -18.7471 C   0  0  1  0  0  0  0  0  0  0  0  0
   19.9745  -14.2113  -18.7318 C   0  0  0  0  0  0  0  0  0  0  0  0
   19.3247  -14.4016  -17.4045 C   0  0  0  0  0  0  0  0  0  0  0  0
   17.8822  -14.5831  -17.3974 C   0  0  0  0  0  0  0  0  0  0  0  0
   17.1122  -14.7440  -16.4377 O   0  0  0  0  0  0  0  0  0  0  0  0
   21.9840  -13.0533  -17.8522 C   0  0  0  0  0  0  0  0  0  0  0  0
   22.1084  -13.3245  -16.6392 O   0  0  0  0  0  0  0  0  0  0  0  0
   17.2575  -14.5760  -18.6732 O   0  0  0  0  0  0  0  0  0  0  0  0
   22.3380  -11.7873  -18.3334 N   0  0  0  0  0  0  0  0  0  0  0  0
   22.8345  -10.6734  -17.5732 C   0  0  1  0  0  0  0  0  0  0  0  0
   24.1661  -10.1213  -18.0485 C   0  0  0  0  0  0  0  0  0  0  0  0
   25.2983  -11.0215  -17.8795 C   0  0  0  0  0  0  0  0  0  0  0  0
   25.8199  -11.9122  -18.7680 C   0  0  0  0  0  0  0  0  0  0  0  0
   26.8832  -12.5305  -18.1896 N   0  0  0  0  0  0  0  0  0  0  0  0
   27.0775  -12.0752  -16.9506 C   0  0  0  0  0  0  0  0  0  0  0  0
   28.0065  -12.3766  -15.9753 C   0  0  0  0  0  0  0  0  0  0  0  0
   27.9670  -11.7288  -14.7579 C   0  0  0  0  0  0  0  0  0  0  0  0
   26.9823  -10.7840  -14.5521 C   0  0  0  0  0  0  0  0  0  0  0  0
   26.0421  -10.4763  -15.5337 C   0  0  0  0  0  0  0  0  0  0  0  0
   26.0901  -11.1278  -16.7435 C   0  0  0  0  0  0  0  0  0  0  0  0
   21.8947   -9.5667  -17.4052 C   0  0  0  0  0  0  0  0  0  0  0  0
   21.1712   -9.1162  -18.3462 O   0  0  0  0  0  0  0  0  0  0  0  0
   19.1385   -5.8798  -14.9099 N   0  0  0  0  0  0  0  0  0  0  0  0
   19.4502   -6.9359  -14.0122 C   0  0  0  0  0  0  0  0  0  0  0  0
   18.9057   -6.9159  -12.8858 O   0  0  0  0  0  0  0  0  0  0  0  0
   20.3816   -7.9937  -14.4273 C   0  0  0  0  0  0  0  0  0  0  0  0
   20.7464   -7.9179  -15.8919 C   0  0  2  0  0  0  0  0  0  0  0  0
   21.7569   -8.9429  -16.1422 N   0  0  0  0  0  0  0  0  0  0  0  0
   21.4311   -6.6133  -16.1239 C   0  0  0  0  0  0  0  0  0  0  0  0
   22.7840   -6.5965  -16.4439 O   0  0  0  0  0  0  0  0  0  0  0  0
   20.8538   -5.4981  -16.0479 O   0  0  0  0  0  0  0  0  0  0  0  0
  2  1  1  1
  2  3  1  0
  3  4  1  0
  4  5  1  0
  5  9  1  0
  6  5  2  0
  7  2  1  0
  8  7  2  0
 10  7  1  0
 11 10  1  0
 11 12  1  6
 12 13  1  0
 13 14  2  0
 14 15  1  0
 16 15  1  0
 17 16  2  0
 18 17  1  0
 19 20  1  0
 19 18  2  0
 20 21  2  0
 21 13  1  0
 21 16  1  0
 22 11  1  0
 23 22  2  0
 25 24  1  0
 26 25  2  0
 28 27  1  1
 27 25  1  0
 28 29  1  0
 29 22  1  0
 30 28  1  0
 30 31  1  0
 32 30  2  0
M  END
$$$$
