EWN.pdb
     RDKit          3D

 32 33  0  0  1  0  0  0  0  0999 V2000
   28.3265  -20.9783  -14.2961 N   0  0  0  0  0  0  0  0  0  0  0  0
   26.9959  -21.1137  -14.7887 C   0  0  1  0  0  0  0  0  0  0  0  0
   26.8962  -22.0453  -15.9372 C   0  0  0  0  0  0  0  0  0  0  0  0
   27.7033  -21.7160  -17.1457 C   0  0  0  0  0  0  0  0  0  0  0  0
   27.5178  -20.3938  -17.7213 C   0  0  0  0  0  0  0  0  0  0  0  0
   28.2903  -19.4229  -17.7321 O   0  0  0  0  0  0  0  0  0  0  0  0
   26.0667  -21.4353  -13.6804 C   0  0  0  0  0  0  0  0  0  0  0  0
   25.3344  -22.4395  -13.8047 O   0  0  0  0  0  0  0  0  0  0  0  0
   26.2714  -20.1762  -18.3672 O   0  0  0  0  0  0  0  0  0  0  0  0
   25.9972  -20.6484  -12.5247 N   0  0  0  0  0  0  0  0  0  0  0  0
   25.1019  -20.8106  -11.4124 C   0  0  1  0  0  0  0  0  0  0  0  0
   25.6067  -20.2384  -10.1003 C   0  0  0  0  0  0  0  0  0  0  0  0
   26.9452  -20.6673   -9.7191 C   0  0  0  0  0  0  0  0  0  0  0  0
   27.7978  -21.4945  -10.3852 C   0  0  0  0  0  0  0  0  0  0  0  0
   28.9459  -21.6052   -9.6661 N   0  0  0  0  0  0  0  0  0  0  0  0
   28.8758  -20.8777   -8.5498 C   0  0  0  0  0  0  0  0  0  0  0  0
   29.7617  -20.6614   -7.5138 C   0  0  0  0  0  0  0  0  0  0  0  0
   29.4120  -19.8368   -6.4646 C   0  0  0  0  0  0  0  0  0  0  0  0
   28.1655  -19.2448   -6.4863 C   0  0  0  0  0  0  0  0  0  0  0  0
   27.2675  -19.4602   -7.5300 C   0  0  0  0  0  0  0  0  0  0  0  0
   27.6258  -20.2840   -8.5708 C   0  0  0  0  0  0  0  0  0  0  0  0
   23.7360  -20.3429  -11.6399 C   0  0  0  0  0  0  0  0  0  0  0  0
   23.4595  -19.1905  -12.0953 O   0  0  0  0  0  0  0  0  0  0  0  0
   19.0685  -21.1923  -13.5916 N   0  0  0  0  0  0  0  0  0  0  0  0
   20.1299  -22.0596  -13.9653 C   0  0  0  0  0  0  0  0  0  0  0  0
   19.9439  -22.8089  -14.9500 O   0  0  0  0  0  0  0  0  0  0  0  0
   21.3837  -22.0481  -13.1996 C   0  0  0  0  0  0  0  0  0  0  0  0
   21.3629  -21.0708  -12.0471 C   0  0  2  0  0  0  0  0  0  0  0  0
   22.6414  -21.1922  -11.3505 N   0  0  0  0  0  0  0  0  0  0  0  0
   20.3303  -21.5339  -11.0756 C   0  0  0  0  0  0  0  0  0  0  0  0
   19.1593  -20.8010  -10.9183 O   0  0  0  0  0  0  0  0  0  0  0  0
   20.4488  -22.5690  -10.3703 O   0  0  0  0  0  0  0  0  0  0  0  0
  2  1  1  1
  2  3  1  0
  3  4  1  0
  4  5  1  0
  5  9  1  0
  6  5  2  0
  7  2  1  0
  8  7  2  0
 10  7  1  0
 11 10  1  0
 11 12  1  1
 12 13  1  0
 13 14  2  0
 14 15  1  0
 16 15  1  0
 17 16  2  0
 18 17  1  0
 19 20  1  0
 19 18  2  0
 20 21  2  0
 21 13  1  0
 21 16  1  0
 22 11  1  0
 23 22  2  0
 25 24  1  0
 26 25  2  0
 28 27  1  6
 27 25  1  0
 28 29  1  0
 29 22  1  0
 30 28  1  0
 30 31  1  0
 32 30  2  0
M  END
$$$$
