EWN.pdb
     RDKit          3D

 32 33  0  0  1  0  0  0  0  0999 V2000
   28.6147  -18.5882  -15.9642 N   0  0  0  0  0  0  0  0  0  0  0  0
   27.9801  -18.5298  -14.6894 C   0  0  1  0  0  0  0  0  0  0  0  0
   26.8728  -17.5459  -14.6388 C   0  0  0  0  0  0  0  0  0  0  0  0
   26.0651  -17.3741  -15.8791 C   0  0  0  0  0  0  0  0  0  0  0  0
   24.6191  -17.4261  -15.7359 C   0  0  0  0  0  0  0  0  0  0  0  0
   23.7355  -17.2639  -16.5917 O   0  0  0  0  0  0  0  0  0  0  0  0
   27.5885  -19.8882  -14.2463 C   0  0  0  0  0  0  0  0  0  0  0  0
   27.3474  -20.7426  -15.1251 O   0  0  0  0  0  0  0  0  0  0  0  0
   24.1428  -17.7028  -14.4264 O   0  0  0  0  0  0  0  0  0  0  0  0
   27.4848  -20.2202  -12.8903 N   0  0  0  0  0  0  0  0  0  0  0  0
   27.1555  -21.5016  -12.3294 C   0  0  1  0  0  0  0  0  0  0  0  0
   27.7418  -21.7642  -10.9542 C   0  0  0  0  0  0  0  0  0  0  0  0
   27.0647  -21.0836   -9.8591 C   0  0  0  0  0  0  0  0  0  0  0  0
   25.7699  -20.6682   -9.7835 C   0  0  0  0  0  0  0  0  0  0  0  0
   25.5689  -20.0920   -8.5691 N   0  0  0  0  0  0  0  0  0  0  0  0
   26.6888  -20.1154   -7.8441 C   0  0  0  0  0  0  0  0  0  0  0  0
   26.9941  -19.6683   -6.5746 C   0  0  0  0  0  0  0  0  0  0  0  0
   28.2673  -19.8336   -6.0700 C   0  0  0  0  0  0  0  0  0  0  0  0
   29.2104  -20.4518   -6.8656 C   0  0  0  0  0  0  0  0  0  0  0  0
   28.9069  -20.9049   -8.1481 C   0  0  0  0  0  0  0  0  0  0  0  0
   27.6350  -20.7350   -8.6418 C   0  0  0  0  0  0  0  0  0  0  0  0
   25.7298  -21.8230  -12.3067 C   0  0  0  0  0  0  0  0  0  0  0  0
   25.2659  -22.9068  -11.8357 O   0  0  0  0  0  0  0  0  0  0  0  0
   20.5898  -21.2614  -12.7037 N   0  0  0  0  0  0  0  0  0  0  0  0
   21.2281  -20.2458  -11.9424 C   0  0  0  0  0  0  0  0  0  0  0  0
   20.5002  -19.4982  -11.2518 O   0  0  0  0  0  0  0  0  0  0  0  0
   22.6902  -20.1101  -11.9903 C   0  0  0  0  0  0  0  0  0  0  0  0
   23.3553  -21.1775  -12.8282 C   0  0  2  0  0  0  0  0  0  0  0  0
   24.7899  -20.9012  -12.8264 N   0  0  0  0  0  0  0  0  0  0  0  0
   22.9117  -20.9905  -14.2400 C   0  0  0  0  0  0  0  0  0  0  0  0
   23.8309  -20.5793  -15.1986 O   0  0  0  0  0  0  0  0  0  0  0  0
   21.7325  -21.1843  -14.6333 O   0  0  0  0  0  0  0  0  0  0  0  0
  2  1  1  6
  2  3  1  0
  3  4  1  0
  4  5  1  0
  5  9  1  0
  6  5  2  0
  7  2  1  0
  8  7  2  0
 10  7  1  0
 11 10  1  0
 11 12  1  1
 12 13  1  0
 13 14  2  0
 14 15  1  0
 16 15  1  0
 17 16  2  0
 18 17  1  0
 19 20  1  0
 19 18  2  0
 20 21  2  0
 21 13  1  0
 21 16  1  0
 22 11  1  0
 23 22  2  0
 25 24  1  0
 26 25  2  0
 28 27  1  1
 27 25  1  0
 28 29  1  0
 29 22  1  0
 30 28  1  0
 30 31  1  0
 32 30  2  0
M  END
$$$$
