EWN.pdb
     RDKit          3D

 32 33  0  0  1  0  0  0  0  0999 V2000
   27.7852  -22.1889  -15.5433 N   0  0  0  0  0  0  0  0  0  0  0  0
   27.8310  -21.0796  -14.6495 C   0  0  1  0  0  0  0  0  0  0  0  0
   27.4172  -19.8066  -15.2857 C   0  0  0  0  0  0  0  0  0  0  0  0
   27.1683  -19.8355  -16.7546 C   0  0  0  0  0  0  0  0  0  0  0  0
   28.3323  -19.9554  -17.6175 C   0  0  0  0  0  0  0  0  0  0  0  0
   29.4126  -19.3467  -17.5737 O   0  0  0  0  0  0  0  0  0  0  0  0
   27.0899  -21.3902  -13.4048 C   0  0  0  0  0  0  0  0  0  0  0  0
   25.9804  -21.9543  -13.5107 O   0  0  0  0  0  0  0  0  0  0  0  0
   28.2221  -20.9076  -18.6660 O   0  0  0  0  0  0  0  0  0  0  0  0
   27.6008  -21.0669  -12.1423 N   0  0  0  0  0  0  0  0  0  0  0  0
   26.8755  -20.9791  -10.9048 C   0  0  1  0  0  0  0  0  0  0  0  0
   27.6991  -20.5197   -9.7154 C   0  0  0  0  0  0  0  0  0  0  0  0
   26.9567  -20.3905   -8.4692 C   0  0  0  0  0  0  0  0  0  0  0  0
   25.6141  -20.4880   -8.2620 C   0  0  0  0  0  0  0  0  0  0  0  0
   25.3653  -20.3127   -6.9374 N   0  0  0  0  0  0  0  0  0  0  0  0
   26.5000  -20.1035   -6.2674 C   0  0  0  0  0  0  0  0  0  0  0  0
   26.7742  -19.8791   -4.9334 C   0  0  0  0  0  0  0  0  0  0  0  0
   28.0760  -19.6944   -4.5158 C   0  0  0  0  0  0  0  0  0  0  0  0
   29.0788  -19.7412   -5.4627 C   0  0  0  0  0  0  0  0  0  0  0  0
   28.8070  -19.9675   -6.8107 C   0  0  0  0  0  0  0  0  0  0  0  0
   27.5062  -20.1500   -7.2166 C   0  0  0  0  0  0  0  0  0  0  0  0
   25.6434  -20.1948  -10.9602 C   0  0  0  0  0  0  0  0  0  0  0  0
   25.6225  -18.9405  -11.1550 O   0  0  0  0  0  0  0  0  0  0  0  0
   21.3984  -19.9697  -14.4169 N   0  0  0  0  0  0  0  0  0  0  0  0
   21.4859  -20.5022  -13.1026 C   0  0  0  0  0  0  0  0  0  0  0  0
   20.4258  -20.5912  -12.4439 O   0  0  0  0  0  0  0  0  0  0  0  0
   22.7902  -20.9216  -12.5721 C   0  0  0  0  0  0  0  0  0  0  0  0
   23.1480  -20.2357  -11.2740 C   0  0  2  0  0  0  0  0  0  0  0  0
   24.3915  -20.8339  -10.7941 N   0  0  0  0  0  0  0  0  0  0  0  0
   22.1113  -20.6000  -10.2655 C   0  0  0  0  0  0  0  0  0  0  0  0
   21.1069  -19.6900   -9.9554 O   0  0  0  0  0  0  0  0  0  0  0  0
   22.0823  -21.7026   -9.6602 O   0  0  0  0  0  0  0  0  0  0  0  0
  2  1  1  6
  2  3  1  0
  3  4  1  0
  4  5  1  0
  5  9  1  0
  6  5  2  0
  7  2  1  0
  8  7  2  0
 10  7  1  0
 11 10  1  0
 11 12  1  1
 12 13  1  0
 13 14  2  0
 14 15  1  0
 16 15  1  0
 17 16  2  0
 18 17  1  0
 19 20  1  0
 19 18  2  0
 20 21  2  0
 21 13  1  0
 21 16  1  0
 22 11  1  0
 23 22  2  0
 25 24  1  0
 26 25  2  0
 28 27  1  6
 27 25  1  0
 28 29  1  0
 29 22  1  0
 30 28  1  0
 30 31  1  0
 32 30  2  0
M  END
$$$$
