EWN.pdb
     RDKit          3D

 32 33  0  0  1  0  0  0  0  0999 V2000
   18.0521  -30.2318   -8.4056 N   0  0  0  0  0  0  0  0  0  0  0  0
   17.1179  -29.1854   -8.1533 C   0  0  1  0  0  0  0  0  0  0  0  0
   15.7271  -29.6752   -8.0033 C   0  0  0  0  0  0  0  0  0  0  0  0
   15.5257  -30.8892   -7.1631 C   0  0  0  0  0  0  0  0  0  0  0  0
   15.6378  -30.7197   -5.7234 C   0  0  0  0  0  0  0  0  0  0  0  0
   16.5916  -30.9731   -4.9714 O   0  0  0  0  0  0  0  0  0  0  0  0
   17.5776  -28.3464   -7.0220 C   0  0  0  0  0  0  0  0  0  0  0  0
   18.7136  -28.5694   -6.5531 O   0  0  0  0  0  0  0  0  0  0  0  0
   14.4901  -30.1863   -5.0782 O   0  0  0  0  0  0  0  0  0  0  0  0
   16.7764  -27.3334   -6.4821 N   0  0  0  0  0  0  0  0  0  0  0  0
   17.1692  -26.3181   -5.5440 C   0  0  1  0  0  0  0  0  0  0  0  0
   16.9855  -24.8933   -6.0339 C   0  0  0  0  0  0  0  0  0  0  0  0
   17.6303  -24.5942   -7.3049 C   0  0  0  0  0  0  0  0  0  0  0  0
   18.9253  -24.7995   -7.6736 C   0  0  0  0  0  0  0  0  0  0  0  0
   19.0825  -24.3829   -8.9577 N   0  0  0  0  0  0  0  0  0  0  0  0
   17.9335  -23.9110   -9.4450 C   0  0  0  0  0  0  0  0  0  0  0  0
   17.5801  -23.3849  -10.6712 C   0  0  0  0  0  0  0  0  0  0  0  0
   16.2843  -22.9700  -10.8989 C   0  0  0  0  0  0  0  0  0  0  0  0
   15.3680  -23.0972   -9.8748 C   0  0  0  0  0  0  0  0  0  0  0  0
   15.7200  -23.6277   -8.6351 C   0  0  0  0  0  0  0  0  0  0  0  0
   17.0142  -24.0379   -8.4183 C   0  0  0  0  0  0  0  0  0  0  0  0
   16.5814  -26.4414   -4.2115 C   0  0  0  0  0  0  0  0  0  0  0  0
   15.3447  -26.6466   -4.0104 O   0  0  0  0  0  0  0  0  0  0  0  0
   17.1252  -27.8685    1.1785 N   0  0  0  0  0  0  0  0  0  0  0  0
   17.6445  -26.6605    0.6404 C   0  0  0  0  0  0  0  0  0  0  0  0
   17.7410  -25.6795    1.4111 O   0  0  0  0  0  0  0  0  0  0  0  0
   18.0424  -26.6046   -0.7727 C   0  0  0  0  0  0  0  0  0  0  0  0
   16.8666  -26.4710   -1.7126 C   0  0  2  0  0  0  0  0  0  0  0  0
   17.4034  -26.3336   -3.0644 N   0  0  0  0  0  0  0  0  0  0  0  0
   16.1904  -25.1753   -1.4149 C   0  0  0  0  0  0  0  0  0  0  0  0
   15.2956  -25.0969   -0.3538 O   0  0  0  0  0  0  0  0  0  0  0  0
   16.3788  -24.1211   -2.0751 O   0  0  0  0  0  0  0  0  0  0  0  0
  2  1  1  1
  2  3  1  0
  3  4  1  0
  4  5  1  0
  5  9  1  0
  6  5  2  0
  7  2  1  0
  8  7  2  0
 10  7  1  0
 11 10  1  0
 11 12  1  6
 12 13  1  0
 13 14  2  0
 14 15  1  0
 16 15  1  0
 17 16  2  0
 18 17  1  0
 19 20  1  0
 19 18  2  0
 20 21  2  0
 21 13  1  0
 21 16  1  0
 22 11  1  0
 23 22  2  0
 25 24  1  0
 26 25  2  0
 28 27  1  1
 27 25  1  0
 28 29  1  0
 29 22  1  0
 30 28  1  0
 30 31  1  0
 32 30  2  0
M  END
$$$$
