EWN.pdb
     RDKit          3D

 32 33  0  0  1  0  0  0  0  0999 V2000
   28.4800  -20.9035  -14.8449 N   0  0  0  0  0  0  0  0  0  0  0  0
   27.8390  -19.9989  -13.9493 C   0  0  1  0  0  0  0  0  0  0  0  0
   27.3813  -18.7550  -14.6125 C   0  0  0  0  0  0  0  0  0  0  0  0
   26.8873  -18.8789  -16.0128 C   0  0  0  0  0  0  0  0  0  0  0  0
   26.3166  -17.6864  -16.6179 C   0  0  0  0  0  0  0  0  0  0  0  0
   25.2325  -17.1277  -16.3894 O   0  0  0  0  0  0  0  0  0  0  0  0
   26.7734  -20.6941  -13.1902 C   0  0  0  0  0  0  0  0  0  0  0  0
   26.2383  -21.6929  -13.7159 O   0  0  0  0  0  0  0  0  0  0  0  0
   27.1126  -17.0658  -17.6176 O   0  0  0  0  0  0  0  0  0  0  0  0
   26.3653  -20.2578  -11.9242 N   0  0  0  0  0  0  0  0  0  0  0  0
   25.3492  -20.8361  -11.0886 C   0  0  1  0  0  0  0  0  0  0  0  0
   25.5986  -20.7017   -9.5975 C   0  0  0  0  0  0  0  0  0  0  0  0
   26.9704  -20.9565   -9.1801 C   0  0  0  0  0  0  0  0  0  0  0  0
   27.9606  -21.6047   -9.8541 C   0  0  0  0  0  0  0  0  0  0  0  0
   29.0843  -21.5956   -9.0895 N   0  0  0  0  0  0  0  0  0  0  0  0
   28.8651  -20.9625   -7.9355 C   0  0  0  0  0  0  0  0  0  0  0  0
   29.6693  -20.6900   -6.8475 C   0  0  0  0  0  0  0  0  0  0  0  0
   29.1619  -19.9971   -5.7679 C   0  0  0  0  0  0  0  0  0  0  0  0
   27.8433  -19.5922   -5.8125 C   0  0  0  0  0  0  0  0  0  0  0  0
   27.0273  -19.8650   -6.9089 C   0  0  0  0  0  0  0  0  0  0  0  0
   27.5427  -20.5565   -7.9796 C   0  0  0  0  0  0  0  0  0  0  0  0
   23.9835  -20.4060  -11.3820 C   0  0  0  0  0  0  0  0  0  0  0  0
   23.6113  -19.1926  -11.3486 O   0  0  0  0  0  0  0  0  0  0  0  0
   21.6743  -18.2532  -14.9977 N   0  0  0  0  0  0  0  0  0  0  0  0
   21.3255  -19.0863  -13.9009 C   0  0  0  0  0  0  0  0  0  0  0  0
   20.3895  -18.7067  -13.1623 O   0  0  0  0  0  0  0  0  0  0  0  0
   22.0596  -20.3387  -13.6753 C   0  0  0  0  0  0  0  0  0  0  0  0
   21.7338  -20.9833  -12.3479 C   0  0  2  0  0  0  0  0  0  0  0  0
   23.0001  -21.3639  -11.7264 N   0  0  0  0  0  0  0  0  0  0  0  0
   21.0217  -22.2640  -12.6260 C   0  0  0  0  0  0  0  0  0  0  0  0
   19.6325  -22.2778  -12.6824 O   0  0  0  0  0  0  0  0  0  0  0  0
   21.6065  -23.3612  -12.8181 O   0  0  0  0  0  0  0  0  0  0  0  0
  2  1  1  6
  2  3  1  0
  3  4  1  0
  4  5  1  0
  5  9  1  0
  6  5  2  0
  7  2  1  0
  8  7  2  0
 10  7  1  0
 11 10  1  0
 11 12  1  1
 12 13  1  0
 13 14  2  0
 14 15  1  0
 16 15  1  0
 17 16  2  0
 18 17  1  0
 19 20  1  0
 19 18  2  0
 20 21  2  0
 21 13  1  0
 21 16  1  0
 22 11  1  0
 23 22  2  0
 25 24  1  0
 26 25  2  0
 28 27  1  6
 27 25  1  0
 28 29  1  0
 29 22  1  0
 30 28  1  0
 30 31  1  0
 32 30  2  0
M  END
$$$$
