EWN.pdb
     RDKit          3D

 32 33  0  0  1  0  0  0  0  0999 V2000
   21.7532  -16.9067  -17.7759 N   0  0  0  0  0  0  0  0  0  0  0  0
   20.9409  -15.8364  -17.3006 C   0  0  1  0  0  0  0  0  0  0  0  0
   19.8981  -16.2814  -16.3459 C   0  0  0  0  0  0  0  0  0  0  0  0
   19.0106  -17.3946  -16.7860 C   0  0  0  0  0  0  0  0  0  0  0  0
   17.5912  -17.2563  -16.5032 C   0  0  0  0  0  0  0  0  0  0  0  0
   16.9841  -16.3258  -15.9507 O   0  0  0  0  0  0  0  0  0  0  0  0
   21.7887  -14.7366  -16.7842 C   0  0  0  0  0  0  0  0  0  0  0  0
   22.3626  -14.9066  -15.6879 O   0  0  0  0  0  0  0  0  0  0  0  0
   16.7752  -18.3426  -16.9180 O   0  0  0  0  0  0  0  0  0  0  0  0
   21.9507  -13.5376  -17.4884 N   0  0  0  0  0  0  0  0  0  0  0  0
   22.7493  -12.4048  -17.1088 C   0  0  1  0  0  0  0  0  0  0  0  0
   23.9044  -12.0980  -18.0445 C   0  0  0  0  0  0  0  0  0  0  0  0
   24.9642  -13.0968  -18.0580 C   0  0  0  0  0  0  0  0  0  0  0  0
   25.1431  -14.1391  -18.9162 C   0  0  0  0  0  0  0  0  0  0  0  0
   26.2742  -14.8042  -18.5618 N   0  0  0  0  0  0  0  0  0  0  0  0
   26.8445  -14.2330  -17.4993 C   0  0  0  0  0  0  0  0  0  0  0  0
   27.9838  -14.5237  -16.7765 C   0  0  0  0  0  0  0  0  0  0  0  0
   28.3394  -13.7383  -15.6995 C   0  0  0  0  0  0  0  0  0  0  0  0
   27.5298  -12.6688  -15.3750 C   0  0  0  0  0  0  0  0  0  0  0  0
   26.3785  -12.3714  -16.1019 C   0  0  0  0  0  0  0  0  0  0  0  0
   26.0328  -13.1605  -17.1733 C   0  0  0  0  0  0  0  0  0  0  0  0
   22.0028  -11.1738  -16.8569 C   0  0  0  0  0  0  0  0  0  0  0  0
   21.0223  -10.7939  -17.5685 O   0  0  0  0  0  0  0  0  0  0  0  0
   19.5341   -7.7233  -14.3148 N   0  0  0  0  0  0  0  0  0  0  0  0
   20.5775   -8.1331  -13.4420 C   0  0  0  0  0  0  0  0  0  0  0  0
   20.4779   -7.8182  -12.2351 O   0  0  0  0  0  0  0  0  0  0  0  0
   21.7144   -8.8965  -13.9741 C   0  0  0  0  0  0  0  0  0  0  0  0
   21.6357   -9.1088  -15.4683 C   0  0  2  0  0  0  0  0  0  0  0  0
   22.3625  -10.3393  -15.7718 N   0  0  0  0  0  0  0  0  0  0  0  0
   22.4067   -8.0140  -16.1252 C   0  0  0  0  0  0  0  0  0  0  0  0
   21.7376   -6.8870  -16.5889 O   0  0  0  0  0  0  0  0  0  0  0  0
   23.6533   -8.0408  -16.2931 O   0  0  0  0  0  0  0  0  0  0  0  0
  2  1  1  1
  2  3  1  0
  3  4  1  0
  4  5  1  0
  5  9  1  0
  6  5  2  0
  7  2  1  0
  8  7  2  0
 10  7  1  0
 11 10  1  0
 11 12  1  6
 12 13  1  0
 13 14  2  0
 14 15  1  0
 16 15  1  0
 17 16  2  0
 18 17  1  0
 19 20  1  0
 19 18  2  0
 20 21  2  0
 21 13  1  0
 21 16  1  0
 22 11  1  0
 23 22  2  0
 25 24  1  0
 26 25  2  0
 28 27  1  1
 27 25  1  0
 28 29  1  0
 29 22  1  0
 30 28  1  0
 30 31  1  0
 32 30  2  0
M  END
$$$$
