EWN.pdb
     RDKit          3D

 32 33  0  0  1  0  0  0  0  0999 V2000
   28.4909  -19.0628  -13.8864 N   0  0  0  0  0  0  0  0  0  0  0  0
   27.6185  -20.1311  -14.2456 C   0  0  1  0  0  0  0  0  0  0  0  0
   28.1732  -20.9971  -15.3129 C   0  0  0  0  0  0  0  0  0  0  0  0
   27.4332  -21.0334  -16.6057 C   0  0  0  0  0  0  0  0  0  0  0  0
   27.5296  -22.2567  -17.3856 C   0  0  0  0  0  0  0  0  0  0  0  0
   26.8439  -23.2888  -17.3219 O   0  0  0  0  0  0  0  0  0  0  0  0
   27.1919  -20.8759  -13.0379 C   0  0  0  0  0  0  0  0  0  0  0  0
   26.5062  -21.9073  -13.1994 O   0  0  0  0  0  0  0  0  0  0  0  0
   28.5578  -22.2790  -18.3656 O   0  0  0  0  0  0  0  0  0  0  0  0
   27.5356  -20.4501  -11.7494 N   0  0  0  0  0  0  0  0  0  0  0  0
   26.9164  -20.8335  -10.5106 C   0  0  1  0  0  0  0  0  0  0  0  0
   27.8496  -20.8600   -9.3138 C   0  0  0  0  0  0  0  0  0  0  0  0
   27.1853  -20.8384   -8.0180 C   0  0  0  0  0  0  0  0  0  0  0  0
   25.9521  -21.3100   -7.6837 C   0  0  0  0  0  0  0  0  0  0  0  0
   25.7479  -21.0904   -6.3580 N   0  0  0  0  0  0  0  0  0  0  0  0
   26.8063  -20.4904   -5.8103 C   0  0  0  0  0  0  0  0  0  0  0  0
   27.0850  -20.0679   -4.5262 C   0  0  0  0  0  0  0  0  0  0  0  0
   28.2933  -19.4657   -4.2425 C   0  0  0  0  0  0  0  0  0  0  0  0
   29.1996  -19.3030   -5.2705 C   0  0  0  0  0  0  0  0  0  0  0  0
   28.9228  -19.7279   -6.5686 C   0  0  0  0  0  0  0  0  0  0  0  0
   27.7155  -20.3267   -6.8408 C   0  0  0  0  0  0  0  0  0  0  0  0
   25.7134  -20.0820  -10.1578 C   0  0  0  0  0  0  0  0  0  0  0  0
   25.7248  -18.8501   -9.8510 O   0  0  0  0  0  0  0  0  0  0  0  0
   21.3024  -19.2782  -12.5479 N   0  0  0  0  0  0  0  0  0  0  0  0
   22.4497  -19.8445  -13.1656 C   0  0  0  0  0  0  0  0  0  0  0  0
   22.4748  -19.8781  -14.4162 O   0  0  0  0  0  0  0  0  0  0  0  0
   23.5448  -20.3607  -12.3334 C   0  0  0  0  0  0  0  0  0  0  0  0
   23.2981  -20.1792  -10.8535 C   0  0  2  0  0  0  0  0  0  0  0  0
   24.4543  -20.7283  -10.1491 N   0  0  0  0  0  0  0  0  0  0  0  0
   22.1464  -21.0475  -10.4738 C   0  0  0  0  0  0  0  0  0  0  0  0
   22.3164  -22.4263  -10.4181 O   0  0  0  0  0  0  0  0  0  0  0  0
   21.0019  -20.6069  -10.1933 O   0  0  0  0  0  0  0  0  0  0  0  0
  2  1  1  1
  2  3  1  0
  3  4  1  0
  4  5  1  0
  5  9  1  0
  6  5  2  0
  7  2  1  0
  8  7  2  0
 10  7  1  0
 11 10  1  0
 11 12  1  1
 12 13  1  0
 13 14  2  0
 14 15  1  0
 16 15  1  0
 17 16  2  0
 18 17  1  0
 19 20  1  0
 19 18  2  0
 20 21  2  0
 21 13  1  0
 21 16  1  0
 22 11  1  0
 23 22  2  0
 25 24  1  0
 26 25  2  0
 28 27  1  6
 27 25  1  0
 28 29  1  0
 29 22  1  0
 30 28  1  0
 30 31  1  0
 32 30  2  0
M  END
$$$$
