EWN.pdb
     RDKit          3D

 32 33  0  0  1  0  0  0  0  0999 V2000
   21.3441  -16.6733  -14.8492 N   0  0  0  0  0  0  0  0  0  0  0  0
   21.1039  -15.7321  -15.8922 C   0  0  1  0  0  0  0  0  0  0  0  0
   19.6626  -15.5482  -16.1850 C   0  0  0  0  0  0  0  0  0  0  0  0
   18.8904  -16.7645  -16.5651 C   0  0  0  0  0  0  0  0  0  0  0  0
   19.1763  -17.3462  -17.8666 C   0  0  0  0  0  0  0  0  0  0  0  0
   18.9435  -16.8969  -18.9995 O   0  0  0  0  0  0  0  0  0  0  0  0
   21.8208  -14.4649  -15.6176 C   0  0  0  0  0  0  0  0  0  0  0  0
   21.7861  -14.0146  -14.4530 O   0  0  0  0  0  0  0  0  0  0  0  0
   19.8158  -18.6144  -17.8437 O   0  0  0  0  0  0  0  0  0  0  0  0
   22.5177  -13.7799  -16.6199 N   0  0  0  0  0  0  0  0  0  0  0  0
   23.3478  -12.6170  -16.4653 C   0  0  1  0  0  0  0  0  0  0  0  0
   24.6951  -12.6998  -17.1594 C   0  0  0  0  0  0  0  0  0  0  0  0
   25.4965  -13.8631  -16.8055 C   0  0  0  0  0  0  0  0  0  0  0  0
   25.3645  -14.6966  -15.7365 C   0  0  0  0  0  0  0  0  0  0  0  0
   26.3228  -15.6573  -15.8140 N   0  0  0  0  0  0  0  0  0  0  0  0
   27.0798  -15.4827  -16.8988 C   0  0  0  0  0  0  0  0  0  0  0  0
   28.1565  -16.1765  -17.4129 C   0  0  0  0  0  0  0  0  0  0  0  0
   28.7550  -15.7575  -18.5832 C   0  0  0  0  0  0  0  0  0  0  0  0
   28.2479  -14.6386  -19.2122 C   0  0  0  0  0  0  0  0  0  0  0  0
   27.1610  -13.9349  -18.6969 C   0  0  0  0  0  0  0  0  0  0  0  0
   26.5719  -14.3606  -17.5298 C   0  0  0  0  0  0  0  0  0  0  0  0
   22.7117  -11.3480  -16.8134 C   0  0  0  0  0  0  0  0  0  0  0  0
   22.1832  -11.1193  -17.9449 O   0  0  0  0  0  0  0  0  0  0  0  0
   19.3531   -7.5863  -17.3712 N   0  0  0  0  0  0  0  0  0  0  0  0
   19.5373   -8.2975  -16.1552 C   0  0  0  0  0  0  0  0  0  0  0  0
   18.9136   -7.8921  -15.1490 O   0  0  0  0  0  0  0  0  0  0  0  0
   20.4346   -9.4602  -16.1203 C   0  0  0  0  0  0  0  0  0  0  0  0
   21.8965   -9.0777  -16.1006 C   0  0  2  0  0  0  0  0  0  0  0  0
   22.6628  -10.2989  -15.8646 N   0  0  0  0  0  0  0  0  0  0  0  0
   22.1270   -8.2205  -14.9020 C   0  0  0  0  0  0  0  0  0  0  0  0
   21.6533   -6.9134  -14.8925 O   0  0  0  0  0  0  0  0  0  0  0  0
   22.7364   -8.6088  -13.8721 O   0  0  0  0  0  0  0  0  0  0  0  0
  2  1  1  1
  2  3  1  0
  3  4  1  0
  4  5  1  0
  5  9  1  0
  6  5  2  0
  7  2  1  0
  8  7  2  0
 10  7  1  0
 11 10  1  0
 11 12  1  6
 12 13  1  0
 13 14  2  0
 14 15  1  0
 16 15  1  0
 17 16  2  0
 18 17  1  0
 19 20  1  0
 19 18  2  0
 20 21  2  0
 21 13  1  0
 21 16  1  0
 22 11  1  0
 23 22  2  0
 25 24  1  0
 26 25  2  0
 28 27  1  1
 27 25  1  0
 28 29  1  0
 29 22  1  0
 30 28  1  0
 30 31  1  0
 32 30  2  0
M  END
$$$$
