EWN.pdb
     RDKit          3D

 32 33  0  0  1  0  0  0  0  0999 V2000
   29.2509  -23.2097  -15.6204 N   0  0  0  0  0  0  0  0  0  0  0  0
   28.9954  -21.8668  -15.2170 C   0  0  1  0  0  0  0  0  0  0  0  0
   28.6212  -20.9843  -16.3475 C   0  0  0  0  0  0  0  0  0  0  0  0
   29.6486  -20.7700  -17.4053 C   0  0  0  0  0  0  0  0  0  0  0  0
   29.4871  -21.5182  -18.6414 C   0  0  0  0  0  0  0  0  0  0  0  0
   28.5118  -21.5770  -19.4061 O   0  0  0  0  0  0  0  0  0  0  0  0
   28.0256  -21.8412  -14.0972 C   0  0  0  0  0  0  0  0  0  0  0  0
   26.9184  -22.3929  -14.2704 O   0  0  0  0  0  0  0  0  0  0  0  0
   30.6071  -22.2979  -19.0363 O   0  0  0  0  0  0  0  0  0  0  0  0
   28.3233  -21.2210  -12.8780 N   0  0  0  0  0  0  0  0  0  0  0  0
   27.4504  -21.0548  -11.7486 C   0  0  1  0  0  0  0  0  0  0  0  0
   28.1210  -20.5103  -10.5005 C   0  0  0  0  0  0  0  0  0  0  0  0
   27.2327  -20.3153   -9.3630 C   0  0  0  0  0  0  0  0  0  0  0  0
   25.8714  -20.3394   -9.3299 C   0  0  0  0  0  0  0  0  0  0  0  0
   25.4642  -20.1218   -8.0515 N   0  0  0  0  0  0  0  0  0  0  0  0
   26.5131  -19.9559   -7.2437 C   0  0  0  0  0  0  0  0  0  0  0  0
   26.6252  -19.7158   -5.8891 C   0  0  0  0  0  0  0  0  0  0  0  0
   27.8706  -19.5885   -5.3095 C   0  0  0  0  0  0  0  0  0  0  0  0
   28.9828  -19.7078   -6.1177 C   0  0  0  0  0  0  0  0  0  0  0  0
   28.8746  -19.9502   -7.4859 C   0  0  0  0  0  0  0  0  0  0  0  0
   27.6288  -20.0751   -8.0538 C   0  0  0  0  0  0  0  0  0  0  0  0
   26.2358  -20.2848  -12.0091 C   0  0  0  0  0  0  0  0  0  0  0  0
   26.2411  -19.0472  -12.2921 O   0  0  0  0  0  0  0  0  0  0  0  0
   24.7466  -19.9458  -15.7720 N   0  0  0  0  0  0  0  0  0  0  0  0
   23.8790  -19.5710  -14.7112 C   0  0  0  0  0  0  0  0  0  0  0  0
   23.5351  -18.3698  -14.6435 O   0  0  0  0  0  0  0  0  0  0  0  0
   23.4243  -20.5845  -13.7497 C   0  0  0  0  0  0  0  0  0  0  0  0
   23.7400  -20.2229  -12.3167 C   0  0  2  0  0  0  0  0  0  0  0  0
   24.9718  -20.9194  -11.9535 N   0  0  0  0  0  0  0  0  0  0  0  0
   22.6758  -20.8115  -11.4532 C   0  0  0  0  0  0  0  0  0  0  0  0
   21.6974  -19.9854  -10.9117 O   0  0  0  0  0  0  0  0  0  0  0  0
   22.6005  -22.0359  -11.1738 O   0  0  0  0  0  0  0  0  0  0  0  0
  2  1  1  6
  2  3  1  0
  3  4  1  0
  4  5  1  0
  5  9  1  0
  6  5  2  0
  7  2  1  0
  8  7  2  0
 10  7  1  0
 11 10  1  0
 11 12  1  1
 12 13  1  0
 13 14  2  0
 14 15  1  0
 16 15  1  0
 17 16  2  0
 18 17  1  0
 19 20  1  0
 19 18  2  0
 20 21  2  0
 21 13  1  0
 21 16  1  0
 22 11  1  0
 23 22  2  0
 25 24  1  0
 26 25  2  0
 28 27  1  6
 27 25  1  0
 28 29  1  0
 29 22  1  0
 30 28  1  0
 30 31  1  0
 32 30  2  0
M  END
$$$$
