VSA.pdb
     RDKit          3D

 19 18  0  0  1  0  0  0  0  0999 V2000
   14.8424  -11.4024  -16.2126 C   0  0  0  0  0  0  0  0  0  0  0  0
   16.0984  -11.5744  -17.0160 C   0  0  2  0  0  0  0  0  0  0  0  0
   15.9344  -12.7529  -17.9435 C   0  0  0  0  0  0  0  0  0  0  0  0
   17.2983  -11.8392  -16.1152 C   0  0  2  0  0  0  0  0  0  0  0  0
   17.1423  -13.0321  -15.3442 N   0  0  0  0  0  0  0  0  0  0  0  0
   17.5606  -10.6731  -15.2303 C   0  0  0  0  0  0  0  0  0  0  0  0
   16.9089  -10.4947  -14.1706 O   0  0  0  0  0  0  0  0  0  0  0  0
   21.0328   -8.9059  -15.2196 O   0  0  0  0  0  0  0  0  0  0  0  0
   20.1464   -8.4881  -14.2350 C   0  0  0  0  0  0  0  0  0  0  0  0
   18.7614   -8.5042  -14.8223 C   0  0  2  0  0  0  0  0  0  0  0  0
   18.5601   -9.7292  -15.5657 N   0  0  0  0  0  0  0  0  0  0  0  0
   18.6102   -7.3173  -15.7014 C   0  0  0  0  0  0  0  0  0  0  0  0
   18.9556   -7.3899  -16.8946 O   0  0  0  0  0  0  0  0  0  0  0  0
   16.8634   -4.0364  -15.3408 C   0  0  0  0  0  0  0  0  0  0  0  0
   17.9226   -4.9228  -15.9513 C   0  0  2  0  0  0  0  0  0  0  0  0
   18.0741   -6.1222  -15.1629 N   0  0  0  0  0  0  0  0  0  0  0  0
   19.2026   -4.1831  -16.0388 C   0  0  0  0  0  0  0  0  0  0  0  0
   19.3300   -3.1712  -16.9792 O   0  0  0  0  0  0  0  0  0  0  0  0
   20.1687   -4.4448  -15.2904 O   0  0  0  0  0  0  0  0  0  0  0  0
  2  3  1  6
  2  1  1  0
  4  2  1  0
  4  5  1  1
  6  4  1  0
  6 11  1  0
  7  6  2  0
  9  8  1  0
 10 11  1  0
 10  9  1  6
 12 10  1  0
 12 16  1  0
 13 12  2  0
 15 16  1  0
 15 14  1  1
 17 15  1  0
 18 17  1  0
 19 17  2  0
M  END
$$$$
