VSA.pdb
     RDKit          3D

 19 18  0  0  1  0  0  0  0  0999 V2000
   27.0652  -11.9761  -16.0586 C   0  0  0  0  0  0  0  0  0  0  0  0
   25.9316  -11.0394  -16.3582 C   0  0  2  0  0  0  0  0  0  0  0  0
   26.0590   -9.8143  -15.4870 C   0  0  0  0  0  0  0  0  0  0  0  0
   24.5852  -11.6918  -16.0703 C   0  0  2  0  0  0  0  0  0  0  0  0
   24.4150  -12.9178  -16.7844 N   0  0  0  0  0  0  0  0  0  0  0  0
   23.4705  -10.7531  -16.3665 C   0  0  0  0  0  0  0  0  0  0  0  0
   23.1582  -10.4582  -17.5477 O   0  0  0  0  0  0  0  0  0  0  0  0
   19.9681  -10.7979  -15.0559 O   0  0  0  0  0  0  0  0  0  0  0  0
   20.4862   -9.5765  -14.6440 C   0  0  0  0  0  0  0  0  0  0  0  0
   21.6430   -9.2375  -15.5441 C   0  0  2  0  0  0  0  0  0  0  0  0
   22.7294  -10.1652  -15.3140 N   0  0  0  0  0  0  0  0  0  0  0  0
   22.0654   -7.8426  -15.2610 C   0  0  0  0  0  0  0  0  0  0  0  0
   22.7605   -7.6041  -14.2570 O   0  0  0  0  0  0  0  0  0  0  0  0
   21.5981   -4.5913  -17.1067 C   0  0  0  0  0  0  0  0  0  0  0  0
   22.0554   -5.4324  -15.9390 C   0  0  2  0  0  0  0  0  0  0  0  0
   21.6676   -6.8077  -16.1421 N   0  0  0  0  0  0  0  0  0  0  0  0
   21.4766   -4.9004  -14.6839 C   0  0  0  0  0  0  0  0  0  0  0  0
   22.0715   -3.8000  -14.0842 O   0  0  0  0  0  0  0  0  0  0  0  0
   20.4694   -5.4143  -14.1516 O   0  0  0  0  0  0  0  0  0  0  0  0
  2  3  1  1
  2  1  1  0
  4  2  1  0
  4  5  1  6
  6  4  1  0
  6 11  1  0
  7  6  2  0
  9  8  1  0
 10 11  1  0
 10  9  1  1
 12 10  1  0
 12 16  1  0
 13 12  2  0
 15 16  1  0
 15 14  1  6
 17 15  1  0
 18 17  1  0
 19 17  2  0
M  END
$$$$
