VSA.pdb
     RDKit          3D

 19 18  0  0  1  0  0  0  0  0999 V2000
   16.7551  -10.6260  -18.3895 C   0  0  0  0  0  0  0  0  0  0  0  0
   17.5985   -9.9972  -17.3191 C   0  0  2  0  0  0  0  0  0  0  0  0
   17.9996   -8.6102  -17.7568 C   0  0  0  0  0  0  0  0  0  0  0  0
   18.8664  -10.8043  -17.0696 C   0  0  2  0  0  0  0  0  0  0  0  0
   18.5829  -12.1501  -16.6822 N   0  0  0  0  0  0  0  0  0  0  0  0
   19.7254  -10.1365  -16.0557 C   0  0  0  0  0  0  0  0  0  0  0  0
   19.4159  -10.1281  -14.8377 O   0  0  0  0  0  0  0  0  0  0  0  0
   23.6576  -10.0120  -14.6965 O   0  0  0  0  0  0  0  0  0  0  0  0
   23.2254   -9.2384  -15.7664 C   0  0  0  0  0  0  0  0  0  0  0  0
   21.8010   -8.8345  -15.4995 C   0  0  2  0  0  0  0  0  0  0  0  0
   20.9222   -9.4892  -16.4445 N   0  0  0  0  0  0  0  0  0  0  0  0
   21.7018   -7.3576  -15.6158 C   0  0  0  0  0  0  0  0  0  0  0  0
   21.6005   -6.8365  -16.7411 O   0  0  0  0  0  0  0  0  0  0  0  0
   21.3055   -4.6167  -13.0754 C   0  0  0  0  0  0  0  0  0  0  0  0
   21.5564   -5.1356  -14.4711 C   0  0  2  0  0  0  0  0  0  0  0  0
   21.7247   -6.5687  -14.4399 N   0  0  0  0  0  0  0  0  0  0  0  0
   22.7535   -4.4756  -15.0411 C   0  0  0  0  0  0  0  0  0  0  0  0
   22.5969   -3.2837  -15.7333 O   0  0  0  0  0  0  0  0  0  0  0  0
   23.8979   -4.9619  -14.9157 O   0  0  0  0  0  0  0  0  0  0  0  0
  2  3  1  6
  2  1  1  0
  4  2  1  0
  4  5  1  1
  6  4  1  0
  6 11  1  0
  7  6  2  0
  9  8  1  0
 10 11  1  0
 10  9  1  6
 12 10  1  0
 12 16  1  0
 13 12  2  0
 15 16  1  0
 15 14  1  1
 17 15  1  0
 18 17  1  0
 19 17  2  0
M  END
$$$$
