VSA.pdb
     RDKit          3D

 19 18  0  0  1  0  0  0  0  0999 V2000
   16.0931   -7.8849  -15.6512 C   0  0  0  0  0  0  0  0  0  0  0  0
   17.2622   -8.3723  -16.4563 C   0  0  2  0  0  0  0  0  0  0  0  0
   16.7802   -9.3865  -17.4639 C   0  0  0  0  0  0  0  0  0  0  0  0
   18.3045   -9.0402  -15.5680 C   0  0  2  0  0  0  0  0  0  0  0  0
   17.7637  -10.1399  -14.8333 N   0  0  0  0  0  0  0  0  0  0  0  0
   18.9260   -8.0501  -14.6488 C   0  0  0  0  0  0  0  0  0  0  0  0
   18.4970   -7.8819  -13.4796 O   0  0  0  0  0  0  0  0  0  0  0  0
   22.5066   -5.4150  -13.2178 O   0  0  0  0  0  0  0  0  0  0  0  0
   22.0502   -6.3861  -14.1002 C   0  0  0  0  0  0  0  0  0  0  0  0
   20.5705   -6.1859  -14.2835 C   0  0  2  0  0  0  0  0  0  0  0  0
   20.0254   -7.2676  -15.0751 N   0  0  0  0  0  0  0  0  0  0  0  0
   20.3525   -4.8770  -14.9495 C   0  0  0  0  0  0  0  0  0  0  0  0
   20.5774   -4.7639  -16.1681 O   0  0  0  0  0  0  0  0  0  0  0  0
   19.0248   -1.5677  -13.7297 C   0  0  0  0  0  0  0  0  0  0  0  0
   19.5966   -2.4964  -14.7740 C   0  0  2  0  0  0  0  0  0  0  0  0
   19.8915   -3.7794  -14.1823 N   0  0  0  0  0  0  0  0  0  0  0  0
   20.8145   -1.8946  -15.3639 C   0  0  0  0  0  0  0  0  0  0  0  0
   20.6895   -1.0939  -16.4898 O   0  0  0  0  0  0  0  0  0  0  0  0
   21.9489   -2.0877  -14.8763 O   0  0  0  0  0  0  0  0  0  0  0  0
  2  3  1  6
  2  1  1  0
  4  2  1  0
  4  5  1  1
  6  4  1  0
  6 11  1  0
  7  6  2  0
  9  8  1  0
 10 11  1  0
 10  9  1  6
 12 10  1  0
 12 16  1  0
 13 12  2  0
 15 16  1  0
 15 14  1  1
 17 15  1  0
 18 17  1  0
 19 17  2  0
M  END
$$$$
