VSA.pdb
     RDKit          3D

 19 18  0  0  1  0  0  0  0  0999 V2000
   17.0402  -10.7709  -19.6062 C   0  0  0  0  0  0  0  0  0  0  0  0
   18.3923  -11.0243  -20.2062 C   0  0  2  0  0  0  0  0  0  0  0  0
   18.2192  -11.6231  -21.5801 C   0  0  0  0  0  0  0  0  0  0  0  0
   19.1987  -12.0001  -19.3583 C   0  0  2  0  0  0  0  0  0  0  0  0
   18.5451  -13.2631  -19.2191 N   0  0  0  0  0  0  0  0  0  0  0  0
   19.4999  -11.4154  -18.0246 C   0  0  0  0  0  0  0  0  0  0  0  0
   18.7480  -11.6135  -17.0371 O   0  0  0  0  0  0  0  0  0  0  0  0
   22.7335  -11.3331  -15.7449 O   0  0  0  0  0  0  0  0  0  0  0  0
   22.4689  -10.1023  -16.3323 C   0  0  0  0  0  0  0  0  0  0  0  0
   20.9854  -10.0100  -16.5647 C   0  0  2  0  0  0  0  0  0  0  0  0
   20.6515  -10.6148  -17.8362 N   0  0  0  0  0  0  0  0  0  0  0  0
   20.5939   -8.5781  -16.5374 C   0  0  0  0  0  0  0  0  0  0  0  0
   20.8111   -7.8638  -17.5327 O   0  0  0  0  0  0  0  0  0  0  0  0
   18.7667   -6.4554  -14.0225 C   0  0  0  0  0  0  0  0  0  0  0  0
   19.5905   -6.6658  -15.2704 C   0  0  2  0  0  0  0  0  0  0  0  0
   19.9789   -8.0519  -15.3753 N   0  0  0  0  0  0  0  0  0  0  0  0
   20.7807   -5.7850  -15.2369 C   0  0  0  0  0  0  0  0  0  0  0  0
   20.6197   -4.4296  -15.4847 O   0  0  0  0  0  0  0  0  0  0  0  0
   21.9233   -6.2284  -14.9922 O   0  0  0  0  0  0  0  0  0  0  0  0
  2  3  1  6
  2  1  1  0
  4  2  1  0
  4  5  1  1
  6  4  1  0
  6 11  1  0
  7  6  2  0
  9  8  1  0
 10 11  1  0
 10  9  1  6
 12 10  1  0
 12 16  1  0
 13 12  2  0
 15 16  1  0
 15 14  1  1
 17 15  1  0
 18 17  1  0
 19 17  2  0
M  END
$$$$
