VSA.pdb
     RDKit          3D

 19 18  0  0  1  0  0  0  0  0999 V2000
   24.1414  -38.3401   -7.3726 C   0  0  0  0  0  0  0  0  0  0  0  0
   23.3458  -37.1612   -7.8519 C   0  0  2  0  0  0  0  0  0  0  0  0
   22.3323  -37.6285   -8.8671 C   0  0  0  0  0  0  0  0  0  0  0  0
   24.2421  -36.1229   -8.5153 C   0  0  2  0  0  0  0  0  0  0  0  0
   24.8399  -36.6137   -9.7168 N   0  0  0  0  0  0  0  0  0  0  0  0
   25.2842  -35.6441   -7.5685 C   0  0  0  0  0  0  0  0  0  0  0  0
   26.4510  -36.1108   -7.5871 O   0  0  0  0  0  0  0  0  0  0  0  0
   24.1439  -32.9058   -4.8376 O   0  0  0  0  0  0  0  0  0  0  0  0
   25.5085  -32.8468   -5.0908 C   0  0  0  0  0  0  0  0  0  0  0  0
   25.9372  -34.1839   -5.6309 C   0  0  2  0  0  0  0  0  0  0  0  0
   24.9815  -34.6421   -6.6161 N   0  0  0  0  0  0  0  0  0  0  0  0
   26.0331  -35.1391   -4.4982 C   0  0  0  0  0  0  0  0  0  0  0  0
   25.0659  -35.8757   -4.2335 O   0  0  0  0  0  0  0  0  0  0  0  0
   28.8241  -36.0377   -2.1312 C   0  0  0  0  0  0  0  0  0  0  0  0
   27.4173  -36.1436   -2.6696 C   0  0  2  0  0  0  0  0  0  0  0  0
   27.2274  -35.1932   -3.7390 N   0  0  0  0  0  0  0  0  0  0  0  0
   26.4458  -35.9096   -1.5765 C   0  0  0  0  0  0  0  0  0  0  0  0
   26.3703  -36.8264   -0.5382 O   0  0  0  0  0  0  0  0  0  0  0  0
   25.6940  -34.9113   -1.5640 O   0  0  0  0  0  0  0  0  0  0  0  0
  2  3  1  6
  2  1  1  0
  4  2  1  0
  4  5  1  6
  6  4  1  0
  6 11  1  0
  7  6  2  0
  9  8  1  0
 10 11  1  0
 10  9  1  1
 12 10  1  0
 12 16  1  0
 13 12  2  0
 15 16  1  0
 15 14  1  1
 17 15  1  0
 18 17  1  0
 19 17  2  0
M  END
$$$$
