VSA.pdb
     RDKit          3D

 19 18  0  0  1  0  0  0  0  0999 V2000
   44.2329  -21.9688  -12.1644 C   0  0  0  0  0  0  0  0  0  0  0  0
   43.9910  -20.5238  -11.8392 C   0  0  2  0  0  0  0  0  0  0  0  0
   45.0752  -19.6866  -12.4714 C   0  0  0  0  0  0  0  0  0  0  0  0
   44.0190  -20.2840  -10.3348 C   0  0  2  0  0  0  0  0  0  0  0  0
   43.0764  -21.1025   -9.6396 N   0  0  0  0  0  0  0  0  0  0  0  0
   43.7942  -18.8468  -10.0259 C   0  0  0  0  0  0  0  0  0  0  0  0
   42.6460  -18.3380  -10.0733 O   0  0  0  0  0  0  0  0  0  0  0  0
   46.6719  -16.8381   -8.0754 O   0  0  0  0  0  0  0  0  0  0  0  0
   45.3856  -16.3156   -8.0271 C   0  0  0  0  0  0  0  0  0  0  0  0
   44.7162  -16.6120   -9.3414 C   0  0  2  0  0  0  0  0  0  0  0  0
   44.8796  -18.0122   -9.6682 N   0  0  0  0  0  0  0  0  0  0  0  0
   45.3249  -15.7478  -10.3840 C   0  0  0  0  0  0  0  0  0  0  0  0
   46.2816  -16.1764  -11.0541 O   0  0  0  0  0  0  0  0  0  0  0  0
   44.4354  -12.3553  -11.7497 C   0  0  0  0  0  0  0  0  0  0  0  0
   45.3327  -13.5609  -11.6032 C   0  0  2  0  0  0  0  0  0  0  0  0
   44.8029  -14.4484  -10.5958 N   0  0  0  0  0  0  0  0  0  0  0  0
   46.7035  -13.1230  -11.2530 C   0  0  0  0  0  0  0  0  0  0  0  0
   47.5256  -12.6267  -12.2540 O   0  0  0  0  0  0  0  0  0  0  0  0
   47.1387  -13.1882  -10.0833 O   0  0  0  0  0  0  0  0  0  0  0  0
  2  3  1  6
  2  1  1  0
  4  2  1  0
  4  5  1  1
  6  4  1  0
  6 11  1  0
  7  6  2  0
  9  8  1  0
 10 11  1  0
 10  9  1  1
 12 10  1  0
 12 16  1  0
 13 12  2  0
 15 16  1  0
 15 14  1  1
 17 15  1  0
 18 17  1  0
 19 17  2  0
M  END
$$$$
