VSA.pdb
     RDKit          3D

 19 18  0  0  1  0  0  0  0  0999 V2000
   18.9024   -8.8895  -19.4743 C   0  0  0  0  0  0  0  0  0  0  0  0
   20.2374   -9.4554  -19.0872 C   0  0  2  0  0  0  0  0  0  0  0  0
   20.7069  -10.3980  -20.1676 C   0  0  0  0  0  0  0  0  0  0  0  0
   20.1494  -10.2335  -17.7802 C   0  0  2  0  0  0  0  0  0  0  0  0
   19.1680  -11.2706  -17.8337 N   0  0  0  0  0  0  0  0  0  0  0  0
   19.8838   -9.3181  -16.6387 C   0  0  0  0  0  0  0  0  0  0  0  0
   18.7117   -9.0450  -16.2765 O   0  0  0  0  0  0  0  0  0  0  0  0
   21.2953   -7.6166  -12.5071 O   0  0  0  0  0  0  0  0  0  0  0  0
   21.5778   -8.4007  -13.6185 C   0  0  0  0  0  0  0  0  0  0  0  0
   20.7576   -7.8846  -14.7693 C   0  0  2  0  0  0  0  0  0  0  0  0
   20.9561   -8.7285  -15.9280 N   0  0  0  0  0  0  0  0  0  0  0  0
   21.1716   -6.4871  -15.0517 C   0  0  0  0  0  0  0  0  0  0  0  0
   22.2439   -6.2731  -15.6454 O   0  0  0  0  0  0  0  0  0  0  0  0
   19.4621   -3.1679  -14.5561 C   0  0  0  0  0  0  0  0  0  0  0  0
   20.6152   -4.0470  -14.9780 C   0  0  2  0  0  0  0  0  0  0  0  0
   20.3351   -5.4216  -14.6385 N   0  0  0  0  0  0  0  0  0  0  0  0
   21.8606   -3.5846  -14.3233 C   0  0  0  0  0  0  0  0  0  0  0  0
   22.3822   -4.3266  -13.2737 O   0  0  0  0  0  0  0  0  0  0  0  0
   22.4529   -2.5470  -14.6897 O   0  0  0  0  0  0  0  0  0  0  0  0
  2  3  1  6
  2  1  1  0
  4  2  1  0
  4  5  1  6
  6  4  1  0
  6 11  1  0
  7  6  2  0
  9  8  1  0
 10 11  1  0
 10  9  1  1
 12 10  1  0
 12 16  1  0
 13 12  2  0
 15 16  1  0
 15 14  1  1
 17 15  1  0
 18 17  1  0
 19 17  2  0
M  END
$$$$
