VSA.pdb
     RDKit          3D

 19 18  0  0  1  0  0  0  0  0999 V2000
   16.3916  -12.1063  -14.1674 C   0  0  0  0  0  0  0  0  0  0  0  0
   15.7423  -11.7633  -15.4762 C   0  0  2  0  0  0  0  0  0  0  0  0
   14.4458  -12.5249  -15.5996 C   0  0  0  0  0  0  0  0  0  0  0  0
   16.6336  -12.1446  -16.6517 C   0  0  2  0  0  0  0  0  0  0  0  0
   16.8934  -13.5489  -16.6996 N   0  0  0  0  0  0  0  0  0  0  0  0
   17.9065  -11.3764  -16.6189 C   0  0  0  0  0  0  0  0  0  0  0  0
   18.9639  -11.8792  -16.1623 O   0  0  0  0  0  0  0  0  0  0  0  0
   19.7357   -9.3795  -19.4443 O   0  0  0  0  0  0  0  0  0  0  0  0
   19.2373   -8.5240  -18.4698 C   0  0  0  0  0  0  0  0  0  0  0  0
   19.1816   -9.2833  -17.1722 C   0  0  2  0  0  0  0  0  0  0  0  0
   17.9553  -10.0487  -17.1062 N   0  0  0  0  0  0  0  0  0  0  0  0
   19.2619   -8.3096  -16.0543 C   0  0  0  0  0  0  0  0  0  0  0  0
   18.2285   -7.7362  -15.6650 O   0  0  0  0  0  0  0  0  0  0  0  0
   22.0464   -7.2656  -13.7509 C   0  0  0  0  0  0  0  0  0  0  0  0
   20.6675   -7.1294  -14.3512 C   0  0  2  0  0  0  0  0  0  0  0  0
   20.5171   -8.0517  -15.4512 N   0  0  0  0  0  0  0  0  0  0  0  0
   20.4540   -5.7340  -14.7991 C   0  0  0  0  0  0  0  0  0  0  0  0
   20.4153   -5.4643  -16.1593 O   0  0  0  0  0  0  0  0  0  0  0  0
   20.3080   -4.7952  -13.9872 O   0  0  0  0  0  0  0  0  0  0  0  0
  2  3  1  6
  2  1  1  0
  4  2  1  0
  4  5  1  1
  6  4  1  0
  6 11  1  0
  7  6  2  0
  9  8  1  0
 10 11  1  0
 10  9  1  6
 12 10  1  0
 12 16  1  0
 13 12  2  0
 15 16  1  0
 15 14  1  6
 17 15  1  0
 18 17  1  0
 19 17  2  0
M  END
$$$$
