VSA.pdb
     RDKit          3D

 19 18  0  0  1  0  0  0  0  0999 V2000
   18.3251  -10.9318  -18.3692 C   0  0  0  0  0  0  0  0  0  0  0  0
   18.4534   -9.6792  -17.5525 C   0  0  2  0  0  0  0  0  0  0  0  0
   19.1818   -8.6343  -18.3610 C   0  0  0  0  0  0  0  0  0  0  0  0
   19.2445   -9.9314  -16.2751 C   0  0  2  0  0  0  0  0  0  0  0  0
   18.6969  -11.0016  -15.5026 N   0  0  0  0  0  0  0  0  0  0  0  0
   19.3391   -8.6911  -15.4601 C   0  0  0  0  0  0  0  0  0  0  0  0
   18.3138   -8.1335  -14.9937 O   0  0  0  0  0  0  0  0  0  0  0  0
   22.0565   -5.8022  -12.8165 O   0  0  0  0  0  0  0  0  0  0  0  0
   21.9476   -6.9916  -13.5260 C   0  0  0  0  0  0  0  0  0  0  0  0
   20.7469   -6.8850  -14.4262 C   0  0  2  0  0  0  0  0  0  0  0  0
   20.5985   -8.1054  -15.1894 N   0  0  0  0  0  0  0  0  0  0  0  0
   20.9340   -5.7163  -15.3225 C   0  0  0  0  0  0  0  0  0  0  0  0
   21.7117   -5.8036  -16.2898 O   0  0  0  0  0  0  0  0  0  0  0  0
   19.2194   -2.4008  -15.6472 C   0  0  0  0  0  0  0  0  0  0  0  0
   20.3895   -3.3318  -15.8579 C   0  0  2  0  0  0  0  0  0  0  0  0
   20.2215   -4.5213  -15.0579 N   0  0  0  0  0  0  0  0  0  0  0  0
   21.6498   -2.6357  -15.5107 C   0  0  0  0  0  0  0  0  0  0  0  0
   22.1463   -1.6742  -16.3786 O   0  0  0  0  0  0  0  0  0  0  0  0
   22.2766   -2.8902  -14.4599 O   0  0  0  0  0  0  0  0  0  0  0  0
  2  3  1  6
  2  1  1  0
  4  2  1  0
  4  5  1  1
  6  4  1  0
  6 11  1  0
  7  6  2  0
  9  8  1  0
 10 11  1  0
 10  9  1  1
 12 10  1  0
 12 16  1  0
 13 12  2  0
 15 16  1  0
 15 14  1  1
 17 15  1  0
 18 17  1  0
 19 17  2  0
M  END
$$$$
