VSA.pdb
     RDKit          3D

 19 18  0  0  1  0  0  0  0  0999 V2000
   16.3224  -10.0713  -14.5214 C   0  0  0  0  0  0  0  0  0  0  0  0
   16.6259  -10.2900  -15.9748 C   0  0  2  0  0  0  0  0  0  0  0  0
   15.4393  -10.9485  -16.6340 C   0  0  0  0  0  0  0  0  0  0  0  0
   17.8366  -11.1970  -16.1558 C   0  0  2  0  0  0  0  0  0  0  0  0
   17.6461  -12.4791  -15.5544 N   0  0  0  0  0  0  0  0  0  0  0  0
   19.0656  -10.5472  -15.6278 C   0  0  0  0  0  0  0  0  0  0  0  0
   19.4523  -10.7379  -14.4472 O   0  0  0  0  0  0  0  0  0  0  0  0
   22.7767  -10.0494  -17.1666 O   0  0  0  0  0  0  0  0  0  0  0  0
   22.0110   -8.8911  -17.1223 C   0  0  0  0  0  0  0  0  0  0  0  0
   21.0329   -9.0262  -15.9873 C   0  0  2  0  0  0  0  0  0  0  0  0
   19.8345   -9.6911  -16.4515 N   0  0  0  0  0  0  0  0  0  0  0  0
   20.7224   -7.6693  -15.4707 C   0  0  0  0  0  0  0  0  0  0  0  0
   19.7880   -7.0203  -15.9744 O   0  0  0  0  0  0  0  0  0  0  0  0
   22.0538   -5.6147  -12.6180 C   0  0  0  0  0  0  0  0  0  0  0  0
   21.3178   -5.7922  -13.9245 C   0  0  2  0  0  0  0  0  0  0  0  0
   21.4984   -7.1388  -14.4115 N   0  0  0  0  0  0  0  0  0  0  0  0
   21.8084   -4.8033  -14.9118 C   0  0  0  0  0  0  0  0  0  0  0  0
   21.4026   -3.4818  -14.7964 O   0  0  0  0  0  0  0  0  0  0  0  0
   22.5759   -5.1260  -15.8438 O   0  0  0  0  0  0  0  0  0  0  0  0
  2  3  1  6
  2  1  1  0
  4  2  1  0
  4  5  1  1
  6  4  1  0
  6 11  1  0
  7  6  2  0
  9  8  1  0
 10 11  1  0
 10  9  1  6
 12 10  1  0
 12 16  1  0
 13 12  2  0
 15 16  1  0
 15 14  1  1
 17 15  1  0
 18 17  1  0
 19 17  2  0
M  END
$$$$
