VSA.pdb
     RDKit          3D

 19 18  0  0  1  0  0  0  0  0999 V2000
   26.6372   -9.8699  -16.8632 C   0  0  0  0  0  0  0  0  0  0  0  0
   26.0760  -10.6950  -15.7422 C   0  0  2  0  0  0  0  0  0  0  0  0
   27.0686  -11.7701  -15.3747 C   0  0  0  0  0  0  0  0  0  0  0  0
   24.7722  -11.3690  -16.1515 C   0  0  2  0  0  0  0  0  0  0  0  0
   24.9563  -12.2960  -17.2232 N   0  0  0  0  0  0  0  0  0  0  0  0
   23.7434  -10.3552  -16.5057 C   0  0  0  0  0  0  0  0  0  0  0  0
   23.5052  -10.0535  -17.7022 O   0  0  0  0  0  0  0  0  0  0  0  0
   20.7510   -9.6176  -14.0862 O   0  0  0  0  0  0  0  0  0  0  0  0
   20.6709   -9.0890  -15.3684 C   0  0  0  0  0  0  0  0  0  0  0  0
   22.0509   -8.6484  -15.7742 C   0  0  2  0  0  0  0  0  0  0  0  0
   23.0026   -9.7014  -15.4926 N   0  0  0  0  0  0  0  0  0  0  0  0
   22.3885   -7.4118  -15.0249 C   0  0  0  0  0  0  0  0  0  0  0  0
   22.8643   -7.4999  -13.8787 O   0  0  0  0  0  0  0  0  0  0  0  0
   22.1438   -3.7460  -15.8697 C   0  0  0  0  0  0  0  0  0  0  0  0
   22.5398   -4.9127  -14.9967 C   0  0  2  0  0  0  0  0  0  0  0  0
   22.1614   -6.1524  -15.6316 N   0  0  0  0  0  0  0  0  0  0  0  0
   21.8979   -4.7824  -13.6683 C   0  0  0  0  0  0  0  0  0  0  0  0
   22.5265   -4.0250  -12.6908 O   0  0  0  0  0  0  0  0  0  0  0  0
   20.8083   -5.3347  -13.4047 O   0  0  0  0  0  0  0  0  0  0  0  0
  2  3  1  6
  2  1  1  0
  4  2  1  0
  4  5  1  6
  6  4  1  0
  6 11  1  0
  7  6  2  0
  9  8  1  0
 10 11  1  0
 10  9  1  1
 12 10  1  0
 12 16  1  0
 13 12  2  0
 15 16  1  0
 15 14  1  6
 17 15  1  0
 18 17  1  0
 19 17  2  0
M  END
$$$$
