VSA.pdb
     RDKit          3D

 19 18  0  0  1  0  0  0  0  0999 V2000
   17.8024  -10.8015  -14.0795 C   0  0  0  0  0  0  0  0  0  0  0  0
   17.1880  -10.7692  -15.4484 C   0  0  2  0  0  0  0  0  0  0  0  0
   16.2112  -11.9116  -15.5789 C   0  0  0  0  0  0  0  0  0  0  0  0
   18.2473  -10.9208  -16.5330 C   0  0  2  0  0  0  0  0  0  0  0  0
   18.8992  -12.1911  -16.4779 N   0  0  0  0  0  0  0  0  0  0  0  0
   19.2412   -9.8172  -16.4569 C   0  0  0  0  0  0  0  0  0  0  0  0
   20.3484   -9.9708  -15.8824 O   0  0  0  0  0  0  0  0  0  0  0  0
   18.2773   -6.2364  -18.1798 O   0  0  0  0  0  0  0  0  0  0  0  0
   19.6251   -6.5689  -18.2319 C   0  0  0  0  0  0  0  0  0  0  0  0
   19.9225   -7.4780  -17.0707 C   0  0  2  0  0  0  0  0  0  0  0  0
   18.9591   -8.5570  -17.0356 N   0  0  0  0  0  0  0  0  0  0  0  0
   19.8701   -6.6770  -15.8216 C   0  0  0  0  0  0  0  0  0  0  0  0
   18.8052   -6.6073  -15.1820 O   0  0  0  0  0  0  0  0  0  0  0  0
   22.4688   -4.7756  -13.8702 C   0  0  0  0  0  0  0  0  0  0  0  0
   21.0524   -5.1885  -14.1920 C   0  0  2  0  0  0  0  0  0  0  0  0
   21.0370   -6.0059  -15.3815 N   0  0  0  0  0  0  0  0  0  0  0  0
   20.2093   -3.9838  -14.3682 C   0  0  0  0  0  0  0  0  0  0  0  0
   19.7700   -3.3018  -13.2429 O   0  0  0  0  0  0  0  0  0  0  0  0
   19.8835   -3.5659  -15.5001 O   0  0  0  0  0  0  0  0  0  0  0  0
  2  3  1  1
  2  1  1  0
  4  2  1  0
  4  5  1  1
  6  4  1  0
  6 11  1  0
  7  6  2  0
  9  8  1  0
 10 11  1  0
 10  9  1  6
 12 10  1  0
 12 16  1  0
 13 12  2  0
 15 16  1  0
 15 14  1  6
 17 15  1  0
 18 17  1  0
 19 17  2  0
M  END
$$$$
