EIL.pdb
     RDKit          3D

 26 25  0  0  1  0  0  0  0  0999 V2000
   11.8095  -16.6349   19.2621 N   0  0  0  0  0  0  0  0  0  0  0  0
   12.0161  -17.2604   20.5355 C   0  0  1  0  0  0  0  0  0  0  0  0
   13.4566  -17.3768   20.8684 C   0  0  0  0  0  0  0  0  0  0  0  0
   14.2604  -18.2922   20.0326 C   0  0  0  0  0  0  0  0  0  0  0  0
   15.4264  -18.9424   20.6072 C   0  0  0  0  0  0  0  0  0  0  0  0
   16.5325  -19.1720   20.1096 O   0  0  0  0  0  0  0  0  0  0  0  0
   11.3112  -16.5025   21.6235 C   0  0  0  0  0  0  0  0  0  0  0  0
   11.7270  -15.3204   21.8403 O   0  0  0  0  0  0  0  0  0  0  0  0
   15.2882  -19.3892   21.9501 O   0  0  0  0  0  0  0  0  0  0  0  0
    6.3968  -15.5077   21.3008 C   0  0  0  0  0  0  0  0  0  0  0  0
    7.9044  -15.5013   21.6148 C   0  0  0  0  0  0  0  0  0  0  0  0
    8.1735  -16.1365   22.9337 C   0  0  2  0  0  0  0  0  0  0  0  0
    7.2634  -15.6203   24.0329 C   0  0  0  0  0  0  0  0  0  0  0  0
    9.5893  -16.2336   23.3637 C   0  0  2  0  0  0  0  0  0  0  0  0
   10.2510  -17.0791   22.3539 N   0  0  0  0  0  0  0  0  0  0  0  0
    9.8375  -16.7413   24.7189 C   0  0  0  0  0  0  0  0  0  0  0  0
   10.3261  -17.9163   24.8032 O   0  0  0  0  0  0  0  0  0  0  0  0
    9.2988  -13.1491   28.7718 C   0  0  0  0  0  0  0  0  0  0  0  0
    9.9369  -14.1143   27.8510 C   0  0  1  0  0  0  0  0  0  0  0  0
   11.3159  -13.5605   27.4684 C   0  0  0  0  0  0  0  0  0  0  0  0
    9.9527  -15.5150   28.2125 C   0  0  0  0  0  0  0  0  0  0  0  0
   10.0924  -16.5637   27.1954 C   0  0  2  0  0  0  0  0  0  0  0  0
    9.5935  -16.0619   25.8995 N   0  0  0  0  0  0  0  0  0  0  0  0
    9.3716  -17.7984   27.4437 C   0  0  0  0  0  0  0  0  0  0  0  0
    8.3124  -18.1027   26.8656 O   0  0  0  0  0  0  0  0  0  0  0  0
    9.8476  -18.7242   28.3655 O   0  0  0  0  0  0  0  0  0  0  0  0
  2  1  1  6
  3  2  1  0
  4  3  1  0
  5  4  1  0
  6  5  2  0
  7  2  1  0
  7  8  2  0
  9  5  1  0
 11 10  1  0
 12 13  1  1
 12 14  1  0
 12 11  1  0
 14 15  1  6
 15  7  1  0
 16 14  1  0
 17 16  2  0
 19 18  1  1
 19 21  1  0
 20 19  1  0
 22 21  1  1
 22 24  1  0
 22 23  1  0
 23 16  1  0
 24 26  1  0
 25 24  2  0
M  END
$$$$
