EIL.pdb
     RDKit          3D

 26 25  0  0  1  0  0  0  0  0999 V2000
   10.8469  -17.3726   19.5814 N   0  0  0  0  0  0  0  0  0  0  0  0
   11.5092  -17.6471   20.8230 C   0  0  1  0  0  0  0  0  0  0  0  0
   12.9179  -17.1838   20.8137 C   0  0  0  0  0  0  0  0  0  0  0  0
   13.8953  -18.0411   20.1117 C   0  0  0  0  0  0  0  0  0  0  0  0
   15.3071  -17.6996   20.1613 C   0  0  0  0  0  0  0  0  0  0  0  0
   15.9974  -17.0610   19.3616 O   0  0  0  0  0  0  0  0  0  0  0  0
   10.7803  -17.0080   21.9699 C   0  0  0  0  0  0  0  0  0  0  0  0
   10.7728  -15.7364   21.9877 O   0  0  0  0  0  0  0  0  0  0  0  0
   16.0179  -18.1656   21.3012 O   0  0  0  0  0  0  0  0  0  0  0  0
    6.1997  -19.2495   24.0478 C   0  0  0  0  0  0  0  0  0  0  0  0
    7.7139  -18.9694   24.0340 C   0  0  0  0  0  0  0  0  0  0  0  0
    7.9822  -17.5166   23.8521 C   0  0  2  0  0  0  0  0  0  0  0  0
    7.3090  -16.9430   22.6189 C   0  0  0  0  0  0  0  0  0  0  0  0
    9.3861  -17.0624   23.9992 C   0  0  2  0  0  0  0  0  0  0  0  0
   10.1448  -17.7839   22.9618 N   0  0  0  0  0  0  0  0  0  0  0  0
   10.0045  -17.2365   25.3196 C   0  0  0  0  0  0  0  0  0  0  0  0
   10.9257  -18.1145   25.4025 O   0  0  0  0  0  0  0  0  0  0  0  0
   10.9901  -13.9866   27.0671 C   0  0  0  0  0  0  0  0  0  0  0  0
   10.7219  -14.4139   28.4571 C   0  0  1  0  0  0  0  0  0  0  0  0
   10.0052  -13.2624   29.1748 C   0  0  0  0  0  0  0  0  0  0  0  0
   10.1143  -15.7074   28.6826 C   0  0  0  0  0  0  0  0  0  0  0  0
   10.3366  -16.8259   27.7589 C   0  0  2  0  0  0  0  0  0  0  0  0
    9.6807  -16.5361   26.4682 N   0  0  0  0  0  0  0  0  0  0  0  0
    9.8246  -18.1169   28.1798 C   0  0  0  0  0  0  0  0  0  0  0  0
   10.4196  -18.8640   28.9777 O   0  0  0  0  0  0  0  0  0  0  0  0
    8.6096  -18.5897   27.6965 O   0  0  0  0  0  0  0  0  0  0  0  0
  2  1  1  6
  3  2  1  0
  4  3  1  0
  5  4  1  0
  6  5  2  0
  7  2  1  0
  7  8  2  0
  9  5  1  0
 11 10  1  0
 12 13  1  6
 12 14  1  0
 12 11  1  0
 14 15  1  6
 15  7  1  0
 16 14  1  0
 17 16  2  0
 19 18  1  6
 19 21  1  0
 20 19  1  0
 22 21  1  1
 22 24  1  0
 22 23  1  0
 23 16  1  0
 24 26  1  0
 25 24  2  0
M  END
$$$$
