EIL.pdb
     RDKit          3D

 26 25  0  0  1  0  0  0  0  0999 V2000
   10.9907  -18.7235   19.3398 N   0  0  0  0  0  0  0  0  0  0  0  0
    9.9642  -18.5958   20.3325 C   0  0  1  0  0  0  0  0  0  0  0  0
   10.1265  -19.5826   21.4276 C   0  0  0  0  0  0  0  0  0  0  0  0
   11.5107  -19.9343   21.8060 C   0  0  0  0  0  0  0  0  0  0  0  0
   11.8098  -20.2587   23.1908 C   0  0  0  0  0  0  0  0  0  0  0  0
   11.4341  -21.2101   23.8818 O   0  0  0  0  0  0  0  0  0  0  0  0
    9.9471  -17.2088   20.9079 C   0  0  0  0  0  0  0  0  0  0  0  0
   11.0680  -16.6101   20.9553 O   0  0  0  0  0  0  0  0  0  0  0  0
   12.6669  -19.3492   23.8693 O   0  0  0  0  0  0  0  0  0  0  0  0
    7.3826  -12.1783   20.0355 C   0  0  0  0  0  0  0  0  0  0  0  0
    8.2790  -12.9183   21.0457 C   0  0  0  0  0  0  0  0  0  0  0  0
    8.1299  -14.3927   20.9056 C   0  0  2  0  0  0  0  0  0  0  0  0
    6.6900  -14.8215   20.6914 C   0  0  0  0  0  0  0  0  0  0  0  0
    8.8378  -15.2430   21.8928 C   0  0  2  0  0  0  0  0  0  0  0  0
    8.7512  -16.6162   21.3644 N   0  0  0  0  0  0  0  0  0  0  0  0
    8.3631  -15.1829   23.2810 C   0  0  0  0  0  0  0  0  0  0  0  0
    7.2534  -15.7616   23.5260 O   0  0  0  0  0  0  0  0  0  0  0  0
    5.4256  -12.2437   26.0053 C   0  0  0  0  0  0  0  0  0  0  0  0
    6.8272  -12.6881   25.8484 C   0  0  1  0  0  0  0  0  0  0  0  0
    7.6657  -11.9958   26.9312 C   0  0  0  0  0  0  0  0  0  0  0  0
    7.0984  -14.1033   25.7192 C   0  0  0  0  0  0  0  0  0  0  0  0
    8.4724  -14.6188   25.7098 C   0  0  2  0  0  0  0  0  0  0  0  0
    9.0097  -14.5629   24.3357 N   0  0  0  0  0  0  0  0  0  0  0  0
    8.6452  -15.9924   26.1448 C   0  0  0  0  0  0  0  0  0  0  0  0
    7.9738  -16.9420   25.7019 O   0  0  0  0  0  0  0  0  0  0  0  0
    9.5981  -16.3180   27.1037 O   0  0  0  0  0  0  0  0  0  0  0  0
  2  1  1  6
  3  2  1  0
  4  3  1  0
  5  4  1  0
  6  5  2  0
  7  2  1  0
  7  8  2  0
  9  5  1  0
 11 10  1  0
 12 13  1  1
 12 14  1  0
 12 11  1  0
 14 15  1  6
 15  7  1  0
 16 14  1  0
 17 16  2  0
 19 18  1  1
 19 21  1  0
 20 19  1  0
 22 21  1  6
 22 24  1  0
 22 23  1  0
 23 16  1  0
 24 26  1  0
 25 24  2  0
M  END
$$$$
