EIL.pdb
     RDKit          3D

 26 25  0  0  1  0  0  0  0  0999 V2000
    6.0076  -17.0985   18.9303 N   0  0  0  0  0  0  0  0  0  0  0  0
    6.8662  -16.3362   19.7888 C   0  0  1  0  0  0  0  0  0  0  0  0
    6.8059  -14.8856   19.4865 C   0  0  0  0  0  0  0  0  0  0  0  0
    7.5245  -14.4274   18.2796 C   0  0  0  0  0  0  0  0  0  0  0  0
    8.9770  -14.4722   18.2556 C   0  0  0  0  0  0  0  0  0  0  0  0
    9.7727  -14.8707   19.1112 O   0  0  0  0  0  0  0  0  0  0  0  0
    6.5154  -16.5613   21.2315 C   0  0  0  0  0  0  0  0  0  0  0  0
    5.3245  -16.2693   21.5687 O   0  0  0  0  0  0  0  0  0  0  0  0
    9.5928  -13.9853   17.0700 O   0  0  0  0  0  0  0  0  0  0  0  0
    8.9734  -20.3627   24.5926 C   0  0  0  0  0  0  0  0  0  0  0  0
    8.8016  -18.9441   24.0186 C   0  0  0  0  0  0  0  0  0  0  0  0
    7.3629  -18.5668   23.9607 C   0  0  2  0  0  0  0  0  0  0  0  0
    6.5126  -19.5955   23.2384 C   0  0  0  0  0  0  0  0  0  0  0  0
    7.0419  -17.1764   23.5573 C   0  0  2  0  0  0  0  0  0  0  0  0
    7.4602  -17.0681   22.1482 N   0  0  0  0  0  0  0  0  0  0  0  0
    7.6291  -16.0995   24.3644 C   0  0  0  0  0  0  0  0  0  0  0  0
    8.7662  -15.6634   23.9861 O   0  0  0  0  0  0  0  0  0  0  0  0
    8.0643  -11.2932   26.8483 C   0  0  0  0  0  0  0  0  0  0  0  0
    7.0380  -12.2358   27.3429 C   0  0  1  0  0  0  0  0  0  0  0  0
    5.8184  -11.4162   27.7851 C   0  0  0  0  0  0  0  0  0  0  0  0
    6.7024  -13.3870   26.5335 C   0  0  0  0  0  0  0  0  0  0  0  0
    7.7108  -14.3949   26.1857 C   0  0  2  0  0  0  0  0  0  0  0  0
    7.0606  -15.5204   25.4852 N   0  0  0  0  0  0  0  0  0  0  0  0
    8.4352  -14.9870   27.2950 C   0  0  0  0  0  0  0  0  0  0  0  0
    8.0246  -15.9724   27.9348 O   0  0  0  0  0  0  0  0  0  0  0  0
    9.6573  -14.4645   27.7035 O   0  0  0  0  0  0  0  0  0  0  0  0
  2  1  1  6
  3  2  1  0
  4  3  1  0
  5  4  1  0
  6  5  2  0
  7  2  1  0
  7  8  2  0
  9  5  1  0
 11 10  1  0
 12 13  1  6
 12 14  1  0
 12 11  1  0
 14 15  1  6
 15  7  1  0
 16 14  1  0
 17 16  2  0
 19 18  1  6
 19 21  1  0
 20 19  1  0
 22 21  1  1
 22 24  1  0
 22 23  1  0
 23 16  1  0
 24 26  1  0
 25 24  2  0
M  END
$$$$
