EIL.pdb
     RDKit          3D

 26 25  0  0  1  0  0  0  0  0999 V2000
   10.4523  -18.7340   19.8838 N   0  0  0  0  0  0  0  0  0  0  0  0
    9.4574  -18.3282   20.8330 C   0  0  1  0  0  0  0  0  0  0  0  0
    9.4262  -19.2191   22.0181 C   0  0  0  0  0  0  0  0  0  0  0  0
   10.6388  -20.0219   22.2787 C   0  0  0  0  0  0  0  0  0  0  0  0
   10.6386  -20.9773   23.3739 C   0  0  0  0  0  0  0  0  0  0  0  0
    9.7521  -21.2504   24.1885 O   0  0  0  0  0  0  0  0  0  0  0  0
    9.6893  -16.9127   21.2776 C   0  0  0  0  0  0  0  0  0  0  0  0
   10.8886  -16.4952   21.2092 O   0  0  0  0  0  0  0  0  0  0  0  0
   11.8380  -21.7212   23.5479 O   0  0  0  0  0  0  0  0  0  0  0  0
    6.8064  -13.1024   19.2249 C   0  0  0  0  0  0  0  0  0  0  0  0
    7.9519  -13.9397   19.8234 C   0  0  0  0  0  0  0  0  0  0  0  0
    7.9132  -13.9037   21.3109 C   0  0  2  0  0  0  0  0  0  0  0  0
    7.7608  -12.4982   21.8625 C   0  0  0  0  0  0  0  0  0  0  0  0
    8.9382  -14.6931   22.0356 C   0  0  2  0  0  0  0  0  0  0  0  0
    8.6304  -16.1041   21.7409 N   0  0  0  0  0  0  0  0  0  0  0  0
    9.0465  -14.4697   23.4828 C   0  0  0  0  0  0  0  0  0  0  0  0
    9.2989  -13.2762   23.8545 O   0  0  0  0  0  0  0  0  0  0  0  0
    8.3672  -12.0009   26.5653 C   0  0  0  0  0  0  0  0  0  0  0  0
    7.3272  -13.0391   26.7297 C   0  0  1  0  0  0  0  0  0  0  0  0
    5.9590  -12.3448   26.7022 C   0  0  0  0  0  0  0  0  0  0  0  0
    7.3931  -14.2269   25.9064 C   0  0  0  0  0  0  0  0  0  0  0  0
    8.5999  -15.0609   25.8661 C   0  0  2  0  0  0  0  0  0  0  0  0
    8.8966  -15.4301   24.4676 N   0  0  0  0  0  0  0  0  0  0  0  0
    8.5401  -16.3117   26.5995 C   0  0  0  0  0  0  0  0  0  0  0  0
    8.9709  -16.4485   27.7590 O   0  0  0  0  0  0  0  0  0  0  0  0
    7.9809  -17.4463   26.0219 O   0  0  0  0  0  0  0  0  0  0  0  0
  2  1  1  6
  3  2  1  0
  4  3  1  0
  5  4  1  0
  6  5  2  0
  7  2  1  0
  7  8  2  0
  9  5  1  0
 11 10  1  0
 12 13  1  6
 12 14  1  0
 12 11  1  0
 14 15  1  1
 15  7  1  0
 16 14  1  0
 17 16  2  0
 19 18  1  6
 19 21  1  0
 20 19  1  0
 22 21  1  6
 22 24  1  0
 22 23  1  0
 23 16  1  0
 24 26  1  0
 25 24  2  0
M  END
$$$$
