EIL.pdb
     RDKit          3D

 26 25  0  0  1  0  0  0  0  0999 V2000
    9.7743  -15.9350   20.6953 N   0  0  0  0  0  0  0  0  0  0  0  0
    9.0594  -16.4187   21.8401 C   0  0  1  0  0  0  0  0  0  0  0  0
    9.3950  -17.8302   22.1472 C   0  0  0  0  0  0  0  0  0  0  0  0
    9.0196  -18.8385   21.1345 C   0  0  0  0  0  0  0  0  0  0  0  0
    9.1912  -20.2497   21.4369 C   0  0  0  0  0  0  0  0  0  0  0  0
    8.9206  -21.2450   20.7587 O   0  0  0  0  0  0  0  0  0  0  0  0
    9.3383  -15.5653   23.0438 C   0  0  0  0  0  0  0  0  0  0  0  0
   10.5317  -15.1430   23.1646 O   0  0  0  0  0  0  0  0  0  0  0  0
    9.7575  -20.5471   22.7069 O   0  0  0  0  0  0  0  0  0  0  0  0
    6.4236  -11.8532   26.8304 C   0  0  0  0  0  0  0  0  0  0  0  0
    7.7474  -12.5847   26.5403 C   0  0  0  0  0  0  0  0  0  0  0  0
    7.5663  -13.6031   25.4699 C   0  0  2  0  0  0  0  0  0  0  0  0
    6.2651  -14.3727   25.6029 C   0  0  0  0  0  0  0  0  0  0  0  0
    8.7213  -14.4827   25.1681 C   0  0  2  0  0  0  0  0  0  0  0  0
    8.3268  -15.2568   23.9774 N   0  0  0  0  0  0  0  0  0  0  0  0
    9.1780  -15.3705   26.2448 C   0  0  0  0  0  0  0  0  0  0  0  0
    8.5078  -16.4415   26.4188 O   0  0  0  0  0  0  0  0  0  0  0  0
   14.0101  -17.3527   26.1540 C   0  0  0  0  0  0  0  0  0  0  0  0
   12.5719  -17.1897   26.4564 C   0  0  1  0  0  0  0  0  0  0  0  0
   11.9035  -18.5649   26.3260 C   0  0  0  0  0  0  0  0  0  0  0  0
   12.1890  -16.4681   27.6504 C   0  0  0  0  0  0  0  0  0  0  0  0
   10.7794  -16.2088   27.9658 C   0  0  2  0  0  0  0  0  0  0  0  0
   10.2624  -15.1504   27.0756 N   0  0  0  0  0  0  0  0  0  0  0  0
   10.4963  -15.7606   29.3166 C   0  0  0  0  0  0  0  0  0  0  0  0
   10.7008  -16.4568   30.3277 O   0  0  0  0  0  0  0  0  0  0  0  0
    9.9691  -14.4948   29.5479 O   0  0  0  0  0  0  0  0  0  0  0  0
  2  1  1  6
  3  2  1  0
  4  3  1  0
  5  4  1  0
  6  5  2  0
  7  2  1  0
  7  8  2  0
  9  5  1  0
 11 10  1  0
 12 13  1  1
 12 14  1  0
 12 11  1  0
 14 15  1  6
 15  7  1  0
 16 14  1  0
 17 16  2  0
 19 18  1  1
 19 21  1  0
 20 19  1  0
 22 21  1  1
 22 24  1  0
 22 23  1  0
 23 16  1  0
 24 26  1  0
 25 24  2  0
M  END
$$$$
