EIL.pdb
     RDKit          3D

 26 25  0  0  1  0  0  0  0  0999 V2000
    8.9154  -15.2170   20.3097 N   0  0  0  0  0  0  0  0  0  0  0  0
    8.1950  -15.6854   21.4573 C   0  0  1  0  0  0  0  0  0  0  0  0
    8.2565  -17.1615   21.5856 C   0  0  0  0  0  0  0  0  0  0  0  0
    9.5978  -17.7786   21.5300 C   0  0  0  0  0  0  0  0  0  0  0  0
    9.7222  -19.2229   21.6340 C   0  0  0  0  0  0  0  0  0  0  0  0
    9.9904  -19.9278   22.6112 O   0  0  0  0  0  0  0  0  0  0  0  0
    8.7209  -15.0520   22.7132 C   0  0  0  0  0  0  0  0  0  0  0  0
    9.9698  -14.8135   22.7377 O   0  0  0  0  0  0  0  0  0  0  0  0
    9.5040  -19.9519   20.4328 O   0  0  0  0  0  0  0  0  0  0  0  0
    6.7316  -11.3168   26.9956 C   0  0  0  0  0  0  0  0  0  0  0  0
    7.8925  -12.2381   26.5771 C   0  0  0  0  0  0  0  0  0  0  0  0
    7.4657  -13.1718   25.4993 C   0  0  2  0  0  0  0  0  0  0  0  0
    6.1382  -13.8453   25.7947 C   0  0  0  0  0  0  0  0  0  0  0  0
    8.4824  -14.1178   24.9794 C   0  0  2  0  0  0  0  0  0  0  0  0
    7.8689  -14.7439   23.7944 N   0  0  0  0  0  0  0  0  0  0  0  0
    8.9803  -15.1355   25.9134 C   0  0  0  0  0  0  0  0  0  0  0  0
    8.2130  -16.1312   26.1284 O   0  0  0  0  0  0  0  0  0  0  0  0
   14.0278  -16.9747   25.7377 C   0  0  0  0  0  0  0  0  0  0  0  0
   12.5650  -16.8712   25.9271 C   0  0  1  0  0  0  0  0  0  0  0  0
   11.9253  -18.1494   25.3687 C   0  0  0  0  0  0  0  0  0  0  0  0
   12.0568  -16.4863   27.2259 C   0  0  0  0  0  0  0  0  0  0  0  0
   10.6287  -16.2240   27.4390 C   0  0  2  0  0  0  0  0  0  0  0  0
   10.1978  -15.1104   26.5705 N   0  0  0  0  0  0  0  0  0  0  0  0
   10.2396  -15.8471   28.7852 C   0  0  0  0  0  0  0  0  0  0  0  0
   10.2037  -16.6465   29.7383 O   0  0  0  0  0  0  0  0  0  0  0  0
    9.8798  -14.5363   29.0785 O   0  0  0  0  0  0  0  0  0  0  0  0
  2  1  1  6
  3  2  1  0
  4  3  1  0
  5  4  1  0
  6  5  2  0
  7  2  1  0
  7  8  2  0
  9  5  1  0
 11 10  1  0
 12 13  1  1
 12 14  1  0
 12 11  1  0
 14 15  1  6
 15  7  1  0
 16 14  1  0
 17 16  2  0
 19 18  1  1
 19 21  1  0
 20 19  1  0
 22 21  1  1
 22 24  1  0
 22 23  1  0
 23 16  1  0
 24 26  1  0
 25 24  2  0
M  END
$$$$
