EIL.pdb
     RDKit          3D

 26 25  0  0  1  0  0  0  0  0999 V2000
   12.5671  -16.9455   19.0561 N   0  0  0  0  0  0  0  0  0  0  0  0
   11.8697  -17.5878   20.1315 C   0  0  1  0  0  0  0  0  0  0  0  0
   12.7524  -18.5012   20.8970 C   0  0  0  0  0  0  0  0  0  0  0  0
   13.3699  -19.6137   20.1460 C   0  0  0  0  0  0  0  0  0  0  0  0
   14.6892  -20.0869   20.5307 C   0  0  0  0  0  0  0  0  0  0  0  0
   15.7062  -20.2428   19.8486 O   0  0  0  0  0  0  0  0  0  0  0  0
   11.2727  -16.5724   21.0629 C   0  0  0  0  0  0  0  0  0  0  0  0
   11.9597  -15.5199   21.2562 O   0  0  0  0  0  0  0  0  0  0  0  0
   14.8503  -20.4272   21.9019 O   0  0  0  0  0  0  0  0  0  0  0  0
    6.4464  -14.8207   20.3054 C   0  0  0  0  0  0  0  0  0  0  0  0
    7.9374  -14.9147   20.6791 C   0  0  0  0  0  0  0  0  0  0  0  0
    8.1060  -15.4694   22.0500 C   0  0  2  0  0  0  0  0  0  0  0  0
    7.2463  -14.7623   23.0815 C   0  0  0  0  0  0  0  0  0  0  0  0
    9.4924  -15.6989   22.5233 C   0  0  2  0  0  0  0  0  0  0  0  0
   10.0222  -16.7854   21.6799 N   0  0  0  0  0  0  0  0  0  0  0  0
    9.6640  -16.0082   23.9484 C   0  0  0  0  0  0  0  0  0  0  0  0
    9.7154  -17.2443   24.2577 O   0  0  0  0  0  0  0  0  0  0  0  0
   11.2499  -15.0211   29.2877 C   0  0  0  0  0  0  0  0  0  0  0  0
   10.0170  -14.4660   28.6890 C   0  0  1  0  0  0  0  0  0  0  0  0
    9.6621  -13.1798   29.4469 C   0  0  0  0  0  0  0  0  0  0  0  0
    9.9406  -14.3331   27.2504 C   0  0  0  0  0  0  0  0  0  0  0  0
    9.9852  -15.5082   26.3724 C   0  0  2  0  0  0  0  0  0  0  0  0
    9.7773  -15.0853   24.9732 N   0  0  0  0  0  0  0  0  0  0  0  0
    8.9921  -16.5358   26.6251 C   0  0  0  0  0  0  0  0  0  0  0  0
    7.7966  -16.4305   26.2957 O   0  0  0  0  0  0  0  0  0  0  0  0
    9.3434  -17.7194   27.2646 O   0  0  0  0  0  0  0  0  0  0  0  0
  2  1  1  6
  3  2  1  0
  4  3  1  0
  5  4  1  0
  6  5  2  0
  7  2  1  0
  7  8  2  0
  9  5  1  0
 11 10  1  0
 12 13  1  1
 12 14  1  0
 12 11  1  0
 14 15  1  6
 15  7  1  0
 16 14  1  0
 17 16  2  0
 19 18  1  6
 19 21  1  0
 20 19  1  0
 22 21  1  1
 22 24  1  0
 22 23  1  0
 23 16  1  0
 24 26  1  0
 25 24  2  0
M  END
$$$$
