EIL.pdb
     RDKit          3D

 26 25  0  0  1  0  0  0  0  0999 V2000
   12.0876  -17.7833   19.5561 N   0  0  0  0  0  0  0  0  0  0  0  0
   10.8387  -17.9068   20.2493 C   0  0  1  0  0  0  0  0  0  0  0  0
   10.8449  -19.0414   21.2043 C   0  0  0  0  0  0  0  0  0  0  0  0
   12.0149  -19.1503   22.1000 C   0  0  0  0  0  0  0  0  0  0  0  0
   12.1061  -20.2725   23.0191 C   0  0  0  0  0  0  0  0  0  0  0  0
   11.3738  -21.2586   23.1424 O   0  0  0  0  0  0  0  0  0  0  0  0
   10.5068  -16.6386   20.9818 C   0  0  0  0  0  0  0  0  0  0  0  0
   11.4853  -16.0352   21.5255 O   0  0  0  0  0  0  0  0  0  0  0  0
   13.2034  -20.2457   23.9231 O   0  0  0  0  0  0  0  0  0  0  0  0
    7.3287  -13.0163   18.8795 C   0  0  0  0  0  0  0  0  0  0  0  0
    8.4744  -13.6858   19.6611 C   0  0  0  0  0  0  0  0  0  0  0  0
    8.0162  -14.1119   21.0117 C   0  0  2  0  0  0  0  0  0  0  0  0
    7.3825  -12.9822   21.8025 C   0  0  0  0  0  0  0  0  0  0  0  0
    8.9580  -14.9191   21.8242 C   0  0  2  0  0  0  0  0  0  0  0  0
    9.1834  -16.1555   21.0543 N   0  0  0  0  0  0  0  0  0  0  0  0
    8.5519  -15.2242   23.2019 C   0  0  0  0  0  0  0  0  0  0  0  0
    7.5664  -16.0220   23.3386 O   0  0  0  0  0  0  0  0  0  0  0  0
    7.7539  -11.9075   27.4425 C   0  0  0  0  0  0  0  0  0  0  0  0
    6.9473  -12.9777   26.8176 C   0  0  1  0  0  0  0  0  0  0  0  0
    5.4976  -12.4832   26.7253 C   0  0  0  0  0  0  0  0  0  0  0  0
    7.4304  -13.5928   25.6004 C   0  0  0  0  0  0  0  0  0  0  0  0
    8.4109  -14.6842   25.6345 C   0  0  2  0  0  0  0  0  0  0  0  0
    9.1412  -14.7299   24.3521 N   0  0  0  0  0  0  0  0  0  0  0  0
    7.8780  -16.0193   25.8322 C   0  0  0  0  0  0  0  0  0  0  0  0
    6.9218  -16.4797   25.1822 O   0  0  0  0  0  0  0  0  0  0  0  0
    8.4296  -16.8692   26.7846 O   0  0  0  0  0  0  0  0  0  0  0  0
  2  1  1  1
  3  2  1  0
  4  3  1  0
  5  4  1  0
  6  5  2  0
  7  2  1  0
  7  8  2  0
  9  5  1  0
 11 10  1  0
 12 13  1  1
 12 14  1  0
 12 11  1  0
 14 15  1  6
 15  7  1  0
 16 14  1  0
 17 16  2  0
 19 18  1  6
 19 21  1  0
 20 19  1  0
 22 21  1  6
 22 24  1  0
 22 23  1  0
 23 16  1  0
 24 26  1  0
 25 24  2  0
M  END
$$$$
