EIL.pdb
     RDKit          3D

 26 25  0  0  1  0  0  0  0  0999 V2000
    9.3699  -18.8290   19.1809 N   0  0  0  0  0  0  0  0  0  0  0  0
    8.9398  -18.4255   20.4877 C   0  0  1  0  0  0  0  0  0  0  0  0
    9.4829  -19.3095   21.5473 C   0  0  0  0  0  0  0  0  0  0  0  0
    9.0129  -20.7102   21.5503 C   0  0  0  0  0  0  0  0  0  0  0  0
    8.9894  -21.4508   22.8006 C   0  0  0  0  0  0  0  0  0  0  0  0
    8.6123  -22.6031   23.0333 O   0  0  0  0  0  0  0  0  0  0  0  0
    9.3407  -17.0055   20.7672 C   0  0  0  0  0  0  0  0  0  0  0  0
   10.5714  -16.7302   20.6035 O   0  0  0  0  0  0  0  0  0  0  0  0
    9.4725  -20.7548   23.9426 O   0  0  0  0  0  0  0  0  0  0  0  0
    6.7565  -12.9979   18.7293 C   0  0  0  0  0  0  0  0  0  0  0  0
    7.9048  -13.8609   19.2845 C   0  0  0  0  0  0  0  0  0  0  0  0
    7.9684  -13.7667   20.7686 C   0  0  2  0  0  0  0  0  0  0  0  0
    8.0788  -12.3365   21.2640 C   0  0  0  0  0  0  0  0  0  0  0  0
    8.8985  -14.6862   21.4674 C   0  0  2  0  0  0  0  0  0  0  0  0
    8.3977  -16.0433   21.1852 N   0  0  0  0  0  0  0  0  0  0  0  0
    9.0749  -14.4803   22.9105 C   0  0  0  0  0  0  0  0  0  0  0  0
    9.6077  -13.3770   23.2646 O   0  0  0  0  0  0  0  0  0  0  0  0
    7.9079  -12.6257   27.4673 C   0  0  0  0  0  0  0  0  0  0  0  0
    7.0043  -13.5372   26.7330 C   0  0  1  0  0  0  0  0  0  0  0  0
    5.6049  -12.9076   26.7234 C   0  0  0  0  0  0  0  0  0  0  0  0
    7.4231  -14.0431   25.4440 C   0  0  0  0  0  0  0  0  0  0  0  0
    8.5811  -14.9353   25.3143 C   0  0  2  0  0  0  0  0  0  0  0  0
    8.7142  -15.3679   23.9089 N   0  0  0  0  0  0  0  0  0  0  0  0
    8.5424  -16.1548   26.0999 C   0  0  0  0  0  0  0  0  0  0  0  0
    8.7311  -16.1851   27.3297 O   0  0  0  0  0  0  0  0  0  0  0  0
    8.2839  -17.3800   25.4952 O   0  0  0  0  0  0  0  0  0  0  0  0
  2  1  1  6
  3  2  1  0
  4  3  1  0
  5  4  1  0
  6  5  2  0
  7  2  1  0
  7  8  2  0
  9  5  1  0
 11 10  1  0
 12 13  1  6
 12 14  1  0
 12 11  1  0
 14 15  1  1
 15  7  1  0
 16 14  1  0
 17 16  2  0
 19 18  1  6
 19 21  1  0
 20 19  1  0
 22 21  1  6
 22 24  1  0
 22 23  1  0
 23 16  1  0
 24 26  1  0
 25 24  2  0
M  END
$$$$
