EIL.pdb
     RDKit          3D

 26 25  0  0  1  0  0  0  0  0999 V2000
    8.1109  -17.9370   21.2500 N   0  0  0  0  0  0  0  0  0  0  0  0
    9.5183  -17.7443   21.4435 C   0  0  1  0  0  0  0  0  0  0  0  0
   10.2293  -17.5264   20.1604 C   0  0  0  0  0  0  0  0  0  0  0  0
   11.2293  -18.5429   19.7734 C   0  0  0  0  0  0  0  0  0  0  0  0
   11.7121  -18.5813   18.4031 C   0  0  0  0  0  0  0  0  0  0  0  0
   11.4930  -19.4021   17.5074 O   0  0  0  0  0  0  0  0  0  0  0  0
    9.7773  -16.5846   22.3618 C   0  0  0  0  0  0  0  0  0  0  0  0
   10.8955  -15.9965   22.2169 O   0  0  0  0  0  0  0  0  0  0  0  0
   12.5709  -17.5153   18.0183 O   0  0  0  0  0  0  0  0  0  0  0  0
    6.0735  -13.3588   25.4465 C   0  0  0  0  0  0  0  0  0  0  0  0
    6.9189  -14.5940   25.0842 C   0  0  0  0  0  0  0  0  0  0  0  0
    8.1792  -14.1918   24.4021 C   0  0  2  0  0  0  0  0  0  0  0  0
    7.9355  -13.5035   23.0718 C   0  0  0  0  0  0  0  0  0  0  0  0
    9.2645  -15.1998   24.3327 C   0  0  2  0  0  0  0  0  0  0  0  0
    8.8275  -16.1810   23.3234 N   0  0  0  0  0  0  0  0  0  0  0  0
    9.6324  -15.8658   25.5886 C   0  0  0  0  0  0  0  0  0  0  0  0
    8.7918  -16.7055   26.0520 O   0  0  0  0  0  0  0  0  0  0  0  0
   11.3341  -13.4160   28.2223 C   0  0  0  0  0  0  0  0  0  0  0  0
   10.4095  -14.2406   29.0296 C   0  0  1  0  0  0  0  0  0  0  0  0
    9.1373  -13.4188   29.2763 C   0  0  0  0  0  0  0  0  0  0  0  0
   10.1509  -15.6029   28.6168 C   0  0  0  0  0  0  0  0  0  0  0  0
   11.0052  -16.2767   27.6321 C   0  0  2  0  0  0  0  0  0  0  0  0
   10.8004  -15.6664   26.3033 N   0  0  0  0  0  0  0  0  0  0  0  0
   10.7780  -17.6985   27.4518 C   0  0  0  0  0  0  0  0  0  0  0  0
   10.9389  -18.5391   28.3554 O   0  0  0  0  0  0  0  0  0  0  0  0
   10.3566  -18.1994   26.2250 O   0  0  0  0  0  0  0  0  0  0  0  0
  2  1  1  6
  3  2  1  0
  4  3  1  0
  5  4  1  0
  6  5  2  0
  7  2  1  0
  7  8  2  0
  9  5  1  0
 11 10  1  0
 12 13  1  6
 12 14  1  0
 12 11  1  0
 14 15  1  6
 15  7  1  0
 16 14  1  0
 17 16  2  0
 19 18  1  6
 19 21  1  0
 20 19  1  0
 22 21  1  1
 22 24  1  0
 22 23  1  0
 23 16  1  0
 24 26  1  0
 25 24  2  0
M  END
$$$$
