PAI.pdb
     RDKit          3D

 21 21  0  0  1  0  0  0  0  0999 V2000
   21.1918  -12.3253  -18.9866 N   0  0  0  0  0  0  0  0  0  0  0  0
   20.1709  -13.2784  -19.4305 C   0  0  0  0  0  0  0  0  0  0  0  0
   19.0407  -12.9328  -18.4558 C   0  0  0  0  0  0  0  0  0  0  0  0
   19.1939  -11.4353  -18.2435 C   0  0  0  0  0  0  0  0  0  0  0  0
   20.4442  -11.0881  -18.9690 C   0  0  1  0  0  0  0  0  0  0  0  0
   21.2227   -9.9974  -18.3695 C   0  0  0  0  0  0  0  0  0  0  0  0
   22.0500  -10.2851  -17.4657 O   0  0  0  0  0  0  0  0  0  0  0  0
   21.8546   -6.3771  -18.9769 C   0  0  0  0  0  0  0  0  0  0  0  0
   21.8397   -7.5645  -18.0680 C   0  0  2  0  0  0  0  0  0  0  0  0
   21.1190   -8.6349  -18.7274 N   0  0  0  0  0  0  0  0  0  0  0  0
   21.2995   -7.2674  -16.7254 C   0  0  0  0  0  0  0  0  0  0  0  0
   20.0662   -7.3857  -16.5429 O   0  0  0  0  0  0  0  0  0  0  0  0
   22.5530   -9.9396  -12.6643 C   0  0  0  0  0  0  0  0  0  0  0  0
   21.9563   -8.9870  -13.6699 C   0  0  0  0  0  0  0  0  0  0  0  0
   22.1855   -7.5273  -13.2523 C   0  0  2  0  0  0  0  0  0  0  0  0
   21.3699   -7.3538  -11.9858 C   0  0  0  0  0  0  0  0  0  0  0  0
   21.5838   -6.6369  -14.2943 C   0  0  2  0  0  0  0  0  0  0  0  0
   22.0881   -6.8554  -15.6249 N   0  0  0  0  0  0  0  0  0  0  0  0
   21.7436   -5.2236  -13.8633 C   0  0  0  0  0  0  0  0  0  0  0  0
   20.7573   -4.4980  -13.2258 O   0  0  0  0  0  0  0  0  0  0  0  0
   22.8414   -4.6606  -14.0946 O   0  0  0  0  0  0  0  0  0  0  0  0
  1  5  1  0
  2  1  1  0
  3  2  1  0
  3  4  1  0
  4  5  1  0
  5  6  1  1
  6 10  1  0
  7  6  2  0
  9  8  1  6
 10  9  1  0
 11 12  2  0
 11  9  1  0
 14 15  1  0
 14 13  1  0
 15 16  1  1
 17 18  1  6
 17 15  1  0
 18 11  1  0
 19 17  1  0
 20 19  1  0
 21 19  2  0
M  END
$$$$
