PAI.pdb
     RDKit          3D

 21 21  0  0  1  0  0  0  0  0999 V2000
   19.7875  -10.0349  -18.8116 N   0  0  0  0  0  0  0  0  0  0  0  0
   20.2856  -10.8027  -19.9562 C   0  0  0  0  0  0  0  0  0  0  0  0
   19.7205   -9.9639  -21.1069 C   0  0  0  0  0  0  0  0  0  0  0  0
   19.7703   -8.5412  -20.5734 C   0  0  0  0  0  0  0  0  0  0  0  0
   20.2029   -8.6947  -19.1595 C   0  0  1  0  0  0  0  0  0  0  0  0
   19.6464   -7.7014  -18.2328 C   0  0  0  0  0  0  0  0  0  0  0  0
   20.0703   -6.5186  -18.3049 O   0  0  0  0  0  0  0  0  0  0  0  0
   16.7242   -7.3151  -16.0214 C   0  0  0  0  0  0  0  0  0  0  0  0
   18.1474   -6.9758  -16.3309 C   0  0  2  0  0  0  0  0  0  0  0  0
   18.6622   -7.9665  -17.2548 N   0  0  0  0  0  0  0  0  0  0  0  0
   18.9918   -6.8386  -15.1265 C   0  0  0  0  0  0  0  0  0  0  0  0
   18.6683   -5.9847  -14.2694 O   0  0  0  0  0  0  0  0  0  0  0  0
   21.9557   -9.1894  -11.0369 C   0  0  0  0  0  0  0  0  0  0  0  0
   22.6261   -8.4010  -12.1340 C   0  0  0  0  0  0  0  0  0  0  0  0
   21.9205   -8.6171  -13.4805 C   0  0  2  0  0  0  0  0  0  0  0  0
   23.0262   -8.5361  -14.5150 C   0  0  0  0  0  0  0  0  0  0  0  0
   20.9992   -7.4625  -13.7228 C   0  0  2  0  0  0  0  0  0  0  0  0
   20.1495   -7.6129  -14.8752 N   0  0  0  0  0  0  0  0  0  0  0  0
   21.8045   -6.2150  -13.7839 C   0  0  0  0  0  0  0  0  0  0  0  0
   22.3062   -5.6802  -14.9535 O   0  0  0  0  0  0  0  0  0  0  0  0
   22.0401   -5.6157  -12.7063 O   0  0  0  0  0  0  0  0  0  0  0  0
  1  5  1  0
  2  1  1  0
  3  2  1  0
  3  4  1  0
  4  5  1  0
  5  6  1  1
  6 10  1  0
  7  6  2  0
  9  8  1  1
 10  9  1  0
 11 12  2  0
 11  9  1  0
 14 15  1  0
 14 13  1  0
 15 16  1  6
 17 18  1  6
 17 15  1  0
 18 11  1  0
 19 17  1  0
 20 19  1  0
 21 19  2  0
M  END
$$$$
