PAI.pdb
     RDKit          3D

 21 21  0  0  1  0  0  0  0  0999 V2000
   27.7599  -19.8313  -14.9681 N   0  0  0  0  0  0  0  0  0  0  0  0
   28.9614  -19.8580  -15.8067 C   0  0  0  0  0  0  0  0  0  0  0  0
   29.5910  -21.1707  -15.3300 C   0  0  0  0  0  0  0  0  0  0  0  0
   28.3924  -22.0524  -15.0184 C   0  0  0  0  0  0  0  0  0  0  0  0
   27.2210  -21.1538  -15.1928 C   0  0  1  0  0  0  0  0  0  0  0  0
   26.0906  -21.4333  -14.2988 C   0  0  0  0  0  0  0  0  0  0  0  0
   25.1861  -22.2065  -14.7084 O   0  0  0  0  0  0  0  0  0  0  0  0
   25.1909  -20.8077  -10.7327 C   0  0  0  0  0  0  0  0  0  0  0  0
   24.8205  -21.2104  -12.1244 C   0  0  2  0  0  0  0  0  0  0  0  0
   25.9321  -20.8995  -13.0006 N   0  0  0  0  0  0  0  0  0  0  0  0
   23.5535  -20.6101  -12.5900 C   0  0  0  0  0  0  0  0  0  0  0  0
   23.5156  -19.3717  -12.7723 O   0  0  0  0  0  0  0  0  0  0  0  0
   21.5131  -21.2322  -17.0924 C   0  0  0  0  0  0  0  0  0  0  0  0
   21.8459  -20.7986  -15.6867 C   0  0  0  0  0  0  0  0  0  0  0  0
   20.7498  -21.2288  -14.7013 C   0  0  2  0  0  0  0  0  0  0  0  0
   19.5274  -20.4289  -15.1075 C   0  0  0  0  0  0  0  0  0  0  0  0
   21.1421  -20.7758  -13.3296 C   0  0  2  0  0  0  0  0  0  0  0  0
   22.3720  -21.3463  -12.8452 N   0  0  0  0  0  0  0  0  0  0  0  0
   20.0084  -21.0274  -12.4023 C   0  0  0  0  0  0  0  0  0  0  0  0
   19.1396  -20.0472  -11.9665 O   0  0  0  0  0  0  0  0  0  0  0  0
   19.8344  -22.2015  -11.9938 O   0  0  0  0  0  0  0  0  0  0  0  0
  1  5  1  0
  2  1  1  0
  3  2  1  0
  3  4  1  0
  4  5  1  0
  5  6  1  1
  6 10  1  0
  7  6  2  0
  9  8  1  1
 10  9  1  0
 11 12  2  0
 11  9  1  0
 14 15  1  0
 14 13  1  0
 15 16  1  6
 17 18  1  1
 17 15  1  0
 18 11  1  0
 19 17  1  0
 20 19  1  0
 21 19  2  0
M  END
$$$$
