PAI.pdb
     RDKit          3D

 21 21  0  0  1  0  0  0  0  0999 V2000
   19.3332  -11.9108  -18.2734 N   0  0  0  0  0  0  0  0  0  0  0  0
   19.1538  -12.2727  -19.6821 C   0  0  0  0  0  0  0  0  0  0  0  0
   19.1939  -10.8817  -20.3226 C   0  0  0  0  0  0  0  0  0  0  0  0
   20.1772  -10.1137  -19.4539 C   0  0  0  0  0  0  0  0  0  0  0  0
   20.4914  -11.0485  -18.3415 C   0  0  1  0  0  0  0  0  0  0  0  0
   20.7584  -10.4032  -17.0502 C   0  0  0  0  0  0  0  0  0  0  0  0
   19.7757  -10.0367  -16.3547 O   0  0  0  0  0  0  0  0  0  0  0  0
   23.6329   -9.8528  -14.7617 C   0  0  0  0  0  0  0  0  0  0  0  0
   22.2851   -9.4544  -15.2727 C   0  0  2  0  0  0  0  0  0  0  0  0
   22.0431  -10.1564  -16.5171 N   0  0  0  0  0  0  0  0  0  0  0  0
   22.1199   -7.9929  -15.4109 C   0  0  0  0  0  0  0  0  0  0  0  0
   22.4528   -7.4581  -16.4932 O   0  0  0  0  0  0  0  0  0  0  0  0
   18.8941   -5.0597  -16.3710 C   0  0  0  0  0  0  0  0  0  0  0  0
   18.9929   -5.8866  -15.1137 C   0  0  0  0  0  0  0  0  0  0  0  0
   20.0127   -5.2860  -14.1355 C   0  0  2  0  0  0  0  0  0  0  0  0
   19.9430   -3.7899  -14.3728 C   0  0  0  0  0  0  0  0  0  0  0  0
   21.3809   -5.7374  -14.5416 C   0  0  2  0  0  0  0  0  0  0  0  0
   21.6072   -7.1516  -14.3949 N   0  0  0  0  0  0  0  0  0  0  0  0
   22.3874   -4.9327  -13.8014 C   0  0  0  0  0  0  0  0  0  0  0  0
   22.9611   -3.7776  -14.2937 O   0  0  0  0  0  0  0  0  0  0  0  0
   22.7335   -5.3303  -12.6622 O   0  0  0  0  0  0  0  0  0  0  0  0
  1  5  1  0
  2  1  1  0
  3  2  1  0
  3  4  1  0
  4  5  1  0
  5  6  1  1
  6 10  1  0
  7  6  2  0
  9  8  1  6
 10  9  1  0
 11 12  2  0
 11  9  1  0
 14 15  1  0
 14 13  1  0
 15 16  1  6
 17 18  1  1
 17 15  1  0
 18 11  1  0
 19 17  1  0
 20 19  1  0
 21 19  2  0
M  END
$$$$
