PAI.pdb
     RDKit          3D

 21 21  0  0  1  0  0  0  0  0999 V2000
   26.4902  -21.8671  -16.4930 N   0  0  0  0  0  0  0  0  0  0  0  0
   27.2476  -22.0706  -17.7310 C   0  0  0  0  0  0  0  0  0  0  0  0
   27.7649  -20.6477  -17.9649 C   0  0  0  0  0  0  0  0  0  0  0  0
   27.9892  -20.1109  -16.5604 C   0  0  0  0  0  0  0  0  0  0  0  0
   27.4593  -21.1778  -15.6710 C   0  0  1  0  0  0  0  0  0  0  0  0
   26.8593  -20.6970  -14.4205 C   0  0  0  0  0  0  0  0  0  0  0  0
   27.6062  -20.1248  -13.5846 O   0  0  0  0  0  0  0  0  0  0  0  0
   23.4014  -20.2440  -13.0852 C   0  0  0  0  0  0  0  0  0  0  0  0
   24.8869  -20.1864  -12.9238 C   0  0  2  0  0  0  0  0  0  0  0  0
   25.4960  -20.8249  -14.0733 N   0  0  0  0  0  0  0  0  0  0  0  0
   25.3598  -20.7594  -11.6469 C   0  0  0  0  0  0  0  0  0  0  0  0
   25.4767  -22.0033  -11.5622 O   0  0  0  0  0  0  0  0  0  0  0  0
   28.4970  -19.5366   -6.4257 C   0  0  0  0  0  0  0  0  0  0  0  0
   27.5517  -20.3861   -7.2376 C   0  0  0  0  0  0  0  0  0  0  0  0
   27.1045  -19.6535   -8.5107 C   0  0  2  0  0  0  0  0  0  0  0  0
   26.3098  -18.4617   -8.0133 C   0  0  0  0  0  0  0  0  0  0  0  0
   26.1571  -20.5390   -9.2584 C   0  0  2  0  0  0  0  0  0  0  0  0
   25.6915  -19.9910  -10.5056 N   0  0  0  0  0  0  0  0  0  0  0  0
   25.0337  -20.9040   -8.3566 C   0  0  0  0  0  0  0  0  0  0  0  0
   25.1176  -21.8736   -7.3776 O   0  0  0  0  0  0  0  0  0  0  0  0
   23.9465  -20.2923   -8.4969 O   0  0  0  0  0  0  0  0  0  0  0  0
  1  5  1  0
  2  1  1  0
  3  2  1  0
  3  4  1  0
  4  5  1  0
  5  6  1  1
  6 10  1  0
  7  6  2  0
  9  8  1  6
 10  9  1  0
 11 12  2  0
 11  9  1  0
 14 15  1  0
 14 13  1  0
 15 16  1  1
 17 18  1  6
 17 15  1  0
 18 11  1  0
 19 17  1  0
 20 19  1  0
 21 19  2  0
M  END
$$$$
