PAI.pdb
     RDKit          3D

 21 21  0  0  1  0  0  0  0  0999 V2000
   15.8468  -11.9407  -16.1685 N   0  0  0  0  0  0  0  0  0  0  0  0
   15.2303  -13.2211  -16.5264 C   0  0  0  0  0  0  0  0  0  0  0  0
   15.2573  -13.1130  -18.0543 C   0  0  0  0  0  0  0  0  0  0  0  0
   16.5341  -12.3380  -18.3377 C   0  0  0  0  0  0  0  0  0  0  0  0
   17.0346  -11.9513  -16.9924 C   0  0  1  0  0  0  0  0  0  0  0  0
   17.7359  -10.6626  -16.9420 C   0  0  0  0  0  0  0  0  0  0  0  0
   18.9466  -10.6312  -17.2841 O   0  0  0  0  0  0  0  0  0  0  0  0
   16.8586   -7.0733  -16.4228 C   0  0  0  0  0  0  0  0  0  0  0  0
   17.8655   -8.1758  -16.5065 C   0  0  2  0  0  0  0  0  0  0  0  0
   17.1570   -9.4396  -16.5364 N   0  0  0  0  0  0  0  0  0  0  0  0
   18.8794   -8.1254  -15.4333 C   0  0  0  0  0  0  0  0  0  0  0  0
   18.5807   -8.5978  -14.3126 O   0  0  0  0  0  0  0  0  0  0  0  0
   24.1077  -10.0828  -13.8711 C   0  0  0  0  0  0  0  0  0  0  0  0
   23.1920   -8.8928  -13.7303 C   0  0  0  0  0  0  0  0  0  0  0  0
   22.1493   -8.8611  -14.8569 C   0  0  2  0  0  0  0  0  0  0  0  0
   22.9447   -8.5639  -16.1132 C   0  0  0  0  0  0  0  0  0  0  0  0
   21.2355   -7.6986  -14.6237 C   0  0  2  0  0  0  0  0  0  0  0  0
   20.1741   -7.5752  -15.5884 N   0  0  0  0  0  0  0  0  0  0  0  0
   22.0529   -6.4607  -14.5336 C   0  0  0  0  0  0  0  0  0  0  0  0
   22.7383   -6.0728  -13.3999 O   0  0  0  0  0  0  0  0  0  0  0  0
   22.1210   -5.7277  -15.5504 O   0  0  0  0  0  0  0  0  0  0  0  0
  1  5  1  0
  2  1  1  0
  3  2  1  0
  3  4  1  0
  4  5  1  0
  5  6  1  6
  6 10  1  0
  7  6  2  0
  9  8  1  1
 10  9  1  0
 11 12  2  0
 11  9  1  0
 14 15  1  0
 14 13  1  0
 15 16  1  6
 17 18  1  6
 17 15  1  0
 18 11  1  0
 19 17  1  0
 20 19  1  0
 21 19  2  0
M  END
$$$$
