PAI.pdb
     RDKit          3D

 21 21  0  0  1  0  0  0  0  0999 V2000
   18.0223  -12.1900  -16.7094 N   0  0  0  0  0  0  0  0  0  0  0  0
   17.4202  -13.4290  -16.2094 C   0  0  0  0  0  0  0  0  0  0  0  0
   17.4491  -13.1514  -14.7031 C   0  0  0  0  0  0  0  0  0  0  0  0
   17.2256  -11.6506  -14.6094 C   0  0  0  0  0  0  0  0  0  0  0  0
   17.2372  -11.1892  -16.0225 C   0  0  1  0  0  0  0  0  0  0  0  0
   17.7843   -9.8424  -16.2273 C   0  0  0  0  0  0  0  0  0  0  0  0
   19.0320   -9.7179  -16.3340 O   0  0  0  0  0  0  0  0  0  0  0  0
   16.4224   -6.4981  -17.1370 C   0  0  0  0  0  0  0  0  0  0  0  0
   17.5546   -7.3682  -16.6925 C   0  0  2  0  0  0  0  0  0  0  0  0
   17.0166   -8.6599  -16.3155 N   0  0  0  0  0  0  0  0  0  0  0  0
   18.3704   -6.7645  -15.6190 C   0  0  0  0  0  0  0  0  0  0  0  0
   17.9857   -6.8988  -14.4349 O   0  0  0  0  0  0  0  0  0  0  0  0
   21.5912   -7.6924  -13.5979 C   0  0  0  0  0  0  0  0  0  0  0  0
   22.1252   -7.0838  -14.8704 C   0  0  0  0  0  0  0  0  0  0  0  0
   21.8155   -5.5814  -14.9372 C   0  0  2  0  0  0  0  0  0  0  0  0
   22.4521   -4.9985  -13.6904 C   0  0  0  0  0  0  0  0  0  0  0  0
   20.3356   -5.3969  -14.8088 C   0  0  2  0  0  0  0  0  0  0  0  0
   19.5656   -6.0399  -15.8413 N   0  0  0  0  0  0  0  0  0  0  0  0
   20.0428   -3.9426  -14.7196 C   0  0  0  0  0  0  0  0  0  0  0  0
   19.5970   -3.1816  -15.7815 O   0  0  0  0  0  0  0  0  0  0  0  0
   20.2123   -3.3771  -13.6118 O   0  0  0  0  0  0  0  0  0  0  0  0
  1  5  1  0
  2  1  1  0
  3  2  1  0
  3  4  1  0
  4  5  1  0
  5  6  1  1
  6 10  1  0
  7  6  2  0
  9  8  1  1
 10  9  1  0
 11 12  2  0
 11  9  1  0
 14 15  1  0
 14 13  1  0
 15 16  1  1
 17 18  1  6
 17 15  1  0
 18 11  1  0
 19 17  1  0
 20 19  1  0
 21 19  2  0
M  END
$$$$
