PAI.pdb
     RDKit          3D

 21 21  0  0  1  0  0  0  0  0999 V2000
   26.9269  -20.4992  -14.1199 N   0  0  0  0  0  0  0  0  0  0  0  0
   27.4300  -20.2322  -15.4702 C   0  0  0  0  0  0  0  0  0  0  0  0
   27.1031  -18.7402  -15.5872 C   0  0  0  0  0  0  0  0  0  0  0  0
   27.2905  -18.2186  -14.1715 C   0  0  0  0  0  0  0  0  0  0  0  0
   27.5528  -19.4383  -13.3631 C   0  0  1  0  0  0  0  0  0  0  0  0
   27.0447  -19.3873  -11.9867 C   0  0  0  0  0  0  0  0  0  0  0  0
   27.5053  -18.5056  -11.2157 O   0  0  0  0  0  0  0  0  0  0  0  0
   24.2215  -20.8764  -10.0703 C   0  0  0  0  0  0  0  0  0  0  0  0
   25.5189  -20.1340  -10.1146 C   0  0  2  0  0  0  0  0  0  0  0  0
   26.0695  -20.2566  -11.4494 N   0  0  0  0  0  0  0  0  0  0  0  0
   26.4739  -20.5614   -9.0716 C   0  0  0  0  0  0  0  0  0  0  0  0
   27.1828  -21.5695   -9.2938 O   0  0  0  0  0  0  0  0  0  0  0  0
   29.9277  -18.8325   -4.2556 C   0  0  0  0  0  0  0  0  0  0  0  0
   29.1826  -19.8909   -5.0296 C   0  0  0  0  0  0  0  0  0  0  0  0
   28.2819  -19.2607   -6.1017 C   0  0  2  0  0  0  0  0  0  0  0  0
   27.2842  -18.4226   -5.3261 C   0  0  0  0  0  0  0  0  0  0  0  0
   27.5144  -20.3538   -6.7774 C   0  0  2  0  0  0  0  0  0  0  0  0
   26.6418  -19.9031   -7.8301 N   0  0  0  0  0  0  0  0  0  0  0  0
   26.7839  -21.1324   -5.7436 C   0  0  0  0  0  0  0  0  0  0  0  0
   27.3851  -22.0469   -4.9023 O   0  0  0  0  0  0  0  0  0  0  0  0
   25.5477  -20.9443   -5.6325 O   0  0  0  0  0  0  0  0  0  0  0  0
  1  5  1  0
  2  1  1  0
  3  2  1  0
  3  4  1  0
  4  5  1  0
  5  6  1  1
  6 10  1  0
  7  6  2  0
  9  8  1  6
 10  9  1  0
 11 12  2  0
 11  9  1  0
 14 15  1  0
 14 13  1  0
 15 16  1  1
 17 18  1  6
 17 15  1  0
 18 11  1  0
 19 17  1  0
 20 19  1  0
 21 19  2  0
M  END
$$$$
