PAI.pdb
     RDKit          3D

 21 21  0  0  1  0  0  0  0  0999 V2000
   24.8628  -19.1431  -17.8538 N   0  0  0  0  0  0  0  0  0  0  0  0
   24.5779  -18.0047  -18.7316 C   0  0  0  0  0  0  0  0  0  0  0  0
   24.3185  -16.9176  -17.6838 C   0  0  0  0  0  0  0  0  0  0  0  0
   25.2620  -17.2799  -16.5481 C   0  0  0  0  0  0  0  0  0  0  0  0
   25.8516  -18.5803  -16.9619 C   0  0  1  0  0  0  0  0  0  0  0  0
   26.1631  -19.4958  -15.8574 C   0  0  0  0  0  0  0  0  0  0  0  0
   25.2429  -20.2354  -15.4213 O   0  0  0  0  0  0  0  0  0  0  0  0
   29.1537  -20.4661  -13.8237 C   0  0  0  0  0  0  0  0  0  0  0  0
   27.6773  -20.4217  -14.0573 C   0  0  2  0  0  0  0  0  0  0  0  0
   27.4257  -19.6168  -15.2357 N   0  0  0  0  0  0  0  0  0  0  0  0
   26.9127  -19.9532  -12.8833 C   0  0  0  0  0  0  0  0  0  0  0  0
   26.8361  -18.7201  -12.6790 O   0  0  0  0  0  0  0  0  0  0  0  0
   21.9682  -20.6138  -12.2409 C   0  0  0  0  0  0  0  0  0  0  0  0
   23.4029  -20.1681  -12.1085 C   0  0  0  0  0  0  0  0  0  0  0  0
   24.0549  -20.7683  -10.8546 C   0  0  2  0  0  0  0  0  0  0  0  0
   23.3726  -20.0735   -9.6923 C   0  0  0  0  0  0  0  0  0  0  0  0
   25.4959  -20.3640  -10.8307 C   0  0  2  0  0  0  0  0  0  0  0  0
   26.2567  -20.8108  -11.9683 N   0  0  0  0  0  0  0  0  0  0  0  0
   26.0959  -20.8144   -9.5478 C   0  0  0  0  0  0  0  0  0  0  0  0
   26.1375  -20.0409   -8.4052 O   0  0  0  0  0  0  0  0  0  0  0  0
   26.5930  -21.9662   -9.5054 O   0  0  0  0  0  0  0  0  0  0  0  0
  1  5  1  0
  2  1  1  0
  3  2  1  0
  3  4  1  0
  4  5  1  0
  5  6  1  1
  6 10  1  0
  7  6  2  0
  9  8  1  1
 10  9  1  0
 11 12  2  0
 11  9  1  0
 14 15  1  0
 14 13  1  0
 15 16  1  1
 17 18  1  6
 17 15  1  0
 18 11  1  0
 19 17  1  0
 20 19  1  0
 21 19  2  0
M  END
$$$$
