PAI.pdb
     RDKit          3D

 21 21  0  0  1  0  0  0  0  0999 V2000
   17.6103  -12.1374  -19.5304 N   0  0  0  0  0  0  0  0  0  0  0  0
   17.1025  -13.4845  -19.8048 C   0  0  0  0  0  0  0  0  0  0  0  0
   18.4247  -14.2369  -19.9850 C   0  0  0  0  0  0  0  0  0  0  0  0
   19.3681  -13.5444  -19.0147 C   0  0  0  0  0  0  0  0  0  0  0  0
   18.5784  -12.3997  -18.4893 C   0  0  1  0  0  0  0  0  0  0  0  0
   19.3650  -11.2016  -18.1719 C   0  0  0  0  0  0  0  0  0  0  0  0
   20.1472  -11.2481  -17.1871 O   0  0  0  0  0  0  0  0  0  0  0  0
   20.0146   -7.8555  -19.7114 C   0  0  0  0  0  0  0  0  0  0  0  0
   20.1293   -8.8267  -18.5800 C   0  0  2  0  0  0  0  0  0  0  0  0
   19.3161   -9.9856  -18.8892 N   0  0  0  0  0  0  0  0  0  0  0  0
   19.7930   -8.2386  -17.2672 C   0  0  0  0  0  0  0  0  0  0  0  0
   18.5855   -8.0527  -16.9924 O   0  0  0  0  0  0  0  0  0  0  0  0
   20.0126   -8.8019  -11.4655 C   0  0  0  0  0  0  0  0  0  0  0  0
   20.0929   -7.7788  -12.5707 C   0  0  0  0  0  0  0  0  0  0  0  0
   20.4227   -8.4423  -13.9155 C   0  0  2  0  0  0  0  0  0  0  0  0
   21.8470   -8.9400  -13.7633 C   0  0  0  0  0  0  0  0  0  0  0  0
   20.4319   -7.3853  -14.9753 C   0  0  2  0  0  0  0  0  0  0  0  0
   20.7509   -7.8689  -16.2932 N   0  0  0  0  0  0  0  0  0  0  0  0
   21.3417   -6.2905  -14.5485 C   0  0  0  0  0  0  0  0  0  0  0  0
   21.0118   -5.3421  -13.6012 O   0  0  0  0  0  0  0  0  0  0  0  0
   22.4756   -6.2282  -15.0834 O   0  0  0  0  0  0  0  0  0  0  0  0
  1  5  1  0
  2  1  1  0
  3  2  1  0
  3  4  1  0
  4  5  1  0
  5  6  1  6
  6 10  1  0
  7  6  2  0
  9  8  1  6
 10  9  1  0
 11 12  2  0
 11  9  1  0
 14 15  1  0
 14 13  1  0
 15 16  1  1
 17 18  1  6
 17 15  1  0
 18 11  1  0
 19 17  1  0
 20 19  1  0
 21 19  2  0
M  END
$$$$
