PAI.pdb
     RDKit          3D

 21 21  0  0  1  0  0  0  0  0999 V2000
   27.1368  -19.7201  -14.7137 N   0  0  0  0  0  0  0  0  0  0  0  0
   27.8143  -20.5074  -15.7475 C   0  0  0  0  0  0  0  0  0  0  0  0
   28.9661  -21.0938  -14.9251 C   0  0  0  0  0  0  0  0  0  0  0  0
   28.3576  -21.2960  -13.5467 C   0  0  0  0  0  0  0  0  0  0  0  0
   27.0035  -20.6914  -13.6513 C   0  0  1  0  0  0  0  0  0  0  0  0
   26.5069  -20.0730  -12.4160 C   0  0  0  0  0  0  0  0  0  0  0  0
   26.9132  -18.9180  -12.1249 O   0  0  0  0  0  0  0  0  0  0  0  0
   23.6773  -20.1073  -10.2177 C   0  0  0  0  0  0  0  0  0  0  0  0
   25.1714  -20.0715  -10.2696 C   0  0  2  0  0  0  0  0  0  0  0  0
   25.5994  -20.6744  -11.5159 N   0  0  0  0  0  0  0  0  0  0  0  0
   25.8131  -20.6955   -9.0943 C   0  0  0  0  0  0  0  0  0  0  0  0
   25.9826  -21.9362   -9.1001 O   0  0  0  0  0  0  0  0  0  0  0  0
   29.5497  -18.1562   -5.8137 C   0  0  0  0  0  0  0  0  0  0  0  0
   28.7796  -19.1660   -6.6272 C   0  0  0  0  0  0  0  0  0  0  0  0
   27.5334  -19.6499   -5.8720 C   0  0  2  0  0  0  0  0  0  0  0  0
   28.0744  -20.4648   -4.7132 C   0  0  0  0  0  0  0  0  0  0  0  0
   26.7761  -20.5874   -6.7598 C   0  0  2  0  0  0  0  0  0  0  0  0
   26.2519  -19.9797   -7.9550 N   0  0  0  0  0  0  0  0  0  0  0  0
   25.7130  -21.2480   -5.9586 C   0  0  0  0  0  0  0  0  0  0  0  0
   25.9308  -22.3421   -5.1456 O   0  0  0  0  0  0  0  0  0  0  0  0
   24.5501  -20.7804   -6.0284 O   0  0  0  0  0  0  0  0  0  0  0  0
  1  5  1  0
  2  1  1  0
  3  2  1  0
  3  4  1  0
  4  5  1  0
  5  6  1  1
  6 10  1  0
  7  6  2  0
  9  8  1  1
 10  9  1  0
 11 12  2  0
 11  9  1  0
 14 15  1  0
 14 13  1  0
 15 16  1  1
 17 18  1  6
 17 15  1  0
 18 11  1  0
 19 17  1  0
 20 19  1  0
 21 19  2  0
M  END
$$$$
