PAI.pdb
     RDKit          3D

 21 21  0  0  1  0  0  0  0  0999 V2000
   17.2724  -12.3366  -18.4570 N   0  0  0  0  0  0  0  0  0  0  0  0
   16.9207  -13.6963  -18.8756 C   0  0  0  0  0  0  0  0  0  0  0  0
   18.0086  -13.9424  -19.9259 C   0  0  0  0  0  0  0  0  0  0  0  0
   19.2105  -13.1862  -19.3830 C   0  0  0  0  0  0  0  0  0  0  0  0
   18.6863  -12.4732  -18.1885 C   0  0  1  0  0  0  0  0  0  0  0  0
   19.3117  -11.1719  -17.9230 C   0  0  0  0  0  0  0  0  0  0  0  0
   20.5283  -11.1519  -17.6015 O   0  0  0  0  0  0  0  0  0  0  0  0
   18.3876   -7.5670  -18.2682 C   0  0  0  0  0  0  0  0  0  0  0  0
   19.3046   -8.6474  -17.7904 C   0  0  2  0  0  0  0  0  0  0  0  0
   18.6529   -9.9247  -17.9995 N   0  0  0  0  0  0  0  0  0  0  0  0
   19.7467   -8.4645  -16.3927 C   0  0  0  0  0  0  0  0  0  0  0  0
   18.9171   -8.6677  -15.4769 O   0  0  0  0  0  0  0  0  0  0  0  0
   24.4542  -10.3027  -14.6979 C   0  0  0  0  0  0  0  0  0  0  0  0
   23.5789   -9.1409  -15.0963 C   0  0  0  0  0  0  0  0  0  0  0  0
   22.3738   -9.0080  -14.1542 C   0  0  2  0  0  0  0  0  0  0  0  0
   21.6057  -10.3046  -14.3220 C   0  0  0  0  0  0  0  0  0  0  0  0
   21.4981   -7.9038  -14.6586 C   0  0  2  0  0  0  0  0  0  0  0  0
   21.0537   -8.0724  -16.0175 N   0  0  0  0  0  0  0  0  0  0  0  0
   22.2006   -6.6095  -14.4589 C   0  0  0  0  0  0  0  0  0  0  0  0
   22.5192   -6.0908  -13.2199 O   0  0  0  0  0  0  0  0  0  0  0  0
   22.5212   -5.9528  -15.4795 O   0  0  0  0  0  0  0  0  0  0  0  0
  1  5  1  0
  2  1  1  0
  3  2  1  0
  3  4  1  0
  4  5  1  0
  5  6  1  6
  6 10  1  0
  7  6  2  0
  9  8  1  1
 10  9  1  0
 11 12  2  0
 11  9  1  0
 14 15  1  0
 14 13  1  0
 15 16  1  6
 17 18  1  6
 17 15  1  0
 18 11  1  0
 19 17  1  0
 20 19  1  0
 21 19  2  0
M  END
$$$$
