PAI.pdb
     RDKit          3D

 21 21  0  0  1  0  0  0  0  0999 V2000
   16.3580  -11.4833  -16.9754 N   0  0  0  0  0  0  0  0  0  0  0  0
   15.7542  -12.7766  -17.3080 C   0  0  0  0  0  0  0  0  0  0  0  0
   16.1901  -12.9068  -18.7709 C   0  0  0  0  0  0  0  0  0  0  0  0
   17.5556  -12.2391  -18.8003 C   0  0  0  0  0  0  0  0  0  0  0  0
   17.7154  -11.6709  -17.4359 C   0  0  1  0  0  0  0  0  0  0  0  0
   18.4821  -10.4204  -17.3743 C   0  0  0  0  0  0  0  0  0  0  0  0
   19.7383  -10.4918  -17.4008 O   0  0  0  0  0  0  0  0  0  0  0  0
   17.7765   -6.7645  -17.5970 C   0  0  0  0  0  0  0  0  0  0  0  0
   18.6942   -7.9030  -17.2841 C   0  0  2  0  0  0  0  0  0  0  0  0
   17.9195   -9.1277  -17.2868 N   0  0  0  0  0  0  0  0  0  0  0  0
   19.4487   -7.7184  -16.0275 C   0  0  0  0  0  0  0  0  0  0  0  0
   18.8651   -7.9546  -14.9451 O   0  0  0  0  0  0  0  0  0  0  0  0
   23.4537  -10.4468  -14.6521 C   0  0  0  0  0  0  0  0  0  0  0  0
   22.2869   -9.4960  -14.7463 C   0  0  0  0  0  0  0  0  0  0  0  0
   22.7551   -8.0360  -14.6635 C   0  0  2  0  0  0  0  0  0  0  0  0
   23.3245   -7.8901  -13.2657 C   0  0  0  0  0  0  0  0  0  0  0  0
   21.5533   -7.1478  -14.7492 C   0  0  2  0  0  0  0  0  0  0  0  0
   20.7960   -7.2896  -15.9653 N   0  0  0  0  0  0  0  0  0  0  0  0
   21.9817   -5.7433  -14.5205 C   0  0  0  0  0  0  0  0  0  0  0  0
   21.9637   -4.7656  -15.4949 O   0  0  0  0  0  0  0  0  0  0  0  0
   22.3828   -5.4320  -13.3724 O   0  0  0  0  0  0  0  0  0  0  0  0
  1  5  1  0
  2  1  1  0
  3  2  1  0
  3  4  1  0
  4  5  1  0
  5  6  1  6
  6 10  1  0
  7  6  2  0
  9  8  1  1
 10  9  1  0
 11 12  2  0
 11  9  1  0
 14 15  1  0
 14 13  1  0
 15 16  1  1
 17 18  1  6
 17 15  1  0
 18 11  1  0
 19 17  1  0
 20 19  1  0
 21 19  2  0
M  END
$$$$
