PAI.pdb
     RDKit          3D

 21 21  0  0  1  0  0  0  0  0999 V2000
   19.3338  -14.2208  -19.8846 N   0  0  0  0  0  0  0  0  0  0  0  0
   19.4605  -15.5887  -20.3947 C   0  0  0  0  0  0  0  0  0  0  0  0
   20.6223  -15.4017  -21.3756 C   0  0  0  0  0  0  0  0  0  0  0  0
   21.4873  -14.3426  -20.7111 C   0  0  0  0  0  0  0  0  0  0  0  0
   20.7005  -13.9191  -19.5230 C   0  0  1  0  0  0  0  0  0  0  0  0
   20.8593  -12.5085  -19.1488 C   0  0  0  0  0  0  0  0  0  0  0  0
   21.9954  -12.1174  -18.7744 O   0  0  0  0  0  0  0  0  0  0  0  0
   18.9757   -9.3578  -19.6245 C   0  0  0  0  0  0  0  0  0  0  0  0
   20.0312  -10.1327  -18.9022 C   0  0  2  0  0  0  0  0  0  0  0  0
   19.8297  -11.5417  -19.1745 N   0  0  0  0  0  0  0  0  0  0  0  0
   20.0834   -9.8423  -17.4547 C   0  0  0  0  0  0  0  0  0  0  0  0
   19.2423  -10.3935  -16.7085 O   0  0  0  0  0  0  0  0  0  0  0  0
   23.8601  -11.1647  -14.4989 C   0  0  0  0  0  0  0  0  0  0  0  0
   22.5452  -10.6655  -15.0434 C   0  0  0  0  0  0  0  0  0  0  0  0
   22.3804   -9.1591  -14.7958 C   0  0  2  0  0  0  0  0  0  0  0  0
   22.1984   -9.0303  -13.2960 C   0  0  0  0  0  0  0  0  0  0  0  0
   21.1052   -8.7105  -15.4388 C   0  0  2  0  0  0  0  0  0  0  0  0
   21.0270   -8.9770  -16.8514 N   0  0  0  0  0  0  0  0  0  0  0  0
   20.8972   -7.2715  -15.1313 C   0  0  0  0  0  0  0  0  0  0  0  0
   21.2639   -6.2438  -15.9768 O   0  0  0  0  0  0  0  0  0  0  0  0
   20.3561   -6.9778  -14.0373 O   0  0  0  0  0  0  0  0  0  0  0  0
  1  5  1  0
  2  1  1  0
  3  2  1  0
  3  4  1  0
  4  5  1  0
  5  6  1  6
  6 10  1  0
  7  6  2  0
  9  8  1  1
 10  9  1  0
 11 12  2  0
 11  9  1  0
 14 15  1  0
 14 13  1  0
 15 16  1  1
 17 18  1  6
 17 15  1  0
 18 11  1  0
 19 17  1  0
 20 19  1  0
 21 19  2  0
M  END
$$$$
