PAI.pdb
     RDKit          3D

 21 21  0  0  1  0  0  0  0  0999 V2000
   26.7773  -18.0492  -14.9867 N   0  0  0  0  0  0  0  0  0  0  0  0
   27.6894  -18.2014  -16.1236 C   0  0  0  0  0  0  0  0  0  0  0  0
   29.0239  -18.3240  -15.3812 C   0  0  0  0  0  0  0  0  0  0  0  0
   28.6574  -19.0574  -14.1010 C   0  0  0  0  0  0  0  0  0  0  0  0
   27.1748  -19.1566  -14.1468 C   0  0  1  0  0  0  0  0  0  0  0  0
   26.5122  -19.1039  -12.8378 C   0  0  0  0  0  0  0  0  0  0  0  0
   26.3228  -17.9759  -12.3128 O   0  0  0  0  0  0  0  0  0  0  0  0
   24.1028  -20.8632  -10.9050 C   0  0  0  0  0  0  0  0  0  0  0  0
   25.4158  -20.1529  -10.8159 C   0  0  2  0  0  0  0  0  0  0  0  0
   26.0642  -20.2284  -12.1097 N   0  0  0  0  0  0  0  0  0  0  0  0
   26.2785  -20.6518   -9.7253 C   0  0  0  0  0  0  0  0  0  0  0  0
   26.9886  -21.6597   -9.9447 O   0  0  0  0  0  0  0  0  0  0  0  0
   29.7145  -19.3416   -4.8468 C   0  0  0  0  0  0  0  0  0  0  0  0
   28.7746  -20.2933   -5.5436 C   0  0  0  0  0  0  0  0  0  0  0  0
   28.0704  -19.6096   -6.7244 C   0  0  2  0  0  0  0  0  0  0  0  0
   27.2328  -18.5137   -6.0945 C   0  0  0  0  0  0  0  0  0  0  0  0
   27.1254  -20.5908   -7.3446 C   0  0  2  0  0  0  0  0  0  0  0  0
   26.3563  -20.0625   -8.4410 N   0  0  0  0  0  0  0  0  0  0  0  0
   26.2587  -21.1569   -6.2782 C   0  0  0  0  0  0  0  0  0  0  0  0
   24.9200  -20.8530   -6.1335 O   0  0  0  0  0  0  0  0  0  0  0  0
   26.7787  -21.9578   -5.4635 O   0  0  0  0  0  0  0  0  0  0  0  0
  1  5  1  0
  2  1  1  0
  3  2  1  0
  3  4  1  0
  4  5  1  0
  5  6  1  1
  6 10  1  0
  7  6  2  0
  9  8  1  6
 10  9  1  0
 11 12  2  0
 11  9  1  0
 14 15  1  0
 14 13  1  0
 15 16  1  1
 17 18  1  6
 17 15  1  0
 18 11  1  0
 19 17  1  0
 20 19  1  0
 21 19  2  0
M  END
$$$$
