RNA.pdb
     RDKit          3D

 25 24  0  0  1  0  0  0  0  0999 V2000
   28.7012  -26.7428  -16.1838 N   0  0  0  0  0  0  0  0  0  0  0  0
   28.6273  -25.3207  -16.3972 C   0  0  0  0  0  0  0  0  0  0  0  0
   29.7146  -24.6465  -16.5209 N   0  0  0  0  0  0  0  0  0  0  0  0
   27.3617  -24.6791  -16.4727 N   0  0  0  0  0  0  0  0  0  0  0  0
   27.3313  -23.2186  -16.6009 C   0  0  0  0  0  0  0  0  0  0  0  0
   26.8625  -22.6042  -15.3190 C   0  0  0  0  0  0  0  0  0  0  0  0
   25.4205  -22.7754  -14.9825 C   0  0  0  0  0  0  0  0  0  0  0  0
   24.5177  -21.7259  -15.5442 C   0  0  2  0  0  0  0  0  0  0  0  0
   24.9642  -20.3888  -15.3739 N   0  0  0  0  0  0  0  0  0  0  0  0
   23.1168  -21.8868  -14.9685 C   0  0  0  0  0  0  0  0  0  0  0  0
   22.8611  -22.7713  -14.1304 O   0  0  0  0  0  0  0  0  0  0  0  0
   30.6436  -25.1100  -16.4842 N   0  0  0  0  0  0  0  0  0  0  0  0
   21.6483  -21.6677  -12.1639 C   0  0  0  0  0  0  0  0  0  0  0  0
   22.0318  -20.3098  -12.1909 O   0  0  0  0  0  0  0  0  0  0  0  0
   22.4951  -19.8068  -11.1421 C   0  0  0  0  0  0  0  0  0  0  0  0
   21.8830  -19.5334  -13.4141 C   0  0  2  0  0  0  0  0  0  0  0  0
   21.2191  -20.2348  -14.5442 N   0  0  0  0  0  0  0  0  0  0  0  0
   22.0845  -21.0188  -15.3861 C   0  0  0  0  0  0  0  0  0  0  0  0
   20.2257  -19.4261  -15.2948 O   0  0  0  0  0  0  0  0  0  0  0  0
   19.4294  -18.6925  -14.6715 C   0  0  0  0  0  0  0  0  0  0  0  0
   19.3102  -18.6073  -18.8722 C   0  0  2  0  0  0  0  0  0  0  0  0
   19.1498  -18.6703  -17.3973 N   0  0  0  0  0  0  0  0  0  0  0  0
   20.1454  -19.4568  -16.7093 C   0  0  0  0  0  0  0  0  0  0  0  0
   17.7621  -19.2370  -17.0271 O   0  0  0  0  0  0  0  0  0  0  0  0
   16.6707  -18.3996  -17.1382 O   0  0  0  0  0  0  0  0  0  0  0  0
  2  1  1  0
  3  2  2  0
  4  2  1  0
  5  4  1  0
  6  5  1  0
  7  6  1  0
  8 10  1  0
  8  9  1  1
  8  7  1  0
 10 17  1  0
 11 10  2  0
 13 12  1  0
 14 13  2  0
 15 13  1  0
 16 15  1  1
 17 16  1  0
 18 16  1  0
 19 18  2  0
 21 20  1  1
 21 23  1  0
 21 22  1  0
 22 18  1  0
 23 24  1  0
 25 23  2  0
M  END
$$$$
