RNA.pdb
     RDKit          3D

 25 24  0  0  1  0  0  0  0  0999 V2000
   20.7536  -22.6964   -7.3450 N   0  0  0  0  0  0  0  0  0  0  0  0
   19.9869  -22.4803   -8.5446 C   0  0  0  0  0  0  0  0  0  0  0  0
   18.7475  -22.1538   -8.4478 N   0  0  0  0  0  0  0  0  0  0  0  0
   20.6033  -22.6249   -9.8167 N   0  0  0  0  0  0  0  0  0  0  0  0
   22.0290  -22.3039   -9.9368 C   0  0  0  0  0  0  0  0  0  0  0  0
   22.2542  -20.8581   -9.6214 C   0  0  0  0  0  0  0  0  0  0  0  0
   23.2725  -20.1443  -10.4433 C   0  0  0  0  0  0  0  0  0  0  0  0
   24.4600  -20.9676  -10.8225 C   0  0  2  0  0  0  0  0  0  0  0  0
   25.4248  -21.1472   -9.7962 N   0  0  0  0  0  0  0  0  0  0  0  0
   25.1200  -20.3822  -12.0641 C   0  0  0  0  0  0  0  0  0  0  0  0
   25.8025  -19.3427  -12.0028 O   0  0  0  0  0  0  0  0  0  0  0  0
   18.1655  -21.9901   -9.2926 N   0  0  0  0  0  0  0  0  0  0  0  0
   27.8886  -20.5554  -13.3726 C   0  0  0  0  0  0  0  0  0  0  0  0
   27.7014  -21.3403  -14.5305 O   0  0  0  0  0  0  0  0  0  0  0  0
   28.6331  -22.0967  -14.8873 C   0  0  0  0  0  0  0  0  0  0  0  0
   26.4526  -21.2563  -15.2753 C   0  0  2  0  0  0  0  0  0  0  0  0
   25.3502  -20.5211  -14.6014 N   0  0  0  0  0  0  0  0  0  0  0  0
   24.9617  -21.0262  -13.3105 C   0  0  0  0  0  0  0  0  0  0  0  0
   24.2035  -20.1620  -15.4734 O   0  0  0  0  0  0  0  0  0  0  0  0
   23.1505  -20.8319  -15.4156 C   0  0  0  0  0  0  0  0  0  0  0  0
   22.0357  -19.7778  -17.1903 C   0  0  1  0  0  0  0  0  0  0  0  0
   23.1272  -18.7715  -17.2220 N   0  0  0  0  0  0  0  0  0  0  0  0
   24.2603  -19.0751  -16.3810 C   0  0  0  0  0  0  0  0  0  0  0  0
   22.5945  -17.3815  -16.8122 O   0  0  0  0  0  0  0  0  0  0  0  0
   22.1098  -16.5557  -17.8062 O   0  0  0  0  0  0  0  0  0  0  0  0
  2  1  1  0
  3  2  2  0
  4  2  1  0
  5  4  1  0
  6  5  1  0
  7  6  1  0
  8 10  1  0
  8  9  1  1
  8  7  1  0
 10 17  1  0
 11 10  2  0
 13 12  1  0
 14 13  2  0
 15 13  1  0
 16 15  1  1
 17 16  1  0
 18 16  1  0
 19 18  2  0
 21 20  1  6
 21 23  1  0
 21 22  1  0
 22 18  1  0
 23 24  1  0
 25 23  2  0
M  END
$$$$
