RNA.pdb
     RDKit          3D

 25 24  0  0  1  0  0  0  0  0999 V2000
   23.3755  -17.2230  -20.3999 N   0  0  0  0  0  0  0  0  0  0  0  0
   24.6981  -17.1995  -20.9687 C   0  0  0  0  0  0  0  0  0  0  0  0
   24.8449  -16.8803  -22.2050 N   0  0  0  0  0  0  0  0  0  0  0  0
   25.8230  -17.5233  -20.1632 N   0  0  0  0  0  0  0  0  0  0  0  0
   25.5991  -18.2998  -18.9396 C   0  0  0  0  0  0  0  0  0  0  0  0
   25.1313  -17.3966  -17.8413 C   0  0  0  0  0  0  0  0  0  0  0  0
   24.7834  -18.0441  -16.5445 C   0  0  0  0  0  0  0  0  0  0  0  0
   25.7295  -19.1136  -16.1051 C   0  0  2  0  0  0  0  0  0  0  0  0
   26.2635  -19.9154  -17.1483 N   0  0  0  0  0  0  0  0  0  0  0  0
   25.0628  -19.9950  -15.0570 C   0  0  0  0  0  0  0  0  0  0  0  0
   24.2824  -20.9085  -15.3838 O   0  0  0  0  0  0  0  0  0  0  0  0
   25.7844  -16.8556  -22.6477 N   0  0  0  0  0  0  0  0  0  0  0  0
   25.0462  -20.7542   -8.8911 C   0  0  0  0  0  0  0  0  0  0  0  0
   24.9552  -21.2334  -10.2155 O   0  0  0  0  0  0  0  0  0  0  0  0
   24.3844  -22.3309  -10.4077 C   0  0  0  0  0  0  0  0  0  0  0  0
   25.5176  -20.4579  -11.3125 C   0  0  2  0  0  0  0  0  0  0  0  0
   24.7248  -20.4540  -12.5700 N   0  0  0  0  0  0  0  0  0  0  0  0
   25.3320  -19.7801  -13.6878 C   0  0  0  0  0  0  0  0  0  0  0  0
   23.2793  -20.1575  -12.4056 O   0  0  0  0  0  0  0  0  0  0  0  0
   22.8986  -18.9707  -12.3194 C   0  0  0  0  0  0  0  0  0  0  0  0
   20.2884  -20.3257  -13.4812 C   0  0  2  0  0  0  0  0  0  0  0  0
   20.9038  -20.8482  -12.2349 N   0  0  0  0  0  0  0  0  0  0  0  0
   22.3037  -21.1832  -12.3407 C   0  0  0  0  0  0  0  0  0  0  0  0
   20.1532  -22.1058  -11.7461 O   0  0  0  0  0  0  0  0  0  0  0  0
   18.8541  -21.9535  -11.3056 O   0  0  0  0  0  0  0  0  0  0  0  0
  2  1  1  0
  3  2  2  0
  4  2  1  0
  5  4  1  0
  6  5  1  0
  7  6  1  0
  8 10  1  0
  8  9  1  6
  8  7  1  0
 10 17  1  0
 11 10  2  0
 13 12  1  0
 14 13  2  0
 15 13  1  0
 16 15  1  6
 17 16  1  0
 18 16  1  0
 19 18  2  0
 21 20  1  1
 21 23  1  0
 21 22  1  0
 22 18  1  0
 23 24  1  0
 25 23  2  0
M  END
$$$$
