RNA.pdb
     RDKit          3D

 25 24  0  0  1  0  0  0  0  0999 V2000
   21.3931  -25.0859  -13.5232 N   0  0  0  0  0  0  0  0  0  0  0  0
   20.2310  -24.4142  -14.0444 C   0  0  0  0  0  0  0  0  0  0  0  0
   19.9087  -24.5814  -15.2774 N   0  0  0  0  0  0  0  0  0  0  0  0
   19.4528  -23.5809  -13.1964 N   0  0  0  0  0  0  0  0  0  0  0  0
   19.5449  -23.7870  -11.7476 C   0  0  0  0  0  0  0  0  0  0  0  0
   18.1901  -24.0924  -11.1891 C   0  0  0  0  0  0  0  0  0  0  0  0
   18.0986  -24.2660   -9.7115 C   0  0  0  0  0  0  0  0  0  0  0  0
   18.5879  -25.5833   -9.2044 C   0  0  2  0  0  0  0  0  0  0  0  0
   18.5435  -26.6478  -10.1432 N   0  0  0  0  0  0  0  0  0  0  0  0
   17.8262  -25.9669   -7.9424 C   0  0  0  0  0  0  0  0  0  0  0  0
   16.7413  -26.5747   -8.0031 O   0  0  0  0  0  0  0  0  0  0  0  0
   19.0745  -24.1152  -15.6847 N   0  0  0  0  0  0  0  0  0  0  0  0
   17.7817  -27.8075   -2.6625 C   0  0  0  0  0  0  0  0  0  0  0  0
   18.0123  -26.4570   -3.0014 O   0  0  0  0  0  0  0  0  0  0  0  0
   17.6522  -25.5752   -2.1888 C   0  0  0  0  0  0  0  0  0  0  0  0
   18.6512  -26.1208   -4.2663 C   0  0  1  0  0  0  0  0  0  0  0  0
   17.7289  -25.8336   -5.3962 N   0  0  0  0  0  0  0  0  0  0  0  0
   18.3553  -25.6329   -6.6767 C   0  0  0  0  0  0  0  0  0  0  0  0
   16.6484  -24.8596   -5.0992 O   0  0  0  0  0  0  0  0  0  0  0  0
   16.8567  -23.6384   -5.2610 C   0  0  0  0  0  0  0  0  0  0  0  0
   14.7017  -23.3610   -3.2156 C   0  0  1  0  0  0  0  0  0  0  0  0
   14.3629  -24.2853   -4.3274 N   0  0  0  0  0  0  0  0  0  0  0  0
   15.3747  -25.2686   -4.6319 C   0  0  0  0  0  0  0  0  0  0  0  0
   14.0702  -23.4934   -5.6201 O   0  0  0  0  0  0  0  0  0  0  0  0
   13.0397  -22.5757   -5.5972 O   0  0  0  0  0  0  0  0  0  0  0  0
  2  1  1  0
  3  2  2  0
  4  2  1  0
  5  4  1  0
  6  5  1  0
  7  6  1  0
  8 10  1  0
  8  9  1  6
  8  7  1  0
 10 17  1  0
 11 10  2  0
 13 12  1  0
 14 13  2  0
 15 13  1  0
 16 15  1  6
 17 16  1  0
 18 16  1  0
 19 18  2  0
 21 20  1  1
 21 23  1  0
 21 22  1  0
 22 18  1  0
 23 24  1  0
 25 23  2  0
M  END
$$$$
