RNA.pdb
     RDKit          3D

 25 24  0  0  1  0  0  0  0  0999 V2000
   17.2592  -13.2566  -13.8703 N   0  0  0  0  0  0  0  0  0  0  0  0
   15.8263  -13.3653  -13.9625 C   0  0  0  0  0  0  0  0  0  0  0  0
   15.3073  -14.4364  -14.4476 N   0  0  0  0  0  0  0  0  0  0  0  0
   15.0032  -12.2966  -13.5158 N   0  0  0  0  0  0  0  0  0  0  0  0
   15.6472  -11.1496  -12.8677 C   0  0  0  0  0  0  0  0  0  0  0  0
   15.4140  -11.2022  -11.3900 C   0  0  0  0  0  0  0  0  0  0  0  0
   15.8972  -10.0381  -10.5942 C   0  0  0  0  0  0  0  0  0  0  0  0
   14.8790   -9.4390   -9.6797 C   0  0  2  0  0  0  0  0  0  0  0  0
   13.5678   -9.9701   -9.8026 N   0  0  0  0  0  0  0  0  0  0  0  0
   14.8496   -7.9267   -9.8583 C   0  0  0  0  0  0  0  0  0  0  0  0
   13.9696   -7.3751  -10.5450 O   0  0  0  0  0  0  0  0  0  0  0  0
   14.2779  -14.5446  -14.5359 N   0  0  0  0  0  0  0  0  0  0  0  0
   17.8254   -3.0467   -8.0192 C   0  0  0  0  0  0  0  0  0  0  0  0
   16.5288   -3.5309   -8.2951 O   0  0  0  0  0  0  0  0  0  0  0  0
   15.6624   -2.7121   -8.6778 C   0  0  0  0  0  0  0  0  0  0  0  0
   16.2280   -4.9465   -8.1313 C   0  0  2  0  0  0  0  0  0  0  0  0
   16.0240   -5.7105   -9.3900 N   0  0  0  0  0  0  0  0  0  0  0  0
   15.8333   -7.1289   -9.2345 C   0  0  0  0  0  0  0  0  0  0  0  0
   16.9347   -5.3477  -10.5051 O   0  0  0  0  0  0  0  0  0  0  0  0
   18.1485   -5.6336  -10.4285 C   0  0  0  0  0  0  0  0  0  0  0  0
   16.8705   -4.4005  -14.0874 C   0  0  2  0  0  0  0  0  0  0  0  0
   17.4019   -4.3018  -12.7043 N   0  0  0  0  0  0  0  0  0  0  0  0
   16.4729   -4.6798  -11.6664 C   0  0  0  0  0  0  0  0  0  0  0  0
   17.8798   -2.8636  -12.4091 O   0  0  0  0  0  0  0  0  0  0  0  0
   18.9427   -2.3722  -13.1396 O   0  0  0  0  0  0  0  0  0  0  0  0
  2  1  1  0
  3  2  2  0
  4  2  1  0
  5  4  1  0
  6  5  1  0
  7  6  1  0
  8 10  1  0
  8  9  1  6
  8  7  1  0
 10 17  1  0
 11 10  2  0
 13 12  1  0
 14 13  2  0
 15 13  1  0
 16 15  1  1
 17 16  1  0
 18 16  1  0
 19 18  2  0
 21 20  1  6
 21 23  1  0
 21 22  1  0
 22 18  1  0
 23 24  1  0
 25 23  2  0
M  END
$$$$
