RNA.pdb
     RDKit          3D

 25 24  0  0  1  0  0  0  0  0999 V2000
   44.0962  -10.8060   -6.3723 N   0  0  0  0  0  0  0  0  0  0  0  0
   44.7656  -11.7800   -7.1948 C   0  0  0  0  0  0  0  0  0  0  0  0
   45.7029  -12.4959   -6.6841 N   0  0  0  0  0  0  0  0  0  0  0  0
   44.3845  -11.9435   -8.5539 N   0  0  0  0  0  0  0  0  0  0  0  0
   43.4499  -10.9736   -9.1335 C   0  0  0  0  0  0  0  0  0  0  0  0
   42.0836  -11.1747   -8.5561 C   0  0  0  0  0  0  0  0  0  0  0  0
   40.9935  -10.3165   -9.1012 C   0  0  0  0  0  0  0  0  0  0  0  0
   41.1626   -8.8538   -8.8484 C   0  0  2  0  0  0  0  0  0  0  0  0
   41.4552   -8.5016   -7.5042 N   0  0  0  0  0  0  0  0  0  0  0  0
   39.9299   -8.0999   -9.3300 C   0  0  0  0  0  0  0  0  0  0  0  0
   39.3879   -8.3763  -10.4162 O   0  0  0  0  0  0  0  0  0  0  0  0
   46.2062  -13.2080   -7.2490 N   0  0  0  0  0  0  0  0  0  0  0  0
   36.8424   -8.1669   -7.4565 C   0  0  0  0  0  0  0  0  0  0  0  0
   36.6895   -6.8230   -7.0535 O   0  0  0  0  0  0  0  0  0  0  0  0
   35.9010   -6.5753   -6.1130 C   0  0  0  0  0  0  0  0  0  0  0  0
   37.4362   -5.7695   -7.7270 C   0  0  2  0  0  0  0  0  0  0  0  0
   38.2799   -6.2089   -8.8694 N   0  0  0  0  0  0  0  0  0  0  0  0
   39.3845   -7.0691   -8.5341 C   0  0  0  0  0  0  0  0  0  0  0  0
   38.6244   -5.1460   -9.8471 O   0  0  0  0  0  0  0  0  0  0  0  0
   39.5047   -4.3066   -9.5618 C   0  0  0  0  0  0  0  0  0  0  0  0
   37.6604   -4.0326  -13.3352 C   0  0  2  0  0  0  0  0  0  0  0  0
   38.2885   -3.9482  -11.9922 N   0  0  0  0  0  0  0  0  0  0  0  0
   37.9829   -5.0462  -11.1067 C   0  0  0  0  0  0  0  0  0  0  0  0
   37.8760   -2.6406  -11.2825 O   0  0  0  0  0  0  0  0  0  0  0  0
   38.7482   -1.5723  -11.3365 O   0  0  0  0  0  0  0  0  0  0  0  0
  2  1  1  0
  3  2  2  0
  4  2  1  0
  5  4  1  0
  6  5  1  0
  7  6  1  0
  8 10  1  0
  8  9  1  1
  8  7  1  0
 10 17  1  0
 11 10  2  0
 13 12  1  0
 14 13  2  0
 15 13  1  0
 16 15  1  6
 17 16  1  0
 18 16  1  0
 19 18  2  0
 21 20  1  6
 21 23  1  0
 21 22  1  0
 22 18  1  0
 23 24  1  0
 25 23  2  0
M  END
$$$$
