RNA.pdb
     RDKit          3D

 25 24  0  0  1  0  0  0  0  0999 V2000
   13.9461  -13.5828  -14.3432 N   0  0  0  0  0  0  0  0  0  0  0  0
   13.4797  -13.1502  -15.6350 C   0  0  0  0  0  0  0  0  0  0  0  0
   12.2346  -13.2763  -15.9281 N   0  0  0  0  0  0  0  0  0  0  0  0
   14.3925  -12.5876  -16.5674 N   0  0  0  0  0  0  0  0  0  0  0  0
   15.4152  -11.6642  -16.0657 C   0  0  0  0  0  0  0  0  0  0  0  0
   16.7076  -12.3934  -15.8687 C   0  0  0  0  0  0  0  0  0  0  0  0
   17.8539  -11.5953  -15.3482 C   0  0  0  0  0  0  0  0  0  0  0  0
   18.6530  -10.8908  -16.3955 C   0  0  2  0  0  0  0  0  0  0  0  0
   19.2484  -11.7331  -17.3714 N   0  0  0  0  0  0  0  0  0  0  0  0
   19.7158  -10.0208  -15.7371 C   0  0  0  0  0  0  0  0  0  0  0  0
   19.4468   -9.3074  -14.7529 O   0  0  0  0  0  0  0  0  0  0  0  0
   11.8727  -13.0175  -16.8669 N   0  0  0  0  0  0  0  0  0  0  0  0
   25.4550   -9.5952  -14.5500 C   0  0  0  0  0  0  0  0  0  0  0  0
   24.6221   -9.0432  -15.5466 O   0  0  0  0  0  0  0  0  0  0  0  0
   24.8840   -7.8919  -15.9630 C   0  0  0  0  0  0  0  0  0  0  0  0
   23.4942   -9.8076  -16.0610 C   0  0  1  0  0  0  0  0  0  0  0  0
   22.1490   -9.2531  -15.7564 N   0  0  0  0  0  0  0  0  0  0  0  0
   21.0332  -10.0203  -16.2450 C   0  0  0  0  0  0  0  0  0  0  0  0
   22.0060   -7.7899  -15.9635 O   0  0  0  0  0  0  0  0  0  0  0  0
   22.0391   -7.3245  -17.1225 C   0  0  0  0  0  0  0  0  0  0  0  0
   20.1737   -5.0638  -14.7924 C   0  0  2  0  0  0  0  0  0  0  0  0
   21.5522   -5.4974  -15.1344 N   0  0  0  0  0  0  0  0  0  0  0  0
   21.8327   -6.8906  -14.8822 C   0  0  0  0  0  0  0  0  0  0  0  0
   22.5917   -4.6589  -14.3596 O   0  0  0  0  0  0  0  0  0  0  0  0
   22.6409   -3.3017  -14.6053 O   0  0  0  0  0  0  0  0  0  0  0  0
  2  1  1  0
  3  2  2  0
  4  2  1  0
  5  4  1  0
  6  5  1  0
  7  6  1  0
  8 10  1  0
  8  9  1  6
  8  7  1  0
 10 17  1  0
 11 10  2  0
 13 12  1  0
 14 13  2  0
 15 13  1  0
 16 15  1  1
 17 16  1  0
 18 16  1  0
 19 18  2  0
 21 20  1  6
 21 23  1  0
 21 22  1  0
 22 18  1  0
 23 24  1  0
 25 23  2  0
M  END
$$$$
