RNA.pdb
     RDKit          3D

 25 24  0  0  1  0  0  0  0  0999 V2000
   25.6143  -33.2299  -13.0843 N   0  0  0  0  0  0  0  0  0  0  0  0
   24.8685  -34.4082  -13.4430 C   0  0  0  0  0  0  0  0  0  0  0  0
   24.6090  -34.6348  -14.6813 N   0  0  0  0  0  0  0  0  0  0  0  0
   24.4317  -35.3069  -12.4326 N   0  0  0  0  0  0  0  0  0  0  0  0
   24.0231  -34.7502  -11.1391 C   0  0  0  0  0  0  0  0  0  0  0  0
   25.1316  -33.9224  -10.5674 C   0  0  0  0  0  0  0  0  0  0  0  0
   25.7082  -34.3791   -9.2709 C   0  0  0  0  0  0  0  0  0  0  0  0
   25.2480  -33.6101   -8.0756 C   0  0  2  0  0  0  0  0  0  0  0  0
   25.1654  -32.2040   -8.2554 N   0  0  0  0  0  0  0  0  0  0  0  0
   26.1345  -33.9333   -6.8800 C   0  0  0  0  0  0  0  0  0  0  0  0
   27.3461  -33.6466   -6.8789 O   0  0  0  0  0  0  0  0  0  0  0  0
   24.0560  -35.4644  -14.9733 N   0  0  0  0  0  0  0  0  0  0  0  0
   24.3030  -32.2553   -3.1012 C   0  0  0  0  0  0  0  0  0  0  0  0
   25.5455  -32.9237   -3.1349 O   0  0  0  0  0  0  0  0  0  0  0  0
   26.5878  -32.2365   -3.0401 C   0  0  0  0  0  0  0  0  0  0  0  0
   25.5913  -34.3724   -3.2780 C   0  0  2  0  0  0  0  0  0  0  0  0
   26.2498  -34.8761   -4.5119 N   0  0  0  0  0  0  0  0  0  0  0  0
   25.5787  -34.5670   -5.7474 C   0  0  0  0  0  0  0  0  0  0  0  0
   26.7522  -36.2712   -4.4365 O   0  0  0  0  0  0  0  0  0  0  0  0
   25.9661  -37.2219   -4.6340 C   0  0  0  0  0  0  0  0  0  0  0  0
   29.7123  -38.2224   -5.0283 C   0  0  2  0  0  0  0  0  0  0  0  0
   28.5636  -37.9370   -4.1315 N   0  0  0  0  0  0  0  0  0  0  0  0
   28.1066  -36.5680   -4.1437 C   0  0  0  0  0  0  0  0  0  0  0  0
   28.9106  -38.3057   -2.6729 O   0  0  0  0  0  0  0  0  0  0  0  0
   29.2755  -39.6094   -2.4044 O   0  0  0  0  0  0  0  0  0  0  0  0
  2  1  1  0
  3  2  2  0
  4  2  1  0
  5  4  1  0
  6  5  1  0
  7  6  1  0
  8 10  1  0
  8  9  1  6
  8  7  1  0
 10 17  1  0
 11 10  2  0
 13 12  1  0
 14 13  2  0
 15 13  1  0
 16 15  1  6
 17 16  1  0
 18 16  1  0
 19 18  2  0
 21 20  1  6
 21 23  1  0
 21 22  1  0
 22 18  1  0
 23 24  1  0
 25 23  2  0
M  END
$$$$
