RNA.pdb
     RDKit          3D

 25 24  0  0  1  0  0  0  0  0999 V2000
   24.8888  -19.4203   -8.7986 N   0  0  0  0  0  0  0  0  0  0  0  0
   24.7812  -20.8319   -8.5351 C   0  0  0  0  0  0  0  0  0  0  0  0
   24.1547  -21.2292   -7.4856 N   0  0  0  0  0  0  0  0  0  0  0  0
   25.3611  -21.7678   -9.4334 N   0  0  0  0  0  0  0  0  0  0  0  0
   25.9803  -21.2585  -10.6611 C   0  0  0  0  0  0  0  0  0  0  0  0
   25.0086  -21.3465  -11.7964 C   0  0  0  0  0  0  0  0  0  0  0  0
   24.5246  -20.0563  -12.3648 C   0  0  0  0  0  0  0  0  0  0  0  0
   23.4929  -20.1923  -13.4368 C   0  0  2  0  0  0  0  0  0  0  0  0
   22.5093  -21.1904  -13.2072 N   0  0  0  0  0  0  0  0  0  0  0  0
   24.1710  -20.4257  -14.7805 C   0  0  0  0  0  0  0  0  0  0  0  0
   24.4120  -21.5764  -15.1905 O   0  0  0  0  0  0  0  0  0  0  0  0
   24.1046  -22.2366   -7.2365 N   0  0  0  0  0  0  0  0  0  0  0  0
   25.9574  -19.4857  -19.5753 C   0  0  0  0  0  0  0  0  0  0  0  0
   25.2943  -18.3154  -19.1480 O   0  0  0  0  0  0  0  0  0  0  0  0
   25.1376  -17.3902  -19.9768 C   0  0  0  0  0  0  0  0  0  0  0  0
   24.8152  -18.2073  -17.7769 C   0  0  2  0  0  0  0  0  0  0  0  0
   25.1260  -19.3623  -16.8941 N   0  0  0  0  0  0  0  0  0  0  0  0
   24.5333  -19.3219  -15.5828 C   0  0  0  0  0  0  0  0  0  0  0  0
   26.5459  -19.7961  -16.8961 O   0  0  0  0  0  0  0  0  0  0  0  0
   27.4362  -18.9961  -16.5381 C   0  0  0  0  0  0  0  0  0  0  0  0
   28.4917  -22.8480  -16.5131 C   0  0  2  0  0  0  0  0  0  0  0  0
   28.3064  -21.5228  -17.1570 N   0  0  0  0  0  0  0  0  0  0  0  0
   26.9336  -21.0993  -17.2954 C   0  0  0  0  0  0  0  0  0  0  0  0
   28.9486  -21.5082  -18.5610 O   0  0  0  0  0  0  0  0  0  0  0  0
   28.1090  -21.4838  -19.6562 O   0  0  0  0  0  0  0  0  0  0  0  0
  2  1  1  0
  3  2  2  0
  4  2  1  0
  5  4  1  0
  6  5  1  0
  7  6  1  0
  8 10  1  0
  8  9  1  1
  8  7  1  0
 10 17  1  0
 11 10  2  0
 13 12  1  0
 14 13  2  0
 15 13  1  0
 16 15  1  6
 17 16  1  0
 18 16  1  0
 19 18  2  0
 21 20  1  1
 21 23  1  0
 21 22  1  0
 22 18  1  0
 23 24  1  0
 25 23  2  0
M  END
$$$$
