LTA.pdb
     RDKit          3D

 21 20  0  0  1  0  0  0  0  0999 V2000
    6.0478  -11.1554   26.1498 C   0  0  0  0  0  0  0  0  0  0  0  0
    6.6302  -12.5578   26.0443 C   0  0  2  0  0  0  0  0  0  0  0  0
    7.3826  -12.6219   24.7372 C   0  0  0  0  0  0  0  0  0  0  0  0
    5.5541  -13.6072   26.1634 C   0  0  0  0  0  0  0  0  0  0  0  0
    5.7419  -14.6906   25.1254 C   0  0  2  0  0  0  0  0  0  0  0  0
    4.6092  -15.5617   25.0714 N   0  0  0  0  0  0  0  0  0  0  0  0
    7.0153  -15.4005   25.3760 C   0  0  0  0  0  0  0  0  0  0  0  0
    7.1691  -15.9533   26.4955 O   0  0  0  0  0  0  0  0  0  0  0  0
    9.1589  -17.2766   22.3747 C   0  0  0  0  0  0  0  0  0  0  0  0
   10.0126  -16.5652   23.3735 C   0  0  1  0  0  0  0  0  0  0  0  0
   10.5897  -15.4077   22.8832 O   0  0  0  0  0  0  0  0  0  0  0  0
    9.2427  -16.2988   24.6735 C   0  0  2  0  0  0  0  0  0  0  0  0
    8.0793  -15.5045   24.4447 N   0  0  0  0  0  0  0  0  0  0  0  0
   10.1512  -15.7102   25.6954 C   0  0  0  0  0  0  0  0  0  0  0  0
   10.7884  -14.6483   25.4504 O   0  0  0  0  0  0  0  0  0  0  0  0
   10.6666  -14.6229   28.7461 C   0  0  0  0  0  0  0  0  0  0  0  0
   11.2496  -15.7551   27.9589 C   0  0  2  0  0  0  0  0  0  0  0  0
   10.3454  -16.2996   26.9741 N   0  0  0  0  0  0  0  0  0  0  0  0
   11.8023  -16.8267   28.8445 C   0  0  0  0  0  0  0  0  0  0  0  0
   12.7732  -16.5832   29.8057 O   0  0  0  0  0  0  0  0  0  0  0  0
   11.3911  -18.0094   28.7395 O   0  0  0  0  0  0  0  0  0  0  0  0
  2  1  1  6
  3  2  1  0
  4  2  1  0
  5  7  1  0
  5  4  1  0
  5  6  1  1
  7 13  1  0
  8  7  2  0
 10  9  1  6
 10 11  1  0
 12 10  1  0
 12 13  1  6
 14 15  2  0
 14 12  1  0
 17 16  1  1
 17 19  1  0
 17 18  1  0
 18 14  1  0
 19 20  1  0
 21 19  2  0
M  END
$$$$
