LTA.pdb
     RDKit          3D

 21 20  0  0  1  0  0  0  0  0999 V2000
    6.2794  -11.6581   25.7875 C   0  0  0  0  0  0  0  0  0  0  0  0
    6.7273  -12.5399   26.9447 C   0  0  2  0  0  0  0  0  0  0  0  0
    7.5917  -11.6836   27.8381 C   0  0  0  0  0  0  0  0  0  0  0  0
    7.4286  -13.7789   26.4483 C   0  0  0  0  0  0  0  0  0  0  0  0
    6.5404  -14.5584   25.5049 C   0  0  2  0  0  0  0  0  0  0  0  0
    5.4265  -15.1324   26.1936 N   0  0  0  0  0  0  0  0  0  0  0  0
    7.3517  -15.5542   24.7709 C   0  0  0  0  0  0  0  0  0  0  0  0
    7.5324  -16.6765   25.3097 O   0  0  0  0  0  0  0  0  0  0  0  0
    7.4903  -16.0379   20.7481 C   0  0  0  0  0  0  0  0  0  0  0  0
    8.8588  -16.0665   21.3470 C   0  0  1  0  0  0  0  0  0  0  0  0
    9.6253  -14.9600   21.0285 O   0  0  0  0  0  0  0  0  0  0  0  0
    8.7973  -16.2861   22.8641 C   0  0  2  0  0  0  0  0  0  0  0  0
    7.9427  -15.3368   23.5007 N   0  0  0  0  0  0  0  0  0  0  0  0
   10.1717  -16.2995   23.4359 C   0  0  0  0  0  0  0  0  0  0  0  0
   10.6792  -15.2444   23.9082 O   0  0  0  0  0  0  0  0  0  0  0  0
   12.8350  -18.8448   24.3145 C   0  0  0  0  0  0  0  0  0  0  0  0
   12.3317  -17.4812   23.9555 C   0  0  2  0  0  0  0  0  0  0  0  0
   10.9687  -17.4755   23.4799 N   0  0  0  0  0  0  0  0  0  0  0  0
   13.2460  -16.7802   23.0013 C   0  0  0  0  0  0  0  0  0  0  0  0
   14.4305  -16.1762   23.3990 O   0  0  0  0  0  0  0  0  0  0  0  0
   12.9587  -16.7173   21.7797 O   0  0  0  0  0  0  0  0  0  0  0  0
  2  1  1  6
  3  2  1  0
  4  2  1  0
  5  7  1  0
  5  4  1  0
  5  6  1  1
  7 13  1  0
  8  7  2  0
 10  9  1  1
 10 11  1  0
 12 10  1  0
 12 13  1  1
 14 15  2  0
 14 12  1  0
 17 16  1  6
 17 19  1  0
 17 18  1  0
 18 14  1  0
 19 20  1  0
 21 19  2  0
M  END
$$$$
