LTA.pdb
     RDKit          3D

 21 20  0  0  1  0  0  0  0  0999 V2000
    6.8336  -11.8621   25.1532 C   0  0  0  0  0  0  0  0  0  0  0  0
    6.6169  -12.6344   26.4470 C   0  0  2  0  0  0  0  0  0  0  0  0
    7.1346  -11.7652   27.5673 C   0  0  0  0  0  0  0  0  0  0  0  0
    7.2759  -13.9893   26.3920 C   0  0  0  0  0  0  0  0  0  0  0  0
    6.6582  -14.8445   25.3087 C   0  0  2  0  0  0  0  0  0  0  0  0
    5.3130  -15.2048   25.6337 N   0  0  0  0  0  0  0  0  0  0  0  0
    7.5287  -16.0106   25.0421 C   0  0  0  0  0  0  0  0  0  0  0  0
    7.3790  -17.0319   25.7611 O   0  0  0  0  0  0  0  0  0  0  0  0
    8.8777  -17.1250   21.3643 C   0  0  0  0  0  0  0  0  0  0  0  0
    9.9502  -17.2077   22.4012 C   0  0  1  0  0  0  0  0  0  0  0  0
   10.9313  -16.2428   22.2604 O   0  0  0  0  0  0  0  0  0  0  0  0
    9.3573  -17.2000   23.8161 C   0  0  2  0  0  0  0  0  0  0  0  0
    8.5230  -16.0626   24.0327 N   0  0  0  0  0  0  0  0  0  0  0  0
   10.4433  -17.3197   24.8273 C   0  0  0  0  0  0  0  0  0  0  0  0
   11.1366  -16.3136   25.1447 O   0  0  0  0  0  0  0  0  0  0  0  0
   11.5708  -19.7695   27.4470 C   0  0  0  0  0  0  0  0  0  0  0  0
   11.8044  -18.6734   26.4541 C   0  0  2  0  0  0  0  0  0  0  0  0
   10.7509  -18.5467   25.4754 N   0  0  0  0  0  0  0  0  0  0  0  0
   13.1458  -18.7860   25.8012 C   0  0  0  0  0  0  0  0  0  0  0  0
   13.3070  -18.9177   24.4292 O   0  0  0  0  0  0  0  0  0  0  0  0
   14.1921  -18.7638   26.4966 O   0  0  0  0  0  0  0  0  0  0  0  0
  2  1  1  6
  3  2  1  0
  4  2  1  0
  5  7  1  0
  5  4  1  0
  5  6  1  1
  7 13  1  0
  8  7  2  0
 10  9  1  6
 10 11  1  0
 12 10  1  0
 12 13  1  1
 14 15  2  0
 14 12  1  0
 17 16  1  6
 17 19  1  0
 17 18  1  0
 18 14  1  0
 19 20  1  0
 21 19  2  0
M  END
$$$$
