LTA.pdb
     RDKit          3D

 21 20  0  0  1  0  0  0  0  0999 V2000
    9.7542  -12.7522   19.7996 C   0  0  0  0  0  0  0  0  0  0  0  0
    8.3291  -13.2664   19.6512 C   0  0  2  0  0  0  0  0  0  0  0  0
    7.4329  -12.0544   19.5709 C   0  0  0  0  0  0  0  0  0  0  0  0
    7.9654  -14.2019   20.7763 C   0  0  0  0  0  0  0  0  0  0  0  0
    8.8729  -15.4114   20.7850 C   0  0  2  0  0  0  0  0  0  0  0  0
    8.5244  -16.3312   19.7471 N   0  0  0  0  0  0  0  0  0  0  0  0
    8.8716  -16.0212   22.1328 C   0  0  0  0  0  0  0  0  0  0  0  0
    7.7900  -16.5022   22.5587 O   0  0  0  0  0  0  0  0  0  0  0  0
   10.7686  -18.4483   25.8267 C   0  0  0  0  0  0  0  0  0  0  0  0
   10.7976  -17.9159   24.4310 C   0  0  1  0  0  0  0  0  0  0  0  0
   10.4486  -18.8522   23.4745 O   0  0  0  0  0  0  0  0  0  0  0  0
    9.9498  -16.6437   24.3034 C   0  0  2  0  0  0  0  0  0  0  0  0
   10.0029  -16.1041   22.9833 N   0  0  0  0  0  0  0  0  0  0  0  0
   10.3456  -15.6576   25.3461 C   0  0  0  0  0  0  0  0  0  0  0  0
   11.4990  -15.1444   25.3373 O   0  0  0  0  0  0  0  0  0  0  0  0
    8.7856  -13.3340   27.7710 C   0  0  0  0  0  0  0  0  0  0  0  0
    9.8527  -14.3248   27.4227 C   0  0  2  0  0  0  0  0  0  0  0  0
    9.4650  -15.2500   26.3846 N   0  0  0  0  0  0  0  0  0  0  0  0
   10.3658  -15.0429   28.6306 C   0  0  0  0  0  0  0  0  0  0  0  0
   11.1388  -14.4242   29.6031 O   0  0  0  0  0  0  0  0  0  0  0  0
   10.1037  -16.2597   28.8026 O   0  0  0  0  0  0  0  0  0  0  0  0
  2  1  1  1
  3  2  1  0
  4  2  1  0
  5  7  1  0
  5  4  1  0
  5  6  1  6
  7 13  1  0
  8  7  2  0
 10  9  1  1
 10 11  1  0
 12 10  1  0
 12 13  1  6
 14 15  2  0
 14 12  1  0
 17 16  1  1
 17 19  1  0
 17 18  1  0
 18 14  1  0
 19 20  1  0
 21 19  2  0
M  END
$$$$
