LTA.pdb
     RDKit          3D

 21 20  0  0  1  0  0  0  0  0999 V2000
    9.4119  -13.5389   19.7175 C   0  0  0  0  0  0  0  0  0  0  0  0
    7.9050  -13.5107   19.5040 C   0  0  2  0  0  0  0  0  0  0  0  0
    7.5537  -12.1149   19.0487 C   0  0  0  0  0  0  0  0  0  0  0  0
    7.1681  -13.9333   20.7497 C   0  0  0  0  0  0  0  0  0  0  0  0
    7.5089  -15.3596   21.1185 C   0  0  2  0  0  0  0  0  0  0  0  0
    6.7991  -16.2927   20.2998 N   0  0  0  0  0  0  0  0  0  0  0  0
    7.2858  -15.5630   22.5667 C   0  0  0  0  0  0  0  0  0  0  0  0
    6.1200  -15.3987   23.0101 O   0  0  0  0  0  0  0  0  0  0  0  0
    6.5825  -18.1534   24.4566 C   0  0  0  0  0  0  0  0  0  0  0  0
    7.7924  -17.6475   25.1726 C   0  0  1  0  0  0  0  0  0  0  0  0
    8.9302  -18.3971   24.9339 O   0  0  0  0  0  0  0  0  0  0  0  0
    8.0309  -16.1607   24.8796 C   0  0  2  0  0  0  0  0  0  0  0  0
    8.2919  -15.9306   23.4955 N   0  0  0  0  0  0  0  0  0  0  0  0
    9.1033  -15.6295   25.7649 C   0  0  0  0  0  0  0  0  0  0  0  0
   10.3069  -15.6299   25.3841 O   0  0  0  0  0  0  0  0  0  0  0  0
    9.5315  -13.4306   28.7217 C   0  0  0  0  0  0  0  0  0  0  0  0
    9.8764  -14.6726   27.9600 C   0  0  2  0  0  0  0  0  0  0  0  0
    8.8352  -15.1049   27.0584 N   0  0  0  0  0  0  0  0  0  0  0  0
   10.3104  -15.7820   28.8650 C   0  0  0  0  0  0  0  0  0  0  0  0
   11.4445  -15.7047   29.6612 O   0  0  0  0  0  0  0  0  0  0  0  0
    9.6415  -16.8436   28.9309 O   0  0  0  0  0  0  0  0  0  0  0  0
  2  1  1  1
  3  2  1  0
  4  2  1  0
  5  7  1  0
  5  4  1  0
  5  6  1  6
  7 13  1  0
  8  7  2  0
 10  9  1  6
 10 11  1  0
 12 10  1  0
 12 13  1  6
 14 15  2  0
 14 12  1  0
 17 16  1  1
 17 19  1  0
 17 18  1  0
 18 14  1  0
 19 20  1  0
 21 19  2  0
M  END
$$$$
