LTA.pdb
     RDKit          3D

 21 20  0  0  1  0  0  0  0  0999 V2000
    8.2312  -12.3359   26.9903 C   0  0  0  0  0  0  0  0  0  0  0  0
    7.3148  -13.0213   25.9865 C   0  0  2  0  0  0  0  0  0  0  0  0
    6.1560  -12.0853   25.7418 C   0  0  0  0  0  0  0  0  0  0  0  0
    6.8876  -14.3818   26.4762 C   0  0  0  0  0  0  0  0  0  0  0  0
    6.3320  -15.2121   25.3411 C   0  0  2  0  0  0  0  0  0  0  0  0
    5.2192  -16.0013   25.7697 N   0  0  0  0  0  0  0  0  0  0  0  0
    7.4189  -16.0124   24.7353 C   0  0  0  0  0  0  0  0  0  0  0  0
    7.7342  -17.0937   25.2954 O   0  0  0  0  0  0  0  0  0  0  0  0
   10.4262  -16.9559   20.8816 C   0  0  0  0  0  0  0  0  0  0  0  0
    9.4274  -16.0478   21.5220 C   0  0  1  0  0  0  0  0  0  0  0  0
    8.2718  -15.8852   20.7794 O   0  0  0  0  0  0  0  0  0  0  0  0
    9.1125  -16.4909   22.9565 C   0  0  2  0  0  0  0  0  0  0  0  0
    8.1341  -15.6496   23.5661 N   0  0  0  0  0  0  0  0  0  0  0  0
   10.3679  -16.5850   23.7510 C   0  0  0  0  0  0  0  0  0  0  0  0
   11.0188  -15.5442   24.0457 O   0  0  0  0  0  0  0  0  0  0  0  0
   12.0856  -19.1088   25.9352 C   0  0  0  0  0  0  0  0  0  0  0  0
   12.0790  -17.9220   25.0224 C   0  0  2  0  0  0  0  0  0  0  0  0
   10.8895  -17.8248   24.2102 N   0  0  0  0  0  0  0  0  0  0  0  0
   13.3180  -17.8514   24.1870 C   0  0  0  0  0  0  0  0  0  0  0  0
   14.5196  -17.3456   24.6628 O   0  0  0  0  0  0  0  0  0  0  0  0
   13.3044  -18.2595   22.9986 O   0  0  0  0  0  0  0  0  0  0  0  0
  2  1  1  1
  3  2  1  0
  4  2  1  0
  5  7  1  0
  5  4  1  0
  5  6  1  1
  7 13  1  0
  8  7  2  0
 10  9  1  6
 10 11  1  0
 12 10  1  0
 12 13  1  1
 14 15  2  0
 14 12  1  0
 17 16  1  6
 17 19  1  0
 17 18  1  0
 18 14  1  0
 19 20  1  0
 21 19  2  0
M  END
$$$$
