LTA.pdb
     RDKit          3D

 21 20  0  0  1  0  0  0  0  0999 V2000
    9.8571  -12.7804   19.5853 C   0  0  0  0  0  0  0  0  0  0  0  0
    8.4582  -13.2760   19.2466 C   0  0  2  0  0  0  0  0  0  0  0  0
    7.6120  -12.0533   18.9864 C   0  0  0  0  0  0  0  0  0  0  0  0
    7.9104  -14.1569   20.3408 C   0  0  0  0  0  0  0  0  0  0  0  0
    8.8308  -15.3283   20.5999 C   0  0  2  0  0  0  0  0  0  0  0  0
    8.6551  -16.3550   19.6202 N   0  0  0  0  0  0  0  0  0  0  0  0
    8.6457  -15.8053   21.9880 C   0  0  0  0  0  0  0  0  0  0  0  0
    7.5004  -16.2020   22.3249 O   0  0  0  0  0  0  0  0  0  0  0  0
    9.3274  -18.7500   23.6113 C   0  0  0  0  0  0  0  0  0  0  0  0
   10.0459  -17.7555   24.4640 C   0  0  1  0  0  0  0  0  0  0  0  0
   11.4167  -17.7567   24.2796 O   0  0  0  0  0  0  0  0  0  0  0  0
    9.4597  -16.3484   24.2910 C   0  0  2  0  0  0  0  0  0  0  0  0
    9.6671  -15.8488   22.9703 N   0  0  0  0  0  0  0  0  0  0  0  0
    9.9925  -15.4387   25.3421 C   0  0  0  0  0  0  0  0  0  0  0  0
   11.1681  -14.9859   25.2614 O   0  0  0  0  0  0  0  0  0  0  0  0
    8.7366  -13.2685   28.1056 C   0  0  0  0  0  0  0  0  0  0  0  0
    9.7487  -14.2044   27.5213 C   0  0  2  0  0  0  0  0  0  0  0  0
    9.2225  -15.0399   26.4682 N   0  0  0  0  0  0  0  0  0  0  0  0
   10.4321  -15.0183   28.5742 C   0  0  0  0  0  0  0  0  0  0  0  0
   11.3185  -14.4718   29.4916 O   0  0  0  0  0  0  0  0  0  0  0  0
   10.2163  -16.2532   28.6591 O   0  0  0  0  0  0  0  0  0  0  0  0
  2  1  1  1
  3  2  1  0
  4  2  1  0
  5  7  1  0
  5  4  1  0
  5  6  1  6
  7 13  1  0
  8  7  2  0
 10  9  1  6
 10 11  1  0
 12 10  1  0
 12 13  1  6
 14 15  2  0
 14 12  1  0
 17 16  1  1
 17 19  1  0
 17 18  1  0
 18 14  1  0
 19 20  1  0
 21 19  2  0
M  END
$$$$
