LTA.pdb
     RDKit          3D

 21 20  0  0  1  0  0  0  0  0999 V2000
    6.0912  -12.2812   26.4427 C   0  0  0  0  0  0  0  0  0  0  0  0
    7.1335  -13.1810   27.0916 C   0  0  2  0  0  0  0  0  0  0  0  0
    8.1582  -12.2743   27.7293 C   0  0  0  0  0  0  0  0  0  0  0  0
    7.7279  -14.1393   26.0907 C   0  0  0  0  0  0  0  0  0  0  0  0
    6.6616  -15.0405   25.5100 C   0  0  2  0  0  0  0  0  0  0  0  0
    6.0576  -15.8511   26.5214 N   0  0  0  0  0  0  0  0  0  0  0  0
    7.2318  -15.8257   24.3933 C   0  0  0  0  0  0  0  0  0  0  0  0
    7.3987  -17.0602   24.5684 O   0  0  0  0  0  0  0  0  0  0  0  0
    6.5936  -14.8308   20.4980 C   0  0  0  0  0  0  0  0  0  0  0  0
    7.9755  -15.3563   20.7133 C   0  0  1  0  0  0  0  0  0  0  0  0
    8.9604  -14.3946   20.5777 O   0  0  0  0  0  0  0  0  0  0  0  0
    8.0893  -16.0875   22.0571 C   0  0  2  0  0  0  0  0  0  0  0  0
    7.6055  -15.2880   23.1357 N   0  0  0  0  0  0  0  0  0  0  0  0
    9.4861  -16.5569   22.2683 C   0  0  0  0  0  0  0  0  0  0  0  0
    9.9930  -17.4238   21.5032 O   0  0  0  0  0  0  0  0  0  0  0  0
   12.7156  -15.5692   23.3725 C   0  0  0  0  0  0  0  0  0  0  0  0
   11.6290  -16.5767   23.5871 C   0  0  2  0  0  0  0  0  0  0  0  0
   10.3060  -16.0648   23.3199 N   0  0  0  0  0  0  0  0  0  0  0  0
   11.7079  -17.2052   24.9424 C   0  0  0  0  0  0  0  0  0  0  0  0
   12.8428  -17.8556   25.4063 O   0  0  0  0  0  0  0  0  0  0  0  0
   10.7216  -17.1601   25.7195 O   0  0  0  0  0  0  0  0  0  0  0  0
  2  1  1  6
  3  2  1  0
  4  2  1  0
  5  7  1  0
  5  4  1  0
  5  6  1  1
  7 13  1  0
  8  7  2  0
 10  9  1  1
 10 11  1  0
 12 10  1  0
 12 13  1  1
 14 15  2  0
 14 12  1  0
 17 16  1  1
 17 19  1  0
 17 18  1  0
 18 14  1  0
 19 20  1  0
 21 19  2  0
M  END
$$$$
