LTA.pdb
     RDKit          3D

 21 20  0  0  1  0  0  0  0  0999 V2000
    6.9384  -10.9625   25.8382 C   0  0  0  0  0  0  0  0  0  0  0  0
    6.9480  -12.0186   26.9345 C   0  0  2  0  0  0  0  0  0  0  0  0
    7.8753  -11.5185   28.0156 C   0  0  0  0  0  0  0  0  0  0  0  0
    7.3419  -13.3683   26.3901 C   0  0  0  0  0  0  0  0  0  0  0  0
    6.5808  -13.6796   25.1212 C   0  0  2  0  0  0  0  0  0  0  0  0
    5.1755  -13.7758   25.3674 N   0  0  0  0  0  0  0  0  0  0  0  0
    7.1487  -14.8901   24.4879 C   0  0  0  0  0  0  0  0  0  0  0  0
    6.9803  -15.9919   25.0711 O   0  0  0  0  0  0  0  0  0  0  0  0
    7.0363  -15.6575   20.5907 C   0  0  0  0  0  0  0  0  0  0  0  0
    8.3891  -15.9869   21.1324 C   0  0  1  0  0  0  0  0  0  0  0  0
    9.3817  -15.1239   20.7041 O   0  0  0  0  0  0  0  0  0  0  0  0
    8.3642  -16.0950   22.6625 C   0  0  2  0  0  0  0  0  0  0  0  0
    7.8712  -14.9004   23.2681 N   0  0  0  0  0  0  0  0  0  0  0  0
    9.7075  -16.4872   23.1704 C   0  0  0  0  0  0  0  0  0  0  0  0
   10.5457  -15.6067   23.5108 O   0  0  0  0  0  0  0  0  0  0  0  0
   11.6509  -19.7162   23.7161 C   0  0  0  0  0  0  0  0  0  0  0  0
   11.4396  -18.2340   23.6999 C   0  0  2  0  0  0  0  0  0  0  0  0
   10.1093  -17.8447   23.2965 N   0  0  0  0  0  0  0  0  0  0  0  0
   12.4833  -17.5285   22.8931 C   0  0  0  0  0  0  0  0  0  0  0  0
   13.6965  -17.1162   23.4263 O   0  0  0  0  0  0  0  0  0  0  0  0
   12.2847  -17.2829   21.6769 O   0  0  0  0  0  0  0  0  0  0  0  0
  2  1  1  6
  3  2  1  0
  4  2  1  0
  5  7  1  0
  5  4  1  0
  5  6  1  1
  7 13  1  0
  8  7  2  0
 10  9  1  1
 10 11  1  0
 12 10  1  0
 12 13  1  1
 14 15  2  0
 14 12  1  0
 17 16  1  6
 17 19  1  0
 17 18  1  0
 18 14  1  0
 19 20  1  0
 21 19  2  0
M  END
$$$$
