LTA.pdb
     RDKit          3D

 21 20  0  0  1  0  0  0  0  0999 V2000
    5.6731  -12.3677   25.5576 C   0  0  0  0  0  0  0  0  0  0  0  0
    6.5099  -12.9749   26.6749 C   0  0  2  0  0  0  0  0  0  0  0  0
    7.1839  -11.8285   27.3892 C   0  0  0  0  0  0  0  0  0  0  0  0
    7.4817  -13.9949   26.1376 C   0  0  0  0  0  0  0  0  0  0  0  0
    6.7565  -15.0759   25.3682 C   0  0  2  0  0  0  0  0  0  0  0  0
    5.9497  -15.8787   26.2337 N   0  0  0  0  0  0  0  0  0  0  0  0
    7.7317  -15.8616   24.5806 C   0  0  0  0  0  0  0  0  0  0  0  0
    8.1536  -16.9388   25.0746 O   0  0  0  0  0  0  0  0  0  0  0  0
    9.9919  -16.8576   20.2753 C   0  0  0  0  0  0  0  0  0  0  0  0
    9.0486  -15.9983   21.0525 C   0  0  1  0  0  0  0  0  0  0  0  0
    7.7427  -16.0618   20.6010 O   0  0  0  0  0  0  0  0  0  0  0  0
    9.1357  -16.2950   22.5551 C   0  0  2  0  0  0  0  0  0  0  0  0
    8.2278  -15.4893   23.3058 N   0  0  0  0  0  0  0  0  0  0  0  0
   10.5432  -16.1658   23.0222 C   0  0  0  0  0  0  0  0  0  0  0  0
   11.0854  -15.0295   23.1151 O   0  0  0  0  0  0  0  0  0  0  0  0
   13.2467  -18.4269   24.4332 C   0  0  0  0  0  0  0  0  0  0  0  0
   12.7094  -17.1777   23.8067 C   0  0  2  0  0  0  0  0  0  0  0  0
   11.3347  -17.2906   23.3807 N   0  0  0  0  0  0  0  0  0  0  0  0
   13.5858  -16.6853   22.6988 C   0  0  0  0  0  0  0  0  0  0  0  0
   14.6642  -15.8380   22.9113 O   0  0  0  0  0  0  0  0  0  0  0  0
   13.3635  -17.0351   21.5127 O   0  0  0  0  0  0  0  0  0  0  0  0
  2  1  1  6
  3  2  1  0
  4  2  1  0
  5  7  1  0
  5  4  1  0
  5  6  1  1
  7 13  1  0
  8  7  2  0
 10  9  1  6
 10 11  1  0
 12 10  1  0
 12 13  1  1
 14 15  2  0
 14 12  1  0
 17 16  1  6
 17 19  1  0
 17 18  1  0
 18 14  1  0
 19 20  1  0
 21 19  2  0
M  END
$$$$
