LTA.pdb
     RDKit          3D

 21 20  0  0  1  0  0  0  0  0999 V2000
    9.8853  -12.7817   19.5592 C   0  0  0  0  0  0  0  0  0  0  0  0
    8.4912  -13.3152   19.2608 C   0  0  2  0  0  0  0  0  0  0  0  0
    7.5966  -12.1154   19.0634 C   0  0  0  0  0  0  0  0  0  0  0  0
    8.0143  -14.2398   20.3521 C   0  0  0  0  0  0  0  0  0  0  0  0
    8.9957  -15.3701   20.5666 C   0  0  2  0  0  0  0  0  0  0  0  0
    8.8637  -16.3728   19.5557 N   0  0  0  0  0  0  0  0  0  0  0  0
    8.8478  -15.8998   21.9399 C   0  0  0  0  0  0  0  0  0  0  0  0
    7.7347  -16.3882   22.2643 O   0  0  0  0  0  0  0  0  0  0  0  0
    9.9053  -18.8253   23.5513 C   0  0  0  0  0  0  0  0  0  0  0  0
   10.4627  -17.7453   24.4203 C   0  0  1  0  0  0  0  0  0  0  0  0
   11.8250  -17.5602   24.2676 O   0  0  0  0  0  0  0  0  0  0  0  0
    9.6955  -16.4300   24.2338 C   0  0  2  0  0  0  0  0  0  0  0  0
    9.8711  -15.8980   22.9212 N   0  0  0  0  0  0  0  0  0  0  0  0
   10.0685  -15.4632   25.3027 C   0  0  0  0  0  0  0  0  0  0  0  0
   11.1942  -14.8921   25.2853 O   0  0  0  0  0  0  0  0  0  0  0  0
    8.4802  -13.4549   28.0220 C   0  0  0  0  0  0  0  0  0  0  0  0
    9.5924  -14.2996   27.4823 C   0  0  2  0  0  0  0  0  0  0  0  0
    9.1959  -15.1386   26.3766 N   0  0  0  0  0  0  0  0  0  0  0  0
   10.2643  -15.0940   28.5572 C   0  0  0  0  0  0  0  0  0  0  0  0
   10.2994  -16.4813   28.5584 O   0  0  0  0  0  0  0  0  0  0  0  0
   10.8310  -14.5108   29.5151 O   0  0  0  0  0  0  0  0  0  0  0  0
  2  1  1  1
  3  2  1  0
  4  2  1  0
  5  7  1  0
  5  4  1  0
  5  6  1  6
  7 13  1  0
  8  7  2  0
 10  9  1  6
 10 11  1  0
 12 10  1  0
 12 13  1  6
 14 15  2  0
 14 12  1  0
 17 16  1  1
 17 19  1  0
 17 18  1  0
 18 14  1  0
 19 20  1  0
 21 19  2  0
M  END
$$$$
