LTA.pdb
     RDKit          3D

 21 20  0  0  1  0  0  0  0  0999 V2000
    7.3978  -12.1910   19.9721 C   0  0  0  0  0  0  0  0  0  0  0  0
    8.0417  -13.4383   20.5610 C   0  0  2  0  0  0  0  0  0  0  0  0
    9.5335  -13.2829   20.3900 C   0  0  0  0  0  0  0  0  0  0  0  0
    7.4965  -14.6896   19.9204 C   0  0  0  0  0  0  0  0  0  0  0  0
    7.9912  -15.9228   20.6422 C   0  0  2  0  0  0  0  0  0  0  0  0
    7.5554  -17.1180   19.9891 N   0  0  0  0  0  0  0  0  0  0  0  0
    7.5946  -15.8554   22.0658 C   0  0  0  0  0  0  0  0  0  0  0  0
    6.3745  -15.6980   22.3288 O   0  0  0  0  0  0  0  0  0  0  0  0
    6.4576  -17.8786   24.1237 C   0  0  0  0  0  0  0  0  0  0  0  0
    7.6278  -17.4161   24.9294 C   0  0  1  0  0  0  0  0  0  0  0  0
    8.6950  -18.2959   24.9101 O   0  0  0  0  0  0  0  0  0  0  0  0
    8.0610  -16.0026   24.5199 C   0  0  2  0  0  0  0  0  0  0  0  0
    8.4909  -15.9554   23.1598 N   0  0  0  0  0  0  0  0  0  0  0  0
    9.0868  -15.4865   25.4672 C   0  0  0  0  0  0  0  0  0  0  0  0
   10.3142  -15.6939   25.2576 O   0  0  0  0  0  0  0  0  0  0  0  0
    9.2423  -13.0049   28.2972 C   0  0  0  0  0  0  0  0  0  0  0  0
    9.7355  -14.1872   27.5222 C   0  0  2  0  0  0  0  0  0  0  0  0
    8.7462  -14.7484   26.6332 N   0  0  0  0  0  0  0  0  0  0  0  0
   10.3256  -15.2341   28.4133 C   0  0  0  0  0  0  0  0  0  0  0  0
   11.5039  -15.0438   29.1213 O   0  0  0  0  0  0  0  0  0  0  0  0
    9.7547  -16.3452   28.5488 O   0  0  0  0  0  0  0  0  0  0  0  0
  2  1  1  6
  3  2  1  0
  4  2  1  0
  5  7  1  0
  5  4  1  0
  5  6  1  6
  7 13  1  0
  8  7  2  0
 10  9  1  6
 10 11  1  0
 12 10  1  0
 12 13  1  6
 14 15  2  0
 14 12  1  0
 17 16  1  1
 17 19  1  0
 17 18  1  0
 18 14  1  0
 19 20  1  0
 21 19  2  0
M  END
$$$$
