LTA.pdb
     RDKit          3D

 21 20  0  0  1  0  0  0  0  0999 V2000
    9.5373  -13.3272   20.0272 C   0  0  0  0  0  0  0  0  0  0  0  0
    8.1700  -13.5136   19.3846 C   0  0  2  0  0  0  0  0  0  0  0  0
    7.6543  -12.1360   19.0457 C   0  0  0  0  0  0  0  0  0  0  0  0
    7.2438  -14.2907   20.2855 C   0  0  0  0  0  0  0  0  0  0  0  0
    7.8527  -15.6221   20.6635 C   0  0  2  0  0  0  0  0  0  0  0  0
    7.3625  -16.6745   19.8287 N   0  0  0  0  0  0  0  0  0  0  0  0
    7.6401  -15.8717   22.1061 C   0  0  0  0  0  0  0  0  0  0  0  0
    6.4553  -15.9076   22.5275 O   0  0  0  0  0  0  0  0  0  0  0  0
    7.6869  -18.6547   24.0779 C   0  0  0  0  0  0  0  0  0  0  0  0
    8.6326  -17.7696   24.8224 C   0  0  1  0  0  0  0  0  0  0  0  0
    9.9575  -18.1475   24.6988 O   0  0  0  0  0  0  0  0  0  0  0  0
    8.4333  -16.2971   24.4409 C   0  0  2  0  0  0  0  0  0  0  0  0
    8.6763  -16.0740   23.0524 N   0  0  0  0  0  0  0  0  0  0  0  0
    9.2599  -15.4240   25.3187 C   0  0  0  0  0  0  0  0  0  0  0  0
   10.4942  -15.2783   25.0976 O   0  0  0  0  0  0  0  0  0  0  0  0
    8.7744  -12.7194   27.8560 C   0  0  0  0  0  0  0  0  0  0  0  0
    9.5143  -13.8979   27.3032 C   0  0  2  0  0  0  0  0  0  0  0  0
    8.7152  -14.7229   26.4287 N   0  0  0  0  0  0  0  0  0  0  0  0
   10.1595  -14.7099   28.3814 C   0  0  0  0  0  0  0  0  0  0  0  0
    9.9080  -16.0632   28.5578 O   0  0  0  0  0  0  0  0  0  0  0  0
   10.9692  -14.1739   29.1788 O   0  0  0  0  0  0  0  0  0  0  0  0
  2  1  1  1
  3  2  1  0
  4  2  1  0
  5  7  1  0
  5  4  1  0
  5  6  1  6
  7 13  1  0
  8  7  2  0
 10  9  1  6
 10 11  1  0
 12 10  1  0
 12 13  1  6
 14 15  2  0
 14 12  1  0
 17 16  1  1
 17 19  1  0
 17 18  1  0
 18 14  1  0
 19 20  1  0
 21 19  2  0
M  END
$$$$
