WVN.pdb
     RDKit          3D

 30 31  0  0  1  0  0  0  0  0999 V2000
   23.3911  -21.8943  -15.3200 N   0  0  0  0  0  0  0  0  0  0  0  0
   23.9347  -20.7983  -14.5940 C   0  0  1  0  0  0  0  0  0  0  0  0
   22.7796  -19.9181  -14.1281 C   0  0  0  0  0  0  0  0  0  0  0  0
   22.2655  -19.0493  -15.2181 C   0  0  0  0  0  0  0  0  0  0  0  0
   21.1889  -18.1892  -15.1558 C   0  0  0  0  0  0  0  0  0  0  0  0
   21.0051  -17.6014  -16.3587 N   0  0  0  0  0  0  0  0  0  0  0  0
   21.9489  -18.0638  -17.2133 C   0  0  0  0  0  0  0  0  0  0  0  0
   22.1630  -17.7495  -18.5352 C   0  0  0  0  0  0  0  0  0  0  0  0
   23.2095  -18.3482  -19.2158 C   0  0  0  0  0  0  0  0  0  0  0  0
   24.0025  -19.2415  -18.5400 C   0  0  0  0  0  0  0  0  0  0  0  0
   23.7869  -19.5625  -17.1975 C   0  0  0  0  0  0  0  0  0  0  0  0
   22.7473  -18.9739  -16.5082 C   0  0  0  0  0  0  0  0  0  0  0  0
   24.7493  -21.2569  -13.4421 C   0  0  0  0  0  0  0  0  0  0  0  0
   24.3183  -22.2225  -12.7592 O   0  0  0  0  0  0  0  0  0  0  0  0
   28.5243  -19.4382  -12.3945 C   0  0  0  0  0  0  0  0  0  0  0  0
   28.1608  -20.8527  -12.1140 C   0  0  1  0  0  0  0  0  0  0  0  0
   28.9267  -21.4912  -10.9904 C   0  0  0  0  0  0  0  0  0  0  0  0
   26.6622  -21.0420  -11.8780 C   0  0  2  0  0  0  0  0  0  0  0  0
   25.9861  -20.6542  -13.0853 N   0  0  0  0  0  0  0  0  0  0  0  0
   26.2116  -20.3807  -10.6572 C   0  0  0  0  0  0  0  0  0  0  0  0
   25.9846  -19.1284  -10.6374 O   0  0  0  0  0  0  0  0  0  0  0  0
   23.0157  -22.7268   -7.4585 N   0  0  0  0  0  0  0  0  0  0  0  0
   23.6525  -21.4654   -7.5247 C   0  0  0  0  0  0  0  0  0  0  0  0
   22.8912  -20.5105   -7.9345 O   0  0  0  0  0  0  0  0  0  0  0  0
   25.0545  -21.1775   -7.1726 C   0  0  0  0  0  0  0  0  0  0  0  0
   25.6680  -20.2991   -8.2242 C   0  0  2  0  0  0  0  0  0  0  0  0
   25.9908  -21.0515   -9.4270 N   0  0  0  0  0  0  0  0  0  0  0  0
   26.9314  -19.7507   -7.6980 C   0  0  0  0  0  0  0  0  0  0  0  0
   28.0431  -20.5516   -7.5780 O   0  0  0  0  0  0  0  0  0  0  0  0
   27.0524  -18.5623   -7.3432 O   0  0  0  0  0  0  0  0  0  0  0  0
  2  1  1  1
  2  3  1  0
  3  4  1  0
  4 12  1  0
  4  5  2  0
  5  6  1  0
  7  8  2  0
  7  6  1  0
  9  8  1  0
 10  9  2  0
 11 10  1  0
 11 12  2  0
 12  7  1  0
 13  2  1  0
 13 14  2  0
 16 15  1  1
 16 17  1  0
 16 18  1  0
 18 19  1  6
 19 13  1  0
 20 18  1  0
 21 20  2  0
 23 24  2  0
 23 22  1  0
 25 23  1  0
 26 27  1  0
 26 25  1  1
 27 20  1  0
 28 26  1  0
 29 28  1  0
 30 28  2  0
M  END
$$$$
