WVN.pdb
     RDKit          3D

 30 31  0  0  1  0  0  0  0  0999 V2000
   24.2616  -19.0162  -17.5232 N   0  0  0  0  0  0  0  0  0  0  0  0
   24.6182  -18.4753  -16.2567 C   0  0  1  0  0  0  0  0  0  0  0  0
   23.3708  -17.8526  -15.6384 C   0  0  0  0  0  0  0  0  0  0  0  0
   22.9592  -16.6112  -16.3432 C   0  0  0  0  0  0  0  0  0  0  0  0
   21.8079  -16.4168  -17.0776 C   0  0  0  0  0  0  0  0  0  0  0  0
   21.8052  -15.1701  -17.5992 N   0  0  0  0  0  0  0  0  0  0  0  0
   22.9417  -14.5402  -17.2166 C   0  0  0  0  0  0  0  0  0  0  0  0
   23.3723  -13.2641  -17.4962 C   0  0  0  0  0  0  0  0  0  0  0  0
   24.5810  -12.8263  -16.9822 C   0  0  0  0  0  0  0  0  0  0  0  0
   25.3119  -13.6898  -16.2050 C   0  0  0  0  0  0  0  0  0  0  0  0
   24.8767  -14.9863  -15.9200 C   0  0  0  0  0  0  0  0  0  0  0  0
   23.6749  -15.4352  -16.4265 C   0  0  0  0  0  0  0  0  0  0  0  0
   25.1919  -19.5111  -15.3629 C   0  0  0  0  0  0  0  0  0  0  0  0
   24.6928  -20.6662  -15.3984 O   0  0  0  0  0  0  0  0  0  0  0  0
   28.7390  -21.0682  -12.3495 C   0  0  0  0  0  0  0  0  0  0  0  0
   28.2006  -20.2026  -13.4322 C   0  0  1  0  0  0  0  0  0  0  0  0
   28.7754  -20.4641  -14.7952 C   0  0  0  0  0  0  0  0  0  0  0  0
   26.6740  -20.2354  -13.5108 C   0  0  2  0  0  0  0  0  0  0  0  0
   26.2737  -19.2513  -14.4783 N   0  0  0  0  0  0  0  0  0  0  0  0
   26.0547  -20.1204  -12.1941 C   0  0  0  0  0  0  0  0  0  0  0  0
   26.1592  -19.0498  -11.5135 O   0  0  0  0  0  0  0  0  0  0  0  0
   23.4377  -20.7100   -7.7503 N   0  0  0  0  0  0  0  0  0  0  0  0
   23.1072  -21.7705   -8.6262 C   0  0  0  0  0  0  0  0  0  0  0  0
   22.2362  -22.5935   -8.1537 O   0  0  0  0  0  0  0  0  0  0  0  0
   23.6573  -21.9895   -9.9760 C   0  0  0  0  0  0  0  0  0  0  0  0
   24.6947  -20.9457  -10.2729 C   0  0  2  0  0  0  0  0  0  0  0  0
   25.3040  -21.1542  -11.5777 N   0  0  0  0  0  0  0  0  0  0  0  0
   25.7670  -21.0512   -9.2665 C   0  0  0  0  0  0  0  0  0  0  0  0
   25.7863  -20.2119   -8.1772 O   0  0  0  0  0  0  0  0  0  0  0  0
   26.6883  -21.8860   -9.3509 O   0  0  0  0  0  0  0  0  0  0  0  0
  2  1  1  6
  2  3  1  0
  3  4  1  0
  4 12  1  0
  4  5  2  0
  5  6  1  0
  7  8  2  0
  7  6  1  0
  9  8  1  0
 10  9  2  0
 11 10  1  0
 11 12  2  0
 12  7  1  0
 13  2  1  0
 13 14  2  0
 16 15  1  1
 16 17  1  0
 16 18  1  0
 18 19  1  6
 19 13  1  0
 20 18  1  0
 21 20  2  0
 23 24  2  0
 23 22  1  0
 25 23  1  0
 26 27  1  0
 26 25  1  1
 27 20  1  0
 28 26  1  0
 29 28  1  0
 30 28  2  0
M  END
$$$$
