WVN.pdb
     RDKit          3D

 30 31  0  0  1  0  0  0  0  0999 V2000
   27.2010  -21.1925  -16.8315 N   0  0  0  0  0  0  0  0  0  0  0  0
   26.8434  -20.2584  -15.8198 C   0  0  1  0  0  0  0  0  0  0  0  0
   26.0093  -19.1565  -16.4649 C   0  0  0  0  0  0  0  0  0  0  0  0
   26.7535  -18.4503  -17.5395 C   0  0  0  0  0  0  0  0  0  0  0  0
   26.3122  -18.1875  -18.8197 C   0  0  0  0  0  0  0  0  0  0  0  0
   27.2857  -17.5621  -19.5179 N   0  0  0  0  0  0  0  0  0  0  0  0
   28.3639  -17.4093  -18.7123 C   0  0  0  0  0  0  0  0  0  0  0  0
   29.5811  -16.8269  -18.9792 C   0  0  0  0  0  0  0  0  0  0  0  0
   30.5430  -16.7754  -17.9848 C   0  0  0  0  0  0  0  0  0  0  0  0
   30.2438  -17.3120  -16.7576 C   0  0  0  0  0  0  0  0  0  0  0  0
   29.0084  -17.9042  -16.4842 C   0  0  0  0  0  0  0  0  0  0  0  0
   28.0417  -17.9629  -17.4662 C   0  0  0  0  0  0  0  0  0  0  0  0
   26.0975  -20.9094  -14.7150 C   0  0  0  0  0  0  0  0  0  0  0  0
   25.4454  -21.9541  -14.9756 O   0  0  0  0  0  0  0  0  0  0  0  0
   25.1377  -21.4170   -9.9230 C   0  0  0  0  0  0  0  0  0  0  0  0
   25.9244  -20.8320  -11.0413 C   0  0  1  0  0  0  0  0  0  0  0  0
   27.3354  -21.3353  -11.1525 C   0  0  0  0  0  0  0  0  0  0  0  0
   25.2262  -20.9768  -12.3938 C   0  0  2  0  0  0  0  0  0  0  0  0
   26.0928  -20.4037  -13.3866 N   0  0  0  0  0  0  0  0  0  0  0  0
   23.8623  -20.4575  -12.3651 C   0  0  0  0  0  0  0  0  0  0  0  0
   23.6396  -19.2121  -12.2254 O   0  0  0  0  0  0  0  0  0  0  0  0
   20.0628  -20.9014  -15.9146 N   0  0  0  0  0  0  0  0  0  0  0  0
   21.1194  -20.8201  -14.9776 C   0  0  0  0  0  0  0  0  0  0  0  0
   22.0723  -21.6623  -15.1821 O   0  0  0  0  0  0  0  0  0  0  0  0
   21.2069  -19.8849  -13.8418 C   0  0  0  0  0  0  0  0  0  0  0  0
   21.3841  -20.6564  -12.5662 C   0  0  2  0  0  0  0  0  0  0  0  0
   22.7032  -21.2657  -12.4893 N   0  0  0  0  0  0  0  0  0  0  0  0
   20.3944  -21.7489  -12.5380 C   0  0  0  0  0  0  0  0  0  0  0  0
   20.7937  -23.0560  -12.6921 O   0  0  0  0  0  0  0  0  0  0  0  0
   19.1751  -21.5475  -12.3777 O   0  0  0  0  0  0  0  0  0  0  0  0
  2  1  1  6
  2  3  1  0
  3  4  1  0
  4 12  1  0
  4  5  2  0
  5  6  1  0
  7  8  2  0
  7  6  1  0
  9  8  1  0
 10  9  2  0
 11 10  1  0
 11 12  2  0
 12  7  1  0
 13  2  1  0
 13 14  2  0
 16 15  1  1
 16 17  1  0
 16 18  1  0
 18 19  1  6
 19 13  1  0
 20 18  1  0
 21 20  2  0
 23 24  2  0
 23 22  1  0
 25 23  1  0
 26 27  1  0
 26 25  1  6
 27 20  1  0
 28 26  1  0
 29 28  1  0
 30 28  2  0
M  END
$$$$
