WVN.pdb
     RDKit          3D

 30 31  0  0  1  0  0  0  0  0999 V2000
   26.9589  -22.0988  -12.6635 N   0  0  0  0  0  0  0  0  0  0  0  0
   25.6428  -21.9386  -13.1791 C   0  0  1  0  0  0  0  0  0  0  0  0
   25.1703  -20.5278  -12.8437 C   0  0  0  0  0  0  0  0  0  0  0  0
   24.9894  -20.3329  -11.3820 C   0  0  0  0  0  0  0  0  0  0  0  0
   25.8221  -19.6402  -10.5279 C   0  0  0  0  0  0  0  0  0  0  0  0
   25.3464  -19.7177   -9.2654 N   0  0  0  0  0  0  0  0  0  0  0  0
   24.2091  -20.4534   -9.2775 C   0  0  0  0  0  0  0  0  0  0  0  0
   23.3754  -20.7941   -8.2379 C   0  0  0  0  0  0  0  0  0  0  0  0
   22.2483  -21.5571   -8.4921 C   0  0  0  0  0  0  0  0  0  0  0  0
   22.0020  -21.9488   -9.7842 C   0  0  0  0  0  0  0  0  0  0  0  0
   22.8474  -21.6041  -10.8416 C   0  0  0  0  0  0  0  0  0  0  0  0
   23.9740  -20.8453  -10.6020 C   0  0  0  0  0  0  0  0  0  0  0  0
   25.5969  -22.1788  -14.6424 C   0  0  0  0  0  0  0  0  0  0  0  0
   26.3516  -21.4916  -15.3791 O   0  0  0  0  0  0  0  0  0  0  0  0
   25.0197  -25.4013  -18.1881 C   0  0  0  0  0  0  0  0  0  0  0  0
   25.1541  -24.9182  -16.7880 C   0  0  1  0  0  0  0  0  0  0  0  0
   26.4802  -25.2074  -16.1443 C   0  0  0  0  0  0  0  0  0  0  0  0
   24.8337  -23.4303  -16.6430 C   0  0  2  0  0  0  0  0  0  0  0  0
   24.7428  -23.1468  -15.2373 N   0  0  0  0  0  0  0  0  0  0  0  0
   23.6800  -23.0371  -17.4463 C   0  0  0  0  0  0  0  0  0  0  0  0
   22.4973  -23.3345  -17.0815 O   0  0  0  0  0  0  0  0  0  0  0  0
   25.2348  -19.8428  -20.4019 N   0  0  0  0  0  0  0  0  0  0  0  0
   24.0909  -20.5981  -20.7508 C   0  0  0  0  0  0  0  0  0  0  0  0
   24.2585  -21.3708  -21.7677 O   0  0  0  0  0  0  0  0  0  0  0  0
   22.7857  -20.5697  -20.0666 C   0  0  0  0  0  0  0  0  0  0  0  0
   22.5653  -21.8689  -19.3474 C   0  0  2  0  0  0  0  0  0  0  0  0
   23.7700  -22.3107  -18.6613 N   0  0  0  0  0  0  0  0  0  0  0  0
   22.2232  -22.9026  -20.3415 C   0  0  0  0  0  0  0  0  0  0  0  0
   23.0972  -23.9306  -20.6081 O   0  0  0  0  0  0  0  0  0  0  0  0
   21.1505  -22.8964  -20.9758 O   0  0  0  0  0  0  0  0  0  0  0  0
  2  1  1  6
  2  3  1  0
  3  4  1  0
  4 12  1  0
  4  5  2  0
  5  6  1  0
  7  8  2  0
  7  6  1  0
  9  8  1  0
 10  9  2  0
 11 10  1  0
 11 12  2  0
 12  7  1  0
 13  2  1  0
 13 14  2  0
 16 15  1  6
 16 17  1  0
 16 18  1  0
 18 19  1  1
 19 13  1  0
 20 18  1  0
 21 20  2  0
 23 24  2  0
 23 22  1  0
 25 23  1  0
 26 27  1  0
 26 25  1  6
 27 20  1  0
 28 26  1  0
 29 28  1  0
 30 28  2  0
M  END
$$$$
