WVN.pdb
     RDKit          3D

 30 31  0  0  1  0  0  0  0  0999 V2000
   25.4109  -13.9733  -17.2420 N   0  0  0  0  0  0  0  0  0  0  0  0
   24.0297  -13.6329  -17.2546 C   0  0  1  0  0  0  0  0  0  0  0  0
   23.4878  -13.7965  -15.8383 C   0  0  0  0  0  0  0  0  0  0  0  0
   23.3461  -15.2254  -15.4570 C   0  0  0  0  0  0  0  0  0  0  0  0
   24.0410  -15.8939  -14.4705 C   0  0  0  0  0  0  0  0  0  0  0  0
   23.6650  -17.1917  -14.4480 N   0  0  0  0  0  0  0  0  0  0  0  0
   22.7297  -17.3864  -15.4083 C   0  0  0  0  0  0  0  0  0  0  0  0
   22.0548  -18.5342  -15.7536 C   0  0  0  0  0  0  0  0  0  0  0  0
   21.1227  -18.4934  -16.7765 C   0  0  0  0  0  0  0  0  0  0  0  0
   20.9041  -17.2979  -17.4142 C   0  0  0  0  0  0  0  0  0  0  0  0
   21.5885  -16.1310  -17.0654 C   0  0  0  0  0  0  0  0  0  0  0  0
   22.5203  -16.1581  -16.0489 C   0  0  0  0  0  0  0  0  0  0  0  0
   23.8126  -12.2509  -17.7484 C   0  0  0  0  0  0  0  0  0  0  0  0
   24.6674  -11.3754  -17.4527 O   0  0  0  0  0  0  0  0  0  0  0  0
   21.6657   -9.1425  -20.8441 C   0  0  0  0  0  0  0  0  0  0  0  0
   22.1389  -10.4770  -20.3893 C   0  0  1  0  0  0  0  0  0  0  0  0
   23.2930  -11.0382  -21.1703 C   0  0  0  0  0  0  0  0  0  0  0  0
   22.4728  -10.5087  -18.8977 C   0  0  2  0  0  0  0  0  0  0  0  0
   22.6882  -11.8826  -18.5361 N   0  0  0  0  0  0  0  0  0  0  0  0
   21.4850   -9.7891  -18.0994 C   0  0  0  0  0  0  0  0  0  0  0  0
   20.2840  -10.2027  -18.0169 O   0  0  0  0  0  0  0  0  0  0  0  0
   18.8905   -6.7731  -14.7715 N   0  0  0  0  0  0  0  0  0  0  0  0
   20.1125   -7.2995  -14.2913 C   0  0  0  0  0  0  0  0  0  0  0  0
   20.3233   -7.0859  -13.0386 O   0  0  0  0  0  0  0  0  0  0  0  0
   21.1117   -8.0418  -15.0805 C   0  0  0  0  0  0  0  0  0  0  0  0
   20.7416   -7.9945  -16.5347 C   0  0  2  0  0  0  0  0  0  0  0  0
   21.7659   -8.6073  -17.3668 N   0  0  0  0  0  0  0  0  0  0  0  0
   20.6311   -6.5825  -16.9443 C   0  0  0  0  0  0  0  0  0  0  0  0
   19.5273   -5.8395  -16.5962 O   0  0  0  0  0  0  0  0  0  0  0  0
   21.5112   -6.0051  -17.6114 O   0  0  0  0  0  0  0  0  0  0  0  0
  2  1  1  1
  2  3  1  0
  3  4  1  0
  4 12  1  0
  4  5  2  0
  5  6  1  0
  7  8  2  0
  7  6  1  0
  9  8  1  0
 10  9  2  0
 11 10  1  0
 11 12  2  0
 12  7  1  0
 13  2  1  0
 13 14  2  0
 16 15  1  6
 16 17  1  0
 16 18  1  0
 18 19  1  1
 19 13  1  0
 20 18  1  0
 21 20  2  0
 23 24  2  0
 23 22  1  0
 25 23  1  0
 26 27  1  0
 26 25  1  1
 27 20  1  0
 28 26  1  0
 29 28  1  0
 30 28  2  0
M  END
$$$$
