WVN.pdb
     RDKit          3D

 30 31  0  0  1  0  0  0  0  0999 V2000
   26.5250  -18.7572   -8.2763 N   0  0  0  0  0  0  0  0  0  0  0  0
   26.6706  -20.0682   -8.8091 C   0  0  1  0  0  0  0  0  0  0  0  0
   25.8445  -21.0226   -7.9531 C   0  0  0  0  0  0  0  0  0  0  0  0
   26.1883  -20.9185   -6.5115 C   0  0  0  0  0  0  0  0  0  0  0  0
   25.3646  -21.1940   -5.4399 C   0  0  0  0  0  0  0  0  0  0  0  0
   26.0201  -20.9434   -4.2851 N   0  0  0  0  0  0  0  0  0  0  0  0
   27.2670  -20.5061   -4.5831 C   0  0  0  0  0  0  0  0  0  0  0  0
   28.2904  -20.1373   -3.7412 C   0  0  0  0  0  0  0  0  0  0  0  0
   29.4984  -19.7265   -4.2785 C   0  0  0  0  0  0  0  0  0  0  0  0
   29.6319  -19.7025   -5.6442 C   0  0  0  0  0  0  0  0  0  0  0  0
   28.5939  -20.0764   -6.5013 C   0  0  0  0  0  0  0  0  0  0  0  0
   27.3851  -20.4867   -5.9791 C   0  0  0  0  0  0  0  0  0  0  0  0
   26.2477  -20.1299  -10.2298 C   0  0  0  0  0  0  0  0  0  0  0  0
   25.2376  -19.4636  -10.5765 O   0  0  0  0  0  0  0  0  0  0  0  0
   27.7918  -20.8878  -14.8366 C   0  0  0  0  0  0  0  0  0  0  0  0
   27.9197  -21.1112  -13.3719 C   0  0  1  0  0  0  0  0  0  0  0  0
   29.1113  -20.4554  -12.7342 C   0  0  0  0  0  0  0  0  0  0  0  0
   26.6561  -20.7248  -12.6028 C   0  0  2  0  0  0  0  0  0  0  0  0
   26.9343  -20.9040  -11.2044 N   0  0  0  0  0  0  0  0  0  0  0  0
   25.4736  -21.4151  -13.1087 C   0  0  0  0  0  0  0  0  0  0  0  0
   25.1618  -22.5742  -12.6851 O   0  0  0  0  0  0  0  0  0  0  0  0
   20.5721  -22.3230  -14.2975 N   0  0  0  0  0  0  0  0  0  0  0  0
   20.9306  -21.2291  -13.4755 C   0  0  0  0  0  0  0  0  0  0  0  0
   19.9448  -20.7079  -12.8308 O   0  0  0  0  0  0  0  0  0  0  0  0
   22.2848  -20.6717  -13.3082 C   0  0  0  0  0  0  0  0  0  0  0  0
   23.2402  -21.3870  -14.2189 C   0  0  2  0  0  0  0  0  0  0  0  0
   24.5947  -20.8736  -14.0816 N   0  0  0  0  0  0  0  0  0  0  0  0
   22.8222  -21.1532  -15.6133 C   0  0  0  0  0  0  0  0  0  0  0  0
   21.9450  -22.0130  -16.2321 O   0  0  0  0  0  0  0  0  0  0  0  0
   23.2336  -20.1880  -16.2857 O   0  0  0  0  0  0  0  0  0  0  0  0
  2  1  1  1
  2  3  1  0
  3  4  1  0
  4 12  1  0
  4  5  2  0
  5  6  1  0
  7  8  2  0
  7  6  1  0
  9  8  1  0
 10  9  2  0
 11 10  1  0
 11 12  2  0
 12  7  1  0
 13  2  1  0
 13 14  2  0
 16 15  1  6
 16 17  1  0
 16 18  1  0
 18 19  1  1
 19 13  1  0
 20 18  1  0
 21 20  2  0
 23 24  2  0
 23 22  1  0
 25 23  1  0
 26 27  1  0
 26 25  1  1
 27 20  1  0
 28 26  1  0
 29 28  1  0
 30 28  2  0
M  END
$$$$
