WVN.pdb
     RDKit          3D

 30 31  0  0  1  0  0  0  0  0999 V2000
   27.9160  -20.4259   -9.7759 N   0  0  0  0  0  0  0  0  0  0  0  0
   26.6108  -20.9074   -9.4787 C   0  0  1  0  0  0  0  0  0  0  0  0
   26.1223  -20.2055   -8.2159 C   0  0  0  0  0  0  0  0  0  0  0  0
   27.2478  -19.7628   -7.3530 C   0  0  0  0  0  0  0  0  0  0  0  0
   28.2334  -18.8536   -7.6763 C   0  0  0  0  0  0  0  0  0  0  0  0
   29.1038  -18.7404   -6.6487 N   0  0  0  0  0  0  0  0  0  0  0  0
   28.7028  -19.5645   -5.6513 C   0  0  0  0  0  0  0  0  0  0  0  0
   29.2659  -19.7820   -4.4153 C   0  0  0  0  0  0  0  0  0  0  0  0
   28.6682  -20.6763   -3.5436 C   0  0  0  0  0  0  0  0  0  0  0  0
   27.5250  -21.3188   -3.9484 C   0  0  0  0  0  0  0  0  0  0  0  0
   26.9515  -21.0997   -5.2033 C   0  0  0  0  0  0  0  0  0  0  0  0
   27.5373  -20.2121   -6.0816 C   0  0  0  0  0  0  0  0  0  0  0  0
   25.6750  -20.6796  -10.6071 C   0  0  0  0  0  0  0  0  0  0  0  0
   25.2599  -19.5078  -10.8047 O   0  0  0  0  0  0  0  0  0  0  0  0
   24.2648  -21.8741  -15.0671 C   0  0  0  0  0  0  0  0  0  0  0  0
   25.0346  -22.1066  -13.8161 C   0  0  1  0  0  0  0  0  0  0  0  0
   26.4890  -21.7383  -13.8913 C   0  0  0  0  0  0  0  0  0  0  0  0
   24.4025  -21.4305  -12.5992 C   0  0  2  0  0  0  0  0  0  0  0  0
   25.2354  -21.7237  -11.4656 N   0  0  0  0  0  0  0  0  0  0  0  0
   22.9904  -21.7707  -12.4549 C   0  0  0  0  0  0  0  0  0  0  0  0
   22.6077  -22.6196  -11.5870 O   0  0  0  0  0  0  0  0  0  0  0  0
   18.1240  -21.6350  -10.7453 N   0  0  0  0  0  0  0  0  0  0  0  0
   18.7178  -20.5884  -11.4889 C   0  0  0  0  0  0  0  0  0  0  0  0
   17.8811  -19.7153  -11.9324 O   0  0  0  0  0  0  0  0  0  0  0  0
   20.1548  -20.4298  -11.7760 C   0  0  0  0  0  0  0  0  0  0  0  0
   20.5600  -21.3841  -12.8618 C   0  0  2  0  0  0  0  0  0  0  0  0
   21.9536  -21.2032  -13.2392 N   0  0  0  0  0  0  0  0  0  0  0  0
   19.7428  -21.1078  -14.0574 C   0  0  0  0  0  0  0  0  0  0  0  0
   18.6305  -21.8683  -14.3331 O   0  0  0  0  0  0  0  0  0  0  0  0
   20.0129  -20.1933  -14.8597 O   0  0  0  0  0  0  0  0  0  0  0  0
  2  1  1  6
  2  3  1  0
  3  4  1  0
  4 12  1  0
  4  5  2  0
  5  6  1  0
  7  8  2  0
  7  6  1  0
  9  8  1  0
 10  9  2  0
 11 10  1  0
 11 12  2  0
 12  7  1  0
 13  2  1  0
 13 14  2  0
 16 15  1  6
 16 17  1  0
 16 18  1  0
 18 19  1  1
 19 13  1  0
 20 18  1  0
 21 20  2  0
 23 24  2  0
 23 22  1  0
 25 23  1  0
 26 27  1  0
 26 25  1  1
 27 20  1  0
 28 26  1  0
 29 28  1  0
 30 28  2  0
M  END
$$$$
