WVN.pdb
     RDKit          3D

 30 31  0  0  1  0  0  0  0  0999 V2000
   26.5734  -19.3285  -11.1454 N   0  0  0  0  0  0  0  0  0  0  0  0
   26.2412  -20.7094  -11.2267 C   0  0  1  0  0  0  0  0  0  0  0  0
   25.7349  -21.1569   -9.8593 C   0  0  0  0  0  0  0  0  0  0  0  0
   26.5829  -20.6402   -8.7542 C   0  0  0  0  0  0  0  0  0  0  0  0
   26.2065  -19.7594   -7.7616 C   0  0  0  0  0  0  0  0  0  0  0  0
   27.2635  -19.4950   -6.9622 N   0  0  0  0  0  0  0  0  0  0  0  0
   28.3326  -20.1920   -7.4163 C   0  0  0  0  0  0  0  0  0  0  0  0
   29.6161  -20.2457   -6.9246 C   0  0  0  0  0  0  0  0  0  0  0  0
   30.5532  -21.0457   -7.5559 C   0  0  0  0  0  0  0  0  0  0  0  0
   30.1634  -21.7628   -8.6593 C   0  0  0  0  0  0  0  0  0  0  0  0
   28.8605  -21.7097   -9.1606 C   0  0  0  0  0  0  0  0  0  0  0  0
   27.9174  -20.9160   -8.5417 C   0  0  0  0  0  0  0  0  0  0  0  0
   25.2257  -20.9656  -12.2774 C   0  0  0  0  0  0  0  0  0  0  0  0
   24.3653  -20.0739  -12.4992 O   0  0  0  0  0  0  0  0  0  0  0  0
   23.8809  -23.4484  -16.2877 C   0  0  0  0  0  0  0  0  0  0  0  0
   24.8435  -23.1007  -15.2088 C   0  0  1  0  0  0  0  0  0  0  0  0
   26.0548  -22.3378  -15.6644 C   0  0  0  0  0  0  0  0  0  0  0  0
   24.1847  -22.3587  -14.0457 C   0  0  2  0  0  0  0  0  0  0  0  0
   25.1891  -22.1669  -13.0361 N   0  0  0  0  0  0  0  0  0  0  0  0
   22.9565  -23.0122  -13.6039 C   0  0  0  0  0  0  0  0  0  0  0  0
   22.9884  -23.9544  -12.7485 O   0  0  0  0  0  0  0  0  0  0  0  0
   18.0686  -21.8866  -13.0928 N   0  0  0  0  0  0  0  0  0  0  0  0
   18.9581  -22.1267  -12.0195 C   0  0  0  0  0  0  0  0  0  0  0  0
   18.5669  -21.6433  -10.8914 O   0  0  0  0  0  0  0  0  0  0  0  0
   20.2359  -22.8576  -12.0934 C   0  0  0  0  0  0  0  0  0  0  0  0
   20.4810  -23.3023  -13.5062 C   0  0  2  0  0  0  0  0  0  0  0  0
   21.6621  -22.6658  -14.0692 N   0  0  0  0  0  0  0  0  0  0  0  0
   19.3288  -22.8966  -14.3317 C   0  0  0  0  0  0  0  0  0  0  0  0
   18.1899  -23.6669  -14.3665 O   0  0  0  0  0  0  0  0  0  0  0  0
   19.3293  -21.8602  -15.0237 O   0  0  0  0  0  0  0  0  0  0  0  0
  2  1  1  1
  2  3  1  0
  3  4  1  0
  4 12  1  0
  4  5  2  0
  5  6  1  0
  7  8  2  0
  7  6  1  0
  9  8  1  0
 10  9  2  0
 11 10  1  0
 11 12  2  0
 12  7  1  0
 13  2  1  0
 13 14  2  0
 16 15  1  6
 16 17  1  0
 16 18  1  0
 18 19  1  1
 19 13  1  0
 20 18  1  0
 21 20  2  0
 23 24  2  0
 23 22  1  0
 25 23  1  0
 26 27  1  0
 26 25  1  1
 27 20  1  0
 28 26  1  0
 29 28  1  0
 30 28  2  0
M  END
$$$$
