WVN.pdb
     RDKit          3D

 30 31  0  0  1  0  0  0  0  0999 V2000
   24.4872  -20.9156  -14.3625 N   0  0  0  0  0  0  0  0  0  0  0  0
   24.1319  -20.0399  -13.2992 C   0  0  1  0  0  0  0  0  0  0  0  0
   22.9246  -19.2203  -13.7428 C   0  0  0  0  0  0  0  0  0  0  0  0
   23.2170  -18.4052  -14.9500 C   0  0  0  0  0  0  0  0  0  0  0  0
   22.3995  -18.2224  -16.0459 C   0  0  0  0  0  0  0  0  0  0  0  0
   23.0272  -17.4482  -16.9585 N   0  0  0  0  0  0  0  0  0  0  0  0
   24.2493  -17.1180  -16.4764 C   0  0  0  0  0  0  0  0  0  0  0  0
   25.2351  -16.3448  -17.0442 C   0  0  0  0  0  0  0  0  0  0  0  0
   26.4158  -16.1329  -16.3531 C   0  0  0  0  0  0  0  0  0  0  0  0
   26.5606  -16.7074  -15.1151 C   0  0  0  0  0  0  0  0  0  0  0  0
   25.5609  -17.4933  -14.5365 C   0  0  0  0  0  0  0  0  0  0  0  0
   24.3802  -17.7129  -15.2148 C   0  0  0  0  0  0  0  0  0  0  0  0
   23.8354  -20.7875  -12.0525 C   0  0  0  0  0  0  0  0  0  0  0  0
   23.2709  -21.9081  -12.1541 O   0  0  0  0  0  0  0  0  0  0  0  0
   24.4505  -21.1878   -7.1493 C   0  0  0  0  0  0  0  0  0  0  0  0
   24.7160  -20.5107   -8.4465 C   0  0  1  0  0  0  0  0  0  0  0  0
   26.1586  -20.4907   -8.8653 C   0  0  0  0  0  0  0  0  0  0  0  0
   23.8641  -21.0661   -9.5881 C   0  0  2  0  0  0  0  0  0  0  0  0
   24.1628  -20.2918  -10.7612 N   0  0  0  0  0  0  0  0  0  0  0  0
   22.4526  -21.1530   -9.2268 C   0  0  0  0  0  0  0  0  0  0  0  0
   21.7155  -20.1153   -9.2150 O   0  0  0  0  0  0  0  0  0  0  0  0
   17.1893  -22.4571   -9.5535 N   0  0  0  0  0  0  0  0  0  0  0  0
   18.1955  -23.3144   -9.0498 C   0  0  0  0  0  0  0  0  0  0  0  0
   17.7771  -24.1626   -8.1753 O   0  0  0  0  0  0  0  0  0  0  0  0
   19.6177  -23.3107   -9.4369 C   0  0  0  0  0  0  0  0  0  0  0  0
   20.3775  -22.3630   -8.5547 C   0  0  2  0  0  0  0  0  0  0  0  0
   21.7976  -22.3601   -8.8719 N   0  0  0  0  0  0  0  0  0  0  0  0
   20.2415  -22.8126   -7.1572 C   0  0  0  0  0  0  0  0  0  0  0  0
   19.0989  -22.5359   -6.4434 O   0  0  0  0  0  0  0  0  0  0  0  0
   21.1343  -23.4503   -6.5662 O   0  0  0  0  0  0  0  0  0  0  0  0
  2  1  1  6
  2  3  1  0
  3  4  1  0
  4 12  1  0
  4  5  2  0
  5  6  1  0
  7  8  2  0
  7  6  1  0
  9  8  1  0
 10  9  2  0
 11 10  1  0
 11 12  2  0
 12  7  1  0
 13  2  1  0
 13 14  2  0
 16 15  1  1
 16 17  1  0
 16 18  1  0
 18 19  1  6
 19 13  1  0
 20 18  1  0
 21 20  2  0
 23 24  2  0
 23 22  1  0
 25 23  1  0
 26 27  1  0
 26 25  1  6
 27 20  1  0
 28 26  1  0
 29 28  1  0
 30 28  2  0
M  END
$$$$
