WVN.pdb
     RDKit          3D

 30 31  0  0  1  0  0  0  0  0999 V2000
   23.3523  -20.3104  -14.9258 N   0  0  0  0  0  0  0  0  0  0  0  0
   22.2846  -19.9425  -14.0607 C   0  0  1  0  0  0  0  0  0  0  0  0
   20.9779  -20.0784  -14.8354 C   0  0  0  0  0  0  0  0  0  0  0  0
   20.8143  -19.0019  -15.8463 C   0  0  0  0  0  0  0  0  0  0  0  0
   21.2671  -19.0114  -17.1492 C   0  0  0  0  0  0  0  0  0  0  0  0
   20.9623  -17.8378  -17.7460 N   0  0  0  0  0  0  0  0  0  0  0  0
   20.3131  -17.0549  -16.8513 C   0  0  0  0  0  0  0  0  0  0  0  0
   19.8058  -15.7855  -17.0043 C   0  0  0  0  0  0  0  0  0  0  0  0
   19.1641  -15.1767  -15.9392 C   0  0  0  0  0  0  0  0  0  0  0  0
   19.0564  -15.8688  -14.7589 C   0  0  0  0  0  0  0  0  0  0  0  0
   19.5711  -17.1579  -14.6011 C   0  0  0  0  0  0  0  0  0  0  0  0
   20.2135  -17.7755  -15.6539 C   0  0  0  0  0  0  0  0  0  0  0  0
   22.2629  -20.7778  -12.8348 C   0  0  0  0  0  0  0  0  0  0  0  0
   22.3133  -22.0283  -12.9694 O   0  0  0  0  0  0  0  0  0  0  0  0
   23.0091  -21.0941   -7.9978 C   0  0  0  0  0  0  0  0  0  0  0  0
   23.0882  -20.4213   -9.3216 C   0  0  1  0  0  0  0  0  0  0  0  0
   24.4781  -20.2679   -9.8706 C   0  0  0  0  0  0  0  0  0  0  0  0
   22.1973  -21.0816  -10.3742 C   0  0  2  0  0  0  0  0  0  0  0  0
   22.1897  -20.2246  -11.5276 N   0  0  0  0  0  0  0  0  0  0  0  0
   20.8868  -21.4371   -9.8383 C   0  0  0  0  0  0  0  0  0  0  0  0
   20.0446  -20.5373   -9.5198 O   0  0  0  0  0  0  0  0  0  0  0  0
   15.9609  -23.8284   -9.5126 N   0  0  0  0  0  0  0  0  0  0  0  0
   17.1683  -24.4911   -9.1900 C   0  0  0  0  0  0  0  0  0  0  0  0
   17.0451  -25.4042   -8.2898 O   0  0  0  0  0  0  0  0  0  0  0  0
   18.4919  -24.2284   -9.7827 C   0  0  0  0  0  0  0  0  0  0  0  0
   19.1159  -23.0376   -9.1146 C   0  0  2  0  0  0  0  0  0  0  0  0
   20.4484  -22.7706   -9.6346 N   0  0  0  0  0  0  0  0  0  0  0  0
   19.2570  -23.3280   -7.6760 C   0  0  0  0  0  0  0  0  0  0  0  0
   18.1798  -23.2026   -6.8301 O   0  0  0  0  0  0  0  0  0  0  0  0
   20.3342  -23.6924   -7.1662 O   0  0  0  0  0  0  0  0  0  0  0  0
  2  1  1  6
  2  3  1  0
  3  4  1  0
  4 12  1  0
  4  5  2  0
  5  6  1  0
  7  8  2  0
  7  6  1  0
  9  8  1  0
 10  9  2  0
 11 10  1  0
 11 12  2  0
 12  7  1  0
 13  2  1  0
 13 14  2  0
 16 15  1  1
 16 17  1  0
 16 18  1  0
 18 19  1  6
 19 13  1  0
 20 18  1  0
 21 20  2  0
 23 24  2  0
 23 22  1  0
 25 23  1  0
 26 27  1  0
 26 25  1  6
 27 20  1  0
 28 26  1  0
 29 28  1  0
 30 28  2  0
M  END
$$$$
