WVN.pdb
     RDKit          3D

 30 31  0  0  1  0  0  0  0  0999 V2000
   26.7846  -22.7443  -15.1072 N   0  0  0  0  0  0  0  0  0  0  0  0
   26.6999  -21.8251  -14.0248 C   0  0  1  0  0  0  0  0  0  0  0  0
   26.9671  -20.4255  -14.5688 C   0  0  0  0  0  0  0  0  0  0  0  0
   28.3781  -20.0077  -14.3645 C   0  0  0  0  0  0  0  0  0  0  0  0
   29.1734  -19.3102  -15.2498 C   0  0  0  0  0  0  0  0  0  0  0  0
   30.4087  -19.1516  -14.7251 N   0  0  0  0  0  0  0  0  0  0  0  0
   30.4366  -19.7363  -13.5035 C   0  0  0  0  0  0  0  0  0  0  0  0
   31.4680  -19.8234  -12.5976 C   0  0  0  0  0  0  0  0  0  0  0  0
   31.2606  -20.4699  -11.3911 C   0  0  0  0  0  0  0  0  0  0  0  0
   30.0218  -21.0049  -11.1407 C   0  0  0  0  0  0  0  0  0  0  0  0
   28.9728  -20.9179  -12.0593 C   0  0  0  0  0  0  0  0  0  0  0  0
   29.1663  -20.2773  -13.2654 C   0  0  0  0  0  0  0  0  0  0  0  0
   25.3773  -21.8899  -13.3559 C   0  0  0  0  0  0  0  0  0  0  0  0
   24.4982  -22.6408  -13.8538 O   0  0  0  0  0  0  0  0  0  0  0  0
   22.5738  -20.6350   -9.4573 C   0  0  0  0  0  0  0  0  0  0  0  0
   23.8786  -20.6604  -10.1704 C   0  0  1  0  0  0  0  0  0  0  0  0
   24.9920  -21.3420   -9.4271 C   0  0  0  0  0  0  0  0  0  0  0  0
   23.7718  -21.2508  -11.5767 C   0  0  2  0  0  0  0  0  0  0  0  0
   25.0693  -21.1449  -12.1853 N   0  0  0  0  0  0  0  0  0  0  0  0
   22.6663  -20.6701  -12.3326 C   0  0  0  0  0  0  0  0  0  0  0  0
   22.6838  -19.4458  -12.6806 O   0  0  0  0  0  0  0  0  0  0  0  0
   18.8744  -20.4260  -16.5423 N   0  0  0  0  0  0  0  0  0  0  0  0
   18.8003  -21.0362  -15.2683 C   0  0  0  0  0  0  0  0  0  0  0  0
   17.6327  -20.9869  -14.7264 O   0  0  0  0  0  0  0  0  0  0  0  0
   19.9069  -21.6956  -14.5521 C   0  0  0  0  0  0  0  0  0  0  0  0
   20.4835  -20.7518  -13.5370 C   0  0  2  0  0  0  0  0  0  0  0  0
   21.5149  -21.3937  -12.7361 N   0  0  0  0  0  0  0  0  0  0  0  0
   19.4079  -20.3388  -12.6171 C   0  0  0  0  0  0  0  0  0  0  0  0
   18.7131  -19.1721  -12.8353 O   0  0  0  0  0  0  0  0  0  0  0  0
   19.0825  -21.0099  -11.6187 O   0  0  0  0  0  0  0  0  0  0  0  0
  2  1  1  6
  2  3  1  0
  3  4  1  0
  4 12  1  0
  4  5  2  0
  5  6  1  0
  7  8  2  0
  7  6  1  0
  9  8  1  0
 10  9  2  0
 11 10  1  0
 11 12  2  0
 12  7  1  0
 13  2  1  0
 13 14  2  0
 16 15  1  1
 16 17  1  0
 16 18  1  0
 18 19  1  6
 19 13  1  0
 20 18  1  0
 21 20  2  0
 23 24  2  0
 23 22  1  0
 25 23  1  0
 26 27  1  0
 26 25  1  6
 27 20  1  0
 28 26  1  0
 29 28  1  0
 30 28  2  0
M  END
$$$$
