WVN.pdb
     RDKit          3D

 30 31  0  0  1  0  0  0  0  0999 V2000
   27.1942  -21.3898  -16.2171 N   0  0  0  0  0  0  0  0  0  0  0  0
   25.9799  -20.7473  -15.8477 C   0  0  1  0  0  0  0  0  0  0  0  0
   25.0189  -20.8339  -17.0289 C   0  0  0  0  0  0  0  0  0  0  0  0
   25.4679  -20.0025  -18.1754 C   0  0  0  0  0  0  0  0  0  0  0  0
   26.3714  -20.3585  -19.1550 C   0  0  0  0  0  0  0  0  0  0  0  0
   26.5542  -19.3233  -20.0042 N   0  0  0  0  0  0  0  0  0  0  0  0
   25.7810  -18.2888  -19.5957 C   0  0  0  0  0  0  0  0  0  0  0  0
   25.6306  -17.0371  -20.1460 C   0  0  0  0  0  0  0  0  0  0  0  0
   24.7650  -16.1334  -19.5537 C   0  0  0  0  0  0  0  0  0  0  0  0
   24.0821  -16.5234  -18.4289 C   0  0  0  0  0  0  0  0  0  0  0  0
   24.2333  -17.7939  -17.8681 C   0  0  0  0  0  0  0  0  0  0  0  0
   25.0931  -18.7035  -18.4478 C   0  0  0  0  0  0  0  0  0  0  0  0
   25.3851  -21.3604  -14.6348 C   0  0  0  0  0  0  0  0  0  0  0  0
   25.1595  -22.5987  -14.6472 O   0  0  0  0  0  0  0  0  0  0  0  0
   23.8928  -21.1261   -9.9648 C   0  0  0  0  0  0  0  0  0  0  0  0
   24.7261  -20.6613  -11.1055 C   0  0  1  0  0  0  0  0  0  0  0  0
   26.1928  -20.9611  -10.9801 C   0  0  0  0  0  0  0  0  0  0  0  0
   24.2180  -21.1707  -12.4546 C   0  0  2  0  0  0  0  0  0  0  0  0
   25.0653  -20.6100  -13.4708 N   0  0  0  0  0  0  0  0  0  0  0  0
   22.7864  -20.9412  -12.6233 C   0  0  0  0  0  0  0  0  0  0  0  0
   22.3270  -19.7648  -12.7825 O   0  0  0  0  0  0  0  0  0  0  0  0
   20.9487  -24.4251  -14.8790 N   0  0  0  0  0  0  0  0  0  0  0  0
   20.2849  -23.1989  -14.6404 C   0  0  0  0  0  0  0  0  0  0  0  0
   20.2715  -22.4006  -15.6511 O   0  0  0  0  0  0  0  0  0  0  0  0
   19.6359  -22.7898  -13.3819 C   0  0  0  0  0  0  0  0  0  0  0  0
   20.4002  -21.6533  -12.7671 C   0  0  2  0  0  0  0  0  0  0  0  0
   21.8129  -21.9729  -12.6281 N   0  0  0  0  0  0  0  0  0  0  0  0
   19.8704  -21.4108  -11.4127 C   0  0  0  0  0  0  0  0  0  0  0  0
   18.5919  -20.9346  -11.2387 O   0  0  0  0  0  0  0  0  0  0  0  0
   20.5389  -21.6196  -10.3820 O   0  0  0  0  0  0  0  0  0  0  0  0
  2  1  1  6
  2  3  1  0
  3  4  1  0
  4 12  1  0
  4  5  2  0
  5  6  1  0
  7  8  2  0
  7  6  1  0
  9  8  1  0
 10  9  2  0
 11 10  1  0
 11 12  2  0
 12  7  1  0
 13  2  1  0
 13 14  2  0
 16 15  1  1
 16 17  1  0
 16 18  1  0
 18 19  1  6
 19 13  1  0
 20 18  1  0
 21 20  2  0
 23 24  2  0
 23 22  1  0
 25 23  1  0
 26 27  1  0
 26 25  1  1
 27 20  1  0
 28 26  1  0
 29 28  1  0
 30 28  2  0
M  END
$$$$
