WVN.pdb
     RDKit          3D

 30 31  0  0  1  0  0  0  0  0999 V2000
   26.3929  -20.1045  -19.0581 N   0  0  0  0  0  0  0  0  0  0  0  0
   25.7137  -19.4717  -17.9801 C   0  0  1  0  0  0  0  0  0  0  0  0
   24.2197  -19.4869  -18.2864 C   0  0  0  0  0  0  0  0  0  0  0  0
   23.8520  -18.4853  -19.3203 C   0  0  0  0  0  0  0  0  0  0  0  0
   23.4703  -18.7377  -20.6215 C   0  0  0  0  0  0  0  0  0  0  0  0
   23.2543  -17.5706  -21.2676 N   0  0  0  0  0  0  0  0  0  0  0  0
   23.4890  -16.5514  -20.4068 C   0  0  0  0  0  0  0  0  0  0  0  0
   23.3937  -15.1942  -20.6095 C   0  0  0  0  0  0  0  0  0  0  0  0
   23.6770  -14.3292  -19.5663 C   0  0  0  0  0  0  0  0  0  0  0  0
   24.0457  -14.8627  -18.3567 C   0  0  0  0  0  0  0  0  0  0  0  0
   24.1434  -16.2406  -18.1485 C   0  0  0  0  0  0  0  0  0  0  0  0
   23.8648  -17.1133  -19.1796 C   0  0  0  0  0  0  0  0  0  0  0  0
   25.9964  -20.1429  -16.6877 C   0  0  0  0  0  0  0  0  0  0  0  0
   25.8819  -21.3953  -16.6335 O   0  0  0  0  0  0  0  0  0  0  0  0
   27.9803  -20.0385  -12.2003 C   0  0  0  0  0  0  0  0  0  0  0  0
   27.7519  -19.4764  -13.5581 C   0  0  1  0  0  0  0  0  0  0  0  0
   28.9521  -19.4986  -14.4613 C   0  0  0  0  0  0  0  0  0  0  0  0
   26.5664  -20.1242  -14.2739 C   0  0  2  0  0  0  0  0  0  0  0  0
   26.3891  -19.4325  -15.5209 N   0  0  0  0  0  0  0  0  0  0  0  0
   25.3864  -20.2041  -13.4185 C   0  0  0  0  0  0  0  0  0  0  0  0
   24.6453  -19.1865  -13.2299 O   0  0  0  0  0  0  0  0  0  0  0  0
   23.1386  -24.0727  -14.1178 N   0  0  0  0  0  0  0  0  0  0  0  0
   22.6588  -23.0120  -13.3142 C   0  0  0  0  0  0  0  0  0  0  0  0
   21.7676  -22.2783  -13.8856 O   0  0  0  0  0  0  0  0  0  0  0  0
   23.0811  -22.7027  -11.9364 C   0  0  0  0  0  0  0  0  0  0  0  0
   23.7816  -21.3751  -11.9101 C   0  0  2  0  0  0  0  0  0  0  0  0
   24.9722  -21.3827  -12.7465 N   0  0  0  0  0  0  0  0  0  0  0  0
   24.2182  -21.1029  -10.5285 C   0  0  0  0  0  0  0  0  0  0  0  0
   25.5502  -21.1692  -10.1920 O   0  0  0  0  0  0  0  0  0  0  0  0
   23.4212  -20.8068   -9.6175 O   0  0  0  0  0  0  0  0  0  0  0  0
  2  1  1  6
  2  3  1  0
  3  4  1  0
  4 12  1  0
  4  5  2  0
  5  6  1  0
  7  8  2  0
  7  6  1  0
  9  8  1  0
 10  9  2  0
 11 10  1  0
 11 12  2  0
 12  7  1  0
 13  2  1  0
 13 14  2  0
 16 15  1  1
 16 17  1  0
 16 18  1  0
 18 19  1  6
 19 13  1  0
 20 18  1  0
 21 20  2  0
 23 24  2  0
 23 22  1  0
 25 23  1  0
 26 27  1  0
 26 25  1  1
 27 20  1  0
 28 26  1  0
 29 28  1  0
 30 28  2  0
M  END
$$$$
