WVN.pdb
     RDKit          3D

 30 31  0  0  1  0  0  0  0  0999 V2000
   17.5477  -11.3447  -14.9100 N   0  0  0  0  0  0  0  0  0  0  0  0
   16.6734  -10.6232  -14.0504 C   0  0  1  0  0  0  0  0  0  0  0  0
   16.7586  -11.2420  -12.6591 C   0  0  0  0  0  0  0  0  0  0  0  0
   15.7877  -12.3526  -12.4822 C   0  0  0  0  0  0  0  0  0  0  0  0
   15.8694  -13.6198  -13.0208 C   0  0  0  0  0  0  0  0  0  0  0  0
   14.7789  -14.3359  -12.6682 N   0  0  0  0  0  0  0  0  0  0  0  0
   13.9793  -13.5551  -11.9028 C   0  0  0  0  0  0  0  0  0  0  0  0
   12.7729  -13.8506  -11.3117 C   0  0  0  0  0  0  0  0  0  0  0  0
   12.1313  -12.8845  -10.5556 C   0  0  0  0  0  0  0  0  0  0  0  0
   12.7284  -11.6560  -10.4220 C   0  0  0  0  0  0  0  0  0  0  0  0
   13.9534  -11.3535  -11.0216 C   0  0  0  0  0  0  0  0  0  0  0  0
   14.6026  -12.3066  -11.7782 C   0  0  0  0  0  0  0  0  0  0  0  0
   17.0157   -9.1802  -14.0103 C   0  0  0  0  0  0  0  0  0  0  0  0
   18.2332   -8.8603  -14.0102 O   0  0  0  0  0  0  0  0  0  0  0  0
   15.8440   -6.4607  -16.2826 C   0  0  0  0  0  0  0  0  0  0  0  0
   15.6134   -5.9890  -14.8912 C   0  0  1  0  0  0  0  0  0  0  0  0
   14.1722   -5.9444  -14.4697 C   0  0  0  0  0  0  0  0  0  0  0  0
   16.4195   -6.7775  -13.8588 C   0  0  2  0  0  0  0  0  0  0  0  0
   16.0308   -8.1561  -13.9739 N   0  0  0  0  0  0  0  0  0  0  0  0
   16.3160   -6.1977  -12.5232 C   0  0  0  0  0  0  0  0  0  0  0  0
   16.7490   -5.0248  -12.2842 O   0  0  0  0  0  0  0  0  0  0  0  0
   15.5803   -5.1563   -7.4902 N   0  0  0  0  0  0  0  0  0  0  0  0
   14.4775   -5.8396   -8.0540 C   0  0  0  0  0  0  0  0  0  0  0  0
   13.4414   -5.8904   -7.2903 O   0  0  0  0  0  0  0  0  0  0  0  0
   14.4288   -6.4641   -9.3882 C   0  0  0  0  0  0  0  0  0  0  0  0
   15.7317   -6.2373  -10.0986 C   0  0  2  0  0  0  0  0  0  0  0  0
   15.7405   -6.8647  -11.4114 N   0  0  0  0  0  0  0  0  0  0  0  0
   16.8105   -6.8585   -9.3087 C   0  0  0  0  0  0  0  0  0  0  0  0
   17.0874   -6.4154   -8.0365 O   0  0  0  0  0  0  0  0  0  0  0  0
   17.5095   -7.7938   -9.7441 O   0  0  0  0  0  0  0  0  0  0  0  0
  2  1  1  6
  2  3  1  0
  3  4  1  0
  4 12  1  0
  4  5  2  0
  5  6  1  0
  7  8  2  0
  7  6  1  0
  9  8  1  0
 10  9  2  0
 11 10  1  0
 11 12  2  0
 12  7  1  0
 13  2  1  0
 13 14  2  0
 16 15  1  6
 16 17  1  0
 16 18  1  0
 18 19  1  1
 19 13  1  0
 20 18  1  0
 21 20  2  0
 23 24  2  0
 23 22  1  0
 25 23  1  0
 26 27  1  0
 26 25  1  1
 27 20  1  0
 28 26  1  0
 29 28  1  0
 30 28  2  0
M  END
$$$$
