WVN.pdb
     RDKit          3D

 30 31  0  0  1  0  0  0  0  0999 V2000
   27.7748  -20.2243   -9.9578 N   0  0  0  0  0  0  0  0  0  0  0  0
   26.6307  -21.0628   -9.8498 C   0  0  1  0  0  0  0  0  0  0  0  0
   26.0379  -20.8795   -8.4566 C   0  0  0  0  0  0  0  0  0  0  0  0
   26.9137  -20.0583   -7.5815 C   0  0  0  0  0  0  0  0  0  0  0  0
   27.4509  -18.8213   -7.8711 C   0  0  0  0  0  0  0  0  0  0  0  0
   28.2267  -18.4097   -6.8440 N   0  0  0  0  0  0  0  0  0  0  0  0
   28.2067  -19.3613   -5.8802 C   0  0  0  0  0  0  0  0  0  0  0  0
   28.8361  -19.3825   -4.6573 C   0  0  0  0  0  0  0  0  0  0  0  0
   28.6607  -20.4719   -3.8210 C   0  0  0  0  0  0  0  0  0  0  0  0
   27.8575  -21.5001   -4.2469 C   0  0  0  0  0  0  0  0  0  0  0  0
   27.2176  -21.4809   -5.4886 C   0  0  0  0  0  0  0  0  0  0  0  0
   27.3846  -20.4021   -6.3316 C   0  0  0  0  0  0  0  0  0  0  0  0
   25.6268  -20.7539  -10.8975 C   0  0  0  0  0  0  0  0  0  0  0  0
   25.3524  -19.5451  -11.1166 O   0  0  0  0  0  0  0  0  0  0  0  0
   23.6696  -22.2232  -15.1218 C   0  0  0  0  0  0  0  0  0  0  0  0
   24.5258  -22.3935  -13.9178 C   0  0  1  0  0  0  0  0  0  0  0  0
   26.0039  -22.3466  -14.1817 C   0  0  0  0  0  0  0  0  0  0  0  0
   24.1784  -21.4080  -12.8017 C   0  0  2  0  0  0  0  0  0  0  0  0
   24.9713  -21.7612  -11.6565 N   0  0  0  0  0  0  0  0  0  0  0  0
   22.7390  -21.3211  -12.5754 C   0  0  0  0  0  0  0  0  0  0  0  0
   22.1408  -22.1680  -11.8371 O   0  0  0  0  0  0  0  0  0  0  0  0
   19.7472  -17.0457  -11.6144 N   0  0  0  0  0  0  0  0  0  0  0  0
   19.3000  -18.2878  -12.1225 C   0  0  0  0  0  0  0  0  0  0  0  0
   18.3124  -18.7992  -11.4728 O   0  0  0  0  0  0  0  0  0  0  0  0
   19.8525  -19.0027  -13.2870 C   0  0  0  0  0  0  0  0  0  0  0  0
   20.4837  -20.2881  -12.8362 C   0  0  2  0  0  0  0  0  0  0  0  0
   21.9072  -20.3180  -13.1358 N   0  0  0  0  0  0  0  0  0  0  0  0
   19.8573  -21.4012  -13.5726 C   0  0  0  0  0  0  0  0  0  0  0  0
   20.3739  -21.8191  -14.7768 O   0  0  0  0  0  0  0  0  0  0  0  0
   18.8517  -22.0046  -13.1512 O   0  0  0  0  0  0  0  0  0  0  0  0
  2  1  1  6
  2  3  1  0
  3  4  1  0
  4 12  1  0
  4  5  2  0
  5  6  1  0
  7  8  2  0
  7  6  1  0
  9  8  1  0
 10  9  2  0
 11 10  1  0
 11 12  2  0
 12  7  1  0
 13  2  1  0
 13 14  2  0
 16 15  1  6
 16 17  1  0
 16 18  1  0
 18 19  1  1
 19 13  1  0
 20 18  1  0
 21 20  2  0
 23 24  2  0
 23 22  1  0
 25 23  1  0
 26 27  1  0
 26 25  1  6
 27 20  1  0
 28 26  1  0
 29 28  1  0
 30 28  2  0
M  END
$$$$
