WVN.pdb
     RDKit          3D

 30 31  0  0  1  0  0  0  0  0999 V2000
   28.3389  -21.4484  -10.6241 N   0  0  0  0  0  0  0  0  0  0  0  0
   27.0506  -21.0320  -10.1875 C   0  0  1  0  0  0  0  0  0  0  0  0
   27.2181  -19.7646   -9.3558 C   0  0  0  0  0  0  0  0  0  0  0  0
   28.2591  -19.9192   -8.3071 C   0  0  0  0  0  0  0  0  0  0  0  0
   29.6094  -20.1228   -8.5020 C   0  0  0  0  0  0  0  0  0  0  0  0
   30.2273  -20.2548   -7.3074 N   0  0  0  0  0  0  0  0  0  0  0  0
   29.2996  -20.1399   -6.3270 C   0  0  0  0  0  0  0  0  0  0  0  0
   29.4564  -20.1984   -4.9617 C   0  0  0  0  0  0  0  0  0  0  0  0
   28.3509  -20.0426   -4.1430 C   0  0  0  0  0  0  0  0  0  0  0  0
   27.1277  -19.8333   -4.7292 C   0  0  0  0  0  0  0  0  0  0  0  0
   26.9660  -19.7737   -6.1156 C   0  0  0  0  0  0  0  0  0  0  0  0
   28.0590  -19.9283   -6.9426 C   0  0  0  0  0  0  0  0  0  0  0  0
   26.1359  -20.7976  -11.3317 C   0  0  0  0  0  0  0  0  0  0  0  0
   26.4585  -19.9238  -12.1783 O   0  0  0  0  0  0  0  0  0  0  0  0
   23.1807  -22.6536  -14.6040 C   0  0  0  0  0  0  0  0  0  0  0  0
   24.0825  -22.6744  -13.4216 C   0  0  1  0  0  0  0  0  0  0  0  0
   25.4824  -23.1411  -13.7027 C   0  0  0  0  0  0  0  0  0  0  0  0
   24.1324  -21.3312  -12.6930 C   0  0  2  0  0  0  0  0  0  0  0  0
   24.9223  -21.5165  -11.5069 N   0  0  0  0  0  0  0  0  0  0  0  0
   22.8011  -20.7687  -12.4882 C   0  0  0  0  0  0  0  0  0  0  0  0
   22.0943  -21.1095  -11.4859 O   0  0  0  0  0  0  0  0  0  0  0  0
   18.9511  -16.4757  -12.4474 N   0  0  0  0  0  0  0  0  0  0  0  0
   19.3513  -17.4156  -13.4258 C   0  0  0  0  0  0  0  0  0  0  0  0
   18.3877  -17.8609  -14.1554 O   0  0  0  0  0  0  0  0  0  0  0  0
   20.7244  -17.8963  -13.6624 C   0  0  0  0  0  0  0  0  0  0  0  0
   20.9007  -19.2477  -13.0327 C   0  0  2  0  0  0  0  0  0  0  0  0
   22.1979  -19.8223  -13.3557 N   0  0  0  0  0  0  0  0  0  0  0  0
   19.8724  -20.1548  -13.5745 C   0  0  0  0  0  0  0  0  0  0  0  0
   18.7069  -20.3819  -12.8804 O   0  0  0  0  0  0  0  0  0  0  0  0
   20.0048  -20.7478  -14.6625 O   0  0  0  0  0  0  0  0  0  0  0  0
  2  1  1  6
  2  3  1  0
  3  4  1  0
  4 12  1  0
  4  5  2  0
  5  6  1  0
  7  8  2  0
  7  6  1  0
  9  8  1  0
 10  9  2  0
 11 10  1  0
 11 12  2  0
 12  7  1  0
 13  2  1  0
 13 14  2  0
 16 15  1  6
 16 17  1  0
 16 18  1  0
 18 19  1  1
 19 13  1  0
 20 18  1  0
 21 20  2  0
 23 24  2  0
 23 22  1  0
 25 23  1  0
 26 27  1  0
 26 25  1  6
 27 20  1  0
 28 26  1  0
 29 28  1  0
 30 28  2  0
M  END
$$$$
