WDH.pdb
     RDKit          3D

 33 35  0  0  1  0  0  0  0  0999 V2000
    7.1169  -17.4073   21.0964 N   0  0  0  0  0  0  0  0  0  0  0  0
    7.7704  -16.3069   21.8097 C   0  0  1  0  0  0  0  0  0  0  0  0
    6.7434  -15.6183   22.7189 C   0  0  0  0  0  0  0  0  0  0  0  0
    7.1660  -14.2424   23.0476 C   0  0  0  0  0  0  0  0  0  0  0  0
    7.7371  -13.2732   22.2454 C   0  0  0  0  0  0  0  0  0  0  0  0
    7.9504  -12.1770   22.9824 N   0  0  0  0  0  0  0  0  0  0  0  0
    7.5405  -12.3751   24.2609 C   0  0  0  0  0  0  0  0  0  0  0  0
    7.5482  -11.5665   25.3713 C   0  0  0  0  0  0  0  0  0  0  0  0
    7.0531  -12.0583   26.5546 C   0  0  0  0  0  0  0  0  0  0  0  0
    6.5531  -13.3375   26.6483 C   0  0  0  0  0  0  0  0  0  0  0  0
    6.5617  -14.1192   25.5148 C   0  0  0  0  0  0  0  0  0  0  0  0
    7.0484  -13.6726   24.2991 C   0  0  0  0  0  0  0  0  0  0  0  0
    8.8013  -16.8610   22.7261 C   0  0  0  0  0  0  0  0  0  0  0  0
    8.5156  -17.8419   23.4570 O   0  0  0  0  0  0  0  0  0  0  0  0
   10.1228  -16.3371   22.8292 N   0  0  0  0  0  0  0  0  0  0  0  0
   11.1255  -16.8663   23.7037 C   0  0  1  0  0  0  0  0  0  0  0  0
   12.4250  -16.1279   23.4588 C   0  0  0  0  0  0  0  0  0  0  0  0
   13.6061  -16.8203   23.9911 C   0  0  0  0  0  0  0  0  0  0  0  0
   13.5908  -17.9254   24.5914 O   0  0  0  0  0  0  0  0  0  0  0  0
   10.7056  -16.7655   25.1183 C   0  0  0  0  0  0  0  0  0  0  0  0
    9.6840  -16.1435   25.4978 O   0  0  0  0  0  0  0  0  0  0  0  0
   14.9003  -16.2710   23.8618 O   0  0  0  0  0  0  0  0  0  0  0  0
   11.4950  -17.4037   26.1041 N   0  0  0  0  0  0  0  0  0  0  0  0
   10.8356  -18.0834   27.2126 C   0  0  1  0  0  0  0  0  0  0  0  0
   10.3383  -19.4441   26.8012 C   0  0  0  0  0  0  0  0  0  0  0  0
    8.9127  -19.3646   26.4056 C   0  0  0  0  0  0  0  0  0  0  0  0
    8.1303  -18.2027   26.4571 C   0  0  0  0  0  0  0  0  0  0  0  0
    6.8957  -18.5090   26.0261 N   0  0  0  0  0  0  0  0  0  0  0  0
    6.8568  -19.8122   25.7029 C   0  0  0  0  0  0  0  0  0  0  0  0
    8.0834  -20.3042   25.9406 N   0  0  0  0  0  0  0  0  0  0  0  0
   11.8344  -18.2498   28.2869 C   0  0  0  0  0  0  0  0  0  0  0  0
   13.1280  -17.7968   28.0744 O   0  0  0  0  0  0  0  0  0  0  0  0
   11.5881  -18.7860   29.4070 O   0  0  0  0  0  0  0  0  0  0  0  0
  2  1  1  1
  3  2  1  0
  4  3  1  0
  4  5  2  0
  6  5  1  0
  7  6  1  0
  8  7  2  0
  9  8  1  0
 10  9  2  0
 10 11  1  0
 11 12  2  0
 12  7  1  0
 12  4  1  0
 13  2  1  0
 13 14  2  0
 15 13  1  0
 16 15  1  0
 16 17  1  1
 18 17  1  0
 18 22  1  0
 19 18  2  0
 20 16  1  0
 21 20  2  0
 23 20  1  0
 24 23  1  0
 25 26  1  0
 24 25  1  6
 26 27  2  0
 27 28  1  0
 29 28  1  0
 30 26  1  0
 30 29  2  0
 31 32  1  0
 31 24  1  0
 33 31  2  0
M  END
$$$$
