WDH.pdb
     RDKit          3D

 33 35  0  0  1  0  0  0  0  0999 V2000
   10.2495  -15.5772   22.8315 N   0  0  0  0  0  0  0  0  0  0  0  0
    9.3165  -15.9929   23.8819 C   0  0  1  0  0  0  0  0  0  0  0  0
    7.8807  -15.8770   23.3522 C   0  0  0  0  0  0  0  0  0  0  0  0
    7.4723  -14.4630   23.2352 C   0  0  0  0  0  0  0  0  0  0  0  0
    7.3492  -13.6640   22.1148 C   0  0  0  0  0  0  0  0  0  0  0  0
    6.9501  -12.4457   22.4982 N   0  0  0  0  0  0  0  0  0  0  0  0
    6.7991  -12.3959   23.8460 C   0  0  0  0  0  0  0  0  0  0  0  0
    6.4146  -11.3893   24.6978 C   0  0  0  0  0  0  0  0  0  0  0  0
    6.3535  -11.6468   26.0458 C   0  0  0  0  0  0  0  0  0  0  0  0
    6.6683  -12.8861   26.5558 C   0  0  0  0  0  0  0  0  0  0  0  0
    7.0497  -13.8707   25.6720 C   0  0  0  0  0  0  0  0  0  0  0  0
    7.1275  -13.6637   24.3063 C   0  0  0  0  0  0  0  0  0  0  0  0
    9.5161  -17.4373   24.1708 C   0  0  0  0  0  0  0  0  0  0  0  0
   10.5889  -17.9936   23.8282 O   0  0  0  0  0  0  0  0  0  0  0  0
    8.5446  -18.2479   24.8270 N   0  0  0  0  0  0  0  0  0  0  0  0
    8.7512  -18.8682   26.1008 C   0  0  1  0  0  0  0  0  0  0  0  0
    7.6661  -19.9015   26.3217 C   0  0  0  0  0  0  0  0  0  0  0  0
    7.8705  -20.7243   27.5213 C   0  0  0  0  0  0  0  0  0  0  0  0
    8.3501  -21.8869   27.5312 O   0  0  0  0  0  0  0  0  0  0  0  0
   10.0982  -19.4731   26.1865 C   0  0  0  0  0  0  0  0  0  0  0  0
   10.3255  -20.6933   26.0019 O   0  0  0  0  0  0  0  0  0  0  0  0
    7.5282  -20.2485   28.8057 O   0  0  0  0  0  0  0  0  0  0  0  0
   11.1964  -18.6352   26.4931 N   0  0  0  0  0  0  0  0  0  0  0  0
   11.5686  -18.4330   27.8881 C   0  0  1  0  0  0  0  0  0  0  0  0
   10.4236  -17.8610   28.6819 C   0  0  0  0  0  0  0  0  0  0  0  0
   10.3324  -16.3991   28.4587 C   0  0  0  0  0  0  0  0  0  0  0  0
   11.1652  -15.6655   27.6025 C   0  0  0  0  0  0  0  0  0  0  0  0
   10.7915  -14.3767   27.6565 N   0  0  0  0  0  0  0  0  0  0  0  0
    9.7593  -14.2567   28.5077 C   0  0  0  0  0  0  0  0  0  0  0  0
    9.5026  -15.4883   28.9771 N   0  0  0  0  0  0  0  0  0  0  0  0
   11.9196  -19.7529   28.4485 C   0  0  0  0  0  0  0  0  0  0  0  0
   12.7282  -20.6015   27.7069 O   0  0  0  0  0  0  0  0  0  0  0  0
   11.5276  -20.1708   29.5773 O   0  0  0  0  0  0  0  0  0  0  0  0
  2  1  1  6
  3  2  1  0
  4  3  1  0
  4  5  2  0
  6  5  1  0
  7  6  1  0
  8  7  2  0
  9  8  1  0
 10  9  2  0
 10 11  1  0
 11 12  2  0
 12  7  1  0
 12  4  1  0
 13  2  1  0
 13 14  2  0
 15 13  1  0
 16 15  1  0
 16 17  1  6
 18 17  1  0
 18 22  1  0
 19 18  2  0
 20 16  1  0
 21 20  2  0
 23 20  1  0
 24 23  1  0
 25 26  1  0
 24 25  1  1
 26 27  2  0
 27 28  1  0
 29 28  1  0
 30 26  1  0
 30 29  2  0
 31 32  1  0
 31 24  1  0
 33 31  2  0
M  END
$$$$
