WDH.pdb
     RDKit          3D

 33 35  0  0  1  0  0  0  0  0999 V2000
    6.4881  -17.4251   24.3234 N   0  0  0  0  0  0  0  0  0  0  0  0
    7.4842  -16.4513   23.8691 C   0  0  1  0  0  0  0  0  0  0  0  0
    7.9747  -15.6363   25.0736 C   0  0  0  0  0  0  0  0  0  0  0  0
    6.9816  -14.6149   25.4612 C   0  0  0  0  0  0  0  0  0  0  0  0
    5.7396  -14.7616   26.0486 C   0  0  0  0  0  0  0  0  0  0  0  0
    5.1960  -13.5499   26.2114 N   0  0  0  0  0  0  0  0  0  0  0  0
    6.0334  -12.5861   25.7513 C   0  0  0  0  0  0  0  0  0  0  0  0
    5.9296  -11.2174   25.6990 C   0  0  0  0  0  0  0  0  0  0  0  0
    6.9671  -10.4925   25.1647 C   0  0  0  0  0  0  0  0  0  0  0  0
    8.1010  -11.1074   24.6840 C   0  0  0  0  0  0  0  0  0  0  0  0
    8.1698  -12.4809   24.7528 C   0  0  0  0  0  0  0  0  0  0  0  0
    7.1537  -13.2574   25.2809 C   0  0  0  0  0  0  0  0  0  0  0  0
    8.6819  -17.1741   23.3665 C   0  0  0  0  0  0  0  0  0  0  0  0
    9.0371  -18.2431   23.9222 O   0  0  0  0  0  0  0  0  0  0  0  0
    9.4696  -16.7195   22.2689 N   0  0  0  0  0  0  0  0  0  0  0  0
   10.8119  -17.1495   22.0174 C   0  0  1  0  0  0  0  0  0  0  0  0
   11.1880  -16.7699   20.6001 C   0  0  0  0  0  0  0  0  0  0  0  0
   12.4683  -17.3379   20.1574 C   0  0  0  0  0  0  0  0  0  0  0  0
   12.6389  -18.0160   19.1120 O   0  0  0  0  0  0  0  0  0  0  0  0
   11.7511  -16.5660   22.9998 C   0  0  0  0  0  0  0  0  0  0  0  0
   12.0054  -15.3395   23.0752 O   0  0  0  0  0  0  0  0  0  0  0  0
   13.6511  -17.1557   20.9064 O   0  0  0  0  0  0  0  0  0  0  0  0
   12.4027  -17.4332   23.9085 N   0  0  0  0  0  0  0  0  0  0  0  0
   12.4308  -17.0881   25.3246 C   0  0  1  0  0  0  0  0  0  0  0  0
   11.0383  -16.9607   25.8840 C   0  0  0  0  0  0  0  0  0  0  0  0
   11.0996  -16.5887   27.3169 C   0  0  0  0  0  0  0  0  0  0  0  0
   12.2812  -16.3659   28.0372 C   0  0  0  0  0  0  0  0  0  0  0  0
   11.9496  -16.0518   29.3002 N   0  0  0  0  0  0  0  0  0  0  0  0
   10.6114  -16.0645   29.4163 C   0  0  0  0  0  0  0  0  0  0  0  0
   10.1236  -16.3907   28.2085 N   0  0  0  0  0  0  0  0  0  0  0  0
   13.1267  -18.1807   26.0328 C   0  0  0  0  0  0  0  0  0  0  0  0
   14.1251  -17.8608   26.9410 O   0  0  0  0  0  0  0  0  0  0  0  0
   12.8713  -19.4094   25.8660 O   0  0  0  0  0  0  0  0  0  0  0  0
  2  1  1  1
  3  2  1  0
  4  3  1  0
  4  5  2  0
  6  5  1  0
  7  6  1  0
  8  7  2  0
  9  8  1  0
 10  9  2  0
 10 11  1  0
 11 12  2  0
 12  7  1  0
 12  4  1  0
 13  2  1  0
 13 14  2  0
 15 13  1  0
 16 15  1  0
 16 17  1  6
 18 17  1  0
 18 22  1  0
 19 18  2  0
 20 16  1  0
 21 20  2  0
 23 20  1  0
 24 23  1  0
 25 26  1  0
 24 25  1  1
 26 27  2  0
 27 28  1  0
 29 28  1  0
 30 26  1  0
 30 29  2  0
 31 32  1  0
 31 24  1  0
 33 31  2  0
M  END
$$$$
