WDH.pdb
     RDKit          3D

 33 35  0  0  1  0  0  0  0  0999 V2000
    7.9948  -16.7248   22.1139 N   0  0  0  0  0  0  0  0  0  0  0  0
    8.9349  -16.1389   23.0728 C   0  0  1  0  0  0  0  0  0  0  0  0
    8.1746  -15.7526   24.3488 C   0  0  0  0  0  0  0  0  0  0  0  0
    7.3977  -14.5134   24.1473 C   0  0  0  0  0  0  0  0  0  0  0  0
    6.6400  -14.1061   23.0661 C   0  0  0  0  0  0  0  0  0  0  0  0
    6.1189  -12.9036   23.3357 N   0  0  0  0  0  0  0  0  0  0  0  0
    6.5015  -12.4839   24.5684 C   0  0  0  0  0  0  0  0  0  0  0  0
    6.2327  -11.3415   25.2820 C   0  0  0  0  0  0  0  0  0  0  0  0
    6.7754  -11.1984   26.5360 C   0  0  0  0  0  0  0  0  0  0  0  0
    7.5781  -12.1715   27.0871 C   0  0  0  0  0  0  0  0  0  0  0  0
    7.8259  -13.3029   26.3425 C   0  0  0  0  0  0  0  0  0  0  0  0
    7.3043  -13.4965   25.0757 C   0  0  0  0  0  0  0  0  0  0  0  0
    9.9142  -17.1748   23.4941 C   0  0  0  0  0  0  0  0  0  0  0  0
    9.4986  -18.2744   23.9368 O   0  0  0  0  0  0  0  0  0  0  0  0
   11.3263  -16.9939   23.4254 N   0  0  0  0  0  0  0  0  0  0  0  0
   12.2765  -17.9120   23.9769 C   0  0  1  0  0  0  0  0  0  0  0  0
   13.5930  -17.7491   23.2457 C   0  0  0  0  0  0  0  0  0  0  0  0
   14.5876  -18.7751   23.5862 C   0  0  0  0  0  0  0  0  0  0  0  0
   14.3241  -19.9289   24.0115 O   0  0  0  0  0  0  0  0  0  0  0  0
   12.4376  -17.7020   25.4320 C   0  0  0  0  0  0  0  0  0  0  0  0
   13.1402  -16.7888   25.9292 O   0  0  0  0  0  0  0  0  0  0  0  0
   15.9716  -18.5288   23.4549 O   0  0  0  0  0  0  0  0  0  0  0  0
   11.7649  -18.5755   26.3190 N   0  0  0  0  0  0  0  0  0  0  0  0
   11.9846  -18.4395   27.7538 C   0  0  1  0  0  0  0  0  0  0  0  0
   10.7493  -17.9324   28.4502 C   0  0  0  0  0  0  0  0  0  0  0  0
   10.6421  -16.4636   28.2870 C   0  0  0  0  0  0  0  0  0  0  0  0
   11.6075  -15.6528   27.6745 C   0  0  0  0  0  0  0  0  0  0  0  0
   11.1722  -14.3827   27.7099 N   0  0  0  0  0  0  0  0  0  0  0  0
    9.9744  -14.3485   28.3168 C   0  0  0  0  0  0  0  0  0  0  0  0
    9.6780  -15.6139   28.6546 N   0  0  0  0  0  0  0  0  0  0  0  0
   12.3082  -19.7798   28.2811 C   0  0  0  0  0  0  0  0  0  0  0  0
   12.3667  -20.8497   27.4003 O   0  0  0  0  0  0  0  0  0  0  0  0
   12.5400  -20.0246   29.5014 O   0  0  0  0  0  0  0  0  0  0  0  0
  2  1  1  6
  3  2  1  0
  4  3  1  0
  4  5  2  0
  6  5  1  0
  7  6  1  0
  8  7  2  0
  9  8  1  0
 10  9  2  0
 10 11  1  0
 11 12  2  0
 12  7  1  0
 12  4  1  0
 13  2  1  0
 13 14  2  0
 15 13  1  0
 16 15  1  0
 16 17  1  6
 18 17  1  0
 18 22  1  0
 19 18  2  0
 20 16  1  0
 21 20  2  0
 23 20  1  0
 24 23  1  0
 25 26  1  0
 24 25  1  1
 26 27  2  0
 27 28  1  0
 29 28  1  0
 30 26  1  0
 30 29  2  0
 31 32  1  0
 31 24  1  0
 33 31  2  0
M  END
$$$$
