WDH.pdb
     RDKit          3D

 33 35  0  0  1  0  0  0  0  0999 V2000
    7.0457  -17.0988   22.5544 N   0  0  0  0  0  0  0  0  0  0  0  0
    8.0534  -16.2304   21.9402 C   0  0  1  0  0  0  0  0  0  0  0  0
    7.8083  -14.7829   22.3876 C   0  0  0  0  0  0  0  0  0  0  0  0
    7.1827  -14.7409   23.7242 C   0  0  0  0  0  0  0  0  0  0  0  0
    6.4461  -15.7013   24.3907 C   0  0  0  0  0  0  0  0  0  0  0  0
    6.0814  -15.2126   25.5817 N   0  0  0  0  0  0  0  0  0  0  0  0
    6.5494  -13.9488   25.7419 C   0  0  0  0  0  0  0  0  0  0  0  0
    6.4424  -13.0456   26.7711 C   0  0  0  0  0  0  0  0  0  0  0  0
    7.0382  -11.8147   26.6395 C   0  0  0  0  0  0  0  0  0  0  0  0
    7.7357  -11.4716   25.5033 C   0  0  0  0  0  0  0  0  0  0  0  0
    7.8218  -12.4023   24.4922 C   0  0  0  0  0  0  0  0  0  0  0  0
    7.2405  -13.6551   24.5742 C   0  0  0  0  0  0  0  0  0  0  0  0
    9.3956  -16.5865   22.4705 C   0  0  0  0  0  0  0  0  0  0  0  0
   10.3156  -16.8896   21.6709 O   0  0  0  0  0  0  0  0  0  0  0  0
    9.7104  -16.6057   23.8605 N   0  0  0  0  0  0  0  0  0  0  0  0
   11.0015  -16.9385   24.3822 C   0  0  1  0  0  0  0  0  0  0  0  0
   11.9814  -15.8531   23.9874 C   0  0  0  0  0  0  0  0  0  0  0  0
   13.1112  -16.3416   23.1856 C   0  0  0  0  0  0  0  0  0  0  0  0
   13.5224  -15.8205   22.1174 O   0  0  0  0  0  0  0  0  0  0  0  0
   10.9538  -17.1148   25.8499 C   0  0  0  0  0  0  0  0  0  0  0  0
   10.8952  -16.1611   26.6633 O   0  0  0  0  0  0  0  0  0  0  0  0
   13.8487  -17.4814   23.5732 O   0  0  0  0  0  0  0  0  0  0  0  0
   10.9751  -18.4294   26.3731 N   0  0  0  0  0  0  0  0  0  0  0  0
   10.6897  -18.6361   27.7878 C   0  0  1  0  0  0  0  0  0  0  0  0
    9.8572  -19.8727   28.0024 C   0  0  0  0  0  0  0  0  0  0  0  0
    8.5739  -19.7530   27.2716 C   0  0  0  0  0  0  0  0  0  0  0  0
    7.8654  -18.5578   27.0867 C   0  0  0  0  0  0  0  0  0  0  0  0
    6.7550  -18.8330   26.3831 N   0  0  0  0  0  0  0  0  0  0  0  0
    6.7246  -20.1483   26.1120 C   0  0  0  0  0  0  0  0  0  0  0  0
    7.8306  -20.6791   26.6580 N   0  0  0  0  0  0  0  0  0  0  0  0
   11.9823  -18.8104   28.4792 C   0  0  0  0  0  0  0  0  0  0  0  0
   13.1510  -18.7752   27.7329 O   0  0  0  0  0  0  0  0  0  0  0  0
   12.1002  -18.9927   29.7265 O   0  0  0  0  0  0  0  0  0  0  0  0
  2  1  1  1
  3  2  1  0
  4  3  1  0
  4  5  2  0
  6  5  1  0
  7  6  1  0
  8  7  2  0
  9  8  1  0
 10  9  2  0
 10 11  1  0
 11 12  2  0
 12  7  1  0
 12  4  1  0
 13  2  1  0
 13 14  2  0
 15 13  1  0
 16 15  1  0
 16 17  1  1
 18 17  1  0
 18 22  1  0
 19 18  2  0
 20 16  1  0
 21 20  2  0
 23 20  1  0
 24 23  1  0
 25 26  1  0
 24 25  1  6
 26 27  2  0
 27 28  1  0
 29 28  1  0
 30 26  1  0
 30 29  2  0
 31 32  1  0
 31 24  1  0
 33 31  2  0
M  END
$$$$
