WDH.pdb
     RDKit          3D

 33 35  0  0  1  0  0  0  0  0999 V2000
    7.1683  -17.4056   23.7541 N   0  0  0  0  0  0  0  0  0  0  0  0
    8.1952  -16.4087   23.4407 C   0  0  1  0  0  0  0  0  0  0  0  0
    8.5641  -15.6485   24.7220 C   0  0  0  0  0  0  0  0  0  0  0  0
    7.4129  -14.8753   25.2286 C   0  0  0  0  0  0  0  0  0  0  0  0
    6.1378  -15.2934   25.5575 C   0  0  0  0  0  0  0  0  0  0  0  0
    5.4325  -14.2347   25.9722 N   0  0  0  0  0  0  0  0  0  0  0  0
    6.1926  -13.1110   25.9338 C   0  0  0  0  0  0  0  0  0  0  0  0
    5.9268  -11.8022   26.2549 C   0  0  0  0  0  0  0  0  0  0  0  0
    6.9225  -10.8670   26.1089 C   0  0  0  0  0  0  0  0  0  0  0  0
    8.1730  -11.2141   25.6499 C   0  0  0  0  0  0  0  0  0  0  0  0
    8.4030  -12.5354   25.3378 C   0  0  0  0  0  0  0  0  0  0  0  0
    7.4355  -13.5160   25.4667 C   0  0  0  0  0  0  0  0  0  0  0  0
    9.4404  -17.1036   23.0208 C   0  0  0  0  0  0  0  0  0  0  0  0
    9.6712  -18.2652   23.4393 O   0  0  0  0  0  0  0  0  0  0  0  0
   10.4099  -16.5209   22.1535 N   0  0  0  0  0  0  0  0  0  0  0  0
   11.7275  -17.0470   21.9609 C   0  0  1  0  0  0  0  0  0  0  0  0
   12.4252  -16.2345   20.8899 C   0  0  0  0  0  0  0  0  0  0  0  0
   12.1295  -16.6831   19.5228 C   0  0  0  0  0  0  0  0  0  0  0  0
   12.5466  -16.1326   18.4718 O   0  0  0  0  0  0  0  0  0  0  0  0
   12.4931  -17.0427   23.2264 C   0  0  0  0  0  0  0  0  0  0  0  0
   12.7338  -16.0051   23.8900 O   0  0  0  0  0  0  0  0  0  0  0  0
   11.3200  -17.8139   19.2796 O   0  0  0  0  0  0  0  0  0  0  0  0
   12.9844  -18.2733   23.7226 N   0  0  0  0  0  0  0  0  0  0  0  0
   13.8102  -18.2766   24.9241 C   0  0  1  0  0  0  0  0  0  0  0  0
   13.5461  -19.4975   25.7655 C   0  0  0  0  0  0  0  0  0  0  0  0
   12.2917  -19.3217   26.5343 C   0  0  0  0  0  0  0  0  0  0  0  0
   11.5974  -18.1115   26.6693 C   0  0  0  0  0  0  0  0  0  0  0  0
   10.5144  -18.3322   27.4324 N   0  0  0  0  0  0  0  0  0  0  0  0
   10.4879  -19.6271   27.7889 C   0  0  0  0  0  0  0  0  0  0  0  0
   11.5688  -20.2005   27.2355 N   0  0  0  0  0  0  0  0  0  0  0  0
   15.2214  -18.2969   24.4914 C   0  0  0  0  0  0  0  0  0  0  0  0
   16.2180  -18.2499   25.4550 O   0  0  0  0  0  0  0  0  0  0  0  0
   15.5913  -18.3552   23.2820 O   0  0  0  0  0  0  0  0  0  0  0  0
  2  1  1  1
  3  2  1  0
  4  3  1  0
  4  5  2  0
  6  5  1  0
  7  6  1  0
  8  7  2  0
  9  8  1  0
 10  9  2  0
 10 11  1  0
 11 12  2  0
 12  7  1  0
 12  4  1  0
 13  2  1  0
 13 14  2  0
 15 13  1  0
 16 15  1  0
 16 17  1  6
 18 17  1  0
 18 22  1  0
 19 18  2  0
 20 16  1  0
 21 20  2  0
 23 20  1  0
 24 23  1  0
 25 26  1  0
 24 25  1  1
 26 27  2  0
 27 28  1  0
 29 28  1  0
 30 26  1  0
 30 29  2  0
 31 32  1  0
 31 24  1  0
 33 31  2  0
M  END
$$$$
