WDH.pdb
     RDKit          3D

 33 35  0  0  1  0  0  0  0  0999 V2000
    7.5040  -17.3633   24.0201 N   0  0  0  0  0  0  0  0  0  0  0  0
    8.4111  -16.2666   23.6721 C   0  0  1  0  0  0  0  0  0  0  0  0
    8.7318  -15.4600   24.9379 C   0  0  0  0  0  0  0  0  0  0  0  0
    7.5188  -14.8105   25.4731 C   0  0  0  0  0  0  0  0  0  0  0  0
    6.3649  -15.3703   25.9872 C   0  0  0  0  0  0  0  0  0  0  0  0
    5.5344  -14.3856   26.3490 N   0  0  0  0  0  0  0  0  0  0  0  0
    6.0918  -13.1746   26.0950 C   0  0  0  0  0  0  0  0  0  0  0  0
    5.6432  -11.8905   26.2865 C   0  0  0  0  0  0  0  0  0  0  0  0
    6.4534  -10.8425   25.9225 C   0  0  0  0  0  0  0  0  0  0  0  0
    7.6979  -11.0532   25.3731 C   0  0  0  0  0  0  0  0  0  0  0  0
    8.1141  -12.3537   25.1957 C   0  0  0  0  0  0  0  0  0  0  0  0
    7.3376  -13.4442   25.5451 C   0  0  0  0  0  0  0  0  0  0  0  0
    9.7110  -16.8301   23.2223 C   0  0  0  0  0  0  0  0  0  0  0  0
    9.9687  -18.0400   23.4401 O   0  0  0  0  0  0  0  0  0  0  0  0
   10.7049  -16.0660   22.5441 N   0  0  0  0  0  0  0  0  0  0  0  0
   11.9048  -16.6234   21.9968 C   0  0  1  0  0  0  0  0  0  0  0  0
   12.2537  -15.8768   20.7259 C   0  0  0  0  0  0  0  0  0  0  0  0
   13.4772  -16.3622   20.0738 C   0  0  0  0  0  0  0  0  0  0  0  0
   14.4011  -15.6337   19.6295 O   0  0  0  0  0  0  0  0  0  0  0  0
   13.0121  -16.5694   22.9758 C   0  0  0  0  0  0  0  0  0  0  0  0
   14.0095  -17.3300   22.9402 O   0  0  0  0  0  0  0  0  0  0  0  0
   13.7143  -17.7418   19.8905 O   0  0  0  0  0  0  0  0  0  0  0  0
   12.9500  -15.6091   24.0132 N   0  0  0  0  0  0  0  0  0  0  0  0
   13.1795  -16.0330   25.3891 C   0  0  1  0  0  0  0  0  0  0  0  0
   12.0400  -16.8757   25.8987 C   0  0  0  0  0  0  0  0  0  0  0  0
   11.2140  -16.0917   26.8466 C   0  0  0  0  0  0  0  0  0  0  0  0
   11.4575  -14.7600   27.2101 C   0  0  0  0  0  0  0  0  0  0  0  0
   10.5099  -14.3840   28.0844 N   0  0  0  0  0  0  0  0  0  0  0  0
    9.6750  -15.4152   28.2937 C   0  0  0  0  0  0  0  0  0  0  0  0
   10.1210  -16.4309   27.5370 N   0  0  0  0  0  0  0  0  0  0  0  0
   14.4116  -16.8460   25.4021 C   0  0  0  0  0  0  0  0  0  0  0  0
   14.3635  -18.1425   24.9113 O   0  0  0  0  0  0  0  0  0  0  0  0
   15.5274  -16.4355   25.8372 O   0  0  0  0  0  0  0  0  0  0  0  0
  2  1  1  1
  3  2  1  0
  4  3  1  0
  4  5  2  0
  6  5  1  0
  7  6  1  0
  8  7  2  0
  9  8  1  0
 10  9  2  0
 10 11  1  0
 11 12  2  0
 12  7  1  0
 12  4  1  0
 13  2  1  0
 13 14  2  0
 15 13  1  0
 16 15  1  0
 16 17  1  6
 18 17  1  0
 18 22  1  0
 19 18  2  0
 20 16  1  0
 21 20  2  0
 23 20  1  0
 24 23  1  0
 25 26  1  0
 24 25  1  6
 26 27  2  0
 27 28  1  0
 29 28  1  0
 30 26  1  0
 30 29  2  0
 31 32  1  0
 31 24  1  0
 33 31  2  0
M  END
$$$$
