WDH.pdb
     RDKit          3D

 33 35  0  0  1  0  0  0  0  0999 V2000
    7.6023  -17.7841   25.9874 N   0  0  0  0  0  0  0  0  0  0  0  0
    6.8365  -17.5042   24.7700 C   0  0  1  0  0  0  0  0  0  0  0  0
    6.6082  -15.9906   24.6579 C   0  0  0  0  0  0  0  0  0  0  0  0
    7.3105  -15.2681   25.7370 C   0  0  0  0  0  0  0  0  0  0  0  0
    8.4350  -15.6223   26.4574 C   0  0  0  0  0  0  0  0  0  0  0  0
    8.7045  -14.6510   27.3373 N   0  0  0  0  0  0  0  0  0  0  0  0
    7.7954  -13.6487   27.2342 C   0  0  0  0  0  0  0  0  0  0  0  0
    7.6489  -12.4591   27.9051 C   0  0  0  0  0  0  0  0  0  0  0  0
    6.6053  -11.6312   27.5694 C   0  0  0  0  0  0  0  0  0  0  0  0
    5.7095  -11.9688   26.5801 C   0  0  0  0  0  0  0  0  0  0  0  0
    5.8876  -13.1690   25.9293 C   0  0  0  0  0  0  0  0  0  0  0  0
    6.9213  -14.0386   26.2287 C   0  0  0  0  0  0  0  0  0  0  0  0
    7.6527  -17.8701   23.5828 C   0  0  0  0  0  0  0  0  0  0  0  0
    8.8624  -18.1729   23.7340 O   0  0  0  0  0  0  0  0  0  0  0  0
    7.1367  -17.8996   22.2545 N   0  0  0  0  0  0  0  0  0  0  0  0
    7.8807  -18.3543   21.1189 C   0  0  1  0  0  0  0  0  0  0  0  0
    6.9091  -18.8160   20.0525 C   0  0  0  0  0  0  0  0  0  0  0  0
    5.8331  -19.6738   20.5665 C   0  0  0  0  0  0  0  0  0  0  0  0
    4.6316  -19.6310   20.1975 O   0  0  0  0  0  0  0  0  0  0  0  0
    8.7771  -17.2937   20.6099 C   0  0  0  0  0  0  0  0  0  0  0  0
    8.4454  -16.4686   19.7245 O   0  0  0  0  0  0  0  0  0  0  0  0
    6.0811  -20.6507   21.5551 O   0  0  0  0  0  0  0  0  0  0  0  0
   10.0829  -17.1981   21.1466 N   0  0  0  0  0  0  0  0  0  0  0  0
   10.9569  -16.1192   20.7022 C   0  0  1  0  0  0  0  0  0  0  0  0
   10.4378  -14.7771   21.1464 C   0  0  0  0  0  0  0  0  0  0  0  0
    9.5320  -14.2174   20.1160 C   0  0  0  0  0  0  0  0  0  0  0  0
    9.2651  -14.8123   18.8752 C   0  0  0  0  0  0  0  0  0  0  0  0
    8.4051  -14.0247   18.2089 N   0  0  0  0  0  0  0  0  0  0  0  0
    8.1129  -12.9563   18.9688 C   0  0  0  0  0  0  0  0  0  0  0  0
    8.8042  -13.0963   20.1114 N   0  0  0  0  0  0  0  0  0  0  0  0
   12.2811  -16.3409   21.3160 C   0  0  0  0  0  0  0  0  0  0  0  0
   13.3325  -15.5099   20.9582 O   0  0  0  0  0  0  0  0  0  0  0  0
   12.5277  -17.2515   22.1601 O   0  0  0  0  0  0  0  0  0  0  0  0
  2  1  1  1
  3  2  1  0
  4  3  1  0
  4  5  2  0
  6  5  1  0
  7  6  1  0
  8  7  2  0
  9  8  1  0
 10  9  2  0
 10 11  1  0
 11 12  2  0
 12  7  1  0
 12  4  1  0
 13  2  1  0
 13 14  2  0
 15 13  1  0
 16 15  1  0
 16 17  1  6
 18 17  1  0
 18 22  1  0
 19 18  2  0
 20 16  1  0
 21 20  2  0
 23 20  1  0
 24 23  1  0
 25 26  1  0
 24 25  1  1
 26 27  2  0
 27 28  1  0
 29 28  1  0
 30 26  1  0
 30 29  2  0
 31 32  1  0
 31 24  1  0
 33 31  2  0
M  END
$$$$
