WDH.pdb
     RDKit          3D

 33 35  0  0  1  0  0  0  0  0999 V2000
    6.1621  -17.6608   23.6889 N   0  0  0  0  0  0  0  0  0  0  0  0
    7.1557  -16.6090   23.4580 C   0  0  1  0  0  0  0  0  0  0  0  0
    7.7363  -16.1625   24.8067 C   0  0  0  0  0  0  0  0  0  0  0  0
    6.8686  -15.1555   25.4492 C   0  0  0  0  0  0  0  0  0  0  0  0
    5.6883  -15.3170   26.1490 C   0  0  0  0  0  0  0  0  0  0  0  0
    5.2567  -14.1143   26.5459 N   0  0  0  0  0  0  0  0  0  0  0  0
    6.1101  -13.1422   26.1353 C   0  0  0  0  0  0  0  0  0  0  0  0
    6.1036  -11.7777   26.2923 C   0  0  0  0  0  0  0  0  0  0  0  0
    7.1298  -11.0418   25.7513 C   0  0  0  0  0  0  0  0  0  0  0  0
    8.1576  -11.6418   25.0595 C   0  0  0  0  0  0  0  0  0  0  0  0
    8.1308  -13.0116   24.9219 C   0  0  0  0  0  0  0  0  0  0  0  0
    7.1213  -13.7987   25.4470 C   0  0  0  0  0  0  0  0  0  0  0  0
    8.3028  -17.1764   22.7019 C   0  0  0  0  0  0  0  0  0  0  0  0
    8.7421  -18.3131   23.0063 O   0  0  0  0  0  0  0  0  0  0  0  0
    8.9494  -16.4958   21.6293 N   0  0  0  0  0  0  0  0  0  0  0  0
   10.2213  -16.8766   21.0935 C   0  0  1  0  0  0  0  0  0  0  0  0
   10.4863  -16.0647   19.8426 C   0  0  0  0  0  0  0  0  0  0  0  0
   10.3859  -16.8438   18.6014 C   0  0  0  0  0  0  0  0  0  0  0  0
    9.7945  -16.4710   17.5559 O   0  0  0  0  0  0  0  0  0  0  0  0
   11.2964  -16.6948   22.0929 C   0  0  0  0  0  0  0  0  0  0  0  0
   11.5784  -15.5905   22.6178 O   0  0  0  0  0  0  0  0  0  0  0  0
   10.9714  -18.1235   18.4878 O   0  0  0  0  0  0  0  0  0  0  0  0
   12.0532  -17.8248   22.4836 N   0  0  0  0  0  0  0  0  0  0  0  0
   13.2288  -17.6367   23.3251 C   0  0  1  0  0  0  0  0  0  0  0  0
   13.3580  -18.7431   24.3388 C   0  0  0  0  0  0  0  0  0  0  0  0
   12.4217  -18.5121   25.4636 C   0  0  0  0  0  0  0  0  0  0  0  0
   12.0068  -17.2515   25.9150 C   0  0  0  0  0  0  0  0  0  0  0  0
   11.1643  -17.4314   26.9454 N   0  0  0  0  0  0  0  0  0  0  0  0
   11.0244  -18.7483   27.1702 C   0  0  0  0  0  0  0  0  0  0  0  0
   11.7917  -19.3767   26.2648 N   0  0  0  0  0  0  0  0  0  0  0  0
   14.4127  -17.6623   22.4437 C   0  0  0  0  0  0  0  0  0  0  0  0
   15.6704  -17.5042   23.0071 O   0  0  0  0  0  0  0  0  0  0  0  0
   14.3591  -17.8211   21.1889 O   0  0  0  0  0  0  0  0  0  0  0  0
  2  1  1  1
  3  2  1  0
  4  3  1  0
  4  5  2  0
  6  5  1  0
  7  6  1  0
  8  7  2  0
  9  8  1  0
 10  9  2  0
 10 11  1  0
 11 12  2  0
 12  7  1  0
 12  4  1  0
 13  2  1  0
 13 14  2  0
 15 13  1  0
 16 15  1  0
 16 17  1  6
 18 17  1  0
 18 22  1  0
 19 18  2  0
 20 16  1  0
 21 20  2  0
 23 20  1  0
 24 23  1  0
 25 26  1  0
 24 25  1  1
 26 27  2  0
 27 28  1  0
 29 28  1  0
 30 26  1  0
 30 29  2  0
 31 32  1  0
 31 24  1  0
 33 31  2  0
M  END
$$$$
