WDH.pdb
     RDKit          3D

 33 35  0  0  1  0  0  0  0  0999 V2000
    6.7985  -17.7505   24.2557 N   0  0  0  0  0  0  0  0  0  0  0  0
    7.5203  -16.7009   23.5318 C   0  0  1  0  0  0  0  0  0  0  0  0
    8.4163  -15.9375   24.5166 C   0  0  0  0  0  0  0  0  0  0  0  0
    7.6078  -15.1245   25.4467 C   0  0  0  0  0  0  0  0  0  0  0  0
    6.6953  -15.5175   26.4068 C   0  0  0  0  0  0  0  0  0  0  0  0
    6.2067  -14.4260   27.0069 N   0  0  0  0  0  0  0  0  0  0  0  0
    6.7616  -13.3045   26.4814 C   0  0  0  0  0  0  0  0  0  0  0  0
    6.5891  -11.9699   26.7569 C   0  0  0  0  0  0  0  0  0  0  0  0
    7.3097  -11.0452   26.0407 C   0  0  0  0  0  0  0  0  0  0  0  0
    8.1953  -11.4281   25.0588 C   0  0  0  0  0  0  0  0  0  0  0  0
    8.3420  -12.7744   24.8101 C   0  0  0  0  0  0  0  0  0  0  0  0
    7.6409  -13.7459   25.5021 C   0  0  0  0  0  0  0  0  0  0  0  0
    8.4499  -17.3290   22.5566 C   0  0  0  0  0  0  0  0  0  0  0  0
    8.9488  -18.4527   22.8138 O   0  0  0  0  0  0  0  0  0  0  0  0
    8.8181  -16.7222   21.3205 N   0  0  0  0  0  0  0  0  0  0  0  0
    9.6616  -17.3449   20.3455 C   0  0  1  0  0  0  0  0  0  0  0  0
    9.1861  -16.9465   18.9637 C   0  0  0  0  0  0  0  0  0  0  0  0
    8.1618  -17.8428   18.4113 C   0  0  0  0  0  0  0  0  0  0  0  0
    7.7832  -18.9223   18.9339 O   0  0  0  0  0  0  0  0  0  0  0  0
   11.0790  -16.9782   20.5552 C   0  0  0  0  0  0  0  0  0  0  0  0
   11.8992  -16.8093   19.6207 O   0  0  0  0  0  0  0  0  0  0  0  0
    7.4996  -17.5440   17.2007 O   0  0  0  0  0  0  0  0  0  0  0  0
   11.5430  -16.8064   21.8809 N   0  0  0  0  0  0  0  0  0  0  0  0
   12.9436  -16.4701   22.1059 C   0  0  1  0  0  0  0  0  0  0  0  0
   13.1801  -14.9896   21.9631 C   0  0  0  0  0  0  0  0  0  0  0  0
   13.6498  -14.6812   20.5921 C   0  0  0  0  0  0  0  0  0  0  0  0
   13.8334  -15.6288   19.5757 C   0  0  0  0  0  0  0  0  0  0  0  0
   14.2665  -14.9878   18.4779 N   0  0  0  0  0  0  0  0  0  0  0  0
   14.3669  -13.6760   18.7493 C   0  0  0  0  0  0  0  0  0  0  0  0
   13.9901  -13.5180   20.0284 N   0  0  0  0  0  0  0  0  0  0  0  0
   13.2790  -16.8715   23.4864 C   0  0  0  0  0  0  0  0  0  0  0  0
   12.2879  -17.4281   24.2814 O   0  0  0  0  0  0  0  0  0  0  0  0
   14.4271  -16.7410   24.0036 O   0  0  0  0  0  0  0  0  0  0  0  0
  2  1  1  1
  3  2  1  0
  4  3  1  0
  4  5  2  0
  6  5  1  0
  7  6  1  0
  8  7  2  0
  9  8  1  0
 10  9  2  0
 10 11  1  0
 11 12  2  0
 12  7  1  0
 12  4  1  0
 13  2  1  0
 13 14  2  0
 15 13  1  0
 16 15  1  0
 16 17  1  6
 18 17  1  0
 18 22  1  0
 19 18  2  0
 20 16  1  0
 21 20  2  0
 23 20  1  0
 24 23  1  0
 25 26  1  0
 24 25  1  1
 26 27  2  0
 27 28  1  0
 29 28  1  0
 30 26  1  0
 30 29  2  0
 31 32  1  0
 31 24  1  0
 33 31  2  0
M  END
$$$$
