WDH.pdb
     RDKit          3D

 33 35  0  0  1  0  0  0  0  0999 V2000
    6.6915  -17.3988   24.0068 N   0  0  0  0  0  0  0  0  0  0  0  0
    7.7467  -16.4120   23.7624 C   0  0  1  0  0  0  0  0  0  0  0  0
    8.0898  -15.7071   25.0818 C   0  0  0  0  0  0  0  0  0  0  0  0
    7.0252  -14.7599   25.4682 C   0  0  0  0  0  0  0  0  0  0  0  0
    5.8381  -14.9834   26.1389 C   0  0  0  0  0  0  0  0  0  0  0  0
    5.1892  -13.8197   26.2621 N   0  0  0  0  0  0  0  0  0  0  0  0
    5.9020  -12.8140   25.6944 C   0  0  0  0  0  0  0  0  0  0  0  0
    5.6629  -11.4675   25.5668 C   0  0  0  0  0  0  0  0  0  0  0  0
    6.5936  -10.6852   24.9271 C   0  0  0  0  0  0  0  0  0  0  0  0
    7.7534  -11.2216   24.4150 C   0  0  0  0  0  0  0  0  0  0  0  0
    7.9591  -12.5751   24.5614 C   0  0  0  0  0  0  0  0  0  0  0  0
    7.0543  -13.4070   25.1967 C   0  0  0  0  0  0  0  0  0  0  0  0
    8.9908  -17.1161   23.3549 C   0  0  0  0  0  0  0  0  0  0  0  0
    9.1416  -18.3269   23.6529 O   0  0  0  0  0  0  0  0  0  0  0  0
   10.0464  -16.4888   22.6311 N   0  0  0  0  0  0  0  0  0  0  0  0
   11.3954  -16.9680   22.6109 C   0  0  1  0  0  0  0  0  0  0  0  0
   12.1804  -16.1719   21.5891 C   0  0  0  0  0  0  0  0  0  0  0  0
   12.3151  -16.8476   20.2918 C   0  0  0  0  0  0  0  0  0  0  0  0
   12.1279  -18.0747   20.0895 O   0  0  0  0  0  0  0  0  0  0  0  0
   12.0117  -16.8808   23.9526 C   0  0  0  0  0  0  0  0  0  0  0  0
   12.6322  -15.8725   24.3687 O   0  0  0  0  0  0  0  0  0  0  0  0
   12.6804  -16.1372   19.1278 O   0  0  0  0  0  0  0  0  0  0  0  0
   11.8995  -17.9925   24.8208 N   0  0  0  0  0  0  0  0  0  0  0  0
   12.6082  -17.9741   26.0947 C   0  0  1  0  0  0  0  0  0  0  0  0
   11.6485  -18.0111   27.2548 C   0  0  0  0  0  0  0  0  0  0  0  0
   11.3904  -16.6363   27.7433 C   0  0  0  0  0  0  0  0  0  0  0  0
   11.9289  -15.4712   27.1798 C   0  0  0  0  0  0  0  0  0  0  0  0
   11.4790  -14.4188   27.8824 N   0  0  0  0  0  0  0  0  0  0  0  0
   10.6791  -14.8608   28.8669 C   0  0  0  0  0  0  0  0  0  0  0  0
   10.6426  -16.1990   28.7612 N   0  0  0  0  0  0  0  0  0  0  0  0
   13.4584  -19.1799   26.1458 C   0  0  0  0  0  0  0  0  0  0  0  0
   14.3491  -19.3270   27.1988 O   0  0  0  0  0  0  0  0  0  0  0  0
   13.4305  -20.1042   25.2811 O   0  0  0  0  0  0  0  0  0  0  0  0
  2  1  1  1
  3  2  1  0
  4  3  1  0
  4  5  2  0
  6  5  1  0
  7  6  1  0
  8  7  2  0
  9  8  1  0
 10  9  2  0
 10 11  1  0
 11 12  2  0
 12  7  1  0
 12  4  1  0
 13  2  1  0
 13 14  2  0
 15 13  1  0
 16 15  1  0
 16 17  1  6
 18 17  1  0
 18 22  1  0
 19 18  2  0
 20 16  1  0
 21 20  2  0
 23 20  1  0
 24 23  1  0
 25 26  1  0
 24 25  1  1
 26 27  2  0
 27 28  1  0
 29 28  1  0
 30 26  1  0
 30 29  2  0
 31 32  1  0
 31 24  1  0
 33 31  2  0
M  END
$$$$
