WDH.pdb
     RDKit          3D

 33 35  0  0  1  0  0  0  0  0999 V2000
    6.7796  -17.7148   23.6363 N   0  0  0  0  0  0  0  0  0  0  0  0
    7.7624  -16.6307   23.7114 C   0  0  1  0  0  0  0  0  0  0  0  0
    8.0501  -16.3155   25.1856 C   0  0  0  0  0  0  0  0  0  0  0  0
    7.0982  -15.3153   25.7084 C   0  0  0  0  0  0  0  0  0  0  0  0
    5.8904  -15.4920   26.3557 C   0  0  0  0  0  0  0  0  0  0  0  0
    5.3773  -14.2901   26.6425 N   0  0  0  0  0  0  0  0  0  0  0  0
    6.2023  -13.3037   26.2085 C   0  0  0  0  0  0  0  0  0  0  0  0
    6.1182  -11.9340   26.2671 C   0  0  0  0  0  0  0  0  0  0  0  0
    7.1346  -11.1824   25.7291 C   0  0  0  0  0  0  0  0  0  0  0  0
    8.2283  -11.7720   25.1363 C   0  0  0  0  0  0  0  0  0  0  0  0
    8.2782  -13.1474   25.0958 C   0  0  0  0  0  0  0  0  0  0  0  0
    7.2820  -13.9501   25.6225 C   0  0  0  0  0  0  0  0  0  0  0  0
    9.0549  -17.1016   23.1481 C   0  0  0  0  0  0  0  0  0  0  0  0
    9.2802  -18.3345   23.0645 O   0  0  0  0  0  0  0  0  0  0  0  0
   10.0769  -16.2216   22.6867 N   0  0  0  0  0  0  0  0  0  0  0  0
   11.3330  -16.6633   22.1604 C   0  0  1  0  0  0  0  0  0  0  0  0
   11.7405  -15.7395   21.0314 C   0  0  0  0  0  0  0  0  0  0  0  0
   13.0155  -16.1060   20.4004 C   0  0  0  0  0  0  0  0  0  0  0  0
   14.0574  -15.4016   20.4062 O   0  0  0  0  0  0  0  0  0  0  0  0
   12.3662  -16.7119   23.2177 C   0  0  0  0  0  0  0  0  0  0  0  0
   13.5454  -17.0930   23.0207 O   0  0  0  0  0  0  0  0  0  0  0  0
   13.1697  -17.3288   19.7118 O   0  0  0  0  0  0  0  0  0  0  0  0
   12.0122  -16.3077   24.5267 N   0  0  0  0  0  0  0  0  0  0  0  0
   12.9125  -16.6115   25.6325 C   0  0  1  0  0  0  0  0  0  0  0  0
   12.1478  -16.8827   26.9013 C   0  0  0  0  0  0  0  0  0  0  0  0
   11.3893  -15.6752   27.3039 C   0  0  0  0  0  0  0  0  0  0  0  0
   11.4538  -14.4347   26.6546 C   0  0  0  0  0  0  0  0  0  0  0  0
   10.6373  -13.5827   27.2958 N   0  0  0  0  0  0  0  0  0  0  0  0
   10.0564  -14.2242   28.3231 C   0  0  0  0  0  0  0  0  0  0  0  0
   10.5261  -15.4822   28.3060 N   0  0  0  0  0  0  0  0  0  0  0  0
   13.6683  -17.8258   25.2671 C   0  0  0  0  0  0  0  0  0  0  0  0
   12.9686  -18.9873   24.9749 O   0  0  0  0  0  0  0  0  0  0  0  0
   14.9313  -17.8817   25.2009 O   0  0  0  0  0  0  0  0  0  0  0  0
  2  1  1  1
  3  2  1  0
  4  3  1  0
  4  5  2  0
  6  5  1  0
  7  6  1  0
  8  7  2  0
  9  8  1  0
 10  9  2  0
 10 11  1  0
 11 12  2  0
 12  7  1  0
 12  4  1  0
 13  2  1  0
 13 14  2  0
 15 13  1  0
 16 15  1  0
 16 17  1  6
 18 17  1  0
 18 22  1  0
 19 18  2  0
 20 16  1  0
 21 20  2  0
 23 20  1  0
 24 23  1  0
 25 26  1  0
 24 25  1  1
 26 27  2  0
 27 28  1  0
 29 28  1  0
 30 26  1  0
 30 29  2  0
 31 32  1  0
 31 24  1  0
 33 31  2  0
M  END
$$$$
