WDH.pdb
     RDKit          3D

 33 35  0  0  1  0  0  0  0  0999 V2000
    7.1191  -17.2561   23.5467 N   0  0  0  0  0  0  0  0  0  0  0  0
    8.2884  -16.4002   23.7638 C   0  0  1  0  0  0  0  0  0  0  0  0
    8.4008  -16.0743   25.2594 C   0  0  0  0  0  0  0  0  0  0  0  0
    7.2966  -15.1960   25.6940 C   0  0  0  0  0  0  0  0  0  0  0  0
    6.0563  -15.5180   26.2108 C   0  0  0  0  0  0  0  0  0  0  0  0
    5.3875  -14.3860   26.4587 N   0  0  0  0  0  0  0  0  0  0  0  0
    6.1384  -13.3059   26.1250 C   0  0  0  0  0  0  0  0  0  0  0  0
    5.8984  -11.9551   26.1923 C   0  0  0  0  0  0  0  0  0  0  0  0
    6.8750  -11.0852   25.7719 C   0  0  0  0  0  0  0  0  0  0  0  0
    8.0814  -11.5383   25.2876 C   0  0  0  0  0  0  0  0  0  0  0  0
    8.2864  -12.8989   25.2346 C   0  0  0  0  0  0  0  0  0  0  0  0
    7.3365  -13.8172   25.6452 C   0  0  0  0  0  0  0  0  0  0  0  0
    9.5210  -17.1615   23.4312 C   0  0  0  0  0  0  0  0  0  0  0  0
    9.6478  -18.3421   23.8407 O   0  0  0  0  0  0  0  0  0  0  0  0
   10.5915  -16.6231   22.6593 N   0  0  0  0  0  0  0  0  0  0  0  0
   11.9180  -17.1619   22.6490 C   0  0  1  0  0  0  0  0  0  0  0  0
   12.6802  -16.5588   21.4873 C   0  0  0  0  0  0  0  0  0  0  0  0
   12.1657  -16.9617   20.1716 C   0  0  0  0  0  0  0  0  0  0  0  0
   12.0802  -16.2126   19.1650 O   0  0  0  0  0  0  0  0  0  0  0  0
   12.6052  -16.9102   23.9343 C   0  0  0  0  0  0  0  0  0  0  0  0
   13.2600  -15.8684   24.1804 O   0  0  0  0  0  0  0  0  0  0  0  0
   11.7100  -18.2763   19.9320 O   0  0  0  0  0  0  0  0  0  0  0  0
   12.5239  -17.8946   24.9475 N   0  0  0  0  0  0  0  0  0  0  0  0
   13.3525  -17.7582   26.1393 C   0  0  1  0  0  0  0  0  0  0  0  0
   12.5612  -18.0372   27.3900 C   0  0  0  0  0  0  0  0  0  0  0  0
   11.6318  -16.9159   27.6626 C   0  0  0  0  0  0  0  0  0  0  0  0
   11.7195  -15.6430   27.0821 C   0  0  0  0  0  0  0  0  0  0  0  0
   10.7156  -14.8922   27.5640 N   0  0  0  0  0  0  0  0  0  0  0  0
    9.9935  -15.6289   28.4244 C   0  0  0  0  0  0  0  0  0  0  0  0
   10.5660  -16.8429   28.4659 N   0  0  0  0  0  0  0  0  0  0  0  0
   14.4412  -18.7500   26.0375 C   0  0  0  0  0  0  0  0  0  0  0  0
   14.4495  -19.6272   24.9630 O   0  0  0  0  0  0  0  0  0  0  0  0
   15.3833  -18.8572   26.8764 O   0  0  0  0  0  0  0  0  0  0  0  0
  2  1  1  1
  3  2  1  0
  4  3  1  0
  4  5  2  0
  6  5  1  0
  7  6  1  0
  8  7  2  0
  9  8  1  0
 10  9  2  0
 10 11  1  0
 11 12  2  0
 12  7  1  0
 12  4  1  0
 13  2  1  0
 13 14  2  0
 15 13  1  0
 16 15  1  0
 16 17  1  6
 18 17  1  0
 18 22  1  0
 19 18  2  0
 20 16  1  0
 21 20  2  0
 23 20  1  0
 24 23  1  0
 25 26  1  0
 24 25  1  1
 26 27  2  0
 27 28  1  0
 29 28  1  0
 30 26  1  0
 30 29  2  0
 31 32  1  0
 31 24  1  0
 33 31  2  0
M  END
$$$$
