PCR.pdb
     RDKit          3D

 25 25  0  0  1  0  0  0  0  0999 V2000
    7.3213  -14.6561   19.8644 N   0  0  0  0  0  0  0  0  0  0  0  0
    6.8132  -14.1437   18.5874 C   0  0  0  0  0  0  0  0  0  0  0  0
    7.1923  -12.6824   18.6366 C   0  0  0  0  0  0  0  0  0  0  0  0
    8.3222  -12.5910   19.6500 C   0  0  0  0  0  0  0  0  0  0  0  0
    8.6415  -14.0384   19.8954 C   0  0  1  0  0  0  0  0  0  0  0  0
    9.3106  -14.2777   21.1997 C   0  0  0  0  0  0  0  0  0  0  0  0
   10.5035  -13.9125   21.3438 O   0  0  0  0  0  0  0  0  0  0  0  0
    8.6721  -14.8992   22.2976 N   0  0  0  0  0  0  0  0  0  0  0  0
    9.3280  -15.2139   23.5379 C   0  0  1  0  0  0  0  0  0  0  0  0
    8.3498  -15.6031   24.6225 C   0  0  0  0  0  0  0  0  0  0  0  0
    6.6939  -15.9326   23.9659 S   0  0  0  0  0  0  0  0  0  0  0  0
   10.2591  -16.3733   23.3934 C   0  0  0  0  0  0  0  0  0  0  0  0
    9.7843  -17.5217   23.1776 O   0  0  0  0  0  0  0  0  0  0  0  0
   17.2932  -16.1907   18.2349 N   0  0  0  0  0  0  0  0  0  0  0  0
   17.5401  -17.3640   19.0259 C   0  0  0  0  0  0  0  0  0  0  0  0
   18.4884  -18.1830   18.7490 N   0  0  0  0  0  0  0  0  0  0  0  0
   16.7196  -17.6475   20.1594 N   0  0  0  0  0  0  0  0  0  0  0  0
   15.6143  -16.8336   20.5655 C   0  0  0  0  0  0  0  0  0  0  0  0
   14.8019  -17.3647   21.6956 C   0  0  0  0  0  0  0  0  0  0  0  0
   13.6578  -16.5681   22.1705 C   0  0  0  0  0  0  0  0  0  0  0  0
   12.6047  -17.2294   22.9777 C   0  0  2  0  0  0  0  0  0  0  0  0
   11.6600  -16.2321   23.4895 N   0  0  0  0  0  0  0  0  0  0  0  0
   13.1166  -18.0329   24.0828 C   0  0  0  0  0  0  0  0  0  0  0  0
   13.8447  -19.0456   23.9448 O   0  0  0  0  0  0  0  0  0  0  0  0
   12.8122  -17.7109   25.4217 O   0  0  0  0  0  0  0  0  0  0  0  0
  2  1  1  0
  3  2  1  0
  4  3  1  0
  4  5  1  0
  5  1  1  0
  5  6  1  1
  7  6  2  0
  8  6  1  0
  9 12  1  0
  9  8  1  0
  9 10  1  1
 11 10  1  0
 12 22  1  0
 13 12  2  0
 14 15  1  0
 15 17  1  0
 15 16  2  0
 17 18  1  0
 18 19  1  0
 20 19  1  0
 21 20  1  1
 22 21  1  0
 23 25  1  0
 23 21  1  0
 24 23  2  0
M  END
$$$$
