PCR.pdb
     RDKit          3D

 25 25  0  0  1  0  0  0  0  0999 V2000
    7.6542  -14.8981   18.7683 N   0  0  0  0  0  0  0  0  0  0  0  0
    7.3553  -14.5475   17.3758 C   0  0  0  0  0  0  0  0  0  0  0  0
    7.5749  -13.0532   17.3507 C   0  0  0  0  0  0  0  0  0  0  0  0
    8.4735  -12.7558   18.5407 C   0  0  0  0  0  0  0  0  0  0  0  0
    8.8777  -14.1342   18.9810 C   0  0  1  0  0  0  0  0  0  0  0  0
    9.3021  -14.1941   20.4031 C   0  0  0  0  0  0  0  0  0  0  0  0
   10.4592  -13.8112   20.7058 O   0  0  0  0  0  0  0  0  0  0  0  0
    8.4670  -14.6620   21.4437 N   0  0  0  0  0  0  0  0  0  0  0  0
    8.8864  -14.8001   22.8122 C   0  0  1  0  0  0  0  0  0  0  0  0
    7.7308  -14.6941   23.7807 C   0  0  0  0  0  0  0  0  0  0  0  0
    8.2445  -14.9794   25.4943 S   0  0  0  0  0  0  0  0  0  0  0  0
    9.5118  -16.1326   23.0680 C   0  0  0  0  0  0  0  0  0  0  0  0
    8.8615  -17.1799   22.8013 O   0  0  0  0  0  0  0  0  0  0  0  0
   15.4970  -14.2067   19.4483 N   0  0  0  0  0  0  0  0  0  0  0  0
   14.8278  -15.4378   19.1322 C   0  0  0  0  0  0  0  0  0  0  0  0
   15.2213  -16.1993   18.1772 N   0  0  0  0  0  0  0  0  0  0  0  0
   13.6895  -15.8478   19.8903 N   0  0  0  0  0  0  0  0  0  0  0  0
   13.7250  -16.1205   21.2951 C   0  0  0  0  0  0  0  0  0  0  0  0
   12.9395  -17.3043   21.7432 C   0  0  0  0  0  0  0  0  0  0  0  0
   12.8149  -17.5555   23.1890 C   0  0  0  0  0  0  0  0  0  0  0  0
   11.4669  -17.5611   23.8060 C   0  0  2  0  0  0  0  0  0  0  0  0
   10.8120  -16.2658   23.6003 N   0  0  0  0  0  0  0  0  0  0  0  0
   11.4625  -17.8931   25.2268 C   0  0  0  0  0  0  0  0  0  0  0  0
   11.4172  -17.0467   26.1521 O   0  0  0  0  0  0  0  0  0  0  0  0
   11.5125  -19.2332   25.6634 O   0  0  0  0  0  0  0  0  0  0  0  0
  2  1  1  0
  3  2  1  0
  4  3  1  0
  4  5  1  0
  5  1  1  0
  5  6  1  1
  7  6  2  0
  8  6  1  0
  9 12  1  0
  9  8  1  0
  9 10  1  1
 11 10  1  0
 12 22  1  0
 13 12  2  0
 14 15  1  0
 15 17  1  0
 15 16  2  0
 17 18  1  0
 18 19  1  0
 20 19  1  0
 21 20  1  1
 22 21  1  0
 23 25  1  0
 23 21  1  0
 24 23  2  0
M  END
$$$$
