PCR.pdb
     RDKit          3D

 25 25  0  0  1  0  0  0  0  0999 V2000
    7.2126  -14.7536   20.6011 N   0  0  0  0  0  0  0  0  0  0  0  0
    7.0790  -14.6051   19.1480 C   0  0  0  0  0  0  0  0  0  0  0  0
    7.3326  -13.1312   18.9358 C   0  0  0  0  0  0  0  0  0  0  0  0
    8.0988  -12.6709   20.1658 C   0  0  0  0  0  0  0  0  0  0  0  0
    8.4210  -13.9739   20.8408 C   0  0  1  0  0  0  0  0  0  0  0  0
    8.6823  -13.8311   22.2959 C   0  0  0  0  0  0  0  0  0  0  0  0
    9.8683  -13.7000   22.6876 O   0  0  0  0  0  0  0  0  0  0  0  0
    7.6599  -13.8341   23.2725 N   0  0  0  0  0  0  0  0  0  0  0  0
    7.8920  -13.6681   24.6819 C   0  0  1  0  0  0  0  0  0  0  0  0
    6.6957  -13.0824   25.3962 C   0  0  0  0  0  0  0  0  0  0  0  0
    6.9723  -12.9237   27.1794 S   0  0  0  0  0  0  0  0  0  0  0  0
    8.1702  -14.9727   25.3548 C   0  0  0  0  0  0  0  0  0  0  0  0
    7.2685  -15.8540   25.3869 O   0  0  0  0  0  0  0  0  0  0  0  0
   12.7550  -17.8993   21.7203 N   0  0  0  0  0  0  0  0  0  0  0  0
   12.3532  -19.0472   22.4847 C   0  0  0  0  0  0  0  0  0  0  0  0
   11.6876  -20.0121   21.9628 N   0  0  0  0  0  0  0  0  0  0  0  0
   12.6945  -19.1399   23.8680 N   0  0  0  0  0  0  0  0  0  0  0  0
   11.7345  -19.3200   24.9144 C   0  0  0  0  0  0  0  0  0  0  0  0
   10.6885  -18.2645   25.0200 C   0  0  0  0  0  0  0  0  0  0  0  0
   10.8928  -17.1704   25.9844 C   0  0  0  0  0  0  0  0  0  0  0  0
    9.7108  -16.5361   26.6157 C   0  0  2  0  0  0  0  0  0  0  0  0
    9.4124  -15.2594   25.9601 N   0  0  0  0  0  0  0  0  0  0  0  0
    9.8414  -16.3303   28.0543 C   0  0  0  0  0  0  0  0  0  0  0  0
    9.9949  -15.2102   28.5988 O   0  0  0  0  0  0  0  0  0  0  0  0
    9.8038  -17.4163   28.9533 O   0  0  0  0  0  0  0  0  0  0  0  0
  2  1  1  0
  3  2  1  0
  4  3  1  0
  4  5  1  0
  5  1  1  0
  5  6  1  1
  7  6  2  0
  8  6  1  0
  9 12  1  0
  9  8  1  0
  9 10  1  1
 11 10  1  0
 12 22  1  0
 13 12  2  0
 14 15  1  0
 15 17  1  0
 15 16  2  0
 17 18  1  0
 18 19  1  0
 20 19  1  0
 21 20  1  6
 22 21  1  0
 23 25  1  0
 23 21  1  0
 24 23  2  0
M  END
$$$$
