PCR.pdb
     RDKit          3D

 25 25  0  0  1  0  0  0  0  0999 V2000
    6.9850  -14.6278   20.6457 N   0  0  0  0  0  0  0  0  0  0  0  0
    6.8628  -14.4737   19.1922 C   0  0  0  0  0  0  0  0  0  0  0  0
    7.3932  -13.0793   18.9560 C   0  0  0  0  0  0  0  0  0  0  0  0
    8.2505  -12.7609   20.1708 C   0  0  0  0  0  0  0  0  0  0  0  0
    8.3243  -14.0934   20.8608 C   0  0  1  0  0  0  0  0  0  0  0  0
    8.6281  -13.9864   22.3107 C   0  0  0  0  0  0  0  0  0  0  0  0
    9.7893  -13.6631   22.6633 O   0  0  0  0  0  0  0  0  0  0  0  0
    7.6729  -14.2301   23.3244 N   0  0  0  0  0  0  0  0  0  0  0  0
    7.9248  -14.0488   24.7284 C   0  0  1  0  0  0  0  0  0  0  0  0
    6.7129  -13.5291   25.4671 C   0  0  0  0  0  0  0  0  0  0  0  0
    7.0918  -13.0929   27.1841 S   0  0  0  0  0  0  0  0  0  0  0  0
    8.2889  -15.3347   25.3963 C   0  0  0  0  0  0  0  0  0  0  0  0
    7.3815  -16.1693   25.6625 O   0  0  0  0  0  0  0  0  0  0  0  0
   15.4801  -15.8167   23.7188 N   0  0  0  0  0  0  0  0  0  0  0  0
   14.4498  -16.0401   22.7432 C   0  0  0  0  0  0  0  0  0  0  0  0
   14.3469  -15.3194   21.6864 N   0  0  0  0  0  0  0  0  0  0  0  0
   13.5013  -17.0903   22.9328 N   0  0  0  0  0  0  0  0  0  0  0  0
   13.0683  -17.5493   24.2177 C   0  0  0  0  0  0  0  0  0  0  0  0
   11.7266  -17.0723   24.6555 C   0  0  0  0  0  0  0  0  0  0  0  0
   11.2866  -17.3813   26.0266 C   0  0  0  0  0  0  0  0  0  0  0  0
    9.9852  -16.8539   26.5019 C   0  0  2  0  0  0  0  0  0  0  0  0
    9.6190  -15.6542   25.7432 N   0  0  0  0  0  0  0  0  0  0  0  0
    9.9459  -16.5619   27.9309 C   0  0  0  0  0  0  0  0  0  0  0  0
   10.0538  -17.4263   28.8341 O   0  0  0  0  0  0  0  0  0  0  0  0
    9.7762  -15.2434   28.4020 O   0  0  0  0  0  0  0  0  0  0  0  0
  2  1  1  0
  3  2  1  0
  4  3  1  0
  4  5  1  0
  5  1  1  0
  5  6  1  1
  7  6  2  0
  8  6  1  0
  9 12  1  0
  9  8  1  0
  9 10  1  1
 11 10  1  0
 12 22  1  0
 13 12  2  0
 14 15  1  0
 15 17  1  0
 15 16  2  0
 17 18  1  0
 18 19  1  0
 20 19  1  0
 21 20  1  6
 22 21  1  0
 23 25  1  0
 23 21  1  0
 24 23  2  0
M  END
$$$$
