PCR.pdb
     RDKit          3D

 25 25  0  0  1  0  0  0  0  0999 V2000
    9.2730  -18.5936   19.5276 N   0  0  0  0  0  0  0  0  0  0  0  0
    8.2188  -18.1366   18.6161 C   0  0  0  0  0  0  0  0  0  0  0  0
    7.3829  -19.3792   18.4186 C   0  0  0  0  0  0  0  0  0  0  0  0
    7.6932  -20.2698   19.6113 C   0  0  0  0  0  0  0  0  0  0  0  0
    8.4840  -19.3471   20.4948 C   0  0  1  0  0  0  0  0  0  0  0  0
    9.3617  -20.0643   21.4545 C   0  0  0  0  0  0  0  0  0  0  0  0
    8.8346  -20.6701   22.4201 O   0  0  0  0  0  0  0  0  0  0  0  0
   10.7704  -20.1031   21.3391 N   0  0  0  0  0  0  0  0  0  0  0  0
   11.6230  -20.9237   22.1560 C   0  0  1  0  0  0  0  0  0  0  0  0
   12.9993  -21.0977   21.5561 C   0  0  0  0  0  0  0  0  0  0  0  0
   14.0721  -22.1285   22.5897 S   0  0  0  0  0  0  0  0  0  0  0  0
   11.8400  -20.3239   23.5070 C   0  0  0  0  0  0  0  0  0  0  0  0
   12.0181  -19.0793   23.6072 O   0  0  0  0  0  0  0  0  0  0  0  0
   12.9210  -21.7306   30.7296 N   0  0  0  0  0  0  0  0  0  0  0  0
   11.7478  -21.3358   31.4583 C   0  0  0  0  0  0  0  0  0  0  0  0
   11.7491  -21.2186   32.7362 N   0  0  0  0  0  0  0  0  0  0  0  0
   10.5328  -21.0590   30.7614 N   0  0  0  0  0  0  0  0  0  0  0  0
   10.3132  -21.3839   29.3847 C   0  0  0  0  0  0  0  0  0  0  0  0
   11.2702  -20.7775   28.4173 C   0  0  0  0  0  0  0  0  0  0  0  0
   11.1216  -21.1022   26.9885 C   0  0  0  0  0  0  0  0  0  0  0  0
   12.0891  -20.5383   26.0169 C   0  0  2  0  0  0  0  0  0  0  0  0
   11.8531  -21.1019   24.6844 N   0  0  0  0  0  0  0  0  0  0  0  0
   13.4872  -20.7273   26.3891 C   0  0  0  0  0  0  0  0  0  0  0  0
   14.1925  -21.6989   26.0242 O   0  0  0  0  0  0  0  0  0  0  0  0
   14.1552  -19.7977   27.2129 O   0  0  0  0  0  0  0  0  0  0  0  0
  2  1  1  0
  3  2  1  0
  4  3  1  0
  4  5  1  0
  5  1  1  0
  5  6  1  1
  7  6  2  0
  8  6  1  0
  9 12  1  0
  9  8  1  0
  9 10  1  6
 11 10  1  0
 12 22  1  0
 13 12  2  0
 14 15  1  0
 15 17  1  0
 15 16  2  0
 17 18  1  0
 18 19  1  0
 20 19  1  0
 21 20  1  1
 22 21  1  0
 23 25  1  0
 23 21  1  0
 24 23  2  0
M  END
$$$$
