PCR.pdb
     RDKit          3D

 25 25  0  0  1  0  0  0  0  0999 V2000
    7.3870  -14.8999   20.2693 N   0  0  0  0  0  0  0  0  0  0  0  0
    7.2740  -14.6311   18.8319 C   0  0  0  0  0  0  0  0  0  0  0  0
    7.2584  -13.1219   18.7720 C   0  0  0  0  0  0  0  0  0  0  0  0
    7.8878  -12.6583   20.0763 C   0  0  0  0  0  0  0  0  0  0  0  0
    8.4231  -13.9437   20.6407 C   0  0  1  0  0  0  0  0  0  0  0  0
    8.6079  -13.9046   22.1139 C   0  0  0  0  0  0  0  0  0  0  0  0
    9.7751  -13.8983   22.5773 O   0  0  0  0  0  0  0  0  0  0  0  0
    7.5321  -13.8732   23.0310 N   0  0  0  0  0  0  0  0  0  0  0  0
    7.6927  -13.8263   24.4592 C   0  0  1  0  0  0  0  0  0  0  0  0
    6.4461  -13.3397   25.1618 C   0  0  0  0  0  0  0  0  0  0  0  0
    6.5725  -13.4877   26.9629 S   0  0  0  0  0  0  0  0  0  0  0  0
    7.9808  -15.1771   25.0288 C   0  0  0  0  0  0  0  0  0  0  0  0
    7.1018  -16.0783   24.9524 O   0  0  0  0  0  0  0  0  0  0  0  0
   13.4337  -15.6549   22.8445 N   0  0  0  0  0  0  0  0  0  0  0  0
   13.9227  -16.9943   23.0183 C   0  0  0  0  0  0  0  0  0  0  0  0
   14.1417  -17.7724   22.0216 N   0  0  0  0  0  0  0  0  0  0  0  0
   14.1814  -17.4963   24.3296 N   0  0  0  0  0  0  0  0  0  0  0  0
   13.1567  -17.9010   25.2435 C   0  0  0  0  0  0  0  0  0  0  0  0
   12.0552  -16.9203   25.4543 C   0  0  0  0  0  0  0  0  0  0  0  0
   10.6720  -17.3545   25.1956 C   0  0  0  0  0  0  0  0  0  0  0  0
    9.5823  -16.8435   26.0612 C   0  0  2  0  0  0  0  0  0  0  0  0
    9.2080  -15.4861   25.6535 N   0  0  0  0  0  0  0  0  0  0  0  0
    9.8954  -16.8591   27.4862 C   0  0  0  0  0  0  0  0  0  0  0  0
   10.0484  -15.8311   28.1894 O   0  0  0  0  0  0  0  0  0  0  0  0
   10.0531  -18.0736   28.1856 O   0  0  0  0  0  0  0  0  0  0  0  0
  2  1  1  0
  3  2  1  0
  4  3  1  0
  4  5  1  0
  5  1  1  0
  5  6  1  1
  7  6  2  0
  8  6  1  0
  9 12  1  0
  9  8  1  0
  9 10  1  1
 11 10  1  0
 12 22  1  0
 13 12  2  0
 14 15  1  0
 15 17  1  0
 15 16  2  0
 17 18  1  0
 18 19  1  0
 20 19  1  0
 21 20  1  6
 22 21  1  0
 23 25  1  0
 23 21  1  0
 24 23  2  0
M  END
$$$$
