PCR.pdb
     RDKit          3D

 25 25  0  0  1  0  0  0  0  0999 V2000
    6.9070  -14.5217   20.5173 N   0  0  0  0  0  0  0  0  0  0  0  0
    6.4820  -14.0456   19.1967 C   0  0  0  0  0  0  0  0  0  0  0  0
    6.9017  -12.5947   19.2112 C   0  0  0  0  0  0  0  0  0  0  0  0
    7.9792  -12.4953   20.2794 C   0  0  0  0  0  0  0  0  0  0  0  0
    8.2418  -13.9404   20.5957 C   0  0  1  0  0  0  0  0  0  0  0  0
    8.8342  -14.1472   21.9419 C   0  0  0  0  0  0  0  0  0  0  0  0
   10.0384  -14.4935   22.0262 O   0  0  0  0  0  0  0  0  0  0  0  0
    8.1104  -13.9735   23.1440 N   0  0  0  0  0  0  0  0  0  0  0  0
    8.6426  -14.2480   24.4513 C   0  0  1  0  0  0  0  0  0  0  0  0
    8.0017  -13.3965   25.5230 C   0  0  0  0  0  0  0  0  0  0  0  0
    6.2219  -13.7014   25.6675 S   0  0  0  0  0  0  0  0  0  0  0  0
    8.4043  -15.6652   24.8598 C   0  0  0  0  0  0  0  0  0  0  0  0
    7.5514  -16.3518   24.2339 O   0  0  0  0  0  0  0  0  0  0  0  0
   15.1366  -18.2858   21.5752 N   0  0  0  0  0  0  0  0  0  0  0  0
   14.9325  -19.3984   22.4606 C   0  0  0  0  0  0  0  0  0  0  0  0
   15.7174  -20.4135   22.4683 N   0  0  0  0  0  0  0  0  0  0  0  0
   13.8308  -19.3963   23.3688 N   0  0  0  0  0  0  0  0  0  0  0  0
   12.9092  -18.3089   23.4997 C   0  0  0  0  0  0  0  0  0  0  0  0
   11.8823  -18.4577   24.5686 C   0  0  0  0  0  0  0  0  0  0  0  0
   10.8871  -17.3853   24.7377 C   0  0  0  0  0  0  0  0  0  0  0  0
    9.8513  -17.5226   25.7894 C   0  0  2  0  0  0  0  0  0  0  0  0
    9.1022  -16.2700   25.9270 N   0  0  0  0  0  0  0  0  0  0  0  0
   10.3723  -17.9282   27.0905 C   0  0  0  0  0  0  0  0  0  0  0  0
   10.5596  -19.1191   27.4389 O   0  0  0  0  0  0  0  0  0  0  0  0
   10.7076  -16.9731   28.0725 O   0  0  0  0  0  0  0  0  0  0  0  0
  2  1  1  0
  3  2  1  0
  4  3  1  0
  4  5  1  0
  5  1  1  0
  5  6  1  1
  7  6  2  0
  8  6  1  0
  9 12  1  0
  9  8  1  0
  9 10  1  1
 11 10  1  0
 12 22  1  0
 13 12  2  0
 14 15  1  0
 15 17  1  0
 15 16  2  0
 17 18  1  0
 18 19  1  0
 20 19  1  0
 21 20  1  6
 22 21  1  0
 23 25  1  0
 23 21  1  0
 24 23  2  0
M  END
$$$$
