PCR.pdb
     RDKit          3D

 25 25  0  0  1  0  0  0  0  0999 V2000
    7.3060  -14.7580   20.4654 N   0  0  0  0  0  0  0  0  0  0  0  0
    7.1443  -14.4398   19.0428 C   0  0  0  0  0  0  0  0  0  0  0  0
    7.0953  -12.9301   19.0393 C   0  0  0  0  0  0  0  0  0  0  0  0
    7.7536  -12.5005   20.3408 C   0  0  0  0  0  0  0  0  0  0  0  0
    8.3325  -13.7933   20.8415 C   0  0  1  0  0  0  0  0  0  0  0  0
    8.5605  -13.8037   22.3091 C   0  0  0  0  0  0  0  0  0  0  0  0
    9.7398  -13.8566   22.7377 O   0  0  0  0  0  0  0  0  0  0  0  0
    7.5135  -13.7563   23.2581 N   0  0  0  0  0  0  0  0  0  0  0  0
    7.7178  -13.6937   24.6801 C   0  0  1  0  0  0  0  0  0  0  0  0
    6.4842  -13.2262   25.4178 C   0  0  0  0  0  0  0  0  0  0  0  0
    6.7273  -13.2013   27.2127 S   0  0  0  0  0  0  0  0  0  0  0  0
    8.0510  -15.0334   25.2512 C   0  0  0  0  0  0  0  0  0  0  0  0
    7.2270  -15.9799   25.1239 O   0  0  0  0  0  0  0  0  0  0  0  0
   10.2424  -20.5005   23.1094 N   0  0  0  0  0  0  0  0  0  0  0  0
   11.4507  -21.0503   23.6580 C   0  0  0  0  0  0  0  0  0  0  0  0
   11.6217  -22.3149   23.7930 N   0  0  0  0  0  0  0  0  0  0  0  0
   12.5074  -20.1834   24.0710 N   0  0  0  0  0  0  0  0  0  0  0  0
   12.3343  -18.7871   24.3345 C   0  0  0  0  0  0  0  0  0  0  0  0
   11.1507  -18.4283   25.1650 C   0  0  0  0  0  0  0  0  0  0  0  0
   10.8811  -17.0033   25.4210 C   0  0  0  0  0  0  0  0  0  0  0  0
    9.7277  -16.6301   26.2745 C   0  0  2  0  0  0  0  0  0  0  0  0
    9.2614  -15.2830   25.9326 N   0  0  0  0  0  0  0  0  0  0  0  0
    9.9956  -16.7079   27.7067 C   0  0  0  0  0  0  0  0  0  0  0  0
   10.1899  -15.7129   28.4463 O   0  0  0  0  0  0  0  0  0  0  0  0
   10.0567  -17.9502   28.3714 O   0  0  0  0  0  0  0  0  0  0  0  0
  2  1  1  0
  3  2  1  0
  4  3  1  0
  4  5  1  0
  5  1  1  0
  5  6  1  1
  7  6  2  0
  8  6  1  0
  9 12  1  0
  9  8  1  0
  9 10  1  1
 11 10  1  0
 12 22  1  0
 13 12  2  0
 14 15  1  0
 15 17  1  0
 15 16  2  0
 17 18  1  0
 18 19  1  0
 20 19  1  0
 21 20  1  6
 22 21  1  0
 23 25  1  0
 23 21  1  0
 24 23  2  0
M  END
$$$$
