PCR.pdb
     RDKit          3D

 25 25  0  0  1  0  0  0  0  0999 V2000
    7.4489  -15.5463   20.0309 N   0  0  0  0  0  0  0  0  0  0  0  0
    7.1931  -15.3348   18.6022 C   0  0  0  0  0  0  0  0  0  0  0  0
    7.2251  -13.8302   18.4739 C   0  0  0  0  0  0  0  0  0  0  0  0
    8.0060  -13.3372   19.6818 C   0  0  0  0  0  0  0  0  0  0  0  0
    8.5522  -14.6178   20.2465 C   0  0  1  0  0  0  0  0  0  0  0  0
    8.8941  -14.5233   21.6888 C   0  0  0  0  0  0  0  0  0  0  0  0
    9.9667  -13.9606   22.0206 O   0  0  0  0  0  0  0  0  0  0  0  0
    8.0707  -15.0362   22.7174 N   0  0  0  0  0  0  0  0  0  0  0  0
    8.3949  -14.9701   24.1168 C   0  0  1  0  0  0  0  0  0  0  0  0
    7.1944  -15.2298   24.9976 C   0  0  0  0  0  0  0  0  0  0  0  0
    6.5448  -16.9085   24.7932 S   0  0  0  0  0  0  0  0  0  0  0  0
    9.4107  -15.9967   24.4990 C   0  0  0  0  0  0  0  0  0  0  0  0
    9.5074  -17.0523   23.8155 O   0  0  0  0  0  0  0  0  0  0  0  0
   18.0652  -16.5995   26.0347 N   0  0  0  0  0  0  0  0  0  0  0  0
   17.2974  -16.2371   24.8759 C   0  0  0  0  0  0  0  0  0  0  0  0
   17.8212  -16.1747   23.7061 N   0  0  0  0  0  0  0  0  0  0  0  0
   15.9081  -15.9346   25.0050 N   0  0  0  0  0  0  0  0  0  0  0  0
   15.1858  -16.0213   26.2377 C   0  0  0  0  0  0  0  0  0  0  0  0
   13.9024  -16.7757   26.1827 C   0  0  0  0  0  0  0  0  0  0  0  0
   12.6647  -16.0319   25.8930 C   0  0  0  0  0  0  0  0  0  0  0  0
   11.3693  -16.7525   25.9135 C   0  0  2  0  0  0  0  0  0  0  0  0
   10.2732  -15.8297   25.6035 N   0  0  0  0  0  0  0  0  0  0  0  0
   11.0900  -17.4420   27.1687 C   0  0  0  0  0  0  0  0  0  0  0  0
   10.2518  -17.0550   28.0186 O   0  0  0  0  0  0  0  0  0  0  0  0
   11.7705  -18.6270   27.5175 O   0  0  0  0  0  0  0  0  0  0  0  0
  2  1  1  0
  3  2  1  0
  4  3  1  0
  4  5  1  0
  5  1  1  0
  5  6  1  1
  7  6  2  0
  8  6  1  0
  9 12  1  0
  9  8  1  0
  9 10  1  1
 11 10  1  0
 12 22  1  0
 13 12  2  0
 14 15  1  0
 15 17  1  0
 15 16  2  0
 17 18  1  0
 18 19  1  0
 20 19  1  0
 21 20  1  1
 22 21  1  0
 23 25  1  0
 23 21  1  0
 24 23  2  0
M  END
$$$$
