PCR.pdb
     RDKit          3D

 25 25  0  0  1  0  0  0  0  0999 V2000
    6.7909  -14.3179   20.8630 N   0  0  0  0  0  0  0  0  0  0  0  0
    6.5430  -14.2734   19.4181 C   0  0  0  0  0  0  0  0  0  0  0  0
    7.4335  -13.1431   18.9587 C   0  0  0  0  0  0  0  0  0  0  0  0
    8.4892  -12.9930   20.0426 C   0  0  0  0  0  0  0  0  0  0  0  0
    8.2446  -14.2096   20.8896 C   0  0  1  0  0  0  0  0  0  0  0  0
    8.7421  -14.0642   22.2815 C   0  0  0  0  0  0  0  0  0  0  0  0
    9.9701  -14.2060   22.5029 O   0  0  0  0  0  0  0  0  0  0  0  0
    7.9015  -13.7717   23.3801 N   0  0  0  0  0  0  0  0  0  0  0  0
    8.3720  -13.5795   24.7253 C   0  0  1  0  0  0  0  0  0  0  0  0
    7.4633  -12.6773   25.5284 C   0  0  0  0  0  0  0  0  0  0  0  0
    5.7748  -13.3248   25.6350 S   0  0  0  0  0  0  0  0  0  0  0  0
    8.4368  -14.8680   25.4787 C   0  0  0  0  0  0  0  0  0  0  0  0
    7.6339  -15.7950   25.1843 O   0  0  0  0  0  0  0  0  0  0  0  0
   10.6211  -20.8449   29.2482 N   0  0  0  0  0  0  0  0  0  0  0  0
   11.5004  -21.3606   28.2362 C   0  0  0  0  0  0  0  0  0  0  0  0
   12.2900  -22.3469   28.4604 N   0  0  0  0  0  0  0  0  0  0  0  0
   11.5126  -20.7751   26.9340 N   0  0  0  0  0  0  0  0  0  0  0  0
   11.5044  -19.3637   26.6958 C   0  0  0  0  0  0  0  0  0  0  0  0
   10.1864  -18.7797   26.3200 C   0  0  0  0  0  0  0  0  0  0  0  0
   10.1165  -17.3373   26.0309 C   0  0  0  0  0  0  0  0  0  0  0  0
    9.6354  -16.4134   27.0858 C   0  0  2  0  0  0  0  0  0  0  0  0
    9.3691  -15.0898   26.5147 N   0  0  0  0  0  0  0  0  0  0  0  0
   10.5399  -16.2841   28.2234 C   0  0  0  0  0  0  0  0  0  0  0  0
   11.5222  -15.5041   28.2626 O   0  0  0  0  0  0  0  0  0  0  0  0
   10.3609  -17.0565   29.3897 O   0  0  0  0  0  0  0  0  0  0  0  0
  2  1  1  0
  3  2  1  0
  4  3  1  0
  4  5  1  0
  5  1  1  0
  5  6  1  1
  7  6  2  0
  8  6  1  0
  9 12  1  0
  9  8  1  0
  9 10  1  1
 11 10  1  0
 12 22  1  0
 13 12  2  0
 14 15  1  0
 15 17  1  0
 15 16  2  0
 17 18  1  0
 18 19  1  0
 20 19  1  0
 21 20  1  6
 22 21  1  0
 23 25  1  0
 23 21  1  0
 24 23  2  0
M  END
$$$$
