PCR.pdb
     RDKit          3D

 25 25  0  0  1  0  0  0  0  0999 V2000
    6.9447  -17.6629   18.5871 N   0  0  0  0  0  0  0  0  0  0  0  0
    6.5697  -18.1980   17.2739 C   0  0  0  0  0  0  0  0  0  0  0  0
    7.3132  -17.2952   16.3181 C   0  0  0  0  0  0  0  0  0  0  0  0
    8.4412  -16.6831   17.1335 C   0  0  0  0  0  0  0  0  0  0  0  0
    8.3798  -17.4828   18.4039 C   0  0  1  0  0  0  0  0  0  0  0  0
    8.9810  -16.7817   19.5671 C   0  0  0  0  0  0  0  0  0  0  0  0
   10.2143  -16.8990   19.7729 O   0  0  0  0  0  0  0  0  0  0  0  0
    8.2342  -15.9822   20.4628 N   0  0  0  0  0  0  0  0  0  0  0  0
    8.7905  -15.3358   21.6206 C   0  0  1  0  0  0  0  0  0  0  0  0
    8.0534  -14.0659   21.9794 C   0  0  0  0  0  0  0  0  0  0  0  0
    6.2754  -14.3419   22.1905 S   0  0  0  0  0  0  0  0  0  0  0  0
    8.7142  -16.2074   22.8317 C   0  0  0  0  0  0  0  0  0  0  0  0
    7.6729  -16.8892   23.0356 O   0  0  0  0  0  0  0  0  0  0  0  0
    7.1119  -21.1939   23.0745 N   0  0  0  0  0  0  0  0  0  0  0  0
    7.4197  -21.6911   24.3866 C   0  0  0  0  0  0  0  0  0  0  0  0
    6.5150  -21.8495   25.2827 N   0  0  0  0  0  0  0  0  0  0  0  0
    8.7652  -22.0270   24.7261 N   0  0  0  0  0  0  0  0  0  0  0  0
    9.8960  -21.2130   24.3976 C   0  0  0  0  0  0  0  0  0  0  0  0
    9.9316  -19.8684   25.0380 C   0  0  0  0  0  0  0  0  0  0  0  0
    9.8019  -18.6797   24.1782 C   0  0  0  0  0  0  0  0  0  0  0  0
    9.8415  -17.3338   24.7985 C   0  0  2  0  0  0  0  0  0  0  0  0
    9.7705  -16.2984   23.7632 N   0  0  0  0  0  0  0  0  0  0  0  0
   11.0064  -17.1015   25.6458 C   0  0  0  0  0  0  0  0  0  0  0  0
   11.8865  -16.2363   25.4188 O   0  0  0  0  0  0  0  0  0  0  0  0
   11.2239  -17.8634   26.8125 O   0  0  0  0  0  0  0  0  0  0  0  0
  2  1  1  0
  3  2  1  0
  4  3  1  0
  4  5  1  0
  5  1  1  0
  5  6  1  1
  7  6  2  0
  8  6  1  0
  9 12  1  0
  9  8  1  0
  9 10  1  1
 11 10  1  0
 12 22  1  0
 13 12  2  0
 14 15  1  0
 15 17  1  0
 15 16  2  0
 17 18  1  0
 18 19  1  0
 20 19  1  0
 21 20  1  6
 22 21  1  0
 23 25  1  0
 23 21  1  0
 24 23  2  0
M  END
$$$$
