PCR.pdb
     RDKit          3D

 25 25  0  0  1  0  0  0  0  0999 V2000
    4.8899  -19.1498   22.1364 N   0  0  0  0  0  0  0  0  0  0  0  0
    3.8175  -19.7790   21.3585 C   0  0  0  0  0  0  0  0  0  0  0  0
    3.0138  -18.5951   20.8747 C   0  0  0  0  0  0  0  0  0  0  0  0
    3.9579  -17.4057   20.9524 C   0  0  0  0  0  0  0  0  0  0  0  0
    5.2756  -18.0690   21.2371 C   0  0  1  0  0  0  0  0  0  0  0  0
    6.2595  -17.1638   21.8840 C   0  0  0  0  0  0  0  0  0  0  0  0
    6.7025  -16.1864   21.2317 O   0  0  0  0  0  0  0  0  0  0  0  0
    6.7282  -17.3437   23.2058 N   0  0  0  0  0  0  0  0  0  0  0  0
    7.6564  -16.4602   23.8583 C   0  0  1  0  0  0  0  0  0  0  0  0
    7.4685  -16.4350   25.3578 C   0  0  0  0  0  0  0  0  0  0  0  0
    8.7189  -15.4209   26.1882 S   0  0  0  0  0  0  0  0  0  0  0  0
    9.0724  -16.8793   23.6319 C   0  0  0  0  0  0  0  0  0  0  0  0
    9.4033  -18.0765   23.8512 O   0  0  0  0  0  0  0  0  0  0  0  0
   15.0488  -12.9448   18.1925 N   0  0  0  0  0  0  0  0  0  0  0  0
   15.6287  -14.2025   18.5734 C   0  0  0  0  0  0  0  0  0  0  0  0
   16.7483  -14.6074   18.0946 N   0  0  0  0  0  0  0  0  0  0  0  0
   14.9582  -15.0436   19.5123 N   0  0  0  0  0  0  0  0  0  0  0  0
   13.7748  -14.6607   20.2207 C   0  0  0  0  0  0  0  0  0  0  0  0
   13.3167  -15.6096   21.2738 C   0  0  0  0  0  0  0  0  0  0  0  0
   12.0497  -15.3259   21.9689 C   0  0  0  0  0  0  0  0  0  0  0  0
   11.3957  -16.4067   22.7448 C   0  0  2  0  0  0  0  0  0  0  0  0
   10.0617  -15.9808   23.1783 N   0  0  0  0  0  0  0  0  0  0  0  0
   12.1644  -16.8620   23.8983 C   0  0  0  0  0  0  0  0  0  0  0  0
   11.9217  -16.5355   25.0853 O   0  0  0  0  0  0  0  0  0  0  0  0
   13.2682  -17.7264   23.7446 O   0  0  0  0  0  0  0  0  0  0  0  0
  2  1  1  0
  3  2  1  0
  4  3  1  0
  4  5  1  0
  5  1  1  0
  5  6  1  1
  7  6  2  0
  8  6  1  0
  9 12  1  0
  9  8  1  0
  9 10  1  1
 11 10  1  0
 12 22  1  0
 13 12  2  0
 14 15  1  0
 15 17  1  0
 15 16  2  0
 17 18  1  0
 18 19  1  0
 20 19  1  0
 21 20  1  1
 22 21  1  0
 23 25  1  0
 23 21  1  0
 24 23  2  0
M  END
$$$$
