PCR.pdb
     RDKit          3D

 25 25  0  0  1  0  0  0  0  0999 V2000
    7.0362  -14.7369   20.5908 N   0  0  0  0  0  0  0  0  0  0  0  0
    6.8987  -14.7348   19.1306 C   0  0  0  0  0  0  0  0  0  0  0  0
    7.4223  -13.3713   18.7454 C   0  0  0  0  0  0  0  0  0  0  0  0
    8.2910  -12.9267   19.9115 C   0  0  0  0  0  0  0  0  0  0  0  0
    8.3760  -14.1803   20.7353 C   0  0  1  0  0  0  0  0  0  0  0  0
    8.6941  -13.9226   22.1630 C   0  0  0  0  0  0  0  0  0  0  0  0
    9.8951  -13.7704   22.4973 O   0  0  0  0  0  0  0  0  0  0  0  0
    7.7102  -13.8380   23.1749 N   0  0  0  0  0  0  0  0  0  0  0  0
    7.9965  -13.5491   24.5542 C   0  0  1  0  0  0  0  0  0  0  0  0
    6.8584  -12.8269   25.2381 C   0  0  0  0  0  0  0  0  0  0  0  0
    7.2372  -12.4309   26.9648 S   0  0  0  0  0  0  0  0  0  0  0  0
    8.2224  -14.7959   25.3458 C   0  0  0  0  0  0  0  0  0  0  0  0
    7.3186  -15.6750   25.3821 O   0  0  0  0  0  0  0  0  0  0  0  0
   12.9869  -18.5539   22.7760 N   0  0  0  0  0  0  0  0  0  0  0  0
   12.5018  -19.8155   23.2620 C   0  0  0  0  0  0  0  0  0  0  0  0
   12.1606  -20.7639   22.4678 N   0  0  0  0  0  0  0  0  0  0  0  0
   12.3886  -20.0446   24.6668 N   0  0  0  0  0  0  0  0  0  0  0  0
   12.1968  -19.0033   25.6301 C   0  0  0  0  0  0  0  0  0  0  0  0
   11.2220  -17.9429   25.2496 C   0  0  0  0  0  0  0  0  0  0  0  0
   11.1152  -16.7499   26.1065 C   0  0  0  0  0  0  0  0  0  0  0  0
    9.7817  -16.3398   26.6079 C   0  0  2  0  0  0  0  0  0  0  0  0
    9.4170  -15.0300   26.0597 N   0  0  0  0  0  0  0  0  0  0  0  0
    9.6746  -16.3100   28.0627 C   0  0  0  0  0  0  0  0  0  0  0  0
    9.6922  -17.3284   28.7956 O   0  0  0  0  0  0  0  0  0  0  0  0
    9.5378  -15.0915   28.7596 O   0  0  0  0  0  0  0  0  0  0  0  0
  2  1  1  0
  3  2  1  0
  4  3  1  0
  4  5  1  0
  5  1  1  0
  5  6  1  1
  7  6  2  0
  8  6  1  0
  9 12  1  0
  9  8  1  0
  9 10  1  1
 11 10  1  0
 12 22  1  0
 13 12  2  0
 14 15  1  0
 15 17  1  0
 15 16  2  0
 17 18  1  0
 18 19  1  0
 20 19  1  0
 21 20  1  1
 22 21  1  0
 23 25  1  0
 23 21  1  0
 24 23  2  0
M  END
$$$$
