TCY.pdb
     RDKit          3D

 26 26  0  0  1  0  0  0  0  0999 V2000
    6.8782  -14.6983   17.5232 C   0  0  0  0  0  0  0  0  0  0  0  0
    7.5257  -14.7519   18.8978 C   0  0  1  0  0  0  0  0  0  0  0  0
    8.8984  -14.8773   18.6940 O   0  0  0  0  0  0  0  0  0  0  0  0
    7.2844  -13.4365   19.6043 C   0  0  2  0  0  0  0  0  0  0  0  0
    7.9336  -12.4043   18.8318 N   0  0  0  0  0  0  0  0  0  0  0  0
    7.8765  -13.4432   20.9663 C   0  0  0  0  0  0  0  0  0  0  0  0
    9.1035  -13.1318   21.1359 O   0  0  0  0  0  0  0  0  0  0  0  0
    7.1382  -13.7853   22.1263 N   0  0  0  0  0  0  0  0  0  0  0  0
    7.7540  -13.7577   23.4777 C   0  0  1  0  0  0  0  0  0  0  0  0
    6.6456  -13.3759   24.4239 C   0  0  0  0  0  0  0  0  0  0  0  0
    7.1036  -13.4870   26.1468 S   0  0  0  0  0  0  0  0  0  0  0  0
    8.2733  -15.0831   23.8114 C   0  0  0  0  0  0  0  0  0  0  0  0
    7.4847  -16.0208   24.1200 O   0  0  0  0  0  0  0  0  0  0  0  0
   11.4015  -16.1141   31.3562 O   0  0  0  0  0  0  0  0  0  0  0  0
   11.0840  -15.7219   30.0619 C   0  0  0  0  0  0  0  0  0  0  0  0
   10.6819  -14.4459   29.7398 C   0  0  0  0  0  0  0  0  0  0  0  0
   10.3796  -14.1201   28.4265 C   0  0  0  0  0  0  0  0  0  0  0  0
   10.4675  -15.0476   27.4006 C   0  0  0  0  0  0  0  0  0  0  0  0
   10.1417  -14.6821   26.0171 C   0  0  0  0  0  0  0  0  0  0  0  0
   10.3615  -15.7865   25.0176 C   0  0  2  0  0  0  0  0  0  0  0  0
    9.6371  -15.3754   23.8029 N   0  0  0  0  0  0  0  0  0  0  0  0
    9.7979  -17.0717   25.4633 C   0  0  0  0  0  0  0  0  0  0  0  0
    8.4718  -17.1615   25.8167 O   0  0  0  0  0  0  0  0  0  0  0  0
   10.8743  -16.3182   27.7611 C   0  0  0  0  0  0  0  0  0  0  0  0
   11.1807  -16.6636   29.0662 C   0  0  0  0  0  0  0  0  0  0  0  0
   10.4781  -18.1319   25.5442 O   0  0  0  0  0  0  0  0  0  0  0  0
  2  1  1  6
  3  2  1  0
  4  2  1  0
  4  6  1  0
  4  5  1  6
  6  7  2  0
  8  6  1  0
  8  9  1  0
  9 10  1  1
 11 10  1  0
 12  9  1  0
 12 21  1  0
 13 12  2  0
 15 14  1  0
 16 15  2  0
 17 16  1  0
 18 24  1  0
 18 17  2  0
 19 18  1  0
 20 22  1  0
 20 21  1  0
 20 19  1  1
 22 23  1  0
 24 25  2  0
 25 15  1  0
 26 22  2  0
M  END
$$$$
