TCY.pdb
     RDKit          3D

 26 26  0  0  1  0  0  0  0  0999 V2000
   10.7272  -14.9729   19.5823 C   0  0  0  0  0  0  0  0  0  0  0  0
   10.0875  -13.7544   18.9358 C   0  0  1  0  0  0  0  0  0  0  0  0
   10.7255  -13.5640   17.7117 O   0  0  0  0  0  0  0  0  0  0  0  0
    8.6328  -14.0571   18.6534 C   0  0  2  0  0  0  0  0  0  0  0  0
    8.0831  -12.9232   17.9492 N   0  0  0  0  0  0  0  0  0  0  0  0
    7.8689  -14.2396   19.9138 C   0  0  0  0  0  0  0  0  0  0  0  0
    7.6219  -13.2383   20.6671 O   0  0  0  0  0  0  0  0  0  0  0  0
    7.3819  -15.4986   20.3448 N   0  0  0  0  0  0  0  0  0  0  0  0
    6.7764  -15.6808   21.6888 C   0  0  1  0  0  0  0  0  0  0  0  0
    6.0734  -17.0125   21.6430 C   0  0  0  0  0  0  0  0  0  0  0  0
    7.1524  -18.3795   21.2461 S   0  0  0  0  0  0  0  0  0  0  0  0
    7.8263  -15.6949   22.7062 C   0  0  0  0  0  0  0  0  0  0  0  0
    9.0118  -16.0059   22.3987 O   0  0  0  0  0  0  0  0  0  0  0  0
   11.3865  -14.9200   30.8644 O   0  0  0  0  0  0  0  0  0  0  0  0
   10.5712  -14.8526   29.7418 C   0  0  0  0  0  0  0  0  0  0  0  0
   10.4196  -13.7102   28.9897 C   0  0  0  0  0  0  0  0  0  0  0  0
    9.5891  -13.7107   27.8795 C   0  0  0  0  0  0  0  0  0  0  0  0
    8.8889  -14.8402   27.4863 C   0  0  0  0  0  0  0  0  0  0  0  0
    8.0141  -14.8189   26.3082 C   0  0  0  0  0  0  0  0  0  0  0  0
    8.6350  -15.4014   25.0663 C   0  0  2  0  0  0  0  0  0  0  0  0
    7.5793  -15.3692   24.0397 N   0  0  0  0  0  0  0  0  0  0  0  0
    9.0453  -16.8041   25.2449 C   0  0  0  0  0  0  0  0  0  0  0  0
   10.3618  -17.1148   25.4930 O   0  0  0  0  0  0  0  0  0  0  0  0
    9.0655  -15.9683   28.2649 C   0  0  0  0  0  0  0  0  0  0  0  0
    9.8898  -15.9884   29.3769 C   0  0  0  0  0  0  0  0  0  0  0  0
    8.2376  -17.7720   25.1825 O   0  0  0  0  0  0  0  0  0  0  0  0
  2  1  1  6
  3  2  1  0
  4  2  1  0
  4  6  1  0
  4  5  1  1
  6  7  2  0
  8  6  1  0
  8  9  1  0
  9 10  1  6
 11 10  1  0
 12  9  1  0
 12 21  1  0
 13 12  2  0
 15 14  1  0
 16 15  2  0
 17 16  1  0
 18 24  1  0
 18 17  2  0
 19 18  1  0
 20 22  1  0
 20 21  1  0
 20 19  1  1
 22 23  1  0
 24 25  2  0
 25 15  1  0
 26 22  2  0
M  END
$$$$
