TCY.pdb
     RDKit          3D

 26 26  0  0  1  0  0  0  0  0999 V2000
    6.2438  -18.9494   23.5673 C   0  0  0  0  0  0  0  0  0  0  0  0
    6.2322  -19.8108   22.3144 C   0  0  1  0  0  0  0  0  0  0  0  0
    5.2026  -20.7368   22.4695 O   0  0  0  0  0  0  0  0  0  0  0  0
    5.8918  -18.9405   21.1251 C   0  0  2  0  0  0  0  0  0  0  0  0
    5.7110  -19.8117   19.9883 N   0  0  0  0  0  0  0  0  0  0  0  0
    6.9960  -17.9957   20.8189 C   0  0  0  0  0  0  0  0  0  0  0  0
    8.0401  -18.4031   20.2066 O   0  0  0  0  0  0  0  0  0  0  0  0
    6.9596  -16.6252   21.1769 N   0  0  0  0  0  0  0  0  0  0  0  0
    8.1437  -15.7445   21.0081 C   0  0  1  0  0  0  0  0  0  0  0  0
    7.6614  -14.5600   20.2117 C   0  0  0  0  0  0  0  0  0  0  0  0
    6.1154  -13.8837   20.7973 S   0  0  0  0  0  0  0  0  0  0  0  0
    8.6294  -15.3127   22.3178 C   0  0  0  0  0  0  0  0  0  0  0  0
    8.0203  -14.4121   22.9616 O   0  0  0  0  0  0  0  0  0  0  0  0
   10.5303  -14.8963   30.6355 O   0  0  0  0  0  0  0  0  0  0  0  0
   10.1973  -15.1364   29.3084 C   0  0  0  0  0  0  0  0  0  0  0  0
   10.2248  -16.3897   28.7408 C   0  0  0  0  0  0  0  0  0  0  0  0
    9.8800  -16.5601   27.4087 C   0  0  0  0  0  0  0  0  0  0  0  0
    9.5000  -15.4961   26.6062 C   0  0  0  0  0  0  0  0  0  0  0  0
    9.1400  -15.6984   25.1979 C   0  0  0  0  0  0  0  0  0  0  0  0
   10.2573  -15.4199   24.2279 C   0  0  2  0  0  0  0  0  0  0  0  0
    9.7640  -15.8637   22.9130 N   0  0  0  0  0  0  0  0  0  0  0  0
   11.4752  -16.1888   24.5337 C   0  0  0  0  0  0  0  0  0  0  0  0
   11.5062  -17.5483   24.3281 O   0  0  0  0  0  0  0  0  0  0  0  0
    9.4840  -14.2530   27.2098 C   0  0  0  0  0  0  0  0  0  0  0  0
    9.8245  -14.0617   28.5379 C   0  0  0  0  0  0  0  0  0  0  0  0
   12.5279  -15.6610   24.9878 O   0  0  0  0  0  0  0  0  0  0  0  0
  2  1  1  1
  3  2  1  0
  4  2  1  0
  4  6  1  0
  4  5  1  6
  6  7  2  0
  8  6  1  0
  8  9  1  0
  9 10  1  6
 11 10  1  0
 12  9  1  0
 12 21  1  0
 13 12  2  0
 15 14  1  0
 16 15  2  0
 17 16  1  0
 18 24  1  0
 18 17  2  0
 19 18  1  0
 20 22  1  0
 20 21  1  0
 20 19  1  1
 22 23  1  0
 24 25  2  0
 25 15  1  0
 26 22  2  0
M  END
$$$$
