TCY.pdb
     RDKit          3D

 26 26  0  0  1  0  0  0  0  0999 V2000
    9.6367  -19.6121   20.4694 C   0  0  0  0  0  0  0  0  0  0  0  0
   10.6364  -19.0345   19.4801 C   0  0  1  0  0  0  0  0  0  0  0  0
   10.8533  -20.0091   18.5082 O   0  0  0  0  0  0  0  0  0  0  0  0
   10.0141  -17.8364   18.7983 C   0  0  2  0  0  0  0  0  0  0  0  0
   10.9653  -17.3467   17.8292 N   0  0  0  0  0  0  0  0  0  0  0  0
    9.7372  -16.7496   19.7718 C   0  0  0  0  0  0  0  0  0  0  0  0
   10.6988  -16.0766   20.2753 O   0  0  0  0  0  0  0  0  0  0  0  0
    8.4281  -16.4034   20.1892 N   0  0  0  0  0  0  0  0  0  0  0  0
    8.1895  -15.3603   21.2194 C   0  0  1  0  0  0  0  0  0  0  0  0
    6.7527  -14.9398   21.0498 C   0  0  0  0  0  0  0  0  0  0  0  0
    6.1758  -13.8285   22.3235 S   0  0  0  0  0  0  0  0  0  0  0  0
    8.4003  -15.9242   22.5518 C   0  0  0  0  0  0  0  0  0  0  0  0
    8.0129  -17.0967   22.8195 O   0  0  0  0  0  0  0  0  0  0  0  0
   10.8308  -16.0112   31.1445 O   0  0  0  0  0  0  0  0  0  0  0  0
   10.5450  -15.6265   29.8407 C   0  0  0  0  0  0  0  0  0  0  0  0
   10.1171  -14.3622   29.5060 C   0  0  0  0  0  0  0  0  0  0  0  0
    9.8489  -14.0435   28.1836 C   0  0  0  0  0  0  0  0  0  0  0  0
    9.9973  -14.9667   27.1607 C   0  0  0  0  0  0  0  0  0  0  0  0
    9.7069  -14.6089   25.7674 C   0  0  0  0  0  0  0  0  0  0  0  0
    9.1298  -15.7325   24.9479 C   0  0  2  0  0  0  0  0  0  0  0  0
    9.0297  -15.2131   23.5733 N   0  0  0  0  0  0  0  0  0  0  0  0
    7.7758  -16.1119   25.3843 C   0  0  0  0  0  0  0  0  0  0  0  0
    6.6976  -15.3198   25.0659 O   0  0  0  0  0  0  0  0  0  0  0  0
   10.4286  -16.2256   27.5340 C   0  0  0  0  0  0  0  0  0  0  0  0
   10.7016  -16.5638   28.8483 C   0  0  0  0  0  0  0  0  0  0  0  0
    7.5342  -17.1536   26.0549 O   0  0  0  0  0  0  0  0  0  0  0  0
  2  1  1  1
  3  2  1  0
  4  2  1  0
  4  6  1  0
  4  5  1  6
  6  7  2  0
  8  6  1  0
  8  9  1  0
  9 10  1  1
 11 10  1  0
 12  9  1  0
 12 21  1  0
 13 12  2  0
 15 14  1  0
 16 15  2  0
 17 16  1  0
 18 24  1  0
 18 17  2  0
 19 18  1  0
 20 22  1  0
 20 21  1  0
 20 19  1  1
 22 23  1  0
 24 25  2  0
 25 15  1  0
 26 22  2  0
M  END
$$$$
