TCY.pdb
     RDKit          3D

 26 26  0  0  1  0  0  0  0  0999 V2000
    5.7231  -19.7315   20.8342 C   0  0  0  0  0  0  0  0  0  0  0  0
    6.7506  -18.6784   21.2175 C   0  0  1  0  0  0  0  0  0  0  0  0
    7.9316  -19.3550   21.5160 O   0  0  0  0  0  0  0  0  0  0  0  0
    7.0174  -17.7954   20.0188 C   0  0  2  0  0  0  0  0  0  0  0  0
    7.6195  -18.6202   18.9986 N   0  0  0  0  0  0  0  0  0  0  0  0
    7.9660  -16.7041   20.3577 C   0  0  0  0  0  0  0  0  0  0  0  0
    9.2234  -16.8778   20.2169 O   0  0  0  0  0  0  0  0  0  0  0  0
    7.5463  -15.4409   20.8434 N   0  0  0  0  0  0  0  0  0  0  0  0
    8.5237  -14.3976   21.2467 C   0  0  1  0  0  0  0  0  0  0  0  0
    7.8878  -13.0806   20.8851 C   0  0  0  0  0  0  0  0  0  0  0  0
    7.5930  -12.8834   19.1345 S   0  0  0  0  0  0  0  0  0  0  0  0
    8.7578  -14.4704   22.6881 C   0  0  0  0  0  0  0  0  0  0  0  0
    8.3800  -13.5329   23.4463 O   0  0  0  0  0  0  0  0  0  0  0  0
    6.4674  -10.6962   27.4402 O   0  0  0  0  0  0  0  0  0  0  0  0
    6.9167  -11.9055   26.9248 C   0  0  0  0  0  0  0  0  0  0  0  0
    8.2427  -12.2733   26.9160 C   0  0  0  0  0  0  0  0  0  0  0  0
    8.6241  -13.4963   26.3858 C   0  0  0  0  0  0  0  0  0  0  0  0
    7.7041  -14.3846   25.8518 C   0  0  0  0  0  0  0  0  0  0  0  0
    8.1293  -15.6739   25.2944 C   0  0  0  0  0  0  0  0  0  0  0  0
    9.5328  -15.6792   24.7492 C   0  0  2  0  0  0  0  0  0  0  0  0
    9.3937  -15.5571   23.2880 N   0  0  0  0  0  0  0  0  0  0  0  0
   10.2425  -16.9385   25.0292 C   0  0  0  0  0  0  0  0  0  0  0  0
   10.8290  -17.1454   26.2559 O   0  0  0  0  0  0  0  0  0  0  0  0
    6.3823  -13.9818   25.8776 C   0  0  0  0  0  0  0  0  0  0  0  0
    5.9810  -12.7652   26.4024 C   0  0  0  0  0  0  0  0  0  0  0  0
   10.3500  -17.8715   24.1860 O   0  0  0  0  0  0  0  0  0  0  0  0
  2  1  1  6
  3  2  1  0
  4  2  1  0
  4  6  1  0
  4  5  1  6
  6  7  2  0
  8  6  1  0
  8  9  1  0
  9 10  1  1
 11 10  1  0
 12  9  1  0
 12 21  1  0
 13 12  2  0
 15 14  1  0
 16 15  2  0
 17 16  1  0
 18 24  1  0
 18 17  2  0
 19 18  1  0
 20 22  1  0
 20 21  1  0
 20 19  1  1
 22 23  1  0
 24 25  2  0
 25 15  1  0
 26 22  2  0
M  END
$$$$
