TCY.pdb
     RDKit          3D

 26 26  0  0  1  0  0  0  0  0999 V2000
   13.0866  -17.9035   17.1749 C   0  0  0  0  0  0  0  0  0  0  0  0
   12.0076  -17.8572   18.2451 C   0  0  1  0  0  0  0  0  0  0  0  0
   10.8876  -17.2648   17.6653 O   0  0  0  0  0  0  0  0  0  0  0  0
   11.6337  -19.2727   18.6251 C   0  0  2  0  0  0  0  0  0  0  0  0
   11.0042  -19.8779   17.4756 N   0  0  0  0  0  0  0  0  0  0  0  0
   10.6648  -19.2873   19.7505 C   0  0  0  0  0  0  0  0  0  0  0  0
    9.4125  -19.3857   19.5199 O   0  0  0  0  0  0  0  0  0  0  0  0
   11.0589  -19.1958   21.1084 N   0  0  0  0  0  0  0  0  0  0  0  0
   10.0616  -19.1718   22.2089 C   0  0  1  0  0  0  0  0  0  0  0  0
   10.5062  -20.2289   23.1860 C   0  0  0  0  0  0  0  0  0  0  0  0
    9.6630  -20.1514   24.7588 S   0  0  0  0  0  0  0  0  0  0  0  0
   10.0619  -17.8566   22.8477 C   0  0  0  0  0  0  0  0  0  0  0  0
   11.1485  -17.2466   23.0569 O   0  0  0  0  0  0  0  0  0  0  0  0
    6.5065  -10.9400   27.2584 O   0  0  0  0  0  0  0  0  0  0  0  0
    6.7811  -12.0086   26.4144 C   0  0  0  0  0  0  0  0  0  0  0  0
    7.6690  -11.9302   25.3660 C   0  0  0  0  0  0  0  0  0  0  0  0
    7.8974  -13.0357   24.5609 C   0  0  0  0  0  0  0  0  0  0  0  0
    7.2538  -14.2446   24.7730 C   0  0  0  0  0  0  0  0  0  0  0  0
    7.5093  -15.4024   23.9081 C   0  0  0  0  0  0  0  0  0  0  0  0
    8.8956  -15.9759   24.0362 C   0  0  2  0  0  0  0  0  0  0  0  0
    8.8873  -17.2196   23.2473 N   0  0  0  0  0  0  0  0  0  0  0  0
    9.2352  -16.3272   25.4251 C   0  0  0  0  0  0  0  0  0  0  0  0
    8.6800  -17.4390   26.0142 O   0  0  0  0  0  0  0  0  0  0  0  0
    6.3696  -14.2862   25.8344 C   0  0  0  0  0  0  0  0  0  0  0  0
    6.1276  -13.1939   26.6498 C   0  0  0  0  0  0  0  0  0  0  0  0
   10.0306  -15.6494   26.1329 O   0  0  0  0  0  0  0  0  0  0  0  0
  2  1  1  6
  3  2  1  0
  4  2  1  0
  4  6  1  0
  4  5  1  6
  6  7  2  0
  8  6  1  0
  8  9  1  0
  9 10  1  1
 11 10  1  0
 12  9  1  0
 12 21  1  0
 13 12  2  0
 15 14  1  0
 16 15  2  0
 17 16  1  0
 18 24  1  0
 18 17  2  0
 19 18  1  0
 20 22  1  0
 20 21  1  0
 20 19  1  1
 22 23  1  0
 24 25  2  0
 25 15  1  0
 26 22  2  0
M  END
$$$$
