TCY.pdb
     RDKit          3D

 26 26  0  0  1  0  0  0  0  0999 V2000
    8.7955  -13.2080   15.8666 C   0  0  0  0  0  0  0  0  0  0  0  0
    8.6036  -13.9952   17.1532 C   0  0  1  0  0  0  0  0  0  0  0  0
    7.2409  -13.9708   17.4431 O   0  0  0  0  0  0  0  0  0  0  0  0
    8.9956  -15.4355   16.9091 C   0  0  2  0  0  0  0  0  0  0  0  0
    8.0971  -15.9659   15.9115 N   0  0  0  0  0  0  0  0  0  0  0  0
    8.8532  -16.2465   18.1450 C   0  0  0  0  0  0  0  0  0  0  0  0
    7.7859  -16.9154   18.3561 O   0  0  0  0  0  0  0  0  0  0  0  0
    9.8629  -16.3254   19.1360 N   0  0  0  0  0  0  0  0  0  0  0  0
    9.6520  -17.0674   20.4053 C   0  0  1  0  0  0  0  0  0  0  0  0
   10.8350  -17.9904   20.5403 C   0  0  0  0  0  0  0  0  0  0  0  0
   12.4106  -17.1652   20.3762 S   0  0  0  0  0  0  0  0  0  0  0  0
    9.6092  -16.1287   21.5254 C   0  0  0  0  0  0  0  0  0  0  0  0
   10.3451  -15.1016   21.5286 O   0  0  0  0  0  0  0  0  0  0  0  0
    6.5151  -11.2493   28.1516 O   0  0  0  0  0  0  0  0  0  0  0  0
    6.6999  -12.1561   27.1156 C   0  0  0  0  0  0  0  0  0  0  0  0
    6.1608  -13.4221   27.1189 C   0  0  0  0  0  0  0  0  0  0  0  0
    6.3842  -14.2785   26.0516 C   0  0  0  0  0  0  0  0  0  0  0  0
    7.1456  -13.9038   24.9560 C   0  0  0  0  0  0  0  0  0  0  0  0
    7.3707  -14.8264   23.8371 C   0  0  0  0  0  0  0  0  0  0  0  0
    8.7641  -15.3934   23.7738 C   0  0  2  0  0  0  0  0  0  0  0  0
    8.7689  -16.3129   22.6233 N   0  0  0  0  0  0  0  0  0  0  0  0
    9.1113  -16.1732   24.9735 C   0  0  0  0  0  0  0  0  0  0  0  0
    9.7842  -15.5791   26.0155 O   0  0  0  0  0  0  0  0  0  0  0  0
    7.6709  -12.6259   24.9873 C   0  0  0  0  0  0  0  0  0  0  0  0
    7.4596  -11.7558   26.0431 C   0  0  0  0  0  0  0  0  0  0  0  0
    8.8204  -17.3938   25.1105 O   0  0  0  0  0  0  0  0  0  0  0  0
  2  1  1  6
  3  2  1  0
  4  2  1  0
  4  6  1  0
  4  5  1  6
  6  7  2  0
  8  6  1  0
  8  9  1  0
  9 10  1  1
 11 10  1  0
 12  9  1  0
 12 21  1  0
 13 12  2  0
 15 14  1  0
 16 15  2  0
 17 16  1  0
 18 24  1  0
 18 17  2  0
 19 18  1  0
 20 22  1  0
 20 21  1  0
 20 19  1  1
 22 23  1  0
 24 25  2  0
 25 15  1  0
 26 22  2  0
M  END
$$$$
