TCY.pdb
     RDKit          3D

 26 26  0  0  1  0  0  0  0  0999 V2000
    9.3341  -16.3874   16.9996 C   0  0  0  0  0  0  0  0  0  0  0  0
    9.4283  -14.8958   16.7205 C   0  0  1  0  0  0  0  0  0  0  0  0
    9.2819  -14.7316   15.3446 O   0  0  0  0  0  0  0  0  0  0  0  0
    8.2670  -14.1976   17.3925 C   0  0  2  0  0  0  0  0  0  0  0  0
    8.2307  -12.8423   16.8970 N   0  0  0  0  0  0  0  0  0  0  0  0
    8.4490  -14.1520   18.8657 C   0  0  0  0  0  0  0  0  0  0  0  0
    9.3063  -13.3597   19.3838 O   0  0  0  0  0  0  0  0  0  0  0  0
    7.7046  -14.9607   19.7600 N   0  0  0  0  0  0  0  0  0  0  0  0
    7.9595  -14.9419   21.2232 C   0  0  1  0  0  0  0  0  0  0  0  0
    6.7071  -15.4822   21.8630 C   0  0  0  0  0  0  0  0  0  0  0  0
    6.2343  -17.0966   21.2623 S   0  0  0  0  0  0  0  0  0  0  0  0
    9.1014  -15.7995   21.5370 C   0  0  0  0  0  0  0  0  0  0  0  0
    9.4110  -16.7581   20.7743 O   0  0  0  0  0  0  0  0  0  0  0  0
   13.8666  -14.5429   17.5266 O   0  0  0  0  0  0  0  0  0  0  0  0
   13.5055  -14.8282   18.8373 C   0  0  0  0  0  0  0  0  0  0  0  0
   14.1556  -15.7628   19.6103 C   0  0  0  0  0  0  0  0  0  0  0  0
   13.7438  -15.9993   20.9129 C   0  0  0  0  0  0  0  0  0  0  0  0
   12.6799  -15.3178   21.4824 C   0  0  0  0  0  0  0  0  0  0  0  0
   12.2595  -15.5843   22.8629 C   0  0  0  0  0  0  0  0  0  0  0  0
   11.0459  -16.4677   22.9802 C   0  0  2  0  0  0  0  0  0  0  0  0
    9.8931  -15.6054   22.6687 N   0  0  0  0  0  0  0  0  0  0  0  0
   10.8590  -16.9923   24.3431 C   0  0  0  0  0  0  0  0  0  0  0  0
   11.7466  -17.9059   24.8617 O   0  0  0  0  0  0  0  0  0  0  0  0
   12.0512  -14.3872   20.6769 C   0  0  0  0  0  0  0  0  0  0  0  0
   12.4469  -14.1363   19.3742 C   0  0  0  0  0  0  0  0  0  0  0  0
    9.9033  -16.6448   25.0907 O   0  0  0  0  0  0  0  0  0  0  0  0
  2  1  1  6
  3  2  1  0
  4  2  1  0
  4  6  1  0
  4  5  1  6
  6  7  2  0
  8  6  1  0
  8  9  1  0
  9 10  1  1
 11 10  1  0
 12  9  1  0
 12 21  1  0
 13 12  2  0
 15 14  1  0
 16 15  2  0
 17 16  1  0
 18 24  1  0
 18 17  2  0
 19 18  1  0
 20 22  1  0
 20 21  1  0
 20 19  1  1
 22 23  1  0
 24 25  2  0
 25 15  1  0
 26 22  2  0
M  END
$$$$
