TCY.pdb
     RDKit          3D

 26 26  0  0  1  0  0  0  0  0999 V2000
    9.0783  -12.6793   20.3146 C   0  0  0  0  0  0  0  0  0  0  0  0
    8.3124  -13.1274   19.0799 C   0  0  1  0  0  0  0  0  0  0  0  0
    8.9941  -12.6214   17.9750 O   0  0  0  0  0  0  0  0  0  0  0  0
    8.3583  -14.6369   18.9963 C   0  0  2  0  0  0  0  0  0  0  0  0
    7.6458  -15.0266   17.8029 N   0  0  0  0  0  0  0  0  0  0  0  0
    7.6869  -15.2591   20.1658 C   0  0  0  0  0  0  0  0  0  0  0  0
    6.5009  -15.7202   20.0565 O   0  0  0  0  0  0  0  0  0  0  0  0
    8.3028  -15.3756   21.4365 N   0  0  0  0  0  0  0  0  0  0  0  0
    7.8137  -16.3415   22.4534 C   0  0  1  0  0  0  0  0  0  0  0  0
    7.9898  -17.7057   21.8388 C   0  0  0  0  0  0  0  0  0  0  0  0
    7.6007  -19.0485   22.9505 S   0  0  0  0  0  0  0  0  0  0  0  0
    8.6147  -16.2253   23.6710 C   0  0  0  0  0  0  0  0  0  0  0  0
    9.8733  -16.1359   23.6035 O   0  0  0  0  0  0  0  0  0  0  0  0
    5.7850  -10.3542   26.2408 O   0  0  0  0  0  0  0  0  0  0  0  0
    6.3394  -11.6047   26.4827 C   0  0  0  0  0  0  0  0  0  0  0  0
    7.6850  -11.8034   26.6915 C   0  0  0  0  0  0  0  0  0  0  0  0
    8.1735  -13.0793   26.9279 C   0  0  0  0  0  0  0  0  0  0  0  0
    7.3439  -14.1888   26.9634 C   0  0  0  0  0  0  0  0  0  0  0  0
    7.8819  -15.5309   27.2142 C   0  0  0  0  0  0  0  0  0  0  0  0
    8.8448  -16.0173   26.1638 C   0  0  2  0  0  0  0  0  0  0  0  0
    8.0426  -16.2041   24.9428 N   0  0  0  0  0  0  0  0  0  0  0  0
    9.4475  -17.3157   26.5083 C   0  0  0  0  0  0  0  0  0  0  0  0
   10.3873  -17.3998   27.5089 O   0  0  0  0  0  0  0  0  0  0  0  0
    5.9993  -13.9513   26.7495 C   0  0  0  0  0  0  0  0  0  0  0  0
    5.4916  -12.6855   26.5120 C   0  0  0  0  0  0  0  0  0  0  0  0
    9.1458  -18.3928   25.9234 O   0  0  0  0  0  0  0  0  0  0  0  0
  2  1  1  1
  3  2  1  0
  4  2  1  0
  4  6  1  0
  4  5  1  6
  6  7  2  0
  8  6  1  0
  8  9  1  0
  9 10  1  6
 11 10  1  0
 12  9  1  0
 12 21  1  0
 13 12  2  0
 15 14  1  0
 16 15  2  0
 17 16  1  0
 18 24  1  0
 18 17  2  0
 19 18  1  0
 20 22  1  0
 20 21  1  0
 20 19  1  1
 22 23  1  0
 24 25  2  0
 25 15  1  0
 26 22  2  0
M  END
$$$$
