TCY.pdb
     RDKit          3D

 26 26  0  0  1  0  0  0  0  0999 V2000
    9.7293  -12.9486   18.4538 C   0  0  0  0  0  0  0  0  0  0  0  0
    9.3034  -13.6857   19.7135 C   0  0  1  0  0  0  0  0  0  0  0  0
    9.1676  -12.7280   20.7165 O   0  0  0  0  0  0  0  0  0  0  0  0
    7.9429  -14.3048   19.4823 C   0  0  2  0  0  0  0  0  0  0  0  0
    7.0220  -13.2315   19.1930 N   0  0  0  0  0  0  0  0  0  0  0  0
    7.4649  -15.0166   20.6949 C   0  0  0  0  0  0  0  0  0  0  0  0
    6.6865  -14.4301   21.5203 O   0  0  0  0  0  0  0  0  0  0  0  0
    7.8325  -16.3504   21.0011 N   0  0  0  0  0  0  0  0  0  0  0  0
    7.3892  -17.0121   22.2548 C   0  0  1  0  0  0  0  0  0  0  0  0
    7.3771  -18.4885   21.9552 C   0  0  0  0  0  0  0  0  0  0  0  0
    6.9369  -19.5014   23.3590 S   0  0  0  0  0  0  0  0  0  0  0  0
    8.3360  -16.7192   23.3297 C   0  0  0  0  0  0  0  0  0  0  0  0
    9.5623  -16.5522   23.0751 O   0  0  0  0  0  0  0  0  0  0  0  0
    6.1365  -10.4385   25.7415 O   0  0  0  0  0  0  0  0  0  0  0  0
    6.5632  -11.7324   26.0126 C   0  0  0  0  0  0  0  0  0  0  0  0
    5.6978  -12.7812   26.2241 C   0  0  0  0  0  0  0  0  0  0  0  0
    6.1904  -14.0496   26.4902 C   0  0  0  0  0  0  0  0  0  0  0  0
    7.5498  -14.3115   26.5537 C   0  0  0  0  0  0  0  0  0  0  0  0
    8.0501  -15.6615   26.8380 C   0  0  0  0  0  0  0  0  0  0  0  0
    8.8871  -16.2555   25.7363 C   0  0  2  0  0  0  0  0  0  0  0  0
    7.9420  -16.6080   24.6630 N   0  0  0  0  0  0  0  0  0  0  0  0
    9.5748  -17.4891   26.1523 C   0  0  0  0  0  0  0  0  0  0  0  0
   10.6563  -17.4275   26.9997 O   0  0  0  0  0  0  0  0  0  0  0  0
    8.3885  -13.2348   26.3362 C   0  0  0  0  0  0  0  0  0  0  0  0
    7.9168  -11.9609   26.0690 C   0  0  0  0  0  0  0  0  0  0  0  0
    9.2225  -18.6383   25.7672 O   0  0  0  0  0  0  0  0  0  0  0  0
  2  1  1  6
  3  2  1  0
  4  2  1  0
  4  6  1  0
  4  5  1  1
  6  7  2  0
  8  6  1  0
  8  9  1  0
  9 10  1  6
 11 10  1  0
 12  9  1  0
 12 21  1  0
 13 12  2  0
 15 14  1  0
 16 15  2  0
 17 16  1  0
 18 24  1  0
 18 17  2  0
 19 18  1  0
 20 22  1  0
 20 21  1  0
 20 19  1  1
 22 23  1  0
 24 25  2  0
 25 15  1  0
 26 22  2  0
M  END
$$$$
