PFV.pdb
     RDKit          3D

 26 27  0  0  1  0  0  0  0  0999 V2000
    7.1217  -14.8476   20.0148 N   0  0  0  0  0  0  0  0  0  0  0  0
    6.6421  -13.9565   18.9660 C   0  0  0  0  0  0  0  0  0  0  0  0
    7.3703  -12.6641   19.0721 C   0  0  0  0  0  0  0  0  0  0  0  0
    8.1850  -12.7901   20.3255 C   0  0  0  0  0  0  0  0  0  0  0  0
    8.3394  -14.2808   20.4926 C   0  0  1  0  0  0  0  0  0  0  0  0
    8.7060  -14.6183   21.8771 C   0  0  0  0  0  0  0  0  0  0  0  0
    9.8852  -14.3931   22.3258 O   0  0  0  0  0  0  0  0  0  0  0  0
    7.8263  -15.2058   22.8222 N   0  0  0  0  0  0  0  0  0  0  0  0
    8.2234  -15.4499   24.2023 C   0  0  1  0  0  0  0  0  0  0  0  0
    7.0757  -15.2481   25.1431 C   0  0  0  0  0  0  0  0  0  0  0  0
    7.0132  -13.8746   25.6778 C   0  0  0  0  0  0  0  0  0  0  0  0
    8.1018  -13.4324   26.4308 C   0  0  0  0  0  0  0  0  0  0  0  0
    8.1426  -12.1651   26.9528 C   0  0  0  0  0  0  0  0  0  0  0  0
    7.0687  -11.3377   26.7088 C   0  0  0  0  0  0  0  0  0  0  0  0
    5.9753  -11.7572   25.9621 C   0  0  0  0  0  0  0  0  0  0  0  0
    5.9511  -13.0245   25.4490 C   0  0  0  0  0  0  0  0  0  0  0  0
    8.8701  -16.7562   24.3653 C   0  0  0  0  0  0  0  0  0  0  0  0
    8.2092  -17.7962   24.1575 O   0  0  0  0  0  0  0  0  0  0  0  0
   12.0405  -18.0187   22.6781 C   0  0  0  0  0  0  0  0  0  0  0  0
   12.1947  -18.2130   24.1593 C   0  0  1  0  0  0  0  0  0  0  0  0
   13.1364  -17.2281   24.7823 C   0  0  0  0  0  0  0  0  0  0  0  0
   10.8538  -18.1698   24.8884 C   0  0  2  0  0  0  0  0  0  0  0  0
   10.2254  -16.8817   24.7524 N   0  0  0  0  0  0  0  0  0  0  0  0
   10.9925  -18.5606   26.3081 C   0  0  0  0  0  0  0  0  0  0  0  0
   10.6479  -17.7428   27.3698 O   0  0  0  0  0  0  0  0  0  0  0  0
   11.4491  -19.7000   26.5848 O   0  0  0  0  0  0  0  0  0  0  0  0
  1  2  1  0
  3  2  1  0
  4  5  1  0
  4  3  1  0
  5  6  1  1
  5  1  1  0
  6  7  2  0
  8  9  1  0
  8  6  1  0
 10 11  1  0
  9 10  1  1
 11 12  2  0
 12 13  1  0
 14 13  2  0
 15 14  1  0
 16 15  2  0
 16 11  1  0
 17  9  1  0
 17 18  2  0
 20 19  1  6
 20 22  1  0
 21 20  1  0
 22 23  1  1
 22 24  1  0
 23 17  1  0
 24 26  2  0
 24 25  1  0
M  END
$$$$
