PFV.pdb
     RDKit          3D

 26 27  0  0  1  0  0  0  0  0999 V2000
    7.3113  -15.1978   19.2499 N   0  0  0  0  0  0  0  0  0  0  0  0
    6.9322  -14.5984   17.9767 C   0  0  0  0  0  0  0  0  0  0  0  0
    7.6504  -13.3045   17.8292 C   0  0  0  0  0  0  0  0  0  0  0  0
    8.3461  -13.1053   19.1433 C   0  0  0  0  0  0  0  0  0  0  0  0
    8.4812  -14.5071   19.6824 C   0  0  1  0  0  0  0  0  0  0  0  0
    8.7181  -14.4903   21.1345 C   0  0  0  0  0  0  0  0  0  0  0  0
    9.8665  -14.1886   21.6168 O   0  0  0  0  0  0  0  0  0  0  0  0
    7.7377  -14.7951   22.1135 N   0  0  0  0  0  0  0  0  0  0  0  0
    7.9674  -14.5728   23.5347 C   0  0  1  0  0  0  0  0  0  0  0  0
    6.7263  -14.0869   24.2175 C   0  0  0  0  0  0  0  0  0  0  0  0
    6.9822  -13.6067   25.5887 C   0  0  0  0  0  0  0  0  0  0  0  0
    7.1436  -12.2316   25.7640 C   0  0  0  0  0  0  0  0  0  0  0  0
    7.3661  -11.6900   27.0038 C   0  0  0  0  0  0  0  0  0  0  0  0
    7.4255  -12.5515   28.0770 C   0  0  0  0  0  0  0  0  0  0  0  0
    7.2676  -13.9230   27.9253 C   0  0  0  0  0  0  0  0  0  0  0  0
    7.0464  -14.4462   26.6815 C   0  0  0  0  0  0  0  0  0  0  0  0
    8.5531  -15.7485   24.1873 C   0  0  0  0  0  0  0  0  0  0  0  0
    7.9681  -16.8496   24.1035 O   0  0  0  0  0  0  0  0  0  0  0  0
   12.5438  -18.1250   25.6869 C   0  0  0  0  0  0  0  0  0  0  0  0
   11.8444  -16.9715   25.0269 C   0  0  1  0  0  0  0  0  0  0  0  0
   11.9221  -17.0200   23.5313 C   0  0  0  0  0  0  0  0  0  0  0  0
   10.3843  -16.8597   25.4596 C   0  0  2  0  0  0  0  0  0  0  0  0
    9.7656  -15.6800   24.9136 N   0  0  0  0  0  0  0  0  0  0  0  0
   10.2461  -16.9154   26.9311 C   0  0  0  0  0  0  0  0  0  0  0  0
   10.2963  -15.8031   27.7526 O   0  0  0  0  0  0  0  0  0  0  0  0
   10.0722  -18.0317   27.4851 O   0  0  0  0  0  0  0  0  0  0  0  0
  1  2  1  0
  3  2  1  0
  4  5  1  0
  4  3  1  0
  5  6  1  1
  5  1  1  0
  6  7  2  0
  8  9  1  0
  8  6  1  0
 10 11  1  0
  9 10  1  1
 11 12  2  0
 12 13  1  0
 14 13  2  0
 15 14  1  0
 16 15  2  0
 16 11  1  0
 17  9  1  0
 17 18  2  0
 20 19  1  1
 20 22  1  0
 21 20  1  0
 22 23  1  1
 22 24  1  0
 23 17  1  0
 24 26  2  0
 24 25  1  0
M  END
$$$$
