PFV.pdb
     RDKit          3D

 26 27  0  0  1  0  0  0  0  0999 V2000
    7.7547  -16.9587   19.6793 N   0  0  0  0  0  0  0  0  0  0  0  0
    7.3969  -16.8691   18.2693 C   0  0  0  0  0  0  0  0  0  0  0  0
    7.9743  -15.6170   17.7122 C   0  0  0  0  0  0  0  0  0  0  0  0
    8.5541  -14.9062   18.8993 C   0  0  0  0  0  0  0  0  0  0  0  0
    8.8086  -16.0204   19.8829 C   0  0  1  0  0  0  0  0  0  0  0  0
    8.9446  -15.4929   21.2497 C   0  0  0  0  0  0  0  0  0  0  0  0
   10.0252  -14.9232   21.6374 O   0  0  0  0  0  0  0  0  0  0  0  0
    7.9330  -15.5580   22.2420 N   0  0  0  0  0  0  0  0  0  0  0  0
    8.1140  -14.9895   23.5709 C   0  0  1  0  0  0  0  0  0  0  0  0
    6.8503  -14.3604   24.0710 C   0  0  0  0  0  0  0  0  0  0  0  0
    7.0282  -13.6789   25.3672 C   0  0  0  0  0  0  0  0  0  0  0  0
    7.4923  -12.3631   25.3384 C   0  0  0  0  0  0  0  0  0  0  0  0
    7.6706  -11.6423   26.4912 C   0  0  0  0  0  0  0  0  0  0  0  0
    7.3753  -12.2620   27.6853 C   0  0  0  0  0  0  0  0  0  0  0  0
    6.9123  -13.5705   27.7370 C   0  0  0  0  0  0  0  0  0  0  0  0
    6.7402  -14.2748   26.5776 C   0  0  0  0  0  0  0  0  0  0  0  0
    8.6771  -15.9624   24.5130 C   0  0  0  0  0  0  0  0  0  0  0  0
    8.0798  -17.0429   24.7066 O   0  0  0  0  0  0  0  0  0  0  0  0
   12.7360  -17.7509   26.6390 C   0  0  0  0  0  0  0  0  0  0  0  0
   12.0363  -16.7426   25.7736 C   0  0  1  0  0  0  0  0  0  0  0  0
   12.3382  -16.9146   24.3161 C   0  0  0  0  0  0  0  0  0  0  0  0
   10.5243  -16.7510   25.9870 C   0  0  2  0  0  0  0  0  0  0  0  0
    9.8812  -15.7196   25.2155 N   0  0  0  0  0  0  0  0  0  0  0  0
   10.1758  -16.6553   27.4211 C   0  0  0  0  0  0  0  0  0  0  0  0
   10.1608  -17.7366   28.2845 O   0  0  0  0  0  0  0  0  0  0  0  0
    9.8724  -15.5324   27.9011 O   0  0  0  0  0  0  0  0  0  0  0  0
  1  2  1  0
  3  2  1  0
  4  5  1  0
  4  3  1  0
  5  6  1  1
  5  1  1  0
  6  7  2  0
  8  9  1  0
  8  6  1  0
 10 11  1  0
  9 10  1  1
 11 12  2  0
 12 13  1  0
 14 13  2  0
 15 14  1  0
 16 15  2  0
 16 11  1  0
 17  9  1  0
 17 18  2  0
 20 19  1  1
 20 22  1  0
 21 20  1  0
 22 23  1  6
 22 24  1  0
 23 17  1  0
 24 26  2  0
 24 25  1  0
M  END
$$$$
