PFV.pdb
     RDKit          3D

 26 27  0  0  1  0  0  0  0  0999 V2000
    7.6657  -15.2437   19.0966 N   0  0  0  0  0  0  0  0  0  0  0  0
    7.3503  -14.7532   17.7609 C   0  0  0  0  0  0  0  0  0  0  0  0
    7.9961  -13.4260   17.5784 C   0  0  0  0  0  0  0  0  0  0  0  0
    8.5736  -13.0975   18.9234 C   0  0  0  0  0  0  0  0  0  0  0  0
    8.7531  -14.4501   19.5656 C   0  0  1  0  0  0  0  0  0  0  0  0
    8.8748  -14.3252   21.0267 C   0  0  0  0  0  0  0  0  0  0  0  0
    9.9100  -13.7942   21.5641 O   0  0  0  0  0  0  0  0  0  0  0  0
    7.8966  -14.7631   21.9561 N   0  0  0  0  0  0  0  0  0  0  0  0
    8.0107  -14.4964   23.3836 C   0  0  1  0  0  0  0  0  0  0  0  0
    6.7821  -13.8220   23.9115 C   0  0  0  0  0  0  0  0  0  0  0  0
    6.9634  -13.2985   25.2787 C   0  0  0  0  0  0  0  0  0  0  0  0
    6.4959  -14.0866   26.3314 C   0  0  0  0  0  0  0  0  0  0  0  0
    6.6367  -13.6923   27.6371 C   0  0  0  0  0  0  0  0  0  0  0  0
    7.2577  -12.4867   27.8780 C   0  0  0  0  0  0  0  0  0  0  0  0
    7.7304  -11.6868   26.8456 C   0  0  0  0  0  0  0  0  0  0  0  0
    7.5817  -12.0953   25.5492 C   0  0  0  0  0  0  0  0  0  0  0  0
    8.3692  -15.7002   24.1408 C   0  0  0  0  0  0  0  0  0  0  0  0
    7.5757  -16.6654   24.1669 O   0  0  0  0  0  0  0  0  0  0  0  0
   11.4488  -17.7149   23.5675 C   0  0  0  0  0  0  0  0  0  0  0  0
   11.3750  -17.4747   25.0482 C   0  0  1  0  0  0  0  0  0  0  0  0
   12.3904  -16.4837   25.5301 C   0  0  0  0  0  0  0  0  0  0  0  0
    9.9815  -17.0355   25.4915 C   0  0  2  0  0  0  0  0  0  0  0  0
    9.5900  -15.8086   24.8480 N   0  0  0  0  0  0  0  0  0  0  0  0
    9.8851  -16.9327   26.9638 C   0  0  0  0  0  0  0  0  0  0  0  0
    9.9984  -18.0131   27.8209 O   0  0  0  0  0  0  0  0  0  0  0  0
    9.6886  -15.8041   27.4844 O   0  0  0  0  0  0  0  0  0  0  0  0
  1  2  1  0
  3  2  1  0
  4  5  1  0
  4  3  1  0
  5  6  1  1
  5  1  1  0
  6  7  2  0
  8  9  1  0
  8  6  1  0
 10 11  1  0
  9 10  1  1
 11 12  2  0
 12 13  1  0
 14 13  2  0
 15 14  1  0
 16 15  2  0
 16 11  1  0
 17  9  1  0
 17 18  2  0
 20 19  1  6
 20 22  1  0
 21 20  1  0
 22 23  1  6
 22 24  1  0
 23 17  1  0
 24 26  2  0
 24 25  1  0
M  END
$$$$
