PFV.pdb
     RDKit          3D

 26 27  0  0  1  0  0  0  0  0999 V2000
    7.3318  -15.0935   20.0799 N   0  0  0  0  0  0  0  0  0  0  0  0
    6.8440  -14.3503   18.9250 C   0  0  0  0  0  0  0  0  0  0  0  0
    7.3726  -12.9621   18.9967 C   0  0  0  0  0  0  0  0  0  0  0  0
    8.0643  -12.8882   20.3258 C   0  0  0  0  0  0  0  0  0  0  0  0
    8.4045  -14.3270   20.6223 C   0  0  1  0  0  0  0  0  0  0  0  0
    8.6704  -14.5184   22.0568 C   0  0  0  0  0  0  0  0  0  0  0  0
    9.7685  -14.1242   22.5873 O   0  0  0  0  0  0  0  0  0  0  0  0
    7.7737  -15.1357   22.9663 N   0  0  0  0  0  0  0  0  0  0  0  0
    8.1078  -15.3317   24.3705 C   0  0  1  0  0  0  0  0  0  0  0  0
    6.9065  -15.1515   25.2464 C   0  0  0  0  0  0  0  0  0  0  0  0
    6.7746  -13.7729   25.7548 C   0  0  0  0  0  0  0  0  0  0  0  0
    7.8445  -13.2577   26.4880 C   0  0  0  0  0  0  0  0  0  0  0  0
    7.8214  -11.9799   26.9847 C   0  0  0  0  0  0  0  0  0  0  0  0
    6.7023  -11.2166   26.7354 C   0  0  0  0  0  0  0  0  0  0  0  0
    5.6264  -11.7093   26.0082 C   0  0  0  0  0  0  0  0  0  0  0  0
    5.6661  -12.9860   25.5202 C   0  0  0  0  0  0  0  0  0  0  0  0
    8.7931  -16.6080   24.5996 C   0  0  0  0  0  0  0  0  0  0  0  0
    8.1510  -17.6749   24.4929 O   0  0  0  0  0  0  0  0  0  0  0  0
   12.0508  -17.8109   22.9609 C   0  0  0  0  0  0  0  0  0  0  0  0
   12.1813  -17.9771   24.4478 C   0  0  1  0  0  0  0  0  0  0  0  0
   13.1017  -16.9711   25.0690 C   0  0  0  0  0  0  0  0  0  0  0  0
   10.8275  -17.9353   25.1528 C   0  0  2  0  0  0  0  0  0  0  0  0
   10.1650  -16.6751   24.9394 N   0  0  0  0  0  0  0  0  0  0  0  0
   10.9532  -18.2472   26.5931 C   0  0  0  0  0  0  0  0  0  0  0  0
   11.4473  -19.4435   27.0824 O   0  0  0  0  0  0  0  0  0  0  0  0
   10.5944  -17.3855   27.4369 O   0  0  0  0  0  0  0  0  0  0  0  0
  1  2  1  0
  3  2  1  0
  4  5  1  0
  4  3  1  0
  5  6  1  1
  5  1  1  0
  6  7  2  0
  8  9  1  0
  8  6  1  0
 10 11  1  0
  9 10  1  1
 11 12  2  0
 12 13  1  0
 14 13  2  0
 15 14  1  0
 16 15  2  0
 16 11  1  0
 17  9  1  0
 17 18  2  0
 20 19  1  6
 20 22  1  0
 21 20  1  0
 22 23  1  1
 22 24  1  0
 23 17  1  0
 24 26  2  0
 24 25  1  0
M  END
$$$$
