PFV.pdb
     RDKit          3D

 26 27  0  0  1  0  0  0  0  0999 V2000
    7.7067  -16.4864   19.4499 N   0  0  0  0  0  0  0  0  0  0  0  0
    7.2845  -16.2603   18.0734 C   0  0  0  0  0  0  0  0  0  0  0  0
    7.7759  -14.9253   17.6399 C   0  0  0  0  0  0  0  0  0  0  0  0
    8.3710  -14.3206   18.8771 C   0  0  0  0  0  0  0  0  0  0  0  0
    8.7215  -15.5219   19.7186 C   0  0  1  0  0  0  0  0  0  0  0  0
    8.8905  -15.1425   21.1301 C   0  0  0  0  0  0  0  0  0  0  0  0
   10.0236  -14.7483   21.5810 O   0  0  0  0  0  0  0  0  0  0  0  0
    7.8567  -15.1728   22.1011 N   0  0  0  0  0  0  0  0  0  0  0  0
    8.0628  -14.7087   23.4663 C   0  0  1  0  0  0  0  0  0  0  0  0
    6.8655  -13.9675   23.9762 C   0  0  0  0  0  0  0  0  0  0  0  0
    7.0334  -13.5030   25.3663 C   0  0  0  0  0  0  0  0  0  0  0  0
    7.7778  -12.3394   25.5651 C   0  0  0  0  0  0  0  0  0  0  0  0
    7.9720  -11.8203   26.8193 C   0  0  0  0  0  0  0  0  0  0  0  0
    7.4055  -12.4878   27.8827 C   0  0  0  0  0  0  0  0  0  0  0  0
    6.6611  -13.6472   27.7076 C   0  0  0  0  0  0  0  0  0  0  0  0
    6.4774  -14.1510   26.4497 C   0  0  0  0  0  0  0  0  0  0  0  0
    8.4827  -15.7944   24.3586 C   0  0  0  0  0  0  0  0  0  0  0  0
    7.7357  -16.7847   24.5106 O   0  0  0  0  0  0  0  0  0  0  0  0
   12.2366  -18.3509   26.1599 C   0  0  0  0  0  0  0  0  0  0  0  0
   11.6552  -17.2222   25.3577 C   0  0  1  0  0  0  0  0  0  0  0  0
   11.7274  -17.4586   23.8799 C   0  0  0  0  0  0  0  0  0  0  0  0
   10.2136  -16.9152   25.7566 C   0  0  2  0  0  0  0  0  0  0  0  0
    9.7121  -15.7604   25.0584 N   0  0  0  0  0  0  0  0  0  0  0  0
   10.0728  -16.7691   27.2216 C   0  0  0  0  0  0  0  0  0  0  0  0
   10.0240  -17.8361   28.1014 O   0  0  0  0  0  0  0  0  0  0  0  0
    9.9911  -15.6141   27.7139 O   0  0  0  0  0  0  0  0  0  0  0  0
  1  2  1  0
  3  2  1  0
  4  5  1  0
  4  3  1  0
  5  6  1  1
  5  1  1  0
  6  7  2  0
  8  9  1  0
  8  6  1  0
 10 11  1  0
  9 10  1  1
 11 12  2  0
 12 13  1  0
 14 13  2  0
 15 14  1  0
 16 15  2  0
 16 11  1  0
 17  9  1  0
 17 18  2  0
 20 19  1  1
 20 22  1  0
 21 20  1  0
 22 23  1  6
 22 24  1  0
 23 17  1  0
 24 26  2  0
 24 25  1  0
M  END
$$$$
