PFV.pdb
     RDKit          3D

 26 27  0  0  1  0  0  0  0  0999 V2000
    7.7499  -15.8612   19.5079 N   0  0  0  0  0  0  0  0  0  0  0  0
    7.3373  -15.5230   18.1516 C   0  0  0  0  0  0  0  0  0  0  0  0
    7.7891  -14.1386   17.8499 C   0  0  0  0  0  0  0  0  0  0  0  0
    8.3485  -13.6316   19.1463 C   0  0  0  0  0  0  0  0  0  0  0  0
    8.7286  -14.8934   19.8793 C   0  0  1  0  0  0  0  0  0  0  0  0
    8.8675  -14.6404   21.3221 C   0  0  0  0  0  0  0  0  0  0  0  0
    9.9512  -14.1623   21.8114 O   0  0  0  0  0  0  0  0  0  0  0  0
    7.8554  -14.8903   22.2842 N   0  0  0  0  0  0  0  0  0  0  0  0
    8.0247  -14.5541   23.6914 C   0  0  1  0  0  0  0  0  0  0  0  0
    6.7926  -13.9116   24.2499 C   0  0  0  0  0  0  0  0  0  0  0  0
    6.9718  -13.4494   25.6393 C   0  0  0  0  0  0  0  0  0  0  0  0
    7.4343  -12.1457   25.8239 C   0  0  0  0  0  0  0  0  0  0  0  0
    7.6136  -11.6214   27.0781 C   0  0  0  0  0  0  0  0  0  0  0  0
    7.3211  -12.4272   28.1562 C   0  0  0  0  0  0  0  0  0  0  0  0
    6.8598  -13.7274   27.9954 C   0  0  0  0  0  0  0  0  0  0  0  0
    6.6866  -14.2343   26.7373 C   0  0  0  0  0  0  0  0  0  0  0  0
    8.4745  -15.7051   24.4813 C   0  0  0  0  0  0  0  0  0  0  0  0
    7.7790  -16.7432   24.5005 O   0  0  0  0  0  0  0  0  0  0  0  0
   11.5874  -17.5527   23.9828 C   0  0  0  0  0  0  0  0  0  0  0  0
   11.5517  -17.2424   25.4517 C   0  0  1  0  0  0  0  0  0  0  0  0
   12.5325  -16.1812   25.8482 C   0  0  0  0  0  0  0  0  0  0  0  0
   10.1538  -16.8485   25.9232 C   0  0  2  0  0  0  0  0  0  0  0  0
    9.6764  -15.6819   25.2278 N   0  0  0  0  0  0  0  0  0  0  0  0
   10.1048  -16.6659   27.3901 C   0  0  0  0  0  0  0  0  0  0  0  0
   10.3252  -17.6836   28.3013 O   0  0  0  0  0  0  0  0  0  0  0  0
    9.8488  -15.5246   27.8540 O   0  0  0  0  0  0  0  0  0  0  0  0
  1  2  1  0
  3  2  1  0
  4  5  1  0
  4  3  1  0
  5  6  1  1
  5  1  1  0
  6  7  2  0
  8  9  1  0
  8  6  1  0
 10 11  1  0
  9 10  1  1
 11 12  2  0
 12 13  1  0
 14 13  2  0
 15 14  1  0
 16 15  2  0
 16 11  1  0
 17  9  1  0
 17 18  2  0
 20 19  1  6
 20 22  1  0
 21 20  1  0
 22 23  1  6
 22 24  1  0
 23 17  1  0
 24 26  2  0
 24 25  1  0
M  END
$$$$
