PFV.pdb
     RDKit          3D

 26 27  0  0  1  0  0  0  0  0999 V2000
    7.6019  -15.1153   19.0009 N   0  0  0  0  0  0  0  0  0  0  0  0
    7.2847  -14.5494   17.6958 C   0  0  0  0  0  0  0  0  0  0  0  0
    7.9945  -13.2499   17.5572 C   0  0  0  0  0  0  0  0  0  0  0  0
    8.6161  -13.0124   18.9018 C   0  0  0  0  0  0  0  0  0  0  0  0
    8.7385  -14.4000   19.4793 C   0  0  1  0  0  0  0  0  0  0  0  0
    8.8968  -14.3478   20.9412 C   0  0  0  0  0  0  0  0  0  0  0  0
   10.0033  -13.9861   21.4771 O   0  0  0  0  0  0  0  0  0  0  0  0
    7.8802  -14.6800   21.8732 N   0  0  0  0  0  0  0  0  0  0  0  0
    8.0335  -14.4451   23.3026 C   0  0  1  0  0  0  0  0  0  0  0  0
    6.7876  -13.8627   23.8955 C   0  0  0  0  0  0  0  0  0  0  0  0
    6.9618  -13.4611   25.3043 C   0  0  0  0  0  0  0  0  0  0  0  0
    7.4623  -12.1811   25.5461 C   0  0  0  0  0  0  0  0  0  0  0  0
    7.6404  -11.7122   26.8223 C   0  0  0  0  0  0  0  0  0  0  0  0
    7.3077  -12.5498   27.8639 C   0  0  0  0  0  0  0  0  0  0  0  0
    6.8081  -13.8273   27.6460 C   0  0  0  0  0  0  0  0  0  0  0  0
    6.6367  -14.2789   26.3667 C   0  0  0  0  0  0  0  0  0  0  0  0
    8.4940  -15.6443   24.0105 C   0  0  0  0  0  0  0  0  0  0  0  0
    7.8596  -16.7130   23.8802 O   0  0  0  0  0  0  0  0  0  0  0  0
   12.6478  -17.5151   25.5768 C   0  0  0  0  0  0  0  0  0  0  0  0
   11.5628  -17.1337   24.6111 C   0  0  1  0  0  0  0  0  0  0  0  0
   11.3542  -18.1547   23.5345 C   0  0  0  0  0  0  0  0  0  0  0  0
   10.2369  -16.8551   25.3154 C   0  0  2  0  0  0  0  0  0  0  0  0
    9.6391  -15.6341   24.8417 N   0  0  0  0  0  0  0  0  0  0  0  0
   10.3915  -16.8506   26.7863 C   0  0  0  0  0  0  0  0  0  0  0  0
   10.8011  -17.9489   27.5217 O   0  0  0  0  0  0  0  0  0  0  0  0
   10.1400  -15.7944   27.4223 O   0  0  0  0  0  0  0  0  0  0  0  0
  1  2  1  0
  3  2  1  0
  4  5  1  0
  4  3  1  0
  5  6  1  1
  5  1  1  0
  6  7  2  0
  8  9  1  0
  8  6  1  0
 10 11  1  0
  9 10  1  1
 11 12  2  0
 12 13  1  0
 14 13  2  0
 15 14  1  0
 16 15  2  0
 16 11  1  0
 17  9  1  0
 17 18  2  0
 20 19  1  1
 20 22  1  0
 21 20  1  0
 22 23  1  6
 22 24  1  0
 23 17  1  0
 24 26  2  0
 24 25  1  0
M  END
$$$$
