PFV.pdb
     RDKit          3D

 26 27  0  0  1  0  0  0  0  0999 V2000
    7.6559  -15.3745   18.9387 N   0  0  0  0  0  0  0  0  0  0  0  0
    7.2817  -14.8321   17.6387 C   0  0  0  0  0  0  0  0  0  0  0  0
    7.8815  -13.4784   17.4993 C   0  0  0  0  0  0  0  0  0  0  0  0
    8.4938  -13.1954   18.8393 C   0  0  0  0  0  0  0  0  0  0  0  0
    8.7345  -14.5703   19.4100 C   0  0  1  0  0  0  0  0  0  0  0  0
    8.9013  -14.5101   20.8707 C   0  0  0  0  0  0  0  0  0  0  0  0
   10.0400  -14.2525   21.3993 O   0  0  0  0  0  0  0  0  0  0  0  0
    7.8591  -14.7233   21.8092 N   0  0  0  0  0  0  0  0  0  0  0  0
    8.0211  -14.4284   23.2265 C   0  0  1  0  0  0  0  0  0  0  0  0
    6.8628  -13.6394   23.7545 C   0  0  0  0  0  0  0  0  0  0  0  0
    7.0437  -13.2356   25.1618 C   0  0  0  0  0  0  0  0  0  0  0  0
    7.8255  -12.1057   25.4063 C   0  0  0  0  0  0  0  0  0  0  0  0
    8.0347  -11.6429   26.6800 C   0  0  0  0  0  0  0  0  0  0  0  0
    7.4451  -12.3327   27.7163 C   0  0  0  0  0  0  0  0  0  0  0  0
    6.6634  -13.4593   27.4956 C   0  0  0  0  0  0  0  0  0  0  0  0
    6.4652  -13.9071   26.2188 C   0  0  0  0  0  0  0  0  0  0  0  0
    8.2920  -15.6370   24.0120 C   0  0  0  0  0  0  0  0  0  0  0  0
    7.4654  -16.5741   23.9974 O   0  0  0  0  0  0  0  0  0  0  0  0
   10.8080  -18.0451   23.4567 C   0  0  0  0  0  0  0  0  0  0  0  0
   10.9897  -17.6944   24.9057 C   0  0  1  0  0  0  0  0  0  0  0  0
   12.2029  -16.8511   25.1546 C   0  0  0  0  0  0  0  0  0  0  0  0
    9.7590  -17.0047   25.4898 C   0  0  2  0  0  0  0  0  0  0  0  0
    9.4642  -15.7808   24.7915 N   0  0  0  0  0  0  0  0  0  0  0  0
    9.8990  -16.7808   26.9451 C   0  0  0  0  0  0  0  0  0  0  0  0
   10.0349  -17.7992   27.8720 O   0  0  0  0  0  0  0  0  0  0  0  0
    9.8964  -15.6014   27.3834 O   0  0  0  0  0  0  0  0  0  0  0  0
  1  2  1  0
  3  2  1  0
  4  5  1  0
  4  3  1  0
  5  6  1  1
  5  1  1  0
  6  7  2  0
  8  9  1  0
  8  6  1  0
 10 11  1  0
  9 10  1  1
 11 12  2  0
 12 13  1  0
 14 13  2  0
 15 14  1  0
 16 15  2  0
 16 11  1  0
 17  9  1  0
 17 18  2  0
 20 19  1  6
 20 22  1  0
 21 20  1  0
 22 23  1  6
 22 24  1  0
 23 17  1  0
 24 26  2  0
 24 25  1  0
M  END
$$$$
