PFV.pdb
     RDKit          3D

 26 27  0  0  1  0  0  0  0  0999 V2000
    8.2064  -17.4388   19.9710 N   0  0  0  0  0  0  0  0  0  0  0  0
    7.7391  -17.5305   18.5935 C   0  0  0  0  0  0  0  0  0  0  0  0
    7.9840  -16.2264   17.9219 C   0  0  0  0  0  0  0  0  0  0  0  0
    8.4740  -15.3233   19.0150 C   0  0  0  0  0  0  0  0  0  0  0  0
    9.0377  -16.2823   20.0331 C   0  0  1  0  0  0  0  0  0  0  0  0
    9.1495  -15.6409   21.3526 C   0  0  0  0  0  0  0  0  0  0  0  0
   10.2660  -15.1701   21.7700 O   0  0  0  0  0  0  0  0  0  0  0  0
    8.0744  -15.4835   22.2646 N   0  0  0  0  0  0  0  0  0  0  0  0
    8.2468  -14.8435   23.5618 C   0  0  1  0  0  0  0  0  0  0  0  0
    7.0213  -14.0800   23.9595 C   0  0  0  0  0  0  0  0  0  0  0  0
    7.1822  -13.3758   25.2458 C   0  0  0  0  0  0  0  0  0  0  0  0
    6.5735  -13.9443   26.3655 C   0  0  0  0  0  0  0  0  0  0  0  0
    6.6834  -13.3725   27.6069 C   0  0  0  0  0  0  0  0  0  0  0  0
    7.4182  -12.2123   27.7141 C   0  0  0  0  0  0  0  0  0  0  0  0
    8.0323  -11.6296   26.6130 C   0  0  0  0  0  0  0  0  0  0  0  0
    7.9123  -12.2133   25.3823 C   0  0  0  0  0  0  0  0  0  0  0  0
    8.6842  -15.7937   24.5898 C   0  0  0  0  0  0  0  0  0  0  0  0
    8.0195  -16.8341   24.7836 O   0  0  0  0  0  0  0  0  0  0  0  0
   12.4860  -17.7894   26.9170 C   0  0  0  0  0  0  0  0  0  0  0  0
   11.8671  -16.8246   25.9467 C   0  0  1  0  0  0  0  0  0  0  0  0
   12.0550  -17.2330   24.5173 C   0  0  0  0  0  0  0  0  0  0  0  0
   10.3821  -16.6021   26.2238 C   0  0  2  0  0  0  0  0  0  0  0  0
    9.8400  -15.5729   25.3757 N   0  0  0  0  0  0  0  0  0  0  0  0
   10.1311  -16.3177   27.6533 C   0  0  0  0  0  0  0  0  0  0  0  0
   10.0296  -17.2952   28.6275 O   0  0  0  0  0  0  0  0  0  0  0  0
    9.9996  -15.1221   28.0230 O   0  0  0  0  0  0  0  0  0  0  0  0
  1  2  1  0
  3  2  1  0
  4  5  1  0
  4  3  1  0
  5  6  1  1
  5  1  1  0
  6  7  2  0
  8  9  1  0
  8  6  1  0
 10 11  1  0
  9 10  1  1
 11 12  2  0
 12 13  1  0
 14 13  2  0
 15 14  1  0
 16 15  2  0
 16 11  1  0
 17  9  1  0
 17 18  2  0
 20 19  1  1
 20 22  1  0
 21 20  1  0
 22 23  1  6
 22 24  1  0
 23 17  1  0
 24 26  2  0
 24 25  1  0
M  END
$$$$
