PFV.pdb
     RDKit          3D

 26 27  0  0  1  0  0  0  0  0999 V2000
    7.6165  -16.8181   19.5456 N   0  0  0  0  0  0  0  0  0  0  0  0
    7.3019  -16.7532   18.1240 C   0  0  0  0  0  0  0  0  0  0  0  0
    7.9702  -15.5577   17.5446 C   0  0  0  0  0  0  0  0  0  0  0  0
    8.5617  -14.8450   18.7247 C   0  0  0  0  0  0  0  0  0  0  0  0
    8.7208  -15.9398   19.7494 C   0  0  1  0  0  0  0  0  0  0  0  0
    8.8535  -15.3768   21.1024 C   0  0  0  0  0  0  0  0  0  0  0  0
    9.9594  -14.8699   21.5055 O   0  0  0  0  0  0  0  0  0  0  0  0
    7.8112  -15.3386   22.0640 N   0  0  0  0  0  0  0  0  0  0  0  0
    8.0164  -14.8151   23.4078 C   0  0  1  0  0  0  0  0  0  0  0  0
    6.8033  -14.0876   23.9000 C   0  0  0  0  0  0  0  0  0  0  0  0
    6.9764  -13.5498   25.2627 C   0  0  0  0  0  0  0  0  0  0  0  0
    7.6768  -12.3496   25.3912 C   0  0  0  0  0  0  0  0  0  0  0  0
    7.8716  -11.7629   26.6151 C   0  0  0  0  0  0  0  0  0  0  0  0
    7.3508  -12.3995   27.7200 C   0  0  0  0  0  0  0  0  0  0  0  0
    6.6506  -13.5944   27.6149 C   0  0  0  0  0  0  0  0  0  0  0  0
    6.4656  -14.1657   26.3864 C   0  0  0  0  0  0  0  0  0  0  0  0
    8.4744  -15.8526   24.3379 C   0  0  0  0  0  0  0  0  0  0  0  0
    7.7677  -16.8673   24.5187 O   0  0  0  0  0  0  0  0  0  0  0  0
   12.2975  -18.1509   26.3621 C   0  0  0  0  0  0  0  0  0  0  0  0
   11.6936  -17.0941   25.4823 C   0  0  1  0  0  0  0  0  0  0  0  0
   11.8378  -17.3978   24.0221 C   0  0  0  0  0  0  0  0  0  0  0  0
   10.2234  -16.8435   25.8096 C   0  0  2  0  0  0  0  0  0  0  0  0
    9.6965  -15.7447   25.0429 N   0  0  0  0  0  0  0  0  0  0  0  0
   10.0141  -16.6449   27.2602 C   0  0  0  0  0  0  0  0  0  0  0  0
   10.0092  -17.6731   28.1861 O   0  0  0  0  0  0  0  0  0  0  0  0
    9.8280  -15.4789   27.6951 O   0  0  0  0  0  0  0  0  0  0  0  0
  1  2  1  0
  3  2  1  0
  4  5  1  0
  4  3  1  0
  5  6  1  1
  5  1  1  0
  6  7  2  0
  8  9  1  0
  8  6  1  0
 10 11  1  0
  9 10  1  1
 11 12  2  0
 12 13  1  0
 14 13  2  0
 15 14  1  0
 16 15  2  0
 16 11  1  0
 17  9  1  0
 17 18  2  0
 20 19  1  1
 20 22  1  0
 21 20  1  0
 22 23  1  6
 22 24  1  0
 23 17  1  0
 24 26  2  0
 24 25  1  0
M  END
$$$$
