PFV.pdb
     RDKit          3D

 26 27  0  0  1  0  0  0  0  0999 V2000
    7.4748  -15.3222   19.4941 N   0  0  0  0  0  0  0  0  0  0  0  0
    7.1088  -14.6668   18.2448 C   0  0  0  0  0  0  0  0  0  0  0  0
    7.7653  -13.3331   18.1990 C   0  0  0  0  0  0  0  0  0  0  0  0
    8.4055  -13.1794   19.5470 C   0  0  0  0  0  0  0  0  0  0  0  0
    8.5931  -14.6028   20.0083 C   0  0  1  0  0  0  0  0  0  0  0  0
    8.7800  -14.6614   21.4666 C   0  0  0  0  0  0  0  0  0  0  0  0
    9.8637  -14.2517   22.0145 O   0  0  0  0  0  0  0  0  0  0  0  0
    7.8172  -15.1588   22.3821 N   0  0  0  0  0  0  0  0  0  0  0  0
    8.0196  -15.1056   23.8236 C   0  0  1  0  0  0  0  0  0  0  0  0
    6.7807  -14.6499   24.5311 C   0  0  0  0  0  0  0  0  0  0  0  0
    7.0411  -13.5579   25.4882 C   0  0  0  0  0  0  0  0  0  0  0  0
    5.9355  -12.9807   26.1144 C   0  0  0  0  0  0  0  0  0  0  0  0
    6.0794  -11.9728   27.0329 C   0  0  0  0  0  0  0  0  0  0  0  0
    7.3572  -11.5458   27.3193 C   0  0  0  0  0  0  0  0  0  0  0  0
    8.4713  -12.1062   26.7080 C   0  0  0  0  0  0  0  0  0  0  0  0
    8.3096  -13.1106   25.7942 C   0  0  0  0  0  0  0  0  0  0  0  0
    8.5448  -16.3689   24.3520 C   0  0  0  0  0  0  0  0  0  0  0  0
    7.8626  -17.4099   24.2391 O   0  0  0  0  0  0  0  0  0  0  0  0
   11.5225  -18.1959   23.3281 C   0  0  0  0  0  0  0  0  0  0  0  0
   11.6514  -18.0532   24.8176 C   0  0  1  0  0  0  0  0  0  0  0  0
   12.6907  -17.0518   25.2203 C   0  0  0  0  0  0  0  0  0  0  0  0
   10.3207  -17.7034   25.4798 C   0  0  2  0  0  0  0  0  0  0  0  0
    9.8053  -16.4517   24.9897 N   0  0  0  0  0  0  0  0  0  0  0  0
   10.4283  -17.7075   26.9549 C   0  0  0  0  0  0  0  0  0  0  0  0
   10.7774  -18.8207   27.6992 O   0  0  0  0  0  0  0  0  0  0  0  0
   10.1920  -16.6451   27.5862 O   0  0  0  0  0  0  0  0  0  0  0  0
  1  2  1  0
  3  2  1  0
  4  5  1  0
  4  3  1  0
  5  6  1  1
  5  1  1  0
  6  7  2  0
  8  9  1  0
  8  6  1  0
 10 11  1  0
  9 10  1  1
 11 12  2  0
 12 13  1  0
 14 13  2  0
 15 14  1  0
 16 15  2  0
 16 11  1  0
 17  9  1  0
 17 18  2  0
 20 19  1  6
 20 22  1  0
 21 20  1  0
 22 23  1  6
 22 24  1  0
 23 17  1  0
 24 26  2  0
 24 25  1  0
M  END
$$$$
