NSL.pdb
     RDKit          3D

 23 22  0  0  1  0  0  0  0  0999 V2000
   12.4973  -17.0111   17.1000 N   0  0  0  0  0  0  0  0  0  0  0  0
   11.3920  -17.7748   17.5537 C   0  0  0  0  0  0  0  0  0  0  0  0
   11.2186  -18.9759   17.2010 O   0  0  0  0  0  0  0  0  0  0  0  0
   10.3994  -17.1980   18.4595 C   0  0  0  0  0  0  0  0  0  0  0  0
   10.7154  -17.3003   19.9270 C   0  0  2  0  0  0  0  0  0  0  0  0
   10.9261  -18.7291   20.1843 N   0  0  0  0  0  0  0  0  0  0  0  0
    9.5297  -16.8303   20.6930 C   0  0  0  0  0  0  0  0  0  0  0  0
    9.1355  -15.6522   20.6000 O   0  0  0  0  0  0  0  0  0  0  0  0
    7.6366  -19.0584   23.8073 O   0  0  0  0  0  0  0  0  0  0  0  0
    6.9164  -18.3354   22.8843 C   0  0  0  0  0  0  0  0  0  0  0  0
    7.7157  -17.1570   22.3546 C   0  0  2  0  0  0  0  0  0  0  0  0
    8.7902  -17.6764   21.5591 N   0  0  0  0  0  0  0  0  0  0  0  0
    8.1871  -16.3481   23.5028 C   0  0  0  0  0  0  0  0  0  0  0  0
    9.4048  -16.4124   23.7970 O   0  0  0  0  0  0  0  0  0  0  0  0
    8.1382  -11.5927   26.4208 C   0  0  0  0  0  0  0  0  0  0  0  0
    7.1065  -12.6401   26.7186 C   0  0  1  0  0  0  0  0  0  0  0  0
    5.8211  -11.8805   27.0555 C   0  0  0  0  0  0  0  0  0  0  0  0
    6.9004  -13.6922   25.7246 C   0  0  0  0  0  0  0  0  0  0  0  0
    7.9143  -14.7159   25.4243 C   0  0  2  0  0  0  0  0  0  0  0  0
    7.3520  -15.5169   24.2789 N   0  0  0  0  0  0  0  0  0  0  0  0
    8.1812  -15.7034   26.4680 C   0  0  0  0  0  0  0  0  0  0  0  0
    7.3540  -16.6506   26.7020 O   0  0  0  0  0  0  0  0  0  0  0  0
    9.3080  -15.7128   27.2615 O   0  0  0  0  0  0  0  0  0  0  0  0
  1  2  1  0
  2  3  2  0
  4  5  1  0
  4  2  1  0
  5  6  1  1
  7 12  1  0
  7  5  1  0
  8  7  2  0
 11 10  1  1
 10  9  1  0
 11 13  1  0
 11 12  1  0
 13 20  1  0
 14 13  2  0
 16 17  1  6
 16 15  1  0
 18 16  1  0
 19 21  1  0
 19 18  1  1
 20 19  1  0
 21 23  1  0
 22 21  2  0
M  END
$$$$
