NSL.pdb
     RDKit          3D

 23 22  0  0  1  0  0  0  0  0999 V2000
   10.7447  -16.6264   16.8422 N   0  0  0  0  0  0  0  0  0  0  0  0
    9.4793  -17.2453   17.0051 C   0  0  0  0  0  0  0  0  0  0  0  0
    8.7656  -17.5797   16.0172 O   0  0  0  0  0  0  0  0  0  0  0  0
    8.9448  -17.5270   18.3369 C   0  0  0  0  0  0  0  0  0  0  0  0
    9.7818  -17.0490   19.4922 C   0  0  2  0  0  0  0  0  0  0  0  0
   10.7172  -18.1424   19.7779 N   0  0  0  0  0  0  0  0  0  0  0  0
    8.8871  -16.8458   20.6634 C   0  0  0  0  0  0  0  0  0  0  0  0
    8.0648  -15.9102   20.6840 O   0  0  0  0  0  0  0  0  0  0  0  0
    9.1902  -18.9188   24.4083 O   0  0  0  0  0  0  0  0  0  0  0  0
    7.9969  -18.7212   23.7524 C   0  0  0  0  0  0  0  0  0  0  0  0
    8.0281  -17.4574   22.9097 C   0  0  2  0  0  0  0  0  0  0  0  0
    8.9145  -17.6867   21.8057 N   0  0  0  0  0  0  0  0  0  0  0  0
    8.4542  -16.3260   23.7660 C   0  0  0  0  0  0  0  0  0  0  0  0
    9.6657  -16.0019   23.7391 O   0  0  0  0  0  0  0  0  0  0  0  0
    7.7035  -11.2866   26.1578 C   0  0  0  0  0  0  0  0  0  0  0  0
    6.9910  -12.4968   26.6847 C   0  0  1  0  0  0  0  0  0  0  0  0
    5.6134  -12.0090   27.1396 C   0  0  0  0  0  0  0  0  0  0  0  0
    6.9196  -13.6731   25.8194 C   0  0  0  0  0  0  0  0  0  0  0  0
    8.1019  -14.4731   25.4611 C   0  0  2  0  0  0  0  0  0  0  0  0
    7.5832  -15.5983   24.6041 N   0  0  0  0  0  0  0  0  0  0  0  0
    8.8028  -15.1383   26.5573 C   0  0  0  0  0  0  0  0  0  0  0  0
    9.7954  -14.5776   27.1377 O   0  0  0  0  0  0  0  0  0  0  0  0
    8.4691  -16.3791   27.0559 O   0  0  0  0  0  0  0  0  0  0  0  0
  1  2  1  0
  2  3  2  0
  4  5  1  0
  4  2  1  0
  5  6  1  1
  7 12  1  0
  7  5  1  0
  8  7  2  0
 11 10  1  1
 10  9  1  0
 11 13  1  0
 11 12  1  0
 13 20  1  0
 14 13  2  0
 16 17  1  6
 16 15  1  0
 18 16  1  0
 19 21  1  0
 19 18  1  1
 20 19  1  0
 21 23  1  0
 22 21  2  0
M  END
$$$$
