NSL.pdb
     RDKit          3D

 23 22  0  0  1  0  0  0  0  0999 V2000
    7.8150  -12.6982   16.5544 N   0  0  0  0  0  0  0  0  0  0  0  0
    8.5784  -13.7200   17.1740 C   0  0  0  0  0  0  0  0  0  0  0  0
    9.6106  -14.2068   16.6311 O   0  0  0  0  0  0  0  0  0  0  0  0
    8.1994  -14.2553   18.4810 C   0  0  0  0  0  0  0  0  0  0  0  0
    8.6700  -15.6535   18.7768 C   0  0  2  0  0  0  0  0  0  0  0  0
    7.9173  -16.5219   17.8651 N   0  0  0  0  0  0  0  0  0  0  0  0
    8.3070  -15.9801   20.1822 C   0  0  0  0  0  0  0  0  0  0  0  0
    7.2324  -15.5842   20.6725 O   0  0  0  0  0  0  0  0  0  0  0  0
   10.8753  -18.0757   22.7347 O   0  0  0  0  0  0  0  0  0  0  0  0
    9.5215  -18.3142   22.7942 C   0  0  0  0  0  0  0  0  0  0  0  0
    8.7227  -17.0976   22.3585 C   0  0  2  0  0  0  0  0  0  0  0  0
    9.1445  -16.7461   21.0335 N   0  0  0  0  0  0  0  0  0  0  0  0
    8.9402  -16.0099   23.3405 C   0  0  0  0  0  0  0  0  0  0  0  0
    9.8464  -15.1782   23.0942 O   0  0  0  0  0  0  0  0  0  0  0  0
    5.8152  -12.0281   26.4168 C   0  0  0  0  0  0  0  0  0  0  0  0
    7.1661  -12.5774   26.0659 C   0  0  1  0  0  0  0  0  0  0  0  0
    8.0312  -12.3966   27.3156 C   0  0  0  0  0  0  0  0  0  0  0  0
    7.2278  -13.9339   25.5241 C   0  0  0  0  0  0  0  0  0  0  0  0
    8.4735  -14.7161   25.4710 C   0  0  2  0  0  0  0  0  0  0  0  0
    8.1936  -15.8571   24.5278 N   0  0  0  0  0  0  0  0  0  0  0  0
    8.8991  -15.3601   26.7118 C   0  0  0  0  0  0  0  0  0  0  0  0
    8.3873  -16.4722   27.0829 O   0  0  0  0  0  0  0  0  0  0  0  0
    9.8596  -14.8554   27.5616 O   0  0  0  0  0  0  0  0  0  0  0  0
  1  2  1  0
  2  3  2  0
  4  5  1  0
  4  2  1  0
  5  6  1  6
  7 12  1  0
  7  5  1  0
  8  7  2  0
 11 10  1  1
 10  9  1  0
 11 13  1  0
 11 12  1  0
 13 20  1  0
 14 13  2  0
 16 17  1  1
 16 15  1  0
 18 16  1  0
 19 21  1  0
 19 18  1  1
 20 19  1  0
 21 23  1  0
 22 21  2  0
M  END
$$$$
