NSL.pdb
     RDKit          3D

 23 22  0  0  1  0  0  0  0  0999 V2000
    7.8513  -12.3681   17.9760 N   0  0  0  0  0  0  0  0  0  0  0  0
    7.7674  -13.7829   18.0233 C   0  0  0  0  0  0  0  0  0  0  0  0
    7.7496  -14.4877   16.9745 O   0  0  0  0  0  0  0  0  0  0  0  0
    7.7001  -14.4908   19.3011 C   0  0  0  0  0  0  0  0  0  0  0  0
    8.9966  -14.6021   20.0565 C   0  0  2  0  0  0  0  0  0  0  0  0
    9.8873  -15.3858   19.1937 N   0  0  0  0  0  0  0  0  0  0  0  0
    8.7402  -15.3541   21.3144 C   0  0  0  0  0  0  0  0  0  0  0  0
    7.8901  -14.9568   22.1338 O   0  0  0  0  0  0  0  0  0  0  0  0
   11.1610  -18.5391   22.6008 O   0  0  0  0  0  0  0  0  0  0  0  0
    9.8036  -18.5951   22.8188 C   0  0  0  0  0  0  0  0  0  0  0  0
    9.1959  -17.2052   22.9029 C   0  0  2  0  0  0  0  0  0  0  0  0
    9.4335  -16.5449   21.6521 N   0  0  0  0  0  0  0  0  0  0  0  0
    9.7972  -16.4928   24.0544 C   0  0  0  0  0  0  0  0  0  0  0  0
   10.6890  -15.6449   23.8108 O   0  0  0  0  0  0  0  0  0  0  0  0
   10.5840  -13.1206   27.9925 C   0  0  0  0  0  0  0  0  0  0  0  0
    9.3297  -13.9427   27.9674 C   0  0  1  0  0  0  0  0  0  0  0  0
    8.1748  -12.9533   28.1408 C   0  0  0  0  0  0  0  0  0  0  0  0
    9.1350  -14.8502   26.8378 C   0  0  0  0  0  0  0  0  0  0  0  0
   10.0785  -15.9317   26.5113 C   0  0  2  0  0  0  0  0  0  0  0  0
    9.4285  -16.7119   25.3984 N   0  0  0  0  0  0  0  0  0  0  0  0
   10.3312  -16.9217   27.5561 C   0  0  0  0  0  0  0  0  0  0  0  0
   11.3363  -16.8074   28.3391 O   0  0  0  0  0  0  0  0  0  0  0  0
    9.5379  -18.0235   27.7934 O   0  0  0  0  0  0  0  0  0  0  0  0
  1  2  1  0
  2  3  2  0
  4  5  1  0
  4  2  1  0
  5  6  1  6
  7 12  1  0
  7  5  1  0
  8  7  2  0
 11 10  1  6
 10  9  1  0
 11 13  1  0
 11 12  1  0
 13 20  1  0
 14 13  2  0
 16 17  1  6
 16 15  1  0
 18 16  1  0
 19 21  1  0
 19 18  1  1
 20 19  1  0
 21 23  1  0
 22 21  2  0
M  END
$$$$
