NSL.pdb
     RDKit          3D

 23 22  0  0  1  0  0  0  0  0999 V2000
    9.3274  -13.8803   16.1256 N   0  0  0  0  0  0  0  0  0  0  0  0
    8.0115  -13.5408   16.5305 C   0  0  0  0  0  0  0  0  0  0  0  0
    7.1017  -13.2747   15.6947 O   0  0  0  0  0  0  0  0  0  0  0  0
    7.6499  -13.4870   17.9464 C   0  0  0  0  0  0  0  0  0  0  0  0
    8.7450  -13.8416   18.9153 C   0  0  2  0  0  0  0  0  0  0  0  0
    9.5246  -14.8960   18.2576 N   0  0  0  0  0  0  0  0  0  0  0  0
    8.1175  -14.3879   20.1487 C   0  0  0  0  0  0  0  0  0  0  0  0
    7.3943  -13.6725   20.8678 O   0  0  0  0  0  0  0  0  0  0  0  0
    9.3423  -18.0379   21.9936 O   0  0  0  0  0  0  0  0  0  0  0  0
    8.0191  -17.6641   21.9444 C   0  0  0  0  0  0  0  0  0  0  0  0
    7.8700  -16.1538   21.8745 C   0  0  2  0  0  0  0  0  0  0  0  0
    8.3002  -15.7291   20.5739 N   0  0  0  0  0  0  0  0  0  0  0  0
    8.6613  -15.5471   22.9703 C   0  0  0  0  0  0  0  0  0  0  0  0
    9.3586  -14.5414   22.6946 O   0  0  0  0  0  0  0  0  0  0  0  0
    8.3466  -11.9577   26.4546 C   0  0  0  0  0  0  0  0  0  0  0  0
    7.4278  -13.1413   26.3859 C   0  0  1  0  0  0  0  0  0  0  0  0
    6.0115  -12.5692   26.2878 C   0  0  0  0  0  0  0  0  0  0  0  0
    7.7019  -14.1557   25.3693 C   0  0  0  0  0  0  0  0  0  0  0  0
    8.8379  -15.0874   25.4579 C   0  0  2  0  0  0  0  0  0  0  0  0
    8.6767  -16.0318   24.2951 N   0  0  0  0  0  0  0  0  0  0  0  0
    8.8867  -15.9550   26.6327 C   0  0  0  0  0  0  0  0  0  0  0  0
    8.0059  -16.8648   26.8137 O   0  0  0  0  0  0  0  0  0  0  0  0
    9.8525  -15.8843   27.6135 O   0  0  0  0  0  0  0  0  0  0  0  0
  1  2  1  0
  2  3  2  0
  4  5  1  0
  4  2  1  0
  5  6  1  6
  7 12  1  0
  7  5  1  0
  8  7  2  0
 11 10  1  6
 10  9  1  0
 11 13  1  0
 11 12  1  0
 13 20  1  0
 14 13  2  0
 16 17  1  6
 16 15  1  0
 18 16  1  0
 19 21  1  0
 19 18  1  1
 20 19  1  0
 21 23  1  0
 22 21  2  0
M  END
$$$$
