NSL.pdb
     RDKit          3D

 23 22  0  0  1  0  0  0  0  0999 V2000
    7.7628  -17.4611   15.7614 N   0  0  0  0  0  0  0  0  0  0  0  0
    8.3114  -16.3562   16.4607 C   0  0  0  0  0  0  0  0  0  0  0  0
    9.1486  -15.5747   15.9265 O   0  0  0  0  0  0  0  0  0  0  0  0
    7.9242  -16.0721   17.8420 C   0  0  0  0  0  0  0  0  0  0  0  0
    9.0518  -15.9972   18.8353 C   0  0  2  0  0  0  0  0  0  0  0  0
    9.8582  -17.2009   18.6051 N   0  0  0  0  0  0  0  0  0  0  0  0
    8.4712  -16.0462   20.2043 C   0  0  0  0  0  0  0  0  0  0  0  0
    7.6946  -15.1564   20.6007 O   0  0  0  0  0  0  0  0  0  0  0  0
    9.8374  -18.5622   23.2702 O   0  0  0  0  0  0  0  0  0  0  0  0
    8.4817  -18.4572   23.0597 C   0  0  0  0  0  0  0  0  0  0  0  0
    8.1211  -17.1334   22.4073 C   0  0  2  0  0  0  0  0  0  0  0  0
    8.7601  -17.0870   21.1241 N   0  0  0  0  0  0  0  0  0  0  0  0
    8.5446  -16.0316   23.3026 C   0  0  0  0  0  0  0  0  0  0  0  0
    9.6613  -15.5033   23.0846 O   0  0  0  0  0  0  0  0  0  0  0  0
    5.8601  -11.3758   26.0425 C   0  0  0  0  0  0  0  0  0  0  0  0
    7.1512  -12.0786   25.7442 C   0  0  1  0  0  0  0  0  0  0  0  0
    7.9744  -12.0111   27.0329 C   0  0  0  0  0  0  0  0  0  0  0  0
    7.0768  -13.4287   25.1881 C   0  0  0  0  0  0  0  0  0  0  0  0
    8.2244  -14.3501   25.1737 C   0  0  2  0  0  0  0  0  0  0  0  0
    7.7712  -15.5467   24.3784 N   0  0  0  0  0  0  0  0  0  0  0  0
    8.6421  -14.9007   26.4613 C   0  0  0  0  0  0  0  0  0  0  0  0
    8.0111  -15.8783   26.9927 O   0  0  0  0  0  0  0  0  0  0  0  0
    9.7175  -14.4432   27.1920 O   0  0  0  0  0  0  0  0  0  0  0  0
  1  2  1  0
  2  3  2  0
  4  5  1  0
  4  2  1  0
  5  6  1  6
  7 12  1  0
  7  5  1  0
  8  7  2  0
 11 10  1  1
 10  9  1  0
 11 13  1  0
 11 12  1  0
 13 20  1  0
 14 13  2  0
 16 17  1  1
 16 15  1  0
 18 16  1  0
 19 21  1  0
 19 18  1  1
 20 19  1  0
 21 23  1  0
 22 21  2  0
M  END
$$$$
