NSL.pdb
     RDKit          3D

 23 22  0  0  1  0  0  0  0  0999 V2000
    8.1027  -12.7349   15.7995 N   0  0  0  0  0  0  0  0  0  0  0  0
    8.0311  -14.0524   16.3191 C   0  0  0  0  0  0  0  0  0  0  0  0
    8.3439  -15.0627   15.6273 O   0  0  0  0  0  0  0  0  0  0  0  0
    7.5905  -14.2972   17.6919 C   0  0  0  0  0  0  0  0  0  0  0  0
    8.6124  -14.0327   18.7640 C   0  0  2  0  0  0  0  0  0  0  0  0
    9.8712  -14.5842   18.2509 N   0  0  0  0  0  0  0  0  0  0  0  0
    8.2088  -14.7780   19.9868 C   0  0  0  0  0  0  0  0  0  0  0  0
    7.1779  -14.4669   20.6131 O   0  0  0  0  0  0  0  0  0  0  0  0
    9.1538  -18.3768   23.0975 O   0  0  0  0  0  0  0  0  0  0  0  0
    9.4502  -17.7221   21.9243 C   0  0  0  0  0  0  0  0  0  0  0  0
    8.6099  -16.4670   21.7601 C   0  0  2  0  0  0  0  0  0  0  0  0
    8.9574  -15.8662   20.5049 N   0  0  0  0  0  0  0  0  0  0  0  0
    8.8591  -15.5739   22.9156 C   0  0  0  0  0  0  0  0  0  0  0  0
    9.8937  -14.8650   22.8886 O   0  0  0  0  0  0  0  0  0  0  0  0
    7.8524  -11.4252   26.1861 C   0  0  0  0  0  0  0  0  0  0  0  0
    6.9882  -12.6434   26.3241 C   0  0  1  0  0  0  0  0  0  0  0  0
    5.5552  -12.1275   26.4762 C   0  0  0  0  0  0  0  0  0  0  0  0
    7.1121  -13.6830   25.3036 C   0  0  0  0  0  0  0  0  0  0  0  0
    8.3163  -14.5163   25.1555 C   0  0  2  0  0  0  0  0  0  0  0  0
    8.0075  -15.4762   24.0361 N   0  0  0  0  0  0  0  0  0  0  0  0
    8.6677  -15.3714   26.2873 C   0  0  0  0  0  0  0  0  0  0  0  0
    8.0897  -16.4991   26.4620 O   0  0  0  0  0  0  0  0  0  0  0  0
    9.6228  -15.0607   27.2311 O   0  0  0  0  0  0  0  0  0  0  0  0
  1  2  1  0
  2  3  2  0
  4  5  1  0
  4  2  1  0
  5  6  1  6
  7 12  1  0
  7  5  1  0
  8  7  2  0
 11 10  1  1
 10  9  1  0
 11 13  1  0
 11 12  1  0
 13 20  1  0
 14 13  2  0
 16 17  1  6
 16 15  1  0
 18 16  1  0
 19 21  1  0
 19 18  1  1
 20 19  1  0
 21 23  1  0
 22 21  2  0
M  END
$$$$
