NSL.pdb
     RDKit          3D

 23 22  0  0  1  0  0  0  0  0999 V2000
    8.6043  -12.0520   17.3603 N   0  0  0  0  0  0  0  0  0  0  0  0
    9.3707  -12.8875   18.2121 C   0  0  0  0  0  0  0  0  0  0  0  0
   10.6318  -12.9345   18.1456 O   0  0  0  0  0  0  0  0  0  0  0  0
    8.7258  -13.7351   19.2141 C   0  0  0  0  0  0  0  0  0  0  0  0
    8.8091  -15.2173   18.9687 C   0  0  2  0  0  0  0  0  0  0  0  0
    7.9197  -15.4773   17.8314 N   0  0  0  0  0  0  0  0  0  0  0  0
    8.2888  -15.9192   20.1730 C   0  0  0  0  0  0  0  0  0  0  0  0
    7.0693  -15.9332   20.4267 O   0  0  0  0  0  0  0  0  0  0  0  0
   10.6828  -18.1923   22.8086 O   0  0  0  0  0  0  0  0  0  0  0  0
    9.3189  -18.3440   22.7097 C   0  0  0  0  0  0  0  0  0  0  0  0
    8.6368  -17.0313   22.3639 C   0  0  2  0  0  0  0  0  0  0  0  0
    9.1314  -16.6014   21.0881 N   0  0  0  0  0  0  0  0  0  0  0  0
    8.9073  -16.0560   23.4458 C   0  0  0  0  0  0  0  0  0  0  0  0
    9.9862  -15.4179   23.3955 O   0  0  0  0  0  0  0  0  0  0  0  0
    8.0659  -11.8051   26.7497 C   0  0  0  0  0  0  0  0  0  0  0  0
    7.1443  -12.9819   26.8745 C   0  0  1  0  0  0  0  0  0  0  0  0
    5.7388  -12.3995   27.0427 C   0  0  0  0  0  0  0  0  0  0  0  0
    7.2123  -14.0106   25.8379 C   0  0  0  0  0  0  0  0  0  0  0  0
    8.4071  -14.8405   25.6144 C   0  0  2  0  0  0  0  0  0  0  0  0
    8.0292  -15.8060   24.5213 N   0  0  0  0  0  0  0  0  0  0  0  0
    8.8348  -15.6899   26.7240 C   0  0  0  0  0  0  0  0  0  0  0  0
    9.7567  -15.3086   27.5247 O   0  0  0  0  0  0  0  0  0  0  0  0
    8.3013  -16.9287   27.0071 O   0  0  0  0  0  0  0  0  0  0  0  0
  1  2  1  0
  2  3  2  0
  4  5  1  0
  4  2  1  0
  5  6  1  6
  7 12  1  0
  7  5  1  0
  8  7  2  0
 11 10  1  1
 10  9  1  0
 11 13  1  0
 11 12  1  0
 13 20  1  0
 14 13  2  0
 16 17  1  6
 16 15  1  0
 18 16  1  0
 19 21  1  0
 19 18  1  1
 20 19  1  0
 21 23  1  0
 22 21  2  0
M  END
$$$$
