NSL.pdb
     RDKit          3D

 23 22  0  0  1  0  0  0  0  0999 V2000
   10.6857  -21.3005   20.9011 N   0  0  0  0  0  0  0  0  0  0  0  0
   11.2299  -20.3219   20.0309 C   0  0  0  0  0  0  0  0  0  0  0  0
   12.0256  -20.6250   19.0970 O   0  0  0  0  0  0  0  0  0  0  0  0
   10.8865  -18.9082   20.1791 C   0  0  0  0  0  0  0  0  0  0  0  0
   10.1177  -18.5485   21.4214 C   0  0  2  0  0  0  0  0  0  0  0  0
    8.8211  -19.2218   21.2892 N   0  0  0  0  0  0  0  0  0  0  0  0
    9.9103  -17.0752   21.4310 C   0  0  0  0  0  0  0  0  0  0  0  0
   10.8802  -16.2940   21.4592 O   0  0  0  0  0  0  0  0  0  0  0  0
    6.1061  -15.3812   21.6322 O   0  0  0  0  0  0  0  0  0  0  0  0
    7.0790  -14.7284   20.9108 C   0  0  0  0  0  0  0  0  0  0  0  0
    8.4692  -15.0550   21.4293 C   0  0  2  0  0  0  0  0  0  0  0  0
    8.6221  -16.4809   21.4095 N   0  0  0  0  0  0  0  0  0  0  0  0
    8.6181  -14.4777   22.7856 C   0  0  0  0  0  0  0  0  0  0  0  0
    8.6370  -13.2274   22.8853 O   0  0  0  0  0  0  0  0  0  0  0  0
    8.1373  -11.8608   27.0117 C   0  0  0  0  0  0  0  0  0  0  0  0
    7.2669  -13.0254   26.6431 C   0  0  1  0  0  0  0  0  0  0  0  0
    5.8327  -12.4911   26.6293 C   0  0  0  0  0  0  0  0  0  0  0  0
    7.6068  -13.7707   25.4320 C   0  0  0  0  0  0  0  0  0  0  0  0
    8.8295  -14.5809   25.3105 C   0  0  2  0  0  0  0  0  0  0  0  0
    8.7399  -15.2468   23.9620 N   0  0  0  0  0  0  0  0  0  0  0  0
    8.9841  -15.6842   26.2562 C   0  0  0  0  0  0  0  0  0  0  0  0
    8.2785  -16.7456   26.1473 O   0  0  0  0  0  0  0  0  0  0  0  0
    9.8750  -15.6894   27.3079 O   0  0  0  0  0  0  0  0  0  0  0  0
  1  2  1  0
  2  3  2  0
  4  5  1  0
  4  2  1  0
  5  6  1  6
  7 12  1  0
  7  5  1  0
  8  7  2  0
 11 10  1  1
 10  9  1  0
 11 13  1  0
 11 12  1  0
 13 20  1  0
 14 13  2  0
 16 17  1  6
 16 15  1  0
 18 16  1  0
 19 21  1  0
 19 18  1  1
 20 19  1  0
 21 23  1  0
 22 21  2  0
M  END
$$$$
