NSL.pdb
     RDKit          3D

 23 22  0  0  1  0  0  0  0  0999 V2000
   15.1145  -15.5029   19.5517 N   0  0  0  0  0  0  0  0  0  0  0  0
   14.2257  -14.4872   19.1165 C   0  0  0  0  0  0  0  0  0  0  0  0
   14.6013  -13.5496   18.3569 O   0  0  0  0  0  0  0  0  0  0  0  0
   12.8235  -14.4854   19.5314 C   0  0  0  0  0  0  0  0  0  0  0  0
   12.1217  -15.8149   19.4711 C   0  0  2  0  0  0  0  0  0  0  0  0
   11.8541  -16.0533   18.0486 N   0  0  0  0  0  0  0  0  0  0  0  0
   10.8318  -15.6948   20.2028 C   0  0  0  0  0  0  0  0  0  0  0  0
    9.9473  -14.9089   19.8128 O   0  0  0  0  0  0  0  0  0  0  0  0
    9.5690  -18.5708   22.8674 O   0  0  0  0  0  0  0  0  0  0  0  0
    8.7088  -17.7795   22.1416 C   0  0  0  0  0  0  0  0  0  0  0  0
    9.2467  -16.3667   21.9900 C   0  0  2  0  0  0  0  0  0  0  0  0
   10.5352  -16.4514   21.3658 N   0  0  0  0  0  0  0  0  0  0  0  0
    9.2944  -15.7306   23.3272 C   0  0  0  0  0  0  0  0  0  0  0  0
   10.3919  -15.7381   23.9346 O   0  0  0  0  0  0  0  0  0  0  0  0
    7.6325  -11.6590   26.8973 C   0  0  0  0  0  0  0  0  0  0  0  0
    6.8256  -12.9078   26.6994 C   0  0  1  0  0  0  0  0  0  0  0  0
    5.3598  -12.4863   26.8281 C   0  0  0  0  0  0  0  0  0  0  0  0
    7.0850  -13.7009   25.4989 C   0  0  0  0  0  0  0  0  0  0  0  0
    8.3273  -14.4648   25.3002 C   0  0  2  0  0  0  0  0  0  0  0  0
    8.1853  -15.1226   23.9523 N   0  0  0  0  0  0  0  0  0  0  0  0
    8.5751  -15.5693   26.2245 C   0  0  0  0  0  0  0  0  0  0  0  0
    7.9275  -16.6678   26.1229 O   0  0  0  0  0  0  0  0  0  0  0  0
    9.4988  -15.5370   27.2469 O   0  0  0  0  0  0  0  0  0  0  0  0
  1  2  1  0
  2  3  2  0
  4  5  1  0
  4  2  1  0
  5  6  1  6
  7 12  1  0
  7  5  1  0
  8  7  2  0
 11 10  1  1
 10  9  1  0
 11 13  1  0
 11 12  1  0
 13 20  1  0
 14 13  2  0
 16 17  1  6
 16 15  1  0
 18 16  1  0
 19 21  1  0
 19 18  1  1
 20 19  1  0
 21 23  1  0
 22 21  2  0
M  END
$$$$
