NSL.pdb
     RDKit          3D

 23 22  0  0  1  0  0  0  0  0999 V2000
   10.5507  -17.3892   16.8277 N   0  0  0  0  0  0  0  0  0  0  0  0
    9.1791  -17.7072   16.9965 C   0  0  0  0  0  0  0  0  0  0  0  0
    8.4310  -17.9852   16.0166 O   0  0  0  0  0  0  0  0  0  0  0  0
    8.5694  -17.7290   18.3255 C   0  0  0  0  0  0  0  0  0  0  0  0
    9.4794  -17.3704   19.4687 C   0  0  2  0  0  0  0  0  0  0  0  0
   10.2701  -18.5772   19.7343 N   0  0  0  0  0  0  0  0  0  0  0  0
    8.6373  -17.0607   20.6555 C   0  0  0  0  0  0  0  0  0  0  0  0
    7.9398  -16.0292   20.6919 O   0  0  0  0  0  0  0  0  0  0  0  0
    8.9198  -19.1410   24.2922 O   0  0  0  0  0  0  0  0  0  0  0  0
    7.6768  -18.7794   23.8259 C   0  0  0  0  0  0  0  0  0  0  0  0
    7.7550  -17.5622   22.9201 C   0  0  2  0  0  0  0  0  0  0  0  0
    8.5777  -17.9029   21.7957 N   0  0  0  0  0  0  0  0  0  0  0  0
    8.2893  -16.4223   23.7012 C   0  0  0  0  0  0  0  0  0  0  0  0
    9.5088  -16.1554   23.5783 O   0  0  0  0  0  0  0  0  0  0  0  0
    5.9872  -11.4944   26.6660 C   0  0  0  0  0  0  0  0  0  0  0  0
    7.2124  -12.2507   26.2455 C   0  0  1  0  0  0  0  0  0  0  0  0
    8.0961  -12.3461   27.4915 C   0  0  0  0  0  0  0  0  0  0  0  0
    7.0206  -13.5410   25.5853 C   0  0  0  0  0  0  0  0  0  0  0  0
    8.1291  -14.4696   25.3111 C   0  0  2  0  0  0  0  0  0  0  0  0
    7.5121  -15.6266   24.5691 N   0  0  0  0  0  0  0  0  0  0  0  0
    8.7782  -15.0794   26.4697 C   0  0  0  0  0  0  0  0  0  0  0  0
    9.9247  -14.6753   26.8678 O   0  0  0  0  0  0  0  0  0  0  0  0
    8.2349  -16.1009   27.2187 O   0  0  0  0  0  0  0  0  0  0  0  0
  1  2  1  0
  2  3  2  0
  4  5  1  0
  4  2  1  0
  5  6  1  1
  7 12  1  0
  7  5  1  0
  8  7  2  0
 11 10  1  1
 10  9  1  0
 11 13  1  0
 11 12  1  0
 13 20  1  0
 14 13  2  0
 16 17  1  1
 16 15  1  0
 18 16  1  0
 19 21  1  0
 19 18  1  1
 20 19  1  0
 21 23  1  0
 22 21  2  0
M  END
$$$$
