NSL.pdb
     RDKit          3D

 23 22  0  0  1  0  0  0  0  0999 V2000
    7.6554  -16.3065   15.6477 N   0  0  0  0  0  0  0  0  0  0  0  0
    7.8019  -15.3528   16.6869 C   0  0  0  0  0  0  0  0  0  0  0  0
    8.2660  -14.1968   16.4740 O   0  0  0  0  0  0  0  0  0  0  0  0
    7.4151  -15.6711   18.0608 C   0  0  0  0  0  0  0  0  0  0  0  0
    8.4955  -15.5181   19.0967 C   0  0  2  0  0  0  0  0  0  0  0  0
    9.4764  -16.5674   18.7986 N   0  0  0  0  0  0  0  0  0  0  0  0
    7.8964  -15.7681   20.4355 C   0  0  0  0  0  0  0  0  0  0  0  0
    7.0003  -15.0271   20.8825 O   0  0  0  0  0  0  0  0  0  0  0  0
    9.4362  -18.6338   23.0470 O   0  0  0  0  0  0  0  0  0  0  0  0
    8.0788  -18.4095   23.0573 C   0  0  0  0  0  0  0  0  0  0  0  0
    7.7432  -17.0066   22.5804 C   0  0  2  0  0  0  0  0  0  0  0  0
    8.3003  -16.8429   21.2689 N   0  0  0  0  0  0  0  0  0  0  0  0
    8.2774  -16.0315   23.5597 C   0  0  0  0  0  0  0  0  0  0  0  0
    9.4137  -15.5490   23.3373 O   0  0  0  0  0  0  0  0  0  0  0  0
    7.7837  -11.5627   25.3802 C   0  0  0  0  0  0  0  0  0  0  0  0
    7.3544  -12.4349   26.5225 C   0  0  1  0  0  0  0  0  0  0  0  0
    6.1020  -11.7769   27.1066 C   0  0  0  0  0  0  0  0  0  0  0  0
    7.1752  -13.8615   26.2575 C   0  0  0  0  0  0  0  0  0  0  0  0
    8.2501  -14.7158   25.7273 C   0  0  2  0  0  0  0  0  0  0  0  0
    7.5878  -15.6184   24.7191 N   0  0  0  0  0  0  0  0  0  0  0  0
    8.8920  -15.6275   26.6719 C   0  0  0  0  0  0  0  0  0  0  0  0
    8.4284  -16.8037   26.8669 O   0  0  0  0  0  0  0  0  0  0  0  0
   10.0176  -15.3224   27.4064 O   0  0  0  0  0  0  0  0  0  0  0  0
  1  2  1  0
  2  3  2  0
  4  5  1  0
  4  2  1  0
  5  6  1  6
  7 12  1  0
  7  5  1  0
  8  7  2  0
 11 10  1  1
 10  9  1  0
 11 13  1  0
 11 12  1  0
 13 20  1  0
 14 13  2  0
 16 17  1  6
 16 15  1  0
 18 16  1  0
 19 21  1  0
 19 18  1  1
 20 19  1  0
 21 23  1  0
 22 21  2  0
M  END
$$$$
