TTH.pdb
     RDKit          3D

 25 25  0  0  1  0  0  0  0  0999 V2000
   31.3661  -10.9577  -18.3228 C   0  0  0  0  0  0  0  0  0  0  0  0
   30.7397   -9.6060  -18.1861 C   0  0  1  0  0  0  0  0  0  0  0  0
   31.3929   -8.8243  -17.2445 O   0  0  0  0  0  0  0  0  0  0  0  0
   30.6542   -8.8519  -19.4852 C   0  0  2  0  0  0  0  0  0  0  0  0
   31.9244   -8.6789  -20.1214 N   0  0  0  0  0  0  0  0  0  0  0  0
   29.9780   -7.5578  -19.3667 C   0  0  0  0  0  0  0  0  0  0  0  0
   30.5270   -6.4487  -19.6393 O   0  0  0  0  0  0  0  0  0  0  0  0
   29.0886   -5.4851  -21.0160 C   0  0  0  0  0  0  0  0  0  0  0  0
   27.7318   -5.7247  -20.3892 C   0  0  1  0  0  0  0  0  0  0  0  0
   27.0765   -6.6249  -21.2314 O   0  0  0  0  0  0  0  0  0  0  0  0
   27.8523   -6.2599  -18.9827 C   0  0  2  0  0  0  0  0  0  0  0  0
   28.6220   -7.4797  -18.9235 N   0  0  0  0  0  0  0  0  0  0  0  0
   26.5020   -6.4075  -18.4126 C   0  0  0  0  0  0  0  0  0  0  0  0
   26.1111   -7.5683  -18.1144 O   0  0  0  0  0  0  0  0  0  0  0  0
   25.6609   -5.2854  -18.2022 N   0  0  0  0  0  0  0  0  0  0  0  0
   24.3632   -5.5112  -17.5495 C   0  0  1  0  0  0  0  0  0  0  0  0
   24.5784   -5.7531  -16.0869 C   0  0  0  0  0  0  0  0  0  0  0  0
   23.3723   -5.8024  -15.2653 C   0  0  0  0  0  0  0  0  0  0  0  0
   22.1910   -6.4470  -15.4424 C   0  0  0  0  0  0  0  0  0  0  0  0
   21.3932   -6.2317  -14.3539 N   0  0  0  0  0  0  0  0  0  0  0  0
   22.0896   -5.4609  -13.5208 C   0  0  0  0  0  0  0  0  0  0  0  0
   23.2781   -5.1905  -14.0440 N   0  0  0  0  0  0  0  0  0  0  0  0
   23.6368   -4.1929  -17.6420 C   0  0  0  0  0  0  0  0  0  0  0  0
   24.1927   -3.1036  -17.7940 O   0  0  0  0  0  0  0  0  0  0  0  0
   22.2267   -4.1501  -17.5545 O   0  0  0  0  0  0  0  0  0  0  0  0
  2  1  1  6
  2  3  1  0
  4  2  1  0
  4  5  1  1
  6  4  1  0
  6  7  2  0
  9  8  1  6
  9 11  1  0
 10  9  1  0
 11 12  1  6
 11 13  1  0
 12  6  1  0
 13 14  2  0
 13 15  1  0
 15 16  1  0
 16 17  1  1
 17 18  1  0
 18 22  1  0
 19 18  2  0
 19 20  1  0
 20 21  1  0
 22 21  2  0
 23 25  1  0
 23 16  1  0
 24 23  2  0
M  END
$$$$
