TTH.pdb
     RDKit          3D

 25 25  0  0  1  0  0  0  0  0999 V2000
   15.5106  -23.4027    3.8716 C   0  0  0  0  0  0  0  0  0  0  0  0
   15.4619  -23.3328    2.3780 C   0  0  1  0  0  0  0  0  0  0  0  0
   14.6736  -24.3378    1.8369 O   0  0  0  0  0  0  0  0  0  0  0  0
   14.9965  -22.0006    1.8562 C   0  0  2  0  0  0  0  0  0  0  0  0
   14.8213  -21.9812    0.4361 N   0  0  0  0  0  0  0  0  0  0  0  0
   15.8487  -20.8818    2.2666 C   0  0  0  0  0  0  0  0  0  0  0  0
   16.9339  -20.5744    1.6890 O   0  0  0  0  0  0  0  0  0  0  0  0
   14.4017  -17.3016    2.9973 C   0  0  0  0  0  0  0  0  0  0  0  0
   15.3057  -17.7291    4.1337 C   0  0  1  0  0  0  0  0  0  0  0  0
   14.4562  -18.0979    5.1784 O   0  0  0  0  0  0  0  0  0  0  0  0
   16.2175  -18.8616    3.7271 C   0  0  2  0  0  0  0  0  0  0  0  0
   15.4866  -20.0553    3.3743 N   0  0  0  0  0  0  0  0  0  0  0  0
   17.2008  -19.0892    4.8001 C   0  0  0  0  0  0  0  0  0  0  0  0
   17.0545  -20.1079    5.5280 O   0  0  0  0  0  0  0  0  0  0  0  0
   18.2813  -18.1963    5.0153 N   0  0  0  0  0  0  0  0  0  0  0  0
   19.1840  -18.4681    6.1431 C   0  0  1  0  0  0  0  0  0  0  0  0
   20.4820  -17.7534    5.9237 C   0  0  0  0  0  0  0  0  0  0  0  0
   21.4275  -17.7940    7.0359 C   0  0  0  0  0  0  0  0  0  0  0  0
   22.0614  -18.8323    7.6378 C   0  0  0  0  0  0  0  0  0  0  0  0
   22.9035  -18.3489    8.5995 N   0  0  0  0  0  0  0  0  0  0  0  0
   22.7805  -17.0230    8.5786 C   0  0  0  0  0  0  0  0  0  0  0  0
   21.9026  -16.6664    7.6504 N   0  0  0  0  0  0  0  0  0  0  0  0
   18.5458  -17.7978    7.3338 C   0  0  0  0  0  0  0  0  0  0  0  0
   18.7969  -18.0812    8.5065 O   0  0  0  0  0  0  0  0  0  0  0  0
   17.5916  -16.7722    7.1459 O   0  0  0  0  0  0  0  0  0  0  0  0
  2  1  1  1
  2  3  1  0
  4  2  1  0
  4  5  1  6
  6  4  1  0
  6  7  2  0
  9  8  1  6
  9 11  1  0
 10  9  1  0
 11 12  1  1
 11 13  1  0
 12  6  1  0
 13 14  2  0
 13 15  1  0
 15 16  1  0
 16 17  1  6
 17 18  1  0
 18 22  1  0
 19 18  2  0
 19 20  1  0
 20 21  1  0
 22 21  2  0
 23 25  1  0
 23 16  1  0
 24 23  2  0
M  END
$$$$
