TTH.pdb
     RDKit          3D

 25 25  0  0  1  0  0  0  0  0999 V2000
   25.2705  -12.8883  -15.1891 C   0  0  0  0  0  0  0  0  0  0  0  0
   24.9898  -13.9956  -16.1552 C   0  0  1  0  0  0  0  0  0  0  0  0
   25.6753  -15.1562  -15.8275 O   0  0  0  0  0  0  0  0  0  0  0  0
   23.5250  -14.3071  -16.2991 C   0  0  2  0  0  0  0  0  0  0  0  0
   23.2716  -15.4739  -17.0881 N   0  0  0  0  0  0  0  0  0  0  0  0
   22.7353  -13.1829  -16.8077 C   0  0  0  0  0  0  0  0  0  0  0  0
   22.7456  -12.8052  -18.0173 O   0  0  0  0  0  0  0  0  0  0  0  0
   19.0917  -12.6828  -16.9892 C   0  0  0  0  0  0  0  0  0  0  0  0
   19.6201  -11.5234  -16.1720 C   0  0  1  0  0  0  0  0  0  0  0  0
   19.3338  -11.8333  -14.8412 O   0  0  0  0  0  0  0  0  0  0  0  0
   21.0987  -11.3123  -16.3921 C   0  0  2  0  0  0  0  0  0  0  0  0
   21.8870  -12.4325  -15.9368 N   0  0  0  0  0  0  0  0  0  0  0  0
   21.4962  -10.0403  -15.7642 C   0  0  0  0  0  0  0  0  0  0  0  0
   22.1175  -10.0921  -14.6687 O   0  0  0  0  0  0  0  0  0  0  0  0
   21.1939   -8.7921  -16.3655 N   0  0  0  0  0  0  0  0  0  0  0  0
   21.6992   -7.5748  -15.7145 C   0  0  1  0  0  0  0  0  0  0  0  0
   21.9509   -6.5244  -16.7524 C   0  0  0  0  0  0  0  0  0  0  0  0
   23.1116   -6.7427  -17.6111 C   0  0  0  0  0  0  0  0  0  0  0  0
   24.0688   -7.7049  -17.5993 C   0  0  0  0  0  0  0  0  0  0  0  0
   24.9136   -7.5123  -18.6561 N   0  0  0  0  0  0  0  0  0  0  0  0
   24.4685   -6.4384  -19.3056 C   0  0  0  0  0  0  0  0  0  0  0  0
   23.3902   -5.9598  -18.6994 N   0  0  0  0  0  0  0  0  0  0  0  0
   20.5494   -7.0609  -14.8850 C   0  0  0  0  0  0  0  0  0  0  0  0
   19.4204   -7.5550  -14.8826 O   0  0  0  0  0  0  0  0  0  0  0  0
   20.7265   -5.9426  -14.0390 O   0  0  0  0  0  0  0  0  0  0  0  0
  2  1  1  1
  2  3  1  0
  4  2  1  0
  4  5  1  6
  6  4  1  0
  6  7  2  0
  9  8  1  6
  9 11  1  0
 10  9  1  0
 11 12  1  1
 11 13  1  0
 12  6  1  0
 13 14  2  0
 13 15  1  0
 15 16  1  0
 16 17  1  6
 17 18  1  0
 18 22  1  0
 19 18  2  0
 19 20  1  0
 20 21  1  0
 22 21  2  0
 23 25  1  0
 23 16  1  0
 24 23  2  0
M  END
$$$$
