TTH.pdb
     RDKit          3D

 25 25  0  0  1  0  0  0  0  0999 V2000
   25.4677  -26.3409  -16.0853 C   0  0  0  0  0  0  0  0  0  0  0  0
   25.2355  -25.5606  -17.3405 C   0  0  1  0  0  0  0  0  0  0  0  0
   24.9912  -24.2201  -17.0803 O   0  0  0  0  0  0  0  0  0  0  0  0
   26.3591  -25.6774  -18.3342 C   0  0  2  0  0  0  0  0  0  0  0  0
   26.1124  -24.9650  -19.5506 N   0  0  0  0  0  0  0  0  0  0  0  0
   26.7308  -27.0619  -18.6364 C   0  0  0  0  0  0  0  0  0  0  0  0
   26.0573  -27.8226  -19.3937 O   0  0  0  0  0  0  0  0  0  0  0  0
   29.7457  -28.4396  -20.2393 C   0  0  0  0  0  0  0  0  0  0  0  0
   29.6548  -29.1516  -18.9066 C   0  0  1  0  0  0  0  0  0  0  0  0
   30.6391  -28.5776  -18.0999 O   0  0  0  0  0  0  0  0  0  0  0  0
   28.2812  -29.0188  -18.2943 C   0  0  2  0  0  0  0  0  0  0  0  0
   27.9092  -27.6416  -18.0738 N   0  0  0  0  0  0  0  0  0  0  0  0
   28.2279  -29.8293  -17.0654 C   0  0  0  0  0  0  0  0  0  0  0  0
   28.1068  -29.2258  -15.9653 O   0  0  0  0  0  0  0  0  0  0  0  0
   28.3095  -31.2445  -17.1082 N   0  0  0  0  0  0  0  0  0  0  0  0
   28.1149  -31.9829  -15.8521 C   0  0  1  0  0  0  0  0  0  0  0  0
   26.7451  -31.6995  -15.3164 C   0  0  0  0  0  0  0  0  0  0  0  0
   26.3039  -32.5492  -14.2138 C   0  0  0  0  0  0  0  0  0  0  0  0
   26.9976  -33.3438  -13.3597 C   0  0  0  0  0  0  0  0  0  0  0  0
   26.1343  -33.8909  -12.4524 N   0  0  0  0  0  0  0  0  0  0  0  0
   24.9231  -33.4279  -12.7556 C   0  0  0  0  0  0  0  0  0  0  0  0
   24.9987  -32.6222  -13.8066 N   0  0  0  0  0  0  0  0  0  0  0  0
   28.1061  -33.4391  -16.2442 C   0  0  0  0  0  0  0  0  0  0  0  0
   27.9271  -34.3688  -15.4553 O   0  0  0  0  0  0  0  0  0  0  0  0
   28.3116  -33.8143  -17.5913 O   0  0  0  0  0  0  0  0  0  0  0  0
  2  1  1  1
  2  3  1  0
  4  2  1  0
  4  5  1  6
  6  4  1  0
  6  7  2  0
  9  8  1  6
  9 11  1  0
 10  9  1  0
 11 12  1  1
 11 13  1  0
 12  6  1  0
 13 14  2  0
 13 15  1  0
 15 16  1  0
 16 17  1  6
 17 18  1  0
 18 22  1  0
 19 18  2  0
 19 20  1  0
 20 21  1  0
 22 21  2  0
 23 25  1  0
 23 16  1  0
 24 23  2  0
M  END
$$$$
