TTH.pdb
     RDKit          3D

 25 25  0  0  1  0  0  0  0  0999 V2000
   31.6998  -33.5028  -15.9781 C   0  0  0  0  0  0  0  0  0  0  0  0
   30.5108  -32.8105  -16.5657 C   0  0  1  0  0  0  0  0  0  0  0  0
   30.4031  -31.4998  -16.1243 O   0  0  0  0  0  0  0  0  0  0  0  0
   30.4888  -32.8319  -18.0699 C   0  0  2  0  0  0  0  0  0  0  0  0
   31.6814  -32.3038  -18.6588 N   0  0  0  0  0  0  0  0  0  0  0  0
   29.3155  -32.1712  -18.6470 C   0  0  0  0  0  0  0  0  0  0  0  0
   29.3202  -31.5809  -19.7684 O   0  0  0  0  0  0  0  0  0  0  0  0
   26.5100  -33.3376  -20.2748 C   0  0  0  0  0  0  0  0  0  0  0  0
   25.9325  -32.6486  -19.0570 C   0  0  1  0  0  0  0  0  0  0  0  0
   25.6975  -33.6591  -18.1228 O   0  0  0  0  0  0  0  0  0  0  0  0
   26.8663  -31.5926  -18.5166 C   0  0  2  0  0  0  0  0  0  0  0  0
   28.0676  -32.1593  -17.9515 N   0  0  0  0  0  0  0  0  0  0  0  0
   26.1280  -30.7484  -17.5615 C   0  0  0  0  0  0  0  0  0  0  0  0
   26.1198  -31.0967  -16.3500 O   0  0  0  0  0  0  0  0  0  0  0  0
   25.4449  -29.5789  -17.9819 N   0  0  0  0  0  0  0  0  0  0  0  0
   24.7230  -28.8009  -16.9648 C   0  0  1  0  0  0  0  0  0  0  0  0
   24.8110  -27.3435  -17.2994 C   0  0  0  0  0  0  0  0  0  0  0  0
   26.1401  -26.7465  -17.2012 C   0  0  0  0  0  0  0  0  0  0  0  0
   27.2174  -27.0736  -16.4431 C   0  0  0  0  0  0  0  0  0  0  0  0
   28.2580  -26.2459  -16.7590 N   0  0  0  0  0  0  0  0  0  0  0  0
   27.8123  -25.4220  -17.7055 C   0  0  0  0  0  0  0  0  0  0  0  0
   26.5469  -25.7021  -17.9877 N   0  0  0  0  0  0  0  0  0  0  0  0
   23.2714  -29.1717  -17.1367 C   0  0  0  0  0  0  0  0  0  0  0  0
   22.8422  -29.8949  -18.0375 O   0  0  0  0  0  0  0  0  0  0  0  0
   22.3007  -28.6839  -16.2326 O   0  0  0  0  0  0  0  0  0  0  0  0
  2  1  1  6
  2  3  1  0
  4  2  1  0
  4  5  1  6
  6  4  1  0
  6  7  2  0
  9  8  1  6
  9 11  1  0
 10  9  1  0
 11 12  1  1
 11 13  1  0
 12  6  1  0
 13 14  2  0
 13 15  1  0
 15 16  1  0
 16 17  1  6
 17 18  1  0
 18 22  1  0
 19 18  2  0
 19 20  1  0
 20 21  1  0
 22 21  2  0
 23 25  1  0
 23 16  1  0
 24 23  2  0
M  END
$$$$
