TTH.pdb
     RDKit          3D

 25 25  0  0  1  0  0  0  0  0999 V2000
   28.2307  -12.4443  -15.0901 C   0  0  0  0  0  0  0  0  0  0  0  0
   27.2076  -11.5899  -15.7694 C   0  0  1  0  0  0  0  0  0  0  0  0
   27.7067  -10.9994  -16.9211 O   0  0  0  0  0  0  0  0  0  0  0  0
   25.9369  -12.3252  -16.0982 C   0  0  2  0  0  0  0  0  0  0  0  0
   26.1421  -13.4465  -16.9633 N   0  0  0  0  0  0  0  0  0  0  0  0
   24.8866  -11.4623  -16.6446 C   0  0  0  0  0  0  0  0  0  0  0  0
   24.6262  -11.3666  -17.8811 O   0  0  0  0  0  0  0  0  0  0  0  0
   21.3041  -11.5774  -16.4641 C   0  0  0  0  0  0  0  0  0  0  0  0
   21.6623  -10.2363  -15.8603 C   0  0  1  0  0  0  0  0  0  0  0  0
   21.5686  -10.4037  -14.4774 O   0  0  0  0  0  0  0  0  0  0  0  0
   23.0414   -9.7857  -16.2775 C   0  0  2  0  0  0  0  0  0  0  0  0
   24.0779  -10.6599  -15.7824 N   0  0  0  0  0  0  0  0  0  0  0  0
   23.2294   -8.3844  -15.8640 C   0  0  0  0  0  0  0  0  0  0  0  0
   23.9808   -8.1560  -14.8779 O   0  0  0  0  0  0  0  0  0  0  0  0
   22.5895   -7.3191  -16.5471 N   0  0  0  0  0  0  0  0  0  0  0  0
   22.8753   -5.9472  -16.1033 C   0  0  1  0  0  0  0  0  0  0  0  0
   22.4316   -4.9811  -17.1587 C   0  0  0  0  0  0  0  0  0  0  0  0
   22.5930   -3.5662  -16.8354 C   0  0  0  0  0  0  0  0  0  0  0  0
   23.6890   -2.8432  -16.4917 C   0  0  0  0  0  0  0  0  0  0  0  0
   23.3357   -1.5307  -16.3491 N   0  0  0  0  0  0  0  0  0  0  0  0
   22.0312   -1.4598  -16.6070 C   0  0  0  0  0  0  0  0  0  0  0  0
   21.5637   -2.6657  -16.9011 N   0  0  0  0  0  0  0  0  0  0  0  0
   21.9630   -5.7119  -14.9258 C   0  0  0  0  0  0  0  0  0  0  0  0
   20.9877   -6.4139  -14.6528 O   0  0  0  0  0  0  0  0  0  0  0  0
   22.1990   -4.6293  -14.0482 O   0  0  0  0  0  0  0  0  0  0  0  0
  2  1  1  6
  2  3  1  0
  4  2  1  0
  4  5  1  6
  6  4  1  0
  6  7  2  0
  9  8  1  6
  9 11  1  0
 10  9  1  0
 11 12  1  1
 11 13  1  0
 12  6  1  0
 13 14  2  0
 13 15  1  0
 15 16  1  0
 16 17  1  6
 17 18  1  0
 18 22  1  0
 19 18  2  0
 19 20  1  0
 20 21  1  0
 22 21  2  0
 23 25  1  0
 23 16  1  0
 24 23  2  0
M  END
$$$$
