TTH.pdb
     RDKit          3D

 25 25  0  0  1  0  0  0  0  0999 V2000
   36.9227  -11.0524   -9.1614 C   0  0  0  0  0  0  0  0  0  0  0  0
   37.9698  -10.5010   -8.2461 C   0  0  1  0  0  0  0  0  0  0  0  0
   37.4841   -9.4584   -7.4706 O   0  0  0  0  0  0  0  0  0  0  0  0
   38.5895  -11.5396   -7.3512 C   0  0  2  0  0  0  0  0  0  0  0  0
   37.6340  -12.2201   -6.5315 N   0  0  0  0  0  0  0  0  0  0  0  0
   39.6773  -11.0202   -6.5187 C   0  0  0  0  0  0  0  0  0  0  0  0
   39.5998  -10.8876   -5.2609 O   0  0  0  0  0  0  0  0  0  0  0  0
   43.5647  -11.9437   -6.4824 C   0  0  0  0  0  0  0  0  0  0  0  0
   43.3474  -10.4754   -6.7793 C   0  0  1  0  0  0  0  0  0  0  0  0
   43.5221  -10.3352   -8.1574 O   0  0  0  0  0  0  0  0  0  0  0  0
   41.9799  -10.0122   -6.3384 C   0  0  2  0  0  0  0  0  0  0  0  0
   40.9198  -10.6248   -7.1029 N   0  0  0  0  0  0  0  0  0  0  0  0
   41.9393   -8.5402   -6.3818 C   0  0  0  0  0  0  0  0  0  0  0  0
   41.2801   -7.9953   -7.3078 O   0  0  0  0  0  0  0  0  0  0  0  0
   42.6173   -7.7525   -5.4169 N   0  0  0  0  0  0  0  0  0  0  0  0
   42.5943   -6.2921   -5.5822 C   0  0  1  0  0  0  0  0  0  0  0  0
   43.0945   -5.6424   -4.3285 C   0  0  0  0  0  0  0  0  0  0  0  0
   43.0672   -4.1825   -4.3131 C   0  0  0  0  0  0  0  0  0  0  0  0
   42.4905   -3.2864   -5.1537 C   0  0  0  0  0  0  0  0  0  0  0  0
   42.6949   -2.0232   -4.6739 N   0  0  0  0  0  0  0  0  0  0  0  0
   43.3915   -2.1546   -3.5466 C   0  0  0  0  0  0  0  0  0  0  0  0
   43.6265   -3.4382   -3.3090 N   0  0  0  0  0  0  0  0  0  0  0  0
   43.6305   -5.9948   -6.6368 C   0  0  0  0  0  0  0  0  0  0  0  0
   44.6692   -6.6399   -6.7900 O   0  0  0  0  0  0  0  0  0  0  0  0
   43.4452   -4.9169   -7.5321 O   0  0  0  0  0  0  0  0  0  0  0  0
  2  1  1  1
  2  3  1  0
  4  2  1  0
  4  5  1  1
  6  4  1  0
  6  7  2  0
  9  8  1  6
  9 11  1  0
 10  9  1  0
 11 12  1  6
 11 13  1  0
 12  6  1  0
 13 14  2  0
 13 15  1  0
 15 16  1  0
 16 17  1  1
 17 18  1  0
 18 22  1  0
 19 18  2  0
 19 20  1  0
 20 21  1  0
 22 21  2  0
 23 25  1  0
 23 16  1  0
 24 23  2  0
M  END
$$$$
