TTH.pdb
     RDKit          3D

 25 25  0  0  1  0  0  0  0  0999 V2000
   20.9622  -14.0200  -16.9791 C   0  0  0  0  0  0  0  0  0  0  0  0
   19.5483  -14.5049  -16.9160 C   0  0  1  0  0  0  0  0  0  0  0  0
   19.4739  -15.8408  -16.5497 O   0  0  0  0  0  0  0  0  0  0  0  0
   18.6761  -13.6891  -16.0010 C   0  0  2  0  0  0  0  0  0  0  0  0
   17.3993  -14.2878  -15.7573 N   0  0  0  0  0  0  0  0  0  0  0  0
   18.4986  -12.3040  -16.4438 C   0  0  0  0  0  0  0  0  0  0  0  0
   18.4472  -11.9548  -17.6608 O   0  0  0  0  0  0  0  0  0  0  0  0
   15.6934   -9.8727  -15.6623 C   0  0  0  0  0  0  0  0  0  0  0  0
   16.9906   -9.2346  -15.2137 C   0  0  1  0  0  0  0  0  0  0  0  0
   17.0328   -9.3908  -13.8271 O   0  0  0  0  0  0  0  0  0  0  0  0
   18.1861   -9.8667  -15.8850 C   0  0  2  0  0  0  0  0  0  0  0  0
   18.3705  -11.2440  -15.4944 N   0  0  0  0  0  0  0  0  0  0  0  0
   19.3732   -9.0344  -15.6243 C   0  0  0  0  0  0  0  0  0  0  0  0
   20.2325   -9.4704  -14.8115 O   0  0  0  0  0  0  0  0  0  0  0  0
   19.5528   -7.7808  -16.2626 N   0  0  0  0  0  0  0  0  0  0  0  0
   20.7712   -7.0192  -15.9522 C   0  0  1  0  0  0  0  0  0  0  0  0
   21.2168   -6.2756  -17.1738 C   0  0  0  0  0  0  0  0  0  0  0  0
   22.4260   -5.4708  -17.0239 C   0  0  0  0  0  0  0  0  0  0  0  0
   23.3522   -5.4180  -16.0332 C   0  0  0  0  0  0  0  0  0  0  0  0
   24.3417   -4.5448  -16.3882 N   0  0  0  0  0  0  0  0  0  0  0  0
   24.0161   -4.0720  -17.5898 C   0  0  0  0  0  0  0  0  0  0  0  0
   22.8731   -4.6118  -17.9919 N   0  0  0  0  0  0  0  0  0  0  0  0
   20.3394   -5.9626  -14.9667 C   0  0  0  0  0  0  0  0  0  0  0  0
   21.0981   -5.1322  -14.4631 O   0  0  0  0  0  0  0  0  0  0  0  0
   18.9879   -5.8770  -14.5620 O   0  0  0  0  0  0  0  0  0  0  0  0
  2  1  1  1
  2  3  1  0
  4  2  1  0
  4  5  1  6
  6  4  1  0
  6  7  2  0
  9  8  1  6
  9 11  1  0
 10  9  1  0
 11 12  1  1
 11 13  1  0
 12  6  1  0
 13 14  2  0
 13 15  1  0
 15 16  1  0
 16 17  1  6
 17 18  1  0
 18 22  1  0
 19 18  2  0
 19 20  1  0
 20 21  1  0
 22 21  2  0
 23 25  1  0
 23 16  1  0
 24 23  2  0
M  END
$$$$
