TTH.pdb
     RDKit          3D

 25 25  0  0  1  0  0  0  0  0999 V2000
   13.3108   -8.5266  -15.0585 C   0  0  0  0  0  0  0  0  0  0  0  0
   14.7205   -8.1803  -15.4204 C   0  0  1  0  0  0  0  0  0  0  0  0
   15.4225   -9.2826  -15.8857 O   0  0  0  0  0  0  0  0  0  0  0  0
   14.8237   -7.0649  -16.4248 C   0  0  2  0  0  0  0  0  0  0  0  0
   14.1106   -7.3300  -17.6369 N   0  0  0  0  0  0  0  0  0  0  0  0
   16.2036   -6.6824  -16.7341 C   0  0  0  0  0  0  0  0  0  0  0  0
   16.8270   -7.0695  -17.7673 O   0  0  0  0  0  0  0  0  0  0  0  0
   17.6009   -3.6745  -17.8506 C   0  0  0  0  0  0  0  0  0  0  0  0
   18.3270   -3.9238  -16.5460 C   0  0  1  0  0  0  0  0  0  0  0  0
   17.7021   -3.1089  -15.6002 O   0  0  0  0  0  0  0  0  0  0  0  0
   18.2799   -5.3797  -16.1493 C   0  0  2  0  0  0  0  0  0  0  0  0
   16.9385   -5.8261  -15.8578 N   0  0  0  0  0  0  0  0  0  0  0  0
   19.2113   -5.5977  -15.0290 C   0  0  0  0  0  0  0  0  0  0  0  0
   18.7416   -5.5804  -13.8593 O   0  0  0  0  0  0  0  0  0  0  0  0
   20.5943   -5.8208  -15.2492 N   0  0  0  0  0  0  0  0  0  0  0  0
   21.4294   -6.1621  -14.0886 C   0  0  1  0  0  0  0  0  0  0  0  0
   22.5555   -7.0459  -14.5297 C   0  0  0  0  0  0  0  0  0  0  0  0
   22.1722   -8.3598  -15.0389 C   0  0  0  0  0  0  0  0  0  0  0  0
   20.9615   -8.9648  -15.1409 C   0  0  0  0  0  0  0  0  0  0  0  0
   21.1151  -10.1791  -15.7489 N   0  0  0  0  0  0  0  0  0  0  0  0
   22.4136  -10.3076  -16.0149 C   0  0  0  0  0  0  0  0  0  0  0  0
   23.0675   -9.2310  -15.5995 N   0  0  0  0  0  0  0  0  0  0  0  0
   22.0711   -4.8648  -13.6651 C   0  0  0  0  0  0  0  0  0  0  0  0
   22.0515   -3.8303  -14.3344 O   0  0  0  0  0  0  0  0  0  0  0  0
   22.7514   -4.7779  -12.4292 O   0  0  0  0  0  0  0  0  0  0  0  0
  2  1  1  6
  2  3  1  0
  4  2  1  0
  4  5  1  6
  6  4  1  0
  6  7  2  0
  9  8  1  6
  9 11  1  0
 10  9  1  0
 11 12  1  1
 11 13  1  0
 12  6  1  0
 13 14  2  0
 13 15  1  0
 15 16  1  0
 16 17  1  6
 17 18  1  0
 18 22  1  0
 19 18  2  0
 19 20  1  0
 20 21  1  0
 22 21  2  0
 23 25  1  0
 23 16  1  0
 24 23  2  0
M  END
$$$$
