TTH.pdb
     RDKit          3D

 25 25  0  0  1  0  0  0  0  0999 V2000
   25.0110  -36.3578  -13.2261 C   0  0  0  0  0  0  0  0  0  0  0  0
   26.0333  -35.3198  -13.5663 C   0  0  1  0  0  0  0  0  0  0  0  0
   27.1386  -35.8684  -14.2002 O   0  0  0  0  0  0  0  0  0  0  0  0
   25.4881  -34.1944  -14.4027 C   0  0  2  0  0  0  0  0  0  0  0  0
   26.4698  -33.2041  -14.7244 N   0  0  0  0  0  0  0  0  0  0  0  0
   24.3072  -33.5520  -13.8204 C   0  0  0  0  0  0  0  0  0  0  0  0
   24.3568  -32.5199  -13.0868 O   0  0  0  0  0  0  0  0  0  0  0  0
   19.3935  -32.9082  -13.9528 C   0  0  0  0  0  0  0  0  0  0  0  0
   20.6227  -33.6234  -14.4712 C   0  0  1  0  0  0  0  0  0  0  0  0
   20.8690  -33.0892  -15.7373 O   0  0  0  0  0  0  0  0  0  0  0  0
   21.8042  -33.4448  -13.5486 C   0  0  2  0  0  0  0  0  0  0  0  0
   22.9989  -34.0744  -14.0585 N   0  0  0  0  0  0  0  0  0  0  0  0
   21.4349  -33.9225  -12.2049 C   0  0  0  0  0  0  0  0  0  0  0  0
   21.5419  -35.1558  -11.9672 O   0  0  0  0  0  0  0  0  0  0  0  0
   20.9727  -33.0309  -11.2038 N   0  0  0  0  0  0  0  0  0  0  0  0
   20.7152  -33.5758   -9.8630 C   0  0  1  0  0  0  0  0  0  0  0  0
   21.8224  -33.1679   -8.9401 C   0  0  0  0  0  0  0  0  0  0  0  0
   21.6661  -33.5645   -7.5434 C   0  0  0  0  0  0  0  0  0  0  0  0
   20.7441  -34.3502   -6.9311 C   0  0  0  0  0  0  0  0  0  0  0  0
   21.0645  -34.4725   -5.6082 N   0  0  0  0  0  0  0  0  0  0  0  0
   22.1769  -33.7647   -5.4212 C   0  0  0  0  0  0  0  0  0  0  0  0
   22.5569  -33.2117   -6.5653 N   0  0  0  0  0  0  0  0  0  0  0  0
   19.4865  -32.8541   -9.3696 C   0  0  0  0  0  0  0  0  0  0  0  0
   18.9556  -31.9084   -9.9548 O   0  0  0  0  0  0  0  0  0  0  0  0
   18.8658  -33.2495   -8.1629 O   0  0  0  0  0  0  0  0  0  0  0  0
  2  1  1  6
  2  3  1  0
  4  2  1  0
  4  5  1  1
  6  4  1  0
  6  7  2  0
  9  8  1  1
  9 11  1  0
 10  9  1  0
 11 12  1  6
 11 13  1  0
 12  6  1  0
 13 14  2  0
 13 15  1  0
 15 16  1  0
 16 17  1  1
 17 18  1  0
 18 22  1  0
 19 18  2  0
 19 20  1  0
 20 21  1  0
 22 21  2  0
 23 25  1  0
 23 16  1  0
 24 23  2  0
M  END
$$$$
