TTH.pdb
     RDKit          3D

 25 25  0  0  1  0  0  0  0  0999 V2000
   17.7435  -16.9028  -16.1827 C   0  0  0  0  0  0  0  0  0  0  0  0
   18.3232  -15.6798  -16.8202 C   0  0  1  0  0  0  0  0  0  0  0  0
   17.4493  -15.1063  -17.7322 O   0  0  0  0  0  0  0  0  0  0  0  0
   18.7603  -14.6374  -15.8272 C   0  0  2  0  0  0  0  0  0  0  0  0
   17.6993  -14.1864  -14.9794 N   0  0  0  0  0  0  0  0  0  0  0  0
   19.4273  -13.4873  -16.4423 C   0  0  0  0  0  0  0  0  0  0  0  0
   20.4527  -13.5800  -17.1811 O   0  0  0  0  0  0  0  0  0  0  0  0
   18.0001  -10.9562  -18.8722 C   0  0  0  0  0  0  0  0  0  0  0  0
   18.4904  -10.2092  -17.6504 C   0  0  1  0  0  0  0  0  0  0  0  0
   17.3545   -9.9477  -16.8821 O   0  0  0  0  0  0  0  0  0  0  0  0
   19.5153  -11.0073  -16.8810 C   0  0  2  0  0  0  0  0  0  0  0  0
   18.9388  -12.1611  -16.2328 N   0  0  0  0  0  0  0  0  0  0  0  0
   20.2088  -10.1101  -15.9407 C   0  0  0  0  0  0  0  0  0  0  0  0
   19.9211  -10.2018  -14.7168 O   0  0  0  0  0  0  0  0  0  0  0  0
   21.1711   -9.1696  -16.3885 N   0  0  0  0  0  0  0  0  0  0  0  0
   21.8053   -8.3033  -15.3844 C   0  0  1  0  0  0  0  0  0  0  0  0
   23.2637   -8.1657  -15.6973 C   0  0  0  0  0  0  0  0  0  0  0  0
   24.0968   -9.3198  -15.3710 C   0  0  0  0  0  0  0  0  0  0  0  0
   23.7910  -10.5188  -14.8131 C   0  0  0  0  0  0  0  0  0  0  0  0
   24.9148  -11.2955  -14.7715 N   0  0  0  0  0  0  0  0  0  0  0  0
   25.8964  -10.5696  -15.3034 C   0  0  0  0  0  0  0  0  0  0  0  0
   25.4315   -9.3828  -15.6702 N   0  0  0  0  0  0  0  0  0  0  0  0
   21.2100   -6.9356  -15.6062 C   0  0  0  0  0  0  0  0  0  0  0  0
   20.4684   -6.6461  -16.5469 O   0  0  0  0  0  0  0  0  0  0  0  0
   21.4902   -5.8832  -14.7053 O   0  0  0  0  0  0  0  0  0  0  0  0
  2  1  1  1
  2  3  1  0
  4  2  1  0
  4  5  1  6
  6  4  1  0
  6  7  2  0
  9  8  1  6
  9 11  1  0
 10  9  1  0
 11 12  1  1
 11 13  1  0
 12  6  1  0
 13 14  2  0
 13 15  1  0
 15 16  1  0
 16 17  1  6
 17 18  1  0
 18 22  1  0
 19 18  2  0
 19 20  1  0
 20 21  1  0
 22 21  2  0
 23 25  1  0
 23 16  1  0
 24 23  2  0
M  END
$$$$
