TTH.pdb
     RDKit          3D

 25 25  0  0  1  0  0  0  0  0999 V2000
   16.1811  -13.2857  -12.7901 C   0  0  0  0  0  0  0  0  0  0  0  0
   15.0367  -13.9579  -13.4805 C   0  0  1  0  0  0  0  0  0  0  0  0
   14.2677  -14.7063  -12.6015 O   0  0  0  0  0  0  0  0  0  0  0  0
   14.1474  -13.0044  -14.2313 C   0  0  2  0  0  0  0  0  0  0  0  0
   13.0195  -13.6438  -14.8371 N   0  0  0  0  0  0  0  0  0  0  0  0
   14.8599  -12.2037  -15.2300 C   0  0  0  0  0  0  0  0  0  0  0  0
   15.0826  -12.5921  -16.4155 O   0  0  0  0  0  0  0  0  0  0  0  0
   14.4244  -10.2719  -17.7011 C   0  0  0  0  0  0  0  0  0  0  0  0
   15.1910   -9.3383  -16.7890 C   0  0  1  0  0  0  0  0  0  0  0  0
   14.2262   -8.6003  -16.1008 O   0  0  0  0  0  0  0  0  0  0  0  0
   16.0949  -10.0952  -15.8460 C   0  0  2  0  0  0  0  0  0  0  0  0
   15.3548  -10.9032  -14.9063 N   0  0  0  0  0  0  0  0  0  0  0  0
   17.0030   -9.1399  -15.1881 C   0  0  0  0  0  0  0  0  0  0  0  0
   16.6680   -8.6890  -14.0596 O   0  0  0  0  0  0  0  0  0  0  0  0
   18.2178   -8.7344  -15.7969 N   0  0  0  0  0  0  0  0  0  0  0  0
   19.0391   -7.7369  -15.0958 C   0  0  1  0  0  0  0  0  0  0  0  0
   20.3734   -7.6309  -15.7683 C   0  0  0  0  0  0  0  0  0  0  0  0
   21.3156   -6.6897  -15.1693 C   0  0  0  0  0  0  0  0  0  0  0  0
   21.2584   -5.9717  -14.0189 C   0  0  0  0  0  0  0  0  0  0  0  0
   22.4250   -5.2771  -13.8634 N   0  0  0  0  0  0  0  0  0  0  0  0
   23.1857   -5.5748  -14.9151 C   0  0  0  0  0  0  0  0  0  0  0  0
   22.5435   -6.4191  -15.7113 N   0  0  0  0  0  0  0  0  0  0  0  0
   18.3539   -6.4157  -15.3390 C   0  0  0  0  0  0  0  0  0  0  0  0
   17.6771   -6.1585  -16.3363 O   0  0  0  0  0  0  0  0  0  0  0  0
   18.4644   -5.3722  -14.3922 O   0  0  0  0  0  0  0  0  0  0  0  0
  2  1  1  1
  2  3  1  0
  4  2  1  0
  4  5  1  6
  6  4  1  0
  6  7  2  0
  9  8  1  6
  9 11  1  0
 10  9  1  0
 11 12  1  1
 11 13  1  0
 12  6  1  0
 13 14  2  0
 13 15  1  0
 15 16  1  0
 16 17  1  6
 17 18  1  0
 18 22  1  0
 19 18  2  0
 19 20  1  0
 20 21  1  0
 22 21  2  0
 23 25  1  0
 23 16  1  0
 24 23  2  0
M  END
$$$$
