ELR.pdb
     RDKit          3D

 29 28  0  0  1  0  0  0  0  0999 V2000
    9.7981  -18.4290   15.8513 N   0  0  0  0  0  0  0  0  0  0  0  0
    8.7245  -18.0580   16.7006 C   0  0  1  0  0  0  0  0  0  0  0  0
    7.9806  -19.1476   17.3812 C   0  0  0  0  0  0  0  0  0  0  0  0
    8.6928  -19.6553   18.5853 C   0  0  0  0  0  0  0  0  0  0  0  0
    8.0116  -20.6700   19.3854 C   0  0  0  0  0  0  0  0  0  0  0  0
    6.8912  -21.1676   19.1793 O   0  0  0  0  0  0  0  0  0  0  0  0
    9.1709  -16.9971   17.6447 C   0  0  0  0  0  0  0  0  0  0  0  0
   10.3383  -16.5543   17.4665 O   0  0  0  0  0  0  0  0  0  0  0  0
    8.7042  -21.1374   20.5194 O   0  0  0  0  0  0  0  0  0  0  0  0
    8.0928  -12.4300   20.1682 C   0  0  0  0  0  0  0  0  0  0  0  0
    7.7832  -13.6301   21.0522 C   0  0  1  0  0  0  0  0  0  0  0  0
    6.6231  -13.2441   21.9391 C   0  0  0  0  0  0  0  0  0  0  0  0
    7.4847  -14.7886   20.1592 C   0  0  0  0  0  0  0  0  0  0  0  0
    8.6732  -15.3571   19.4454 C   0  0  2  0  0  0  0  0  0  0  0  0
    8.3304  -16.5276   18.6690 N   0  0  0  0  0  0  0  0  0  0  0  0
    9.6720  -15.7118   20.5165 C   0  0  0  0  0  0  0  0  0  0  0  0
   10.1920  -14.8130   21.2401 O   0  0  0  0  0  0  0  0  0  0  0  0
   16.3720  -17.5511   22.1485 N   0  0  0  0  0  0  0  0  0  0  0  0
   16.3671  -16.5310   23.1218 C   0  0  0  0  0  0  0  0  0  0  0  0
   17.2052  -16.6156   24.1041 N   0  0  0  0  0  0  0  0  0  0  0  0
   15.4825  -15.4277   23.0589 N   0  0  0  0  0  0  0  0  0  0  0  0
   14.3451  -15.4012   22.1748 C   0  0  0  0  0  0  0  0  0  0  0  0
   13.3419  -16.5090   22.4980 C   0  0  0  0  0  0  0  0  0  0  0  0
   12.1748  -16.3232   21.5675 C   0  0  0  0  0  0  0  0  0  0  0  0
   11.1035  -17.3684   21.7606 C   0  0  2  0  0  0  0  0  0  0  0  0
   10.0635  -17.0436   20.7541 N   0  0  0  0  0  0  0  0  0  0  0  0
   10.5312  -17.2334   23.1197 C   0  0  0  0  0  0  0  0  0  0  0  0
    9.5667  -16.2463   23.3585 O   0  0  0  0  0  0  0  0  0  0  0  0
   10.8451  -17.9422   24.0894 O   0  0  0  0  0  0  0  0  0  0  0  0
  2  1  1  1
  2  7  1  0
  2  3  1  0
  4  5  1  0
  4  3  1  0
  5  6  2  0
  7  8  2  0
  9  5  1  0
 11 13  1  0
 11 10  1  6
 12 11  1  0
 14 13  1  1
 15 14  1  0
 15  7  1  0
 16 14  1  0
 17 16  2  0
 18 19  1  0
 19 21  1  0
 20 19  2  0
 21 22  1  0
 22 23  1  0
 23 24  1  0
 25 24  1  1
 25 26  1  0
 25 27  1  0
 26 16  1  0
 27 28  1  0
 29 27  2  0
M  END
$$$$
