ELR.pdb
     RDKit          3D

 29 28  0  0  1  0  0  0  0  0999 V2000
    9.9387  -18.8126   19.0191 N   0  0  0  0  0  0  0  0  0  0  0  0
   11.0983  -17.9995   19.0955 C   0  0  1  0  0  0  0  0  0  0  0  0
   11.7337  -17.5896   17.8180 C   0  0  0  0  0  0  0  0  0  0  0  0
   11.1215  -18.2597   16.6386 C   0  0  0  0  0  0  0  0  0  0  0  0
   11.8394  -18.1653   15.3700 C   0  0  0  0  0  0  0  0  0  0  0  0
   12.1334  -17.1325   14.7435 O   0  0  0  0  0  0  0  0  0  0  0  0
   10.8475  -16.8461   20.0026 C   0  0  0  0  0  0  0  0  0  0  0  0
   11.8686  -16.2150   20.3893 O   0  0  0  0  0  0  0  0  0  0  0  0
   12.2446  -19.3840   14.7914 O   0  0  0  0  0  0  0  0  0  0  0  0
    8.5752  -13.3190   19.0977 C   0  0  0  0  0  0  0  0  0  0  0  0
    7.9203  -13.3399   20.4717 C   0  0  1  0  0  0  0  0  0  0  0  0
    6.5292  -12.7733   20.3122 C   0  0  0  0  0  0  0  0  0  0  0  0
    7.9315  -14.7505   20.9602 C   0  0  0  0  0  0  0  0  0  0  0  0
    9.2949  -15.3220   21.2052 C   0  0  2  0  0  0  0  0  0  0  0  0
    9.5448  -16.4939   20.3962 N   0  0  0  0  0  0  0  0  0  0  0  0
    9.3415  -15.6753   22.6693 C   0  0  0  0  0  0  0  0  0  0  0  0
    9.1229  -14.7975   23.5545 O   0  0  0  0  0  0  0  0  0  0  0  0
    5.6453  -22.3063   23.1634 N   0  0  0  0  0  0  0  0  0  0  0  0
    5.5790  -21.6902   24.4299 C   0  0  0  0  0  0  0  0  0  0  0  0
    4.4429  -21.6801   25.0491 N   0  0  0  0  0  0  0  0  0  0  0  0
    6.7058  -21.0880   25.0396 N   0  0  0  0  0  0  0  0  0  0  0  0
    7.8505  -20.6508   24.2817 C   0  0  0  0  0  0  0  0  0  0  0  0
    7.9681  -19.1267   24.2486 C   0  0  0  0  0  0  0  0  0  0  0  0
    9.3850  -18.7920   24.6269 C   0  0  0  0  0  0  0  0  0  0  0  0
    9.6735  -17.3125   24.5538 C   0  0  2  0  0  0  0  0  0  0  0  0
    9.6270  -16.9827   23.1084 N   0  0  0  0  0  0  0  0  0  0  0  0
   11.0365  -17.0562   25.0728 C   0  0  0  0  0  0  0  0  0  0  0  0
   11.2756  -17.1726   26.4479 O   0  0  0  0  0  0  0  0  0  0  0  0
   12.0092  -16.7384   24.3699 O   0  0  0  0  0  0  0  0  0  0  0  0
  2  1  1  6
  2  7  1  0
  2  3  1  0
  4  5  1  0
  4  3  1  0
  5  6  2  0
  7  8  2  0
  9  5  1  0
 11 13  1  0
 11 10  1  6
 12 11  1  0
 14 13  1  6
 15 14  1  0
 15  7  1  0
 16 14  1  0
 17 16  2  0
 18 19  1  0
 19 21  1  0
 20 19  2  0
 21 22  1  0
 22 23  1  0
 23 24  1  0
 25 24  1  6
 25 26  1  0
 25 27  1  0
 26 16  1  0
 27 28  1  0
 29 27  2  0
M  END
$$$$
