ELR.pdb
     RDKit          3D

 29 28  0  0  1  0  0  0  0  0999 V2000
    7.9210  -16.9670   21.0784 N   0  0  0  0  0  0  0  0  0  0  0  0
    9.2773  -16.8367   21.4720 C   0  0  1  0  0  0  0  0  0  0  0  0
   10.2623  -16.4641   20.4255 C   0  0  0  0  0  0  0  0  0  0  0  0
    9.7465  -16.7018   19.0500 C   0  0  0  0  0  0  0  0  0  0  0  0
   10.7290  -17.0006   18.0111 C   0  0  0  0  0  0  0  0  0  0  0  0
   10.5094  -17.2509   16.8134 O   0  0  0  0  0  0  0  0  0  0  0  0
    9.3721  -15.9689   22.6779 C   0  0  0  0  0  0  0  0  0  0  0  0
   10.5291  -15.8079   23.1533 O   0  0  0  0  0  0  0  0  0  0  0  0
   12.0789  -17.0053   18.4134 O   0  0  0  0  0  0  0  0  0  0  0  0
    7.8429  -11.6180   25.6720 C   0  0  0  0  0  0  0  0  0  0  0  0
    7.0760  -12.9154   25.8866 C   0  0  1  0  0  0  0  0  0  0  0  0
    5.6775  -12.5416   26.3176 C   0  0  0  0  0  0  0  0  0  0  0  0
    7.1148  -13.6843   24.6075 C   0  0  0  0  0  0  0  0  0  0  0  0
    8.3201  -14.5571   24.4329 C   0  0  2  0  0  0  0  0  0  0  0  0
    8.2312  -15.3722   23.2420 N   0  0  0  0  0  0  0  0  0  0  0  0
    8.3854  -15.4277   25.6610 C   0  0  0  0  0  0  0  0  0  0  0  0
    8.7299  -14.9452   26.7792 O   0  0  0  0  0  0  0  0  0  0  0  0
    9.2121  -22.1996   28.4647 N   0  0  0  0  0  0  0  0  0  0  0  0
    7.9385  -22.7753   28.6511 C   0  0  0  0  0  0  0  0  0  0  0  0
    7.8421  -23.8208   29.4074 N   0  0  0  0  0  0  0  0  0  0  0  0
    6.7732  -22.2506   28.0424 N   0  0  0  0  0  0  0  0  0  0  0  0
    6.8250  -21.2068   27.0505 C   0  0  0  0  0  0  0  0  0  0  0  0
    7.5148  -19.9484   27.5781 C   0  0  0  0  0  0  0  0  0  0  0  0
    7.4608  -18.9281   26.4741 C   0  0  0  0  0  0  0  0  0  0  0  0
    8.1905  -17.6538   26.8223 C   0  0  2  0  0  0  0  0  0  0  0  0
    8.0690  -16.7994   25.6159 N   0  0  0  0  0  0  0  0  0  0  0  0
    9.6185  -17.9614   27.0649 C   0  0  0  0  0  0  0  0  0  0  0  0
   10.0723  -18.0979   28.3829 O   0  0  0  0  0  0  0  0  0  0  0  0
   10.4678  -18.1121   26.1720 O   0  0  0  0  0  0  0  0  0  0  0  0
  2  1  1  6
  2  7  1  0
  2  3  1  0
  4  5  1  0
  4  3  1  0
  5  6  2  0
  7  8  2  0
  9  5  1  0
 11 13  1  0
 11 10  1  6
 12 11  1  0
 14 13  1  1
 15 14  1  0
 15  7  1  0
 16 14  1  0
 17 16  2  0
 18 19  1  0
 19 21  1  0
 20 19  2  0
 21 22  1  0
 22 23  1  0
 23 24  1  0
 25 24  1  6
 25 26  1  0
 25 27  1  0
 26 16  1  0
 27 28  1  0
 29 27  2  0
M  END
$$$$
