ELR.pdb
     RDKit          3D

 29 28  0  0  1  0  0  0  0  0999 V2000
   10.4319  -18.6262   16.1669 N   0  0  0  0  0  0  0  0  0  0  0  0
    9.3226  -18.4525   17.0334 C   0  0  1  0  0  0  0  0  0  0  0  0
    8.7732  -19.6627   17.6949 C   0  0  0  0  0  0  0  0  0  0  0  0
    8.6855  -20.8251   16.7698 C   0  0  0  0  0  0  0  0  0  0  0  0
    8.1210  -22.0620   17.3038 C   0  0  0  0  0  0  0  0  0  0  0  0
    6.9563  -22.2542   17.6937 O   0  0  0  0  0  0  0  0  0  0  0  0
    9.6025  -17.3537   17.9980 C   0  0  0  0  0  0  0  0  0  0  0  0
   10.7843  -17.2887   18.4338 O   0  0  0  0  0  0  0  0  0  0  0  0
    8.9971  -23.1620   17.3857 O   0  0  0  0  0  0  0  0  0  0  0  0
    8.8795  -12.4611   20.0587 C   0  0  0  0  0  0  0  0  0  0  0  0
    7.8754  -13.4633   20.6110 C   0  0  1  0  0  0  0  0  0  0  0  0
    6.6108  -12.7003   20.9274 C   0  0  0  0  0  0  0  0  0  0  0  0
    7.6817  -14.5279   19.5825 C   0  0  0  0  0  0  0  0  0  0  0  0
    8.8283  -15.4818   19.4390 C   0  0  2  0  0  0  0  0  0  0  0  0
    8.5992  -16.4508   18.3907 N   0  0  0  0  0  0  0  0  0  0  0  0
    8.9649  -16.1724   20.7713 C   0  0  0  0  0  0  0  0  0  0  0  0
    8.2300  -17.1593   21.0674 O   0  0  0  0  0  0  0  0  0  0  0  0
   14.6501  -21.5174   20.8954 N   0  0  0  0  0  0  0  0  0  0  0  0
   14.1217  -21.6966   22.1902 C   0  0  0  0  0  0  0  0  0  0  0  0
   14.4869  -22.7395   22.8635 N   0  0  0  0  0  0  0  0  0  0  0  0
   13.2128  -20.7800   22.7714 N   0  0  0  0  0  0  0  0  0  0  0  0
   12.6223  -19.7002   22.0222 C   0  0  0  0  0  0  0  0  0  0  0  0
   11.8182  -18.7552   22.9156 C   0  0  0  0  0  0  0  0  0  0  0  0
   11.2524  -17.6872   22.0202 C   0  0  0  0  0  0  0  0  0  0  0  0
   10.4089  -16.6850   22.7697 C   0  0  2  0  0  0  0  0  0  0  0  0
    9.9061  -15.7528   21.7314 N   0  0  0  0  0  0  0  0  0  0  0  0
   11.2661  -15.9434   23.7225 C   0  0  0  0  0  0  0  0  0  0  0  0
   12.1399  -14.9638   23.2337 O   0  0  0  0  0  0  0  0  0  0  0  0
   11.2734  -16.1240   24.9508 O   0  0  0  0  0  0  0  0  0  0  0  0
  2  1  1  1
  2  7  1  0
  2  3  1  0
  4  5  1  0
  4  3  1  0
  5  6  2  0
  7  8  2  0
  9  5  1  0
 11 13  1  0
 11 10  1  6
 12 11  1  0
 14 13  1  1
 15 14  1  0
 15  7  1  0
 16 14  1  0
 17 16  2  0
 18 19  1  0
 19 21  1  0
 20 19  2  0
 21 22  1  0
 22 23  1  0
 23 24  1  0
 25 24  1  6
 25 26  1  0
 25 27  1  0
 26 16  1  0
 27 28  1  0
 29 27  2  0
M  END
$$$$
