ELR.pdb
     RDKit          3D

 29 28  0  0  1  0  0  0  0  0999 V2000
    8.8266  -14.4691   20.4922 N   0  0  0  0  0  0  0  0  0  0  0  0
    7.9905  -14.9843   21.5155 C   0  0  1  0  0  0  0  0  0  0  0  0
    7.6841  -16.4365   21.4844 C   0  0  0  0  0  0  0  0  0  0  0  0
    7.7202  -16.9951   20.1055 C   0  0  0  0  0  0  0  0  0  0  0  0
    7.3640  -18.4028   19.9461 C   0  0  0  0  0  0  0  0  0  0  0  0
    7.0536  -19.2093   20.8397 O   0  0  0  0  0  0  0  0  0  0  0  0
    8.4850  -14.5349   22.8458 C   0  0  0  0  0  0  0  0  0  0  0  0
    9.7122  -14.2517   22.9123 O   0  0  0  0  0  0  0  0  0  0  0  0
    7.3736  -18.9024   18.6290 O   0  0  0  0  0  0  0  0  0  0  0  0
    5.2226  -12.1330   26.7822 C   0  0  0  0  0  0  0  0  0  0  0  0
    6.3415  -12.3934   25.7833 C   0  0  1  0  0  0  0  0  0  0  0  0
    7.2491  -11.1862   25.8045 C   0  0  0  0  0  0  0  0  0  0  0  0
    7.0279  -13.6561   26.1872 C   0  0  0  0  0  0  0  0  0  0  0  0
    8.1235  -14.1004   25.2666 C   0  0  2  0  0  0  0  0  0  0  0  0
    7.6237  -14.4377   23.9524 N   0  0  0  0  0  0  0  0  0  0  0  0
    8.7493  -15.3076   25.9158 C   0  0  0  0  0  0  0  0  0  0  0  0
    9.1912  -15.2496   27.1004 O   0  0  0  0  0  0  0  0  0  0  0  0
    9.5888  -23.5539   23.0001 N   0  0  0  0  0  0  0  0  0  0  0  0
   10.5080  -23.4128   24.0599 C   0  0  0  0  0  0  0  0  0  0  0  0
   10.8310  -24.4670   24.7370 N   0  0  0  0  0  0  0  0  0  0  0  0
   11.0831  -22.1657   24.4032 N   0  0  0  0  0  0  0  0  0  0  0  0
   10.4609  -20.9108   24.0652 C   0  0  0  0  0  0  0  0  0  0  0  0
   10.2980  -20.0046   25.2859 C   0  0  0  0  0  0  0  0  0  0  0  0
    9.6933  -18.7181   24.7943 C   0  0  0  0  0  0  0  0  0  0  0  0
    9.4514  -17.7260   25.9055 C   0  0  2  0  0  0  0  0  0  0  0  0
    8.8668  -16.5370   25.2388 N   0  0  0  0  0  0  0  0  0  0  0  0
   10.7475  -17.3574   26.5195 C   0  0  0  0  0  0  0  0  0  0  0  0
   11.0063  -17.7338   27.8436 O   0  0  0  0  0  0  0  0  0  0  0  0
   11.6463  -16.7259   25.9411 O   0  0  0  0  0  0  0  0  0  0  0  0
  2  1  1  6
  2  7  1  0
  2  3  1  0
  4  5  1  0
  4  3  1  0
  5  6  2  0
  7  8  2  0
  9  5  1  0
 11 13  1  0
 11 10  1  1
 12 11  1  0
 14 13  1  1
 15 14  1  0
 15  7  1  0
 16 14  1  0
 17 16  2  0
 18 19  1  0
 19 21  1  0
 20 19  2  0
 21 22  1  0
 22 23  1  0
 23 24  1  0
 25 24  1  6
 25 26  1  0
 25 27  1  0
 26 16  1  0
 27 28  1  0
 29 27  2  0
M  END
$$$$
