ELR.pdb
     RDKit          3D

 29 28  0  0  1  0  0  0  0  0999 V2000
    7.4386  -17.0585   21.3089 N   0  0  0  0  0  0  0  0  0  0  0  0
    8.7682  -16.5651   21.2922 C   0  0  1  0  0  0  0  0  0  0  0  0
    9.2587  -15.9585   20.0291 C   0  0  0  0  0  0  0  0  0  0  0  0
    8.4387  -16.3557   18.8525 C   0  0  0  0  0  0  0  0  0  0  0  0
    8.7989  -15.7753   17.5613 C   0  0  0  0  0  0  0  0  0  0  0  0
    8.3352  -14.7465   17.0400 O   0  0  0  0  0  0  0  0  0  0  0  0
    8.9955  -15.6860   22.4720 C   0  0  0  0  0  0  0  0  0  0  0  0
   10.0906  -15.0608   22.4924 O   0  0  0  0  0  0  0  0  0  0  0  0
    9.7843  -16.4603   16.8237 O   0  0  0  0  0  0  0  0  0  0  0  0
    8.1255  -11.8619   25.8598 C   0  0  0  0  0  0  0  0  0  0  0  0
    7.1641  -13.0070   26.1460 C   0  0  1  0  0  0  0  0  0  0  0  0
    5.8492  -12.3925   26.5641 C   0  0  0  0  0  0  0  0  0  0  0  0
    7.0621  -13.8361   24.9087 C   0  0  0  0  0  0  0  0  0  0  0  0
    8.2523  -14.7031   24.6310 C   0  0  2  0  0  0  0  0  0  0  0  0
    8.0376  -15.5704   23.4943 N   0  0  0  0  0  0  0  0  0  0  0  0
    8.4742  -15.5183   25.8787 C   0  0  0  0  0  0  0  0  0  0  0  0
    8.8660  -14.9693   26.9496 O   0  0  0  0  0  0  0  0  0  0  0  0
   11.3826  -20.9935   22.2277 N   0  0  0  0  0  0  0  0  0  0  0  0
   12.4581  -21.1638   23.1234 C   0  0  0  0  0  0  0  0  0  0  0  0
   13.0051  -22.3332   23.2108 N   0  0  0  0  0  0  0  0  0  0  0  0
   12.9536  -20.1056   23.9225 N   0  0  0  0  0  0  0  0  0  0  0  0
   12.2316  -18.8717   24.1016 C   0  0  0  0  0  0  0  0  0  0  0  0
   11.4061  -18.8721   25.3886 C   0  0  0  0  0  0  0  0  0  0  0  0
   10.1527  -18.0917   25.1010 C   0  0  0  0  0  0  0  0  0  0  0  0
    9.3241  -17.8439   26.3377 C   0  0  2  0  0  0  0  0  0  0  0  0
    8.2567  -16.9096   25.9044 N   0  0  0  0  0  0  0  0  0  0  0  0
   10.1656  -17.1869   27.3638 C   0  0  0  0  0  0  0  0  0  0  0  0
   10.5494  -15.8526   27.1788 O   0  0  0  0  0  0  0  0  0  0  0  0
   10.5689  -17.7368   28.4013 O   0  0  0  0  0  0  0  0  0  0  0  0
  2  1  1  6
  2  7  1  0
  2  3  1  0
  4  5  1  0
  4  3  1  0
  5  6  2  0
  7  8  2  0
  9  5  1  0
 11 13  1  0
 11 10  1  6
 12 11  1  0
 14 13  1  1
 15 14  1  0
 15  7  1  0
 16 14  1  0
 17 16  2  0
 18 19  1  0
 19 21  1  0
 20 19  2  0
 21 22  1  0
 22 23  1  0
 23 24  1  0
 25 24  1  6
 25 26  1  0
 25 27  1  0
 26 16  1  0
 27 28  1  0
 29 27  2  0
M  END
$$$$
