ELR.pdb
     RDKit          3D

 29 28  0  0  1  0  0  0  0  0999 V2000
   10.9691  -17.0442   26.2518 N   0  0  0  0  0  0  0  0  0  0  0  0
    9.9570  -17.9308   26.7004 C   0  0  1  0  0  0  0  0  0  0  0  0
    9.9762  -18.3256   28.1314 C   0  0  0  0  0  0  0  0  0  0  0  0
   11.3584  -18.5153   28.6496 C   0  0  0  0  0  0  0  0  0  0  0  0
   11.5013  -18.8381   30.0670 C   0  0  0  0  0  0  0  0  0  0  0  0
   10.5962  -19.1086   30.8751 O   0  0  0  0  0  0  0  0  0  0  0  0
    8.6225  -17.4360   26.2641 C   0  0  0  0  0  0  0  0  0  0  0  0
    7.6339  -18.1429   26.6009 O   0  0  0  0  0  0  0  0  0  0  0  0
   12.8151  -18.8435   30.5751 O   0  0  0  0  0  0  0  0  0  0  0  0
    7.4843  -12.1172   25.8690 C   0  0  0  0  0  0  0  0  0  0  0  0
    7.4008  -13.6022   26.1932 C   0  0  1  0  0  0  0  0  0  0  0  0
    6.3279  -13.7706   27.2431 C   0  0  0  0  0  0  0  0  0  0  0  0
    7.1047  -14.3296   24.9236 C   0  0  0  0  0  0  0  0  0  0  0  0
    7.2036  -15.8221   25.0143 C   0  0  2  0  0  0  0  0  0  0  0  0
    8.4883  -16.2503   25.5210 N   0  0  0  0  0  0  0  0  0  0  0  0
    6.9924  -16.3394   23.6150 C   0  0  0  0  0  0  0  0  0  0  0  0
    5.9409  -16.0540   22.9709 O   0  0  0  0  0  0  0  0  0  0  0  0
    9.6397  -12.5034   18.0564 N   0  0  0  0  0  0  0  0  0  0  0  0
    8.8638  -12.1468   19.1783 C   0  0  0  0  0  0  0  0  0  0  0  0
    9.0008  -10.9562   19.6663 N   0  0  0  0  0  0  0  0  0  0  0  0
    7.9483  -13.0418   19.7821 N   0  0  0  0  0  0  0  0  0  0  0  0
    8.0455  -14.4701   19.6192 C   0  0  0  0  0  0  0  0  0  0  0  0
    7.9491  -15.2074   20.9553 C   0  0  0  0  0  0  0  0  0  0  0  0
    8.4357  -16.6100   20.7136 C   0  0  0  0  0  0  0  0  0  0  0  0
    7.7373  -17.6269   21.5829 C   0  0  2  0  0  0  0  0  0  0  0  0
    7.9461  -17.1528   22.9727 N   0  0  0  0  0  0  0  0  0  0  0  0
    8.3896  -18.9450   21.4100 C   0  0  0  0  0  0  0  0  0  0  0  0
    8.3047  -19.5904   20.1699 O   0  0  0  0  0  0  0  0  0  0  0  0
    9.0219  -19.5395   22.2978 O   0  0  0  0  0  0  0  0  0  0  0  0
  2  1  1  1
  2  7  1  0
  2  3  1  0
  4  5  1  0
  4  3  1  0
  5  6  2  0
  7  8  2  0
  9  5  1  0
 11 13  1  0
 11 10  1  6
 12 11  1  0
 14 13  1  6
 15 14  1  0
 15  7  1  0
 16 14  1  0
 17 16  2  0
 18 19  1  0
 19 21  1  0
 20 19  2  0
 21 22  1  0
 22 23  1  0
 23 24  1  0
 25 24  1  6
 25 26  1  0
 25 27  1  0
 26 16  1  0
 27 28  1  0
 29 27  2  0
M  END
$$$$
