ELR.pdb
     RDKit          3D

 29 28  0  0  1  0  0  0  0  0999 V2000
    7.6756  -16.7660   21.1298 N   0  0  0  0  0  0  0  0  0  0  0  0
    8.9944  -16.2528   21.2248 C   0  0  1  0  0  0  0  0  0  0  0  0
    9.5565  -15.5802   20.0267 C   0  0  0  0  0  0  0  0  0  0  0  0
    8.5240  -14.8333   19.2581 C   0  0  0  0  0  0  0  0  0  0  0  0
    8.8761  -14.4084   17.9056 C   0  0  0  0  0  0  0  0  0  0  0  0
    9.9515  -14.5960   17.3108 O   0  0  0  0  0  0  0  0  0  0  0  0
    9.1275  -15.4271   22.4564 C   0  0  0  0  0  0  0  0  0  0  0  0
   10.3060  -15.1699   22.8245 O   0  0  0  0  0  0  0  0  0  0  0  0
    7.8830  -13.7062   17.1950 O   0  0  0  0  0  0  0  0  0  0  0  0
    7.9237  -11.4332   25.6949 C   0  0  0  0  0  0  0  0  0  0  0  0
    6.9600  -12.5898   25.9211 C   0  0  1  0  0  0  0  0  0  0  0  0
    5.6285  -11.9921   26.3104 C   0  0  0  0  0  0  0  0  0  0  0  0
    6.9035  -13.3886   24.6611 C   0  0  0  0  0  0  0  0  0  0  0  0
    8.1286  -14.2027   24.3754 C   0  0  2  0  0  0  0  0  0  0  0  0
    7.9978  -14.9694   23.1566 N   0  0  0  0  0  0  0  0  0  0  0  0
    8.3033  -15.1212   25.5571 C   0  0  0  0  0  0  0  0  0  0  0  0
    8.2297  -14.6762   26.7396 O   0  0  0  0  0  0  0  0  0  0  0  0
    8.7820  -22.1933   27.8812 N   0  0  0  0  0  0  0  0  0  0  0  0
    7.4363  -22.4921   28.1775 C   0  0  0  0  0  0  0  0  0  0  0  0
    7.1864  -23.5068   28.9405 N   0  0  0  0  0  0  0  0  0  0  0  0
    6.3602  -21.7243   27.6711 N   0  0  0  0  0  0  0  0  0  0  0  0
    6.5542  -20.6565   26.7234 C   0  0  0  0  0  0  0  0  0  0  0  0
    7.5038  -19.5828   27.2559 C   0  0  0  0  0  0  0  0  0  0  0  0
    7.6236  -18.5371   26.1813 C   0  0  0  0  0  0  0  0  0  0  0  0
    8.5604  -17.4164   26.5608 C   0  0  2  0  0  0  0  0  0  0  0  0
    8.5527  -16.4980   25.3962 N   0  0  0  0  0  0  0  0  0  0  0  0
    9.9238  -17.9637   26.7463 C   0  0  0  0  0  0  0  0  0  0  0  0
   10.2884  -18.4765   27.9976 O   0  0  0  0  0  0  0  0  0  0  0  0
   10.7921  -18.0058   25.8599 O   0  0  0  0  0  0  0  0  0  0  0  0
  2  1  1  6
  2  7  1  0
  2  3  1  0
  4  5  1  0
  4  3  1  0
  5  6  2  0
  7  8  2  0
  9  5  1  0
 11 13  1  0
 11 10  1  6
 12 11  1  0
 14 13  1  1
 15 14  1  0
 15  7  1  0
 16 14  1  0
 17 16  2  0
 18 19  1  0
 19 21  1  0
 20 19  2  0
 21 22  1  0
 22 23  1  0
 23 24  1  0
 25 24  1  6
 25 26  1  0
 25 27  1  0
 26 16  1  0
 27 28  1  0
 29 27  2  0
M  END
$$$$
