ELR.pdb
     RDKit          3D

 29 28  0  0  1  0  0  0  0  0999 V2000
    9.1241  -18.1810   17.8680 N   0  0  0  0  0  0  0  0  0  0  0  0
   10.4436  -17.8196   18.2419 C   0  0  1  0  0  0  0  0  0  0  0  0
   11.3690  -17.3910   17.1630 C   0  0  0  0  0  0  0  0  0  0  0  0
   10.8352  -17.6878   15.8059 C   0  0  0  0  0  0  0  0  0  0  0  0
   11.6501  -17.2802   14.6642 C   0  0  0  0  0  0  0  0  0  0  0  0
   11.2880  -16.6198   13.6752 O   0  0  0  0  0  0  0  0  0  0  0  0
   10.4011  -16.8528   19.3731 C   0  0  0  0  0  0  0  0  0  0  0  0
   11.4898  -16.6664   19.9818 O   0  0  0  0  0  0  0  0  0  0  0  0
   13.0002  -17.6814   14.6878 O   0  0  0  0  0  0  0  0  0  0  0  0
    6.4119  -12.8965   19.6162 C   0  0  0  0  0  0  0  0  0  0  0  0
    7.7826  -13.5561   19.5560 C   0  0  1  0  0  0  0  0  0  0  0  0
    8.8065  -12.4501   19.4561 C   0  0  0  0  0  0  0  0  0  0  0  0
    7.9378  -14.3963   20.7802 C   0  0  0  0  0  0  0  0  0  0  0  0
    9.1765  -15.2388   20.8137 C   0  0  2  0  0  0  0  0  0  0  0  0
    9.2110  -16.1952   19.7299 N   0  0  0  0  0  0  0  0  0  0  0  0
    9.1603  -15.9508   22.1416 C   0  0  0  0  0  0  0  0  0  0  0  0
    8.0925  -16.4621   22.5891 O   0  0  0  0  0  0  0  0  0  0  0  0
   10.8463  -21.1667   22.0031 N   0  0  0  0  0  0  0  0  0  0  0  0
   12.0952  -20.9876   21.3737 C   0  0  0  0  0  0  0  0  0  0  0  0
   12.3236  -21.6236   20.2703 N   0  0  0  0  0  0  0  0  0  0  0  0
   13.0977  -20.1418   21.9062 N   0  0  0  0  0  0  0  0  0  0  0  0
   12.8780  -19.3261   23.0734 C   0  0  0  0  0  0  0  0  0  0  0  0
   11.6065  -18.4853   22.9541 C   0  0  0  0  0  0  0  0  0  0  0  0
   11.4941  -17.6851   24.2228 C   0  0  0  0  0  0  0  0  0  0  0  0
   10.2866  -16.7800   24.2357 C   0  0  2  0  0  0  0  0  0  0  0  0
   10.3201  -16.0757   22.9308 N   0  0  0  0  0  0  0  0  0  0  0  0
   10.4299  -15.7932   25.3305 C   0  0  0  0  0  0  0  0  0  0  0  0
   10.7658  -14.4702   25.0164 O   0  0  0  0  0  0  0  0  0  0  0  0
   10.2723  -16.0500   26.5349 O   0  0  0  0  0  0  0  0  0  0  0  0
  2  1  1  6
  2  7  1  0
  2  3  1  0
  4  5  1  0
  4  3  1  0
  5  6  2  0
  7  8  2  0
  9  5  1  0
 11 13  1  0
 11 10  1  1
 12 11  1  0
 14 13  1  6
 15 14  1  0
 15  7  1  0
 16 14  1  0
 17 16  2  0
 18 19  1  0
 19 21  1  0
 20 19  2  0
 21 22  1  0
 22 23  1  0
 23 24  1  0
 25 24  1  6
 25 26  1  0
 25 27  1  0
 26 16  1  0
 27 28  1  0
 29 27  2  0
M  END
$$$$
