ELR.pdb
     RDKit          3D

 29 28  0  0  1  0  0  0  0  0999 V2000
    7.9607  -14.5725   20.2918 N   0  0  0  0  0  0  0  0  0  0  0  0
    7.4912  -15.3929   21.3492 C   0  0  1  0  0  0  0  0  0  0  0  0
    7.4638  -16.8593   21.1190 C   0  0  0  0  0  0  0  0  0  0  0  0
    6.6687  -17.2307   19.9171 C   0  0  0  0  0  0  0  0  0  0  0  0
    6.4726  -18.6553   19.6606 C   0  0  0  0  0  0  0  0  0  0  0  0
    5.8508  -19.1744   18.7176 O   0  0  0  0  0  0  0  0  0  0  0  0
    8.1820  -15.0282   22.6164 C   0  0  0  0  0  0  0  0  0  0  0  0
    9.4407  -15.1065   22.6018 O   0  0  0  0  0  0  0  0  0  0  0  0
    7.0553  -19.5412   20.5880 O   0  0  0  0  0  0  0  0  0  0  0  0
    5.7284  -11.8434   26.4169 C   0  0  0  0  0  0  0  0  0  0  0  0
    6.7023  -12.4250   25.4016 C   0  0  1  0  0  0  0  0  0  0  0  0
    7.7303  -11.3583   25.1069 C   0  0  0  0  0  0  0  0  0  0  0  0
    7.2891  -13.6644   25.9916 C   0  0  0  0  0  0  0  0  0  0  0  0
    8.1021  -14.4908   25.0422 C   0  0  2  0  0  0  0  0  0  0  0  0
    7.4610  -14.6232   23.7531 N   0  0  0  0  0  0  0  0  0  0  0  0
    8.2568  -15.8412   25.6926 C   0  0  0  0  0  0  0  0  0  0  0  0
    7.5770  -16.8325   25.2963 O   0  0  0  0  0  0  0  0  0  0  0  0
   11.1160  -21.1663   24.0818 N   0  0  0  0  0  0  0  0  0  0  0  0
   12.0425  -20.4137   23.3314 C   0  0  0  0  0  0  0  0  0  0  0  0
   11.9741  -20.4664   22.0403 N   0  0  0  0  0  0  0  0  0  0  0  0
   13.0359  -19.6098   23.9403 N   0  0  0  0  0  0  0  0  0  0  0  0
   12.7096  -18.4939   24.7914 C   0  0  0  0  0  0  0  0  0  0  0  0
   11.2301  -18.1185   24.7024 C   0  0  0  0  0  0  0  0  0  0  0  0
   11.0321  -16.9192   25.5884 C   0  0  0  0  0  0  0  0  0  0  0  0
   10.1013  -17.1957   26.7437 C   0  0  2  0  0  0  0  0  0  0  0  0
    9.1548  -16.0538   26.7566 N   0  0  0  0  0  0  0  0  0  0  0  0
   10.8788  -17.2038   28.0040 C   0  0  0  0  0  0  0  0  0  0  0  0
   11.1459  -18.4266   28.6326 O   0  0  0  0  0  0  0  0  0  0  0  0
   11.3246  -16.1888   28.5628 O   0  0  0  0  0  0  0  0  0  0  0  0
  2  1  1  6
  2  7  1  0
  2  3  1  0
  4  5  1  0
  4  3  1  0
  5  6  2  0
  7  8  2  0
  9  5  1  0
 11 13  1  0
 11 10  1  1
 12 11  1  0
 14 13  1  1
 15 14  1  0
 15  7  1  0
 16 14  1  0
 17 16  2  0
 18 19  1  0
 19 21  1  0
 20 19  2  0
 21 22  1  0
 22 23  1  0
 23 24  1  0
 25 24  1  6
 25 26  1  0
 25 27  1  0
 26 16  1  0
 27 28  1  0
 29 27  2  0
M  END
$$$$
