ELR.pdb
     RDKit          3D

 29 28  0  0  1  0  0  0  0  0999 V2000
   -3.3126  -25.2938   22.3722 N   0  0  0  0  0  0  0  0  0  0  0  0
   -2.5872  -25.3308   23.5904 C   0  0  1  0  0  0  0  0  0  0  0  0
   -1.1063  -25.2670   23.5089 C   0  0  0  0  0  0  0  0  0  0  0  0
   -0.6245  -25.0048   22.1255 C   0  0  0  0  0  0  0  0  0  0  0  0
    0.8139  -24.8289   21.9417 C   0  0  0  0  0  0  0  0  0  0  0  0
    1.6834  -24.7425   22.8260 O   0  0  0  0  0  0  0  0  0  0  0  0
   -3.1486  -24.3339   24.5429 C   0  0  0  0  0  0  0  0  0  0  0  0
   -2.6923  -24.3745   25.7179 O   0  0  0  0  0  0  0  0  0  0  0  0
    1.2665  -24.7483   20.6102 O   0  0  0  0  0  0  0  0  0  0  0  0
   -5.3961  -19.4093   22.9635 C   0  0  0  0  0  0  0  0  0  0  0  0
   -4.5286  -20.4375   23.6762 C   0  0  1  0  0  0  0  0  0  0  0  0
   -3.5865  -19.6777   24.5798 C   0  0  0  0  0  0  0  0  0  0  0  0
   -5.4357  -21.3655   24.4142 C   0  0  0  0  0  0  0  0  0  0  0  0
   -4.7490  -22.5124   25.0912 C   0  0  2  0  0  0  0  0  0  0  0  0
   -4.1287  -23.4094   24.1420 N   0  0  0  0  0  0  0  0  0  0  0  0
   -5.8157  -23.2330   25.8744 C   0  0  0  0  0  0  0  0  0  0  0  0
   -6.7640  -23.8265   25.2826 O   0  0  0  0  0  0  0  0  0  0  0  0
   -5.1943  -29.7550   31.0305 N   0  0  0  0  0  0  0  0  0  0  0  0
   -6.5013  -29.3154   31.3242 C   0  0  0  0  0  0  0  0  0  0  0  0
   -7.2504  -30.0677   32.0640 N   0  0  0  0  0  0  0  0  0  0  0  0
   -7.0151  -28.0885   30.8398 N   0  0  0  0  0  0  0  0  0  0  0  0
   -6.2405  -27.2034   30.0075 C   0  0  0  0  0  0  0  0  0  0  0  0
   -7.0600  -26.0059   29.5258 C   0  0  0  0  0  0  0  0  0  0  0  0
   -6.1483  -25.1727   28.6672 C   0  0  0  0  0  0  0  0  0  0  0  0
   -6.8545  -23.9970   28.0375 C   0  0  2  0  0  0  0  0  0  0  0  0
   -5.8015  -23.2755   27.2822 N   0  0  0  0  0  0  0  0  0  0  0  0
   -7.3830  -23.1178   29.1055 C   0  0  0  0  0  0  0  0  0  0  0  0
   -8.6382  -23.3979   29.6604 O   0  0  0  0  0  0  0  0  0  0  0  0
   -6.7887  -22.1273   29.5605 O   0  0  0  0  0  0  0  0  0  0  0  0
  2  1  1  6
  2  7  1  0
  2  3  1  0
  4  5  1  0
  4  3  1  0
  5  6  2  0
  7  8  2  0
  9  5  1  0
 11 13  1  0
 11 10  1  1
 12 11  1  0
 14 13  1  6
 15 14  1  0
 15  7  1  0
 16 14  1  0
 17 16  2  0
 18 19  1  0
 19 21  1  0
 20 19  2  0
 21 22  1  0
 22 23  1  0
 23 24  1  0
 25 24  1  1
 25 26  1  0
 25 27  1  0
 26 16  1  0
 27 28  1  0
 29 27  2  0
M  END
$$$$
