ELR.pdb
     RDKit          3D

 29 28  0  0  1  0  0  0  0  0999 V2000
   11.2506  -18.0837   18.7800 N   0  0  0  0  0  0  0  0  0  0  0  0
   10.0084  -17.9850   19.4574 C   0  0  1  0  0  0  0  0  0  0  0  0
    9.4895  -19.2081   20.1197 C   0  0  0  0  0  0  0  0  0  0  0  0
    9.5490  -20.4023   19.2337 C   0  0  0  0  0  0  0  0  0  0  0  0
    9.1358  -21.6805   19.8076 C   0  0  0  0  0  0  0  0  0  0  0  0
    8.7889  -21.9051   20.9801 O   0  0  0  0  0  0  0  0  0  0  0  0
   10.0216  -16.8067   20.3671 C   0  0  0  0  0  0  0  0  0  0  0  0
   11.1278  -16.5412   20.9115 O   0  0  0  0  0  0  0  0  0  0  0  0
    9.1300  -22.7837   18.9318 O   0  0  0  0  0  0  0  0  0  0  0  0
    6.1502  -12.8064   19.8835 C   0  0  0  0  0  0  0  0  0  0  0  0
    7.5016  -13.5044   19.9467 C   0  0  1  0  0  0  0  0  0  0  0  0
    8.5496  -12.4838   19.5706 C   0  0  0  0  0  0  0  0  0  0  0  0
    7.6713  -14.0442   21.3282 C   0  0  0  0  0  0  0  0  0  0  0  0
    8.8646  -14.9306   21.5166 C   0  0  2  0  0  0  0  0  0  0  0  0
    8.8621  -16.0457   20.5963 N   0  0  0  0  0  0  0  0  0  0  0  0
    8.7969  -15.4237   22.9388 C   0  0  0  0  0  0  0  0  0  0  0  0
    8.8530  -14.6126   23.9088 O   0  0  0  0  0  0  0  0  0  0  0  0
    4.9084  -22.5239   26.1900 N   0  0  0  0  0  0  0  0  0  0  0  0
    5.7330  -22.0872   27.2470 C   0  0  0  0  0  0  0  0  0  0  0  0
    5.5862  -22.6387   28.4083 N   0  0  0  0  0  0  0  0  0  0  0  0
    6.7070  -21.0737   27.0793 N   0  0  0  0  0  0  0  0  0  0  0  0
    6.8369  -20.3244   25.8556 C   0  0  0  0  0  0  0  0  0  0  0  0
    8.0305  -19.3696   25.8920 C   0  0  0  0  0  0  0  0  0  0  0  0
    8.0779  -18.6822   24.5549 C   0  0  0  0  0  0  0  0  0  0  0  0
    8.5686  -17.2581   24.6489 C   0  0  2  0  0  0  0  0  0  0  0  0
    8.6694  -16.7927   23.2442 N   0  0  0  0  0  0  0  0  0  0  0  0
    9.9137  -17.2468   25.2682 C   0  0  0  0  0  0  0  0  0  0  0  0
   11.0418  -17.3934   24.4510 O   0  0  0  0  0  0  0  0  0  0  0  0
   10.1281  -17.1145   26.4838 O   0  0  0  0  0  0  0  0  0  0  0  0
  2  1  1  1
  2  7  1  0
  2  3  1  0
  4  5  1  0
  4  3  1  0
  5  6  2  0
  7  8  2  0
  9  5  1  0
 11 13  1  0
 11 10  1  1
 12 11  1  0
 14 13  1  6
 15 14  1  0
 15  7  1  0
 16 14  1  0
 17 16  2  0
 18 19  1  0
 19 21  1  0
 20 19  2  0
 21 22  1  0
 22 23  1  0
 23 24  1  0
 25 24  1  6
 25 26  1  0
 25 27  1  0
 26 16  1  0
 27 28  1  0
 29 27  2  0
M  END
$$$$
