ELR.pdb
     RDKit          3D

 29 28  0  0  1  0  0  0  0  0999 V2000
    8.4831  -17.6332   16.8340 N   0  0  0  0  0  0  0  0  0  0  0  0
    9.8699  -17.3505   16.9260 C   0  0  1  0  0  0  0  0  0  0  0  0
   10.5305  -16.7630   15.7334 C   0  0  0  0  0  0  0  0  0  0  0  0
   10.2462  -17.5310   14.4907 C   0  0  0  0  0  0  0  0  0  0  0  0
   10.8364  -17.0352   13.2499 C   0  0  0  0  0  0  0  0  0  0  0  0
   11.5768  -16.0468   13.1078 O   0  0  0  0  0  0  0  0  0  0  0  0
   10.1466  -16.5785   18.1685 C   0  0  0  0  0  0  0  0  0  0  0  0
   11.3552  -16.5183   18.5239 O   0  0  0  0  0  0  0  0  0  0  0  0
   10.5312  -17.7607   12.0817 O   0  0  0  0  0  0  0  0  0  0  0  0
    6.4982  -12.7588   20.0377 C   0  0  0  0  0  0  0  0  0  0  0  0
    7.8063  -13.3713   19.5569 C   0  0  1  0  0  0  0  0  0  0  0  0
    8.8039  -12.2451   19.4222 C   0  0  0  0  0  0  0  0  0  0  0  0
    8.2159  -14.4081   20.5497 C   0  0  0  0  0  0  0  0  0  0  0  0
    9.3745  -15.2604   20.1296 C   0  0  2  0  0  0  0  0  0  0  0  0
    9.1122  -15.9598   18.8917 N   0  0  0  0  0  0  0  0  0  0  0  0
    9.5971  -16.2427   21.2504 C   0  0  0  0  0  0  0  0  0  0  0  0
    8.7354  -17.1317   21.5129 O   0  0  0  0  0  0  0  0  0  0  0  0
   15.3561  -18.9063   20.4399 N   0  0  0  0  0  0  0  0  0  0  0  0
   15.7621  -19.6449   21.5703 C   0  0  0  0  0  0  0  0  0  0  0  0
   16.8045  -20.4044   21.4655 N   0  0  0  0  0  0  0  0  0  0  0  0
   15.0717  -19.5823   22.8045 N   0  0  0  0  0  0  0  0  0  0  0  0
   13.6617  -19.8577   22.9138 C   0  0  0  0  0  0  0  0  0  0  0  0
   12.9269  -18.7792   23.7104 C   0  0  0  0  0  0  0  0  0  0  0  0
   12.4205  -17.7724   22.7141 C   0  0  0  0  0  0  0  0  0  0  0  0
   11.0345  -17.2739   23.0426 C   0  0  2  0  0  0  0  0  0  0  0  0
   10.7608  -16.2126   22.0433 N   0  0  0  0  0  0  0  0  0  0  0  0
   11.0394  -16.6815   24.3998 C   0  0  0  0  0  0  0  0  0  0  0  0
   11.0688  -17.5297   25.5140 O   0  0  0  0  0  0  0  0  0  0  0  0
   11.0191  -15.4629   24.6362 O   0  0  0  0  0  0  0  0  0  0  0  0
  2  1  1  6
  2  7  1  0
  2  3  1  0
  4  5  1  0
  4  3  1  0
  5  6  2  0
  7  8  2  0
  9  5  1  0
 11 13  1  0
 11 10  1  1
 12 11  1  0
 14 13  1  1
 15 14  1  0
 15  7  1  0
 16 14  1  0
 17 16  2  0
 18 19  1  0
 19 21  1  0
 20 19  2  0
 21 22  1  0
 22 23  1  0
 23 24  1  0
 25 24  1  6
 25 26  1  0
 25 27  1  0
 26 16  1  0
 27 28  1  0
 29 27  2  0
M  END
$$$$
