HDE.pdb
     RDKit          3D

 28 28  0  0  1  0  0  0  0  0999 V2000
    8.5861  -13.4826   17.3689 N   0  0  0  0  0  0  0  0  0  0  0  0
    9.8288  -13.2367   18.0428 C   0  0  1  0  0  0  0  0  0  0  0  0
    9.5548  -12.7222   19.4455 C   0  0  0  0  0  0  0  0  0  0  0  0
    8.4932  -13.5771   20.0405 C   0  0  0  0  0  0  0  0  0  0  0  0
    8.0205  -13.4976   21.3448 C   0  0  0  0  0  0  0  0  0  0  0  0
    7.0661  -14.4271   21.5246 N   0  0  0  0  0  0  0  0  0  0  0  0
    6.9211  -15.0920   20.3739 C   0  0  0  0  0  0  0  0  0  0  0  0
    7.7890  -14.5786   19.4643 N   0  0  0  0  0  0  0  0  0  0  0  0
   10.7279  -14.4571   18.0817 C   0  0  0  0  0  0  0  0  0  0  0  0
   10.5490  -15.3078   17.2252 O   0  0  0  0  0  0  0  0  0  0  0  0
   11.7160  -14.5700   19.0777 N   0  0  0  0  0  0  0  0  0  0  0  0
   12.7512  -15.5067   19.2576 C   0  0  1  0  0  0  0  0  0  0  0  0
   13.6914  -15.7441   18.0746 C   0  0  0  0  0  0  0  0  0  0  0  0
   14.5728  -16.9156   18.2405 C   0  0  0  0  0  0  0  0  0  0  0  0
   14.2286  -17.9289   18.8950 O   0  0  0  0  0  0  0  0  0  0  0  0
   13.5631  -15.3688   20.4757 C   0  0  0  0  0  0  0  0  0  0  0  0
   14.2096  -14.2861   20.6645 O   0  0  0  0  0  0  0  0  0  0  0  0
   15.8577  -16.9579   17.6616 O   0  0  0  0  0  0  0  0  0  0  0  0
   13.6860  -16.3609   21.4733 N   0  0  0  0  0  0  0  0  0  0  0  0
   13.9969  -16.0948   22.8702 C   0  0  1  0  0  0  0  0  0  0  0  0
   12.9756  -16.6154   23.8023 C   0  0  0  0  0  0  0  0  0  0  0  0
   13.1655  -16.5001   25.2518 C   0  0  0  0  0  0  0  0  0  0  0  0
   12.1110  -16.9445   26.1576 C   0  0  0  0  0  0  0  0  0  0  0  0
   10.9666  -17.3298   25.8329 O   0  0  0  0  0  0  0  0  0  0  0  0
   15.3881  -16.3930   23.1555 C   0  0  0  0  0  0  0  0  0  0  0  0
   16.0606  -17.1591   22.4100 O   0  0  0  0  0  0  0  0  0  0  0  0
   12.3345  -16.9677   27.5527 O   0  0  0  0  0  0  0  0  0  0  0  0
   16.0291  -15.8471   24.2588 O   0  0  0  0  0  0  0  0  0  0  0  0
  2  1  1  1
  2  9  1  0
  2  3  1  0
  3  4  1  0
  4  5  2  0
  5  6  1  0
  7  6  1  0
  8  4  1  0
  8  7  2  0
  9 11  1  0
 10  9  2  0
 11 12  1  0
 12 16  1  0
 13 14  1  0
 12 13  1  6
 14 18  1  0
 15 14  2  0
 16 17  2  0
 19 16  1  0
 19 20  1  0
 20 25  1  0
 20 21  1  1
 22 21  1  0
 23 24  2  0
 23 22  1  0
 25 26  2  0
 25 28  1  0
 27 23  1  0
M  END
$$$$
