HDE.pdb
     RDKit          3D

 28 28  0  0  1  0  0  0  0  0999 V2000
    7.7768  -17.3029   20.2074 N   0  0  0  0  0  0  0  0  0  0  0  0
    9.0069  -16.6484   20.5502 C   0  0  1  0  0  0  0  0  0  0  0  0
    8.7267  -15.5106   21.5168 C   0  0  0  0  0  0  0  0  0  0  0  0
    8.1527  -14.3841   20.7338 C   0  0  0  0  0  0  0  0  0  0  0  0
    7.9775  -14.3572   19.3556 C   0  0  0  0  0  0  0  0  0  0  0  0
    7.4352  -13.1786   19.0036 N   0  0  0  0  0  0  0  0  0  0  0  0
    7.2623  -12.4593   20.1171 C   0  0  0  0  0  0  0  0  0  0  0  0
    7.6983  -13.1888   21.1763 N   0  0  0  0  0  0  0  0  0  0  0  0
   10.0396  -17.6002   21.1218 C   0  0  0  0  0  0  0  0  0  0  0  0
    9.6545  -18.4044   21.9550 O   0  0  0  0  0  0  0  0  0  0  0  0
   11.3763  -17.5302   20.6863 N   0  0  0  0  0  0  0  0  0  0  0  0
   12.5373  -18.1831   21.1416 C   0  0  1  0  0  0  0  0  0  0  0  0
   13.7514  -18.1781   20.2112 C   0  0  0  0  0  0  0  0  0  0  0  0
   13.4544  -18.6425   18.8426 C   0  0  0  0  0  0  0  0  0  0  0  0
   12.9943  -19.7850   18.6050 O   0  0  0  0  0  0  0  0  0  0  0  0
   12.9918  -17.8524   22.5002 C   0  0  0  0  0  0  0  0  0  0  0  0
   12.5895  -16.7678   23.0364 O   0  0  0  0  0  0  0  0  0  0  0  0
   13.6703  -17.8151   17.7215 O   0  0  0  0  0  0  0  0  0  0  0  0
   13.8566  -18.6576   23.2739 N   0  0  0  0  0  0  0  0  0  0  0  0
   14.1947  -18.4059   24.6672 C   0  0  1  0  0  0  0  0  0  0  0  0
   13.0365  -17.9758   25.4777 C   0  0  0  0  0  0  0  0  0  0  0  0
   11.7766  -18.7244   25.4282 C   0  0  0  0  0  0  0  0  0  0  0  0
   10.7545  -18.4893   26.4431 C   0  0  0  0  0  0  0  0  0  0  0  0
    9.5904  -18.9460   26.4444 O   0  0  0  0  0  0  0  0  0  0  0  0
   15.0332  -19.4661   25.1948 C   0  0  0  0  0  0  0  0  0  0  0  0
   15.5225  -19.3980   26.3570 O   0  0  0  0  0  0  0  0  0  0  0  0
   11.0376  -17.6753   27.5628 O   0  0  0  0  0  0  0  0  0  0  0  0
   15.3280  -20.5930   24.4401 O   0  0  0  0  0  0  0  0  0  0  0  0
  2  1  1  1
  2  9  1  0
  2  3  1  0
  3  4  1  0
  4  5  2  0
  5  6  1  0
  7  6  1  0
  8  4  1  0
  8  7  2  0
  9 11  1  0
 10  9  2  0
 11 12  1  0
 12 16  1  0
 13 14  1  0
 12 13  1  6
 14 18  1  0
 15 14  2  0
 16 17  2  0
 19 16  1  0
 19 20  1  0
 20 25  1  0
 20 21  1  1
 22 21  1  0
 23 24  2  0
 23 22  1  0
 25 26  2  0
 25 28  1  0
 27 23  1  0
M  END
$$$$
