HDE.pdb
     RDKit          3D

 28 28  0  0  1  0  0  0  0  0999 V2000
    9.8377  -15.7635   17.1450 N   0  0  0  0  0  0  0  0  0  0  0  0
   10.6758  -14.8443   17.8605 C   0  0  1  0  0  0  0  0  0  0  0  0
    9.9329  -14.3179   19.0763 C   0  0  0  0  0  0  0  0  0  0  0  0
    8.7149  -13.6153   18.5919 C   0  0  0  0  0  0  0  0  0  0  0  0
    8.3569  -13.4308   17.2619 C   0  0  0  0  0  0  0  0  0  0  0  0
    7.1978  -12.7520   17.2081 N   0  0  0  0  0  0  0  0  0  0  0  0
    6.8122  -12.5014   18.4633 C   0  0  0  0  0  0  0  0  0  0  0  0
    7.7334  -13.0252   19.3125 N   0  0  0  0  0  0  0  0  0  0  0  0
   12.0057  -15.4520   18.2621 C   0  0  0  0  0  0  0  0  0  0  0  0
   12.0314  -16.6566   18.4561 O   0  0  0  0  0  0  0  0  0  0  0  0
   13.1412  -14.6310   18.3956 N   0  0  0  0  0  0  0  0  0  0  0  0
   14.4350  -14.9057   18.8775 C   0  0  1  0  0  0  0  0  0  0  0  0
   15.6115  -14.3373   18.0821 C   0  0  0  0  0  0  0  0  0  0  0  0
   15.5912  -14.6962   16.6511 C   0  0  0  0  0  0  0  0  0  0  0  0
   15.4189  -13.8445   15.7464 O   0  0  0  0  0  0  0  0  0  0  0  0
   14.6754  -14.6542   20.3060 C   0  0  0  0  0  0  0  0  0  0  0  0
   13.9805  -13.7649   20.8994 O   0  0  0  0  0  0  0  0  0  0  0  0
   15.7714  -16.0276   16.2235 O   0  0  0  0  0  0  0  0  0  0  0  0
   15.6349  -15.3335   21.0888 N   0  0  0  0  0  0  0  0  0  0  0  0
   15.7359  -15.2400   22.5378 C   0  0  1  0  0  0  0  0  0  0  0  0
   14.4492  -15.4713   23.2263 C   0  0  0  0  0  0  0  0  0  0  0  0
   13.7716  -16.7672   23.1182 C   0  0  0  0  0  0  0  0  0  0  0  0
   12.6636  -17.0819   24.0144 C   0  0  0  0  0  0  0  0  0  0  0  0
   12.4142  -16.5308   25.1088 O   0  0  0  0  0  0  0  0  0  0  0  0
   16.9007  -15.9576   23.0217 C   0  0  0  0  0  0  0  0  0  0  0  0
   17.5436  -16.7449   22.2723 O   0  0  0  0  0  0  0  0  0  0  0  0
   11.7420  -18.0984   23.6767 O   0  0  0  0  0  0  0  0  0  0  0  0
   17.3492  -15.8046   24.3262 O   0  0  0  0  0  0  0  0  0  0  0  0
  2  1  1  1
  2  9  1  0
  2  3  1  0
  3  4  1  0
  4  5  2  0
  5  6  1  0
  7  6  1  0
  8  4  1  0
  8  7  2  0
  9 11  1  0
 10  9  2  0
 11 12  1  0
 12 16  1  0
 13 14  1  0
 12 13  1  6
 14 18  1  0
 15 14  2  0
 16 17  2  0
 19 16  1  0
 19 20  1  0
 20 25  1  0
 20 21  1  1
 22 21  1  0
 23 24  2  0
 23 22  1  0
 25 26  2  0
 25 28  1  0
 27 23  1  0
M  END
$$$$
