HDE.pdb
     RDKit          3D

 28 28  0  0  1  0  0  0  0  0999 V2000
   12.7793  -18.3311   19.2842 N   0  0  0  0  0  0  0  0  0  0  0  0
   11.9144  -19.1110   20.1227 C   0  0  1  0  0  0  0  0  0  0  0  0
   12.2383  -20.5857   19.9573 C   0  0  0  0  0  0  0  0  0  0  0  0
   12.0035  -20.9426   18.5328 C   0  0  0  0  0  0  0  0  0  0  0  0
   10.8310  -20.7200   17.8210 C   0  0  0  0  0  0  0  0  0  0  0  0
   10.9853  -21.1745   16.5653 N   0  0  0  0  0  0  0  0  0  0  0  0
   12.2194  -21.6779   16.4615 C   0  0  0  0  0  0  0  0  0  0  0  0
   12.8459  -21.5399   17.6585 N   0  0  0  0  0  0  0  0  0  0  0  0
   11.9856  -18.7030   21.5814 C   0  0  0  0  0  0  0  0  0  0  0  0
   13.0668  -18.3236   22.0011 O   0  0  0  0  0  0  0  0  0  0  0  0
   10.8333  -18.7719   22.3868 N   0  0  0  0  0  0  0  0  0  0  0  0
   10.6122  -18.3992   23.7261 C   0  0  1  0  0  0  0  0  0  0  0  0
    9.3102  -17.6600   24.0392 C   0  0  0  0  0  0  0  0  0  0  0  0
    8.7914  -16.8640   22.9105 C   0  0  0  0  0  0  0  0  0  0  0  0
    9.5421  -16.2088   22.1484 O   0  0  0  0  0  0  0  0  0  0  0  0
   10.8107  -19.4418   24.7437 C   0  0  0  0  0  0  0  0  0  0  0  0
    9.9681  -20.3957   24.8192 O   0  0  0  0  0  0  0  0  0  0  0  0
    7.4119  -16.8028   22.6254 O   0  0  0  0  0  0  0  0  0  0  0  0
   11.8827  -19.4706   25.6628 N   0  0  0  0  0  0  0  0  0  0  0  0
   12.0797  -20.5018   26.6711 C   0  0  1  0  0  0  0  0  0  0  0  0
   13.4890  -20.9266   26.8002 C   0  0  0  0  0  0  0  0  0  0  0  0
   14.5750  -20.0320   26.3872 C   0  0  0  0  0  0  0  0  0  0  0  0
   15.8754  -20.5894   26.0291 C   0  0  0  0  0  0  0  0  0  0  0  0
   16.8180  -20.8378   26.8123 O   0  0  0  0  0  0  0  0  0  0  0  0
   11.3559  -20.1801   27.8870 C   0  0  0  0  0  0  0  0  0  0  0  0
   11.3095  -20.9890   28.8557 O   0  0  0  0  0  0  0  0  0  0  0  0
   16.1685  -20.9036   24.6830 O   0  0  0  0  0  0  0  0  0  0  0  0
   10.6882  -18.9717   28.0283 O   0  0  0  0  0  0  0  0  0  0  0  0
  2  1  1  6
  2  9  1  0
  2  3  1  0
  3  4  1  0
  4  5  2  0
  5  6  1  0
  7  6  1  0
  8  4  1  0
  8  7  2  0
  9 11  1  0
 10  9  2  0
 11 12  1  0
 12 16  1  0
 13 14  1  0
 12 13  1  6
 14 18  1  0
 15 14  2  0
 16 17  2  0
 19 16  1  0
 19 20  1  0
 20 25  1  0
 20 21  1  1
 22 21  1  0
 23 24  2  0
 23 22  1  0
 25 26  2  0
 25 28  1  0
 27 23  1  0
M  END
$$$$
