HDE.pdb
     RDKit          3D

 28 28  0  0  1  0  0  0  0  0999 V2000
   10.6273  -13.1454   18.3438 N   0  0  0  0  0  0  0  0  0  0  0  0
   10.4059  -14.2502   19.2324 C   0  0  1  0  0  0  0  0  0  0  0  0
    9.3217  -15.1506   18.6657 C   0  0  0  0  0  0  0  0  0  0  0  0
    8.1273  -14.3058   18.3984 C   0  0  0  0  0  0  0  0  0  0  0  0
    7.4453  -13.5409   19.3370 C   0  0  0  0  0  0  0  0  0  0  0  0
    6.4197  -12.9153   18.7337 N   0  0  0  0  0  0  0  0  0  0  0  0
    6.4323  -13.2613   17.4425 C   0  0  0  0  0  0  0  0  0  0  0  0
    7.4715  -14.1098   17.2313 N   0  0  0  0  0  0  0  0  0  0  0  0
   11.6695  -15.0394   19.5152 C   0  0  0  0  0  0  0  0  0  0  0  0
   11.5562  -16.0470   20.1942 O   0  0  0  0  0  0  0  0  0  0  0  0
   12.9029  -14.5985   18.9998 N   0  0  0  0  0  0  0  0  0  0  0  0
   14.2114  -15.0863   19.1765 C   0  0  1  0  0  0  0  0  0  0  0  0
   15.2694  -14.6268   18.1719 C   0  0  0  0  0  0  0  0  0  0  0  0
   15.0154  -15.0798   16.7909 C   0  0  0  0  0  0  0  0  0  0  0  0
   14.6655  -16.2540   16.5219 O   0  0  0  0  0  0  0  0  0  0  0  0
   14.7787  -14.9819   20.5290 C   0  0  0  0  0  0  0  0  0  0  0  0
   15.3414  -13.8920   20.8773 O   0  0  0  0  0  0  0  0  0  0  0  0
   15.1497  -14.2055   15.6930 O   0  0  0  0  0  0  0  0  0  0  0  0
   14.7493  -16.0144   21.4922 N   0  0  0  0  0  0  0  0  0  0  0  0
   15.1425  -15.8573   22.8848 C   0  0  1  0  0  0  0  0  0  0  0  0
   14.2065  -16.5016   23.8293 C   0  0  0  0  0  0  0  0  0  0  0  0
   12.7595  -16.3113   23.6867 C   0  0  0  0  0  0  0  0  0  0  0  0
   11.8480  -16.9631   24.6216 C   0  0  0  0  0  0  0  0  0  0  0  0
   11.9829  -18.1030   25.1177 O   0  0  0  0  0  0  0  0  0  0  0  0
   16.5601  -16.1178   23.0536 C   0  0  0  0  0  0  0  0  0  0  0  0
   17.1472  -15.8682   24.1435 O   0  0  0  0  0  0  0  0  0  0  0  0
   10.6770  -16.3001   25.0527 O   0  0  0  0  0  0  0  0  0  0  0  0
   17.3214  -16.6501   22.0225 O   0  0  0  0  0  0  0  0  0  0  0  0
  2  1  1  6
  2  9  1  0
  2  3  1  0
  3  4  1  0
  4  5  2  0
  5  6  1  0
  7  6  1  0
  8  4  1  0
  8  7  2  0
  9 11  1  0
 10  9  2  0
 11 12  1  0
 12 16  1  0
 13 14  1  0
 12 13  1  6
 14 18  1  0
 15 14  2  0
 16 17  2  0
 19 16  1  0
 19 20  1  0
 20 25  1  0
 20 21  1  1
 22 21  1  0
 23 24  2  0
 23 22  1  0
 25 26  2  0
 25 28  1  0
 27 23  1  0
M  END
$$$$
