HDE.pdb
     RDKit          3D

 28 28  0  0  1  0  0  0  0  0999 V2000
    9.8575  -15.6943   18.0228 N   0  0  0  0  0  0  0  0  0  0  0  0
   10.8018  -14.7060   18.4596 C   0  0  1  0  0  0  0  0  0  0  0  0
   10.2005  -13.8924   19.5926 C   0  0  0  0  0  0  0  0  0  0  0  0
    8.9464  -13.2729   19.0875 C   0  0  0  0  0  0  0  0  0  0  0  0
    8.4726  -13.3427   17.7830 C   0  0  0  0  0  0  0  0  0  0  0  0
    7.3152  -12.6642   17.6981 N   0  0  0  0  0  0  0  0  0  0  0  0
    7.0428  -12.1673   18.9089 C   0  0  0  0  0  0  0  0  0  0  0  0
    8.0342  -12.5348   19.7612 N   0  0  0  0  0  0  0  0  0  0  0  0
   12.1317  -15.3060   18.8727 C   0  0  0  0  0  0  0  0  0  0  0  0
   12.1123  -16.4319   19.3430 O   0  0  0  0  0  0  0  0  0  0  0  0
   13.3178  -14.5666   18.7060 N   0  0  0  0  0  0  0  0  0  0  0  0
   14.6275  -14.7943   19.1689 C   0  0  1  0  0  0  0  0  0  0  0  0
   15.7586  -14.0496   18.4578 C   0  0  0  0  0  0  0  0  0  0  0  0
   15.9415  -14.4497   17.0494 C   0  0  0  0  0  0  0  0  0  0  0  0
   15.6555  -15.5982   16.6340 O   0  0  0  0  0  0  0  0  0  0  0  0
   14.8432  -14.6905   20.6196 C   0  0  0  0  0  0  0  0  0  0  0  0
   14.1581  -13.8451   21.2843 O   0  0  0  0  0  0  0  0  0  0  0  0
   16.4474  -13.5505   16.0885 O   0  0  0  0  0  0  0  0  0  0  0  0
   15.7680  -15.4690   21.3498 N   0  0  0  0  0  0  0  0  0  0  0  0
   15.8402  -15.5204   22.8028 C   0  0  1  0  0  0  0  0  0  0  0  0
   14.5392  -15.8126   23.4393 C   0  0  0  0  0  0  0  0  0  0  0  0
   13.7655  -16.9925   23.0398 C   0  0  0  0  0  0  0  0  0  0  0  0
   12.5517  -17.3435   23.7702 C   0  0  0  0  0  0  0  0  0  0  0  0
   11.6883  -18.1769   23.4185 O   0  0  0  0  0  0  0  0  0  0  0  0
   16.9929  -16.2882   23.2358 C   0  0  0  0  0  0  0  0  0  0  0  0
   17.6646  -16.9790   22.4195 O   0  0  0  0  0  0  0  0  0  0  0  0
   12.2582  -16.7201   25.0038 O   0  0  0  0  0  0  0  0  0  0  0  0
   17.3979  -16.2909   24.5632 O   0  0  0  0  0  0  0  0  0  0  0  0
  2  1  1  1
  2  9  1  0
  2  3  1  0
  3  4  1  0
  4  5  2  0
  5  6  1  0
  7  6  1  0
  8  4  1  0
  8  7  2  0
  9 11  1  0
 10  9  2  0
 11 12  1  0
 12 16  1  0
 13 14  1  0
 12 13  1  6
 14 18  1  0
 15 14  2  0
 16 17  2  0
 19 16  1  0
 19 20  1  0
 20 25  1  0
 20 21  1  6
 22 21  1  0
 23 24  2  0
 23 22  1  0
 25 26  2  0
 25 28  1  0
 27 23  1  0
M  END
$$$$
