HDE.pdb
     RDKit          3D

 28 28  0  0  1  0  0  0  0  0999 V2000
    8.6411  -16.9192   20.1909 N   0  0  0  0  0  0  0  0  0  0  0  0
    9.3308  -16.2382   21.2490 C   0  0  1  0  0  0  0  0  0  0  0  0
    8.4923  -15.0680   21.7335 C   0  0  0  0  0  0  0  0  0  0  0  0
    8.3767  -14.0999   20.6105 C   0  0  0  0  0  0  0  0  0  0  0  0
    8.9247  -14.2550   19.3429 C   0  0  0  0  0  0  0  0  0  0  0  0
    8.6168  -13.1808   18.5957 N   0  0  0  0  0  0  0  0  0  0  0  0
    7.8912  -12.3510   19.3521 C   0  0  0  0  0  0  0  0  0  0  0  0
    7.7412  -12.9056   20.5826 N   0  0  0  0  0  0  0  0  0  0  0  0
    9.6930  -17.1559   22.4005 C   0  0  0  0  0  0  0  0  0  0  0  0
    8.9340  -18.0826   22.6337 O   0  0  0  0  0  0  0  0  0  0  0  0
   10.8627  -16.9184   23.1466 N   0  0  0  0  0  0  0  0  0  0  0  0
   11.3951  -17.5731   24.2733 C   0  0  1  0  0  0  0  0  0  0  0  0
   12.7333  -18.2922   24.0952 C   0  0  0  0  0  0  0  0  0  0  0  0
   13.1502  -19.0746   25.2746 C   0  0  0  0  0  0  0  0  0  0  0  0
   14.1580  -18.7747   25.9587 O   0  0  0  0  0  0  0  0  0  0  0  0
   11.4453  -16.8014   25.5238 C   0  0  0  0  0  0  0  0  0  0  0  0
   12.1406  -15.7332   25.5597 O   0  0  0  0  0  0  0  0  0  0  0  0
   12.4265  -20.2075   25.6997 O   0  0  0  0  0  0  0  0  0  0  0  0
   10.7707  -17.1572   26.7125 N   0  0  0  0  0  0  0  0  0  0  0  0
   10.6999  -16.3240   27.9040 C   0  0  1  0  0  0  0  0  0  0  0  0
    9.5301  -15.4215   27.9133 C   0  0  0  0  0  0  0  0  0  0  0  0
    9.5097  -14.2236   27.0677 C   0  0  0  0  0  0  0  0  0  0  0  0
    8.3062  -13.4002   27.0078 C   0  0  0  0  0  0  0  0  0  0  0  0
    8.1833  -12.2323   27.4374 O   0  0  0  0  0  0  0  0  0  0  0  0
   10.9598  -17.1070   29.0978 C   0  0  0  0  0  0  0  0  0  0  0  0
   10.9774  -18.3692   29.0630 O   0  0  0  0  0  0  0  0  0  0  0  0
    7.1255  -13.9076   26.4204 O   0  0  0  0  0  0  0  0  0  0  0  0
   11.1979  -16.4959   30.3209 O   0  0  0  0  0  0  0  0  0  0  0  0
  2  1  1  6
  2  9  1  0
  2  3  1  0
  3  4  1  0
  4  5  2  0
  5  6  1  0
  7  6  1  0
  8  4  1  0
  8  7  2  0
  9 11  1  0
 10  9  2  0
 11 12  1  0
 12 16  1  0
 13 14  1  0
 12 13  1  6
 14 18  1  0
 15 14  2  0
 16 17  2  0
 19 16  1  0
 19 20  1  0
 20 25  1  0
 20 21  1  1
 22 21  1  0
 23 24  2  0
 23 22  1  0
 25 26  2  0
 25 28  1  0
 27 23  1  0
M  END
$$$$
