HDE.pdb
     RDKit          3D

 28 28  0  0  1  0  0  0  0  0999 V2000
    8.6506  -15.8925   20.5483 N   0  0  0  0  0  0  0  0  0  0  0  0
    9.3164  -14.8398   21.2608 C   0  0  1  0  0  0  0  0  0  0  0  0
    8.4291  -13.6074   21.2956 C   0  0  0  0  0  0  0  0  0  0  0  0
    8.0281  -13.3003   19.8969 C   0  0  0  0  0  0  0  0  0  0  0  0
    8.5169  -12.2562   19.1210 C   0  0  0  0  0  0  0  0  0  0  0  0
    7.9249  -12.2896   17.9145 N   0  0  0  0  0  0  0  0  0  0  0  0
    7.0765  -13.3227   17.9039 C   0  0  0  0  0  0  0  0  0  0  0  0
    7.1343  -13.9434   19.1105 N   0  0  0  0  0  0  0  0  0  0  0  0
    9.7286  -15.2477   22.6619 C   0  0  0  0  0  0  0  0  0  0  0  0
    8.9892  -14.9224   23.5766 O   0  0  0  0  0  0  0  0  0  0  0  0
   10.9200  -15.9703   22.8610 N   0  0  0  0  0  0  0  0  0  0  0  0
   11.5585  -16.4030   24.0386 C   0  0  1  0  0  0  0  0  0  0  0  0
   10.6810  -17.0515   25.1107 C   0  0  0  0  0  0  0  0  0  0  0  0
   11.3877  -17.3152   26.3787 C   0  0  0  0  0  0  0  0  0  0  0  0
   12.5772  -16.9664   26.5710 O   0  0  0  0  0  0  0  0  0  0  0  0
   12.7689  -17.2210   23.8718 C   0  0  0  0  0  0  0  0  0  0  0  0
   12.6610  -18.3797   23.3508 O   0  0  0  0  0  0  0  0  0  0  0  0
   10.7535  -17.9749   27.4513 O   0  0  0  0  0  0  0  0  0  0  0  0
   14.0678  -16.8164   24.2509 N   0  0  0  0  0  0  0  0  0  0  0  0
   15.1927  -16.6849   23.3364 C   0  0  1  0  0  0  0  0  0  0  0  0
   14.8312  -16.0335   22.0604 C   0  0  0  0  0  0  0  0  0  0  0  0
   15.8591  -15.7518   21.0533 C   0  0  0  0  0  0  0  0  0  0  0  0
   15.4955  -15.0573   19.8223 C   0  0  0  0  0  0  0  0  0  0  0  0
   14.8573  -15.5369   18.8598 O   0  0  0  0  0  0  0  0  0  0  0  0
   16.3706  -16.2018   24.0328 C   0  0  0  0  0  0  0  0  0  0  0  0
   16.2756  -15.5771   25.1262 O   0  0  0  0  0  0  0  0  0  0  0  0
   15.8682  -13.7079   19.6300 O   0  0  0  0  0  0  0  0  0  0  0  0
   17.6440  -16.4089   23.5212 O   0  0  0  0  0  0  0  0  0  0  0  0
  2  1  1  1
  2  9  1  0
  2  3  1  0
  3  4  1  0
  4  5  2  0
  5  6  1  0
  7  6  1  0
  8  4  1  0
  8  7  2  0
  9 11  1  0
 10  9  2  0
 11 12  1  0
 12 16  1  0
 13 14  1  0
 12 13  1  6
 14 18  1  0
 15 14  2  0
 16 17  2  0
 19 16  1  0
 19 20  1  0
 20 25  1  0
 20 21  1  6
 22 21  1  0
 23 24  2  0
 23 22  1  0
 25 26  2  0
 25 28  1  0
 27 23  1  0
M  END
$$$$
