HDE.pdb
     RDKit          3D

 28 28  0  0  1  0  0  0  0  0999 V2000
    8.1731  -16.4204   14.1470 N   0  0  0  0  0  0  0  0  0  0  0  0
    9.5521  -16.8106   14.0741 C   0  0  1  0  0  0  0  0  0  0  0  0
   10.4159  -15.5858   13.8267 C   0  0  0  0  0  0  0  0  0  0  0  0
    9.9827  -14.9805   12.5392 C   0  0  0  0  0  0  0  0  0  0  0  0
   10.4394  -15.3395   11.2769 C   0  0  0  0  0  0  0  0  0  0  0  0
    9.8280  -14.5769   10.3541 N   0  0  0  0  0  0  0  0  0  0  0  0
    8.9987  -13.7465   10.9943 C   0  0  0  0  0  0  0  0  0  0  0  0
    9.0884  -13.9873   12.3278 N   0  0  0  0  0  0  0  0  0  0  0  0
   10.0173  -17.5586   15.3083 C   0  0  0  0  0  0  0  0  0  0  0  0
    9.8294  -17.0221   16.3882 O   0  0  0  0  0  0  0  0  0  0  0  0
   10.6354  -18.8162   15.1760 N   0  0  0  0  0  0  0  0  0  0  0  0
   11.1509  -19.7042   16.1389 C   0  0  1  0  0  0  0  0  0  0  0  0
   10.7844  -21.1820   15.9929 C   0  0  0  0  0  0  0  0  0  0  0  0
    9.3310  -21.4347   15.9632 C   0  0  0  0  0  0  0  0  0  0  0  0
    8.5252  -20.8132   16.6967 O   0  0  0  0  0  0  0  0  0  0  0  0
   12.5905  -19.6085   16.4226 C   0  0  0  0  0  0  0  0  0  0  0  0
   13.3778  -19.2394   15.4901 O   0  0  0  0  0  0  0  0  0  0  0  0
    8.7682  -22.3937   15.0963 O   0  0  0  0  0  0  0  0  0  0  0  0
   13.1820  -19.8993   17.6717 N   0  0  0  0  0  0  0  0  0  0  0  0
   14.5980  -19.7456   17.9717 C   0  0  1  0  0  0  0  0  0  0  0  0
   14.8561  -19.3542   19.3729 C   0  0  0  0  0  0  0  0  0  0  0  0
   16.2308  -19.2119   19.8630 C   0  0  0  0  0  0  0  0  0  0  0  0
   16.4739  -19.0030   21.2868 C   0  0  0  0  0  0  0  0  0  0  0  0
   17.5807  -19.0538   21.8665 O   0  0  0  0  0  0  0  0  0  0  0  0
   15.3644  -20.8502   17.4257 C   0  0  0  0  0  0  0  0  0  0  0  0
   14.9274  -22.0344   17.4657 O   0  0  0  0  0  0  0  0  0  0  0  0
   15.3993  -18.7107   22.1566 O   0  0  0  0  0  0  0  0  0  0  0  0
   16.6059  -20.6444   16.8404 O   0  0  0  0  0  0  0  0  0  0  0  0
  2  1  1  1
  2  9  1  0
  2  3  1  0
  3  4  1  0
  4  5  2  0
  5  6  1  0
  7  6  1  0
  8  4  1  0
  8  7  2  0
  9 11  1  0
 10  9  2  0
 11 12  1  0
 12 16  1  0
 13 14  1  0
 12 13  1  6
 14 18  1  0
 15 14  2  0
 16 17  2  0
 19 16  1  0
 19 20  1  0
 20 25  1  0
 20 21  1  1
 22 21  1  0
 23 24  2  0
 23 22  1  0
 25 26  2  0
 25 28  1  0
 27 23  1  0
M  END
$$$$
