HDE.pdb
     RDKit          3D

 28 28  0  0  1  0  0  0  0  0999 V2000
    8.0546  -17.2581   19.1252 N   0  0  0  0  0  0  0  0  0  0  0  0
    9.3199  -16.6077   19.3123 C   0  0  1  0  0  0  0  0  0  0  0  0
    9.1704  -15.4832   20.3225 C   0  0  0  0  0  0  0  0  0  0  0  0
    8.2915  -14.4470   19.7179 C   0  0  0  0  0  0  0  0  0  0  0  0
    7.8053  -14.4514   18.4161 C   0  0  0  0  0  0  0  0  0  0  0  0
    7.0482  -13.3570   18.2253 N   0  0  0  0  0  0  0  0  0  0  0  0
    7.0412  -12.6607   19.3664 C   0  0  0  0  0  0  0  0  0  0  0  0
    7.7981  -13.3200   20.2812 N   0  0  0  0  0  0  0  0  0  0  0  0
   10.4175  -17.5666   19.7307 C   0  0  0  0  0  0  0  0  0  0  0  0
   10.0892  -18.5266   20.4088 O   0  0  0  0  0  0  0  0  0  0  0  0
   11.7470  -17.3278   19.3352 N   0  0  0  0  0  0  0  0  0  0  0  0
   12.9527  -17.9540   19.7035 C   0  0  1  0  0  0  0  0  0  0  0  0
   14.0894  -17.9367   18.6801 C   0  0  0  0  0  0  0  0  0  0  0  0
   15.2445  -18.7728   19.0592 C   0  0  0  0  0  0  0  0  0  0  0  0
   16.3775  -18.2882   19.2937 O   0  0  0  0  0  0  0  0  0  0  0  0
   13.5065  -17.6000   21.0188 C   0  0  0  0  0  0  0  0  0  0  0  0
   13.7646  -16.3765   21.2682 O   0  0  0  0  0  0  0  0  0  0  0  0
   15.1306  -20.1726   19.1833 O   0  0  0  0  0  0  0  0  0  0  0  0
   13.7808  -18.5269   22.0485 N   0  0  0  0  0  0  0  0  0  0  0  0
   14.1703  -18.1658   23.4037 C   0  0  1  0  0  0  0  0  0  0  0  0
   13.0325  -18.1310   24.3457 C   0  0  0  0  0  0  0  0  0  0  0  0
   12.4394  -19.3777   24.8399 C   0  0  0  0  0  0  0  0  0  0  0  0
   11.4872  -19.3381   25.9452 C   0  0  0  0  0  0  0  0  0  0  0  0
   11.6248  -18.7172   27.0220 O   0  0  0  0  0  0  0  0  0  0  0  0
   15.3619  -18.8884   23.8084 C   0  0  0  0  0  0  0  0  0  0  0  0
   15.7952  -19.8663   23.1371 O   0  0  0  0  0  0  0  0  0  0  0  0
   10.2683  -20.0477   25.8601 O   0  0  0  0  0  0  0  0  0  0  0  0
   16.0676  -18.5305   24.9486 O   0  0  0  0  0  0  0  0  0  0  0  0
  2  1  1  1
  2  9  1  0
  2  3  1  0
  3  4  1  0
  4  5  2  0
  5  6  1  0
  7  6  1  0
  8  4  1  0
  8  7  2  0
  9 11  1  0
 10  9  2  0
 11 12  1  0
 12 16  1  0
 13 14  1  0
 12 13  1  6
 14 18  1  0
 15 14  2  0
 16 17  2  0
 19 16  1  0
 19 20  1  0
 20 25  1  0
 20 21  1  1
 22 21  1  0
 23 24  2  0
 23 22  1  0
 25 26  2  0
 25 28  1  0
 27 23  1  0
M  END
$$$$
