HDE.pdb
     RDKit          3D

 28 28  0  0  1  0  0  0  0  0999 V2000
    8.6331  -19.4925   19.2836 N   0  0  0  0  0  0  0  0  0  0  0  0
    9.1145  -19.4461   20.6346 C   0  0  1  0  0  0  0  0  0  0  0  0
   10.3864  -18.6180   20.6943 C   0  0  0  0  0  0  0  0  0  0  0  0
   11.4032  -19.2904   19.8424 C   0  0  0  0  0  0  0  0  0  0  0  0
   11.8931  -20.5781   20.0233 C   0  0  0  0  0  0  0  0  0  0  0  0
   12.7979  -20.8436   19.0651 N   0  0  0  0  0  0  0  0  0  0  0  0
   12.8953  -19.7630   18.2841 C   0  0  0  0  0  0  0  0  0  0  0  0
   12.0472  -18.8115   18.7530 N   0  0  0  0  0  0  0  0  0  0  0  0
    8.0801  -18.9174   21.6093 C   0  0  0  0  0  0  0  0  0  0  0  0
    7.7201  -17.7603   21.4655 O   0  0  0  0  0  0  0  0  0  0  0  0
    7.5789  -19.7544   22.6239 N   0  0  0  0  0  0  0  0  0  0  0  0
    6.6777  -19.5025   23.6755 C   0  0  1  0  0  0  0  0  0  0  0  0
    5.7353  -20.6392   24.0747 C   0  0  0  0  0  0  0  0  0  0  0  0
    4.9265  -21.1621   22.9569 C   0  0  0  0  0  0  0  0  0  0  0  0
    4.4509  -20.4187   22.0654 O   0  0  0  0  0  0  0  0  0  0  0  0
    7.2389  -18.9128   24.8999 C   0  0  0  0  0  0  0  0  0  0  0  0
    6.4429  -18.4238   25.7677 O   0  0  0  0  0  0  0  0  0  0  0  0
    4.6488  -22.5386   22.8302 O   0  0  0  0  0  0  0  0  0  0  0  0
    8.6179  -18.8437   25.1967 N   0  0  0  0  0  0  0  0  0  0  0  0
    9.1794  -18.1901   26.3699 C   0  0  1  0  0  0  0  0  0  0  0  0
    8.9929  -18.9669   27.6129 C   0  0  0  0  0  0  0  0  0  0  0  0
    9.8369  -20.1327   27.8937 C   0  0  0  0  0  0  0  0  0  0  0  0
    9.6360  -20.8926   29.1233 C   0  0  0  0  0  0  0  0  0  0  0  0
   10.0416  -20.5801   30.2642 O   0  0  0  0  0  0  0  0  0  0  0  0
   10.5056  -17.6729   26.0879 C   0  0  0  0  0  0  0  0  0  0  0  0
   11.1590  -17.0339   26.9593 O   0  0  0  0  0  0  0  0  0  0  0  0
    8.9220  -22.1117   29.0977 O   0  0  0  0  0  0  0  0  0  0  0  0
   11.1028  -17.8618   24.8494 O   0  0  0  0  0  0  0  0  0  0  0  0
  2  1  1  6
  2  9  1  0
  2  3  1  0
  3  4  1  0
  4  5  2  0
  5  6  1  0
  7  6  1  0
  8  4  1  0
  8  7  2  0
  9 11  1  0
 10  9  2  0
 11 12  1  0
 12 16  1  0
 13 14  1  0
 12 13  1  1
 14 18  1  0
 15 14  2  0
 16 17  2  0
 19 16  1  0
 19 20  1  0
 20 25  1  0
 20 21  1  1
 22 21  1  0
 23 24  2  0
 23 22  1  0
 25 26  2  0
 25 28  1  0
 27 23  1  0
M  END
$$$$
