HDE.pdb
     RDKit          3D

 28 28  0  0  1  0  0  0  0  0999 V2000
    8.3365  -16.1929   20.6418 N   0  0  0  0  0  0  0  0  0  0  0  0
    8.0916  -15.0901   21.5266 C   0  0  1  0  0  0  0  0  0  0  0  0
    6.9201  -14.2727   21.0101 C   0  0  0  0  0  0  0  0  0  0  0  0
    7.2328  -13.8680   19.6136 C   0  0  0  0  0  0  0  0  0  0  0  0
    7.8205  -12.6700   19.2260 C   0  0  0  0  0  0  0  0  0  0  0  0
    7.9461  -12.6539   17.8877 N   0  0  0  0  0  0  0  0  0  0  0  0
    7.4554  -13.8050   17.4172 C   0  0  0  0  0  0  0  0  0  0  0  0
    7.0183  -14.5503   18.4650 N   0  0  0  0  0  0  0  0  0  0  0  0
    7.8548  -15.5272   22.9591 C   0  0  0  0  0  0  0  0  0  0  0  0
    7.6661  -14.6490   23.7851 O   0  0  0  0  0  0  0  0  0  0  0  0
    7.8591  -16.8965   23.2853 N   0  0  0  0  0  0  0  0  0  0  0  0
    7.8575  -17.5553   24.5292 C   0  0  1  0  0  0  0  0  0  0  0  0
    7.2758  -18.9694   24.5696 C   0  0  0  0  0  0  0  0  0  0  0  0
    7.1156  -19.5084   25.9337 C   0  0  0  0  0  0  0  0  0  0  0  0
    7.4215  -18.8506   26.9570 O   0  0  0  0  0  0  0  0  0  0  0  0
    9.1212  -17.5513   25.2808 C   0  0  0  0  0  0  0  0  0  0  0  0
    9.4554  -16.4977   25.9164 O   0  0  0  0  0  0  0  0  0  0  0  0
    6.6006  -20.8015   26.1584 O   0  0  0  0  0  0  0  0  0  0  0  0
   10.0123  -18.6445   25.3559 N   0  0  0  0  0  0  0  0  0  0  0  0
   11.2765  -18.6327   26.0772 C   0  0  1  0  0  0  0  0  0  0  0  0
   12.2844  -17.7398   25.4689 C   0  0  0  0  0  0  0  0  0  0  0  0
   12.4157  -17.6526   24.0110 C   0  0  0  0  0  0  0  0  0  0  0  0
   13.3243  -16.6734   23.4233 C   0  0  0  0  0  0  0  0  0  0  0  0
   13.5389  -16.4974   22.2040 O   0  0  0  0  0  0  0  0  0  0  0  0
   11.0542  -18.5269   27.5073 C   0  0  0  0  0  0  0  0  0  0  0  0
   10.8422  -19.5510   28.2153 O   0  0  0  0  0  0  0  0  0  0  0  0
   14.0683  -15.8050   24.2535 O   0  0  0  0  0  0  0  0  0  0  0  0
   11.0659  -17.2958   28.1479 O   0  0  0  0  0  0  0  0  0  0  0  0
  2  1  1  6
  2  9  1  0
  2  3  1  0
  3  4  1  0
  4  5  2  0
  5  6  1  0
  7  6  1  0
  8  4  1  0
  8  7  2  0
  9 11  1  0
 10  9  2  0
 11 12  1  0
 12 16  1  0
 13 14  1  0
 12 13  1  6
 14 18  1  0
 15 14  2  0
 16 17  2  0
 19 16  1  0
 19 20  1  0
 20 25  1  0
 20 21  1  6
 22 21  1  0
 23 24  2  0
 23 22  1  0
 25 26  2  0
 25 28  1  0
 27 23  1  0
M  END
$$$$
