HDE.pdb
     RDKit          3D

 28 28  0  0  1  0  0  0  0  0999 V2000
    9.2551  -15.1224   15.7698 N   0  0  0  0  0  0  0  0  0  0  0  0
    9.9317  -14.8183   16.9981 C   0  0  1  0  0  0  0  0  0  0  0  0
    9.1556  -15.4029   18.1657 C   0  0  0  0  0  0  0  0  0  0  0  0
    8.3865  -14.2968   18.7956 C   0  0  0  0  0  0  0  0  0  0  0  0
    8.3678  -12.9739   18.3706 C   0  0  0  0  0  0  0  0  0  0  0  0
    7.5658  -12.2623   19.1815 N   0  0  0  0  0  0  0  0  0  0  0  0
    7.0770  -13.0947   20.1063 C   0  0  0  0  0  0  0  0  0  0  0  0
    7.5739  -14.3376   19.8768 N   0  0  0  0  0  0  0  0  0  0  0  0
   11.3698  -15.2988   17.0115 C   0  0  0  0  0  0  0  0  0  0  0  0
   11.7761  -15.8672   16.0110 O   0  0  0  0  0  0  0  0  0  0  0  0
   12.1726  -15.0807   18.1470 N   0  0  0  0  0  0  0  0  0  0  0  0
   13.5601  -15.2135   18.3434 C   0  0  1  0  0  0  0  0  0  0  0  0
   14.4772  -14.5853   17.2926 C   0  0  0  0  0  0  0  0  0  0  0  0
   15.9078  -14.8824   17.4971 C   0  0  0  0  0  0  0  0  0  0  0  0
   16.3037  -15.9391   18.0452 O   0  0  0  0  0  0  0  0  0  0  0  0
   14.0752  -14.8670   19.6762 C   0  0  0  0  0  0  0  0  0  0  0  0
   14.1854  -13.6366   19.9921 O   0  0  0  0  0  0  0  0  0  0  0  0
   16.9129  -13.9868   17.0780 O   0  0  0  0  0  0  0  0  0  0  0  0
   14.4655  -15.8084   20.6540 N   0  0  0  0  0  0  0  0  0  0  0  0
   14.4682  -15.5581   22.0880 C   0  0  1  0  0  0  0  0  0  0  0  0
   13.5378  -16.4320   22.8322 C   0  0  0  0  0  0  0  0  0  0  0  0
   13.3635  -16.2696   24.2791 C   0  0  0  0  0  0  0  0  0  0  0  0
   12.3570  -17.0603   24.9803 C   0  0  0  0  0  0  0  0  0  0  0  0
   11.1193  -17.0063   24.8102 O   0  0  0  0  0  0  0  0  0  0  0  0
   15.8248  -15.4330   22.5877 C   0  0  0  0  0  0  0  0  0  0  0  0
   16.0615  -14.9354   23.7240 O   0  0  0  0  0  0  0  0  0  0  0  0
   12.7467  -17.9994   25.9615 O   0  0  0  0  0  0  0  0  0  0  0  0
   16.9108  -15.8553   21.8339 O   0  0  0  0  0  0  0  0  0  0  0  0
  2  1  1  6
  2  9  1  0
  2  3  1  0
  3  4  1  0
  4  5  2  0
  5  6  1  0
  7  6  1  0
  8  4  1  0
  8  7  2  0
  9 11  1  0
 10  9  2  0
 11 12  1  0
 12 16  1  0
 13 14  1  0
 12 13  1  6
 14 18  1  0
 15 14  2  0
 16 17  2  0
 19 16  1  0
 19 20  1  0
 20 25  1  0
 20 21  1  1
 22 21  1  0
 23 24  2  0
 23 22  1  0
 25 26  2  0
 25 28  1  0
 27 23  1  0
M  END
$$$$
