HDE.pdb
     RDKit          3D

 28 28  0  0  1  0  0  0  0  0999 V2000
   10.2782  -15.6125   19.7442 N   0  0  0  0  0  0  0  0  0  0  0  0
    9.6970  -15.6513   21.0556 C   0  0  1  0  0  0  0  0  0  0  0  0
    8.1826  -15.6796   20.9412 C   0  0  0  0  0  0  0  0  0  0  0  0
    7.7733  -14.5367   20.0822 C   0  0  0  0  0  0  0  0  0  0  0  0
    7.9757  -13.1917   20.3668 C   0  0  0  0  0  0  0  0  0  0  0  0
    7.4729  -12.4492   19.3652 N   0  0  0  0  0  0  0  0  0  0  0  0
    6.9586  -13.2836   18.4561 C   0  0  0  0  0  0  0  0  0  0  0  0
    7.1383  -14.5587   18.8875 N   0  0  0  0  0  0  0  0  0  0  0  0
   10.1974  -16.8172   21.8860 C   0  0  0  0  0  0  0  0  0  0  0  0
    9.5247  -17.1425   22.8508 O   0  0  0  0  0  0  0  0  0  0  0  0
   11.3908  -17.4725   21.5291 N   0  0  0  0  0  0  0  0  0  0  0  0
   12.0801  -18.5414   22.1323 C   0  0  1  0  0  0  0  0  0  0  0  0
   13.1417  -19.2514   21.2904 C   0  0  0  0  0  0  0  0  0  0  0  0
   12.6575  -19.6883   19.9669 C   0  0  0  0  0  0  0  0  0  0  0  0
   11.6735  -20.4542   19.8300 O   0  0  0  0  0  0  0  0  0  0  0  0
   12.6360  -18.2976   23.4715 C   0  0  0  0  0  0  0  0  0  0  0  0
   12.5742  -17.1206   23.9580 O   0  0  0  0  0  0  0  0  0  0  0  0
   13.2796  -19.2587   18.7769 O   0  0  0  0  0  0  0  0  0  0  0  0
   13.2454  -19.2840   24.2778 N   0  0  0  0  0  0  0  0  0  0  0  0
   13.5769  -19.1129   25.6848 C   0  0  1  0  0  0  0  0  0  0  0  0
   12.4749  -18.5251   26.4742 C   0  0  0  0  0  0  0  0  0  0  0  0
   11.2288  -19.2704   26.6794 C   0  0  0  0  0  0  0  0  0  0  0  0
   10.9975  -19.9597   27.9448 C   0  0  0  0  0  0  0  0  0  0  0  0
   11.7493  -19.9499   28.9440 O   0  0  0  0  0  0  0  0  0  0  0  0
   14.2277  -20.2988   26.2100 C   0  0  0  0  0  0  0  0  0  0  0  0
   14.2875  -21.3660   25.5374 O   0  0  0  0  0  0  0  0  0  0  0  0
    9.8297  -20.7333   28.1306 O   0  0  0  0  0  0  0  0  0  0  0  0
   14.8073  -20.3023   27.4710 O   0  0  0  0  0  0  0  0  0  0  0  0
  2  1  1  6
  2  9  1  0
  2  3  1  0
  3  4  1  0
  4  5  2  0
  5  6  1  0
  7  6  1  0
  8  4  1  0
  8  7  2  0
  9 11  1  0
 10  9  2  0
 11 12  1  0
 12 16  1  0
 13 14  1  0
 12 13  1  6
 14 18  1  0
 15 14  2  0
 16 17  2  0
 19 16  1  0
 19 20  1  0
 20 25  1  0
 20 21  1  1
 22 21  1  0
 23 24  2  0
 23 22  1  0
 25 26  2  0
 25 28  1  0
 27 23  1  0
M  END
$$$$
