TFV.pdb
     RDKit          3D

 26 26  0  0  1  0  0  0  0  0999 V2000
    9.0470  -18.3979   18.9220 C   0  0  0  0  0  0  0  0  0  0  0  0
    9.1008  -17.8576   20.3537 C   0  0  1  0  0  0  0  0  0  0  0  0
    9.9929  -18.5557   21.1244 O   0  0  0  0  0  0  0  0  0  0  0  0
    9.5250  -16.4173   20.2570 C   0  0  2  0  0  0  0  0  0  0  0  0
   10.8462  -16.3979   19.6549 N   0  0  0  0  0  0  0  0  0  0  0  0
    9.5039  -15.7075   21.5524 C   0  0  0  0  0  0  0  0  0  0  0  0
   10.6080  -15.4871   22.1596 O   0  0  0  0  0  0  0  0  0  0  0  0
    8.3338  -15.2375   22.1959 N   0  0  0  0  0  0  0  0  0  0  0  0
    8.3667  -14.6677   23.5552 C   0  0  1  0  0  0  0  0  0  0  0  0
    7.1531  -13.7913   23.7701 C   0  0  0  0  0  0  0  0  0  0  0  0
    7.0825  -13.2353   25.1294 C   0  0  0  0  0  0  0  0  0  0  0  0
    6.2069  -13.7581   26.0668 C   0  0  0  0  0  0  0  0  0  0  0  0
    6.1160  -13.2847   27.3462 C   0  0  0  0  0  0  0  0  0  0  0  0
    6.9259  -12.2429   27.7296 C   0  0  0  0  0  0  0  0  0  0  0  0
    7.8077  -11.6926   26.8387 C   0  0  0  0  0  0  0  0  0  0  0  0
    7.8794  -12.1974   25.5356 C   0  0  0  0  0  0  0  0  0  0  0  0
    8.4615  -15.7112   24.5709 C   0  0  0  0  0  0  0  0  0  0  0  0
    7.6092  -16.6254   24.6882 O   0  0  0  0  0  0  0  0  0  0  0  0
   12.1786  -17.1313   25.8800 C   0  0  0  0  0  0  0  0  0  0  0  0
   10.8589  -17.8199   25.9305 C   0  0  2  0  0  0  0  0  0  0  0  0
   10.5368  -18.4608   24.5749 C   0  0  0  0  0  0  0  0  0  0  0  0
    9.7331  -16.9327   26.3907 C   0  0  2  0  0  0  0  0  0  0  0  0
    9.5408  -15.7861   25.5299 N   0  0  0  0  0  0  0  0  0  0  0  0
   10.0754  -16.4421   27.7397 C   0  0  0  0  0  0  0  0  0  0  0  0
   10.1275  -17.2630   28.8565 O   0  0  0  0  0  0  0  0  0  0  0  0
   10.3332  -15.2286   27.8964 O   0  0  0  0  0  0  0  0  0  0  0  0
  2  1  1  6
  3  2  1  0
  4  2  1  0
  4  5  1  1
  6  4  1  0
  6  7  2  0
  8  6  1  0
  9  8  1  0
  9 10  1  1
 11 10  1  0
 11 16  2  0
 12 11  1  0
 13 12  2  0
 13 14  1  0
 14 15  2  0
 15 16  1  0
 17  9  1  0
 17 23  1  0
 18 17  2  0
 20 21  1  6
 20 19  1  0
 20 22  1  0
 22 23  1  6
 22 24  1  0
 24 26  2  0
 24 25  1  0
M  END
$$$$
