TFV.pdb
     RDKit          3D

 26 26  0  0  1  0  0  0  0  0999 V2000
    7.8332  -18.3983   18.6186 C   0  0  0  0  0  0  0  0  0  0  0  0
    8.1798  -17.8924   20.0216 C   0  0  1  0  0  0  0  0  0  0  0  0
    9.1351  -18.6723   20.6185 O   0  0  0  0  0  0  0  0  0  0  0  0
    8.6933  -16.4873   19.8604 C   0  0  2  0  0  0  0  0  0  0  0  0
    9.9243  -16.5649   19.0944 N   0  0  0  0  0  0  0  0  0  0  0  0
    8.8905  -15.7802   21.1424 C   0  0  0  0  0  0  0  0  0  0  0  0
   10.0528  -15.7716   21.6762 O   0  0  0  0  0  0  0  0  0  0  0  0
    7.8748  -15.0924   21.8491 N   0  0  0  0  0  0  0  0  0  0  0  0
    8.0838  -14.5838   23.2168 C   0  0  1  0  0  0  0  0  0  0  0  0
    6.9769  -13.6181   23.5765 C   0  0  0  0  0  0  0  0  0  0  0  0
    7.0853  -13.1102   24.9520 C   0  0  0  0  0  0  0  0  0  0  0  0
    8.0250  -12.1478   25.2826 C   0  0  0  0  0  0  0  0  0  0  0  0
    8.1535  -11.6348   26.5434 C   0  0  0  0  0  0  0  0  0  0  0  0
    7.3170  -12.0880   27.5350 C   0  0  0  0  0  0  0  0  0  0  0  0
    6.3720  -13.0387   27.2571 C   0  0  0  0  0  0  0  0  0  0  0  0
    6.2629  -13.5460   25.9576 C   0  0  0  0  0  0  0  0  0  0  0  0
    8.1811  -15.6724   24.1838 C   0  0  0  0  0  0  0  0  0  0  0  0
    7.2619  -16.5090   24.3607 O   0  0  0  0  0  0  0  0  0  0  0  0
   10.9259  -19.1807   26.0120 C   0  0  0  0  0  0  0  0  0  0  0  0
   10.6867  -17.9274   25.2435 C   0  0  2  0  0  0  0  0  0  0  0  0
   11.9714  -17.0932   25.1656 C   0  0  0  0  0  0  0  0  0  0  0  0
    9.5398  -17.1066   25.7705 C   0  0  2  0  0  0  0  0  0  0  0  0
    9.3398  -15.8851   25.0218 N   0  0  0  0  0  0  0  0  0  0  0  0
    9.8555  -16.7441   27.1656 C   0  0  0  0  0  0  0  0  0  0  0  0
   10.1367  -15.4471   27.5689 O   0  0  0  0  0  0  0  0  0  0  0  0
    9.8734  -17.6415   28.0362 O   0  0  0  0  0  0  0  0  0  0  0  0
  2  1  1  6
  3  2  1  0
  4  2  1  0
  4  5  1  1
  6  4  1  0
  6  7  2  0
  8  6  1  0
  9  8  1  0
  9 10  1  1
 11 10  1  0
 11 16  2  0
 12 11  1  0
 13 12  2  0
 13 14  1  0
 14 15  2  0
 15 16  1  0
 17  9  1  0
 17 23  1  0
 18 17  2  0
 20 21  1  1
 20 19  1  0
 20 22  1  0
 22 23  1  6
 22 24  1  0
 24 26  2  0
 24 25  1  0
M  END
$$$$
