TFV.pdb
     RDKit          3D

 26 26  0  0  1  0  0  0  0  0999 V2000
    8.0945  -18.8629   20.6867 C   0  0  0  0  0  0  0  0  0  0  0  0
    9.0689  -18.2980   19.6494 C   0  0  1  0  0  0  0  0  0  0  0  0
    8.8933  -18.8799   18.4214 O   0  0  0  0  0  0  0  0  0  0  0  0
    8.7971  -16.8210   19.5597 C   0  0  2  0  0  0  0  0  0  0  0  0
    9.6348  -16.2935   18.4975 N   0  0  0  0  0  0  0  0  0  0  0  0
    9.0116  -16.1030   20.8329 C   0  0  0  0  0  0  0  0  0  0  0  0
   10.2029  -15.9690   21.2790 O   0  0  0  0  0  0  0  0  0  0  0  0
    7.9827  -15.5350   21.6222 N   0  0  0  0  0  0  0  0  0  0  0  0
    8.2521  -14.9395   22.9436 C   0  0  1  0  0  0  0  0  0  0  0  0
    7.0835  -14.0752   23.3611 C   0  0  0  0  0  0  0  0  0  0  0  0
    7.2283  -13.5352   24.7210 C   0  0  0  0  0  0  0  0  0  0  0  0
    8.0636  -12.4596   24.9736 C   0  0  0  0  0  0  0  0  0  0  0  0
    8.2195  -11.9139   26.2175 C   0  0  0  0  0  0  0  0  0  0  0  0
    7.5199  -12.4498   27.2719 C   0  0  0  0  0  0  0  0  0  0  0  0
    6.6818  -13.5136   27.0722 C   0  0  0  0  0  0  0  0  0  0  0  0
    6.5417  -14.0519   25.7882 C   0  0  0  0  0  0  0  0  0  0  0  0
    8.5464  -15.9624   23.9419 C   0  0  0  0  0  0  0  0  0  0  0  0
    7.7812  -16.9315   24.1685 O   0  0  0  0  0  0  0  0  0  0  0  0
   11.7543  -17.9718   23.8748 C   0  0  0  0  0  0  0  0  0  0  0  0
   11.5404  -17.5388   25.2838 C   0  0  2  0  0  0  0  0  0  0  0  0
   11.9684  -18.6457   26.2553 C   0  0  0  0  0  0  0  0  0  0  0  0
   10.1336  -17.0838   25.5678 C   0  0  2  0  0  0  0  0  0  0  0  0
    9.7405  -15.9524   24.7567 N   0  0  0  0  0  0  0  0  0  0  0  0
   10.0748  -16.6760   26.9847 C   0  0  0  0  0  0  0  0  0  0  0  0
    9.7214  -17.5402   28.0104 O   0  0  0  0  0  0  0  0  0  0  0  0
   10.3553  -15.4958   27.2883 O   0  0  0  0  0  0  0  0  0  0  0  0
  2  1  1  1
  3  2  1  0
  4  2  1  0
  4  5  1  6
  6  4  1  0
  6  7  2  0
  8  6  1  0
  9  8  1  0
  9 10  1  1
 11 10  1  0
 11 16  2  0
 12 11  1  0
 13 12  2  0
 13 14  1  0
 14 15  2  0
 15 16  1  0
 17  9  1  0
 17 23  1  0
 18 17  2  0
 20 21  1  1
 20 19  1  0
 20 22  1  0
 22 23  1  6
 22 24  1  0
 24 26  2  0
 24 25  1  0
M  END
$$$$
