TFV.pdb
     RDKit          3D

 26 26  0  0  1  0  0  0  0  0999 V2000
    7.4599  -18.3403   20.4357 C   0  0  0  0  0  0  0  0  0  0  0  0
    8.6061  -17.9126   19.5149 C   0  0  1  0  0  0  0  0  0  0  0  0
    8.4686  -18.4402   18.2579 O   0  0  0  0  0  0  0  0  0  0  0  0
    8.5685  -16.4101   19.4465 C   0  0  2  0  0  0  0  0  0  0  0  0
    9.5448  -16.0005   18.4528 N   0  0  0  0  0  0  0  0  0  0  0  0
    8.8053  -15.7538   20.7487 C   0  0  0  0  0  0  0  0  0  0  0  0
   10.0072  -15.5986   21.1582 O   0  0  0  0  0  0  0  0  0  0  0  0
    7.7875  -15.2686   21.6047 N   0  0  0  0  0  0  0  0  0  0  0  0
    8.0886  -14.7056   22.9334 C   0  0  1  0  0  0  0  0  0  0  0  0
    6.9384  -13.8372   23.3918 C   0  0  0  0  0  0  0  0  0  0  0  0
    7.1018  -13.3520   24.7701 C   0  0  0  0  0  0  0  0  0  0  0  0
    7.9997  -12.3396   25.0657 C   0  0  0  0  0  0  0  0  0  0  0  0
    8.1757  -11.8456   26.3283 C   0  0  0  0  0  0  0  0  0  0  0  0
    7.4326  -12.3707   27.3581 C   0  0  0  0  0  0  0  0  0  0  0  0
    6.5320  -13.3728   27.1158 C   0  0  0  0  0  0  0  0  0  0  0  0
    6.3727  -13.8591   25.8134 C   0  0  0  0  0  0  0  0  0  0  0  0
    8.3891  -15.7537   23.9034 C   0  0  0  0  0  0  0  0  0  0  0  0
    7.6139  -16.7154   24.1275 O   0  0  0  0  0  0  0  0  0  0  0  0
   11.8250  -17.5199   23.5908 C   0  0  0  0  0  0  0  0  0  0  0  0
   11.5450  -17.2434   25.0273 C   0  0  2  0  0  0  0  0  0  0  0  0
   12.0929  -18.3738   25.9072 C   0  0  0  0  0  0  0  0  0  0  0  0
   10.0906  -16.9866   25.3195 C   0  0  2  0  0  0  0  0  0  0  0  0
    9.6015  -15.7793   24.6905 N   0  0  0  0  0  0  0  0  0  0  0  0
    9.9501  -16.8330   26.7804 C   0  0  0  0  0  0  0  0  0  0  0  0
    9.8416  -15.6009   27.4081 O   0  0  0  0  0  0  0  0  0  0  0  0
    9.9265  -17.8565   27.4984 O   0  0  0  0  0  0  0  0  0  0  0  0
  2  1  1  1
  3  2  1  0
  4  2  1  0
  4  5  1  6
  6  4  1  0
  6  7  2  0
  8  6  1  0
  9  8  1  0
  9 10  1  1
 11 10  1  0
 11 16  2  0
 12 11  1  0
 13 12  2  0
 13 14  1  0
 14 15  2  0
 15 16  1  0
 17  9  1  0
 17 23  1  0
 18 17  2  0
 20 21  1  1
 20 19  1  0
 20 22  1  0
 22 23  1  6
 22 24  1  0
 24 26  2  0
 24 25  1  0
M  END
$$$$
