TFV.pdb
     RDKit          3D

 26 26  0  0  1  0  0  0  0  0999 V2000
    9.0523  -18.7313   21.0889 C   0  0  0  0  0  0  0  0  0  0  0  0
   10.1688  -18.0978   20.2542 C   0  0  1  0  0  0  0  0  0  0  0  0
   10.2534  -18.6648   19.0098 O   0  0  0  0  0  0  0  0  0  0  0  0
    9.8389  -16.6352   20.1292 C   0  0  2  0  0  0  0  0  0  0  0  0
   10.8262  -16.0462   19.2423 N   0  0  0  0  0  0  0  0  0  0  0  0
    9.7794  -15.9306   21.4263 C   0  0  0  0  0  0  0  0  0  0  0  0
   10.8709  -15.6152   22.0141 O   0  0  0  0  0  0  0  0  0  0  0  0
    8.5847  -15.5646   22.0917 N   0  0  0  0  0  0  0  0  0  0  0  0
    8.5972  -14.8894   23.4021 C   0  0  1  0  0  0  0  0  0  0  0  0
    7.3280  -14.0852   23.5735 C   0  0  0  0  0  0  0  0  0  0  0  0
    7.2418  -13.4248   24.8843 C   0  0  0  0  0  0  0  0  0  0  0  0
    6.4742  -13.9646   25.9031 C   0  0  0  0  0  0  0  0  0  0  0  0
    6.3749  -13.3953   27.1422 C   0  0  0  0  0  0  0  0  0  0  0  0
    7.0643  -12.2346   27.3987 C   0  0  0  0  0  0  0  0  0  0  0  0
    7.8365  -11.6629   26.4235 C   0  0  0  0  0  0  0  0  0  0  0  0
    7.9197  -12.2675   25.1643 C   0  0  0  0  0  0  0  0  0  0  0  0
    8.7806  -15.8412   24.4930 C   0  0  0  0  0  0  0  0  0  0  0  0
    7.9847  -16.7873   24.7109 O   0  0  0  0  0  0  0  0  0  0  0  0
   12.5431  -16.1680   26.7024 C   0  0  0  0  0  0  0  0  0  0  0  0
   11.5809  -17.2652   26.4042 C   0  0  2  0  0  0  0  0  0  0  0  0
   11.9529  -17.9615   25.0894 C   0  0  0  0  0  0  0  0  0  0  0  0
   10.1429  -16.8194   26.3924 C   0  0  2  0  0  0  0  0  0  0  0  0
    9.8904  -15.7810   25.4174 N   0  0  0  0  0  0  0  0  0  0  0  0
    9.8331  -16.2789   27.7301 C   0  0  0  0  0  0  0  0  0  0  0  0
    9.7167  -17.0718   28.8620 O   0  0  0  0  0  0  0  0  0  0  0  0
    9.6650  -15.0468   27.8623 O   0  0  0  0  0  0  0  0  0  0  0  0
  2  1  1  1
  3  2  1  0
  4  2  1  0
  4  5  1  6
  6  4  1  0
  6  7  2  0
  8  6  1  0
  9  8  1  0
  9 10  1  1
 11 10  1  0
 11 16  2  0
 12 11  1  0
 13 12  2  0
 13 14  1  0
 14 15  2  0
 15 16  1  0
 17  9  1  0
 17 23  1  0
 18 17  2  0
 20 21  1  6
 20 19  1  0
 20 22  1  0
 22 23  1  6
 22 24  1  0
 24 26  2  0
 24 25  1  0
M  END
$$$$
