TFV.pdb
     RDKit          3D

 26 26  0  0  1  0  0  0  0  0999 V2000
    7.7624  -18.6399   20.7569 C   0  0  0  0  0  0  0  0  0  0  0  0
    8.9637  -18.2528   19.8898 C   0  0  1  0  0  0  0  0  0  0  0  0
    8.8757  -18.7934   18.6339 O   0  0  0  0  0  0  0  0  0  0  0  0
    8.9677  -16.7509   19.8016 C   0  0  2  0  0  0  0  0  0  0  0  0
   10.0316  -16.3769   18.8870 N   0  0  0  0  0  0  0  0  0  0  0  0
    9.1126  -16.0831   21.1114 C   0  0  0  0  0  0  0  0  0  0  0  0
   10.2683  -16.0260   21.6566 O   0  0  0  0  0  0  0  0  0  0  0  0
    8.0523  -15.4846   21.8337 N   0  0  0  0  0  0  0  0  0  0  0  0
    8.2661  -14.8404   23.1424 C   0  0  1  0  0  0  0  0  0  0  0  0
    7.1526  -13.8534   23.4128 C   0  0  0  0  0  0  0  0  0  0  0  0
    7.2530  -13.2270   24.7392 C   0  0  0  0  0  0  0  0  0  0  0  0
    6.4988  -13.6920   25.8039 C   0  0  0  0  0  0  0  0  0  0  0  0
    6.5688  -13.1520   27.0580 C   0  0  0  0  0  0  0  0  0  0  0  0
    7.4234  -12.0996   27.2828 C   0  0  0  0  0  0  0  0  0  0  0  0
    8.1896  -11.6049   26.2619 C   0  0  0  0  0  0  0  0  0  0  0  0
    8.0975  -12.1772   24.9883 C   0  0  0  0  0  0  0  0  0  0  0  0
    8.3804  -15.8264   24.2121 C   0  0  0  0  0  0  0  0  0  0  0  0
    7.4719  -16.6516   24.4763 O   0  0  0  0  0  0  0  0  0  0  0  0
   11.4197  -19.0959   26.0061 C   0  0  0  0  0  0  0  0  0  0  0  0
   11.0932  -17.8361   25.2817 C   0  0  2  0  0  0  0  0  0  0  0  0
   12.2948  -16.8831   25.2957 C   0  0  0  0  0  0  0  0  0  0  0  0
    9.8534  -17.1511   25.7920 C   0  0  2  0  0  0  0  0  0  0  0  0
    9.5451  -15.9416   25.0608 N   0  0  0  0  0  0  0  0  0  0  0  0
   10.0938  -16.7871   27.2017 C   0  0  0  0  0  0  0  0  0  0  0  0
   10.1180  -17.7146   28.2327 O   0  0  0  0  0  0  0  0  0  0  0  0
   10.2864  -15.5866   27.4937 O   0  0  0  0  0  0  0  0  0  0  0  0
  2  1  1  1
  3  2  1  0
  4  2  1  0
  4  5  1  6
  6  4  1  0
  6  7  2  0
  8  6  1  0
  9  8  1  0
  9 10  1  1
 11 10  1  0
 11 16  2  0
 12 11  1  0
 13 12  2  0
 13 14  1  0
 14 15  2  0
 15 16  1  0
 17  9  1  0
 17 23  1  0
 18 17  2  0
 20 21  1  1
 20 19  1  0
 20 22  1  0
 22 23  1  6
 22 24  1  0
 24 26  2  0
 24 25  1  0
M  END
$$$$
