TFV.pdb
     RDKit          3D

 26 26  0  0  1  0  0  0  0  0999 V2000
    8.0687  -18.3349   18.2223 C   0  0  0  0  0  0  0  0  0  0  0  0
    8.3490  -17.8627   19.6517 C   0  0  1  0  0  0  0  0  0  0  0  0
    9.2630  -18.6673   20.2798 O   0  0  0  0  0  0  0  0  0  0  0  0
    8.8869  -16.4615   19.5469 C   0  0  2  0  0  0  0  0  0  0  0  0
   10.1361  -16.5346   18.8103 N   0  0  0  0  0  0  0  0  0  0  0  0
    9.0613  -15.7968   20.8546 C   0  0  0  0  0  0  0  0  0  0  0  0
   10.2361  -15.6977   21.3509 O   0  0  0  0  0  0  0  0  0  0  0  0
    8.0101  -15.2450   21.6258 N   0  0  0  0  0  0  0  0  0  0  0  0
    8.2336  -14.7163   22.9837 C   0  0  1  0  0  0  0  0  0  0  0  0
    7.0598  -13.8562   23.3954 C   0  0  0  0  0  0  0  0  0  0  0  0
    7.1970  -13.3141   24.7553 C   0  0  0  0  0  0  0  0  0  0  0  0
    8.0727  -12.2744   25.0212 C   0  0  0  0  0  0  0  0  0  0  0  0
    8.2237  -11.7278   26.2652 C   0  0  0  0  0  0  0  0  0  0  0  0
    7.4773  -12.2256   27.3061 C   0  0  0  0  0  0  0  0  0  0  0  0
    6.5981  -13.2530   27.0930 C   0  0  0  0  0  0  0  0  0  0  0  0
    6.4640  -13.7931   25.8091 C   0  0  0  0  0  0  0  0  0  0  0  0
    8.4750  -15.7892   23.9429 C   0  0  0  0  0  0  0  0  0  0  0  0
    7.6617  -16.7262   24.1342 O   0  0  0  0  0  0  0  0  0  0  0  0
   11.6586  -17.9421   23.9232 C   0  0  0  0  0  0  0  0  0  0  0  0
   11.3896  -17.5258   25.3277 C   0  0  2  0  0  0  0  0  0  0  0  0
   11.7396  -18.6599   26.2990 C   0  0  0  0  0  0  0  0  0  0  0  0
    9.9840  -17.0353   25.5525 C   0  0  2  0  0  0  0  0  0  0  0  0
    9.6676  -15.8698   24.7562 N   0  0  0  0  0  0  0  0  0  0  0  0
    9.8635  -16.6658   26.9760 C   0  0  0  0  0  0  0  0  0  0  0  0
    9.5667  -17.5798   27.9761 O   0  0  0  0  0  0  0  0  0  0  0  0
   10.0352  -15.4729   27.3095 O   0  0  0  0  0  0  0  0  0  0  0  0
  2  1  1  6
  3  2  1  0
  4  2  1  0
  4  5  1  1
  6  4  1  0
  6  7  2  0
  8  6  1  0
  9  8  1  0
  9 10  1  1
 11 10  1  0
 11 16  2  0
 12 11  1  0
 13 12  2  0
 13 14  1  0
 14 15  2  0
 15 16  1  0
 17  9  1  0
 17 23  1  0
 18 17  2  0
 20 21  1  1
 20 19  1  0
 20 22  1  0
 22 23  1  6
 22 24  1  0
 24 26  2  0
 24 25  1  0
M  END
$$$$
