TFV.pdb
     RDKit          3D

 26 26  0  0  1  0  0  0  0  0999 V2000
    7.7454  -18.5866   20.6427 C   0  0  0  0  0  0  0  0  0  0  0  0
    8.9230  -18.1909   19.7476 C   0  0  1  0  0  0  0  0  0  0  0  0
    8.8126  -18.7372   18.4960 O   0  0  0  0  0  0  0  0  0  0  0  0
    8.9099  -16.6893   19.6539 C   0  0  2  0  0  0  0  0  0  0  0  0
    9.9405  -16.3089   18.7044 N   0  0  0  0  0  0  0  0  0  0  0  0
    9.0900  -16.0150   20.9559 C   0  0  0  0  0  0  0  0  0  0  0  0
   10.2465  -16.0154   21.5025 O   0  0  0  0  0  0  0  0  0  0  0  0
    8.0637  -15.3501   21.6691 N   0  0  0  0  0  0  0  0  0  0  0  0
    8.2826  -14.7996   23.0190 C   0  0  1  0  0  0  0  0  0  0  0  0
    7.1413  -13.8771   23.3846 C   0  0  0  0  0  0  0  0  0  0  0  0
    7.2619  -13.3287   24.7435 C   0  0  0  0  0  0  0  0  0  0  0  0
    8.2029  -12.3555   25.0366 C   0  0  0  0  0  0  0  0  0  0  0  0
    8.3426  -11.8053   26.2804 C   0  0  0  0  0  0  0  0  0  0  0  0
    7.5164  -12.2304   27.2929 C   0  0  0  0  0  0  0  0  0  0  0  0
    6.5706  -13.1903   27.0522 C   0  0  0  0  0  0  0  0  0  0  0  0
    6.4500  -13.7359   25.7694 C   0  0  0  0  0  0  0  0  0  0  0  0
    8.4539  -15.8589   24.0079 C   0  0  0  0  0  0  0  0  0  0  0  0
    7.5883  -16.7449   24.2123 O   0  0  0  0  0  0  0  0  0  0  0  0
   11.3927  -18.2407   23.9585 C   0  0  0  0  0  0  0  0  0  0  0  0
   11.2347  -17.7687   25.3623 C   0  0  2  0  0  0  0  0  0  0  0  0
   11.5412  -18.9040   26.3469 C   0  0  0  0  0  0  0  0  0  0  0  0
    9.8886  -17.1564   25.6446 C   0  0  2  0  0  0  0  0  0  0  0  0
    9.6309  -15.9835   24.8381 N   0  0  0  0  0  0  0  0  0  0  0  0
    9.8723  -16.7511   27.0634 C   0  0  0  0  0  0  0  0  0  0  0  0
    9.2702  -17.5025   28.0617 O   0  0  0  0  0  0  0  0  0  0  0  0
   10.4252  -15.6794   27.3944 O   0  0  0  0  0  0  0  0  0  0  0  0
  2  1  1  1
  3  2  1  0
  4  2  1  0
  4  5  1  6
  6  4  1  0
  6  7  2  0
  8  6  1  0
  9  8  1  0
  9 10  1  1
 11 10  1  0
 11 16  2  0
 12 11  1  0
 13 12  2  0
 13 14  1  0
 14 15  2  0
 15 16  1  0
 17  9  1  0
 17 23  1  0
 18 17  2  0
 20 21  1  1
 20 19  1  0
 20 22  1  0
 22 23  1  6
 22 24  1  0
 24 26  2  0
 24 25  1  0
M  END
$$$$
