TFV.pdb
     RDKit          3D

 26 26  0  0  1  0  0  0  0  0999 V2000
    9.2789  -19.0754   21.4614 C   0  0  0  0  0  0  0  0  0  0  0  0
   10.3909  -18.4327   20.6277 C   0  0  1  0  0  0  0  0  0  0  0  0
   10.5469  -19.0631   19.4213 O   0  0  0  0  0  0  0  0  0  0  0  0
    9.9933  -16.9983   20.4084 C   0  0  2  0  0  0  0  0  0  0  0  0
   10.9472  -16.4257   19.4753 N   0  0  0  0  0  0  0  0  0  0  0  0
    9.9091  -16.2117   21.6560 C   0  0  0  0  0  0  0  0  0  0  0  0
   10.9865  -15.9128   22.2774 O   0  0  0  0  0  0  0  0  0  0  0  0
    8.7047  -15.7479   22.2378 N   0  0  0  0  0  0  0  0  0  0  0  0
    8.6885  -15.0106   23.5142 C   0  0  1  0  0  0  0  0  0  0  0  0
    7.4430  -14.1565   23.5939 C   0  0  0  0  0  0  0  0  0  0  0  0
    7.3319  -13.4241   24.8639 C   0  0  0  0  0  0  0  0  0  0  0  0
    6.4642  -13.8494   25.8563 C   0  0  0  0  0  0  0  0  0  0  0  0
    6.3371  -13.2105   27.0583 C   0  0  0  0  0  0  0  0  0  0  0  0
    7.1005  -12.0943   27.3029 C   0  0  0  0  0  0  0  0  0  0  0  0
    7.9727  -11.6353   26.3528 C   0  0  0  0  0  0  0  0  0  0  0  0
    8.0822  -12.3092   25.1314 C   0  0  0  0  0  0  0  0  0  0  0  0
    8.7934  -15.9138   24.6556 C   0  0  0  0  0  0  0  0  0  0  0  0
    7.9524  -16.8165   24.8880 O   0  0  0  0  0  0  0  0  0  0  0  0
   12.5626  -16.5466   26.6409 C   0  0  0  0  0  0  0  0  0  0  0  0
   11.4389  -17.5159   26.5140 C   0  0  2  0  0  0  0  0  0  0  0  0
   11.5736  -18.3258   25.2186 C   0  0  0  0  0  0  0  0  0  0  0  0
   10.0786  -16.8786   26.6147 C   0  0  2  0  0  0  0  0  0  0  0  0
    9.8705  -15.8512   25.6178 N   0  0  0  0  0  0  0  0  0  0  0  0
    9.9773  -16.2531   27.9473 C   0  0  0  0  0  0  0  0  0  0  0  0
    9.9134  -16.9813   29.1260 O   0  0  0  0  0  0  0  0  0  0  0  0
    9.9467  -15.0058   28.0310 O   0  0  0  0  0  0  0  0  0  0  0  0
  2  1  1  1
  3  2  1  0
  4  2  1  0
  4  5  1  6
  6  4  1  0
  6  7  2  0
  8  6  1  0
  9  8  1  0
  9 10  1  1
 11 10  1  0
 11 16  2  0
 12 11  1  0
 13 12  2  0
 13 14  1  0
 14 15  2  0
 15 16  1  0
 17  9  1  0
 17 23  1  0
 18 17  2  0
 20 21  1  6
 20 19  1  0
 20 22  1  0
 22 23  1  6
 22 24  1  0
 24 26  2  0
 24 25  1  0
M  END
$$$$
