TFV.pdb
     RDKit          3D

 26 26  0  0  1  0  0  0  0  0999 V2000
    8.1881  -18.6918   18.7699 C   0  0  0  0  0  0  0  0  0  0  0  0
    8.4570  -18.1234   20.1661 C   0  0  1  0  0  0  0  0  0  0  0  0
    9.5086  -18.7559   20.7755 O   0  0  0  0  0  0  0  0  0  0  0  0
    8.7726  -16.6635   19.9855 C   0  0  2  0  0  0  0  0  0  0  0  0
    9.9499  -16.5796   19.1399 N   0  0  0  0  0  0  0  0  0  0  0  0
    8.9611  -15.9385   21.2588 C   0  0  0  0  0  0  0  0  0  0  0  0
   10.1432  -15.8010   21.7279 O   0  0  0  0  0  0  0  0  0  0  0  0
    7.9163  -15.3672   22.0244 N   0  0  0  0  0  0  0  0  0  0  0  0
    8.1612  -14.7513   23.3412 C   0  0  1  0  0  0  0  0  0  0  0  0
    6.9812  -13.8881   23.7278 C   0  0  0  0  0  0  0  0  0  0  0  0
    7.1412  -13.2576   25.0464 C   0  0  0  0  0  0  0  0  0  0  0  0
    6.4395  -13.7223   26.1465 C   0  0  0  0  0  0  0  0  0  0  0  0
    6.5661  -13.1785   27.3945 C   0  0  0  0  0  0  0  0  0  0  0  0
    7.4262  -12.1223   27.5762 C   0  0  0  0  0  0  0  0  0  0  0  0
    8.1419  -11.6277   26.5193 C   0  0  0  0  0  0  0  0  0  0  0  0
    7.9924  -12.2040   25.2529 C   0  0  0  0  0  0  0  0  0  0  0  0
    8.4454  -15.7581   24.3586 C   0  0  0  0  0  0  0  0  0  0  0  0
    7.6732  -16.7183   24.5995 O   0  0  0  0  0  0  0  0  0  0  0  0
   11.6284  -17.7113   24.1399 C   0  0  0  0  0  0  0  0  0  0  0  0
   11.4727  -17.3251   25.5700 C   0  0  2  0  0  0  0  0  0  0  0  0
   11.9552  -18.4565   26.4861 C   0  0  0  0  0  0  0  0  0  0  0  0
   10.0751  -16.8962   25.9300 C   0  0  2  0  0  0  0  0  0  0  0  0
    9.6366  -15.7411   25.1776 N   0  0  0  0  0  0  0  0  0  0  0  0
   10.0736  -16.5396   27.3619 C   0  0  0  0  0  0  0  0  0  0  0  0
    9.8005  -17.4503   28.3717 O   0  0  0  0  0  0  0  0  0  0  0  0
   10.3295  -15.3614   27.6937 O   0  0  0  0  0  0  0  0  0  0  0  0
  2  1  1  6
  3  2  1  0
  4  2  1  0
  4  5  1  6
  6  4  1  0
  6  7  2  0
  8  6  1  0
  9  8  1  0
  9 10  1  1
 11 10  1  0
 11 16  2  0
 12 11  1  0
 13 12  2  0
 13 14  1  0
 14 15  2  0
 15 16  1  0
 17  9  1  0
 17 23  1  0
 18 17  2  0
 20 21  1  1
 20 19  1  0
 20 22  1  0
 22 23  1  6
 22 24  1  0
 24 26  2  0
 24 25  1  0
M  END
$$$$
