TFV.pdb
     RDKit          3D

 26 26  0  0  1  0  0  0  0  0999 V2000
    8.2160  -18.5762   20.8089 C   0  0  0  0  0  0  0  0  0  0  0  0
    9.4299  -18.1251   19.9920 C   0  0  1  0  0  0  0  0  0  0  0  0
    9.4297  -18.6784   18.7385 O   0  0  0  0  0  0  0  0  0  0  0  0
    9.3501  -16.6261   19.8900 C   0  0  2  0  0  0  0  0  0  0  0  0
   10.4180  -16.1982   19.0042 N   0  0  0  0  0  0  0  0  0  0  0  0
    9.4164  -15.9412   21.1972 C   0  0  0  0  0  0  0  0  0  0  0  0
   10.5416  -15.8575   21.7999 O   0  0  0  0  0  0  0  0  0  0  0  0
    8.3105  -15.3535   21.8573 N   0  0  0  0  0  0  0  0  0  0  0  0
    8.4299  -14.7595   23.2012 C   0  0  1  0  0  0  0  0  0  0  0  0
    7.2307  -13.8808   23.4786 C   0  0  0  0  0  0  0  0  0  0  0  0
    7.2261  -13.3334   24.8432 C   0  0  0  0  0  0  0  0  0  0  0  0
    8.0555  -12.2794   25.1892 C   0  0  0  0  0  0  0  0  0  0  0  0
    8.0759  -11.7275   26.4400 C   0  0  0  0  0  0  0  0  0  0  0  0
    7.2392  -12.2345   27.4050 C   0  0  0  0  0  0  0  0  0  0  0  0
    6.4009  -13.2761   27.1111 C   0  0  0  0  0  0  0  0  0  0  0  0
    6.4011  -13.8213   25.8224 C   0  0  0  0  0  0  0  0  0  0  0  0
    8.5926  -15.7845   24.2270 C   0  0  0  0  0  0  0  0  0  0  0  0
    7.7541  -16.7002   24.4124 O   0  0  0  0  0  0  0  0  0  0  0  0
   11.7252  -17.9753   24.4525 C   0  0  0  0  0  0  0  0  0  0  0  0
   11.4027  -17.4922   25.8241 C   0  0  2  0  0  0  0  0  0  0  0  0
   11.6998  -18.5834   26.8600 C   0  0  0  0  0  0  0  0  0  0  0  0
    9.9945  -16.9794   25.9671 C   0  0  2  0  0  0  0  0  0  0  0  0
    9.7293  -15.8380   25.1188 N   0  0  0  0  0  0  0  0  0  0  0  0
    9.8132  -16.5608   27.3704 C   0  0  0  0  0  0  0  0  0  0  0  0
    9.9467  -15.2472   27.7951 O   0  0  0  0  0  0  0  0  0  0  0  0
    9.5249  -17.4237   28.2283 O   0  0  0  0  0  0  0  0  0  0  0  0
  2  1  1  1
  3  2  1  0
  4  2  1  0
  4  5  1  6
  6  4  1  0
  6  7  2  0
  8  6  1  0
  9  8  1  0
  9 10  1  1
 11 10  1  0
 11 16  2  0
 12 11  1  0
 13 12  2  0
 13 14  1  0
 14 15  2  0
 15 16  1  0
 17  9  1  0
 17 23  1  0
 18 17  2  0
 20 21  1  1
 20 19  1  0
 20 22  1  0
 22 23  1  6
 22 24  1  0
 24 26  2  0
 24 25  1  0
M  END
$$$$
