TFV.pdb
     RDKit          3D

 26 26  0  0  1  0  0  0  0  0999 V2000
    8.7232  -18.6946   18.7032 C   0  0  0  0  0  0  0  0  0  0  0  0
    8.9260  -18.1611   20.1241 C   0  0  1  0  0  0  0  0  0  0  0  0
    9.9210  -18.8367   20.7805 O   0  0  0  0  0  0  0  0  0  0  0  0
    9.2941  -16.7083   19.9924 C   0  0  2  0  0  0  0  0  0  0  0  0
   10.5632  -16.6485   19.2893 N   0  0  0  0  0  0  0  0  0  0  0  0
    9.3505  -15.9942   21.2844 C   0  0  0  0  0  0  0  0  0  0  0  0
   10.4824  -15.8339   21.8583 O   0  0  0  0  0  0  0  0  0  0  0  0
    8.2277  -15.4574   21.9593 N   0  0  0  0  0  0  0  0  0  0  0  0
    8.3407  -14.8436   23.2949 C   0  0  1  0  0  0  0  0  0  0  0  0
    7.1174  -13.9990   23.5729 C   0  0  0  0  0  0  0  0  0  0  0  0
    7.1527  -13.3592   24.8963 C   0  0  0  0  0  0  0  0  0  0  0  0
    7.9957  -12.2890   25.1463 C   0  0  0  0  0  0  0  0  0  0  0  0
    8.0530  -11.6528   26.3551 C   0  0  0  0  0  0  0  0  0  0  0  0
    7.2410  -12.0872   27.3751 C   0  0  0  0  0  0  0  0  0  0  0  0
    6.3906  -13.1414   27.1764 C   0  0  0  0  0  0  0  0  0  0  0  0
    6.3530  -13.7738   25.9287 C   0  0  0  0  0  0  0  0  0  0  0  0
    8.5442  -15.8505   24.3313 C   0  0  0  0  0  0  0  0  0  0  0  0
    7.7036  -16.7488   24.5812 O   0  0  0  0  0  0  0  0  0  0  0  0
   12.4695  -16.6475   26.0241 C   0  0  0  0  0  0  0  0  0  0  0  0
   11.3487  -17.6138   25.8557 C   0  0  2  0  0  0  0  0  0  0  0  0
   11.4377  -18.3048   24.4894 C   0  0  0  0  0  0  0  0  0  0  0  0
    9.9889  -17.0025   26.0653 C   0  0  2  0  0  0  0  0  0  0  0  0
    9.7272  -15.9045   25.1606 N   0  0  0  0  0  0  0  0  0  0  0  0
    9.9423  -16.4820   27.4453 C   0  0  0  0  0  0  0  0  0  0  0  0
    9.8683  -15.1300   27.7456 O   0  0  0  0  0  0  0  0  0  0  0  0
    9.9704  -17.2899   28.3994 O   0  0  0  0  0  0  0  0  0  0  0  0
  2  1  1  6
  3  2  1  0
  4  2  1  0
  4  5  1  1
  6  4  1  0
  6  7  2  0
  8  6  1  0
  9  8  1  0
  9 10  1  1
 11 10  1  0
 11 16  2  0
 12 11  1  0
 13 12  2  0
 13 14  1  0
 14 15  2  0
 15 16  1  0
 17  9  1  0
 17 23  1  0
 18 17  2  0
 20 21  1  6
 20 19  1  0
 20 22  1  0
 22 23  1  6
 22 24  1  0
 24 26  2  0
 24 25  1  0
M  END
$$$$
