CPT.pdb
     RDKit          3D

 21 21  0  0  1  0  0  0  0  0999 V2000
   27.3636  -23.3003  -16.1517 N   0  0  0  0  0  0  0  0  0  0  0  0
   26.2118  -22.7948  -16.8458 C   0  0  1  0  0  0  0  0  0  0  0  0
   25.3432  -23.9246  -17.3877 C   0  0  0  0  0  0  0  0  0  0  0  0
   24.2124  -23.2127  -18.6344 S   0  0  0  0  0  0  0  0  0  0  0  0
   25.4127  -21.9644  -15.9173 C   0  0  0  0  0  0  0  0  0  0  0  0
   25.1772  -22.3961  -14.7474 O   0  0  0  0  0  0  0  0  0  0  0  0
   24.8853  -20.6887  -16.2681 N   0  0  0  0  0  0  0  0  0  0  0  0
   25.0553  -19.9675  -17.4995 C   0  0  0  0  0  0  0  0  0  0  0  0
   24.2890  -18.7020  -17.3664 C   0  0  0  0  0  0  0  0  0  0  0  0
   24.1583  -18.4878  -15.8819 C   0  0  0  0  0  0  0  0  0  0  0  0
   24.0726  -19.9061  -15.3750 C   0  0  1  0  0  0  0  0  0  0  0  0
   22.6986  -20.4191  -15.2447 C   0  0  0  0  0  0  0  0  0  0  0  0
   22.1985  -21.0701  -16.2018 O   0  0  0  0  0  0  0  0  0  0  0  0
   18.8288  -21.7327  -12.4876 C   0  0  0  0  0  0  0  0  0  0  0  0
   20.2558  -21.2678  -12.6142 C   0  0  1  0  0  0  0  0  0  0  0  0
   21.1144  -22.2738  -12.1896 O   0  0  0  0  0  0  0  0  0  0  0  0
   20.5842  -20.8325  -14.0276 C   0  0  2  0  0  0  0  0  0  0  0  0
   21.8903  -20.2266  -14.0989 N   0  0  0  0  0  0  0  0  0  0  0  0
   19.5278  -19.9465  -14.5865 C   0  0  0  0  0  0  0  0  0  0  0  0
   18.4015  -20.4263  -14.8666 O   0  0  0  0  0  0  0  0  0  0  0  0
   19.7462  -18.6089  -14.8082 O   0  0  0  0  0  0  0  0  0  0  0  0
  2  1  1  1
  3  2  1  0
  4  3  1  0
  5  7  1  0
  5  2  1  0
  6  5  2  0
  7  8  1  0
  9  8  1  0
 10  9  1  0
 11 10  1  0
 11 12  1  6
 11  7  1  0
 12 18  1  0
 13 12  2  0
 15 14  1  6
 15 16  1  0
 17 15  1  0
 17 18  1  1
 19 17  1  0
 19 21  1  0
 20 19  2  0
M  END
$$$$
