CPT.pdb
     RDKit          3D

 21 21  0  0  1  0  0  0  0  0999 V2000
   18.7813  -12.0429  -17.4246 N   0  0  0  0  0  0  0  0  0  0  0  0
   20.0978  -11.4873  -17.5732 C   0  0  1  0  0  0  0  0  0  0  0  0
   20.2126  -10.6490  -18.8416 C   0  0  0  0  0  0  0  0  0  0  0  0
   20.2733  -11.7933  -20.2653 S   0  0  0  0  0  0  0  0  0  0  0  0
   20.4022  -10.6416  -16.3975 C   0  0  0  0  0  0  0  0  0  0  0  0
   19.4720   -9.9599  -15.8680 O   0  0  0  0  0  0  0  0  0  0  0  0
   21.6999  -10.5486  -15.8179 N   0  0  0  0  0  0  0  0  0  0  0  0
   22.8914  -11.2587  -16.1938 C   0  0  0  0  0  0  0  0  0  0  0  0
   23.9750  -10.7882  -15.2935 C   0  0  0  0  0  0  0  0  0  0  0  0
   23.2597  -10.2385  -14.0880 C   0  0  0  0  0  0  0  0  0  0  0  0
   21.9998   -9.6852  -14.7065 C   0  0  1  0  0  0  0  0  0  0  0  0
   22.0858   -8.2649  -15.0848 C   0  0  0  0  0  0  0  0  0  0  0  0
   22.6656   -7.9556  -16.1611 O   0  0  0  0  0  0  0  0  0  0  0  0
   19.7456   -6.0688  -16.3915 C   0  0  0  0  0  0  0  0  0  0  0  0
   20.2932   -5.3192  -15.2054 C   0  0  1  0  0  0  0  0  0  0  0  0
   19.3833   -5.3739  -14.1573 O   0  0  0  0  0  0  0  0  0  0  0  0
   21.6470   -5.8490  -14.7790 C   0  0  2  0  0  0  0  0  0  0  0  0
   21.5528   -7.2083  -14.3084 N   0  0  0  0  0  0  0  0  0  0  0  0
   22.2934   -4.9568  -13.7792 C   0  0  0  0  0  0  0  0  0  0  0  0
   22.3968   -5.3358  -12.5864 O   0  0  0  0  0  0  0  0  0  0  0  0
   22.7853   -3.7211  -14.1215 O   0  0  0  0  0  0  0  0  0  0  0  0
  2  1  1  1
  3  2  1  0
  4  3  1  0
  5  7  1  0
  5  2  1  0
  6  5  2  0
  7  8  1  0
  9  8  1  0
 10  9  1  0
 11 10  1  0
 11 12  1  6
 11  7  1  0
 12 18  1  0
 13 12  2  0
 15 14  1  6
 15 16  1  0
 17 15  1  0
 17 18  1  1
 19 17  1  0
 19 21  1  0
 20 19  2  0
M  END
$$$$
