CPT.pdb
     RDKit          3D

 21 21  0  0  1  0  0  0  0  0999 V2000
   16.9312  -11.2759  -14.8622 N   0  0  0  0  0  0  0  0  0  0  0  0
   17.7035  -10.5658  -15.8437 C   0  0  1  0  0  0  0  0  0  0  0  0
   16.8518   -9.5541  -16.6024 C   0  0  0  0  0  0  0  0  0  0  0  0
   15.8198  -10.4752  -17.7969 S   0  0  0  0  0  0  0  0  0  0  0  0
   18.8157   -9.8612  -15.1678 C   0  0  0  0  0  0  0  0  0  0  0  0
   18.6210   -9.3543  -14.0208 O   0  0  0  0  0  0  0  0  0  0  0  0
   20.1118   -9.7180  -15.7407 N   0  0  0  0  0  0  0  0  0  0  0  0
   20.5956  -10.2539  -16.9833 C   0  0  0  0  0  0  0  0  0  0  0  0
   22.0026   -9.8006  -17.1287 C   0  0  0  0  0  0  0  0  0  0  0  0
   22.4499   -9.4843  -15.7263 C   0  0  0  0  0  0  0  0  0  0  0  0
   21.1710   -8.9810  -15.1040 C   0  0  1  0  0  0  0  0  0  0  0  0
   20.9915   -7.5220  -15.1883 C   0  0  0  0  0  0  0  0  0  0  0  0
   20.6729   -7.0108  -16.2960 O   0  0  0  0  0  0  0  0  0  0  0  0
   18.4421   -5.4859  -13.8985 C   0  0  0  0  0  0  0  0  0  0  0  0
   19.7006   -4.7901  -13.4507 C   0  0  1  0  0  0  0  0  0  0  0  0
   19.8979   -5.0090  -12.0933 O   0  0  0  0  0  0  0  0  0  0  0  0
   20.9064   -5.2322  -14.2543 C   0  0  2  0  0  0  0  0  0  0  0  0
   21.1557   -6.6427  -14.0914 N   0  0  0  0  0  0  0  0  0  0  0  0
   22.1069   -4.4137  -13.9347 C   0  0  0  0  0  0  0  0  0  0  0  0
   23.0718   -4.9405  -13.3276 O   0  0  0  0  0  0  0  0  0  0  0  0
   22.1950   -3.0887  -14.2851 O   0  0  0  0  0  0  0  0  0  0  0  0
  2  1  1  1
  3  2  1  0
  4  3  1  0
  5  7  1  0
  5  2  1  0
  6  5  2  0
  7  8  1  0
  9  8  1  0
 10  9  1  0
 11 10  1  0
 11 12  1  6
 11  7  1  0
 12 18  1  0
 13 12  2  0
 15 14  1  6
 15 16  1  0
 17 15  1  0
 17 18  1  1
 19 17  1  0
 19 21  1  0
 20 19  2  0
M  END
$$$$
