CPT.pdb
     RDKit          3D

 21 21  0  0  1  0  0  0  0  0999 V2000
   18.1321  -12.8872  -16.3565 N   0  0  0  0  0  0  0  0  0  0  0  0
   18.4639  -11.7181  -17.1227 C   0  0  1  0  0  0  0  0  0  0  0  0
   17.2615  -10.7950  -17.2860 C   0  0  0  0  0  0  0  0  0  0  0  0
   16.1554  -11.5330  -18.5398 S   0  0  0  0  0  0  0  0  0  0  0  0
   19.5548  -10.9860  -16.4414 C   0  0  0  0  0  0  0  0  0  0  0  0
   19.5691  -10.9363  -15.1734 O   0  0  0  0  0  0  0  0  0  0  0  0
   20.6055  -10.3244  -17.1392 N   0  0  0  0  0  0  0  0  0  0  0  0
   20.8129  -10.2433  -18.5589 C   0  0  0  0  0  0  0  0  0  0  0  0
   22.0351   -9.4259  -18.7694 C   0  0  0  0  0  0  0  0  0  0  0  0
   22.7899   -9.5241  -17.4703 C   0  0  0  0  0  0  0  0  0  0  0  0
   21.6647   -9.6171  -16.4696 C   0  0  1  0  0  0  0  0  0  0  0  0
   21.2362   -8.3200  -15.9201 C   0  0  0  0  0  0  0  0  0  0  0  0
   20.2940   -7.7009  -16.4848 O   0  0  0  0  0  0  0  0  0  0  0  0
   20.4569   -5.3089  -12.2093 C   0  0  0  0  0  0  0  0  0  0  0  0
   20.9596   -6.6070  -12.7844 C   0  0  1  0  0  0  0  0  0  0  0  0
   20.0278   -7.6114  -12.5558 O   0  0  0  0  0  0  0  0  0  0  0  0
   21.2770   -6.4848  -14.2608 C   0  0  2  0  0  0  0  0  0  0  0  0
   21.8211   -7.7134  -14.7828 N   0  0  0  0  0  0  0  0  0  0  0  0
   22.1633   -5.3219  -14.5354 C   0  0  0  0  0  0  0  0  0  0  0  0
   21.6578   -4.1854  -14.7088 O   0  0  0  0  0  0  0  0  0  0  0  0
   23.5286   -5.4519  -14.6060 O   0  0  0  0  0  0  0  0  0  0  0  0
  2  1  1  1
  3  2  1  0
  4  3  1  0
  5  7  1  0
  5  2  1  0
  6  5  2  0
  7  8  1  0
  9  8  1  0
 10  9  1  0
 11 10  1  0
 11 12  1  6
 11  7  1  0
 12 18  1  0
 13 12  2  0
 15 14  1  6
 15 16  1  0
 17 15  1  0
 17 18  1  1
 19 17  1  0
 19 21  1  0
 20 19  2  0
M  END
$$$$
