CPT.pdb
     RDKit          3D

 21 21  0  0  1  0  0  0  0  0999 V2000
   20.2854  -12.4892  -17.5707 N   0  0  0  0  0  0  0  0  0  0  0  0
   20.2773  -11.1505  -18.0917 C   0  0  1  0  0  0  0  0  0  0  0  0
   18.8572  -10.6174  -18.2455 C   0  0  0  0  0  0  0  0  0  0  0  0
   18.0320  -11.5918  -19.5531 S   0  0  0  0  0  0  0  0  0  0  0  0
   21.0350  -10.2695  -17.1753 C   0  0  0  0  0  0  0  0  0  0  0  0
   20.9478  -10.4572  -15.9233 O   0  0  0  0  0  0  0  0  0  0  0  0
   21.8693   -9.2068  -17.6262 N   0  0  0  0  0  0  0  0  0  0  0  0
   22.0900   -8.7649  -18.9758 C   0  0  0  0  0  0  0  0  0  0  0  0
   23.0271   -7.6147  -18.9042 C   0  0  0  0  0  0  0  0  0  0  0  0
   23.7353   -7.7792  -17.5857 C   0  0  0  0  0  0  0  0  0  0  0  0
   22.6542   -8.3962  -16.7333 C   0  0  1  0  0  0  0  0  0  0  0  0
   21.8488   -7.4209  -15.9796 C   0  0  0  0  0  0  0  0  0  0  0  0
   20.8572   -6.8843  -16.5441 O   0  0  0  0  0  0  0  0  0  0  0  0
   19.6848   -8.0280  -13.3008 C   0  0  0  0  0  0  0  0  0  0  0  0
   20.5146   -6.8704  -12.8108 C   0  0  1  0  0  0  0  0  0  0  0  0
   21.4275   -7.3175  -11.8642 O   0  0  0  0  0  0  0  0  0  0  0  0
   21.2156   -6.1570  -13.9487 C   0  0  2  0  0  0  0  0  0  0  0  0
   22.1187   -7.0403  -14.6433 N   0  0  0  0  0  0  0  0  0  0  0  0
   21.8961   -4.9192  -13.4817 C   0  0  0  0  0  0  0  0  0  0  0  0
   23.1486   -4.8435  -13.5346 O   0  0  0  0  0  0  0  0  0  0  0  0
   21.1928   -3.8469  -12.9902 O   0  0  0  0  0  0  0  0  0  0  0  0
  2  1  1  1
  3  2  1  0
  4  3  1  0
  5  7  1  0
  5  2  1  0
  6  5  2  0
  7  8  1  0
  9  8  1  0
 10  9  1  0
 11 10  1  0
 11 12  1  6
 11  7  1  0
 12 18  1  0
 13 12  2  0
 15 14  1  6
 15 16  1  0
 17 15  1  0
 17 18  1  1
 19 17  1  0
 19 21  1  0
 20 19  2  0
M  END
$$$$
