CPT.pdb
     RDKit          3D

 21 21  0  0  1  0  0  0  0  0999 V2000
   18.1695  -12.0039  -16.3588 N   0  0  0  0  0  0  0  0  0  0  0  0
   19.4876  -11.6431  -16.8019 C   0  0  1  0  0  0  0  0  0  0  0  0
   19.4651  -11.0579  -18.2097 C   0  0  0  0  0  0  0  0  0  0  0  0
   19.2194  -12.4357  -19.3848 S   0  0  0  0  0  0  0  0  0  0  0  0
   20.0576  -10.6480  -15.8665 C   0  0  0  0  0  0  0  0  0  0  0  0
   19.2894   -9.7925  -15.3293 O   0  0  0  0  0  0  0  0  0  0  0  0
   21.4406  -10.5958  -15.5299 N   0  0  0  0  0  0  0  0  0  0  0  0
   22.5093  -11.4066  -16.0453 C   0  0  0  0  0  0  0  0  0  0  0  0
   23.7577  -10.9413  -15.3886 C   0  0  0  0  0  0  0  0  0  0  0  0
   23.2962  -10.2597  -14.1279 C   0  0  0  0  0  0  0  0  0  0  0  0
   21.9758   -9.6739  -14.5634 C   0  0  1  0  0  0  0  0  0  0  0  0
   22.0644   -8.2937  -15.0686 C   0  0  0  0  0  0  0  0  0  0  0  0
   22.6242   -8.0868  -16.1793 O   0  0  0  0  0  0  0  0  0  0  0  0
   19.5453   -6.1600  -16.3481 C   0  0  0  0  0  0  0  0  0  0  0  0
   20.2393   -5.3292  -15.3008 C   0  0  1  0  0  0  0  0  0  0  0  0
   19.4539   -5.2683  -14.1567 O   0  0  0  0  0  0  0  0  0  0  0  0
   21.6222   -5.8606  -14.9840 C   0  0  2  0  0  0  0  0  0  0  0  0
   21.5552   -7.1674  -14.3791 N   0  0  0  0  0  0  0  0  0  0  0  0
   22.3998   -4.9016  -14.1539 C   0  0  0  0  0  0  0  0  0  0  0  0
   22.6636   -5.1884  -12.9600 O   0  0  0  0  0  0  0  0  0  0  0  0
   22.8426   -3.7022  -14.6553 O   0  0  0  0  0  0  0  0  0  0  0  0
  2  1  1  1
  3  2  1  0
  4  3  1  0
  5  7  1  0
  5  2  1  0
  6  5  2  0
  7  8  1  0
  9  8  1  0
 10  9  1  0
 11 10  1  0
 11 12  1  6
 11  7  1  0
 12 18  1  0
 13 12  2  0
 15 14  1  6
 15 16  1  0
 17 15  1  0
 17 18  1  1
 19 17  1  0
 19 21  1  0
 20 19  2  0
M  END
$$$$
