CPT.pdb
     RDKit          3D

 21 21  0  0  1  0  0  0  0  0999 V2000
   15.1403   -8.2867   -8.5065 N   0  0  0  0  0  0  0  0  0  0  0  0
   15.0151   -7.2609   -9.5045 C   0  0  1  0  0  0  0  0  0  0  0  0
   15.2248   -5.8724   -8.9107 C   0  0  0  0  0  0  0  0  0  0  0  0
   13.7861   -5.4946   -7.8489 S   0  0  0  0  0  0  0  0  0  0  0  0
   16.0168   -7.4954  -10.5683 C   0  0  0  0  0  0  0  0  0  0  0  0
   17.1960   -7.8342  -10.2442 O   0  0  0  0  0  0  0  0  0  0  0  0
   15.7274   -7.3604  -11.9564 N   0  0  0  0  0  0  0  0  0  0  0  0
   14.5089   -6.9052  -12.5675 C   0  0  0  0  0  0  0  0  0  0  0  0
   14.7282   -6.9311  -14.0363 C   0  0  0  0  0  0  0  0  0  0  0  0
   15.8562   -7.9079  -14.2379 C   0  0  0  0  0  0  0  0  0  0  0  0
   16.6736   -7.6926  -12.9883 C   0  0  1  0  0  0  0  0  0  0  0  0
   17.7459   -6.6940  -13.1324 C   0  0  0  0  0  0  0  0  0  0  0  0
   17.5542   -5.5273  -12.6941 O   0  0  0  0  0  0  0  0  0  0  0  0
   22.4849   -5.5665  -13.3520 C   0  0  0  0  0  0  0  0  0  0  0  0
   21.3924   -6.5991  -13.4452 C   0  0  1  0  0  0  0  0  0  0  0  0
   21.3700   -7.3617  -12.2844 O   0  0  0  0  0  0  0  0  0  0  0  0
   20.0404   -5.9681  -13.7080 C   0  0  2  0  0  0  0  0  0  0  0  0
   18.9962   -6.9614  -13.7396 N   0  0  0  0  0  0  0  0  0  0  0  0
   20.0554   -5.1361  -14.9413 C   0  0  0  0  0  0  0  0  0  0  0  0
   19.9049   -5.6854  -16.0606 O   0  0  0  0  0  0  0  0  0  0  0  0
   20.2301   -3.7747  -14.8951 O   0  0  0  0  0  0  0  0  0  0  0  0
  2  1  1  1
  3  2  1  0
  4  3  1  0
  5  7  1  0
  5  2  1  0
  6  5  2  0
  7  8  1  0
  9  8  1  0
 10  9  1  0
 11 10  1  0
 11 12  1  6
 11  7  1  0
 12 18  1  0
 13 12  2  0
 15 14  1  1
 15 16  1  0
 17 15  1  0
 17 18  1  6
 19 17  1  0
 19 21  1  0
 20 19  2  0
M  END
$$$$
