CPT.pdb
     RDKit          3D

 21 21  0  0  1  0  0  0  0  0999 V2000
   19.0944  -11.0489  -14.9865 N   0  0  0  0  0  0  0  0  0  0  0  0
   19.2534   -9.6596  -15.3160 C   0  0  1  0  0  0  0  0  0  0  0  0
   18.1084   -9.1554  -16.1874 C   0  0  0  0  0  0  0  0  0  0  0  0
   18.2733   -9.9328  -17.8331 S   0  0  0  0  0  0  0  0  0  0  0  0
   19.3036   -8.8682  -14.0664 C   0  0  0  0  0  0  0  0  0  0  0  0
   18.6084   -9.2381  -13.0712 O   0  0  0  0  0  0  0  0  0  0  0  0
   20.1003   -7.6972  -13.9156 N   0  0  0  0  0  0  0  0  0  0  0  0
   20.9302   -7.0572  -14.8989 C   0  0  0  0  0  0  0  0  0  0  0  0
   21.5299   -5.8654  -14.2461 C   0  0  0  0  0  0  0  0  0  0  0  0
   21.4624   -6.1618  -12.7715 C   0  0  0  0  0  0  0  0  0  0  0  0
   20.1891   -6.9658  -12.6796 C   0  0  1  0  0  0  0  0  0  0  0  0
   18.9875   -6.1639  -12.3950 C   0  0  0  0  0  0  0  0  0  0  0  0
   18.2443   -5.8195  -13.3537 O   0  0  0  0  0  0  0  0  0  0  0  0
   15.5065   -4.7991   -9.1576 C   0  0  0  0  0  0  0  0  0  0  0  0
   16.9009   -5.3118   -9.4053 C   0  0  1  0  0  0  0  0  0  0  0  0
   17.0079   -6.6170   -8.9422 O   0  0  0  0  0  0  0  0  0  0  0  0
   17.2844   -5.2201  -10.8680 C   0  0  2  0  0  0  0  0  0  0  0  0
   18.6062   -5.7480  -11.0969 N   0  0  0  0  0  0  0  0  0  0  0  0
   17.1414   -3.8325  -11.3851 C   0  0  0  0  0  0  0  0  0  0  0  0
   18.0905   -3.0210  -11.2515 O   0  0  0  0  0  0  0  0  0  0  0  0
   15.9949   -3.4063  -12.0095 O   0  0  0  0  0  0  0  0  0  0  0  0
  2  1  1  1
  3  2  1  0
  4  3  1  0
  5  7  1  0
  5  2  1  0
  6  5  2  0
  7  8  1  0
  9  8  1  0
 10  9  1  0
 11 10  1  0
 11 12  1  6
 11  7  1  0
 12 18  1  0
 13 12  2  0
 15 14  1  6
 15 16  1  0
 17 15  1  0
 17 18  1  1
 19 17  1  0
 19 21  1  0
 20 19  2  0
M  END
$$$$
