CPT.pdb
     RDKit          3D

 21 21  0  0  1  0  0  0  0  0999 V2000
   27.9103  -19.4406  -16.4001 N   0  0  0  0  0  0  0  0  0  0  0  0
   27.2547  -18.9471  -15.2208 C   0  0  1  0  0  0  0  0  0  0  0  0
   26.6145  -17.5848  -15.4638 C   0  0  0  0  0  0  0  0  0  0  0  0
   27.6015  -16.3347  -14.5676 S   0  0  0  0  0  0  0  0  0  0  0  0
   26.2118  -19.9120  -14.8068 C   0  0  0  0  0  0  0  0  0  0  0  0
   25.4445  -20.4095  -15.6867 O   0  0  0  0  0  0  0  0  0  0  0  0
   26.0179  -20.3200  -13.4560 N   0  0  0  0  0  0  0  0  0  0  0  0
   26.7442  -19.8982  -12.2899 C   0  0  0  0  0  0  0  0  0  0  0  0
   26.1398  -20.6005  -11.1290 C   0  0  0  0  0  0  0  0  0  0  0  0
   25.4569  -21.8039  -11.7226 C   0  0  0  0  0  0  0  0  0  0  0  0
   25.0140  -21.2732  -13.0636 C   0  0  1  0  0  0  0  0  0  0  0  0
   23.6517  -20.7145  -13.0722 C   0  0  0  0  0  0  0  0  0  0  0  0
   23.4533  -19.5858  -12.5461 O   0  0  0  0  0  0  0  0  0  0  0  0
   22.0052  -18.9922  -15.3442 C   0  0  0  0  0  0  0  0  0  0  0  0
   21.0069  -20.0782  -15.0397 C   0  0  1  0  0  0  0  0  0  0  0  0
   21.0347  -21.0342  -16.0470 O   0  0  0  0  0  0  0  0  0  0  0  0
   21.2542  -20.7082  -13.6843 C   0  0  2  0  0  0  0  0  0  0  0  0
   22.5338  -21.3707  -13.6405 N   0  0  0  0  0  0  0  0  0  0  0  0
   20.1430  -21.6164  -13.2922 C   0  0  0  0  0  0  0  0  0  0  0  0
   20.3540  -22.8513  -13.2048 O   0  0  0  0  0  0  0  0  0  0  0  0
   18.8825  -21.1438  -13.0202 O   0  0  0  0  0  0  0  0  0  0  0  0
  2  1  1  6
  3  2  1  0
  4  3  1  0
  5  7  1  0
  5  2  1  0
  6  5  2  0
  7  8  1  0
  9  8  1  0
 10  9  1  0
 11 10  1  0
 11 12  1  1
 11  7  1  0
 12 18  1  0
 13 12  2  0
 15 14  1  6
 15 16  1  0
 17 15  1  0
 17 18  1  6
 19 17  1  0
 19 21  1  0
 20 19  2  0
M  END
$$$$
