CPT.pdb
     RDKit          3D

 21 21  0  0  1  0  0  0  0  0999 V2000
   24.9293  -19.4430  -18.0070 N   0  0  0  0  0  0  0  0  0  0  0  0
   25.4780  -18.6605  -16.9344 C   0  0  1  0  0  0  0  0  0  0  0  0
   24.5852  -17.4724  -16.5937 C   0  0  0  0  0  0  0  0  0  0  0  0
   25.3300  -15.9801  -17.3407 S   0  0  0  0  0  0  0  0  0  0  0  0
   25.6304  -19.5181  -15.7379 C   0  0  0  0  0  0  0  0  0  0  0  0
   24.6339  -20.1862  -15.3244 O   0  0  0  0  0  0  0  0  0  0  0  0
   26.8510  -19.6377  -15.0137 N   0  0  0  0  0  0  0  0  0  0  0  0
   28.0931  -18.9550  -15.2514 C   0  0  0  0  0  0  0  0  0  0  0  0
   29.0441  -19.4160  -14.2077 C   0  0  0  0  0  0  0  0  0  0  0  0
   28.4947  -20.7398  -13.7467 C   0  0  0  0  0  0  0  0  0  0  0  0
   27.0088  -20.5195  -13.8877 C   0  0  1  0  0  0  0  0  0  0  0  0
   26.3535  -20.0212  -12.6670 C   0  0  0  0  0  0  0  0  0  0  0  0
   26.1490  -18.7826  -12.5481 O   0  0  0  0  0  0  0  0  0  0  0  0
   23.2569  -19.8245  -12.1592 C   0  0  0  0  0  0  0  0  0  0  0  0
   23.6358  -20.4844  -10.8594 C   0  0  1  0  0  0  0  0  0  0  0  0
   23.2856  -21.8280  -10.8980 O   0  0  0  0  0  0  0  0  0  0  0  0
   25.1088  -20.3145  -10.5486 C   0  0  2  0  0  0  0  0  0  0  0  0
   25.9318  -20.8532  -11.6025 N   0  0  0  0  0  0  0  0  0  0  0  0
   25.4575  -20.8882   -9.2209 C   0  0  0  0  0  0  0  0  0  0  0  0
   26.2573  -21.8541   -9.1545 O   0  0  0  0  0  0  0  0  0  0  0  0
   24.9284  -20.3913   -8.0551 O   0  0  0  0  0  0  0  0  0  0  0  0
  2  1  1  6
  3  2  1  0
  4  3  1  0
  5  7  1  0
  5  2  1  0
  6  5  2  0
  7  8  1  0
  9  8  1  0
 10  9  1  0
 11 10  1  0
 11 12  1  1
 11  7  1  0
 12 18  1  0
 13 12  2  0
 15 14  1  6
 15 16  1  0
 17 15  1  0
 17 18  1  6
 19 17  1  0
 19 21  1  0
 20 19  2  0
M  END
$$$$
