CPT.pdb
     RDKit          3D

 21 21  0  0  1  0  0  0  0  0999 V2000
   19.1069  -12.7310  -16.1751 N   0  0  0  0  0  0  0  0  0  0  0  0
   19.1420  -11.5454  -16.9857 C   0  0  1  0  0  0  0  0  0  0  0  0
   17.7991  -10.8235  -16.9814 C   0  0  0  0  0  0  0  0  0  0  0  0
   16.5915  -11.8823  -17.8536 S   0  0  0  0  0  0  0  0  0  0  0  0
   20.1890  -10.6361  -16.4689 C   0  0  0  0  0  0  0  0  0  0  0  0
   20.3907  -10.5723  -15.2176 O   0  0  0  0  0  0  0  0  0  0  0  0
   20.9953   -9.8163  -17.3095 N   0  0  0  0  0  0  0  0  0  0  0  0
   20.9685   -9.7203  -18.7431 C   0  0  0  0  0  0  0  0  0  0  0  0
   21.9895   -8.7117  -19.1261 C   0  0  0  0  0  0  0  0  0  0  0  0
   22.9380   -8.6643  -17.9577 C   0  0  0  0  0  0  0  0  0  0  0  0
   22.0093   -8.9321  -16.7993 C   0  0  1  0  0  0  0  0  0  0  0  0
   21.4569   -7.7184  -16.1749 C   0  0  0  0  0  0  0  0  0  0  0  0
   20.4032   -7.2148  -16.6504 O   0  0  0  0  0  0  0  0  0  0  0  0
   20.0631   -7.3629  -12.8529 C   0  0  0  0  0  0  0  0  0  0  0  0
   21.0424   -6.2277  -12.9967 C   0  0  1  0  0  0  0  0  0  0  0  0
   22.1917   -6.5069  -12.2682 O   0  0  0  0  0  0  0  0  0  0  0  0
   21.3728   -5.9478  -14.4485 C   0  0  2  0  0  0  0  0  0  0  0  0
   22.0395   -7.0704  -15.0596 N   0  0  0  0  0  0  0  0  0  0  0  0
   22.1502   -4.6883  -14.5996 C   0  0  0  0  0  0  0  0  0  0  0  0
   23.3320   -4.7370  -15.0215 O   0  0  0  0  0  0  0  0  0  0  0  0
   21.6124   -3.4631  -14.2901 O   0  0  0  0  0  0  0  0  0  0  0  0
  2  1  1  1
  3  2  1  0
  4  3  1  0
  5  7  1  0
  5  2  1  0
  6  5  2  0
  7  8  1  0
  9  8  1  0
 10  9  1  0
 11 10  1  0
 11 12  1  6
 11  7  1  0
 12 18  1  0
 13 12  2  0
 15 14  1  6
 15 16  1  0
 17 15  1  0
 17 18  1  1
 19 17  1  0
 19 21  1  0
 20 19  2  0
M  END
$$$$
