CPT.pdb
     RDKit          3D

 21 21  0  0  1  0  0  0  0  0999 V2000
   19.2647  -14.2873  -18.1945 N   0  0  0  0  0  0  0  0  0  0  0  0
   18.6747  -13.6308  -17.0610 C   0  0  1  0  0  0  0  0  0  0  0  0
   19.3633  -14.0303  -15.7606 C   0  0  0  0  0  0  0  0  0  0  0  0
   19.0758  -15.8162  -15.5007 S   0  0  0  0  0  0  0  0  0  0  0  0
   18.7796  -12.1656  -17.2411 C   0  0  0  0  0  0  0  0  0  0  0  0
   19.7776  -11.6884  -17.8630 O   0  0  0  0  0  0  0  0  0  0  0  0
   17.8087  -11.2472  -16.7486 N   0  0  0  0  0  0  0  0  0  0  0  0
   16.6043  -11.5367  -16.0201 C   0  0  0  0  0  0  0  0  0  0  0  0
   15.9564  -10.2332  -15.7243 C   0  0  0  0  0  0  0  0  0  0  0  0
   16.5144   -9.2860  -16.7530 C   0  0  0  0  0  0  0  0  0  0  0  0
   17.9115   -9.8245  -16.9380 C   0  0  1  0  0  0  0  0  0  0  0  0
   18.9207   -9.1971  -16.0686 C   0  0  0  0  0  0  0  0  0  0  0  0
   19.1029   -9.6645  -14.9117 O   0  0  0  0  0  0  0  0  0  0  0  0
   22.5087   -9.1599  -16.5596 C   0  0  0  0  0  0  0  0  0  0  0  0
   22.1209   -7.7300  -16.2882 C   0  0  1  0  0  0  0  0  0  0  0  0
   22.1230   -7.0115  -17.4770 O   0  0  0  0  0  0  0  0  0  0  0  0
   20.7774   -7.6315  -15.5951 C   0  0  2  0  0  0  0  0  0  0  0  0
   19.7115   -8.0875  -16.4518 N   0  0  0  0  0  0  0  0  0  0  0  0
   20.5280   -6.2590  -15.0779 C   0  0  0  0  0  0  0  0  0  0  0  0
   21.2832   -5.7835  -14.1943 O   0  0  0  0  0  0  0  0  0  0  0  0
   19.4894   -5.4881  -15.5395 O   0  0  0  0  0  0  0  0  0  0  0  0
  2  1  1  6
  3  2  1  0
  4  3  1  0
  5  7  1  0
  5  2  1  0
  6  5  2  0
  7  8  1  0
  9  8  1  0
 10  9  1  0
 11 10  1  0
 11 12  1  1
 11  7  1  0
 12 18  1  0
 13 12  2  0
 15 14  1  6
 15 16  1  0
 17 15  1  0
 17 18  1  6
 19 17  1  0
 19 21  1  0
 20 19  2  0
M  END
$$$$
