CPT.pdb
     RDKit          3D

 21 21  0  0  1  0  0  0  0  0999 V2000
   19.8332  -12.1638  -17.8105 N   0  0  0  0  0  0  0  0  0  0  0  0
   18.9540  -11.4773  -16.9052 C   0  0  1  0  0  0  0  0  0  0  0  0
   19.2469  -11.8425  -15.4541 C   0  0  0  0  0  0  0  0  0  0  0  0
   18.7982  -13.5982  -15.2172 S   0  0  0  0  0  0  0  0  0  0  0  0
   19.1167  -10.0175  -17.0857 C   0  0  0  0  0  0  0  0  0  0  0  0
   20.2582   -9.5551  -17.3918 O   0  0  0  0  0  0  0  0  0  0  0  0
   18.0481   -9.0882  -16.9329 N   0  0  0  0  0  0  0  0  0  0  0  0
   16.6851   -9.3576  -16.5657 C   0  0  0  0  0  0  0  0  0  0  0  0
   15.9832   -8.0491  -16.5269 C   0  0  0  0  0  0  0  0  0  0  0  0
   16.8140   -7.1429  -17.3960 C   0  0  0  0  0  0  0  0  0  0  0  0
   18.2044   -7.6744  -17.1500 C   0  0  1  0  0  0  0  0  0  0  0  0
   18.9253   -6.9983  -16.0586 C   0  0  0  0  0  0  0  0  0  0  0  0
   18.7594   -7.4041  -14.8763 O   0  0  0  0  0  0  0  0  0  0  0  0
   22.1644   -7.2978  -15.0260 C   0  0  0  0  0  0  0  0  0  0  0  0
   22.0098   -5.8106  -15.2080 C   0  0  1  0  0  0  0  0  0  0  0  0
   22.5892   -5.4242  -16.4098 O   0  0  0  0  0  0  0  0  0  0  0  0
   20.5583   -5.3817  -15.1407 C   0  0  2  0  0  0  0  0  0  0  0  0
   19.8052   -5.9067  -16.2522 N   0  0  0  0  0  0  0  0  0  0  0  0
   20.4292   -3.9038  -15.0286 C   0  0  0  0  0  0  0  0  0  0  0  0
   19.9538   -3.2492  -15.9891 O   0  0  0  0  0  0  0  0  0  0  0  0
   20.8166   -3.2261  -13.8987 O   0  0  0  0  0  0  0  0  0  0  0  0
  2  1  1  6
  3  2  1  0
  4  3  1  0
  5  7  1  0
  5  2  1  0
  6  5  2  0
  7  8  1  0
  9  8  1  0
 10  9  1  0
 11 10  1  0
 11 12  1  1
 11  7  1  0
 12 18  1  0
 13 12  2  0
 15 14  1  6
 15 16  1  0
 17 15  1  0
 17 18  1  6
 19 17  1  0
 19 21  1  0
 20 19  2  0
M  END
$$$$
