APT.pdb
     RDKit          3D

 20 20  0  0  1  0  0  0  0  0999 V2000
    6.9702  -17.6589   17.9607 C   0  0  0  0  0  0  0  0  0  0  0  0
    7.8949  -16.5824   17.3792 C   0  0  2  0  0  0  0  0  0  0  0  0
    8.6014  -17.1725   16.3067 N   0  0  0  0  0  0  0  0  0  0  0  0
    8.6603  -16.0361   18.4877 C   0  0  0  0  0  0  0  0  0  0  0  0
    9.8225  -16.5606   18.6578 O   0  0  0  0  0  0  0  0  0  0  0  0
    8.2933  -15.0150   19.3906 N   0  0  0  0  0  0  0  0  0  0  0  0
    7.0217  -14.3483   19.4526 C   0  0  0  0  0  0  0  0  0  0  0  0
    7.3482  -12.9086   19.8762 C   0  0  0  0  0  0  0  0  0  0  0  0
    8.5352  -13.0993   20.7874 C   0  0  0  0  0  0  0  0  0  0  0  0
    9.1110  -14.4407   20.4370 C   0  0  1  0  0  0  0  0  0  0  0  0
    9.1325  -15.3710   21.6125 C   0  0  0  0  0  0  0  0  0  0  0  0
    8.0376  -15.8193   22.0758 O   0  0  0  0  0  0  0  0  0  0  0  0
   10.5128  -18.6271   21.9283 C   0  0  0  0  0  0  0  0  0  0  0  0
   11.2453  -17.8345   23.0142 C   0  0  1  0  0  0  0  0  0  0  0  0
   12.4889  -17.4223   22.5877 O   0  0  0  0  0  0  0  0  0  0  0  0
   10.3410  -16.6845   23.3820 C   0  0  2  0  0  0  0  0  0  0  0  0
   10.3277  -15.7716   22.2295 N   0  0  0  0  0  0  0  0  0  0  0  0
   10.9637  -15.9717   24.5253 C   0  0  0  0  0  0  0  0  0  0  0  0
   10.9614  -16.5089   25.7975 O   0  0  0  0  0  0  0  0  0  0  0  0
   11.5110  -14.8554   24.3608 O   0  0  0  0  0  0  0  0  0  0  0  0
  2  1  1  1
  2  4  1  0
  2  3  1  0
  4  5  2  0
  6  4  1  0
  7  6  1  0
  8  9  1  0
  8  7  1  0
  9 10  1  0
 10  6  1  0
 10 11  1  1
 11 12  2  0
 11 17  1  0
 14 13  1  6
 14 16  1  0
 15 14  1  0
 16 18  1  0
 16 17  1  6
 18 20  2  0
 18 19  1  0
M  END
$$$$
