APT.pdb
     RDKit          3D

 20 20  0  0  1  0  0  0  0  0999 V2000
    7.2982  -16.8516   16.9775 C   0  0  0  0  0  0  0  0  0  0  0  0
    8.3170  -15.7897   16.5457 C   0  0  2  0  0  0  0  0  0  0  0  0
    9.0549  -16.3314   15.4688 N   0  0  0  0  0  0  0  0  0  0  0  0
    9.0409  -15.3853   17.7395 C   0  0  0  0  0  0  0  0  0  0  0  0
   10.1842  -15.9523   17.9013 O   0  0  0  0  0  0  0  0  0  0  0  0
    8.6520  -14.4603   18.7323 N   0  0  0  0  0  0  0  0  0  0  0  0
    7.3775  -13.8040   18.8336 C   0  0  0  0  0  0  0  0  0  0  0  0
    7.6910  -12.4138   19.4065 C   0  0  0  0  0  0  0  0  0  0  0  0
    8.8588  -12.6944   20.3192 C   0  0  0  0  0  0  0  0  0  0  0  0
    9.4456  -13.9935   19.8484 C   0  0  1  0  0  0  0  0  0  0  0  0
    9.4447  -15.0370   20.9248 C   0  0  0  0  0  0  0  0  0  0  0  0
    8.3386  -15.4615   21.3838 O   0  0  0  0  0  0  0  0  0  0  0  0
   10.4384  -18.3927   20.8846 C   0  0  0  0  0  0  0  0  0  0  0  0
   11.3497  -17.7931   21.9587 C   0  0  1  0  0  0  0  0  0  0  0  0
   12.5918  -17.4800   21.4512 O   0  0  0  0  0  0  0  0  0  0  0  0
   10.6220  -16.5922   22.5098 C   0  0  2  0  0  0  0  0  0  0  0  0
   10.6307  -15.5706   21.4524 N   0  0  0  0  0  0  0  0  0  0  0  0
   11.4121  -16.0749   23.6547 C   0  0  0  0  0  0  0  0  0  0  0  0
   11.4386  -16.7330   24.8684 O   0  0  0  0  0  0  0  0  0  0  0  0
   12.0797  -15.0189   23.5452 O   0  0  0  0  0  0  0  0  0  0  0  0
  2  1  1  1
  2  4  1  0
  2  3  1  0
  4  5  2  0
  6  4  1  0
  7  6  1  0
  8  9  1  0
  8  7  1  0
  9 10  1  0
 10  6  1  0
 10 11  1  1
 11 12  2  0
 11 17  1  0
 14 13  1  6
 14 16  1  0
 15 14  1  0
 16 18  1  0
 16 17  1  6
 18 20  2  0
 18 19  1  0
M  END
$$$$
