APT.pdb
     RDKit          3D

 20 20  0  0  1  0  0  0  0  0999 V2000
    6.3143  -14.8452   21.9116 C   0  0  0  0  0  0  0  0  0  0  0  0
    7.3083  -13.6845   22.0399 C   0  0  2  0  0  0  0  0  0  0  0  0
    8.0727  -13.6549   20.8514 N   0  0  0  0  0  0  0  0  0  0  0  0
    8.0077  -13.8616   23.3018 C   0  0  0  0  0  0  0  0  0  0  0  0
    9.1854  -14.3698   23.2050 O   0  0  0  0  0  0  0  0  0  0  0  0
    7.5626  -13.5505   24.6047 N   0  0  0  0  0  0  0  0  0  0  0  0
    6.2623  -13.0567   24.9662 C   0  0  0  0  0  0  0  0  0  0  0  0
    6.5103  -12.1188   26.1569 C   0  0  0  0  0  0  0  0  0  0  0  0
    7.6679  -12.7843   26.8589 C   0  0  0  0  0  0  0  0  0  0  0  0
    8.3136  -13.6726   25.8354 C   0  0  1  0  0  0  0  0  0  0  0  0
    8.3288  -15.1094   26.2632 C   0  0  0  0  0  0  0  0  0  0  0  0
    7.2376  -15.7581   26.3162 O   0  0  0  0  0  0  0  0  0  0  0  0
   10.0185  -17.7316   24.5692 C   0  0  0  0  0  0  0  0  0  0  0  0
   10.5838  -17.8199   25.9893 C   0  0  1  0  0  0  0  0  0  0  0  0
   11.8068  -17.1929   26.0869 O   0  0  0  0  0  0  0  0  0  0  0  0
    9.5419  -17.2170   26.8984 C   0  0  2  0  0  0  0  0  0  0  0  0
    9.5141  -15.7751   26.6118 N   0  0  0  0  0  0  0  0  0  0  0  0
   10.0065  -17.3985   28.2962 C   0  0  0  0  0  0  0  0  0  0  0  0
   10.0263  -18.6434   28.8935 O   0  0  0  0  0  0  0  0  0  0  0  0
   10.3953  -16.4169   28.9730 O   0  0  0  0  0  0  0  0  0  0  0  0
  2  1  1  6
  2  4  1  0
  2  3  1  0
  4  5  2  0
  6  4  1  0
  7  6  1  0
  8  9  1  0
  8  7  1  0
  9 10  1  0
 10  6  1  0
 10 11  1  1
 11 12  2  0
 11 17  1  0
 14 13  1  6
 14 16  1  0
 15 14  1  0
 16 18  1  0
 16 17  1  6
 18 20  2  0
 18 19  1  0
M  END
$$$$
