APT.pdb
     RDKit          3D

 20 20  0  0  1  0  0  0  0  0999 V2000
    6.3510  -15.2053   22.4116 C   0  0  0  0  0  0  0  0  0  0  0  0
    7.3585  -14.0505   22.3548 C   0  0  2  0  0  0  0  0  0  0  0  0
    8.1211  -14.2181   21.1766 N   0  0  0  0  0  0  0  0  0  0  0  0
    8.0580  -14.0341   23.6289 C   0  0  0  0  0  0  0  0  0  0  0  0
    9.2497  -14.5175   23.6021 O   0  0  0  0  0  0  0  0  0  0  0  0
    7.5997  -13.5605   24.8772 N   0  0  0  0  0  0  0  0  0  0  0  0
    6.2679  -13.1159   25.1836 C   0  0  0  0  0  0  0  0  0  0  0  0
    6.4517  -11.9902   26.2122 C   0  0  0  0  0  0  0  0  0  0  0  0
    7.6621  -12.4511   26.9855 C   0  0  0  0  0  0  0  0  0  0  0  0
    8.3668  -13.4354   26.0976 C   0  0  1  0  0  0  0  0  0  0  0  0
    8.4957  -14.7841   26.7395 C   0  0  0  0  0  0  0  0  0  0  0  0
    7.4684  -15.5228   26.8552 O   0  0  0  0  0  0  0  0  0  0  0  0
   10.4614  -17.4458   25.5154 C   0  0  0  0  0  0  0  0  0  0  0  0
   10.9843  -17.2789   26.9446 C   0  0  1  0  0  0  0  0  0  0  0  0
   12.1486  -16.5428   26.9747 O   0  0  0  0  0  0  0  0  0  0  0  0
    9.8673  -16.6413   27.7327 C   0  0  2  0  0  0  0  0  0  0  0  0
    9.7201  -15.2697   27.2238 N   0  0  0  0  0  0  0  0  0  0  0  0
   10.3055  -16.5613   29.1484 C   0  0  0  0  0  0  0  0  0  0  0  0
   10.4460  -17.6945   29.9249 O   0  0  0  0  0  0  0  0  0  0  0  0
   10.5606  -15.4528   29.6768 O   0  0  0  0  0  0  0  0  0  0  0  0
  2  1  1  1
  2  4  1  0
  2  3  1  0
  4  5  2  0
  6  4  1  0
  7  6  1  0
  8  9  1  0
  8  7  1  0
  9 10  1  0
 10  6  1  0
 10 11  1  1
 11 12  2  0
 11 17  1  0
 14 13  1  6
 14 16  1  0
 15 14  1  0
 16 18  1  0
 16 17  1  6
 18 20  2  0
 18 19  1  0
M  END
$$$$
