APT.pdb
     RDKit          3D

 20 20  0  0  1  0  0  0  0  0999 V2000
    9.9770  -13.0967   19.9862 C   0  0  0  0  0  0  0  0  0  0  0  0
    8.6236  -13.7205   19.6244 C   0  0  2  0  0  0  0  0  0  0  0  0
    7.9637  -12.8167   18.7610 N   0  0  0  0  0  0  0  0  0  0  0  0
    7.9720  -14.0760   20.8742 C   0  0  0  0  0  0  0  0  0  0  0  0
    7.1398  -13.2032   21.3219 O   0  0  0  0  0  0  0  0  0  0  0  0
    8.1358  -15.2440   21.6497 N   0  0  0  0  0  0  0  0  0  0  0  0
    9.0512  -16.3202   21.3872 C   0  0  0  0  0  0  0  0  0  0  0  0
    8.3259  -17.5853   21.8693 C   0  0  0  0  0  0  0  0  0  0  0  0
    7.5361  -17.0770   23.0498 C   0  0  0  0  0  0  0  0  0  0  0  0
    7.4290  -15.5912   22.8636 C   0  0  1  0  0  0  0  0  0  0  0  0
    8.0220  -14.8334   24.0133 C   0  0  0  0  0  0  0  0  0  0  0  0
    9.2690  -14.5903   24.0259 O   0  0  0  0  0  0  0  0  0  0  0  0
    6.4272  -11.6156   25.9022 C   0  0  0  0  0  0  0  0  0  0  0  0
    6.6882  -12.8176   26.8138 C   0  0  1  0  0  0  0  0  0  0  0  0
    5.5536  -13.5811   26.9815 O   0  0  0  0  0  0  0  0  0  0  0  0
    7.8244  -13.5864   26.1865 C   0  0  2  0  0  0  0  0  0  0  0  0
    7.2459  -14.3761   25.0894 N   0  0  0  0  0  0  0  0  0  0  0  0
    8.3451  -14.5301   27.2068 C   0  0  0  0  0  0  0  0  0  0  0  0
    9.0128  -14.0820   28.3294 O   0  0  0  0  0  0  0  0  0  0  0  0
    8.1895  -15.7672   27.0716 O   0  0  0  0  0  0  0  0  0  0  0  0
  2  1  1  1
  2  4  1  0
  2  3  1  0
  4  5  2  0
  6  4  1  0
  7  6  1  0
  8  9  1  0
  8  7  1  0
  9 10  1  0
 10  6  1  0
 10 11  1  1
 11 12  2  0
 11 17  1  0
 14 13  1  6
 14 16  1  0
 15 14  1  0
 16 18  1  0
 16 17  1  6
 18 20  2  0
 18 19  1  0
M  END
$$$$
