APT.pdb
     RDKit          3D

 20 20  0  0  1  0  0  0  0  0999 V2000
    6.6514  -17.8599   18.4138 C   0  0  0  0  0  0  0  0  0  0  0  0
    7.3784  -16.7751   17.6097 C   0  0  2  0  0  0  0  0  0  0  0  0
    7.8506  -17.3799   16.4227 N   0  0  0  0  0  0  0  0  0  0  0  0
    8.3494  -16.1639   18.5021 C   0  0  0  0  0  0  0  0  0  0  0  0
    9.5469  -16.6224   18.4001 O   0  0  0  0  0  0  0  0  0  0  0  0
    8.1463  -15.1430   19.4556 N   0  0  0  0  0  0  0  0  0  0  0  0
    6.9018  -14.4883   19.7517 C   0  0  0  0  0  0  0  0  0  0  0  0
    7.2868  -13.0439   20.1046 C   0  0  0  0  0  0  0  0  0  0  0  0
    8.6243  -13.2200   20.7796 C   0  0  0  0  0  0  0  0  0  0  0  0
    9.1384  -14.5571   20.3308 C   0  0  1  0  0  0  0  0  0  0  0  0
    9.3874  -15.4827   21.4835 C   0  0  0  0  0  0  0  0  0  0  0  0
    8.4072  -15.8905   22.1816 O   0  0  0  0  0  0  0  0  0  0  0  0
   10.7051  -18.7497   21.3229 C   0  0  0  0  0  0  0  0  0  0  0  0
   11.6718  -18.0472   22.2800 C   0  0  1  0  0  0  0  0  0  0  0  0
   12.8150  -17.6341   21.6314 O   0  0  0  0  0  0  0  0  0  0  0  0
   10.9027  -16.9054   22.8966 C   0  0  2  0  0  0  0  0  0  0  0  0
   10.6751  -15.9225   21.8270 N   0  0  0  0  0  0  0  0  0  0  0  0
   11.7752  -16.2771   23.9197 C   0  0  0  0  0  0  0  0  0  0  0  0
   12.3618  -15.0449   23.7087 O   0  0  0  0  0  0  0  0  0  0  0  0
   12.0019  -16.8559   25.0089 O   0  0  0  0  0  0  0  0  0  0  0  0
  2  1  1  1
  2  4  1  0
  2  3  1  0
  4  5  2  0
  6  4  1  0
  7  6  1  0
  8  9  1  0
  8  7  1  0
  9 10  1  0
 10  6  1  0
 10 11  1  1
 11 12  2  0
 11 17  1  0
 14 13  1  6
 14 16  1  0
 15 14  1  0
 16 18  1  0
 16 17  1  6
 18 20  2  0
 18 19  1  0
M  END
$$$$
