APT.pdb
     RDKit          3D

 20 20  0  0  1  0  0  0  0  0999 V2000
    6.0927  -14.9106   22.3386 C   0  0  0  0  0  0  0  0  0  0  0  0
    7.1332  -13.7841   22.3230 C   0  0  2  0  0  0  0  0  0  0  0  0
    7.8158  -13.8620   21.0878 N   0  0  0  0  0  0  0  0  0  0  0  0
    7.9100  -13.9065   23.5456 C   0  0  0  0  0  0  0  0  0  0  0  0
    9.0833  -14.4122   23.3969 O   0  0  0  0  0  0  0  0  0  0  0  0
    7.5433  -13.5450   24.8599 N   0  0  0  0  0  0  0  0  0  0  0  0
    6.2401  -13.1250   25.2964 C   0  0  0  0  0  0  0  0  0  0  0  0
    6.5050  -12.0965   26.4058 C   0  0  0  0  0  0  0  0  0  0  0  0
    7.7613  -12.6290   27.0492 C   0  0  0  0  0  0  0  0  0  0  0  0
    8.3937  -13.5322   26.0304 C   0  0  1  0  0  0  0  0  0  0  0  0
    8.5534  -14.9334   26.5392 C   0  0  0  0  0  0  0  0  0  0  0  0
    7.5399  -15.6974   26.5972 O   0  0  0  0  0  0  0  0  0  0  0  0
   11.4739  -18.7590   26.9896 C   0  0  0  0  0  0  0  0  0  0  0  0
   11.1962  -17.3268   26.5252 C   0  0  1  0  0  0  0  0  0  0  0  0
   11.0288  -17.2615   25.1592 O   0  0  0  0  0  0  0  0  0  0  0  0
    9.9802  -16.8624   27.2876 C   0  0  2  0  0  0  0  0  0  0  0  0
    9.7924  -15.4416   26.9591 N   0  0  0  0  0  0  0  0  0  0  0  0
   10.2929  -16.9618   28.7350 C   0  0  0  0  0  0  0  0  0  0  0  0
   10.7623  -15.8760   29.4475 O   0  0  0  0  0  0  0  0  0  0  0  0
   10.1365  -18.0436   29.3498 O   0  0  0  0  0  0  0  0  0  0  0  0
  2  1  1  6
  2  4  1  0
  2  3  1  0
  4  5  2  0
  6  4  1  0
  7  6  1  0
  8  9  1  0
  8  7  1  0
  9 10  1  0
 10  6  1  0
 10 11  1  1
 11 12  2  0
 11 17  1  0
 14 13  1  6
 14 16  1  0
 15 14  1  0
 16 18  1  0
 16 17  1  6
 18 20  2  0
 18 19  1  0
M  END
$$$$
