APT.pdb
     RDKit          3D

 20 20  0  0  1  0  0  0  0  0999 V2000
    6.2496  -14.4389   21.6462 C   0  0  0  0  0  0  0  0  0  0  0  0
    7.2134  -13.2818   21.9362 C   0  0  2  0  0  0  0  0  0  0  0  0
    8.0203  -13.1117   20.7883 N   0  0  0  0  0  0  0  0  0  0  0  0
    7.8693  -13.5816   23.1983 C   0  0  0  0  0  0  0  0  0  0  0  0
    9.0349  -14.1155   23.0929 O   0  0  0  0  0  0  0  0  0  0  0  0
    7.3940  -13.3637   24.5094 N   0  0  0  0  0  0  0  0  0  0  0  0
    6.0681  -12.9496   24.8778 C   0  0  0  0  0  0  0  0  0  0  0  0
    6.2581  -12.0692   26.1219 C   0  0  0  0  0  0  0  0  0  0  0  0
    7.4358  -12.7201   26.8037 C   0  0  0  0  0  0  0  0  0  0  0  0
    8.1342  -13.5203   25.7427 C   0  0  1  0  0  0  0  0  0  0  0  0
    8.2096  -14.9766   26.0911 C   0  0  0  0  0  0  0  0  0  0  0  0
    7.1527  -15.6814   26.0663 O   0  0  0  0  0  0  0  0  0  0  0  0
   10.0049  -17.4963   24.3779 C   0  0  0  0  0  0  0  0  0  0  0  0
   10.5632  -17.5942   25.8001 C   0  0  1  0  0  0  0  0  0  0  0  0
   11.7640  -16.9292   25.9191 O   0  0  0  0  0  0  0  0  0  0  0  0
    9.4957  -17.0444   26.7131 C   0  0  2  0  0  0  0  0  0  0  0  0
    9.4150  -15.6004   26.4479 N   0  0  0  0  0  0  0  0  0  0  0  0
    9.9610  -17.2294   28.1103 C   0  0  0  0  0  0  0  0  0  0  0  0
   10.0322  -18.4823   28.6866 O   0  0  0  0  0  0  0  0  0  0  0  0
   10.3033  -16.2435   28.8056 O   0  0  0  0  0  0  0  0  0  0  0  0
  2  1  1  6
  2  4  1  0
  2  3  1  0
  4  5  2  0
  6  4  1  0
  7  6  1  0
  8  9  1  0
  8  7  1  0
  9 10  1  0
 10  6  1  0
 10 11  1  1
 11 12  2  0
 11 17  1  0
 14 13  1  6
 14 16  1  0
 15 14  1  0
 16 18  1  0
 16 17  1  6
 18 20  2  0
 18 19  1  0
M  END
$$$$
