APT.pdb
     RDKit          3D

 20 20  0  0  1  0  0  0  0  0999 V2000
   -0.7646  -26.7832   30.3442 C   0  0  0  0  0  0  0  0  0  0  0  0
   -0.9068  -26.8188   28.8176 C   0  0  2  0  0  0  0  0  0  0  0  0
    0.2336  -26.1831   28.2762 N   0  0  0  0  0  0  0  0  0  0  0  0
   -2.2146  -26.2697   28.4999 C   0  0  0  0  0  0  0  0  0  0  0  0
   -2.2117  -25.0405   28.1205 O   0  0  0  0  0  0  0  0  0  0  0  0
   -3.4727  -26.9074   28.5550 N   0  0  0  0  0  0  0  0  0  0  0  0
   -3.7353  -28.2345   29.0397 C   0  0  0  0  0  0  0  0  0  0  0  0
   -4.8867  -28.7557   28.1670 C   0  0  0  0  0  0  0  0  0  0  0  0
   -5.6857  -27.5039   27.9019 C   0  0  0  0  0  0  0  0  0  0  0  0
   -4.7477  -26.3578   28.1477 C   0  0  1  0  0  0  0  0  0  0  0  0
   -5.2510  -25.4349   29.2167 C   0  0  0  0  0  0  0  0  0  0  0  0
   -4.8122  -25.5534   30.4032 O   0  0  0  0  0  0  0  0  0  0  0  0
   -7.7976  -21.3849   30.3737 C   0  0  0  0  0  0  0  0  0  0  0  0
   -7.3249  -22.3503   29.2836 C   0  0  1  0  0  0  0  0  0  0  0  0
   -6.5067  -21.7212   28.3708 O   0  0  0  0  0  0  0  0  0  0  0  0
   -6.6409  -23.4909   29.9953 C   0  0  2  0  0  0  0  0  0  0  0  0
   -6.1989  -24.4332   28.9566 N   0  0  0  0  0  0  0  0  0  0  0  0
   -7.6594  -24.1737   30.8315 C   0  0  0  0  0  0  0  0  0  0  0  0
   -8.4070  -25.2261   30.3413 O   0  0  0  0  0  0  0  0  0  0  0  0
   -7.8663  -23.8072   32.0129 O   0  0  0  0  0  0  0  0  0  0  0  0
  2  1  1  1
  2  4  1  0
  2  3  1  0
  4  5  2  0
  6  4  1  0
  7  6  1  0
  8  9  1  0
  8  7  1  0
  9 10  1  0
 10  6  1  0
 10 11  1  1
 11 12  2  0
 11 17  1  0
 14 13  1  1
 14 16  1  0
 15 14  1  0
 16 18  1  0
 16 17  1  6
 18 20  2  0
 18 19  1  0
M  END
$$$$
