APT.pdb
     RDKit          3D

 20 20  0  0  1  0  0  0  0  0999 V2000
    6.3903  -13.9959   21.3073 C   0  0  0  0  0  0  0  0  0  0  0  0
    7.3665  -12.8734   21.6800 C   0  0  2  0  0  0  0  0  0  0  0  0
    8.2402  -12.6974   20.5831 N   0  0  0  0  0  0  0  0  0  0  0  0
    7.9430  -13.2222   22.9680 C   0  0  0  0  0  0  0  0  0  0  0  0
    9.1338  -13.7063   22.9185 O   0  0  0  0  0  0  0  0  0  0  0  0
    7.3677  -13.0986   24.2510 N   0  0  0  0  0  0  0  0  0  0  0  0
    6.0311  -12.6618   24.5475 C   0  0  0  0  0  0  0  0  0  0  0  0
    6.1473  -11.9014   25.8769 C   0  0  0  0  0  0  0  0  0  0  0  0
    7.2401  -12.6586   26.5898 C   0  0  0  0  0  0  0  0  0  0  0  0
    7.9960  -13.3930   25.5207 C   0  0  1  0  0  0  0  0  0  0  0  0
    7.9903  -14.8758   25.7417 C   0  0  0  0  0  0  0  0  0  0  0  0
    6.8927  -15.5131   25.6823 O   0  0  0  0  0  0  0  0  0  0  0  0
    9.2709  -17.4848   23.8199 C   0  0  0  0  0  0  0  0  0  0  0  0
   10.0338  -17.6430   25.1379 C   0  0  1  0  0  0  0  0  0  0  0  0
   11.2750  -17.0477   25.0786 O   0  0  0  0  0  0  0  0  0  0  0  0
    9.1522  -17.0545   26.2111 C   0  0  2  0  0  0  0  0  0  0  0  0
    9.1626  -15.5973   26.0149 N   0  0  0  0  0  0  0  0  0  0  0  0
    9.7848  -17.3461   27.5216 C   0  0  0  0  0  0  0  0  0  0  0  0
    9.8395  -18.6304   28.0260 O   0  0  0  0  0  0  0  0  0  0  0  0
   10.2886  -16.4246   28.2071 O   0  0  0  0  0  0  0  0  0  0  0  0
  2  1  1  6
  2  4  1  0
  2  3  1  0
  4  5  2  0
  6  4  1  0
  7  6  1  0
  8  9  1  0
  8  7  1  0
  9 10  1  0
 10  6  1  0
 10 11  1  1
 11 12  2  0
 11 17  1  0
 14 13  1  6
 14 16  1  0
 15 14  1  0
 16 18  1  0
 16 17  1  6
 18 20  2  0
 18 19  1  0
M  END
$$$$
