DNS.pdb
     RDKit          3D

 23 22  0  0  1  0  0  0  0  0999 V2000
   44.0578   -8.9754   -7.6205 N   0  0  0  0  0  0  0  0  0  0  0  0
   43.5534   -7.7011   -8.0804 C   0  0  1  0  0  0  0  0  0  0  0  0
   44.4262   -7.1519   -9.2129 C   0  0  0  0  0  0  0  0  0  0  0  0
   45.7760   -6.8587   -8.6779 C   0  0  0  0  0  0  0  0  0  0  0  0
   46.8108   -7.4257   -9.1328 O   0  0  0  0  0  0  0  0  0  0  0  0
   42.2010   -7.9027   -8.6673 C   0  0  0  0  0  0  0  0  0  0  0  0
   42.0161   -8.8879   -9.4111 O   0  0  0  0  0  0  0  0  0  0  0  0
   45.9567   -5.9521   -7.6588 O   0  0  0  0  0  0  0  0  0  0  0  0
   36.4951   -6.2214   -7.9461 N   0  0  0  0  0  0  0  0  0  0  0  0
   37.5287   -7.1885   -8.0370 C   0  0  0  0  0  0  0  0  0  0  0  0
   37.2645   -8.3537   -8.4704 O   0  0  0  0  0  0  0  0  0  0  0  0
   38.9038   -6.8769   -7.6413 C   0  0  0  0  0  0  0  0  0  0  0  0
   39.8648   -7.1083   -8.8137 C   0  0  2  0  0  0  0  0  0  0  0  0
   41.2082   -6.9588   -8.3416 N   0  0  0  0  0  0  0  0  0  0  0  0
   39.5287   -6.2293   -9.9480 C   0  0  0  0  0  0  0  0  0  0  0  0
   39.9048   -5.0290   -9.8823 O   0  0  0  0  0  0  0  0  0  0  0  0
   38.7708   -5.1937  -14.4526 O   0  0  0  0  0  0  0  0  0  0  0  0
   38.9042   -6.1893  -13.5175 C   0  0  0  0  0  0  0  0  0  0  0  0
   38.5365   -5.6927  -12.1387 C   0  0  2  0  0  0  0  0  0  0  0  0
   38.8203   -6.6243  -11.0996 N   0  0  0  0  0  0  0  0  0  0  0  0
   37.1110   -5.2750  -12.1906 C   0  0  0  0  0  0  0  0  0  0  0  0
   36.8354   -3.9970  -12.6280 O   0  0  0  0  0  0  0  0  0  0  0  0
   36.1632   -6.0251  -11.8583 O   0  0  0  0  0  0  0  0  0  0  0  0
  2  1  1  6
  2  3  1  0
  3  4  1  0
  4  8  1  0
  5  4  2  0
  6  2  1  0
  7  6  2  0
 10  9  1  0
 11 10  2  0
 12 10  1  0
 13 12  1  1
 13 14  1  0
 13 15  1  0
 14  6  1  0
 15 20  1  0
 16 15  2  0
 18 17  1  0
 19 18  1  6
 19 21  1  0
 20 19  1  0
 21 23  2  0
 21 22  1  0
M  END
$$$$
