DNS.pdb
     RDKit          3D

 23 22  0  0  1  0  0  0  0  0999 V2000
   17.4368  -11.8527  -14.4283 N   0  0  0  0  0  0  0  0  0  0  0  0
   18.0923  -11.1399  -15.5016 C   0  0  1  0  0  0  0  0  0  0  0  0
   18.0423  -11.9523  -16.7990 C   0  0  0  0  0  0  0  0  0  0  0  0
   18.8209  -13.1988  -16.6138 C   0  0  0  0  0  0  0  0  0  0  0  0
   19.9491  -13.2011  -16.0424 O   0  0  0  0  0  0  0  0  0  0  0  0
   17.3404   -9.8854  -15.7753 C   0  0  0  0  0  0  0  0  0  0  0  0
   16.1058   -9.9568  -15.9451 O   0  0  0  0  0  0  0  0  0  0  0  0
   18.3431  -14.4096  -17.0592 O   0  0  0  0  0  0  0  0  0  0  0  0
   14.7061   -5.6636  -15.7473 N   0  0  0  0  0  0  0  0  0  0  0  0
   15.8227   -5.9000  -14.9050 C   0  0  0  0  0  0  0  0  0  0  0  0
   16.2943   -4.9510  -14.2033 O   0  0  0  0  0  0  0  0  0  0  0  0
   16.4515   -7.2200  -14.8224 C   0  0  0  0  0  0  0  0  0  0  0  0
   17.4250   -7.4242  -15.9895 C   0  0  2  0  0  0  0  0  0  0  0  0
   18.0788   -8.6874  -15.8253 N   0  0  0  0  0  0  0  0  0  0  0  0
   18.3505   -6.2831  -16.1057 C   0  0  0  0  0  0  0  0  0  0  0  0
   19.2405   -6.1664  -15.2220 O   0  0  0  0  0  0  0  0  0  0  0  0
   18.3031   -3.3472  -19.1312 O   0  0  0  0  0  0  0  0  0  0  0  0
   19.5079   -3.7840  -18.6401 C   0  0  0  0  0  0  0  0  0  0  0  0
   19.3556   -4.3430  -17.2447 C   0  0  2  0  0  0  0  0  0  0  0  0
   18.3191   -5.3124  -17.1259 N   0  0  0  0  0  0  0  0  0  0  0  0
   19.1965   -3.1858  -16.3256 C   0  0  0  0  0  0  0  0  0  0  0  0
   20.2154   -2.2580  -16.2845 O   0  0  0  0  0  0  0  0  0  0  0  0
   18.1897   -3.0209  -15.5972 O   0  0  0  0  0  0  0  0  0  0  0  0
  2  1  1  1
  2  3  1  0
  3  4  1  0
  4  8  1  0
  5  4  2  0
  6  2  1  0
  7  6  2  0
 10  9  1  0
 11 10  2  0
 12 10  1  0
 13 12  1  1
 13 14  1  0
 13 15  1  0
 14  6  1  0
 15 20  1  0
 16 15  2  0
 18 17  1  0
 19 18  1  6
 19 21  1  0
 20 19  1  0
 21 23  2  0
 21 22  1  0
M  END
$$$$
