DNS.pdb
     RDKit          3D

 23 22  0  0  1  0  0  0  0  0999 V2000
   20.1348  -23.5516  -14.0096 N   0  0  0  0  0  0  0  0  0  0  0  0
   19.1555  -22.5101  -14.2236 C   0  0  1  0  0  0  0  0  0  0  0  0
   18.1166  -22.5062  -13.0982 C   0  0  0  0  0  0  0  0  0  0  0  0
   17.0530  -23.4840  -13.4251 C   0  0  0  0  0  0  0  0  0  0  0  0
   17.0694  -24.1526  -14.4984 O   0  0  0  0  0  0  0  0  0  0  0  0
   19.8362  -21.1887  -14.1564 C   0  0  0  0  0  0  0  0  0  0  0  0
   20.0792  -20.7011  -13.0333 O   0  0  0  0  0  0  0  0  0  0  0  0
   15.9996  -23.7036  -12.5677 O   0  0  0  0  0  0  0  0  0  0  0  0
   23.4905  -21.3365  -16.6587 N   0  0  0  0  0  0  0  0  0  0  0  0
   23.0410  -20.2131  -15.9185 C   0  0  0  0  0  0  0  0  0  0  0  0
   23.5766  -19.9417  -14.7983 O   0  0  0  0  0  0  0  0  0  0  0  0
   21.9668  -19.3507  -16.4154 C   0  0  0  0  0  0  0  0  0  0  0  0
   20.8147  -19.2928  -15.4050 C   0  0  2  0  0  0  0  0  0  0  0  0
   20.1651  -20.5685  -15.3771 N   0  0  0  0  0  0  0  0  0  0  0  0
   19.9106  -18.1683  -15.7051 C   0  0  0  0  0  0  0  0  0  0  0  0
   19.0585  -18.3372  -16.6173 O   0  0  0  0  0  0  0  0  0  0  0  0
   18.4822  -15.3473  -13.2073 O   0  0  0  0  0  0  0  0  0  0  0  0
   18.8526  -14.8022  -14.4111 C   0  0  0  0  0  0  0  0  0  0  0  0
   19.0436  -15.8751  -15.4577 C   0  0  2  0  0  0  0  0  0  0  0  0
   19.9232  -16.9196  -15.0534 N   0  0  0  0  0  0  0  0  0  0  0  0
   19.4644  -15.1938  -16.7099 C   0  0  0  0  0  0  0  0  0  0  0  0
   18.5976  -14.2726  -17.2581 O   0  0  0  0  0  0  0  0  0  0  0  0
   20.5581  -15.4187  -17.2796 O   0  0  0  0  0  0  0  0  0  0  0  0
  2  1  1  1
  2  3  1  0
  3  4  1  0
  4  8  1  0
  5  4  2  0
  6  2  1  0
  7  6  2  0
 10  9  1  0
 11 10  2  0
 12 10  1  0
 13 12  1  6
 13 14  1  0
 13 15  1  0
 14  6  1  0
 15 20  1  0
 16 15  2  0
 18 17  1  0
 19 18  1  1
 19 21  1  0
 20 19  1  0
 21 23  2  0
 21 22  1  0
M  END
$$$$
