DNS.pdb
     RDKit          3D

 23 22  0  0  1  0  0  0  0  0999 V2000
   16.3281  -11.0215  -16.9787 N   0  0  0  0  0  0  0  0  0  0  0  0
   16.5604  -10.3467  -15.7216 C   0  0  1  0  0  0  0  0  0  0  0  0
   17.4660  -11.1875  -14.8167 C   0  0  0  0  0  0  0  0  0  0  0  0
   16.7154  -12.3819  -14.3648 C   0  0  0  0  0  0  0  0  0  0  0  0
   17.2671  -13.5148  -14.2579 O   0  0  0  0  0  0  0  0  0  0  0  0
   17.3028   -9.0841  -15.9836 C   0  0  0  0  0  0  0  0  0  0  0  0
   18.2659   -9.1139  -16.7772 O   0  0  0  0  0  0  0  0  0  0  0  0
   15.3802  -12.3037  -14.0420 O   0  0  0  0  0  0  0  0  0  0  0  0
   18.5850   -4.1517  -15.7924 N   0  0  0  0  0  0  0  0  0  0  0  0
   17.2320   -4.2441  -15.3765 C   0  0  0  0  0  0  0  0  0  0  0  0
   16.5471   -3.1847  -15.2216 O   0  0  0  0  0  0  0  0  0  0  0  0
   16.5985   -5.5390  -15.1188 C   0  0  0  0  0  0  0  0  0  0  0  0
   17.5627   -6.6837  -15.4536 C   0  0  2  0  0  0  0  0  0  0  0  0
   16.8655   -7.9262  -15.3120 N   0  0  0  0  0  0  0  0  0  0  0  0
   18.7887   -6.5904  -14.6410 C   0  0  0  0  0  0  0  0  0  0  0  0
   18.6956   -6.8720  -13.4168 O   0  0  0  0  0  0  0  0  0  0  0  0
   23.3861   -7.2464  -14.0450 O   0  0  0  0  0  0  0  0  0  0  0  0
   22.3051   -7.1756  -14.8877 C   0  0  0  0  0  0  0  0  0  0  0  0
   21.2132   -6.3127  -14.2995 C   0  0  2  0  0  0  0  0  0  0  0  0
   20.0564   -6.2114  -15.1241 N   0  0  0  0  0  0  0  0  0  0  0  0
   21.8251   -4.9993  -13.9684 C   0  0  0  0  0  0  0  0  0  0  0  0
   22.3195   -4.8283  -12.6930 O   0  0  0  0  0  0  0  0  0  0  0  0
   21.9089   -4.0548  -14.7884 O   0  0  0  0  0  0  0  0  0  0  0  0
  2  1  1  6
  2  3  1  0
  3  4  1  0
  4  8  1  0
  5  4  2  0
  6  2  1  0
  7  6  2  0
 10  9  1  0
 11 10  2  0
 12 10  1  0
 13 12  1  1
 13 14  1  0
 13 15  1  0
 14  6  1  0
 15 20  1  0
 16 15  2  0
 18 17  1  0
 19 18  1  6
 19 21  1  0
 20 19  1  0
 21 23  2  0
 21 22  1  0
M  END
$$$$
