DNS.pdb
     RDKit          3D

 23 22  0  0  1  0  0  0  0  0999 V2000
   14.4960  -10.1980  -13.1136 N   0  0  0  0  0  0  0  0  0  0  0  0
   15.7031  -10.2417  -12.3195 C   0  0  1  0  0  0  0  0  0  0  0  0
   16.7837  -11.0670  -13.0245 C   0  0  0  0  0  0  0  0  0  0  0  0
   16.3646  -12.4877  -13.0437 C   0  0  0  0  0  0  0  0  0  0  0  0
   16.5856  -13.2343  -14.0403 O   0  0  0  0  0  0  0  0  0  0  0  0
   16.2521   -8.8636  -12.2028 C   0  0  0  0  0  0  0  0  0  0  0  0
   16.2314   -8.1277  -13.2109 O   0  0  0  0  0  0  0  0  0  0  0  0
   15.7146  -13.0530  -11.9710 O   0  0  0  0  0  0  0  0  0  0  0  0
   18.1353   -4.6404  -10.0085 N   0  0  0  0  0  0  0  0  0  0  0  0
   17.3591   -5.3501   -9.0567 C   0  0  0  0  0  0  0  0  0  0  0  0
   17.0297   -4.7861   -7.9664 O   0  0  0  0  0  0  0  0  0  0  0  0
   16.9237   -6.7270   -9.2997 C   0  0  0  0  0  0  0  0  0  0  0  0
   17.2624   -7.1512  -10.7340 C   0  0  2  0  0  0  0  0  0  0  0  0
   16.7643   -8.4761  -10.9497 N   0  0  0  0  0  0  0  0  0  0  0  0
   18.7053   -7.0052  -10.9966 C   0  0  0  0  0  0  0  0  0  0  0  0
   19.5006   -7.4434  -10.1237 O   0  0  0  0  0  0  0  0  0  0  0  0
   20.7957   -8.3075  -13.5933 O   0  0  0  0  0  0  0  0  0  0  0  0
   21.2035   -6.9980  -13.5416 C   0  0  0  0  0  0  0  0  0  0  0  0
   20.6781   -6.3138  -12.3012 C   0  0  2  0  0  0  0  0  0  0  0  0
   19.2660   -6.4145  -12.1459 N   0  0  0  0  0  0  0  0  0  0  0  0
   21.1752   -4.9134  -12.3311 C   0  0  0  0  0  0  0  0  0  0  0  0
   22.5397   -4.7192  -12.3011 O   0  0  0  0  0  0  0  0  0  0  0  0
   20.4167   -3.9165  -12.3816 O   0  0  0  0  0  0  0  0  0  0  0  0
  2  1  1  6
  2  3  1  0
  3  4  1  0
  4  8  1  0
  5  4  2  0
  6  2  1  0
  7  6  2  0
 10  9  1  0
 11 10  2  0
 12 10  1  0
 13 12  1  1
 13 14  1  0
 13 15  1  0
 14  6  1  0
 15 20  1  0
 16 15  2  0
 18 17  1  0
 19 18  1  6
 19 21  1  0
 20 19  1  0
 21 23  2  0
 21 22  1  0
M  END
$$$$
