DNS.pdb
     RDKit          3D

 23 22  0  0  1  0  0  0  0  0999 V2000
   17.8875  -10.6204  -15.1399 N   0  0  0  0  0  0  0  0  0  0  0  0
   17.5589   -9.2244  -15.3207 C   0  0  1  0  0  0  0  0  0  0  0  0
   16.2110   -8.8984  -14.6705 C   0  0  0  0  0  0  0  0  0  0  0  0
   15.1445   -9.6417  -15.3807 C   0  0  0  0  0  0  0  0  0  0  0  0
   14.3414  -10.4028  -14.7682 O   0  0  0  0  0  0  0  0  0  0  0  0
   18.5682   -8.3963  -14.6069 C   0  0  0  0  0  0  0  0  0  0  0  0
   19.1090   -8.8673  -13.5851 O   0  0  0  0  0  0  0  0  0  0  0  0
   14.9860   -9.5317  -16.7429 O   0  0  0  0  0  0  0  0  0  0  0  0
   22.3756   -5.2201  -13.9581 N   0  0  0  0  0  0  0  0  0  0  0  0
   22.4584   -6.4772  -14.6100 C   0  0  0  0  0  0  0  0  0  0  0  0
   23.5953   -7.0076  -14.8128 O   0  0  0  0  0  0  0  0  0  0  0  0
   21.2579   -7.1856  -15.0590 C   0  0  0  0  0  0  0  0  0  0  0  0
   19.9990   -6.3831  -14.7081 C   0  0  2  0  0  0  0  0  0  0  0  0
   18.8501   -7.1224  -15.1365 N   0  0  0  0  0  0  0  0  0  0  0  0
   20.0743   -5.0205  -15.2645 C   0  0  0  0  0  0  0  0  0  0  0  0
   20.4011   -4.9061  -16.4756 O   0  0  0  0  0  0  0  0  0  0  0  0
   19.5158   -1.4548  -13.1726 O   0  0  0  0  0  0  0  0  0  0  0  0
   18.7741   -1.6189  -14.3157 C   0  0  0  0  0  0  0  0  0  0  0  0
   19.3986   -2.6512  -15.2252 C   0  0  2  0  0  0  0  0  0  0  0  0
   19.8101   -3.8356  -14.5500 N   0  0  0  0  0  0  0  0  0  0  0  0
   20.4969   -1.9751  -15.9641 C   0  0  0  0  0  0  0  0  0  0  0  0
   20.1797   -0.8442  -16.6859 O   0  0  0  0  0  0  0  0  0  0  0  0
   21.6818   -2.3843  -15.9583 O   0  0  0  0  0  0  0  0  0  0  0  0
  2  1  1  1
  2  3  1  0
  3  4  1  0
  4  8  1  0
  5  4  2  0
  6  2  1  0
  7  6  2  0
 10  9  1  0
 11 10  2  0
 12 10  1  0
 13 12  1  6
 13 14  1  0
 13 15  1  0
 14  6  1  0
 15 20  1  0
 16 15  2  0
 18 17  1  0
 19 18  1  1
 19 21  1  0
 20 19  1  0
 21 23  2  0
 21 22  1  0
M  END
$$$$
