DNS.pdb
     RDKit          3D

 23 22  0  0  1  0  0  0  0  0999 V2000
   16.8817  -11.9470  -14.3619 N   0  0  0  0  0  0  0  0  0  0  0  0
   16.1666  -10.6937  -14.2764 C   0  0  1  0  0  0  0  0  0  0  0  0
   14.6648  -10.9395  -14.1031 C   0  0  0  0  0  0  0  0  0  0  0  0
   14.0990  -11.3801  -15.3993 C   0  0  0  0  0  0  0  0  0  0  0  0
   13.2148  -12.2816  -15.4685 O   0  0  0  0  0  0  0  0  0  0  0  0
   16.6067   -9.9714  -13.0522 C   0  0  0  0  0  0  0  0  0  0  0  0
   16.5675  -10.5738  -11.9596 O   0  0  0  0  0  0  0  0  0  0  0  0
   14.5168  -10.8216  -16.5852 O   0  0  0  0  0  0  0  0  0  0  0  0
   19.9769   -9.0813  -12.7868 N   0  0  0  0  0  0  0  0  0  0  0  0
   19.8876   -7.6746  -12.9460 C   0  0  0  0  0  0  0  0  0  0  0  0
   20.8935   -7.0238  -13.3701 O   0  0  0  0  0  0  0  0  0  0  0  0
   18.6563   -6.9468  -12.6318 C   0  0  0  0  0  0  0  0  0  0  0  0
   17.5847   -7.9086  -12.1041 C   0  0  2  0  0  0  0  0  0  0  0  0
   17.0432   -8.6418  -13.2083 N   0  0  0  0  0  0  0  0  0  0  0  0
   16.5732   -7.1837  -11.3145 C   0  0  0  0  0  0  0  0  0  0  0  0
   15.7730   -6.4394  -11.9410 O   0  0  0  0  0  0  0  0  0  0  0  0
   14.6937   -8.3573   -8.0050 O   0  0  0  0  0  0  0  0  0  0  0  0
   15.0425   -7.0342   -7.8982 C   0  0  0  0  0  0  0  0  0  0  0  0
   15.4538   -6.4707   -9.2384 C   0  0  2  0  0  0  0  0  0  0  0  0
   16.4298   -7.2567   -9.9152 N   0  0  0  0  0  0  0  0  0  0  0  0
   15.8764   -5.0642   -9.0097 C   0  0  0  0  0  0  0  0  0  0  0  0
   14.9761   -4.2181   -8.3981 O   0  0  0  0  0  0  0  0  0  0  0  0
   17.0005   -4.6220   -9.3449 O   0  0  0  0  0  0  0  0  0  0  0  0
  2  1  1  1
  2  3  1  0
  3  4  1  0
  4  8  1  0
  5  4  2  0
  6  2  1  0
  7  6  2  0
 10  9  1  0
 11 10  2  0
 12 10  1  0
 13 12  1  6
 13 14  1  0
 13 15  1  0
 14  6  1  0
 15 20  1  0
 16 15  2  0
 18 17  1  0
 19 18  1  1
 19 21  1  0
 20 19  1  0
 21 23  2  0
 21 22  1  0
M  END
$$$$
