DNS.pdb
     RDKit          3D

 23 22  0  0  1  0  0  0  0  0999 V2000
   16.2787   -7.8204   -9.3647 N   0  0  0  0  0  0  0  0  0  0  0  0
   16.9514   -8.0102  -10.6301 C   0  0  1  0  0  0  0  0  0  0  0  0
   15.9359   -8.2571  -11.7498 C   0  0  0  0  0  0  0  0  0  0  0  0
   15.3668   -9.6153  -11.5890 C   0  0  0  0  0  0  0  0  0  0  0  0
   14.1430   -9.7986  -11.3283 O   0  0  0  0  0  0  0  0  0  0  0  0
   17.6605   -6.7529  -10.9911 C   0  0  0  0  0  0  0  0  0  0  0  0
   17.1094   -5.6634  -10.7312 O   0  0  0  0  0  0  0  0  0  0  0  0
   16.1533  -10.7368  -11.7182 O   0  0  0  0  0  0  0  0  0  0  0  0
   22.0584   -6.6877  -14.4070 N   0  0  0  0  0  0  0  0  0  0  0  0
   21.3027   -7.0459  -13.2613 C   0  0  0  0  0  0  0  0  0  0  0  0
   20.7408   -8.1846  -13.2082 O   0  0  0  0  0  0  0  0  0  0  0  0
   21.1517   -6.1300  -12.1286 C   0  0  0  0  0  0  0  0  0  0  0  0
   19.6837   -5.7181  -11.9640 C   0  0  2  0  0  0  0  0  0  0  0  0
   18.9200   -6.8759  -11.6087 N   0  0  0  0  0  0  0  0  0  0  0  0
   19.1950   -5.0271  -13.1706 C   0  0  0  0  0  0  0  0  0  0  0  0
   18.7054   -5.7385  -14.0876 O   0  0  0  0  0  0  0  0  0  0  0  0
   16.9963   -1.6001  -15.4259 O   0  0  0  0  0  0  0  0  0  0  0  0
   17.5203   -2.1072  -14.2632 C   0  0  0  0  0  0  0  0  0  0  0  0
   18.6606   -3.0562  -14.5495 C   0  0  2  0  0  0  0  0  0  0  0  0
   19.2318   -3.6348  -13.3802 N   0  0  0  0  0  0  0  0  0  0  0  0
   19.6414   -2.3198  -15.3892 C   0  0  0  0  0  0  0  0  0  0  0  0
   19.2492   -1.9576  -16.6602 O   0  0  0  0  0  0  0  0  0  0  0  0
   20.7930   -2.0191  -14.9957 O   0  0  0  0  0  0  0  0  0  0  0  0
  2  1  1  1
  2  3  1  0
  3  4  1  0
  4  8  1  0
  5  4  2  0
  6  2  1  0
  7  6  2  0
 10  9  1  0
 11 10  2  0
 12 10  1  0
 13 12  1  6
 13 14  1  0
 13 15  1  0
 14  6  1  0
 15 20  1  0
 16 15  2  0
 18 17  1  0
 19 18  1  1
 19 21  1  0
 20 19  1  0
 21 23  2  0
 21 22  1  0
M  END
$$$$
