DNS.pdb
     RDKit          3D

 23 22  0  0  1  0  0  0  0  0999 V2000
   23.0389   -9.9677  -18.0182 N   0  0  0  0  0  0  0  0  0  0  0  0
   21.8325   -9.6292  -18.7390 C   0  0  1  0  0  0  0  0  0  0  0  0
   20.8478  -10.8023  -18.7247 C   0  0  0  0  0  0  0  0  0  0  0  0
   21.3992  -11.9004  -19.5521 C   0  0  0  0  0  0  0  0  0  0  0  0
   22.3096  -11.6985  -20.4064 O   0  0  0  0  0  0  0  0  0  0  0  0
   21.1481   -8.5121  -18.0336 C   0  0  0  0  0  0  0  0  0  0  0  0
   20.0660   -8.0925  -18.4931 O   0  0  0  0  0  0  0  0  0  0  0  0
   20.9389  -13.1903  -19.4218 O   0  0  0  0  0  0  0  0  0  0  0  0
   19.5402   -8.7187  -14.6977 N   0  0  0  0  0  0  0  0  0  0  0  0
   20.6316   -8.1499  -13.9924 C   0  0  0  0  0  0  0  0  0  0  0  0
   20.8414   -8.4811  -12.7835 O   0  0  0  0  0  0  0  0  0  0  0  0
   21.5303   -7.1829  -14.6263 C   0  0  0  0  0  0  0  0  0  0  0  0
   21.1453   -6.9767  -16.0963 C   0  0  2  0  0  0  0  0  0  0  0  0
   21.7726   -7.9963  -16.8817 N   0  0  0  0  0  0  0  0  0  0  0  0
   21.4627   -5.6055  -16.5336 C   0  0  0  0  0  0  0  0  0  0  0  0
   22.6754   -5.3249  -16.7269 O   0  0  0  0  0  0  0  0  0  0  0  0
   19.0693   -3.4715  -18.8016 O   0  0  0  0  0  0  0  0  0  0  0  0
   19.7977   -2.6069  -18.0235 C   0  0  0  0  0  0  0  0  0  0  0  0
   20.9115   -3.3306  -17.3035 C   0  0  2  0  0  0  0  0  0  0  0  0
   20.5183   -4.5836  -16.7526 N   0  0  0  0  0  0  0  0  0  0  0  0
   21.4678   -2.3869  -16.2989 C   0  0  0  0  0  0  0  0  0  0  0  0
   21.9446   -1.1765  -16.7549 O   0  0  0  0  0  0  0  0  0  0  0  0
   21.5206   -2.6421  -15.0727 O   0  0  0  0  0  0  0  0  0  0  0  0
  2  1  1  1
  2  3  1  0
  3  4  1  0
  4  8  1  0
  5  4  2  0
  6  2  1  0
  7  6  2  0
 10  9  1  0
 11 10  2  0
 12 10  1  0
 13 12  1  1
 13 14  1  0
 13 15  1  0
 14  6  1  0
 15 20  1  0
 16 15  2  0
 18 17  1  0
 19 18  1  1
 19 21  1  0
 20 19  1  0
 21 23  2  0
 21 22  1  0
M  END
$$$$
