LAG.pdb
     RDKit          3D

 18 17  0  0  1  0  0  0  0  0999 V2000
   25.2014  -14.4599  -15.2450 C   0  0  0  0  0  0  0  0  0  0  0  0
   23.8385  -14.1690  -15.8826 C   0  0  1  0  0  0  0  0  0  0  0  0
   22.8218  -14.9766  -15.1428 C   0  0  0  0  0  0  0  0  0  0  0  0
   23.5728  -12.6961  -15.8939 C   0  0  0  0  0  0  0  0  0  0  0  0
   22.2549  -12.3962  -16.5471 C   0  0  2  0  0  0  0  0  0  0  0  0
   22.3176  -12.8315  -17.9222 N   0  0  0  0  0  0  0  0  0  0  0  0
   21.8786  -10.9653  -16.4315 C   0  0  0  0  0  0  0  0  0  0  0  0
   22.6011  -10.0611  -16.9391 O   0  0  0  0  0  0  0  0  0  0  0  0
   18.8357   -8.9793  -15.4349 C   0  0  0  0  0  0  0  0  0  0  0  0
   20.2999   -9.1568  -15.6698 C   0  0  2  0  0  0  0  0  0  0  0  0
   20.7062  -10.5314  -15.7564 N   0  0  0  0  0  0  0  0  0  0  0  0
   21.0563   -8.3978  -14.6503 C   0  0  0  0  0  0  0  0  0  0  0  0
   21.5403   -9.0045  -13.6606 O   0  0  0  0  0  0  0  0  0  0  0  0
   21.2441   -6.9956  -14.7717 N   0  0  0  0  0  0  0  0  0  0  0  0
   21.9941   -6.2047  -13.8430 C   0  0  0  0  0  0  0  0  0  0  0  0
   22.0652   -4.7667  -14.2599 C   0  0  0  0  0  0  0  0  0  0  0  0
   22.6813   -3.8895  -13.3765 O   0  0  0  0  0  0  0  0  0  0  0  0
   21.6025   -4.3634  -15.3355 O   0  0  0  0  0  0  0  0  0  0  0  0
  2  3  1  1
  2  1  1  0
  4  2  1  0
  5  7  1  0
  5  6  1  6
  5  4  1  0
  7  8  2  0
 10  9  1  1
 10 12  1  0
 11  7  1  0
 11 10  1  0
 12 13  2  0
 12 14  1  0
 14 15  1  0
 15 16  1  0
 16 18  2  0
 16 17  1  0
M  END
$$$$
