LAG.pdb
     RDKit          3D

 18 17  0  0  1  0  0  0  0  0999 V2000
   12.8084   -7.9308  -10.2934 C   0  0  0  0  0  0  0  0  0  0  0  0
   14.2362   -8.3261   -9.9015 C   0  0  1  0  0  0  0  0  0  0  0  0
   14.4114   -9.7663  -10.2598 C   0  0  0  0  0  0  0  0  0  0  0  0
   15.2260   -7.4027  -10.5400 C   0  0  0  0  0  0  0  0  0  0  0  0
   16.5920   -7.5911   -9.9470 C   0  0  2  0  0  0  0  0  0  0  0  0
   16.5772   -7.0824   -8.5960 N   0  0  0  0  0  0  0  0  0  0  0  0
   17.6570   -6.9631  -10.7679 C   0  0  0  0  0  0  0  0  0  0  0  0
   17.8371   -5.7123  -10.7508 O   0  0  0  0  0  0  0  0  0  0  0  0
   20.4624   -8.0971  -13.0577 C   0  0  0  0  0  0  0  0  0  0  0  0
   19.4819   -7.1203  -12.4965 C   0  0  2  0  0  0  0  0  0  0  0  0
   18.5231   -7.7138  -11.6074 N   0  0  0  0  0  0  0  0  0  0  0  0
   18.8504   -6.3680  -13.6024 C   0  0  0  0  0  0  0  0  0  0  0  0
   17.7200   -6.7222  -14.0250 O   0  0  0  0  0  0  0  0  0  0  0  0
   19.5006   -5.2528  -14.1938 N   0  0  0  0  0  0  0  0  0  0  0  0
   18.9513   -4.4834  -15.2695 C   0  0  0  0  0  0  0  0  0  0  0  0
   19.8653   -3.3717  -15.6880 C   0  0  0  0  0  0  0  0  0  0  0  0
   19.4505   -2.5912  -16.7596 O   0  0  0  0  0  0  0  0  0  0  0  0
   20.9412   -3.1460  -15.1175 O   0  0  0  0  0  0  0  0  0  0  0  0
  2  3  1  6
  2  1  1  0
  4  2  1  0
  5  7  1  0
  5  6  1  1
  5  4  1  0
  7  8  2  0
 10  9  1  6
 10 12  1  0
 11  7  1  0
 11 10  1  0
 12 13  2  0
 12 14  1  0
 14 15  1  0
 15 16  1  0
 16 18  2  0
 16 17  1  0
M  END
$$$$
