LAG.pdb
     RDKit          3D

 18 17  0  0  1  0  0  0  0  0999 V2000
   20.5701  -15.2612  -15.1911 C   0  0  0  0  0  0  0  0  0  0  0  0
   19.7718  -14.3583  -16.1377 C   0  0  1  0  0  0  0  0  0  0  0  0
   18.3278  -14.5147  -15.7863 C   0  0  0  0  0  0  0  0  0  0  0  0
   20.2792  -12.9520  -16.0670 C   0  0  0  0  0  0  0  0  0  0  0  0
   19.5572  -12.0738  -17.0473 C   0  0  2  0  0  0  0  0  0  0  0  0
   19.9660  -12.4463  -18.3809 N   0  0  0  0  0  0  0  0  0  0  0  0
   19.7736  -10.6302  -16.7802 C   0  0  0  0  0  0  0  0  0  0  0  0
   20.8918  -10.0880  -17.0103 O   0  0  0  0  0  0  0  0  0  0  0  0
   17.6456   -7.6353  -15.8648 C   0  0  0  0  0  0  0  0  0  0  0  0
   18.9309   -8.3766  -16.0356 C   0  0  2  0  0  0  0  0  0  0  0  0
   18.7577   -9.7844  -16.2595 N   0  0  0  0  0  0  0  0  0  0  0  0
   19.8228   -8.0826  -14.8930 C   0  0  0  0  0  0  0  0  0  0  0  0
   19.8282   -8.8525  -13.8985 O   0  0  0  0  0  0  0  0  0  0  0  0
   20.6726   -6.9450  -14.9018 N   0  0  0  0  0  0  0  0  0  0  0  0
   21.6539   -6.6707  -13.8956 C   0  0  0  0  0  0  0  0  0  0  0  0
   22.3850   -5.3891  -14.1594 C   0  0  0  0  0  0  0  0  0  0  0  0
   23.2514   -4.9480  -13.1673 O   0  0  0  0  0  0  0  0  0  0  0  0
   22.2358   -4.7425  -15.2051 O   0  0  0  0  0  0  0  0  0  0  0  0
  2  3  1  1
  2  1  1  0
  4  2  1  0
  5  7  1  0
  5  6  1  6
  5  4  1  0
  7  8  2  0
 10  9  1  1
 10 12  1  0
 11  7  1  0
 11 10  1  0
 12 13  2  0
 12 14  1  0
 14 15  1  0
 15 16  1  0
 16 18  2  0
 16 17  1  0
M  END
$$$$
