LAG.pdb
     RDKit          3D

 18 17  0  0  1  0  0  0  0  0999 V2000
   28.6322  -20.2836   -7.0699 C   0  0  0  0  0  0  0  0  0  0  0  0
   27.1636  -20.1089   -7.4715 C   0  0  1  0  0  0  0  0  0  0  0  0
   26.8527  -18.6494   -7.3908 C   0  0  0  0  0  0  0  0  0  0  0  0
   26.9141  -20.7235   -8.8132 C   0  0  0  0  0  0  0  0  0  0  0  0
   25.4777  -20.5590   -9.2172 C   0  0  2  0  0  0  0  0  0  0  0  0
   24.6554  -21.3013   -8.2915 N   0  0  0  0  0  0  0  0  0  0  0  0
   25.2361  -20.9617  -10.6250 C   0  0  0  0  0  0  0  0  0  0  0  0
   25.6368  -22.0792  -11.0583 O   0  0  0  0  0  0  0  0  0  0  0  0
   23.2634  -19.7116  -13.5971 C   0  0  0  0  0  0  0  0  0  0  0  0
   24.3663  -20.4726  -12.9374 C   0  0  2  0  0  0  0  0  0  0  0  0
   24.5528  -20.1327  -11.5548 N   0  0  0  0  0  0  0  0  0  0  0  0
   25.6042  -20.3334  -13.7348 C   0  0  0  0  0  0  0  0  0  0  0  0
   26.5264  -19.5857  -13.3197 O   0  0  0  0  0  0  0  0  0  0  0  0
   25.7671  -21.0306  -14.9610 N   0  0  0  0  0  0  0  0  0  0  0  0
   26.9308  -20.9321  -15.7897 C   0  0  0  0  0  0  0  0  0  0  0  0
   27.7335  -22.1978  -15.7825 C   0  0  0  0  0  0  0  0  0  0  0  0
   29.0133  -22.1234  -15.2474 O   0  0  0  0  0  0  0  0  0  0  0  0
   27.2930  -23.2662  -16.2276 O   0  0  0  0  0  0  0  0  0  0  0  0
  2  3  1  6
  2  1  1  0
  4  2  1  0
  5  7  1  0
  5  6  1  1
  5  4  1  0
  7  8  2  0
 10  9  1  6
 10 12  1  0
 11  7  1  0
 11 10  1  0
 12 13  2  0
 12 14  1  0
 14 15  1  0
 15 16  1  0
 16 18  2  0
 16 17  1  0
M  END
$$$$
