LAG.pdb
     RDKit          3D

 18 17  0  0  1  0  0  0  0  0999 V2000
   28.0387  -22.8043  -17.1553 C   0  0  0  0  0  0  0  0  0  0  0  0
   27.7547  -21.8784  -15.9675 C   0  0  1  0  0  0  0  0  0  0  0  0
   29.0265  -21.7472  -15.1940 C   0  0  0  0  0  0  0  0  0  0  0  0
   27.1815  -20.5806  -16.4445 C   0  0  0  0  0  0  0  0  0  0  0  0
   26.8305  -19.6937  -15.2853 C   0  0  2  0  0  0  0  0  0  0  0  0
   26.2442  -20.5090  -14.2481 N   0  0  0  0  0  0  0  0  0  0  0  0
   25.9443  -18.5707  -15.6801 C   0  0  0  0  0  0  0  0  0  0  0  0
   26.2974  -17.7478  -16.5720 O   0  0  0  0  0  0  0  0  0  0  0  0
   22.3898  -17.4604  -14.9672 C   0  0  0  0  0  0  0  0  0  0  0  0
   23.7829  -17.2935  -15.4792 C   0  0  2  0  0  0  0  0  0  0  0  0
   24.6693  -18.3547  -15.0917 N   0  0  0  0  0  0  0  0  0  0  0  0
   24.2883  -15.9562  -15.1002 C   0  0  0  0  0  0  0  0  0  0  0  0
   24.9201  -15.8167  -14.0217 O   0  0  0  0  0  0  0  0  0  0  0  0
   24.0713  -14.8282  -15.9349 N   0  0  0  0  0  0  0  0  0  0  0  0
   24.6062  -13.5254  -15.6758 C   0  0  0  0  0  0  0  0  0  0  0  0
   24.1772  -12.5271  -16.7082 C   0  0  0  0  0  0  0  0  0  0  0  0
   24.5939  -11.2153  -16.5205 O   0  0  0  0  0  0  0  0  0  0  0  0
   23.4852  -12.8393  -17.6866 O   0  0  0  0  0  0  0  0  0  0  0  0
  2  3  1  6
  2  1  1  0
  4  2  1  0
  5  7  1  0
  5  6  1  1
  5  4  1  0
  7  8  2  0
 10  9  1  1
 10 12  1  0
 11  7  1  0
 11 10  1  0
 12 13  2  0
 12 14  1  0
 14 15  1  0
 15 16  1  0
 16 18  2  0
 16 17  1  0
M  END
$$$$
