LAG.pdb
     RDKit          3D

 18 17  0  0  1  0  0  0  0  0999 V2000
   14.8544   -8.9305  -17.5834 C   0  0  0  0  0  0  0  0  0  0  0  0
   16.1186   -9.6228  -17.0627 C   0  0  1  0  0  0  0  0  0  0  0  0
   17.0186   -9.8420  -18.2353 C   0  0  0  0  0  0  0  0  0  0  0  0
   16.7287   -8.8259  -15.9523 C   0  0  0  0  0  0  0  0  0  0  0  0
   17.9787   -9.4853  -15.4460 C   0  0  2  0  0  0  0  0  0  0  0  0
   17.6002  -10.5985  -14.6083 N   0  0  0  0  0  0  0  0  0  0  0  0
   18.8738   -8.5350  -14.7403 C   0  0  0  0  0  0  0  0  0  0  0  0
   18.5339   -8.0203  -13.6372 O   0  0  0  0  0  0  0  0  0  0  0  0
   22.4462   -7.4606  -14.7713 C   0  0  0  0  0  0  0  0  0  0  0  0
   20.9880   -7.1707  -14.6297 C   0  0  2  0  0  0  0  0  0  0  0  0
   20.1434   -8.1522  -15.2505 N   0  0  0  0  0  0  0  0  0  0  0  0
   20.7127   -5.7960  -15.1009 C   0  0  0  0  0  0  0  0  0  0  0  0
   20.3155   -5.6144  -16.2804 O   0  0  0  0  0  0  0  0  0  0  0  0
   20.8899   -4.6789  -14.2424 N   0  0  0  0  0  0  0  0  0  0  0  0
   20.7174   -3.3179  -14.6531 C   0  0  0  0  0  0  0  0  0  0  0  0
   20.9027   -2.3605  -13.5150 C   0  0  0  0  0  0  0  0  0  0  0  0
   22.1903   -2.2316  -13.0098 O   0  0  0  0  0  0  0  0  0  0  0  0
   19.9650   -1.7084  -13.0363 O   0  0  0  0  0  0  0  0  0  0  0  0
  2  3  1  6
  2  1  1  0
  4  2  1  0
  5  7  1  0
  5  6  1  1
  5  4  1  0
  7  8  2  0
 10  9  1  6
 10 12  1  0
 11  7  1  0
 11 10  1  0
 12 13  2  0
 12 14  1  0
 14 15  1  0
 15 16  1  0
 16 18  2  0
 16 17  1  0
M  END
$$$$
