LAG.pdb
     RDKit          3D

 18 17  0  0  1  0  0  0  0  0999 V2000
   29.6347  -18.8502   -5.3306 C   0  0  0  0  0  0  0  0  0  0  0  0
   28.3506  -19.6521   -5.5688 C   0  0  1  0  0  0  0  0  0  0  0  0
   27.5231  -19.5420   -4.3293 C   0  0  0  0  0  0  0  0  0  0  0  0
   27.6673  -19.1828   -6.8151 C   0  0  0  0  0  0  0  0  0  0  0  0
   26.6893  -20.2098   -7.3069 C   0  0  2  0  0  0  0  0  0  0  0  0
   27.2968  -21.5138   -7.1849 N   0  0  0  0  0  0  0  0  0  0  0  0
   26.2292  -19.9360   -8.6910 C   0  0  0  0  0  0  0  0  0  0  0  0
   26.0880  -18.7505   -9.1055 O   0  0  0  0  0  0  0  0  0  0  0  0
   26.0213  -21.7409  -11.9430 C   0  0  0  0  0  0  0  0  0  0  0  0
   25.5114  -20.7273  -10.9718 C   0  0  2  0  0  0  0  0  0  0  0  0
   25.9249  -20.9688   -9.6180 N   0  0  0  0  0  0  0  0  0  0  0  0
   24.0438  -20.6085  -11.1113 C   0  0  0  0  0  0  0  0  0  0  0  0
   23.2967  -21.0988  -10.2262 O   0  0  0  0  0  0  0  0  0  0  0  0
   23.4658  -19.9497  -12.2285 N   0  0  0  0  0  0  0  0  0  0  0  0
   22.0574  -19.7615  -12.4067 C   0  0  0  0  0  0  0  0  0  0  0  0
   21.3966  -20.9790  -12.9790 C   0  0  0  0  0  0  0  0  0  0  0  0
   21.7054  -21.2973  -14.2954 O   0  0  0  0  0  0  0  0  0  0  0  0
   20.6114  -21.6781  -12.3245 O   0  0  0  0  0  0  0  0  0  0  0  0
  2  3  1  1
  2  1  1  0
  4  2  1  0
  5  7  1  0
  5  6  1  6
  5  4  1  0
  7  8  2  0
 10  9  1  6
 10 12  1  0
 11  7  1  0
 11 10  1  0
 12 13  2  0
 12 14  1  0
 14 15  1  0
 15 16  1  0
 16 18  2  0
 16 17  1  0
M  END
$$$$
