LAG.pdb
     RDKit          3D

 18 17  0  0  1  0  0  0  0  0999 V2000
   20.3808  -14.3534  -20.6880 C   0  0  0  0  0  0  0  0  0  0  0  0
   20.9473  -14.2432  -19.2683 C   0  0  1  0  0  0  0  0  0  0  0  0
   22.4102  -13.9659  -19.3952 C   0  0  0  0  0  0  0  0  0  0  0  0
   20.1874  -13.2208  -18.4825 C   0  0  0  0  0  0  0  0  0  0  0  0
   21.0915  -12.5066  -17.5202 C   0  0  2  0  0  0  0  0  0  0  0  0
   21.1470  -13.2684  -16.2952 N   0  0  0  0  0  0  0  0  0  0  0  0
   20.6723  -11.1025  -17.2856 C   0  0  0  0  0  0  0  0  0  0  0  0
   20.8127  -10.2244  -18.1836 O   0  0  0  0  0  0  0  0  0  0  0  0
   18.4541   -9.2007  -14.9846 C   0  0  0  0  0  0  0  0  0  0  0  0
   19.6946   -9.3117  -15.8089 C   0  0  2  0  0  0  0  0  0  0  0  0
   20.0983  -10.6665  -16.0612 N   0  0  0  0  0  0  0  0  0  0  0  0
   20.7665   -8.4981  -15.1950 C   0  0  0  0  0  0  0  0  0  0  0  0
   21.5483   -9.0297  -14.3655 O   0  0  0  0  0  0  0  0  0  0  0  0
   20.9262   -7.1270  -15.5278 N   0  0  0  0  0  0  0  0  0  0  0  0
   22.0108   -6.3125  -15.0685 C   0  0  0  0  0  0  0  0  0  0  0  0
   21.7767   -5.7968  -13.6808 C   0  0  0  0  0  0  0  0  0  0  0  0
   22.7481   -4.9546  -13.1548 O   0  0  0  0  0  0  0  0  0  0  0  0
   20.7723   -6.0968  -13.0214 O   0  0  0  0  0  0  0  0  0  0  0  0
  2  3  1  6
  2  1  1  0
  4  2  1  0
  5  7  1  0
  5  6  1  1
  5  4  1  0
  7  8  2  0
 10  9  1  1
 10 12  1  0
 11  7  1  0
 11 10  1  0
 12 13  2  0
 12 14  1  0
 14 15  1  0
 15 16  1  0
 16 18  2  0
 16 17  1  0
M  END
$$$$
