WTN.pdb
     RDKit          3D

 30 31  0  0  1  0  0  0  0  0999 V2000
    6.2631  -17.1998   24.2731 N   0  0  0  0  0  0  0  0  0  0  0  0
    6.9677  -16.0139   23.8289 C   0  0  1  0  0  0  0  0  0  0  0  0
    7.8575  -15.4379   24.8810 C   0  0  0  0  0  0  0  0  0  0  0  0
    7.0013  -14.7729   25.8933 C   0  0  0  0  0  0  0  0  0  0  0  0
    6.1694  -15.3589   26.8327 C   0  0  0  0  0  0  0  0  0  0  0  0
    5.5893  -14.3912   27.5346 N   0  0  0  0  0  0  0  0  0  0  0  0
    6.0210  -13.1960   27.0774 C   0  0  0  0  0  0  0  0  0  0  0  0
    5.7397  -11.8960   27.4463 C   0  0  0  0  0  0  0  0  0  0  0  0
    6.3351  -10.8360   26.7960 C   0  0  0  0  0  0  0  0  0  0  0  0
    7.2252  -11.0617   25.7618 C   0  0  0  0  0  0  0  0  0  0  0  0
    7.5300  -12.3615   25.3658 C   0  0  0  0  0  0  0  0  0  0  0  0
    6.9165  -13.4015   26.0378 C   0  0  0  0  0  0  0  0  0  0  0  0
    7.6801  -16.3213   22.5592 C   0  0  0  0  0  0  0  0  0  0  0  0
    8.1605  -17.4755   22.4177 O   0  0  0  0  0  0  0  0  0  0  0  0
    7.0572  -13.9764   19.3207 C   0  0  0  0  0  0  0  0  0  0  0  0
    8.4144  -14.6274   19.2609 C   0  0  1  0  0  0  0  0  0  0  0  0
    9.3636  -13.6790   19.6712 O   0  0  0  0  0  0  0  0  0  0  0  0
    8.4869  -15.7609   20.2819 C   0  0  2  0  0  0  0  0  0  0  0  0
    7.8459  -15.4021   21.5162 N   0  0  0  0  0  0  0  0  0  0  0  0
    9.9227  -16.0776   20.4538 C   0  0  0  0  0  0  0  0  0  0  0  0
   10.5663  -15.4351   21.3223 O   0  0  0  0  0  0  0  0  0  0  0  0
   12.4664  -18.8117   22.7035 N   0  0  0  0  0  0  0  0  0  0  0  0
   11.8361  -19.1730   21.4899 C   0  0  0  0  0  0  0  0  0  0  0  0
   10.7875  -19.8909   21.5904 O   0  0  0  0  0  0  0  0  0  0  0  0
   12.2825  -18.7912   20.1412 C   0  0  0  0  0  0  0  0  0  0  0  0
   12.0379  -17.3498   19.8963 C   0  0  2  0  0  0  0  0  0  0  0  0
   10.6115  -17.0536   19.7050 N   0  0  0  0  0  0  0  0  0  0  0  0
   12.7477  -16.8744   18.6917 C   0  0  0  0  0  0  0  0  0  0  0  0
   12.0817  -16.4542   17.6845 O   0  0  0  0  0  0  0  0  0  0  0  0
   14.1239  -16.8483   18.5660 O   0  0  0  0  0  0  0  0  0  0  0  0
  2  1  1  1
  2 13  1  0
  2  3  1  0
  3  4  1  0
  4 12  1  0
  4  5  2  0
  5  6  1  0
  7  6  1  0
  7  8  2  0
  9  8  1  0
 10  9  2  0
 11 12  2  0
 11 10  1  0
 12  7  1  0
 13 19  1  0
 14 13  2  0
 16 15  1  1
 16 17  1  0
 16 18  1  0
 18 20  1  0
 18 19  1  1
 20 27  1  0
 21 20  2  0
 22 23  1  0
 23 24  2  0
 25 23  1  0
 26 25  1  6
 26 28  1  0
 27 26  1  0
 28 29  2  0
 28 30  1  0
M  END
$$$$
