WTN.pdb
     RDKit          3D

 30 31  0  0  1  0  0  0  0  0999 V2000
    6.8659  -17.4420   25.4354 N   0  0  0  0  0  0  0  0  0  0  0  0
    6.7383  -16.7875   24.1488 C   0  0  1  0  0  0  0  0  0  0  0  0
    6.3853  -15.3409   24.2647 C   0  0  0  0  0  0  0  0  0  0  0  0
    6.7856  -14.8772   25.6155 C   0  0  0  0  0  0  0  0  0  0  0  0
    7.1729  -15.6392   26.7051 C   0  0  0  0  0  0  0  0  0  0  0  0
    7.4427  -14.8158   27.7126 N   0  0  0  0  0  0  0  0  0  0  0  0
    7.2416  -13.5433   27.3075 C   0  0  0  0  0  0  0  0  0  0  0  0
    7.3725  -12.3264   27.9456 C   0  0  0  0  0  0  0  0  0  0  0  0
    7.0954  -11.1505   27.2810 C   0  0  0  0  0  0  0  0  0  0  0  0
    6.6812  -11.1745   25.9617 C   0  0  0  0  0  0  0  0  0  0  0  0
    6.5393  -12.3860   25.2899 C   0  0  0  0  0  0  0  0  0  0  0  0
    6.8249  -13.5462   25.9841 C   0  0  0  0  0  0  0  0  0  0  0  0
    7.9752  -17.0298   23.3578 C   0  0  0  0  0  0  0  0  0  0  0  0
    8.8212  -17.8384   23.8199 O   0  0  0  0  0  0  0  0  0  0  0  0
    7.9805  -16.0863   19.4109 C   0  0  0  0  0  0  0  0  0  0  0  0
    9.3749  -16.0705   19.9807 C   0  0  1  0  0  0  0  0  0  0  0  0
    9.7159  -14.7351   20.2434 O   0  0  0  0  0  0  0  0  0  0  0  0
    9.3860  -16.7793   21.3335 C   0  0  2  0  0  0  0  0  0  0  0  0
    8.2505  -16.4113   22.1323 N   0  0  0  0  0  0  0  0  0  0  0  0
   10.6739  -16.4333   21.9761 C   0  0  0  0  0  0  0  0  0  0  0  0
   10.6641  -15.5565   22.8775 O   0  0  0  0  0  0  0  0  0  0  0  0
   15.9427  -18.7495   23.5219 N   0  0  0  0  0  0  0  0  0  0  0  0
   14.7118  -18.1394   23.8586 C   0  0  0  0  0  0  0  0  0  0  0  0
   14.7023  -17.4370   24.9223 O   0  0  0  0  0  0  0  0  0  0  0  0
   13.4609  -18.2444   23.0916 C   0  0  0  0  0  0  0  0  0  0  0  0
   13.0987  -16.9356   22.4973 C   0  0  2  0  0  0  0  0  0  0  0  0
   11.9086  -17.0255   21.6403 N   0  0  0  0  0  0  0  0  0  0  0  0
   14.1936  -16.3928   21.6681 C   0  0  0  0  0  0  0  0  0  0  0  0
   15.0481  -15.5946   22.1850 O   0  0  0  0  0  0  0  0  0  0  0  0
   14.3708  -16.6922   20.3304 O   0  0  0  0  0  0  0  0  0  0  0  0
  2  1  1  1
  2 13  1  0
  2  3  1  0
  3  4  1  0
  4 12  1  0
  4  5  2  0
  5  6  1  0
  7  6  1  0
  7  8  2  0
  9  8  1  0
 10  9  2  0
 11 12  2  0
 11 10  1  0
 12  7  1  0
 13 19  1  0
 14 13  2  0
 16 15  1  1
 16 17  1  0
 16 18  1  0
 18 20  1  0
 18 19  1  1
 20 27  1  0
 21 20  2  0
 22 23  1  0
 23 24  2  0
 25 23  1  0
 26 25  1  6
 26 28  1  0
 27 26  1  0
 28 29  2  0
 28 30  1  0
M  END
$$$$
