WTN.pdb
     RDKit          3D

 30 31  0  0  1  0  0  0  0  0999 V2000
    6.4228  -17.6056   24.3369 N   0  0  0  0  0  0  0  0  0  0  0  0
    7.3515  -16.6625   23.7466 C   0  0  1  0  0  0  0  0  0  0  0  0
    8.1481  -15.9157   24.7655 C   0  0  0  0  0  0  0  0  0  0  0  0
    7.2267  -15.0125   25.4972 C   0  0  0  0  0  0  0  0  0  0  0  0
    6.0974  -15.3453   26.2263 C   0  0  0  0  0  0  0  0  0  0  0  0
    5.5720  -14.2256   26.7120 N   0  0  0  0  0  0  0  0  0  0  0  0
    6.3278  -13.1777   26.3190 C   0  0  0  0  0  0  0  0  0  0  0  0
    6.2313  -11.8188   26.5410 C   0  0  0  0  0  0  0  0  0  0  0  0
    7.1616  -10.9515   26.0088 C   0  0  0  0  0  0  0  0  0  0  0  0
    8.2076  -11.4329   25.2427 C   0  0  0  0  0  0  0  0  0  0  0  0
    8.3329  -12.7985   25.0003 C   0  0  0  0  0  0  0  0  0  0  0  0
    7.3842  -13.6408   25.5479 C   0  0  0  0  0  0  0  0  0  0  0  0
    8.1935  -17.3737   22.7470 C   0  0  0  0  0  0  0  0  0  0  0  0
    8.6431  -18.5077   23.0553 O   0  0  0  0  0  0  0  0  0  0  0  0
    7.7794  -17.1285   18.7642 C   0  0  0  0  0  0  0  0  0  0  0  0
    9.2331  -17.0514   19.1515 C   0  0  1  0  0  0  0  0  0  0  0  0
    9.6066  -15.6989   19.1494 O   0  0  0  0  0  0  0  0  0  0  0  0
    9.4084  -17.5319   20.5905 C   0  0  2  0  0  0  0  0  0  0  0  0
    8.5132  -16.8546   21.4866 N   0  0  0  0  0  0  0  0  0  0  0  0
   10.8323  -17.3161   20.9329 C   0  0  0  0  0  0  0  0  0  0  0  0
   11.1593  -16.1996   21.4102 O   0  0  0  0  0  0  0  0  0  0  0  0
   12.5124  -19.9636   23.9245 N   0  0  0  0  0  0  0  0  0  0  0  0
   13.3593  -19.0274   23.2865 C   0  0  0  0  0  0  0  0  0  0  0  0
   13.7280  -18.0295   23.9888 O   0  0  0  0  0  0  0  0  0  0  0  0
   13.8450  -19.1110   21.9004 C   0  0  0  0  0  0  0  0  0  0  0  0
   13.2554  -18.0321   21.0722 C   0  0  2  0  0  0  0  0  0  0  0  0
   11.8426  -18.2837   20.7569 N   0  0  0  0  0  0  0  0  0  0  0  0
   13.9688  -17.8804   19.7881 C   0  0  0  0  0  0  0  0  0  0  0  0
   15.2265  -17.6504   19.7817 O   0  0  0  0  0  0  0  0  0  0  0  0
   13.3597  -17.9712   18.5507 O   0  0  0  0  0  0  0  0  0  0  0  0
  2  1  1  1
  2 13  1  0
  2  3  1  0
  3  4  1  0
  4 12  1  0
  4  5  2  0
  5  6  1  0
  7  6  1  0
  7  8  2  0
  9  8  1  0
 10  9  2  0
 11 12  2  0
 11 10  1  0
 12  7  1  0
 13 19  1  0
 14 13  2  0
 16 15  1  1
 16 17  1  0
 16 18  1  0
 18 20  1  0
 18 19  1  1
 20 27  1  0
 21 20  2  0
 22 23  1  0
 23 24  2  0
 25 23  1  0
 26 25  1  6
 26 28  1  0
 27 26  1  0
 28 29  2  0
 28 30  1  0
M  END
$$$$
