WTN.pdb
     RDKit          3D

 30 31  0  0  1  0  0  0  0  0999 V2000
    7.1789  -17.7993   24.2562 N   0  0  0  0  0  0  0  0  0  0  0  0
    8.1168  -16.7598   23.8820 C   0  0  1  0  0  0  0  0  0  0  0  0
    8.5863  -15.9531   25.0479 C   0  0  0  0  0  0  0  0  0  0  0  0
    7.4523  -15.1196   25.5163 C   0  0  0  0  0  0  0  0  0  0  0  0
    6.1806  -15.5278   25.8825 C   0  0  0  0  0  0  0  0  0  0  0  0
    5.4848  -14.4520   26.2351 N   0  0  0  0  0  0  0  0  0  0  0  0
    6.2685  -13.3594   26.1080 C   0  0  0  0  0  0  0  0  0  0  0  0
    6.0463  -12.0167   26.3379 C   0  0  0  0  0  0  0  0  0  0  0  0
    7.0453  -11.0914   26.1212 C   0  0  0  0  0  0  0  0  0  0  0  0
    8.2877  -11.4976   25.6691 C   0  0  0  0  0  0  0  0  0  0  0  0
    8.5435  -12.8450   25.4277 C   0  0  0  0  0  0  0  0  0  0  0  0
    7.5213  -13.7467   25.6547 C   0  0  0  0  0  0  0  0  0  0  0  0
    9.2281  -17.3686   23.1019 C   0  0  0  0  0  0  0  0  0  0  0  0
    9.6381  -18.5061   23.4497 O   0  0  0  0  0  0  0  0  0  0  0  0
   12.3764  -17.4244   19.3109 C   0  0  0  0  0  0  0  0  0  0  0  0
   11.2051  -16.7428   19.9688 C   0  0  1  0  0  0  0  0  0  0  0  0
   10.0495  -17.0887   19.2521 O   0  0  0  0  0  0  0  0  0  0  0  0
   11.0081  -17.3024   21.3761 C   0  0  2  0  0  0  0  0  0  0  0  0
    9.8416  -16.7497   22.0060 N   0  0  0  0  0  0  0  0  0  0  0  0
   12.2536  -17.0094   22.1207 C   0  0  0  0  0  0  0  0  0  0  0  0
   12.3857  -15.8612   22.6161 O   0  0  0  0  0  0  0  0  0  0  0  0
   13.4229  -19.1164   25.2480 N   0  0  0  0  0  0  0  0  0  0  0  0
   14.5851  -19.5575   24.5729 C   0  0  0  0  0  0  0  0  0  0  0  0
   15.0853  -20.6600   24.9718 O   0  0  0  0  0  0  0  0  0  0  0  0
   15.2523  -18.8604   23.4625 C   0  0  0  0  0  0  0  0  0  0  0  0
   14.5063  -17.6351   23.0888 C   0  0  2  0  0  0  0  0  0  0  0  0
   13.2987  -17.9370   22.3081 N   0  0  0  0  0  0  0  0  0  0  0  0
   15.3338  -16.7208   22.2765 C   0  0  0  0  0  0  0  0  0  0  0  0
   16.1620  -15.9330   22.8494 O   0  0  0  0  0  0  0  0  0  0  0  0
   15.2793  -16.6493   20.8972 O   0  0  0  0  0  0  0  0  0  0  0  0
  2  1  1  1
  2 13  1  0
  2  3  1  0
  3  4  1  0
  4 12  1  0
  4  5  2  0
  5  6  1  0
  7  6  1  0
  7  8  2  0
  9  8  1  0
 10  9  2  0
 11 12  2  0
 11 10  1  0
 12  7  1  0
 13 19  1  0
 14 13  2  0
 16 15  1  6
 16 17  1  0
 16 18  1  0
 18 20  1  0
 18 19  1  1
 20 27  1  0
 21 20  2  0
 22 23  1  0
 23 24  2  0
 25 23  1  0
 26 25  1  6
 26 28  1  0
 27 26  1  0
 28 29  2  0
 28 30  1  0
M  END
$$$$
