WTN.pdb
     RDKit          3D

 30 31  0  0  1  0  0  0  0  0999 V2000
    6.5466  -17.4507   24.7060 N   0  0  0  0  0  0  0  0  0  0  0  0
    7.2077  -16.3365   24.0566 C   0  0  1  0  0  0  0  0  0  0  0  0
    8.1712  -15.6297   24.9525 C   0  0  0  0  0  0  0  0  0  0  0  0
    7.3906  -14.8856   25.9707 C   0  0  0  0  0  0  0  0  0  0  0  0
    6.7551  -15.3816   27.0968 C   0  0  0  0  0  0  0  0  0  0  0  0
    6.1742  -14.3661   27.7269 N   0  0  0  0  0  0  0  0  0  0  0  0
    6.4149  -13.2272   27.0421 C   0  0  0  0  0  0  0  0  0  0  0  0
    6.0502  -11.9130   27.2543 C   0  0  0  0  0  0  0  0  0  0  0  0
    6.4410  -10.9243   26.3763 C   0  0  0  0  0  0  0  0  0  0  0  0
    7.2063  -11.2370   25.2676 C   0  0  0  0  0  0  0  0  0  0  0  0
    7.5906  -12.5534   25.0254 C   0  0  0  0  0  0  0  0  0  0  0  0
    7.1826  -13.5205   25.9242 C   0  0  0  0  0  0  0  0  0  0  0  0
    7.8235  -16.8117   22.7881 C   0  0  0  0  0  0  0  0  0  0  0  0
    8.3204  -17.9675   22.7711 O   0  0  0  0  0  0  0  0  0  0  0  0
    6.9320  -15.3560   19.2027 C   0  0  0  0  0  0  0  0  0  0  0  0
    8.4170  -15.6008   19.2658 C   0  0  1  0  0  0  0  0  0  0  0  0
    9.0512  -14.3574   19.4087 O   0  0  0  0  0  0  0  0  0  0  0  0
    8.7551  -16.3907   20.5284 C   0  0  2  0  0  0  0  0  0  0  0  0
    7.8814  -16.0484   21.6158 N   0  0  0  0  0  0  0  0  0  0  0  0
   10.1777  -16.1115   20.8279 C   0  0  0  0  0  0  0  0  0  0  0  0
   10.4349  -15.2768   21.7326 O   0  0  0  0  0  0  0  0  0  0  0  0
   13.5169  -20.3303   22.4091 N   0  0  0  0  0  0  0  0  0  0  0  0
   13.1430  -18.9687   22.4941 C   0  0  0  0  0  0  0  0  0  0  0  0
   13.8965  -18.2194   23.1981 O   0  0  0  0  0  0  0  0  0  0  0  0
   11.9750  -18.3547   21.8438 C   0  0  0  0  0  0  0  0  0  0  0  0
   12.4001  -17.3209   20.8702 C   0  0  2  0  0  0  0  0  0  0  0  0
   11.2599  -16.7229   20.1623 N   0  0  0  0  0  0  0  0  0  0  0  0
   13.3063  -17.8779   19.8459 C   0  0  0  0  0  0  0  0  0  0  0  0
   14.5515  -17.5893   19.8726 O   0  0  0  0  0  0  0  0  0  0  0  0
   12.8968  -18.7160   18.8259 O   0  0  0  0  0  0  0  0  0  0  0  0
  2  1  1  1
  2 13  1  0
  2  3  1  0
  3  4  1  0
  4 12  1  0
  4  5  2  0
  5  6  1  0
  7  6  1  0
  7  8  2  0
  9  8  1  0
 10  9  2  0
 11 12  2  0
 11 10  1  0
 12  7  1  0
 13 19  1  0
 14 13  2  0
 16 15  1  1
 16 17  1  0
 16 18  1  0
 18 20  1  0
 18 19  1  1
 20 27  1  0
 21 20  2  0
 22 23  1  0
 23 24  2  0
 25 23  1  0
 26 25  1  1
 26 28  1  0
 27 26  1  0
 28 29  2  0
 28 30  1  0
M  END
$$$$
