WTN.pdb
     RDKit          3D

 30 31  0  0  1  0  0  0  0  0999 V2000
    6.3620  -17.5937   24.8207 N   0  0  0  0  0  0  0  0  0  0  0  0
    7.0902  -16.5048   24.2008 C   0  0  1  0  0  0  0  0  0  0  0  0
    7.9867  -15.7869   25.1556 C   0  0  0  0  0  0  0  0  0  0  0  0
    7.1493  -14.8813   25.9794 C   0  0  0  0  0  0  0  0  0  0  0  0
    6.1251  -15.2141   26.8500 C   0  0  0  0  0  0  0  0  0  0  0  0
    5.6465  -14.0917   27.3763 N   0  0  0  0  0  0  0  0  0  0  0  0
    6.3306  -13.0421   26.8721 C   0  0  0  0  0  0  0  0  0  0  0  0
    6.2408  -11.6803   27.0788 C   0  0  0  0  0  0  0  0  0  0  0  0
    7.0837  -10.8118   26.4183 C   0  0  0  0  0  0  0  0  0  0  0  0
    8.0336  -11.2949   25.5368 C   0  0  0  0  0  0  0  0  0  0  0  0
    8.1495  -12.6633   25.3065 C   0  0  0  0  0  0  0  0  0  0  0  0
    7.2900  -13.5068   25.9841 C   0  0  0  0  0  0  0  0  0  0  0  0
    7.8016  -17.0203   22.9998 C   0  0  0  0  0  0  0  0  0  0  0  0
    8.3104  -18.1692   23.0642 O   0  0  0  0  0  0  0  0  0  0  0  0
    7.2499  -15.7872   19.1921 C   0  0  0  0  0  0  0  0  0  0  0  0
    8.7174  -15.8590   19.5245 C   0  0  1  0  0  0  0  0  0  0  0  0
    9.1585  -14.5566   19.8034 O   0  0  0  0  0  0  0  0  0  0  0  0
    8.9147  -16.6530   20.8141 C   0  0  2  0  0  0  0  0  0  0  0  0
    7.9368  -16.3018   21.8057 N   0  0  0  0  0  0  0  0  0  0  0  0
   10.3015  -16.3890   21.2596 C   0  0  0  0  0  0  0  0  0  0  0  0
   10.4739  -15.5449   22.1756 O   0  0  0  0  0  0  0  0  0  0  0  0
   14.0286  -18.5348   24.4097 N   0  0  0  0  0  0  0  0  0  0  0  0
   13.5618  -18.9357   23.1361 C   0  0  0  0  0  0  0  0  0  0  0  0
   14.2863  -19.7757   22.5081 O   0  0  0  0  0  0  0  0  0  0  0  0
   12.3254  -18.4722   22.4875 C   0  0  0  0  0  0  0  0  0  0  0  0
   12.6144  -17.3802   21.5276 C   0  0  2  0  0  0  0  0  0  0  0  0
   11.4389  -17.0249   20.7209 N   0  0  0  0  0  0  0  0  0  0  0  0
   13.6918  -17.7520   20.5886 C   0  0  0  0  0  0  0  0  0  0  0  0
   14.8938  -17.3832   20.8204 O   0  0  0  0  0  0  0  0  0  0  0  0
   13.4929  -18.4936   19.4393 O   0  0  0  0  0  0  0  0  0  0  0  0
  2  1  1  1
  2 13  1  0
  2  3  1  0
  3  4  1  0
  4 12  1  0
  4  5  2  0
  5  6  1  0
  7  6  1  0
  7  8  2  0
  9  8  1  0
 10  9  2  0
 11 12  2  0
 11 10  1  0
 12  7  1  0
 13 19  1  0
 14 13  2  0
 16 15  1  1
 16 17  1  0
 16 18  1  0
 18 20  1  0
 18 19  1  1
 20 27  1  0
 21 20  2  0
 22 23  1  0
 23 24  2  0
 25 23  1  0
 26 25  1  1
 26 28  1  0
 27 26  1  0
 28 29  2  0
 28 30  1  0
M  END
$$$$
