WTN.pdb
     RDKit          3D

 30 31  0  0  1  0  0  0  0  0999 V2000
    6.3896  -17.5925   24.4543 N   0  0  0  0  0  0  0  0  0  0  0  0
    7.2089  -16.5616   23.8491 C   0  0  1  0  0  0  0  0  0  0  0  0
    8.0146  -15.7980   24.8482 C   0  0  0  0  0  0  0  0  0  0  0  0
    7.1028  -14.8711   25.5618 C   0  0  0  0  0  0  0  0  0  0  0  0
    5.9154  -15.1651   26.2110 C   0  0  0  0  0  0  0  0  0  0  0  0
    5.4248  -14.0358   26.7106 N   0  0  0  0  0  0  0  0  0  0  0  0
    6.2595  -13.0193   26.4042 C   0  0  0  0  0  0  0  0  0  0  0  0
    6.2253  -11.6662   26.6751 C   0  0  0  0  0  0  0  0  0  0  0  0
    7.2321  -10.8348   26.2325 C   0  0  0  0  0  0  0  0  0  0  0  0
    8.2936  -11.3469   25.5087 C   0  0  0  0  0  0  0  0  0  0  0  0
    8.3573  -12.7075   25.2189 C   0  0  0  0  0  0  0  0  0  0  0  0
    7.3326  -13.5135   25.6768 C   0  0  0  0  0  0  0  0  0  0  0  0
    8.0329  -17.1700   22.7697 C   0  0  0  0  0  0  0  0  0  0  0  0
    8.5865  -18.2755   23.0031 O   0  0  0  0  0  0  0  0  0  0  0  0
    9.9746  -17.0608   18.2158 C   0  0  0  0  0  0  0  0  0  0  0  0
    9.0268  -16.4281   19.2009 C   0  0  1  0  0  0  0  0  0  0  0  0
    7.7192  -16.6623   18.7495 O   0  0  0  0  0  0  0  0  0  0  0  0
    9.1374  -17.1367   20.5493 C   0  0  2  0  0  0  0  0  0  0  0  0
    8.2269  -16.5841   21.5130 N   0  0  0  0  0  0  0  0  0  0  0  0
   10.5528  -17.0211   20.9675 C   0  0  0  0  0  0  0  0  0  0  0  0
   10.9812  -15.8817   21.2829 O   0  0  0  0  0  0  0  0  0  0  0  0
   11.7392  -20.3859   23.8037 N   0  0  0  0  0  0  0  0  0  0  0  0
   12.6009  -19.3152   23.4693 C   0  0  0  0  0  0  0  0  0  0  0  0
   12.7526  -18.4141   24.3581 O   0  0  0  0  0  0  0  0  0  0  0  0
   13.3283  -19.1600   22.2002 C   0  0  0  0  0  0  0  0  0  0  0  0
   12.8467  -17.9681   21.4620 C   0  0  2  0  0  0  0  0  0  0  0  0
   11.4481  -18.1082   21.0339 N   0  0  0  0  0  0  0  0  0  0  0  0
   13.6512  -17.7172   20.2494 C   0  0  0  0  0  0  0  0  0  0  0  0
   14.8914  -17.4255   20.3572 O   0  0  0  0  0  0  0  0  0  0  0  0
   13.1486  -17.7757   18.9631 O   0  0  0  0  0  0  0  0  0  0  0  0
  2  1  1  1
  2 13  1  0
  2  3  1  0
  3  4  1  0
  4 12  1  0
  4  5  2  0
  5  6  1  0
  7  6  1  0
  7  8  2  0
  9  8  1  0
 10  9  2  0
 11 12  2  0
 11 10  1  0
 12  7  1  0
 13 19  1  0
 14 13  2  0
 16 15  1  6
 16 17  1  0
 16 18  1  0
 18 20  1  0
 18 19  1  1
 20 27  1  0
 21 20  2  0
 22 23  1  0
 23 24  2  0
 25 23  1  0
 26 25  1  6
 26 28  1  0
 27 26  1  0
 28 29  2  0
 28 30  1  0
M  END
$$$$
