WTN.pdb
     RDKit          3D

 30 31  0  0  1  0  0  0  0  0999 V2000
    6.0332  -17.4355   24.7106 N   0  0  0  0  0  0  0  0  0  0  0  0
    6.9094  -16.4184   24.1646 C   0  0  1  0  0  0  0  0  0  0  0  0
    7.8312  -15.8360   25.1852 C   0  0  0  0  0  0  0  0  0  0  0  0
    7.0696  -14.8390   25.9764 C   0  0  0  0  0  0  0  0  0  0  0  0
    5.9922  -15.0538   26.8194 C   0  0  0  0  0  0  0  0  0  0  0  0
    5.6182  -13.8818   27.3219 N   0  0  0  0  0  0  0  0  0  0  0  0
    6.4217  -12.9147   26.8291 C   0  0  0  0  0  0  0  0  0  0  0  0
    6.4682  -11.5487   27.0214 C   0  0  0  0  0  0  0  0  0  0  0  0
    7.4151  -10.7799   26.3785 C   0  0  0  0  0  0  0  0  0  0  0  0
    8.3342  -11.3689   25.5294 C   0  0  0  0  0  0  0  0  0  0  0  0
    8.3136  -12.7446   25.3142 C   0  0  0  0  0  0  0  0  0  0  0  0
    7.3523  -13.4866   25.9735 C   0  0  0  0  0  0  0  0  0  0  0  0
    7.6183  -16.9751   22.9807 C   0  0  0  0  0  0  0  0  0  0  0  0
    7.9237  -18.1956   22.9969 O   0  0  0  0  0  0  0  0  0  0  0  0
    7.4147  -15.2805   19.3126 C   0  0  0  0  0  0  0  0  0  0  0  0
    8.7917  -15.8302   19.5789 C   0  0  1  0  0  0  0  0  0  0  0  0
    9.6153  -14.7595   19.9582 O   0  0  0  0  0  0  0  0  0  0  0  0
    8.7468  -16.7703   20.7816 C   0  0  2  0  0  0  0  0  0  0  0  0
    7.9640  -16.2206   21.8531 N   0  0  0  0  0  0  0  0  0  0  0  0
   10.1533  -17.0197   21.1702 C   0  0  0  0  0  0  0  0  0  0  0  0
   10.6385  -16.3244   22.0989 O   0  0  0  0  0  0  0  0  0  0  0  0
   11.5762  -19.6043   23.3642 N   0  0  0  0  0  0  0  0  0  0  0  0
   12.2021  -20.2967   22.3013 C   0  0  0  0  0  0  0  0  0  0  0  0
   12.3680  -21.5500   22.4643 O   0  0  0  0  0  0  0  0  0  0  0  0
   12.6674  -19.6987   21.0404 C   0  0  0  0  0  0  0  0  0  0  0  0
   12.3584  -18.2494   21.0019 C   0  0  2  0  0  0  0  0  0  0  0  0
   10.9807  -17.9871   20.5640 N   0  0  0  0  0  0  0  0  0  0  0  0
   13.2551  -17.5262   20.0779 C   0  0  0  0  0  0  0  0  0  0  0  0
   14.5197  -17.5563   20.2640 O   0  0  0  0  0  0  0  0  0  0  0  0
   12.8165  -16.7946   18.9904 O   0  0  0  0  0  0  0  0  0  0  0  0
  2  1  1  1
  2 13  1  0
  2  3  1  0
  3  4  1  0
  4 12  1  0
  4  5  2  0
  5  6  1  0
  7  6  1  0
  7  8  2  0
  9  8  1  0
 10  9  2  0
 11 12  2  0
 11 10  1  0
 12  7  1  0
 13 19  1  0
 14 13  2  0
 16 15  1  1
 16 17  1  0
 16 18  1  0
 18 20  1  0
 18 19  1  1
 20 27  1  0
 21 20  2  0
 22 23  1  0
 23 24  2  0
 25 23  1  0
 26 25  1  6
 26 28  1  0
 27 26  1  0
 28 29  2  0
 28 30  1  0
M  END
$$$$
