WTN.pdb
     RDKit          3D

 30 31  0  0  1  0  0  0  0  0999 V2000
    6.2886  -17.1369   24.4831 N   0  0  0  0  0  0  0  0  0  0  0  0
    7.0579  -16.0329   23.9451 C   0  0  1  0  0  0  0  0  0  0  0  0
    8.0390  -15.4763   24.9239 C   0  0  0  0  0  0  0  0  0  0  0  0
    7.2878  -14.6816   25.9260 C   0  0  0  0  0  0  0  0  0  0  0  0
    6.4991  -15.1391   26.9683 C   0  0  0  0  0  0  0  0  0  0  0  0
    6.0145  -14.0848   27.6159 N   0  0  0  0  0  0  0  0  0  0  0  0
    6.4663  -12.9582   27.0237 C   0  0  0  0  0  0  0  0  0  0  0  0
    6.2709  -11.6181   27.2901 C   0  0  0  0  0  0  0  0  0  0  0  0
    6.8660  -10.6515   26.5074 C   0  0  0  0  0  0  0  0  0  0  0  0
    7.6693  -11.0129   25.4412 C   0  0  0  0  0  0  0  0  0  0  0  0
    7.8861  -12.3564   25.1462 C   0  0  0  0  0  0  0  0  0  0  0  0
    7.2755  -13.3003   25.9498 C   0  0  0  0  0  0  0  0  0  0  0  0
    7.6822  -16.4576   22.6629 C   0  0  0  0  0  0  0  0  0  0  0  0
    8.0835  -17.6463   22.5681 O   0  0  0  0  0  0  0  0  0  0  0  0
    6.9214  -14.4770   19.2081 C   0  0  0  0  0  0  0  0  0  0  0  0
    8.3232  -15.0280   19.2262 C   0  0  1  0  0  0  0  0  0  0  0  0
    9.1912  -13.9817   19.5733 O   0  0  0  0  0  0  0  0  0  0  0  0
    8.4536  -16.0665   20.3384 C   0  0  2  0  0  0  0  0  0  0  0  0
    7.8482  -15.6124   21.5591 N   0  0  0  0  0  0  0  0  0  0  0  0
    9.9006  -16.3423   20.4854 C   0  0  0  0  0  0  0  0  0  0  0  0
   10.5812  -15.5512   21.1870 O   0  0  0  0  0  0  0  0  0  0  0  0
   12.9503  -19.2550   22.8078 N   0  0  0  0  0  0  0  0  0  0  0  0
   12.0330  -19.4831   21.7555 C   0  0  0  0  0  0  0  0  0  0  0  0
   10.9238  -20.0209   22.0803 O   0  0  0  0  0  0  0  0  0  0  0  0
   12.2493  -19.1527   20.3384 C   0  0  0  0  0  0  0  0  0  0  0  0
   11.9895  -17.7146   20.0897 C   0  0  2  0  0  0  0  0  0  0  0  0
   10.5611  -17.4355   19.8883 N   0  0  0  0  0  0  0  0  0  0  0  0
   12.7019  -17.2326   18.8894 C   0  0  0  0  0  0  0  0  0  0  0  0
   12.1876  -17.4051   17.7315 O   0  0  0  0  0  0  0  0  0  0  0  0
   13.9238  -16.5874   18.9234 O   0  0  0  0  0  0  0  0  0  0  0  0
  2  1  1  1
  2 13  1  0
  2  3  1  0
  3  4  1  0
  4 12  1  0
  4  5  2  0
  5  6  1  0
  7  6  1  0
  7  8  2  0
  9  8  1  0
 10  9  2  0
 11 12  2  0
 11 10  1  0
 12  7  1  0
 13 19  1  0
 14 13  2  0
 16 15  1  1
 16 17  1  0
 16 18  1  0
 18 20  1  0
 18 19  1  1
 20 27  1  0
 21 20  2  0
 22 23  1  0
 23 24  2  0
 25 23  1  0
 26 25  1  6
 26 28  1  0
 27 26  1  0
 28 29  2  0
 28 30  1  0
M  END
$$$$
