WTN.pdb
     RDKit          3D

 30 31  0  0  1  0  0  0  0  0999 V2000
    6.3840  -17.4382   24.5752 N   0  0  0  0  0  0  0  0  0  0  0  0
    7.1547  -16.3106   24.0906 C   0  0  1  0  0  0  0  0  0  0  0  0
    7.9213  -15.6224   25.1720 C   0  0  0  0  0  0  0  0  0  0  0  0
    6.9760  -14.7712   25.9348 C   0  0  0  0  0  0  0  0  0  0  0  0
    5.8854  -15.1649   26.6920 C   0  0  0  0  0  0  0  0  0  0  0  0
    5.3177  -14.0759   27.1997 N   0  0  0  0  0  0  0  0  0  0  0  0
    6.0087  -12.9889   26.7937 C   0  0  0  0  0  0  0  0  0  0  0  0
    5.8500  -11.6379   27.0279 C   0  0  0  0  0  0  0  0  0  0  0  0
    6.7204  -10.7217   26.4767 C   0  0  0  0  0  0  0  0  0  0  0  0
    7.7678  -11.1452   25.6791 C   0  0  0  0  0  0  0  0  0  0  0  0
    7.9551  -12.5013   25.4237 C   0  0  0  0  0  0  0  0  0  0  0  0
    7.0655  -13.3937   25.9909 C   0  0  0  0  0  0  0  0  0  0  0  0
    8.0089  -16.7593   22.9578 C   0  0  0  0  0  0  0  0  0  0  0  0
    8.6039  -17.8622   23.0693 O   0  0  0  0  0  0  0  0  0  0  0  0
    7.5144  -15.6632   19.1974 C   0  0  0  0  0  0  0  0  0  0  0  0
    8.9922  -15.6791   19.4889 C   0  0  1  0  0  0  0  0  0  0  0  0
    9.4196  -14.3484   19.6119 O   0  0  0  0  0  0  0  0  0  0  0  0
    9.2414  -16.3263   20.8495 C   0  0  2  0  0  0  0  0  0  0  0  0
    8.1877  -16.0263   21.7784 N   0  0  0  0  0  0  0  0  0  0  0  0
   10.5630  -15.8415   21.3074 C   0  0  0  0  0  0  0  0  0  0  0  0
   10.5870  -14.9501   22.1940 O   0  0  0  0  0  0  0  0  0  0  0  0
   15.2180  -17.0561   23.3085 N   0  0  0  0  0  0  0  0  0  0  0  0
   13.9989  -17.7540   23.4744 C   0  0  0  0  0  0  0  0  0  0  0  0
   13.9874  -18.6663   24.3647 O   0  0  0  0  0  0  0  0  0  0  0  0
   12.7604  -17.5148   22.7175 C   0  0  0  0  0  0  0  0  0  0  0  0
   12.9806  -16.5015   21.6582 C   0  0  2  0  0  0  0  0  0  0  0  0
   11.7942  -16.3171   20.8114 N   0  0  0  0  0  0  0  0  0  0  0  0
   14.0975  -16.8782   20.7686 C   0  0  0  0  0  0  0  0  0  0  0  0
   13.9106  -17.7382   19.8411 O   0  0  0  0  0  0  0  0  0  0  0  0
   15.3728  -16.3541   20.8656 O   0  0  0  0  0  0  0  0  0  0  0  0
  2  1  1  1
  2 13  1  0
  2  3  1  0
  3  4  1  0
  4 12  1  0
  4  5  2  0
  5  6  1  0
  7  6  1  0
  7  8  2  0
  9  8  1  0
 10  9  2  0
 11 12  2  0
 11 10  1  0
 12  7  1  0
 13 19  1  0
 14 13  2  0
 16 15  1  1
 16 17  1  0
 16 18  1  0
 18 20  1  0
 18 19  1  1
 20 27  1  0
 21 20  2  0
 22 23  1  0
 23 24  2  0
 25 23  1  0
 26 25  1  1
 26 28  1  0
 27 26  1  0
 28 29  2  0
 28 30  1  0
M  END
$$$$
