WTN.pdb
     RDKit          3D

 30 31  0  0  1  0  0  0  0  0999 V2000
    6.1693  -17.3871   24.3969 N   0  0  0  0  0  0  0  0  0  0  0  0
    6.8514  -16.1696   24.0063 C   0  0  1  0  0  0  0  0  0  0  0  0
    7.8790  -15.7346   24.9990 C   0  0  0  0  0  0  0  0  0  0  0  0
    7.1915  -14.9654   26.0647 C   0  0  0  0  0  0  0  0  0  0  0  0
    6.4098  -15.4457   27.1020 C   0  0  0  0  0  0  0  0  0  0  0  0
    5.9915  -14.4093   27.8208 N   0  0  0  0  0  0  0  0  0  0  0  0
    6.4793  -13.2722   27.2795 C   0  0  0  0  0  0  0  0  0  0  0  0
    6.3531  -11.9420   27.6255 C   0  0  0  0  0  0  0  0  0  0  0  0
    6.9717  -10.9600   26.8811 C   0  0  0  0  0  0  0  0  0  0  0  0
    7.7296  -11.2958   25.7740 C   0  0  0  0  0  0  0  0  0  0  0  0
    7.8763  -12.6287   25.3987 C   0  0  0  0  0  0  0  0  0  0  0  0
    7.2437  -13.5885   26.1656 C   0  0  0  0  0  0  0  0  0  0  0  0
    7.3957  -16.3395   22.6319 C   0  0  0  0  0  0  0  0  0  0  0  0
    8.0866  -17.3638   22.3941 O   0  0  0  0  0  0  0  0  0  0  0  0
    8.0197  -12.8809   20.2780 C   0  0  0  0  0  0  0  0  0  0  0  0
    7.7155  -14.1677   19.5564 C   0  0  1  0  0  0  0  0  0  0  0  0
    8.5798  -14.2565   18.4547 O   0  0  0  0  0  0  0  0  0  0  0  0
    8.0583  -15.3546   20.4542 C   0  0  2  0  0  0  0  0  0  0  0  0
    7.1836  -15.4272   21.5911 N   0  0  0  0  0  0  0  0  0  0  0  0
    9.4797  -15.1939   20.8352 C   0  0  0  0  0  0  0  0  0  0  0  0
    9.7398  -14.5176   21.8630 O   0  0  0  0  0  0  0  0  0  0  0  0
   12.9948  -19.2715   22.5414 N   0  0  0  0  0  0  0  0  0  0  0  0
   12.6638  -17.9114   22.3377 C   0  0  0  0  0  0  0  0  0  0  0  0
   13.5099  -17.0555   22.7578 O   0  0  0  0  0  0  0  0  0  0  0  0
   11.4428  -17.4108   21.6876 C   0  0  0  0  0  0  0  0  0  0  0  0
   11.7591  -16.2910   20.7693 C   0  0  2  0  0  0  0  0  0  0  0  0
   10.5578  -15.7514   20.1177 N   0  0  0  0  0  0  0  0  0  0  0  0
   12.6854  -16.7104   19.6985 C   0  0  0  0  0  0  0  0  0  0  0  0
   13.9021  -16.9843   19.9801 O   0  0  0  0  0  0  0  0  0  0  0  0
   12.3249  -16.8337   18.3698 O   0  0  0  0  0  0  0  0  0  0  0  0
  2  1  1  1
  2 13  1  0
  2  3  1  0
  3  4  1  0
  4 12  1  0
  4  5  2  0
  5  6  1  0
  7  6  1  0
  7  8  2  0
  9  8  1  0
 10  9  2  0
 11 12  2  0
 11 10  1  0
 12  7  1  0
 13 19  1  0
 14 13  2  0
 16 15  1  1
 16 17  1  0
 16 18  1  0
 18 20  1  0
 18 19  1  1
 20 27  1  0
 21 20  2  0
 22 23  1  0
 23 24  2  0
 25 23  1  0
 26 25  1  1
 26 28  1  0
 27 26  1  0
 28 29  2  0
 28 30  1  0
M  END
$$$$
