ISP.pdb
     RDKit          3D

 22 22  0  0  1  0  0  0  0  0999 V2000
   18.3874  -11.6953  -17.7444 C   0  0  0  0  0  0  0  0  0  0  0  0
   19.6584  -10.9469  -17.4117 C   0  0  0  0  0  0  0  0  0  0  0  0
   19.3657   -9.5999  -16.7456 C   0  0  2  0  0  0  0  0  0  0  0  0
   18.6417   -8.7797  -17.7849 C   0  0  0  0  0  0  0  0  0  0  0  0
   20.6682   -8.9470  -16.3195 C   0  0  2  0  0  0  0  0  0  0  0  0
   21.3776   -9.8512  -15.3911 N   0  0  0  0  0  0  0  0  0  0  0  0
   20.4679   -7.6842  -15.5700 C   0  0  0  0  0  0  0  0  0  0  0  0
   19.3341   -7.0811  -15.5574 O   0  0  0  0  0  0  0  0  0  0  0  0
   22.1359   -4.6160  -12.2263 O   0  0  0  0  0  0  0  0  0  0  0  0
   22.2068   -5.7943  -12.9381 C   0  0  0  0  0  0  0  0  0  0  0  0
   21.2317   -5.7584  -14.1274 C   0  0  2  0  0  0  0  0  0  0  0  0
   21.4734   -7.0265  -14.8083 N   0  0  0  0  0  0  0  0  0  0  0  0
   21.5754   -4.5824  -14.9978 C   0  0  0  0  0  0  0  0  0  0  0  0
   22.7579   -4.6239  -15.4395 O   0  0  0  0  0  0  0  0  0  0  0  0
   20.6525   -3.5674  -15.2671 N   0  0  0  0  0  0  0  0  0  0  0  0
   19.1791   -3.7297  -15.2076 C   0  0  0  0  0  0  0  0  0  0  0  0
   18.8512   -2.5932  -14.2799 C   0  0  0  0  0  0  0  0  0  0  0  0
   19.9648   -1.5665  -14.4668 C   0  0  0  0  0  0  0  0  0  0  0  0
   20.7573   -2.2056  -15.6275 C   0  0  1  0  0  0  0  0  0  0  0  0
   22.0404   -1.5723  -15.8036 C   0  0  0  0  0  0  0  0  0  0  0  0
   22.4558   -0.7678  -16.7991 O   0  0  0  0  0  0  0  0  0  0  0  0
   22.9110   -1.8079  -14.8813 O   0  0  0  0  0  0  0  0  0  0  0  0
  2  1  1  0
  2  3  1  0
  3  5  1  0
  3  4  1  6
  5  7  1  0
  5  6  1  1
  7  8  2  0
 10  9  1  0
 11 10  1  1
 12 11  1  0
 12  7  1  0
 13 14  2  0
 13 11  1  0
 15 13  1  0
 16 15  1  0
 17 16  1  0
 18 17  1  0
 18 19  1  0
 19 20  1  1
 19 15  1  0
 20 21  1  0
 22 20  2  0
M  END
$$$$
