ISP.pdb
     RDKit          3D

 22 22  0  0  1  0  0  0  0  0999 V2000
   30.2680  -19.0409  -18.9895 C   0  0  0  0  0  0  0  0  0  0  0  0
   28.8211  -18.6059  -18.9288 C   0  0  0  0  0  0  0  0  0  0  0  0
   28.3253  -18.4849  -17.4854 C   0  0  2  0  0  0  0  0  0  0  0  0
   28.4377  -19.8702  -16.8979 C   0  0  0  0  0  0  0  0  0  0  0  0
   26.8922  -17.9841  -17.4779 C   0  0  2  0  0  0  0  0  0  0  0  0
   26.8577  -16.6182  -18.0397 N   0  0  0  0  0  0  0  0  0  0  0  0
   26.3238  -17.8682  -16.1142 C   0  0  0  0  0  0  0  0  0  0  0  0
   26.4152  -16.7811  -15.4366 O   0  0  0  0  0  0  0  0  0  0  0  0
   22.7498  -18.3506  -14.9084 O   0  0  0  0  0  0  0  0  0  0  0  0
   23.8729  -17.6942  -14.4525 C   0  0  0  0  0  0  0  0  0  0  0  0
   24.9907  -18.7037  -14.1399 C   0  0  2  0  0  0  0  0  0  0  0  0
   25.6377  -18.9109  -15.4315 N   0  0  0  0  0  0  0  0  0  0  0  0
   24.3671  -19.9677  -13.6182 C   0  0  0  0  0  0  0  0  0  0  0  0
   23.5148  -20.4608  -14.4091 O   0  0  0  0  0  0  0  0  0  0  0  0
   24.7215  -20.5100  -12.3793 N   0  0  0  0  0  0  0  0  0  0  0  0
   26.0746  -20.4245  -11.7773 C   0  0  0  0  0  0  0  0  0  0  0  0
   25.7053  -19.8406  -10.4422 C   0  0  0  0  0  0  0  0  0  0  0  0
   24.2702  -20.2853  -10.1741 C   0  0  0  0  0  0  0  0  0  0  0  0
   24.0271  -21.2226  -11.3766 C   0  0  1  0  0  0  0  0  0  0  0  0
   22.6300  -21.5492  -11.5186 C   0  0  0  0  0  0  0  0  0  0  0  0
   21.9838  -22.6720  -11.1545 O   0  0  0  0  0  0  0  0  0  0  0  0
   21.8975  -20.6420  -12.0703 O   0  0  0  0  0  0  0  0  0  0  0  0
  2  1  1  0
  2  3  1  0
  3  5  1  0
  3  4  1  6
  5  7  1  0
  5  6  1  1
  7  8  2  0
 10  9  1  0
 11 10  1  6
 12 11  1  0
 12  7  1  0
 13 14  2  0
 13 11  1  0
 15 13  1  0
 16 15  1  0
 17 16  1  0
 18 17  1  0
 18 19  1  0
 19 20  1  6
 19 15  1  0
 20 21  1  0
 22 20  2  0
M  END
$$$$
