ISP.pdb
     RDKit          3D

 22 22  0  0  1  0  0  0  0  0999 V2000
   22.6419  -25.9801  -18.2425 C   0  0  0  0  0  0  0  0  0  0  0  0
   23.7454  -24.9694  -18.4590 C   0  0  0  0  0  0  0  0  0  0  0  0
   24.3628  -24.5113  -17.1351 C   0  0  2  0  0  0  0  0  0  0  0  0
   23.2294  -23.9051  -16.3445 C   0  0  0  0  0  0  0  0  0  0  0  0
   25.4635  -23.5019  -17.4069 C   0  0  2  0  0  0  0  0  0  0  0  0
   26.6570  -24.2152  -17.9062 N   0  0  0  0  0  0  0  0  0  0  0  0
   25.9089  -22.7848  -16.1888 C   0  0  0  0  0  0  0  0  0  0  0  0
   26.6485  -23.3526  -15.3056 O   0  0  0  0  0  0  0  0  0  0  0  0
   26.5543  -18.6163  -13.8746 O   0  0  0  0  0  0  0  0  0  0  0  0
   26.2555  -19.3573  -14.9978 C   0  0  0  0  0  0  0  0  0  0  0  0
   25.9536  -20.8151  -14.6103 C   0  0  2  0  0  0  0  0  0  0  0  0
   25.5788  -21.4367  -15.8765 N   0  0  0  0  0  0  0  0  0  0  0  0
   24.8192  -20.8273  -13.6246 C   0  0  0  0  0  0  0  0  0  0  0  0
   23.7094  -20.5235  -14.1452 O   0  0  0  0  0  0  0  0  0  0  0  0
   25.0139  -21.1478  -12.2777 N   0  0  0  0  0  0  0  0  0  0  0  0
   26.2127  -21.8359  -11.7393 C   0  0  0  0  0  0  0  0  0  0  0  0
   26.5885  -20.8546  -10.6643 C   0  0  0  0  0  0  0  0  0  0  0  0
   25.2915  -20.1574  -10.2630 C   0  0  0  0  0  0  0  0  0  0  0  0
   24.2641  -20.9532  -11.0965 C   0  0  1  0  0  0  0  0  0  0  0  0
   22.9809  -20.2962  -11.1215 C   0  0  0  0  0  0  0  0  0  0  0  0
   22.6124  -19.1877  -11.7894 O   0  0  0  0  0  0  0  0  0  0  0  0
   22.0584  -20.8448  -10.4060 O   0  0  0  0  0  0  0  0  0  0  0  0
  2  1  1  0
  2  3  1  0
  3  5  1  0
  3  4  1  1
  5  7  1  0
  5  6  1  1
  7  8  2  0
 10  9  1  0
 11 10  1  6
 12 11  1  0
 12  7  1  0
 13 14  2  0
 13 11  1  0
 15 13  1  0
 16 15  1  0
 17 16  1  0
 18 17  1  0
 18 19  1  0
 19 20  1  6
 19 15  1  0
 20 21  1  0
 22 20  2  0
M  END
$$$$
