ISP.pdb
     RDKit          3D

 22 22  0  0  1  0  0  0  0  0999 V2000
   18.0178  -19.4897  -15.4710 C   0  0  0  0  0  0  0  0  0  0  0  0
   19.0967  -20.4630  -15.0527 C   0  0  0  0  0  0  0  0  0  0  0  0
   20.4517  -19.7703  -14.8858 C   0  0  2  0  0  0  0  0  0  0  0  0
   20.7752  -19.1762  -16.2347 C   0  0  0  0  0  0  0  0  0  0  0  0
   21.4942  -20.7851  -14.4523 C   0  0  2  0  0  0  0  0  0  0  0  0
   21.0677  -21.3970  -13.1770 N   0  0  0  0  0  0  0  0  0  0  0  0
   22.8184  -20.1783  -14.1795 C   0  0  0  0  0  0  0  0  0  0  0  0
   23.2452  -19.1658  -14.8443 O   0  0  0  0  0  0  0  0  0  0  0  0
   25.1997  -21.9586  -11.5734 O   0  0  0  0  0  0  0  0  0  0  0  0
   25.5400  -20.6270  -11.6781 C   0  0  0  0  0  0  0  0  0  0  0  0
   25.0599  -20.0580  -13.0242 C   0  0  2  0  0  0  0  0  0  0  0  0
   23.7286  -20.6338  -13.1854 N   0  0  0  0  0  0  0  0  0  0  0  0
   26.0006  -20.5142  -14.1039 C   0  0  0  0  0  0  0  0  0  0  0  0
   26.1528  -21.7678  -14.1288 O   0  0  0  0  0  0  0  0  0  0  0  0
   26.6231  -19.6120  -14.9717 N   0  0  0  0  0  0  0  0  0  0  0  0
   26.2740  -18.1748  -15.0865 C   0  0  0  0  0  0  0  0  0  0  0  0
   27.6391  -17.5804  -14.8796 C   0  0  0  0  0  0  0  0  0  0  0  0
   28.6320  -18.6418  -15.3453 C   0  0  0  0  0  0  0  0  0  0  0  0
   27.6715  -19.7087  -15.9134 C   0  0  1  0  0  0  0  0  0  0  0  0
   28.3510  -20.9572  -16.1547 C   0  0  0  0  0  0  0  0  0  0  0  0
   28.5405  -21.9918  -15.3154 O   0  0  0  0  0  0  0  0  0  0  0  0
   28.8460  -21.1044  -17.3368 O   0  0  0  0  0  0  0  0  0  0  0  0
  2  1  1  0
  2  3  1  0
  3  5  1  0
  3  4  1  6
  5  7  1  0
  5  6  1  1
  7  8  2  0
 10  9  1  0
 11 10  1  1
 12 11  1  0
 12  7  1  0
 13 14  2  0
 13 11  1  0
 15 13  1  0
 16 15  1  0
 17 16  1  0
 18 17  1  0
 18 19  1  0
 19 20  1  1
 19 15  1  0
 20 21  1  0
 22 20  2  0
M  END
$$$$
