ISP.pdb
     RDKit          3D

 22 22  0  0  1  0  0  0  0  0999 V2000
   27.1550  -21.0620  -15.3715 C   0  0  0  0  0  0  0  0  0  0  0  0
   26.8935  -21.8473  -14.1061 C   0  0  0  0  0  0  0  0  0  0  0  0
   27.0458  -20.9764  -12.8564 C   0  0  2  0  0  0  0  0  0  0  0  0
   28.3248  -21.4298  -12.1964 C   0  0  0  0  0  0  0  0  0  0  0  0
   25.8441  -21.1701  -11.9492 C   0  0  2  0  0  0  0  0  0  0  0  0
   24.6237  -20.7619  -12.6748 N   0  0  0  0  0  0  0  0  0  0  0  0
   25.8886  -20.3206  -10.7356 C   0  0  0  0  0  0  0  0  0  0  0  0
   25.4872  -19.1007  -10.7523 O   0  0  0  0  0  0  0  0  0  0  0  0
   24.2719  -20.7933   -7.4305 O   0  0  0  0  0  0  0  0  0  0  0  0
   24.8133  -19.6836   -8.0433 C   0  0  0  0  0  0  0  0  0  0  0  0
   26.3185  -19.8893   -8.2857 C   0  0  2  0  0  0  0  0  0  0  0  0
   26.3624  -20.7488   -9.4644 N   0  0  0  0  0  0  0  0  0  0  0  0
   26.9135  -20.5624   -7.0808 C   0  0  0  0  0  0  0  0  0  0  0  0
   26.2882  -21.6049   -6.7385 O   0  0  0  0  0  0  0  0  0  0  0  0
   28.0443  -20.0551   -6.4339 N   0  0  0  0  0  0  0  0  0  0  0  0
   29.0909  -19.2312   -7.0869 C   0  0  0  0  0  0  0  0  0  0  0  0
   29.0935  -18.0590   -6.1459 C   0  0  0  0  0  0  0  0  0  0  0  0
   28.6244  -18.6030   -4.7994 C   0  0  0  0  0  0  0  0  0  0  0  0
   28.5358  -20.1126   -5.1109 C   0  0  1  0  0  0  0  0  0  0  0  0
   27.8273  -20.8252   -4.0771 C   0  0  0  0  0  0  0  0  0  0  0  0
   26.5008  -20.9891   -3.9212 O   0  0  0  0  0  0  0  0  0  0  0  0
   28.5644  -21.3827   -3.1771 O   0  0  0  0  0  0  0  0  0  0  0  0
  2  1  1  0
  2  3  1  0
  3  5  1  0
  3  4  1  1
  5  7  1  0
  5  6  1  6
  7  8  2  0
 10  9  1  0
 11 10  1  1
 12 11  1  0
 12  7  1  0
 13 14  2  0
 13 11  1  0
 15 13  1  0
 16 15  1  0
 17 16  1  0
 18 17  1  0
 18 19  1  0
 19 20  1  1
 19 15  1  0
 20 21  1  0
 22 20  2  0
M  END
$$$$
