ISP.pdb
     RDKit          3D

 22 22  0  0  1  0  0  0  0  0999 V2000
   23.6645  -14.8362  -14.3037 C   0  0  0  0  0  0  0  0  0  0  0  0
   23.8595  -14.6951  -15.7964 C   0  0  0  0  0  0  0  0  0  0  0  0
   23.5563  -13.2732  -16.2761 C   0  0  2  0  0  0  0  0  0  0  0  0
   24.4222  -12.3661  -15.4367 C   0  0  0  0  0  0  0  0  0  0  0  0
   22.0798  -12.9747  -16.0887 C   0  0  2  0  0  0  0  0  0  0  0  0
   21.2935  -13.8783  -16.9535 N   0  0  0  0  0  0  0  0  0  0  0  0
   21.7066  -11.6019  -16.5038 C   0  0  0  0  0  0  0  0  0  0  0  0
   21.8507  -11.2021  -17.7157 O   0  0  0  0  0  0  0  0  0  0  0  0
   18.9309   -9.6384  -14.7455 O   0  0  0  0  0  0  0  0  0  0  0  0
   19.3485   -9.1483  -15.9642 C   0  0  0  0  0  0  0  0  0  0  0  0
   20.8784   -9.2540  -16.0857 C   0  0  2  0  0  0  0  0  0  0  0  0
   21.1657  -10.6125  -15.6363 N   0  0  0  0  0  0  0  0  0  0  0  0
   21.5059   -8.2242  -15.1888 C   0  0  0  0  0  0  0  0  0  0  0  0
   21.4421   -8.5305  -13.9652 O   0  0  0  0  0  0  0  0  0  0  0  0
   22.0904   -7.0599  -15.6960 N   0  0  0  0  0  0  0  0  0  0  0  0
   22.4900   -6.8643  -17.1111 C   0  0  0  0  0  0  0  0  0  0  0  0
   21.7569   -5.5822  -17.3911 C   0  0  0  0  0  0  0  0  0  0  0  0
   21.6244   -4.8741  -16.0457 C   0  0  0  0  0  0  0  0  0  0  0  0
   22.4521   -5.8123  -15.1410 C   0  0  1  0  0  0  0  0  0  0  0  0
   22.2409   -5.5223  -13.7446 C   0  0  0  0  0  0  0  0  0  0  0  0
   23.1156   -5.0475  -12.8388 O   0  0  0  0  0  0  0  0  0  0  0  0
   21.0510   -5.7483  -13.3007 O   0  0  0  0  0  0  0  0  0  0  0  0
  2  1  1  0
  2  3  1  0
  3  5  1  0
  3  4  1  1
  5  7  1  0
  5  6  1  6
  7  8  2  0
 10  9  1  0
 11 10  1  1
 12 11  1  0
 12  7  1  0
 13 14  2  0
 13 11  1  0
 15 13  1  0
 16 15  1  0
 17 16  1  0
 18 17  1  0
 18 19  1  0
 19 20  1  1
 19 15  1  0
 20 21  1  0
 22 20  2  0
M  END
$$$$
