ISP.pdb
     RDKit          3D

 22 22  0  0  1  0  0  0  0  0999 V2000
   18.0418  -20.3967  -15.2537 C   0  0  0  0  0  0  0  0  0  0  0  0
   19.2900  -20.0546  -16.0355 C   0  0  0  0  0  0  0  0  0  0  0  0
   20.5555  -20.5433  -15.3259 C   0  0  2  0  0  0  0  0  0  0  0  0
   20.5329  -19.8988  -13.9616 C   0  0  0  0  0  0  0  0  0  0  0  0
   21.7797  -20.1316  -16.1235 C   0  0  2  0  0  0  0  0  0  0  0  0
   21.7844  -20.8621  -17.4076 N   0  0  0  0  0  0  0  0  0  0  0  0
   23.0547  -20.4886  -15.4578 C   0  0  0  0  0  0  0  0  0  0  0  0
   23.3882  -21.7117  -15.2530 O   0  0  0  0  0  0  0  0  0  0  0  0
   27.5182  -19.2852  -14.2295 O   0  0  0  0  0  0  0  0  0  0  0  0
   26.3092  -19.0301  -14.8404 C   0  0  0  0  0  0  0  0  0  0  0  0
   25.2190  -19.9551  -14.2726 C   0  0  2  0  0  0  0  0  0  0  0  0
   24.0152  -19.5487  -14.9908 N   0  0  0  0  0  0  0  0  0  0  0  0
   25.0983  -19.7081  -12.7950 C   0  0  0  0  0  0  0  0  0  0  0  0
   24.8576  -18.5005  -12.5143 O   0  0  0  0  0  0  0  0  0  0  0  0
   25.2439  -20.7367  -11.8594 N   0  0  0  0  0  0  0  0  0  0  0  0
   25.0442  -22.1773  -12.1519 C   0  0  0  0  0  0  0  0  0  0  0  0
   26.3581  -22.7072  -11.6494 C   0  0  0  0  0  0  0  0  0  0  0  0
   26.8206  -21.7271  -10.5748 C   0  0  0  0  0  0  0  0  0  0  0  0
   25.5980  -20.7878  -10.4930 C   0  0  1  0  0  0  0  0  0  0  0  0
   25.9006  -19.5895   -9.7506 C   0  0  0  0  0  0  0  0  0  0  0  0
   25.6924  -19.3281   -8.4471 O   0  0  0  0  0  0  0  0  0  0  0  0
   26.4457  -18.6359  -10.4270 O   0  0  0  0  0  0  0  0  0  0  0  0
  2  1  1  0
  2  3  1  0
  3  5  1  0
  3  4  1  1
  5  7  1  0
  5  6  1  6
  7  8  2  0
 10  9  1  0
 11 10  1  6
 12 11  1  0
 12  7  1  0
 13 14  2  0
 13 11  1  0
 15 13  1  0
 16 15  1  0
 17 16  1  0
 18 17  1  0
 18 19  1  0
 19 20  1  6
 19 15  1  0
 20 21  1  0
 22 20  2  0
M  END
$$$$
