ISP.pdb
     RDKit          3D

 22 22  0  0  1  0  0  0  0  0999 V2000
   21.4889  -20.4522   -8.9690 C   0  0  0  0  0  0  0  0  0  0  0  0
   22.8853  -21.0293   -9.0269 C   0  0  0  0  0  0  0  0  0  0  0  0
   23.7334  -20.3549  -10.1084 C   0  0  2  0  0  0  0  0  0  0  0  0
   23.0239  -20.6272  -11.4121 C   0  0  0  0  0  0  0  0  0  0  0  0
   25.1346  -20.9388  -10.0968 C   0  0  2  0  0  0  0  0  0  0  0  0
   25.8201  -20.5179   -8.8576 N   0  0  0  0  0  0  0  0  0  0  0  0
   25.9806  -20.4428  -11.2079 C   0  0  0  0  0  0  0  0  0  0  0  0
   26.5748  -19.3060  -11.1463 O   0  0  0  0  0  0  0  0  0  0  0  0
   28.6007  -21.3898  -15.1023 O   0  0  0  0  0  0  0  0  0  0  0  0
   27.8027  -21.7791  -14.0479 C   0  0  0  0  0  0  0  0  0  0  0  0
   27.0044  -20.5785  -13.5115 C   0  0  2  0  0  0  0  0  0  0  0  0
   26.2197  -21.1475  -12.4204 N   0  0  0  0  0  0  0  0  0  0  0  0
   26.1290  -20.0503  -14.6130 C   0  0  0  0  0  0  0  0  0  0  0  0
   25.3173  -20.9113  -15.0545 O   0  0  0  0  0  0  0  0  0  0  0  0
   26.2333  -18.7343  -15.0734 N   0  0  0  0  0  0  0  0  0  0  0  0
   26.8636  -17.6241  -14.3179 C   0  0  0  0  0  0  0  0  0  0  0  0
   27.8374  -17.1490  -15.3599 C   0  0  0  0  0  0  0  0  0  0  0  0
   27.2237  -17.5222  -16.7064 C   0  0  0  0  0  0  0  0  0  0  0  0
   25.8506  -18.0679  -16.2586 C   0  0  1  0  0  0  0  0  0  0  0  0
   25.1837  -18.7651  -17.3299 C   0  0  0  0  0  0  0  0  0  0  0  0
   23.9361  -18.5911  -17.8032 O   0  0  0  0  0  0  0  0  0  0  0  0
   25.8762  -19.6819  -17.9163 O   0  0  0  0  0  0  0  0  0  0  0  0
  2  1  1  0
  2  3  1  0
  3  5  1  0
  3  4  1  6
  5  7  1  0
  5  6  1  1
  7  8  2  0
 10  9  1  0
 11 10  1  6
 12 11  1  0
 12  7  1  0
 13 14  2  0
 13 11  1  0
 15 13  1  0
 16 15  1  0
 17 16  1  0
 18 17  1  0
 18 19  1  0
 19 20  1  6
 19 15  1  0
 20 21  1  0
 22 20  2  0
M  END
$$$$
