ISP.pdb
     RDKit          3D

 22 22  0  0  1  0  0  0  0  0999 V2000
   25.9811  -20.6650   -7.5546 C   0  0  0  0  0  0  0  0  0  0  0  0
   25.4244  -21.3770   -8.7668 C   0  0  0  0  0  0  0  0  0  0  0  0
   26.1137  -20.9244  -10.0567 C   0  0  2  0  0  0  0  0  0  0  0  0
   25.8815  -19.4358  -10.1427 C   0  0  0  0  0  0  0  0  0  0  0  0
   25.5122  -21.6580  -11.2418 C   0  0  2  0  0  0  0  0  0  0  0  0
   25.9195  -23.0770  -11.1855 N   0  0  0  0  0  0  0  0  0  0  0  0
   26.0020  -21.1548  -12.5469 C   0  0  0  0  0  0  0  0  0  0  0  0
   27.2124  -21.3459  -12.9312 O   0  0  0  0  0  0  0  0  0  0  0  0
   25.6559  -20.5378  -17.0484 O   0  0  0  0  0  0  0  0  0  0  0  0
   25.1598  -20.8539  -15.8019 C   0  0  0  0  0  0  0  0  0  0  0  0
   25.7609  -19.9213  -14.7363 C   0  0  2  0  0  0  0  0  0  0  0  0
   25.2124  -20.4320  -13.4840 N   0  0  0  0  0  0  0  0  0  0  0  0
   25.3063  -18.5159  -15.0135 C   0  0  0  0  0  0  0  0  0  0  0  0
   24.0493  -18.3933  -15.0080 O   0  0  0  0  0  0  0  0  0  0  0  0
   26.2136  -17.4783  -15.2481 N   0  0  0  0  0  0  0  0  0  0  0  0
   27.6145  -17.4569  -14.7608 C   0  0  0  0  0  0  0  0  0  0  0  0
   28.3170  -17.2033  -16.0654 C   0  0  0  0  0  0  0  0  0  0  0  0
   27.3130  -16.4615  -16.9434 C   0  0  0  0  0  0  0  0  0  0  0  0
   26.1540  -16.2514  -15.9453 C   0  0  1  0  0  0  0  0  0  0  0  0
   24.9501  -15.8261  -16.6149 C   0  0  0  0  0  0  0  0  0  0  0  0
   24.3280  -16.3841  -17.6696 O   0  0  0  0  0  0  0  0  0  0  0  0
   24.3912  -14.7652  -16.1393 O   0  0  0  0  0  0  0  0  0  0  0  0
  2  1  1  0
  2  3  1  0
  3  5  1  0
  3  4  1  6
  5  7  1  0
  5  6  1  1
  7  8  2  0
 10  9  1  0
 11 10  1  6
 12 11  1  0
 12  7  1  0
 13 14  2  0
 13 11  1  0
 15 13  1  0
 16 15  1  0
 17 16  1  0
 18 17  1  0
 18 19  1  0
 19 20  1  6
 19 15  1  0
 20 21  1  0
 22 20  2  0
M  END
$$$$
