ISP.pdb
     RDKit          3D

 22 22  0  0  1  0  0  0  0  0999 V2000
   20.7475  -15.1325  -18.5316 C   0  0  0  0  0  0  0  0  0  0  0  0
   20.1095  -14.4201  -17.3604 C   0  0  0  0  0  0  0  0  0  0  0  0
   19.9918  -12.9140  -17.6084 C   0  0  2  0  0  0  0  0  0  0  0  0
   21.4079  -12.4118  -17.7492 C   0  0  0  0  0  0  0  0  0  0  0  0
   19.2749  -12.2587  -16.4417 C   0  0  2  0  0  0  0  0  0  0  0  0
   17.9234  -12.8428  -16.3192 N   0  0  0  0  0  0  0  0  0  0  0  0
   19.0642  -10.8040  -16.6315 C   0  0  0  0  0  0  0  0  0  0  0  0
   18.1630  -10.3522  -17.4272 O   0  0  0  0  0  0  0  0  0  0  0  0
   18.2035   -8.3845  -14.1661 O   0  0  0  0  0  0  0  0  0  0  0  0
   18.1352   -8.1883  -15.5287 C   0  0  0  0  0  0  0  0  0  0  0  0
   19.5251   -8.3665  -16.1635 C   0  0  2  0  0  0  0  0  0  0  0  0
   19.8096   -9.7855  -15.9751 N   0  0  0  0  0  0  0  0  0  0  0  0
   20.5063   -7.4974  -15.4282 C   0  0  0  0  0  0  0  0  0  0  0  0
   20.6767   -7.8515  -14.2279 O   0  0  0  0  0  0  0  0  0  0  0  0
   21.1442   -6.4173  -16.0453 N   0  0  0  0  0  0  0  0  0  0  0  0
   21.0733   -6.1124  -17.4954 C   0  0  0  0  0  0  0  0  0  0  0  0
   20.6185   -4.6818  -17.4165 C   0  0  0  0  0  0  0  0  0  0  0  0
   21.1251   -4.1555  -16.0765 C   0  0  0  0  0  0  0  0  0  0  0  0
   21.9607   -5.3588  -15.5890 C   0  0  1  0  0  0  0  0  0  0  0  0
   22.3129   -5.2287  -14.1970 C   0  0  0  0  0  0  0  0  0  0  0  0
   21.7073   -5.7602  -13.1192 O   0  0  0  0  0  0  0  0  0  0  0  0
   23.3506   -4.5038  -13.9487 O   0  0  0  0  0  0  0  0  0  0  0  0
  2  1  1  0
  2  3  1  0
  3  5  1  0
  3  4  1  1
  5  7  1  0
  5  6  1  6
  7  8  2  0
 10  9  1  0
 11 10  1  1
 12 11  1  0
 12  7  1  0
 13 14  2  0
 13 11  1  0
 15 13  1  0
 16 15  1  0
 17 16  1  0
 18 17  1  0
 18 19  1  0
 19 20  1  1
 19 15  1  0
 20 21  1  0
 22 20  2  0
M  END
$$$$
