ISP.pdb
     RDKit          3D

 22 22  0  0  1  0  0  0  0  0999 V2000
   19.3985  -14.0734  -21.8556 C   0  0  0  0  0  0  0  0  0  0  0  0
   20.4372  -14.3062  -20.7818 C   0  0  0  0  0  0  0  0  0  0  0  0
   20.2371  -13.3705  -19.5867 C   0  0  2  0  0  0  0  0  0  0  0  0
   20.3997  -11.9727  -20.1312 C   0  0  0  0  0  0  0  0  0  0  0  0
   21.2675  -13.6818  -18.5162 C   0  0  2  0  0  0  0  0  0  0  0  0
   21.0775  -15.0729  -18.0566 N   0  0  0  0  0  0  0  0  0  0  0  0
   21.1213  -12.8392  -17.3058 C   0  0  0  0  0  0  0  0  0  0  0  0
   20.2147  -13.0742  -16.4271 O   0  0  0  0  0  0  0  0  0  0  0  0
   24.0382  -11.2475  -15.4909 O   0  0  0  0  0  0  0  0  0  0  0  0
   22.8162  -11.2699  -14.8536 C   0  0  0  0  0  0  0  0  0  0  0  0
   21.6973  -10.8724  -15.8316 C   0  0  2  0  0  0  0  0  0  0  0  0
   21.9413  -11.7189  -16.9952 N   0  0  0  0  0  0  0  0  0  0  0  0
   21.8411   -9.4133  -16.1620 C   0  0  0  0  0  0  0  0  0  0  0  0
   22.8758   -9.1604  -16.8407 O   0  0  0  0  0  0  0  0  0  0  0  0
   20.9037   -8.4646  -15.7427 N   0  0  0  0  0  0  0  0  0  0  0  0
   19.5559   -8.7874  -15.2138 C   0  0  0  0  0  0  0  0  0  0  0  0
   19.6188   -8.0257  -13.9193 C   0  0  0  0  0  0  0  0  0  0  0  0
   20.6018   -6.8823  -14.1547 C   0  0  0  0  0  0  0  0  0  0  0  0
   20.8925   -7.0545  -15.6612 C   0  0  1  0  0  0  0  0  0  0  0  0
   22.0293   -6.2696  -16.0735 C   0  0  0  0  0  0  0  0  0  0  0  0
   22.0671   -4.9889  -16.4848 O   0  0  0  0  0  0  0  0  0  0  0  0
   23.1672   -6.8765  -16.0451 O   0  0  0  0  0  0  0  0  0  0  0  0
  2  1  1  0
  2  3  1  0
  3  5  1  0
  3  4  1  6
  5  7  1  0
  5  6  1  1
  7  8  2  0
 10  9  1  0
 11 10  1  1
 12 11  1  0
 12  7  1  0
 13 14  2  0
 13 11  1  0
 15 13  1  0
 16 15  1  0
 17 16  1  0
 18 17  1  0
 18 19  1  0
 19 20  1  1
 19 15  1  0
 20 21  1  0
 22 20  2  0
M  END
$$$$
