ISP.pdb
     RDKit          3D

 22 22  0  0  1  0  0  0  0  0999 V2000
   25.0417  -31.7135   -8.6091 C   0  0  0  0  0  0  0  0  0  0  0  0
   26.3193  -32.4573   -8.2915 C   0  0  0  0  0  0  0  0  0  0  0  0
   26.1808  -33.3080   -7.0263 C   0  0  2  0  0  0  0  0  0  0  0  0
   25.8421  -32.3403   -5.9191 C   0  0  0  0  0  0  0  0  0  0  0  0
   27.4839  -34.0388   -6.7570 C   0  0  2  0  0  0  0  0  0  0  0  0
   27.8092  -34.8860   -7.9228 N   0  0  0  0  0  0  0  0  0  0  0  0
   27.4038  -34.9643   -5.6023 C   0  0  0  0  0  0  0  0  0  0  0  0
   26.6009  -35.9666   -5.5970 O   0  0  0  0  0  0  0  0  0  0  0  0
   30.0262  -34.6283   -2.6003 O   0  0  0  0  0  0  0  0  0  0  0  0
   29.4780  -35.8848   -2.7438 C   0  0  0  0  0  0  0  0  0  0  0  0
   28.0484  -35.7824   -3.3026 C   0  0  2  0  0  0  0  0  0  0  0  0
   28.1810  -34.8485   -4.4163 N   0  0  0  0  0  0  0  0  0  0  0  0
   27.1472  -35.2447   -2.2268 C   0  0  0  0  0  0  0  0  0  0  0  0
   27.2897  -34.0041   -2.0376 O   0  0  0  0  0  0  0  0  0  0  0  0
   26.2561  -36.0664   -1.5301 N   0  0  0  0  0  0  0  0  0  0  0  0
   25.8223  -37.4119   -1.9796 C   0  0  0  0  0  0  0  0  0  0  0  0
   26.1592  -38.1968   -0.7425 C   0  0  0  0  0  0  0  0  0  0  0  0
   26.0787  -37.2062    0.4157 C   0  0  0  0  0  0  0  0  0  0  0  0
   25.5507  -35.9510   -0.3118 C   0  0  1  0  0  0  0  0  0  0  0  0
   25.6650  -34.7742    0.5133 C   0  0  0  0  0  0  0  0  0  0  0  0
   26.5548  -33.7681    0.4311 O   0  0  0  0  0  0  0  0  0  0  0  0
   24.7960  -34.6698    1.4610 O   0  0  0  0  0  0  0  0  0  0  0  0
  2  1  1  0
  2  3  1  0
  3  5  1  0
  3  4  1  1
  5  7  1  0
  5  6  1  6
  7  8  2  0
 10  9  1  0
 11 10  1  1
 12 11  1  0
 12  7  1  0
 13 14  2  0
 13 11  1  0
 15 13  1  0
 16 15  1  0
 17 16  1  0
 18 17  1  0
 18 19  1  0
 19 20  1  1
 19 15  1  0
 20 21  1  0
 22 20  2  0
M  END
$$$$
