ISP.pdb
     RDKit          3D

 22 22  0  0  1  0  0  0  0  0999 V2000
   14.6874  -10.9628  -18.0369 C   0  0  0  0  0  0  0  0  0  0  0  0
   16.0018  -11.6446  -17.7305 C   0  0  0  0  0  0  0  0  0  0  0  0
   16.9244  -10.7500  -16.8986 C   0  0  2  0  0  0  0  0  0  0  0  0
   17.2048   -9.5418  -17.7580 C   0  0  0  0  0  0  0  0  0  0  0  0
   18.1959  -11.5055  -16.5563 C   0  0  2  0  0  0  0  0  0  0  0  0
   17.8566  -12.6435  -15.6774 N   0  0  0  0  0  0  0  0  0  0  0  0
   19.1697  -10.6896  -15.7932 C   0  0  0  0  0  0  0  0  0  0  0  0
   18.9738  -10.3849  -14.5611 O   0  0  0  0  0  0  0  0  0  0  0  0
   23.7058   -9.4142  -15.1759 O   0  0  0  0  0  0  0  0  0  0  0  0
   22.6984  -10.0127  -15.9018 C   0  0  0  0  0  0  0  0  0  0  0  0
   21.3338   -9.4213  -15.5085 C   0  0  2  0  0  0  0  0  0  0  0  0
   20.3854  -10.1744  -16.3229 N   0  0  0  0  0  0  0  0  0  0  0  0
   21.3255   -7.9579  -15.8506 C   0  0  0  0  0  0  0  0  0  0  0  0
   21.3606   -7.7414  -17.0944 O   0  0  0  0  0  0  0  0  0  0  0  0
   21.2827   -6.9684  -14.8639 N   0  0  0  0  0  0  0  0  0  0  0  0
   20.9810   -7.2170  -13.4328 C   0  0  0  0  0  0  0  0  0  0  0  0
   22.1845   -6.5591  -12.8175 C   0  0  0  0  0  0  0  0  0  0  0  0
   22.6268   -5.4862  -13.8087 C   0  0  0  0  0  0  0  0  0  0  0  0
   21.4939   -5.5718  -14.8541 C   0  0  1  0  0  0  0  0  0  0  0  0
   21.8307   -4.8550  -16.0588 C   0  0  0  0  0  0  0  0  0  0  0  0
   22.8985   -5.0094  -16.8630 O   0  0  0  0  0  0  0  0  0  0  0  0
   20.9952   -3.9396  -16.4164 O   0  0  0  0  0  0  0  0  0  0  0  0
  2  1  1  0
  2  3  1  0
  3  5  1  0
  3  4  1  6
  5  7  1  0
  5  6  1  1
  7  8  2  0
 10  9  1  0
 11 10  1  6
 12 11  1  0
 12  7  1  0
 13 14  2  0
 13 11  1  0
 15 13  1  0
 16 15  1  0
 17 16  1  0
 18 17  1  0
 18 19  1  0
 19 20  1  6
 19 15  1  0
 20 21  1  0
 22 20  2  0
M  END
$$$$
