TPT.pdb
     RDKit          3D

 22 22  0  0  1  0  0  0  0  0999 V2000
    6.8290  -18.7984   18.7970 C   0  0  0  0  0  0  0  0  0  0  0  0
    7.5646  -18.2623   17.6061 C   0  0  1  0  0  0  0  0  0  0  0  0
    6.8988  -18.6419   16.4312 O   0  0  0  0  0  0  0  0  0  0  0  0
    7.5439  -16.7250   17.5788 C   0  0  2  0  0  0  0  0  0  0  0  0
    8.0977  -16.2838   16.2941 N   0  0  0  0  0  0  0  0  0  0  0  0
    8.4124  -16.2881   18.6877 C   0  0  0  0  0  0  0  0  0  0  0  0
    9.1630  -17.1456   19.2114 O   0  0  0  0  0  0  0  0  0  0  0  0
    8.4382  -14.9688   19.1789 N   0  0  0  0  0  0  0  0  0  0  0  0
    7.7725  -13.8507   18.5412 C   0  0  0  0  0  0  0  0  0  0  0  0
    7.0576  -13.2578   19.7635 C   0  0  0  0  0  0  0  0  0  0  0  0
    8.2768  -13.1826   20.6979 C   0  0  0  0  0  0  0  0  0  0  0  0
    9.0791  -14.4425   20.3519 C   0  0  1  0  0  0  0  0  0  0  0  0
    9.0105  -15.2987   21.5412 C   0  0  0  0  0  0  0  0  0  0  0  0
    8.0194  -15.6092   22.2059 O   0  0  0  0  0  0  0  0  0  0  0  0
    9.6238  -18.6410   21.9165 C   0  0  0  0  0  0  0  0  0  0  0  0
   10.7118  -18.0376   22.7942 C   0  0  1  0  0  0  0  0  0  0  0  0
   11.8855  -18.0884   22.0696 O   0  0  0  0  0  0  0  0  0  0  0  0
   10.3703  -16.6121   23.2082 C   0  0  2  0  0  0  0  0  0  0  0  0
   10.2646  -15.8467   21.9890 N   0  0  0  0  0  0  0  0  0  0  0  0
   11.3278  -16.0629   24.1590 C   0  0  0  0  0  0  0  0  0  0  0  0
   11.3156  -16.4529   25.4849 O   0  0  0  0  0  0  0  0  0  0  0  0
   12.1830  -15.2255   23.7963 O   0  0  0  0  0  0  0  0  0  0  0  0
  2  3  1  0
  2  1  1  1
  4  5  1  6
  4  2  1  0
  6  4  1  0
  7  6  2  0
  8  6  1  0
  9 10  1  0
  9  8  1  0
 10 11  1  0
 12 11  1  0
 12  8  1  0
 12 13  1  1
 13 19  1  0
 13 14  2  0
 16 15  1  6
 16 17  1  0
 16 18  1  0
 18 20  1  0
 18 19  1  6
 20 22  2  0
 20 21  1  0
M  END
$$$$
