TPT.pdb
     RDKit          3D

 22 22  0  0  1  0  0  0  0  0999 V2000
    6.4453  -16.7041   23.3634 C   0  0  0  0  0  0  0  0  0  0  0  0
    7.4553  -16.2135   22.3704 C   0  0  1  0  0  0  0  0  0  0  0  0
    6.9677  -16.4047   21.0691 O   0  0  0  0  0  0  0  0  0  0  0  0
    7.6611  -14.6938   22.4832 C   0  0  2  0  0  0  0  0  0  0  0  0
    8.5028  -14.2627   21.3619 N   0  0  0  0  0  0  0  0  0  0  0  0
    8.3606  -14.4734   23.7626 C   0  0  0  0  0  0  0  0  0  0  0  0
    9.4230  -15.1096   23.9620 O   0  0  0  0  0  0  0  0  0  0  0  0
    7.8972  -13.5918   24.7578 N   0  0  0  0  0  0  0  0  0  0  0  0
    6.8723  -12.5900   24.5433 C   0  0  0  0  0  0  0  0  0  0  0  0
    5.9809  -12.8829   25.7584 C   0  0  0  0  0  0  0  0  0  0  0  0
    7.0809  -12.8487   26.8328 C   0  0  0  0  0  0  0  0  0  0  0  0
    8.2918  -13.4785   26.1344 C   0  0  1  0  0  0  0  0  0  0  0  0
    8.5334  -14.7506   26.8240 C   0  0  0  0  0  0  0  0  0  0  0  0
    7.7385  -15.6678   27.0410 O   0  0  0  0  0  0  0  0  0  0  0  0
   11.0415  -17.0885   25.8545 C   0  0  0  0  0  0  0  0  0  0  0  0
   11.4150  -16.7616   27.2939 C   0  0  1  0  0  0  0  0  0  0  0  0
   12.5006  -15.9108   27.2430 O   0  0  0  0  0  0  0  0  0  0  0  0
   10.2478  -16.1361   28.0465 C   0  0  2  0  0  0  0  0  0  0  0  0
    9.8739  -14.9525   27.3100 N   0  0  0  0  0  0  0  0  0  0  0  0
   10.5612  -15.8764   29.4454 C   0  0  0  0  0  0  0  0  0  0  0  0
   10.6140  -14.5844   29.9335 O   0  0  0  0  0  0  0  0  0  0  0  0
   10.7897  -16.8178   30.2365 O   0  0  0  0  0  0  0  0  0  0  0  0
  2  3  1  0
  2  1  1  1
  4  5  1  6
  4  2  1  0
  6  4  1  0
  7  6  2  0
  8  6  1  0
  9 10  1  0
  9  8  1  0
 10 11  1  0
 12 11  1  0
 12  8  1  0
 12 13  1  1
 13 19  1  0
 13 14  2  0
 16 15  1  6
 16 17  1  0
 16 18  1  0
 18 20  1  0
 18 19  1  6
 20 22  2  0
 20 21  1  0
M  END
$$$$
