TPT.pdb
     RDKit          3D

 22 22  0  0  1  0  0  0  0  0999 V2000
    7.7592  -16.8142   14.9469 C   0  0  0  0  0  0  0  0  0  0  0  0
    8.2064  -16.4641   16.3341 C   0  0  1  0  0  0  0  0  0  0  0  0
    9.0567  -17.4674   16.8221 O   0  0  0  0  0  0  0  0  0  0  0  0
    9.0707  -15.1923   16.3409 C   0  0  2  0  0  0  0  0  0  0  0  0
   10.1850  -15.3926   15.4082 N   0  0  0  0  0  0  0  0  0  0  0  0
    9.5760  -15.0530   17.7194 C   0  0  0  0  0  0  0  0  0  0  0  0
   10.5084  -15.8118   18.0768 O   0  0  0  0  0  0  0  0  0  0  0  0
    9.0668  -14.1183   18.6411 N   0  0  0  0  0  0  0  0  0  0  0  0
    8.1815  -13.0270   18.2871 C   0  0  0  0  0  0  0  0  0  0  0  0
    7.1080  -13.2179   19.3678 C   0  0  0  0  0  0  0  0  0  0  0  0
    8.0483  -13.2736   20.5836 C   0  0  0  0  0  0  0  0  0  0  0  0
    9.2779  -14.0243   20.0589 C   0  0  1  0  0  0  0  0  0  0  0  0
    9.2999  -15.3043   20.7755 C   0  0  0  0  0  0  0  0  0  0  0  0
    8.4388  -16.1865   20.7954 O   0  0  0  0  0  0  0  0  0  0  0  0
   12.0407  -17.5234   20.2725 C   0  0  0  0  0  0  0  0  0  0  0  0
   12.0060  -17.3709   21.7870 C   0  0  1  0  0  0  0  0  0  0  0  0
   13.0580  -16.5463   22.1310 O   0  0  0  0  0  0  0  0  0  0  0  0
   10.6734  -16.8066   22.2621 C   0  0  2  0  0  0  0  0  0  0  0  0
   10.4819  -15.5619   21.5568 N   0  0  0  0  0  0  0  0  0  0  0  0
   10.6103  -16.6701   23.7112 C   0  0  0  0  0  0  0  0  0  0  0  0
   10.6514  -17.7816   24.5317 O   0  0  0  0  0  0  0  0  0  0  0  0
   10.5175  -15.5431   24.2455 O   0  0  0  0  0  0  0  0  0  0  0  0
  2  3  1  0
  2  1  1  6
  4  5  1  6
  4  2  1  0
  6  4  1  0
  7  6  2  0
  8  6  1  0
  9 10  1  0
  9  8  1  0
 10 11  1  0
 12 11  1  0
 12  8  1  0
 12 13  1  1
 13 19  1  0
 13 14  2  0
 16 15  1  6
 16 17  1  0
 16 18  1  0
 18 20  1  0
 18 19  1  6
 20 22  2  0
 20 21  1  0
M  END
$$$$
