TPT.pdb
     RDKit          3D

 22 22  0  0  1  0  0  0  0  0999 V2000
    8.0171  -17.7316   20.1057 C   0  0  0  0  0  0  0  0  0  0  0  0
    8.4706  -17.1627   21.4162 C   0  0  1  0  0  0  0  0  0  0  0  0
    9.6479  -17.8056   21.8266 O   0  0  0  0  0  0  0  0  0  0  0  0
    8.8694  -15.6840   21.2784 C   0  0  2  0  0  0  0  0  0  0  0  0
   10.0286  -15.6054   20.3831 N   0  0  0  0  0  0  0  0  0  0  0  0
    9.2384  -15.2357   22.6340 C   0  0  0  0  0  0  0  0  0  0  0  0
   10.4203  -15.4257   23.0081 O   0  0  0  0  0  0  0  0  0  0  0  0
    8.3365  -14.6110   23.5165 N   0  0  0  0  0  0  0  0  0  0  0  0
    7.0180  -14.1451   23.1362 C   0  0  0  0  0  0  0  0  0  0  0  0
    6.1983  -14.7598   24.2795 C   0  0  0  0  0  0  0  0  0  0  0  0
    7.0504  -14.2356   25.4476 C   0  0  0  0  0  0  0  0  0  0  0  0
    8.4855  -14.3076   24.9127 C   0  0  1  0  0  0  0  0  0  0  0  0
    9.1575  -15.3396   25.7101 C   0  0  0  0  0  0  0  0  0  0  0  0
    9.3522  -16.5231   25.4244 O   0  0  0  0  0  0  0  0  0  0  0  0
   11.4409  -13.6317   28.6878 C   0  0  0  0  0  0  0  0  0  0  0  0
   10.8156  -14.9677   29.0652 C   0  0  1  0  0  0  0  0  0  0  0  0
    9.7080  -14.6873   29.8397 O   0  0  0  0  0  0  0  0  0  0  0  0
   10.4452  -15.7806   27.8315 C   0  0  2  0  0  0  0  0  0  0  0  0
    9.6533  -14.9128   26.9929 N   0  0  0  0  0  0  0  0  0  0  0  0
    9.7792  -17.0320   28.1674 C   0  0  0  0  0  0  0  0  0  0  0  0
    8.4298  -17.2061   27.9241 O   0  0  0  0  0  0  0  0  0  0  0  0
   10.4143  -17.9775   28.6839 O   0  0  0  0  0  0  0  0  0  0  0  0
  2  3  1  0
  2  1  1  6
  4  5  1  6
  4  2  1  0
  6  4  1  0
  7  6  2  0
  8  6  1  0
  9 10  1  0
  9  8  1  0
 10 11  1  0
 12 11  1  0
 12  8  1  0
 12 13  1  1
 13 19  1  0
 13 14  2  0
 16 15  1  6
 16 17  1  0
 16 18  1  0
 18 20  1  0
 18 19  1  6
 20 22  2  0
 20 21  1  0
M  END
$$$$
