TPT.pdb
     RDKit          3D

 22 22  0  0  1  0  0  0  0  0999 V2000
    8.0680  -16.8438   15.1373 C   0  0  0  0  0  0  0  0  0  0  0  0
    8.4382  -16.4746   16.5421 C   0  0  1  0  0  0  0  0  0  0  0  0
    9.2618  -17.4696   17.0892 O   0  0  0  0  0  0  0  0  0  0  0  0
    9.2991  -15.2010   16.5795 C   0  0  2  0  0  0  0  0  0  0  0  0
   10.4658  -15.4133   15.7162 N   0  0  0  0  0  0  0  0  0  0  0  0
    9.7233  -15.0395   17.9827 C   0  0  0  0  0  0  0  0  0  0  0  0
   10.6363  -15.7889   18.4044 O   0  0  0  0  0  0  0  0  0  0  0  0
    9.1583  -14.0939   18.8596 N   0  0  0  0  0  0  0  0  0  0  0  0
    8.3021  -13.0036   18.4375 C   0  0  0  0  0  0  0  0  0  0  0  0
    7.1594  -13.1802   19.4474 C   0  0  0  0  0  0  0  0  0  0  0  0
    8.0180  -13.2263   20.7226 C   0  0  0  0  0  0  0  0  0  0  0  0
    9.2765  -13.9861   20.2872 C   0  0  1  0  0  0  0  0  0  0  0  0
    9.2469  -15.2587   21.0165 C   0  0  0  0  0  0  0  0  0  0  0  0
    8.3537  -16.1084   21.0391 O   0  0  0  0  0  0  0  0  0  0  0  0
   11.5497  -17.8026   20.5094 C   0  0  0  0  0  0  0  0  0  0  0  0
   11.7255  -17.5243   21.9960 C   0  0  1  0  0  0  0  0  0  0  0  0
   12.8938  -16.8022   22.1332 O   0  0  0  0  0  0  0  0  0  0  0  0
   10.5315  -16.7722   22.5695 C   0  0  2  0  0  0  0  0  0  0  0  0
   10.4134  -15.5516   21.8083 N   0  0  0  0  0  0  0  0  0  0  0  0
   10.6472  -16.5540   24.0053 C   0  0  0  0  0  0  0  0  0  0  0  0
   10.6157  -17.6155   24.8899 O   0  0  0  0  0  0  0  0  0  0  0  0
   10.7776  -15.4001   24.4698 O   0  0  0  0  0  0  0  0  0  0  0  0
  2  3  1  0
  2  1  1  6
  4  5  1  6
  4  2  1  0
  6  4  1  0
  7  6  2  0
  8  6  1  0
  9 10  1  0
  9  8  1  0
 10 11  1  0
 12 11  1  0
 12  8  1  0
 12 13  1  1
 13 19  1  0
 13 14  2  0
 16 15  1  6
 16 17  1  0
 16 18  1  0
 18 20  1  0
 18 19  1  6
 20 22  2  0
 20 21  1  0
M  END
$$$$
