TPT.pdb
     RDKit          3D

 22 22  0  0  1  0  0  0  0  0999 V2000
    7.6632  -16.7711   14.4833 C   0  0  0  0  0  0  0  0  0  0  0  0
    8.2355  -16.4356   15.8275 C   0  0  1  0  0  0  0  0  0  0  0  0
    9.2329  -17.3643   16.1599 O   0  0  0  0  0  0  0  0  0  0  0  0
    8.9644  -15.0818   15.8052 C   0  0  2  0  0  0  0  0  0  0  0  0
   10.0390  -15.1583   14.8097 N   0  0  0  0  0  0  0  0  0  0  0  0
    9.5295  -14.9033   17.1556 C   0  0  0  0  0  0  0  0  0  0  0  0
   10.5373  -15.5853   17.4594 O   0  0  0  0  0  0  0  0  0  0  0  0
    8.9969  -14.0131   18.1075 N   0  0  0  0  0  0  0  0  0  0  0  0
    8.0376  -12.9716   17.7993 C   0  0  0  0  0  0  0  0  0  0  0  0
    7.0136  -13.2405   18.9110 C   0  0  0  0  0  0  0  0  0  0  0  0
    7.9954  -13.2566   20.0947 C   0  0  0  0  0  0  0  0  0  0  0  0
    9.2490  -13.9258   19.5191 C   0  0  1  0  0  0  0  0  0  0  0  0
    9.3702  -15.2118   20.2148 C   0  0  0  0  0  0  0  0  0  0  0  0
    8.6758  -16.2222   20.0842 O   0  0  0  0  0  0  0  0  0  0  0  0
   12.6592  -17.8708   22.7659 C   0  0  0  0  0  0  0  0  0  0  0  0
   12.2318  -16.5992   22.0456 C   0  0  1  0  0  0  0  0  0  0  0  0
   12.8677  -16.5995   20.8206 O   0  0  0  0  0  0  0  0  0  0  0  0
   10.7183  -16.5254   21.8912 C   0  0  2  0  0  0  0  0  0  0  0  0
   10.4398  -15.3038   21.1746 N   0  0  0  0  0  0  0  0  0  0  0  0
   10.0220  -16.6235   23.1671 C   0  0  0  0  0  0  0  0  0  0  0  0
    9.7176  -17.8542   23.7173 O   0  0  0  0  0  0  0  0  0  0  0  0
    9.6840  -15.5951   23.7936 O   0  0  0  0  0  0  0  0  0  0  0  0
  2  3  1  0
  2  1  1  6
  4  5  1  6
  4  2  1  0
  6  4  1  0
  7  6  2  0
  8  6  1  0
  9 10  1  0
  9  8  1  0
 10 11  1  0
 12 11  1  0
 12  8  1  0
 12 13  1  1
 13 19  1  0
 13 14  2  0
 16 15  1  6
 16 17  1  0
 16 18  1  0
 18 20  1  0
 18 19  1  1
 20 22  2  0
 20 21  1  0
M  END
$$$$
