TPT.pdb
     RDKit          3D

 22 22  0  0  1  0  0  0  0  0999 V2000
    7.3041  -18.0014   18.1836 C   0  0  0  0  0  0  0  0  0  0  0  0
    8.3938  -17.5583   17.2546 C   0  0  1  0  0  0  0  0  0  0  0  0
    8.0422  -17.8711   15.9331 O   0  0  0  0  0  0  0  0  0  0  0  0
    8.5471  -16.0282   17.2585 C   0  0  2  0  0  0  0  0  0  0  0  0
    9.3937  -15.6514   16.1215 N   0  0  0  0  0  0  0  0  0  0  0  0
    9.2162  -15.6912   18.5287 C   0  0  0  0  0  0  0  0  0  0  0  0
   10.2618  -16.3195   18.8201 O   0  0  0  0  0  0  0  0  0  0  0  0
    8.7418  -14.7080   19.4180 N   0  0  0  0  0  0  0  0  0  0  0  0
    7.7723  -13.6910   19.0635 C   0  0  0  0  0  0  0  0  0  0  0  0
    6.8101  -13.8411   20.2502 C   0  0  0  0  0  0  0  0  0  0  0  0
    7.8558  -13.7537   21.3746 C   0  0  0  0  0  0  0  0  0  0  0  0
    9.0721  -14.4883   20.7987 C   0  0  1  0  0  0  0  0  0  0  0  0
    9.2250  -15.7026   21.6075 C   0  0  0  0  0  0  0  0  0  0  0  0
    8.4489  -16.6547   21.7149 O   0  0  0  0  0  0  0  0  0  0  0  0
   13.0632  -15.9737   23.3408 C   0  0  0  0  0  0  0  0  0  0  0  0
   12.2353  -17.2103   23.0190 C   0  0  1  0  0  0  0  0  0  0  0  0
   12.6711  -18.2143   23.8600 O   0  0  0  0  0  0  0  0  0  0  0  0
   10.7449  -16.9454   23.1881 C   0  0  2  0  0  0  0  0  0  0  0  0
   10.4400  -15.7924   22.3752 N   0  0  0  0  0  0  0  0  0  0  0  0
   10.3609  -16.7910   24.5849 C   0  0  0  0  0  0  0  0  0  0  0  0
   10.3077  -17.8820   25.4318 O   0  0  0  0  0  0  0  0  0  0  0  0
   10.0704  -15.6666   25.0492 O   0  0  0  0  0  0  0  0  0  0  0  0
  2  3  1  0
  2  1  1  1
  4  5  1  6
  4  2  1  0
  6  4  1  0
  7  6  2  0
  8  6  1  0
  9 10  1  0
  9  8  1  0
 10 11  1  0
 12 11  1  0
 12  8  1  0
 12 13  1  1
 13 19  1  0
 13 14  2  0
 16 15  1  1
 16 17  1  0
 16 18  1  0
 18 20  1  0
 18 19  1  6
 20 22  2  0
 20 21  1  0
M  END
$$$$
