TPT.pdb
     RDKit          3D

 22 22  0  0  1  0  0  0  0  0999 V2000
    6.5741  -16.7925   23.2123 C   0  0  0  0  0  0  0  0  0  0  0  0
    7.5221  -16.1981   22.2150 C   0  0  1  0  0  0  0  0  0  0  0  0
    7.0080  -16.3627   20.9203 O   0  0  0  0  0  0  0  0  0  0  0  0
    7.6390  -14.6749   22.3902 C   0  0  2  0  0  0  0  0  0  0  0  0
    8.4221  -14.1452   21.2687 N   0  0  0  0  0  0  0  0  0  0  0  0
    8.3588  -14.4671   23.6605 C   0  0  0  0  0  0  0  0  0  0  0  0
    9.4172  -15.1149   23.8422 O   0  0  0  0  0  0  0  0  0  0  0  0
    7.9186  -13.5850   24.6658 N   0  0  0  0  0  0  0  0  0  0  0  0
    6.9015  -12.5715   24.4698 C   0  0  0  0  0  0  0  0  0  0  0  0
    6.0240  -12.8602   25.6958 C   0  0  0  0  0  0  0  0  0  0  0  0
    7.1390  -12.8425   26.7550 C   0  0  0  0  0  0  0  0  0  0  0  0
    8.3334  -13.4819   26.0372 C   0  0  1  0  0  0  0  0  0  0  0  0
    8.5709  -14.7596   26.7180 C   0  0  0  0  0  0  0  0  0  0  0  0
    7.7943  -15.7059   26.8645 O   0  0  0  0  0  0  0  0  0  0  0  0
   11.1310  -17.0356   25.8556 C   0  0  0  0  0  0  0  0  0  0  0  0
   11.4485  -16.7158   27.3099 C   0  0  1  0  0  0  0  0  0  0  0  0
   12.5219  -15.8482   27.3045 O   0  0  0  0  0  0  0  0  0  0  0  0
   10.2460  -16.1147   28.0260 C   0  0  2  0  0  0  0  0  0  0  0  0
    9.8822  -14.9284   27.2887 N   0  0  0  0  0  0  0  0  0  0  0  0
   10.5047  -15.8660   29.4380 C   0  0  0  0  0  0  0  0  0  0  0  0
   10.7441  -16.9104   30.3110 O   0  0  0  0  0  0  0  0  0  0  0  0
   10.5160  -14.7007   29.8921 O   0  0  0  0  0  0  0  0  0  0  0  0
  2  3  1  0
  2  1  1  1
  4  5  1  6
  4  2  1  0
  6  4  1  0
  7  6  2  0
  8  6  1  0
  9 10  1  0
  9  8  1  0
 10 11  1  0
 12 11  1  0
 12  8  1  0
 12 13  1  1
 13 19  1  0
 13 14  2  0
 16 15  1  6
 16 17  1  0
 16 18  1  0
 18 20  1  0
 18 19  1  6
 20 22  2  0
 20 21  1  0
M  END
$$$$
