TPT.pdb
     RDKit          3D

 22 22  0  0  1  0  0  0  0  0999 V2000
    6.3867  -16.6349   23.1483 C   0  0  0  0  0  0  0  0  0  0  0  0
    7.3460  -16.0226   22.1727 C   0  0  1  0  0  0  0  0  0  0  0  0
    6.8276  -16.1277   20.8735 O   0  0  0  0  0  0  0  0  0  0  0  0
    7.4939  -14.5098   22.4052 C   0  0  2  0  0  0  0  0  0  0  0  0
    8.2528  -13.9476   21.2828 N   0  0  0  0  0  0  0  0  0  0  0  0
    8.2542  -14.3651   23.6606 C   0  0  0  0  0  0  0  0  0  0  0  0
    9.2959  -15.0509   23.7922 O   0  0  0  0  0  0  0  0  0  0  0  0
    7.8696  -13.5025   24.7048 N   0  0  0  0  0  0  0  0  0  0  0  0
    6.8407  -12.4890   24.5849 C   0  0  0  0  0  0  0  0  0  0  0  0
    6.0349  -12.8024   25.8535 C   0  0  0  0  0  0  0  0  0  0  0  0
    7.2082  -12.7995   26.8478 C   0  0  0  0  0  0  0  0  0  0  0  0
    8.3614  -13.4221   26.0521 C   0  0  1  0  0  0  0  0  0  0  0  0
    8.6403  -14.7108   26.6955 C   0  0  0  0  0  0  0  0  0  0  0  0
    7.8724  -15.6579   26.8789 O   0  0  0  0  0  0  0  0  0  0  0  0
   12.0654  -17.9503   27.7797 C   0  0  0  0  0  0  0  0  0  0  0  0
   11.5601  -16.6713   27.1262 C   0  0  1  0  0  0  0  0  0  0  0  0
   11.2071  -16.9951   25.8317 O   0  0  0  0  0  0  0  0  0  0  0  0
   10.3873  -16.0760   27.8944 C   0  0  2  0  0  0  0  0  0  0  0  0
    9.9863  -14.8911   27.1743 N   0  0  0  0  0  0  0  0  0  0  0  0
   10.7062  -15.8267   29.2939 C   0  0  0  0  0  0  0  0  0  0  0  0
   10.7256  -16.8590   30.2128 O   0  0  0  0  0  0  0  0  0  0  0  0
   10.9699  -14.6719   29.6954 O   0  0  0  0  0  0  0  0  0  0  0  0
  2  3  1  0
  2  1  1  1
  4  5  1  6
  4  2  1  0
  6  4  1  0
  7  6  2  0
  8  6  1  0
  9 10  1  0
  9  8  1  0
 10 11  1  0
 12 11  1  0
 12  8  1  0
 12 13  1  1
 13 19  1  0
 13 14  2  0
 16 15  1  1
 16 17  1  0
 16 18  1  0
 18 20  1  0
 18 19  1  6
 20 22  2  0
 20 21  1  0
M  END
$$$$
