TPT.pdb
     RDKit          3D

 22 22  0  0  1  0  0  0  0  0999 V2000
    7.0373  -18.7174   17.9233 C   0  0  0  0  0  0  0  0  0  0  0  0
    7.8163  -18.3508   19.1503 C   0  0  1  0  0  0  0  0  0  0  0  0
    8.7233  -19.3762   19.4563 O   0  0  0  0  0  0  0  0  0  0  0  0
    8.7009  -17.1170   18.9058 C   0  0  2  0  0  0  0  0  0  0  0  0
    9.7074  -17.4693   17.8987 N   0  0  0  0  0  0  0  0  0  0  0  0
    9.3500  -16.8213   20.1966 C   0  0  0  0  0  0  0  0  0  0  0  0
   10.2984  -17.5603   20.5536 O   0  0  0  0  0  0  0  0  0  0  0  0
    8.9597  -15.7603   21.0357 N   0  0  0  0  0  0  0  0  0  0  0  0
    8.0692  -14.6904   20.6328 C   0  0  0  0  0  0  0  0  0  0  0  0
    7.1070  -14.7046   21.8289 C   0  0  0  0  0  0  0  0  0  0  0  0
    8.1647  -14.6416   22.9438 C   0  0  0  0  0  0  0  0  0  0  0  0
    9.3162  -15.4968   22.4022 C   0  0  1  0  0  0  0  0  0  0  0  0
    9.3806  -16.6765   23.2719 C   0  0  0  0  0  0  0  0  0  0  0  0
    8.5237  -17.5451   23.4499 O   0  0  0  0  0  0  0  0  0  0  0  0
   11.7480  -19.1140   22.7562 C   0  0  0  0  0  0  0  0  0  0  0  0
   12.0331  -18.7294   24.2015 C   0  0  1  0  0  0  0  0  0  0  0  0
   13.1661  -17.9411   24.1905 O   0  0  0  0  0  0  0  0  0  0  0  0
   10.8514  -18.0030   24.8307 C   0  0  2  0  0  0  0  0  0  0  0  0
   10.6044  -16.8396   24.0131 N   0  0  0  0  0  0  0  0  0  0  0  0
   11.0732  -17.6903   26.2363 C   0  0  0  0  0  0  0  0  0  0  0  0
   11.1131  -18.6909   27.1889 O   0  0  0  0  0  0  0  0  0  0  0  0
   11.2327  -16.5082   26.6125 O   0  0  0  0  0  0  0  0  0  0  0  0
  2  3  1  0
  2  1  1  6
  4  5  1  6
  4  2  1  0
  6  4  1  0
  7  6  2  0
  8  6  1  0
  9 10  1  0
  9  8  1  0
 10 11  1  0
 12 11  1  0
 12  8  1  0
 12 13  1  1
 13 19  1  0
 13 14  2  0
 16 15  1  6
 16 17  1  0
 16 18  1  0
 18 20  1  0
 18 19  1  6
 20 22  2  0
 20 21  1  0
M  END
$$$$
