TPT.pdb
     RDKit          3D

 22 22  0  0  1  0  0  0  0  0999 V2000
    6.2832  -15.3678   20.8706 C   0  0  0  0  0  0  0  0  0  0  0  0
    6.9192  -15.3283   22.2273 C   0  0  1  0  0  0  0  0  0  0  0  0
    7.7672  -16.4349   22.3824 O   0  0  0  0  0  0  0  0  0  0  0  0
    7.8465  -14.1109   22.3774 C   0  0  2  0  0  0  0  0  0  0  0  0
    8.8978  -14.2095   21.3592 N   0  0  0  0  0  0  0  0  0  0  0  0
    8.4309  -14.2105   23.7277 C   0  0  0  0  0  0  0  0  0  0  0  0
    9.3423  -15.0533   23.9065 O   0  0  0  0  0  0  0  0  0  0  0  0
    8.0187  -13.4122   24.8118 N   0  0  0  0  0  0  0  0  0  0  0  0
    7.1360  -12.2694   24.6905 C   0  0  0  0  0  0  0  0  0  0  0  0
    6.1456  -12.6002   25.8160 C   0  0  0  0  0  0  0  0  0  0  0  0
    7.1763  -12.8439   26.9312 C   0  0  0  0  0  0  0  0  0  0  0  0
    8.3421  -13.5273   26.2068 C   0  0  1  0  0  0  0  0  0  0  0  0
    8.3880  -14.8976   26.7286 C   0  0  0  0  0  0  0  0  0  0  0  0
    7.7759  -15.8907   26.3293 O   0  0  0  0  0  0  0  0  0  0  0  0
   11.9938  -15.3440   26.9766 C   0  0  0  0  0  0  0  0  0  0  0  0
   10.9737  -16.4732   26.9281 C   0  0  1  0  0  0  0  0  0  0  0  0
   11.6812  -17.6560   27.0022 O   0  0  0  0  0  0  0  0  0  0  0  0
    9.9566  -16.3572   28.0560 C   0  0  2  0  0  0  0  0  0  0  0  0
    9.2622  -15.1082   27.8534 N   0  0  0  0  0  0  0  0  0  0  0  0
   10.5683  -16.4762   29.3729 C   0  0  0  0  0  0  0  0  0  0  0  0
   10.7703  -15.3621   30.1656 O   0  0  0  0  0  0  0  0  0  0  0  0
   10.9246  -17.5902   29.8160 O   0  0  0  0  0  0  0  0  0  0  0  0
  2  3  1  0
  2  1  1  6
  4  5  1  6
  4  2  1  0
  6  4  1  0
  7  6  2  0
  8  6  1  0
  9 10  1  0
  9  8  1  0
 10 11  1  0
 12 11  1  0
 12  8  1  0
 12 13  1  1
 13 19  1  0
 13 14  2  0
 16 15  1  1
 16 17  1  0
 16 18  1  0
 18 20  1  0
 18 19  1  1
 20 22  2  0
 20 21  1  0
M  END
$$$$
