TPT.pdb
     RDKit          3D

 22 22  0  0  1  0  0  0  0  0999 V2000
    6.3496  -16.5483   23.2464 C   0  0  0  0  0  0  0  0  0  0  0  0
    7.4723  -16.1467   22.3381 C   0  0  1  0  0  0  0  0  0  0  0  0
    7.0703  -16.2874   21.0016 O   0  0  0  0  0  0  0  0  0  0  0  0
    7.8045  -14.6523   22.4832 C   0  0  2  0  0  0  0  0  0  0  0  0
    8.7234  -14.2819   21.4015 N   0  0  0  0  0  0  0  0  0  0  0  0
    8.4701  -14.5101   23.7914 C   0  0  0  0  0  0  0  0  0  0  0  0
    9.4938  -15.2036   24.0018 O   0  0  0  0  0  0  0  0  0  0  0  0
    8.0157  -13.6419   24.8023 N   0  0  0  0  0  0  0  0  0  0  0  0
    7.0346  -12.5957   24.5950 C   0  0  0  0  0  0  0  0  0  0  0  0
    6.1033  -12.8907   25.7792 C   0  0  0  0  0  0  0  0  0  0  0  0
    7.1770  -12.9308   26.8796 C   0  0  0  0  0  0  0  0  0  0  0  0
    8.3804  -13.5850   26.1906 C   0  0  1  0  0  0  0  0  0  0  0  0
    8.5572  -14.8855   26.8461 C   0  0  0  0  0  0  0  0  0  0  0  0
    7.7210  -15.7739   27.0244 O   0  0  0  0  0  0  0  0  0  0  0  0
   10.8179  -17.4025   25.8829 C   0  0  0  0  0  0  0  0  0  0  0  0
   11.2688  -17.0863   27.3024 C   0  0  1  0  0  0  0  0  0  0  0  0
   12.4156  -16.3253   27.1985 O   0  0  0  0  0  0  0  0  0  0  0  0
   10.1832  -16.3596   28.0856 C   0  0  2  0  0  0  0  0  0  0  0  0
    9.8801  -15.1581   27.3453 N   0  0  0  0  0  0  0  0  0  0  0  0
   10.5658  -16.1100   29.4690 C   0  0  0  0  0  0  0  0  0  0  0  0
   10.7347  -17.1541   30.3587 O   0  0  0  0  0  0  0  0  0  0  0  0
   10.7501  -14.9441   29.8827 O   0  0  0  0  0  0  0  0  0  0  0  0
  2  3  1  0
  2  1  1  1
  4  5  1  6
  4  2  1  0
  6  4  1  0
  7  6  2  0
  8  6  1  0
  9 10  1  0
  9  8  1  0
 10 11  1  0
 12 11  1  0
 12  8  1  0
 12 13  1  1
 13 19  1  0
 13 14  2  0
 16 15  1  6
 16 17  1  0
 16 18  1  0
 18 20  1  0
 18 19  1  6
 20 22  2  0
 20 21  1  0
M  END
$$$$
