FYH.pdb
     RDKit          3D

 34 36  0  0  1  0  0  0  0  0999 V2000
    6.1903  -18.1297   25.8421 N   0  0  0  0  0  0  0  0  0  0  0  0
    6.5487  -16.7120   25.7463 C   0  0  1  0  0  0  0  0  0  0  0  0
    7.3381  -16.2786   26.9554 C   0  0  0  0  0  0  0  0  0  0  0  0
    7.4128  -14.8223   27.1018 C   0  0  0  0  0  0  0  0  0  0  0  0
    6.2693  -14.0749   27.2772 C   0  0  0  0  0  0  0  0  0  0  0  0
    6.3926  -12.7097   27.4113 C   0  0  0  0  0  0  0  0  0  0  0  0
    7.6101  -12.0663   27.3769 C   0  0  0  0  0  0  0  0  0  0  0  0
    8.7433  -12.8235   27.2014 C   0  0  0  0  0  0  0  0  0  0  0  0
    8.6350  -14.1908   27.0658 C   0  0  0  0  0  0  0  0  0  0  0  0
    7.2415  -16.4963   24.4644 C   0  0  0  0  0  0  0  0  0  0  0  0
    8.0758  -17.3480   23.9979 O   0  0  0  0  0  0  0  0  0  0  0  0
    9.1319  -13.2623   16.4136 O   0  0  0  0  0  0  0  0  0  0  0  0
    8.7308  -13.3848   17.7574 C   0  0  0  0  0  0  0  0  0  0  0  0
    9.5251  -12.9082   18.7806 C   0  0  0  0  0  0  0  0  0  0  0  0
    9.1049  -13.0429   20.0861 C   0  0  0  0  0  0  0  0  0  0  0  0
    7.9119  -13.6394   20.4270 C   0  0  0  0  0  0  0  0  0  0  0  0
    7.4209  -13.8081   21.7774 C   0  0  0  0  0  0  0  0  0  0  0  0
    7.7579  -15.1439   22.4129 C   0  0  2  0  0  0  0  0  0  0  0  0
    7.0549  -15.3514   23.6389 N   0  0  0  0  0  0  0  0  0  0  0  0
    9.2166  -15.2306   22.4657 C   0  0  0  0  0  0  0  0  0  0  0  0
    9.7877  -14.4752   23.3158 O   0  0  0  0  0  0  0  0  0  0  0  0
    7.1406  -14.1055   19.3815 C   0  0  0  0  0  0  0  0  0  0  0  0
    7.5363  -13.9842   18.0654 C   0  0  0  0  0  0  0  0  0  0  0  0
   10.0548  -16.0484   21.6907 N   0  0  0  0  0  0  0  0  0  0  0  0
   11.5081  -15.9854   21.8068 C   0  0  1  0  0  0  0  0  0  0  0  0
   12.0931  -17.3105   22.1689 C   0  0  0  0  0  0  0  0  0  0  0  0
   11.8188  -17.6049   23.5926 C   0  0  0  0  0  0  0  0  0  0  0  0
   11.7231  -16.6795   24.6178 C   0  0  0  0  0  0  0  0  0  0  0  0
   11.4656  -17.2844   25.7860 N   0  0  0  0  0  0  0  0  0  0  0  0
   11.3960  -18.5939   25.5130 C   0  0  0  0  0  0  0  0  0  0  0  0
   11.6058  -18.8079   24.1980 N   0  0  0  0  0  0  0  0  0  0  0  0
   12.0834  -15.4185   20.5702 C   0  0  0  0  0  0  0  0  0  0  0  0
   13.3326  -15.1719   20.5626 O   0  0  0  0  0  0  0  0  0  0  0  0
   11.3596  -15.1385   19.4204 O   0  0  0  0  0  0  0  0  0  0  0  0
  2  1  1  1
  2  3  1  0
  4  9  1  0
  4  3  1  0
  5  4  2  0
  6  7  2  0
  6  5  1  0
  7  8  1  0
  8  9  2  0
 10  2  1  0
 10 11  2  0
 12 13  1  0
 13 23  2  0
 14 15  2  0
 14 13  1  0
 15 16  1  0
 16 17  1  0
 16 22  2  0
 18 17  1  1
 18 19  1  0
 19 10  1  0
 20 18  1  0
 21 20  2  0
 23 22  1  0
 24 20  1  0
 25 32  1  0
 25 24  1  0
 26 27  1  0
 25 26  1  6
 27 28  2  0
 28 29  1  0
 30 29  1  0
 31 27  1  0
 31 30  2  0
 32 34  1  0
 33 32  2  0
M  END
$$$$
