FYH.pdb
     RDKit          3D

 34 36  0  0  1  0  0  0  0  0999 V2000
    8.6936  -16.0893   20.7315 N   0  0  0  0  0  0  0  0  0  0  0  0
   10.0280  -15.4905   20.8240 C   0  0  1  0  0  0  0  0  0  0  0  0
   10.0142  -14.0746   20.3063 C   0  0  0  0  0  0  0  0  0  0  0  0
    8.9623  -13.8351   19.3145 C   0  0  0  0  0  0  0  0  0  0  0  0
    9.1198  -14.2491   18.0103 C   0  0  0  0  0  0  0  0  0  0  0  0
    8.1015  -14.0016   17.1164 C   0  0  0  0  0  0  0  0  0  0  0  0
    6.9373  -13.3588   17.4753 C   0  0  0  0  0  0  0  0  0  0  0  0
    6.7926  -12.9508   18.7794 C   0  0  0  0  0  0  0  0  0  0  0  0
    7.8034  -13.1918   19.6849 C   0  0  0  0  0  0  0  0  0  0  0  0
   10.4969  -15.6199   22.2144 C   0  0  0  0  0  0  0  0  0  0  0  0
   11.5530  -15.0253   22.6273 O   0  0  0  0  0  0  0  0  0  0  0  0
    6.0169  -12.0801   28.4914 O   0  0  0  0  0  0  0  0  0  0  0  0
    6.5914  -12.7141   27.3734 C   0  0  0  0  0  0  0  0  0  0  0  0
    7.6166  -12.1165   26.6686 C   0  0  0  0  0  0  0  0  0  0  0  0
    8.1584  -12.7623   25.5785 C   0  0  0  0  0  0  0  0  0  0  0  0
    7.7208  -13.9952   25.1497 C   0  0  0  0  0  0  0  0  0  0  0  0
    8.2510  -14.7187   24.0145 C   0  0  0  0  0  0  0  0  0  0  0  0
    9.2223  -15.8294   24.3674 C   0  0  2  0  0  0  0  0  0  0  0  0
    9.8385  -16.3959   23.2100 N   0  0  0  0  0  0  0  0  0  0  0  0
    8.5087  -16.7493   25.2522 C   0  0  0  0  0  0  0  0  0  0  0  0
    7.4452  -16.2961   25.7841 O   0  0  0  0  0  0  0  0  0  0  0  0
    6.6948  -14.5662   25.8753 C   0  0  0  0  0  0  0  0  0  0  0  0
    6.1337  -13.9425   26.9705 C   0  0  0  0  0  0  0  0  0  0  0  0
    8.8603  -18.0690   25.5795 N   0  0  0  0  0  0  0  0  0  0  0  0
    9.9062  -18.3646   26.5533 C   0  0  1  0  0  0  0  0  0  0  0  0
   11.2562  -17.9668   26.0547 C   0  0  0  0  0  0  0  0  0  0  0  0
   11.7060  -18.9207   25.0171 C   0  0  0  0  0  0  0  0  0  0  0  0
   11.8818  -20.2845   25.1777 C   0  0  0  0  0  0  0  0  0  0  0  0
   12.2984  -20.8509   24.0364 N   0  0  0  0  0  0  0  0  0  0  0  0
   12.3901  -19.8551   23.1453 C   0  0  0  0  0  0  0  0  0  0  0  0
   12.0378  -18.6849   23.7158 N   0  0  0  0  0  0  0  0  0  0  0  0
    9.5662  -17.7501   27.8527 C   0  0  0  0  0  0  0  0  0  0  0  0
    8.7889  -16.7416   27.8402 O   0  0  0  0  0  0  0  0  0  0  0  0
   10.0324  -18.1949   29.0811 O   0  0  0  0  0  0  0  0  0  0  0  0
  2  1  1  1
  2  3  1  0
  4  9  1  0
  4  3  1  0
  5  4  2  0
  6  7  2  0
  6  5  1  0
  7  8  1  0
  8  9  2  0
 10  2  1  0
 10 11  2  0
 12 13  1  0
 13 23  2  0
 14 15  2  0
 14 13  1  0
 15 16  1  0
 16 17  1  0
 16 22  2  0
 18 17  1  6
 18 19  1  0
 19 10  1  0
 20 18  1  0
 21 20  2  0
 23 22  1  0
 24 20  1  0
 25 32  1  0
 25 24  1  0
 26 27  1  0
 25 26  1  6
 27 28  2  0
 28 29  1  0
 30 29  1  0
 31 27  1  0
 31 30  2  0
 32 34  1  0
 33 32  2  0
M  END
$$$$
