FYH.pdb
     RDKit          3D

 34 36  0  0  1  0  0  0  0  0999 V2000
   11.0411  -16.2177   20.2607 N   0  0  0  0  0  0  0  0  0  0  0  0
   10.0757  -15.5721   21.1545 C   0  0  1  0  0  0  0  0  0  0  0  0
    8.6635  -15.8938   20.7358 C   0  0  0  0  0  0  0  0  0  0  0  0
    7.9903  -14.7731   20.0737 C   0  0  0  0  0  0  0  0  0  0  0  0
    7.7060  -14.8217   18.7270 C   0  0  0  0  0  0  0  0  0  0  0  0
    7.0708  -13.7433   18.1517 C   0  0  0  0  0  0  0  0  0  0  0  0
    6.7109  -12.6235   18.8685 C   0  0  0  0  0  0  0  0  0  0  0  0
    7.0003  -12.5876   20.2113 C   0  0  0  0  0  0  0  0  0  0  0  0
    7.6356  -13.6595   20.8005 C   0  0  0  0  0  0  0  0  0  0  0  0
   10.3974  -15.9588   22.5389 C   0  0  0  0  0  0  0  0  0  0  0  0
   10.9926  -17.0595   22.8099 O   0  0  0  0  0  0  0  0  0  0  0  0
   10.7959  -16.0126   31.4391 O   0  0  0  0  0  0  0  0  0  0  0  0
   10.5027  -15.7061   30.0967 C   0  0  0  0  0  0  0  0  0  0  0  0
    9.5503  -16.4202   29.3981 C   0  0  0  0  0  0  0  0  0  0  0  0
    9.2858  -16.0962   28.0851 C   0  0  0  0  0  0  0  0  0  0  0  0
    9.9351  -15.0783   27.4236 C   0  0  0  0  0  0  0  0  0  0  0  0
    9.6989  -14.6945   26.0487 C   0  0  0  0  0  0  0  0  0  0  0  0
   10.3937  -15.5651   25.0186 C   0  0  2  0  0  0  0  0  0  0  0  0
   10.0890  -15.1669   23.6812 N   0  0  0  0  0  0  0  0  0  0  0  0
   10.1058  -16.9536   25.3757 C   0  0  0  0  0  0  0  0  0  0  0  0
    9.1458  -17.5018   24.7454 O   0  0  0  0  0  0  0  0  0  0  0  0
   10.8815  -14.3834   28.1492 C   0  0  0  0  0  0  0  0  0  0  0  0
   11.1667  -14.6860   29.4648 C   0  0  0  0  0  0  0  0  0  0  0  0
   10.7647  -17.7473   26.3286 N   0  0  0  0  0  0  0  0  0  0  0  0
   11.1212  -19.1358   26.0553 C   0  0  1  0  0  0  0  0  0  0  0  0
   11.8047  -19.2830   24.7360 C   0  0  0  0  0  0  0  0  0  0  0  0
   10.8385  -19.7646   23.7244 C   0  0  0  0  0  0  0  0  0  0  0  0
    9.4954  -20.0276   23.9330 C   0  0  0  0  0  0  0  0  0  0  0  0
    8.9095  -20.4498   22.8036 N   0  0  0  0  0  0  0  0  0  0  0  0
    9.8723  -20.4582   21.8724 C   0  0  0  0  0  0  0  0  0  0  0  0
   11.0411  -20.0491   22.4065 N   0  0  0  0  0  0  0  0  0  0  0  0
   11.9114  -19.6785   27.1789 C   0  0  0  0  0  0  0  0  0  0  0  0
   12.2723  -20.8976   27.1087 O   0  0  0  0  0  0  0  0  0  0  0  0
   12.2872  -18.9541   28.3007 O   0  0  0  0  0  0  0  0  0  0  0  0
  2  1  1  6
  2  3  1  0
  4  9  1  0
  4  3  1  0
  5  4  2  0
  6  7  2  0
  6  5  1  0
  7  8  1  0
  8  9  2  0
 10  2  1  0
 10 11  2  0
 12 13  1  0
 13 23  2  0
 14 15  2  0
 14 13  1  0
 15 16  1  0
 16 17  1  0
 16 22  2  0
 18 17  1  1
 18 19  1  0
 19 10  1  0
 20 18  1  0
 21 20  2  0
 23 22  1  0
 24 20  1  0
 25 32  1  0
 25 24  1  0
 26 27  1  0
 25 26  1  6
 27 28  2  0
 28 29  1  0
 30 29  1  0
 31 27  1  0
 31 30  2  0
 32 34  1  0
 33 32  2  0
M  END
$$$$
