FYH.pdb
     RDKit          3D

 34 36  0  0  1  0  0  0  0  0999 V2000
    8.7741  -15.9020   15.4431 N   0  0  0  0  0  0  0  0  0  0  0  0
    8.7764  -15.1126   16.6778 C   0  0  1  0  0  0  0  0  0  0  0  0
    7.4680  -15.2658   17.4111 C   0  0  0  0  0  0  0  0  0  0  0  0
    7.4672  -14.6210   18.7271 C   0  0  0  0  0  0  0  0  0  0  0  0
    7.3822  -13.2507   18.8372 C   0  0  0  0  0  0  0  0  0  0  0  0
    7.3839  -12.6929   20.0966 C   0  0  0  0  0  0  0  0  0  0  0  0
    7.4671  -13.4495   21.2446 C   0  0  0  0  0  0  0  0  0  0  0  0
    7.5514  -14.8155   21.1209 C   0  0  0  0  0  0  0  0  0  0  0  0
    7.5508  -15.3876   19.8670 C   0  0  0  0  0  0  0  0  0  0  0  0
    9.9592  -15.4947   17.4682 C   0  0  0  0  0  0  0  0  0  0  0  0
   10.3503  -16.7110   17.5506 O   0  0  0  0  0  0  0  0  0  0  0  0
   18.1931  -14.9009   20.5509 O   0  0  0  0  0  0  0  0  0  0  0  0
   16.8575  -14.6230   20.2032 C   0  0  0  0  0  0  0  0  0  0  0  0
   16.4140  -14.7859   18.9063 C   0  0  0  0  0  0  0  0  0  0  0  0
   15.1007  -14.5055   18.5971 C   0  0  0  0  0  0  0  0  0  0  0  0
   14.1930  -14.0635   19.5330 C   0  0  0  0  0  0  0  0  0  0  0  0
   12.8051  -13.7542   19.2661 C   0  0  0  0  0  0  0  0  0  0  0  0
   11.9467  -14.9513   18.9030 C   0  0  2  0  0  0  0  0  0  0  0  0
   10.7641  -14.5736   18.1967 N   0  0  0  0  0  0  0  0  0  0  0  0
   11.7638  -15.7274   20.1288 C   0  0  0  0  0  0  0  0  0  0  0  0
   11.0599  -15.1772   21.0350 O   0  0  0  0  0  0  0  0  0  0  0  0
   14.6672  -13.9108   20.8202 C   0  0  0  0  0  0  0  0  0  0  0  0
   15.9767  -14.1839   21.1582 C   0  0  0  0  0  0  0  0  0  0  0  0
   12.2724  -17.0040   20.4184 N   0  0  0  0  0  0  0  0  0  0  0  0
   12.0370  -17.6489   21.7061 C   0  0  1  0  0  0  0  0  0  0  0  0
   11.9126  -19.1306   21.5693 C   0  0  0  0  0  0  0  0  0  0  0  0
   10.5917  -19.4695   20.9955 C   0  0  0  0  0  0  0  0  0  0  0  0
    9.5243  -18.6042   20.8269 C   0  0  0  0  0  0  0  0  0  0  0  0
    8.4775  -19.2368   20.2782 N   0  0  0  0  0  0  0  0  0  0  0  0
    8.8704  -20.5041   20.0947 C   0  0  0  0  0  0  0  0  0  0  0  0
   10.1401  -20.6649   20.5201 N   0  0  0  0  0  0  0  0  0  0  0  0
   13.0837  -17.2434   22.6660 C   0  0  0  0  0  0  0  0  0  0  0  0
   13.0357  -17.7462   23.8349 O   0  0  0  0  0  0  0  0  0  0  0  0
   14.1124  -16.3570   22.3827 O   0  0  0  0  0  0  0  0  0  0  0  0
  2  1  1  6
  2  3  1  0
  4  9  1  0
  4  3  1  0
  5  4  2  0
  6  7  2  0
  6  5  1  0
  7  8  1  0
  8  9  2  0
 10  2  1  0
 10 11  2  0
 12 13  1  0
 13 23  2  0
 14 15  2  0
 14 13  1  0
 15 16  1  0
 16 17  1  0
 16 22  2  0
 18 17  1  1
 18 19  1  0
 19 10  1  0
 20 18  1  0
 21 20  2  0
 23 22  1  0
 24 20  1  0
 25 32  1  0
 25 24  1  0
 26 27  1  0
 25 26  1  6
 27 28  2  0
 28 29  1  0
 30 29  1  0
 31 27  1  0
 31 30  2  0
 32 34  1  0
 33 32  2  0
M  END
$$$$
