FYH.pdb
     RDKit          3D

 34 36  0  0  1  0  0  0  0  0999 V2000
    4.9022  -15.0678   21.7320 N   0  0  0  0  0  0  0  0  0  0  0  0
    6.0683  -15.9554   21.7400 C   0  0  1  0  0  0  0  0  0  0  0  0
    6.6983  -16.0205   20.3719 C   0  0  0  0  0  0  0  0  0  0  0  0
    7.2276  -14.7307   19.9204 C   0  0  0  0  0  0  0  0  0  0  0  0
    7.8212  -14.6098   18.6834 C   0  0  0  0  0  0  0  0  0  0  0  0
    8.3018  -13.3758   18.3047 C   0  0  0  0  0  0  0  0  0  0  0  0
    8.2118  -12.2633   19.1120 C   0  0  0  0  0  0  0  0  0  0  0  0
    7.6173  -12.3974   20.3436 C   0  0  0  0  0  0  0  0  0  0  0  0
    7.1318  -13.6263   20.7358 C   0  0  0  0  0  0  0  0  0  0  0  0
    6.9826  -15.5074   22.8045 C   0  0  0  0  0  0  0  0  0  0  0  0
    7.2831  -14.2725   22.9589 O   0  0  0  0  0  0  0  0  0  0  0  0
   11.6676  -14.5264   30.1916 O   0  0  0  0  0  0  0  0  0  0  0  0
   10.7703  -14.9013   29.1736 C   0  0  0  0  0  0  0  0  0  0  0  0
   10.1597  -13.9505   28.3811 C   0  0  0  0  0  0  0  0  0  0  0  0
    9.2860  -14.3490   27.3928 C   0  0  0  0  0  0  0  0  0  0  0  0
    8.9865  -15.6710   27.1519 C   0  0  0  0  0  0  0  0  0  0  0  0
    8.0790  -16.1467   26.1305 C   0  0  0  0  0  0  0  0  0  0  0  0
    8.5624  -15.9422   24.7070 C   0  0  2  0  0  0  0  0  0  0  0  0
    7.6035  -16.3797   23.7430 N   0  0  0  0  0  0  0  0  0  0  0  0
    9.8974  -16.5331   24.6252 C   0  0  0  0  0  0  0  0  0  0  0  0
    9.9718  -17.7762   24.8870 O   0  0  0  0  0  0  0  0  0  0  0  0
    9.6131  -16.5972   27.9610 C   0  0  0  0  0  0  0  0  0  0  0  0
   10.4920  -16.2268   28.9579 C   0  0  0  0  0  0  0  0  0  0  0  0
   11.1001  -15.8895   24.2914 N   0  0  0  0  0  0  0  0  0  0  0  0
   12.3477  -16.6299   24.1336 C   0  0  1  0  0  0  0  0  0  0  0  0
   13.3400  -15.8751   23.3121 C   0  0  0  0  0  0  0  0  0  0  0  0
   12.8154  -15.6904   21.9412 C   0  0  0  0  0  0  0  0  0  0  0  0
   12.1948  -16.6533   21.1639 C   0  0  0  0  0  0  0  0  0  0  0  0
   11.8421  -16.1517   19.9718 N   0  0  0  0  0  0  0  0  0  0  0  0
   12.2344  -14.8711   19.9826 C   0  0  0  0  0  0  0  0  0  0  0  0
   12.8226  -14.5735   21.1592 N   0  0  0  0  0  0  0  0  0  0  0  0
   12.8702  -17.0156   25.4602 C   0  0  0  0  0  0  0  0  0  0  0  0
   13.9741  -17.6493   25.4953 O   0  0  0  0  0  0  0  0  0  0  0  0
   12.2444  -16.7350   26.6659 O   0  0  0  0  0  0  0  0  0  0  0  0
  2  1  1  6
  2  3  1  0
  4  9  1  0
  4  3  1  0
  5  4  2  0
  6  7  2  0
  6  5  1  0
  7  8  1  0
  8  9  2  0
 10  2  1  0
 10 11  2  0
 12 13  1  0
 13 23  2  0
 14 15  2  0
 14 13  1  0
 15 16  1  0
 16 17  1  0
 16 22  2  0
 18 17  1  1
 18 19  1  0
 19 10  1  0
 20 18  1  0
 21 20  2  0
 23 22  1  0
 24 20  1  0
 25 32  1  0
 25 24  1  0
 26 27  1  0
 25 26  1  1
 27 28  2  0
 28 29  1  0
 30 29  1  0
 31 27  1  0
 31 30  2  0
 32 34  1  0
 33 32  2  0
M  END
$$$$
