FYH.pdb
     RDKit          3D

 34 36  0  0  1  0  0  0  0  0999 V2000
    9.4519  -15.3831   15.6066 N   0  0  0  0  0  0  0  0  0  0  0  0
    9.4627  -14.7167   16.9118 C   0  0  1  0  0  0  0  0  0  0  0  0
    8.0676  -14.6270   17.4763 C   0  0  0  0  0  0  0  0  0  0  0  0
    8.0336  -14.1057   18.8455 C   0  0  0  0  0  0  0  0  0  0  0  0
    7.7058  -14.9272   19.9013 C   0  0  0  0  0  0  0  0  0  0  0  0
    7.6892  -14.3898   21.1694 C   0  0  0  0  0  0  0  0  0  0  0  0
    7.9864  -13.0685   21.4208 C   0  0  0  0  0  0  0  0  0  0  0  0
    8.3118  -12.2596   20.3587 C   0  0  0  0  0  0  0  0  0  0  0  0
    8.3325  -12.7837   19.0841 C   0  0  0  0  0  0  0  0  0  0  0  0
   10.4214  -15.4197   17.7815 C   0  0  0  0  0  0  0  0  0  0  0  0
   10.4313  -16.6962   17.8798 O   0  0  0  0  0  0  0  0  0  0  0  0
   17.7302  -14.5067   15.8979 O   0  0  0  0  0  0  0  0  0  0  0  0
   16.6905  -14.5623   16.8454 C   0  0  0  0  0  0  0  0  0  0  0  0
   16.0814  -15.7602   17.1601 C   0  0  0  0  0  0  0  0  0  0  0  0
   15.0663  -15.7821   18.0919 C   0  0  0  0  0  0  0  0  0  0  0  0
   14.6215  -14.6494   18.7357 C   0  0  0  0  0  0  0  0  0  0  0  0
   13.5620  -14.6127   19.7204 C   0  0  0  0  0  0  0  0  0  0  0  0
   12.3535  -15.4662   19.3842 C   0  0  2  0  0  0  0  0  0  0  0  0
   11.4067  -14.7668   18.5752 N   0  0  0  0  0  0  0  0  0  0  0  0
   11.8627  -16.0191   20.6458 C   0  0  0  0  0  0  0  0  0  0  0  0
   11.3205  -15.1884   21.4430 O   0  0  0  0  0  0  0  0  0  0  0  0
   15.2505  -13.4678   18.3992 C   0  0  0  0  0  0  0  0  0  0  0  0
   16.2693  -13.4164   17.4702 C   0  0  0  0  0  0  0  0  0  0  0  0
   11.9199  -17.3548   21.0756 N   0  0  0  0  0  0  0  0  0  0  0  0
   11.4584  -17.7541   22.4012 C   0  0  1  0  0  0  0  0  0  0  0  0
   10.8340  -19.1103   22.3854 C   0  0  0  0  0  0  0  0  0  0  0  0
    9.5794  -19.0729   21.6022 C   0  0  0  0  0  0  0  0  0  0  0  0
    8.7307  -17.9879   21.4642 C   0  0  0  0  0  0  0  0  0  0  0  0
    7.6837  -18.2954   20.6856 N   0  0  0  0  0  0  0  0  0  0  0  0
    7.8585  -19.5733   20.3245 C   0  0  0  0  0  0  0  0  0  0  0  0
    8.9940  -20.0598   20.8658 N   0  0  0  0  0  0  0  0  0  0  0  0
   12.5667  -17.6396   23.3708 C   0  0  0  0  0  0  0  0  0  0  0  0
   12.3369  -17.9984   24.5707 O   0  0  0  0  0  0  0  0  0  0  0  0
   13.8362  -17.1714   23.0652 O   0  0  0  0  0  0  0  0  0  0  0  0
  2  1  1  6
  2  3  1  0
  4  9  1  0
  4  3  1  0
  5  4  2  0
  6  7  2  0
  6  5  1  0
  7  8  1  0
  8  9  2  0
 10  2  1  0
 10 11  2  0
 12 13  1  0
 13 23  2  0
 14 15  2  0
 14 13  1  0
 15 16  1  0
 16 17  1  0
 16 22  2  0
 18 17  1  1
 18 19  1  0
 19 10  1  0
 20 18  1  0
 21 20  2  0
 23 22  1  0
 24 20  1  0
 25 32  1  0
 25 24  1  0
 26 27  1  0
 25 26  1  6
 27 28  2  0
 28 29  1  0
 30 29  1  0
 31 27  1  0
 31 30  2  0
 32 34  1  0
 33 32  2  0
M  END
$$$$
