FYH.pdb
     RDKit          3D

 34 36  0  0  1  0  0  0  0  0999 V2000
    5.4409  -16.4077   23.7715 N   0  0  0  0  0  0  0  0  0  0  0  0
    6.5926  -15.5688   24.1143 C   0  0  1  0  0  0  0  0  0  0  0  0
    6.6895  -15.3802   25.6069 C   0  0  0  0  0  0  0  0  0  0  0  0
    6.6883  -13.9712   26.0099 C   0  0  0  0  0  0  0  0  0  0  0  0
    7.8596  -13.2469   26.0333 C   0  0  0  0  0  0  0  0  0  0  0  0
    7.8056  -11.9254   26.4182 C   0  0  0  0  0  0  0  0  0  0  0  0
    6.6306  -11.3036   26.7787 C   0  0  0  0  0  0  0  0  0  0  0  0
    5.4690  -12.0374   26.7510 C   0  0  0  0  0  0  0  0  0  0  0  0
    5.5080  -13.3608   26.3680 C   0  0  0  0  0  0  0  0  0  0  0  0
    7.7942  -16.1611   23.5018 C   0  0  0  0  0  0  0  0  0  0  0  0
    7.7747  -17.3252   22.9691 O   0  0  0  0  0  0  0  0  0  0  0  0
    6.6307  -13.6252   17.9239 O   0  0  0  0  0  0  0  0  0  0  0  0
    7.6298  -14.0285   18.8300 C   0  0  0  0  0  0  0  0  0  0  0  0
    8.1536  -15.3047   18.7858 C   0  0  0  0  0  0  0  0  0  0  0  0
    9.1308  -15.6697   19.6863 C   0  0  0  0  0  0  0  0  0  0  0  0
    9.6192  -14.8104   20.6446 C   0  0  0  0  0  0  0  0  0  0  0  0
   10.6421  -15.1382   21.6138 C   0  0  0  0  0  0  0  0  0  0  0  0
   10.1832  -16.0484   22.7375 C   0  0  2  0  0  0  0  0  0  0  0  0
    9.0610  -15.5140   23.4411 N   0  0  0  0  0  0  0  0  0  0  0  0
   11.3682  -16.3696   23.5317 C   0  0  0  0  0  0  0  0  0  0  0  0
   12.1067  -15.3839   23.8515 O   0  0  0  0  0  0  0  0  0  0  0  0
    9.0753  -13.5419   20.6629 C   0  0  0  0  0  0  0  0  0  0  0  0
    8.0962  -13.1494   19.7736 C   0  0  0  0  0  0  0  0  0  0  0  0
   11.7816  -17.6345   23.9805 N   0  0  0  0  0  0  0  0  0  0  0  0
   12.3577  -17.8265   25.3075 C   0  0  1  0  0  0  0  0  0  0  0  0
   11.4673  -17.2926   26.3807 C   0  0  0  0  0  0  0  0  0  0  0  0
   10.3525  -18.2355   26.6191 C   0  0  0  0  0  0  0  0  0  0  0  0
   10.0450  -19.3510   25.8590 C   0  0  0  0  0  0  0  0  0  0  0  0
    8.9718  -19.9851   26.3522 N   0  0  0  0  0  0  0  0  0  0  0  0
    8.5907  -19.2800   27.4254 C   0  0  0  0  0  0  0  0  0  0  0  0
    9.4089  -18.2227   27.6033 N   0  0  0  0  0  0  0  0  0  0  0  0
   12.7049  -19.2491   25.4997 C   0  0  0  0  0  0  0  0  0  0  0  0
   12.2192  -20.0890   24.6750 O   0  0  0  0  0  0  0  0  0  0  0  0
   13.5215  -19.7315   26.5119 O   0  0  0  0  0  0  0  0  0  0  0  0
  2  1  1  1
  2  3  1  0
  4  9  1  0
  4  3  1  0
  5  4  2  0
  6  7  2  0
  6  5  1  0
  7  8  1  0
  8  9  2  0
 10  2  1  0
 10 11  2  0
 12 13  1  0
 13 23  2  0
 14 15  2  0
 14 13  1  0
 15 16  1  0
 16 17  1  0
 16 22  2  0
 18 17  1  6
 18 19  1  0
 19 10  1  0
 20 18  1  0
 21 20  2  0
 23 22  1  0
 24 20  1  0
 25 32  1  0
 25 24  1  0
 26 27  1  0
 25 26  1  1
 27 28  2  0
 28 29  1  0
 30 29  1  0
 31 27  1  0
 31 30  2  0
 32 34  1  0
 33 32  2  0
M  END
$$$$
