FYH.pdb
     RDKit          3D

 34 36  0  0  1  0  0  0  0  0999 V2000
   11.6117  -16.5485   21.2617 N   0  0  0  0  0  0  0  0  0  0  0  0
   10.3626  -15.9363   21.7228 C   0  0  1  0  0  0  0  0  0  0  0  0
    9.3021  -16.0188   20.6544 C   0  0  0  0  0  0  0  0  0  0  0  0
    8.2198  -15.0487   20.8421 C   0  0  0  0  0  0  0  0  0  0  0  0
    8.4305  -13.7079   20.6080 C   0  0  0  0  0  0  0  0  0  0  0  0
    7.3808  -12.8365   20.7977 C   0  0  0  0  0  0  0  0  0  0  0  0
    6.1344  -13.2528   21.2105 C   0  0  0  0  0  0  0  0  0  0  0  0
    5.9373  -14.5931   21.4406 C   0  0  0  0  0  0  0  0  0  0  0  0
    6.9787  -15.4767   21.2550 C   0  0  0  0  0  0  0  0  0  0  0  0
    9.9832  -16.5661   22.9992 C   0  0  0  0  0  0  0  0  0  0  0  0
   10.6092  -17.5829   23.4611 O   0  0  0  0  0  0  0  0  0  0  0  0
    7.2371  -10.1087   26.2503 O   0  0  0  0  0  0  0  0  0  0  0  0
    7.3086  -11.5103   26.1395 C   0  0  0  0  0  0  0  0  0  0  0  0
    6.3419  -12.2175   25.4537 C   0  0  0  0  0  0  0  0  0  0  0  0
    6.4398  -13.5890   25.3627 C   0  0  0  0  0  0  0  0  0  0  0  0
    7.4713  -14.3016   25.9314 C   0  0  0  0  0  0  0  0  0  0  0  0
    7.6250  -15.7389   25.8682 C   0  0  0  0  0  0  0  0  0  0  0  0
    8.9271  -16.2113   25.2494 C   0  0  2  0  0  0  0  0  0  0  0  0
    8.9133  -16.1167   23.8243 N   0  0  0  0  0  0  0  0  0  0  0  0
    9.2138  -17.5264   25.8208 C   0  0  0  0  0  0  0  0  0  0  0  0
    8.2250  -18.1321   26.3449 O   0  0  0  0  0  0  0  0  0  0  0  0
    8.4216  -13.5658   26.6101 C   0  0  0  0  0  0  0  0  0  0  0  0
    8.3489  -12.1922   26.7171 C   0  0  0  0  0  0  0  0  0  0  0  0
   10.4487  -18.1943   25.8561 N   0  0  0  0  0  0  0  0  0  0  0  0
   10.6080  -19.4755   26.5364 C   0  0  1  0  0  0  0  0  0  0  0  0
   11.7704  -20.2457   26.0024 C   0  0  0  0  0  0  0  0  0  0  0  0
   11.5463  -20.5614   24.5745 C   0  0  0  0  0  0  0  0  0  0  0  0
   10.3438  -20.9277   23.9945 C   0  0  0  0  0  0  0  0  0  0  0  0
   10.4925  -21.1427   22.6797 N   0  0  0  0  0  0  0  0  0  0  0  0
   11.7858  -20.9154   22.4154 C   0  0  0  0  0  0  0  0  0  0  0  0
   12.4375  -20.5643   23.5427 N   0  0  0  0  0  0  0  0  0  0  0  0
   10.6792  -19.2600   27.9958 C   0  0  0  0  0  0  0  0  0  0  0  0
   10.7801  -18.0595   28.4082 O   0  0  0  0  0  0  0  0  0  0  0  0
   10.6425  -20.2713   28.9447 O   0  0  0  0  0  0  0  0  0  0  0  0
  2  1  1  6
  2  3  1  0
  4  9  1  0
  4  3  1  0
  5  4  2  0
  6  7  2  0
  6  5  1  0
  7  8  1  0
  8  9  2  0
 10  2  1  0
 10 11  2  0
 12 13  1  0
 13 23  2  0
 14 15  2  0
 14 13  1  0
 15 16  1  0
 16 17  1  0
 16 22  2  0
 18 17  1  6
 18 19  1  0
 19 10  1  0
 20 18  1  0
 21 20  2  0
 23 22  1  0
 24 20  1  0
 25 32  1  0
 25 24  1  0
 26 27  1  0
 25 26  1  6
 27 28  2  0
 28 29  1  0
 30 29  1  0
 31 27  1  0
 31 30  2  0
 32 34  1  0
 33 32  2  0
M  END
$$$$
