FYH.pdb
     RDKit          3D

 34 36  0  0  1  0  0  0  0  0999 V2000
    9.2194  -16.4342   20.2727 N   0  0  0  0  0  0  0  0  0  0  0  0
    9.5123  -15.5154   21.3762 C   0  0  1  0  0  0  0  0  0  0  0  0
    8.2876  -14.7172   21.7448 C   0  0  0  0  0  0  0  0  0  0  0  0
    7.7647  -13.9194   20.6323 C   0  0  0  0  0  0  0  0  0  0  0  0
    6.6966  -14.3685   19.8877 C   0  0  0  0  0  0  0  0  0  0  0  0
    6.2414  -13.5812   18.8532 C   0  0  0  0  0  0  0  0  0  0  0  0
    6.8109  -12.3677   18.5364 C   0  0  0  0  0  0  0  0  0  0  0  0
    7.8759  -11.9311   19.2870 C   0  0  0  0  0  0  0  0  0  0  0  0
    8.3421  -12.7084   20.3253 C   0  0  0  0  0  0  0  0  0  0  0  0
   10.0810  -16.2959   22.4885 C   0  0  0  0  0  0  0  0  0  0  0  0
    9.5950  -17.4287   22.8344 O   0  0  0  0  0  0  0  0  0  0  0  0
   10.7446  -15.4412   31.0538 O   0  0  0  0  0  0  0  0  0  0  0  0
   10.5790  -15.5272   29.6584 C   0  0  0  0  0  0  0  0  0  0  0  0
   10.3203  -16.7380   29.0485 C   0  0  0  0  0  0  0  0  0  0  0  0
   10.1631  -16.7898   27.6804 C   0  0  0  0  0  0  0  0  0  0  0  0
   10.2527  -15.6750   26.8776 C   0  0  0  0  0  0  0  0  0  0  0  0
   10.0970  -15.6698   25.4391 C   0  0  0  0  0  0  0  0  0  0  0  0
   11.3186  -16.1315   24.6669 C   0  0  2  0  0  0  0  0  0  0  0  0
   11.1988  -15.8799   23.2661 N   0  0  0  0  0  0  0  0  0  0  0  0
   11.5753  -17.5136   25.0696 C   0  0  0  0  0  0  0  0  0  0  0  0
   10.6468  -18.3470   24.8193 O   0  0  0  0  0  0  0  0  0  0  0  0
   10.5122  -14.4799   27.5174 C   0  0  0  0  0  0  0  0  0  0  0  0
   10.6740  -14.3986   28.8851 C   0  0  0  0  0  0  0  0  0  0  0  0
   12.7237  -18.0239   25.6966 N   0  0  0  0  0  0  0  0  0  0  0  0
   13.6165  -18.9579   25.0182 C   0  0  1  0  0  0  0  0  0  0  0  0
   13.9611  -18.4942   23.6413 C   0  0  0  0  0  0  0  0  0  0  0  0
   13.1165  -19.1984   22.6516 C   0  0  0  0  0  0  0  0  0  0  0  0
   12.0722  -20.0629   22.9320 C   0  0  0  0  0  0  0  0  0  0  0  0
   11.5186  -20.5268   21.8026 N   0  0  0  0  0  0  0  0  0  0  0  0
   12.2045  -19.9627   20.7999 C   0  0  0  0  0  0  0  0  0  0  0  0
   13.1708  -19.1595   21.2898 N   0  0  0  0  0  0  0  0  0  0  0  0
   14.8056  -19.2102   25.8572 C   0  0  0  0  0  0  0  0  0  0  0  0
   15.6293  -20.0954   25.4578 O   0  0  0  0  0  0  0  0  0  0  0  0
   15.0865  -18.5511   27.0450 O   0  0  0  0  0  0  0  0  0  0  0  0
  2  1  1  6
  2  3  1  0
  4  9  1  0
  4  3  1  0
  5  4  2  0
  6  7  2  0
  6  5  1  0
  7  8  1  0
  8  9  2  0
 10  2  1  0
 10 11  2  0
 12 13  1  0
 13 23  2  0
 14 15  2  0
 14 13  1  0
 15 16  1  0
 16 17  1  0
 16 22  2  0
 18 17  1  1
 18 19  1  0
 19 10  1  0
 20 18  1  0
 21 20  2  0
 23 22  1  0
 24 20  1  0
 25 32  1  0
 25 24  1  0
 26 27  1  0
 25 26  1  6
 27 28  2  0
 28 29  1  0
 30 29  1  0
 31 27  1  0
 31 30  2  0
 32 34  1  0
 33 32  2  0
M  END
$$$$
