FYH.pdb
     RDKit          3D

 34 36  0  0  1  0  0  0  0  0999 V2000
    8.1340  -16.5210   25.8276 N   0  0  0  0  0  0  0  0  0  0  0  0
    6.8251  -16.5208   25.1682 C   0  0  1  0  0  0  0  0  0  0  0  0
    5.8969  -15.5315   25.8259 C   0  0  0  0  0  0  0  0  0  0  0  0
    6.5958  -14.3714   26.3857 C   0  0  0  0  0  0  0  0  0  0  0  0
    7.8802  -14.4914   26.8684 C   0  0  0  0  0  0  0  0  0  0  0  0
    8.4944  -13.3712   27.3832 C   0  0  0  0  0  0  0  0  0  0  0  0
    7.8762  -12.1414   27.4336 C   0  0  0  0  0  0  0  0  0  0  0  0
    6.5947  -12.0351   26.9489 C   0  0  0  0  0  0  0  0  0  0  0  0
    5.9677  -13.1477   26.4307 C   0  0  0  0  0  0  0  0  0  0  0  0
    7.0332  -16.2880   23.7287 C   0  0  0  0  0  0  0  0  0  0  0  0
    6.2704  -15.5114   23.0547 O   0  0  0  0  0  0  0  0  0  0  0  0
    7.5584  -12.6801   17.8201 O   0  0  0  0  0  0  0  0  0  0  0  0
    7.9691  -13.2012   19.0617 C   0  0  0  0  0  0  0  0  0  0  0  0
    7.0810  -13.3133   20.1123 C   0  0  0  0  0  0  0  0  0  0  0  0
    7.5133  -13.8274   21.3156 C   0  0  0  0  0  0  0  0  0  0  0  0
    8.8092  -14.2419   21.5261 C   0  0  0  0  0  0  0  0  0  0  0  0
    9.3180  -14.7882   22.7654 C   0  0  0  0  0  0  0  0  0  0  0  0
    9.3721  -16.3035   22.8159 C   0  0  2  0  0  0  0  0  0  0  0  0
    8.0764  -16.8854   22.9659 N   0  0  0  0  0  0  0  0  0  0  0  0
   10.3746  -16.6572   23.8201 C   0  0  0  0  0  0  0  0  0  0  0  0
    9.9647  -17.3797   24.7841 O   0  0  0  0  0  0  0  0  0  0  0  0
    9.6726  -14.1168   20.4565 C   0  0  0  0  0  0  0  0  0  0  0  0
    9.2672  -13.6058   19.2407 C   0  0  0  0  0  0  0  0  0  0  0  0
   11.7309  -16.2936   23.8415 N   0  0  0  0  0  0  0  0  0  0  0  0
   12.7748  -17.1991   23.3724 C   0  0  1  0  0  0  0  0  0  0  0  0
   12.4327  -17.8012   22.0496 C   0  0  0  0  0  0  0  0  0  0  0  0
   11.9570  -19.1890   22.2410 C   0  0  0  0  0  0  0  0  0  0  0  0
   11.6858  -19.8034   23.4516 C   0  0  0  0  0  0  0  0  0  0  0  0
   11.2728  -21.0651   23.2660 N   0  0  0  0  0  0  0  0  0  0  0  0
   11.2785  -21.2612   21.9410 C   0  0  0  0  0  0  0  0  0  0  0  0
   11.6873  -20.1439   21.3059 N   0  0  0  0  0  0  0  0  0  0  0  0
   14.0765  -16.5014   23.3702 C   0  0  0  0  0  0  0  0  0  0  0  0
   14.2004  -15.4911   22.6049 O   0  0  0  0  0  0  0  0  0  0  0  0
   15.1690  -16.8684   24.1422 O   0  0  0  0  0  0  0  0  0  0  0  0
  2  1  1  1
  2  3  1  0
  4  9  1  0
  4  3  1  0
  5  4  2  0
  6  7  2  0
  6  5  1  0
  7  8  1  0
  8  9  2  0
 10  2  1  0
 10 11  2  0
 12 13  1  0
 13 23  2  0
 14 15  2  0
 14 13  1  0
 15 16  1  0
 16 17  1  0
 16 22  2  0
 18 17  1  1
 18 19  1  0
 19 10  1  0
 20 18  1  0
 21 20  2  0
 23 22  1  0
 24 20  1  0
 25 32  1  0
 25 24  1  0
 26 27  1  0
 25 26  1  6
 27 28  2  0
 28 29  1  0
 30 29  1  0
 31 27  1  0
 31 30  2  0
 32 34  1  0
 33 32  2  0
M  END
$$$$
