HKT.pdb
     RDKit          3D

 27 27  0  0  1  0  0  0  0  0999 V2000
    7.9815  -15.9381   19.3778 N   0  0  0  0  0  0  0  0  0  0  0  0
    9.2745  -15.3669   19.6863 C   0  0  1  0  0  0  0  0  0  0  0  0
    9.5004  -14.2212   18.7273 C   0  0  0  0  0  0  0  0  0  0  0  0
    8.9102  -14.6108   17.4271 C   0  0  0  0  0  0  0  0  0  0  0  0
    9.0269  -15.8555   16.8497 C   0  0  0  0  0  0  0  0  0  0  0  0
    8.3581  -15.8382   15.6659 N   0  0  0  0  0  0  0  0  0  0  0  0
    7.8357  -14.6145   15.5054 C   0  0  0  0  0  0  0  0  0  0  0  0
    8.1801  -13.8872   16.5796 N   0  0  0  0  0  0  0  0  0  0  0  0
    9.3003  -14.9519   21.0913 C   0  0  0  0  0  0  0  0  0  0  0  0
   10.4002  -14.6676   21.6161 O   0  0  0  0  0  0  0  0  0  0  0  0
    8.1592  -14.8439   21.9207 N   0  0  0  0  0  0  0  0  0  0  0  0
    8.2585  -14.4337   23.2608 C   0  0  1  0  0  0  0  0  0  0  0  0
    7.2101  -13.6124   23.8787 C   0  0  0  0  0  0  0  0  0  0  0  0
    7.5497  -13.1874   25.2693 C   0  0  0  0  0  0  0  0  0  0  0  0
    6.6111  -12.2738   25.9565 C   0  0  0  0  0  0  0  0  0  0  0  0
    7.1761  -11.7309   27.2584 C   0  0  0  0  0  0  0  0  0  0  0  0
    6.1753  -11.8259   28.2767 N   0  0  0  0  0  0  0  0  0  0  0  0
    8.3492  -15.7105   24.0705 C   0  0  0  0  0  0  0  0  0  0  0  0
    7.3570  -16.4259   24.2750 O   0  0  0  0  0  0  0  0  0  0  0  0
    9.9775  -18.7020   23.4162 C   0  0  0  0  0  0  0  0  0  0  0  0
   10.6096  -18.2237   24.6846 C   0  0  1  0  0  0  0  0  0  0  0  0
   11.7821  -17.5132   24.3833 O   0  0  0  0  0  0  0  0  0  0  0  0
    9.7148  -17.2454   25.4372 C   0  0  2  0  0  0  0  0  0  0  0  0
    9.6014  -16.0687   24.5898 N   0  0  0  0  0  0  0  0  0  0  0  0
   10.2742  -16.9036   26.7530 C   0  0  0  0  0  0  0  0  0  0  0  0
   10.3100  -17.8012   27.6339 O   0  0  0  0  0  0  0  0  0  0  0  0
   10.7692  -15.6540   27.0969 O   0  0  0  0  0  0  0  0  0  0  0  0
  2  1  1  6
  2  9  1  0
  2  3  1  0
  3  4  1  0
  4  8  1  0
  4  5  2  0
  5  6  1  0
  7  6  1  0
  8  7  2  0
  9 11  1  0
 10  9  2  0
 11 12  1  0
 12 13  1  1
 13 14  1  0
 14 15  1  0
 15 16  1  0
 16 17  1  0
 18 19  2  0
 18 12  1  0
 21 20  1  6
 21 23  1  0
 22 21  1  0
 23 24  1  6
 23 25  1  0
 24 18  1  0
 25 27  1  0
 26 25  2  0
M  END
$$$$
