HKT.pdb
     RDKit          3D

 27 27  0  0  1  0  0  0  0  0999 V2000
   10.3376  -17.5661   16.6921 N   0  0  0  0  0  0  0  0  0  0  0  0
    9.4561  -17.8082   17.8135 C   0  0  1  0  0  0  0  0  0  0  0  0
    9.6282  -19.2543   18.2166 C   0  0  0  0  0  0  0  0  0  0  0  0
    8.6411  -20.0470   17.4499 C   0  0  0  0  0  0  0  0  0  0  0  0
    7.2846  -19.8103   17.4298 C   0  0  0  0  0  0  0  0  0  0  0  0
    6.7046  -20.7363   16.6205 N   0  0  0  0  0  0  0  0  0  0  0  0
    7.6722  -21.5328   16.1456 C   0  0  0  0  0  0  0  0  0  0  0  0
    8.8351  -21.1006   16.6579 N   0  0  0  0  0  0  0  0  0  0  0  0
    9.7739  -16.8704   18.8935 C   0  0  0  0  0  0  0  0  0  0  0  0
   10.9748  -16.6213   19.1420 O   0  0  0  0  0  0  0  0  0  0  0  0
    8.8138  -16.2095   19.6953 N   0  0  0  0  0  0  0  0  0  0  0  0
    9.1916  -15.3102   20.7065 C   0  0  1  0  0  0  0  0  0  0  0  0
    8.2927  -14.2295   21.1303 C   0  0  0  0  0  0  0  0  0  0  0  0
    8.1290  -13.1697   20.0913 C   0  0  0  0  0  0  0  0  0  0  0  0
    7.5910  -13.5763   18.7747 C   0  0  0  0  0  0  0  0  0  0  0  0
    7.3964  -12.3971   17.8364 C   0  0  0  0  0  0  0  0  0  0  0  0
    6.8514  -12.8694   16.6006 N   0  0  0  0  0  0  0  0  0  0  0  0
    9.4584  -16.1631   21.9294 C   0  0  0  0  0  0  0  0  0  0  0  0
    8.5363  -16.6680   22.5873 O   0  0  0  0  0  0  0  0  0  0  0  0
   10.5565  -19.2680   22.2224 C   0  0  0  0  0  0  0  0  0  0  0  0
   11.6078  -18.5080   22.9669 C   0  0  1  0  0  0  0  0  0  0  0  0
   12.6647  -18.1981   22.0966 O   0  0  0  0  0  0  0  0  0  0  0  0
   11.0904  -17.1699   23.4824 C   0  0  2  0  0  0  0  0  0  0  0  0
   10.7936  -16.3710   22.3037 N   0  0  0  0  0  0  0  0  0  0  0  0
   12.0781  -16.5039   24.3436 C   0  0  0  0  0  0  0  0  0  0  0  0
   12.6570  -15.4788   23.8998 O   0  0  0  0  0  0  0  0  0  0  0  0
   12.4212  -16.9263   25.6198 O   0  0  0  0  0  0  0  0  0  0  0  0
  2  1  1  6
  2  9  1  0
  2  3  1  0
  3  4  1  0
  4  8  1  0
  4  5  2  0
  5  6  1  0
  7  6  1  0
  8  7  2  0
  9 11  1  0
 10  9  2  0
 11 12  1  0
 12 13  1  1
 13 14  1  0
 14 15  1  0
 15 16  1  0
 16 17  1  0
 18 19  2  0
 18 12  1  0
 21 20  1  6
 21 23  1  0
 22 21  1  0
 23 24  1  6
 23 25  1  0
 24 18  1  0
 25 27  1  0
 26 25  2  0
M  END
$$$$
