HKT.pdb
     RDKit          3D

 27 27  0  0  1  0  0  0  0  0999 V2000
    8.9179  -15.8581   20.3588 N   0  0  0  0  0  0  0  0  0  0  0  0
    8.1505  -14.8272   21.0232 C   0  0  1  0  0  0  0  0  0  0  0  0
    6.9228  -14.5676   20.1813 C   0  0  0  0  0  0  0  0  0  0  0  0
    7.3863  -14.2307   18.8166 C   0  0  0  0  0  0  0  0  0  0  0  0
    8.0789  -13.0894   18.4787 C   0  0  0  0  0  0  0  0  0  0  0  0
    8.3320  -13.1269   17.1432 N   0  0  0  0  0  0  0  0  0  0  0  0
    7.8116  -14.2621   16.6567 C   0  0  0  0  0  0  0  0  0  0  0  0
    7.2445  -14.9156   17.6828 N   0  0  0  0  0  0  0  0  0  0  0  0
    7.8299  -15.2611   22.3855 C   0  0  0  0  0  0  0  0  0  0  0  0
    7.0129  -14.5906   23.0555 O   0  0  0  0  0  0  0  0  0  0  0  0
    8.3801  -16.4003   23.0188 N   0  0  0  0  0  0  0  0  0  0  0  0
    8.0571  -16.7342   24.3448 C   0  0  1  0  0  0  0  0  0  0  0  0
    8.3031  -18.0851   24.8646 C   0  0  0  0  0  0  0  0  0  0  0  0
    7.5894  -19.1438   24.0903 C   0  0  0  0  0  0  0  0  0  0  0  0
    7.8662  -20.5543   24.4398 C   0  0  0  0  0  0  0  0  0  0  0  0
    6.9383  -21.0781   25.5229 C   0  0  0  0  0  0  0  0  0  0  0  0
    5.7081  -21.4941   24.9221 N   0  0  0  0  0  0  0  0  0  0  0  0
    8.8546  -15.7801   25.2095 C   0  0  0  0  0  0  0  0  0  0  0  0
   10.0338  -15.4955   24.9518 O   0  0  0  0  0  0  0  0  0  0  0  0
    7.7204  -12.3508   26.1353 C   0  0  0  0  0  0  0  0  0  0  0  0
    7.9994  -13.1034   27.3973 C   0  0  1  0  0  0  0  0  0  0  0  0
    6.8059  -13.6609   27.8824 O   0  0  0  0  0  0  0  0  0  0  0  0
    8.9414  -14.2796   27.1665 C   0  0  2  0  0  0  0  0  0  0  0  0
    8.2163  -15.2180   26.3243 N   0  0  0  0  0  0  0  0  0  0  0  0
    9.3475  -14.9038   28.4340 C   0  0  0  0  0  0  0  0  0  0  0  0
    9.0259  -16.1035   28.6344 O   0  0  0  0  0  0  0  0  0  0  0  0
   10.0649  -14.2617   29.4329 O   0  0  0  0  0  0  0  0  0  0  0  0
  2  1  1  6
  2  9  1  0
  2  3  1  0
  3  4  1  0
  4  8  1  0
  4  5  2  0
  5  6  1  0
  7  6  1  0
  8  7  2  0
  9 11  1  0
 10  9  2  0
 11 12  1  0
 12 13  1  1
 13 14  1  0
 14 15  1  0
 15 16  1  0
 16 17  1  0
 18 19  2  0
 18 12  1  0
 21 20  1  6
 21 23  1  0
 22 21  1  0
 23 24  1  6
 23 25  1  0
 24 18  1  0
 25 27  1  0
 26 25  2  0
M  END
$$$$
