HKT.pdb
     RDKit          3D

 27 27  0  0  1  0  0  0  0  0999 V2000
    6.6104  -17.9756   19.8256 N   0  0  0  0  0  0  0  0  0  0  0  0
    7.4760  -16.9963   20.4460 C   0  0  1  0  0  0  0  0  0  0  0  0
    7.3936  -15.7348   19.6181 C   0  0  0  0  0  0  0  0  0  0  0  0
    8.0850  -16.0015   18.3369 C   0  0  0  0  0  0  0  0  0  0  0  0
    9.4446  -16.1681   18.1947 C   0  0  0  0  0  0  0  0  0  0  0  0
    9.7089  -16.3941   16.8802 N   0  0  0  0  0  0  0  0  0  0  0  0
    8.5453  -16.3697   16.2156 C   0  0  0  0  0  0  0  0  0  0  0  0
    7.5758  -16.1312   17.1127 N   0  0  0  0  0  0  0  0  0  0  0  0
    7.0649  -16.7961   21.8381 C   0  0  0  0  0  0  0  0  0  0  0  0
    5.8880  -16.4428   22.0745 O   0  0  0  0  0  0  0  0  0  0  0  0
    7.9077  -16.9733   22.9605 N   0  0  0  0  0  0  0  0  0  0  0  0
    7.4255  -16.8358   24.2730 C   0  0  1  0  0  0  0  0  0  0  0  0
    7.4738  -17.9594   25.2168 C   0  0  0  0  0  0  0  0  0  0  0  0
    6.6806  -19.1381   24.7571 C   0  0  0  0  0  0  0  0  0  0  0  0
    6.7643  -20.3774   25.5603 C   0  0  0  0  0  0  0  0  0  0  0  0
    5.9171  -21.5007   24.9867 C   0  0  0  0  0  0  0  0  0  0  0  0
    6.0904  -22.6723   25.7896 N   0  0  0  0  0  0  0  0  0  0  0  0
    8.2348  -15.7125   24.8872 C   0  0  0  0  0  0  0  0  0  0  0  0
    9.4345  -15.5493   24.6184 O   0  0  0  0  0  0  0  0  0  0  0  0
    6.8497  -12.0821   25.2394 C   0  0  0  0  0  0  0  0  0  0  0  0
    7.3276  -12.6118   26.5539 C   0  0  1  0  0  0  0  0  0  0  0  0
    6.2434  -13.1559   27.2604 O   0  0  0  0  0  0  0  0  0  0  0  0
    8.3245  -13.7525   26.3836 C   0  0  2  0  0  0  0  0  0  0  0  0
    7.5838  -14.8490   25.7797 N   0  0  0  0  0  0  0  0  0  0  0  0
    8.9144  -14.1515   27.6696 C   0  0  0  0  0  0  0  0  0  0  0  0
    8.7173  -15.3266   28.0738 O   0  0  0  0  0  0  0  0  0  0  0  0
    9.6783  -13.3206   28.4763 O   0  0  0  0  0  0  0  0  0  0  0  0
  2  1  1  6
  2  9  1  0
  2  3  1  0
  3  4  1  0
  4  8  1  0
  4  5  2  0
  5  6  1  0
  7  6  1  0
  8  7  2  0
  9 11  1  0
 10  9  2  0
 11 12  1  0
 12 13  1  1
 13 14  1  0
 14 15  1  0
 15 16  1  0
 16 17  1  0
 18 19  2  0
 18 12  1  0
 21 20  1  6
 21 23  1  0
 22 21  1  0
 23 24  1  1
 23 25  1  0
 24 18  1  0
 25 27  1  0
 26 25  2  0
M  END
$$$$
