HKT.pdb
     RDKit          3D

 27 27  0  0  1  0  0  0  0  0999 V2000
    6.9255  -16.5146   20.1050 N   0  0  0  0  0  0  0  0  0  0  0  0
    7.9464  -15.6992   20.7264 C   0  0  1  0  0  0  0  0  0  0  0  0
    7.6275  -14.2575   20.4052 C   0  0  0  0  0  0  0  0  0  0  0  0
    7.8825  -14.0600   18.9606 C   0  0  0  0  0  0  0  0  0  0  0  0
    7.0507  -13.3802   18.0991 C   0  0  0  0  0  0  0  0  0  0  0  0
    7.6107  -13.4059   16.8603 N   0  0  0  0  0  0  0  0  0  0  0  0
    8.7637  -14.0842   16.9432 C   0  0  0  0  0  0  0  0  0  0  0  0
    8.9106  -14.4714   18.2199 N   0  0  0  0  0  0  0  0  0  0  0  0
    7.9781  -15.9723   22.1656 C   0  0  0  0  0  0  0  0  0  0  0  0
    6.8952  -16.1142   22.7764 O   0  0  0  0  0  0  0  0  0  0  0  0
    9.1577  -16.0911   22.9375 N   0  0  0  0  0  0  0  0  0  0  0  0
    9.1180  -16.4657   24.2910 C   0  0  1  0  0  0  0  0  0  0  0  0
   10.0485  -17.4682   24.8246 C   0  0  0  0  0  0  0  0  0  0  0  0
    9.8464  -17.7309   26.2806 C   0  0  0  0  0  0  0  0  0  0  0  0
   10.7988  -18.6416   26.9526 C   0  0  0  0  0  0  0  0  0  0  0  0
   10.4054  -18.9372   28.3901 C   0  0  0  0  0  0  0  0  0  0  0  0
   11.2899  -19.9285   28.9214 N   0  0  0  0  0  0  0  0  0  0  0  0
    9.3531  -15.1898   25.0725 C   0  0  0  0  0  0  0  0  0  0  0  0
   10.3534  -14.4819   24.8815 O   0  0  0  0  0  0  0  0  0  0  0  0
    6.7060  -12.4809   25.5377 C   0  0  0  0  0  0  0  0  0  0  0  0
    7.1947  -12.9482   26.8718 C   0  0  1  0  0  0  0  0  0  0  0  0
    6.3383  -13.9482   27.3589 O   0  0  0  0  0  0  0  0  0  0  0  0
    8.5739  -13.5916   26.7835 C   0  0  2  0  0  0  0  0  0  0  0  0
    8.3970  -14.8234   26.0305 N   0  0  0  0  0  0  0  0  0  0  0  0
    9.1330  -13.8570   28.1170 C   0  0  0  0  0  0  0  0  0  0  0  0
    9.3059  -15.0550   28.4602 O   0  0  0  0  0  0  0  0  0  0  0  0
    9.4865  -12.8755   29.0315 O   0  0  0  0  0  0  0  0  0  0  0  0
  2  1  1  6
  2  9  1  0
  2  3  1  0
  3  4  1  0
  4  8  1  0
  4  5  2  0
  5  6  1  0
  7  6  1  0
  8  7  2  0
  9 11  1  0
 10  9  2  0
 11 12  1  0
 12 13  1  6
 13 14  1  0
 14 15  1  0
 15 16  1  0
 16 17  1  0
 18 19  2  0
 18 12  1  0
 21 20  1  6
 21 23  1  0
 22 21  1  0
 23 24  1  6
 23 25  1  0
 24 18  1  0
 25 27  1  0
 26 25  2  0
M  END
$$$$
