HKT.pdb
     RDKit          3D

 27 27  0  0  1  0  0  0  0  0999 V2000
    6.5276  -16.9667   20.3593 N   0  0  0  0  0  0  0  0  0  0  0  0
    7.4760  -16.0149   20.8958 C   0  0  1  0  0  0  0  0  0  0  0  0
    6.9926  -14.6349   20.5145 C   0  0  0  0  0  0  0  0  0  0  0  0
    7.6487  -14.2744   19.2377 C   0  0  0  0  0  0  0  0  0  0  0  0
    8.5524  -15.0661   18.5647 C   0  0  0  0  0  0  0  0  0  0  0  0
    8.9372  -14.4075   17.4390 N   0  0  0  0  0  0  0  0  0  0  0  0
    8.2916  -13.2334   17.4073 C   0  0  0  0  0  0  0  0  0  0  0  0
    7.5179  -13.1712   18.5023 N   0  0  0  0  0  0  0  0  0  0  0  0
    7.5874  -16.2030   22.3446 C   0  0  0  0  0  0  0  0  0  0  0  0
    6.5402  -16.2692   23.0265 O   0  0  0  0  0  0  0  0  0  0  0  0
    8.8079  -16.3185   23.0507 N   0  0  0  0  0  0  0  0  0  0  0  0
    8.8387  -16.5484   24.4364 C   0  0  1  0  0  0  0  0  0  0  0  0
    9.8690  -17.4047   25.0370 C   0  0  0  0  0  0  0  0  0  0  0  0
    9.6983  -17.5714   26.5110 C   0  0  0  0  0  0  0  0  0  0  0  0
   10.7401  -18.3255   27.2419 C   0  0  0  0  0  0  0  0  0  0  0  0
   10.4325  -18.4548   28.7242 C   0  0  0  0  0  0  0  0  0  0  0  0
   11.4264  -19.2824   29.3364 N   0  0  0  0  0  0  0  0  0  0  0  0
    8.9805  -15.1808   25.0718 C   0  0  0  0  0  0  0  0  0  0  0  0
    9.9446  -14.4416   24.8223 O   0  0  0  0  0  0  0  0  0  0  0  0
    6.3739  -12.4004   25.2220 C   0  0  0  0  0  0  0  0  0  0  0  0
    6.7432  -12.8348   26.6047 C   0  0  1  0  0  0  0  0  0  0  0  0
    5.8380  -13.8135   27.0444 O   0  0  0  0  0  0  0  0  0  0  0  0
    8.1179  -13.4922   26.6507 C   0  0  2  0  0  0  0  0  0  0  0  0
    7.9794  -14.7655   25.9613 N   0  0  0  0  0  0  0  0  0  0  0  0
    8.5806  -13.6814   28.0331 C   0  0  0  0  0  0  0  0  0  0  0  0
    8.8269  -12.6577   28.7219 O   0  0  0  0  0  0  0  0  0  0  0  0
    8.7670  -14.9158   28.6384 O   0  0  0  0  0  0  0  0  0  0  0  0
  2  1  1  1
  2  9  1  0
  2  3  1  0
  3  4  1  0
  4  8  1  0
  4  5  2  0
  5  6  1  0
  7  6  1  0
  8  7  2  0
  9 11  1  0
 10  9  2  0
 11 12  1  0
 12 13  1  6
 13 14  1  0
 14 15  1  0
 15 16  1  0
 16 17  1  0
 18 19  2  0
 18 12  1  0
 21 20  1  6
 21 23  1  0
 22 21  1  0
 23 24  1  1
 23 25  1  0
 24 18  1  0
 25 27  1  0
 26 25  2  0
M  END
$$$$
