HKT.pdb
     RDKit          3D

 27 27  0  0  1  0  0  0  0  0999 V2000
    7.9767  -16.7515   20.1092 N   0  0  0  0  0  0  0  0  0  0  0  0
    8.2573  -15.5920   20.9278 C   0  0  1  0  0  0  0  0  0  0  0  0
    7.2332  -14.5370   20.5791 C   0  0  0  0  0  0  0  0  0  0  0  0
    7.5515  -14.0447   19.2201 C   0  0  0  0  0  0  0  0  0  0  0  0
    8.3487  -12.9567   18.9424 C   0  0  0  0  0  0  0  0  0  0  0  0
    8.4108  -12.8101   17.5920 N   0  0  0  0  0  0  0  0  0  0  0  0
    7.6717  -13.7810   17.0375 C   0  0  0  0  0  0  0  0  0  0  0  0
    7.1607  -14.5167   18.0371 N   0  0  0  0  0  0  0  0  0  0  0  0
    8.2266  -15.9755   22.3416 C   0  0  0  0  0  0  0  0  0  0  0  0
    7.1548  -16.4004   22.8280 O   0  0  0  0  0  0  0  0  0  0  0  0
    9.3329  -15.9031   23.2204 N   0  0  0  0  0  0  0  0  0  0  0  0
    9.2466  -16.3443   24.5515 C   0  0  1  0  0  0  0  0  0  0  0  0
   10.1455  -17.3873   25.0611 C   0  0  0  0  0  0  0  0  0  0  0  0
    9.9554  -17.6567   26.5175 C   0  0  0  0  0  0  0  0  0  0  0  0
   10.7821  -18.7176   27.1331 C   0  0  0  0  0  0  0  0  0  0  0  0
   10.4353  -18.9513   28.5938 C   0  0  0  0  0  0  0  0  0  0  0  0
   11.2754  -19.9868   29.1128 N   0  0  0  0  0  0  0  0  0  0  0  0
    9.4770  -15.1130   25.4030 C   0  0  0  0  0  0  0  0  0  0  0  0
   10.5843  -14.5575   25.4617 O   0  0  0  0  0  0  0  0  0  0  0  0
    7.0870  -12.0129   25.6727 C   0  0  0  0  0  0  0  0  0  0  0  0
    7.2993  -12.6771   26.9958 C   0  0  1  0  0  0  0  0  0  0  0  0
    6.2680  -13.6014   27.2253 O   0  0  0  0  0  0  0  0  0  0  0  0
    8.5928  -13.4833   27.0311 C   0  0  2  0  0  0  0  0  0  0  0  0
    8.3909  -14.6094   26.1329 N   0  0  0  0  0  0  0  0  0  0  0  0
    8.9099  -13.9371   28.3929 C   0  0  0  0  0  0  0  0  0  0  0  0
    8.8839  -15.1729   28.6277 O   0  0  0  0  0  0  0  0  0  0  0  0
    9.2383  -13.0958   29.4461 O   0  0  0  0  0  0  0  0  0  0  0  0
  2  1  1  6
  2  9  1  0
  2  3  1  0
  3  4  1  0
  4  8  1  0
  4  5  2  0
  5  6  1  0
  7  6  1  0
  8  7  2  0
  9 11  1  0
 10  9  2  0
 11 12  1  0
 12 13  1  1
 13 14  1  0
 14 15  1  0
 15 16  1  0
 16 17  1  0
 18 19  2  0
 18 12  1  0
 21 20  1  6
 21 23  1  0
 22 21  1  0
 23 24  1  6
 23 25  1  0
 24 18  1  0
 25 27  1  0
 26 25  2  0
M  END
$$$$
