HKT.pdb
     RDKit          3D

 27 27  0  0  1  0  0  0  0  0999 V2000
    6.5034  -16.2908   20.0363 N   0  0  0  0  0  0  0  0  0  0  0  0
    7.6140  -15.6423   20.6991 C   0  0  1  0  0  0  0  0  0  0  0  0
    7.5444  -14.1718   20.3582 C   0  0  0  0  0  0  0  0  0  0  0  0
    7.8946  -14.0332   18.9269 C   0  0  0  0  0  0  0  0  0  0  0  0
    7.1548  -13.3355   17.9983 C   0  0  0  0  0  0  0  0  0  0  0  0
    7.7844  -13.4301   16.7968 N   0  0  0  0  0  0  0  0  0  0  0  0
    8.8902  -14.1679   16.9677 C   0  0  0  0  0  0  0  0  0  0  0  0
    8.9395  -14.5230   18.2612 N   0  0  0  0  0  0  0  0  0  0  0  0
    7.5393  -15.9009   22.1394 C   0  0  0  0  0  0  0  0  0  0  0  0
    6.4198  -15.8819   22.6983 O   0  0  0  0  0  0  0  0  0  0  0  0
    8.6529  -16.1762   22.9674 N   0  0  0  0  0  0  0  0  0  0  0  0
    8.4993  -16.4928   24.3276 C   0  0  1  0  0  0  0  0  0  0  0  0
    9.2963  -17.5574   24.9498 C   0  0  0  0  0  0  0  0  0  0  0  0
    8.9524  -17.7758   26.3863 C   0  0  0  0  0  0  0  0  0  0  0  0
    9.7131  -18.8071   27.1252 C   0  0  0  0  0  0  0  0  0  0  0  0
    9.2842  -18.9164   28.5788 C   0  0  0  0  0  0  0  0  0  0  0  0
   10.1177  -19.8729   29.2403 N   0  0  0  0  0  0  0  0  0  0  0  0
    8.8112  -15.2156   25.0795 C   0  0  0  0  0  0  0  0  0  0  0  0
    9.8920  -14.6234   24.9405 O   0  0  0  0  0  0  0  0  0  0  0  0
    6.6900  -12.0261   25.3797 C   0  0  0  0  0  0  0  0  0  0  0  0
    6.8805  -12.6693   26.7165 C   0  0  1  0  0  0  0  0  0  0  0  0
    5.8042  -13.5318   26.9776 O   0  0  0  0  0  0  0  0  0  0  0  0
    8.1298  -13.5418   26.7597 C   0  0  2  0  0  0  0  0  0  0  0  0
    7.8328  -14.7120   25.9485 N   0  0  0  0  0  0  0  0  0  0  0  0
    8.4769  -13.9214   28.1368 C   0  0  0  0  0  0  0  0  0  0  0  0
    8.4687  -15.1435   28.4355 O   0  0  0  0  0  0  0  0  0  0  0  0
    8.8153  -13.0235   29.1388 O   0  0  0  0  0  0  0  0  0  0  0  0
  2  1  1  6
  2  9  1  0
  2  3  1  0
  3  4  1  0
  4  8  1  0
  4  5  2  0
  5  6  1  0
  7  6  1  0
  8  7  2  0
  9 11  1  0
 10  9  2  0
 11 12  1  0
 12 13  1  1
 13 14  1  0
 14 15  1  0
 15 16  1  0
 16 17  1  0
 18 19  2  0
 18 12  1  0
 21 20  1  6
 21 23  1  0
 22 21  1  0
 23 24  1  6
 23 25  1  0
 24 18  1  0
 25 27  1  0
 26 25  2  0
M  END
$$$$
