HKT.pdb
     RDKit          3D

 27 27  0  0  1  0  0  0  0  0999 V2000
    7.1486  -12.5184   19.4774 N   0  0  0  0  0  0  0  0  0  0  0  0
    7.7454  -13.8350   19.5393 C   0  0  1  0  0  0  0  0  0  0  0  0
    9.2109  -13.6805   19.2049 C   0  0  0  0  0  0  0  0  0  0  0  0
    9.5460  -14.7143   18.2001 C   0  0  0  0  0  0  0  0  0  0  0  0
    9.6721  -14.4876   16.8477 C   0  0  0  0  0  0  0  0  0  0  0  0
    9.9851  -15.6669   16.2474 N   0  0  0  0  0  0  0  0  0  0  0  0
   10.0533  -16.6084   17.1988 C   0  0  0  0  0  0  0  0  0  0  0  0
    9.7850  -16.0136   18.3718 N   0  0  0  0  0  0  0  0  0  0  0  0
    7.5182  -14.4102   20.8676 C   0  0  0  0  0  0  0  0  0  0  0  0
    6.9015  -13.7333   21.7205 O   0  0  0  0  0  0  0  0  0  0  0  0
    7.9480  -15.6955   21.2733 N   0  0  0  0  0  0  0  0  0  0  0  0
    7.4830  -16.2875   22.4596 C   0  0  1  0  0  0  0  0  0  0  0  0
    7.5160  -17.7442   22.6399 C   0  0  0  0  0  0  0  0  0  0  0  0
    6.9987  -18.1761   23.9723 C   0  0  0  0  0  0  0  0  0  0  0  0
    6.8994  -19.6289   24.2322 C   0  0  0  0  0  0  0  0  0  0  0  0
    6.2914  -19.9367   25.5903 C   0  0  0  0  0  0  0  0  0  0  0  0
    6.2299  -21.3557   25.7631 N   0  0  0  0  0  0  0  0  0  0  0  0
    8.3240  -15.6897   23.5684 C   0  0  0  0  0  0  0  0  0  0  0  0
    9.5618  -15.6518   23.5012 O   0  0  0  0  0  0  0  0  0  0  0  0
    7.6605  -12.3254   25.4303 C   0  0  0  0  0  0  0  0  0  0  0  0
    7.6570  -13.4877   26.3715 C   0  0  1  0  0  0  0  0  0  0  0  0
    6.3404  -13.9407   26.5495 O   0  0  0  0  0  0  0  0  0  0  0  0
    8.4322  -14.6771   25.8160 C   0  0  2  0  0  0  0  0  0  0  0  0
    7.6580  -15.1721   24.6885 N   0  0  0  0  0  0  0  0  0  0  0  0
    8.6215  -15.7216   26.8329 C   0  0  0  0  0  0  0  0  0  0  0  0
    8.0871  -16.8437   26.6376 O   0  0  0  0  0  0  0  0  0  0  0  0
    9.3520  -15.5592   28.0011 O   0  0  0  0  0  0  0  0  0  0  0  0
  2  1  1  1
  2  9  1  0
  2  3  1  0
  3  4  1  0
  4  8  1  0
  4  5  2  0
  5  6  1  0
  7  6  1  0
  8  7  2  0
  9 11  1  0
 10  9  2  0
 11 12  1  0
 12 13  1  6
 13 14  1  0
 14 15  1  0
 15 16  1  0
 16 17  1  0
 18 19  2  0
 18 12  1  0
 21 20  1  6
 21 23  1  0
 22 21  1  0
 23 24  1  6
 23 25  1  0
 24 18  1  0
 25 27  1  0
 26 25  2  0
M  END
$$$$
