HKT.pdb
     RDKit          3D

 27 27  0  0  1  0  0  0  0  0999 V2000
   11.7256  -13.9714   20.0708 N   0  0  0  0  0  0  0  0  0  0  0  0
   10.5011  -14.2951   20.7702 C   0  0  1  0  0  0  0  0  0  0  0  0
    9.7686  -15.3245   19.9414 C   0  0  0  0  0  0  0  0  0  0  0  0
    8.8976  -14.5915   18.9955 C   0  0  0  0  0  0  0  0  0  0  0  0
    8.8884  -13.2244   18.8300 C   0  0  0  0  0  0  0  0  0  0  0  0
    7.9643  -12.9185   17.8806 N   0  0  0  0  0  0  0  0  0  0  0  0
    7.4086  -14.0640   17.4619 C   0  0  0  0  0  0  0  0  0  0  0  0
    7.9854  -15.0637   18.1471 N   0  0  0  0  0  0  0  0  0  0  0  0
   10.8219  -14.7682   22.1193 C   0  0  0  0  0  0  0  0  0  0  0  0
   11.9705  -15.2100   22.3463 O   0  0  0  0  0  0  0  0  0  0  0  0
    9.9202  -14.7664   23.2095 N   0  0  0  0  0  0  0  0  0  0  0  0
   10.3322  -15.1138   24.5070 C   0  0  1  0  0  0  0  0  0  0  0  0
    9.7620  -14.4469   25.6842 C   0  0  0  0  0  0  0  0  0  0  0  0
   10.3955  -14.8853   26.9633 C   0  0  0  0  0  0  0  0  0  0  0  0
    9.8761  -14.3050   28.2209 C   0  0  0  0  0  0  0  0  0  0  0  0
   10.6579  -14.7645   29.4401 C   0  0  0  0  0  0  0  0  0  0  0  0
   10.0799  -14.1812   30.6118 N   0  0  0  0  0  0  0  0  0  0  0  0
   10.0257  -16.5903   24.6486 C   0  0  0  0  0  0  0  0  0  0  0  0
    8.8669  -17.0265   24.5771 O   0  0  0  0  0  0  0  0  0  0  0  0
   11.4441  -19.4816   22.7771 C   0  0  0  0  0  0  0  0  0  0  0  0
   11.7812  -19.6542   24.2241 C   0  0  1  0  0  0  0  0  0  0  0  0
   13.0629  -19.1372   24.4700 O   0  0  0  0  0  0  0  0  0  0  0  0
   10.8382  -18.8701   25.1295 C   0  0  2  0  0  0  0  0  0  0  0  0
   11.1007  -17.4642   24.8648 N   0  0  0  0  0  0  0  0  0  0  0  0
   11.0543  -19.1956   26.5467 C   0  0  0  0  0  0  0  0  0  0  0  0
   11.5414  -18.3068   27.2921 O   0  0  0  0  0  0  0  0  0  0  0  0
   10.7580  -20.4206   27.1266 O   0  0  0  0  0  0  0  0  0  0  0  0
  2  1  1  6
  2  9  1  0
  2  3  1  0
  3  4  1  0
  4  8  1  0
  4  5  2  0
  5  6  1  0
  7  6  1  0
  8  7  2  0
  9 11  1  0
 10  9  2  0
 11 12  1  0
 12 13  1  1
 13 14  1  0
 14 15  1  0
 15 16  1  0
 16 17  1  0
 18 19  2  0
 18 12  1  0
 21 20  1  6
 21 23  1  0
 22 21  1  0
 23 24  1  1
 23 25  1  0
 24 18  1  0
 25 27  1  0
 26 25  2  0
M  END
$$$$
