HKT.pdb
     RDKit          3D

 27 27  0  0  1  0  0  0  0  0999 V2000
    8.1960  -17.3831   17.6757 N   0  0  0  0  0  0  0  0  0  0  0  0
    8.6218  -16.2715   18.4981 C   0  0  1  0  0  0  0  0  0  0  0  0
    7.6329  -15.1492   18.2841 C   0  0  0  0  0  0  0  0  0  0  0  0
    7.8645  -14.6096   16.9254 C   0  0  0  0  0  0  0  0  0  0  0  0
    8.7707  -13.6206   16.6139 C   0  0  0  0  0  0  0  0  0  0  0  0
    8.7027  -13.3894   15.2757 N   0  0  0  0  0  0  0  0  0  0  0  0
    7.7778  -14.2121   14.7617 C   0  0  0  0  0  0  0  0  0  0  0  0
    7.2826  -14.9414   15.7738 N   0  0  0  0  0  0  0  0  0  0  0  0
    8.7045  -16.7039   19.8956 C   0  0  0  0  0  0  0  0  0  0  0  0
    7.6512  -17.0215   20.4919 O   0  0  0  0  0  0  0  0  0  0  0  0
    9.9031  -16.7935   20.6418 N   0  0  0  0  0  0  0  0  0  0  0  0
    9.9138  -17.2660   21.9649 C   0  0  1  0  0  0  0  0  0  0  0  0
   11.0351  -18.0670   22.4716 C   0  0  0  0  0  0  0  0  0  0  0  0
   11.1555  -19.3917   21.7930 C   0  0  0  0  0  0  0  0  0  0  0  0
   12.3491  -20.2116   22.0947 C   0  0  0  0  0  0  0  0  0  0  0  0
   12.3765  -21.5109   21.3075 C   0  0  0  0  0  0  0  0  0  0  0  0
   13.6053  -22.1930   21.5757 N   0  0  0  0  0  0  0  0  0  0  0  0
    9.8278  -16.0312   22.8377 C   0  0  0  0  0  0  0  0  0  0  0  0
   10.6218  -15.0867   22.7129 O   0  0  0  0  0  0  0  0  0  0  0  0
    7.2838  -13.5993   23.0807 C   0  0  0  0  0  0  0  0  0  0  0  0
    7.3766  -14.1956   24.4492 C   0  0  1  0  0  0  0  0  0  0  0  0
    6.4348  -15.2291   24.5733 O   0  0  0  0  0  0  0  0  0  0  0  0
    8.7344  -14.8408   24.7022 C   0  0  2  0  0  0  0  0  0  0  0  0
    8.8126  -15.9819   23.8036 N   0  0  0  0  0  0  0  0  0  0  0  0
    8.8833  -15.2549   26.1048 C   0  0  0  0  0  0  0  0  0  0  0  0
    8.9972  -16.4833   26.3520 O   0  0  0  0  0  0  0  0  0  0  0  0
    8.9076  -14.3836   27.1841 O   0  0  0  0  0  0  0  0  0  0  0  0
  2  1  1  6
  2  9  1  0
  2  3  1  0
  3  4  1  0
  4  8  1  0
  4  5  2  0
  5  6  1  0
  7  6  1  0
  8  7  2  0
  9 11  1  0
 10  9  2  0
 11 12  1  0
 12 13  1  1
 13 14  1  0
 14 15  1  0
 15 16  1  0
 16 17  1  0
 18 19  2  0
 18 12  1  0
 21 20  1  6
 21 23  1  0
 22 21  1  0
 23 24  1  6
 23 25  1  0
 24 18  1  0
 25 27  1  0
 26 25  2  0
M  END
$$$$
