HKT.pdb
     RDKit          3D

 27 27  0  0  1  0  0  0  0  0999 V2000
    7.7499  -16.8120   19.8988 N   0  0  0  0  0  0  0  0  0  0  0  0
    7.9696  -15.6252   20.6966 C   0  0  1  0  0  0  0  0  0  0  0  0
    7.0276  -14.5596   20.1861 C   0  0  0  0  0  0  0  0  0  0  0  0
    7.4883  -14.1741   18.8334 C   0  0  0  0  0  0  0  0  0  0  0  0
    8.4547  -13.2292   18.5693 C   0  0  0  0  0  0  0  0  0  0  0  0
    8.6098  -13.1468   17.2210 N   0  0  0  0  0  0  0  0  0  0  0  0
    7.7627  -14.0173   16.6546 C   0  0  0  0  0  0  0  0  0  0  0  0
    7.0938  -14.6284   17.6448 N   0  0  0  0  0  0  0  0  0  0  0  0
    7.7610  -15.9445   22.1113 C   0  0  0  0  0  0  0  0  0  0  0  0
    6.5984  -16.1753   22.5125 O   0  0  0  0  0  0  0  0  0  0  0  0
    8.7884  -16.0146   23.0815 N   0  0  0  0  0  0  0  0  0  0  0  0
    8.5290  -16.4202   24.4014 C   0  0  1  0  0  0  0  0  0  0  0  0
    9.1493  -17.6303   24.9552 C   0  0  0  0  0  0  0  0  0  0  0  0
    8.8032  -17.8553   26.3902 C   0  0  0  0  0  0  0  0  0  0  0  0
    9.3792  -19.0433   27.0572 C   0  0  0  0  0  0  0  0  0  0  0  0
    8.9747  -19.1433   28.5184 C   0  0  0  0  0  0  0  0  0  0  0  0
    9.5939  -20.2967   29.0959 N   0  0  0  0  0  0  0  0  0  0  0  0
    8.9680  -15.2636   25.2753 C   0  0  0  0  0  0  0  0  0  0  0  0
   10.1216  -14.8108   25.2283 O   0  0  0  0  0  0  0  0  0  0  0  0
    7.1300  -11.9197   25.9347 C   0  0  0  0  0  0  0  0  0  0  0  0
    7.2957  -12.6997   27.2001 C   0  0  1  0  0  0  0  0  0  0  0  0
    6.1411  -13.4635   27.4327 O   0  0  0  0  0  0  0  0  0  0  0  0
    8.4424  -13.7001   27.1105 C   0  0  2  0  0  0  0  0  0  0  0  0
    8.0232  -14.7094   26.1506 N   0  0  0  0  0  0  0  0  0  0  0  0
    8.7404  -14.2996   28.4192 C   0  0  0  0  0  0  0  0  0  0  0  0
    8.5539  -15.5356   28.5621 O   0  0  0  0  0  0  0  0  0  0  0  0
    9.2159  -13.5966   29.5167 O   0  0  0  0  0  0  0  0  0  0  0  0
  2  1  1  6
  2  9  1  0
  2  3  1  0
  3  4  1  0
  4  8  1  0
  4  5  2  0
  5  6  1  0
  7  6  1  0
  8  7  2  0
  9 11  1  0
 10  9  2  0
 11 12  1  0
 12 13  1  1
 13 14  1  0
 14 15  1  0
 15 16  1  0
 16 17  1  0
 18 19  2  0
 18 12  1  0
 21 20  1  6
 21 23  1  0
 22 21  1  0
 23 24  1  6
 23 25  1  0
 24 18  1  0
 25 27  1  0
 26 25  2  0
M  END
$$$$
