HKT.pdb
     RDKit          3D

 27 27  0  0  1  0  0  0  0  0999 V2000
    9.1085  -19.0374   16.0442 N   0  0  0  0  0  0  0  0  0  0  0  0
    9.5548  -17.8205   16.6872 C   0  0  1  0  0  0  0  0  0  0  0  0
    9.0178  -16.6621   15.8792 C   0  0  0  0  0  0  0  0  0  0  0  0
    9.5604  -16.7907   14.5082 C   0  0  0  0  0  0  0  0  0  0  0  0
   10.8940  -16.7014   14.1766 C   0  0  0  0  0  0  0  0  0  0  0  0
   11.0088  -16.8694   12.8322 N   0  0  0  0  0  0  0  0  0  0  0  0
    9.7792  -17.0591   12.3339 C   0  0  0  0  0  0  0  0  0  0  0  0
    8.9175  -17.0082   13.3618 N   0  0  0  0  0  0  0  0  0  0  0  0
    9.0969  -17.8096   18.0790 C   0  0  0  0  0  0  0  0  0  0  0  0
    8.8079  -16.7141   18.6103 O   0  0  0  0  0  0  0  0  0  0  0  0
    8.9518  -18.9607   18.8886 N   0  0  0  0  0  0  0  0  0  0  0  0
    8.4354  -18.8838   20.1930 C   0  0  1  0  0  0  0  0  0  0  0  0
    7.8586  -20.0646   20.8476 C   0  0  0  0  0  0  0  0  0  0  0  0
    6.7361  -20.6689   20.0702 C   0  0  0  0  0  0  0  0  0  0  0  0
    6.0841  -21.8733   20.6291 C   0  0  0  0  0  0  0  0  0  0  0  0
    4.9756  -22.4027   19.7349 C   0  0  0  0  0  0  0  0  0  0  0  0
    4.4689  -23.6198   20.2909 N   0  0  0  0  0  0  0  0  0  0  0  0
    9.5887  -18.4220   21.0596 C   0  0  0  0  0  0  0  0  0  0  0  0
   10.7557  -18.7786   20.8379 O   0  0  0  0  0  0  0  0  0  0  0  0
   10.0702  -14.7997   22.0120 C   0  0  0  0  0  0  0  0  0  0  0  0
   10.0804  -15.6220   23.2613 C   0  0  1  0  0  0  0  0  0  0  0  0
    8.8038  -15.6009   23.8448 O   0  0  0  0  0  0  0  0  0  0  0  0
   10.3819  -17.0894   22.9789 C   0  0  2  0  0  0  0  0  0  0  0  0
    9.2994  -17.5683   22.1336 N   0  0  0  0  0  0  0  0  0  0  0  0
   10.4751  -17.8709   24.2205 C   0  0  0  0  0  0  0  0  0  0  0  0
    9.5755  -18.7178   24.4575 O   0  0  0  0  0  0  0  0  0  0  0  0
   11.4904  -17.7417   25.1571 O   0  0  0  0  0  0  0  0  0  0  0  0
  2  1  1  6
  2  9  1  0
  2  3  1  0
  3  4  1  0
  4  8  1  0
  4  5  2  0
  5  6  1  0
  7  6  1  0
  8  7  2  0
  9 11  1  0
 10  9  2  0
 11 12  1  0
 12 13  1  1
 13 14  1  0
 14 15  1  0
 15 16  1  0
 16 17  1  0
 18 19  2  0
 18 12  1  0
 21 20  1  6
 21 23  1  0
 22 21  1  0
 23 24  1  6
 23 25  1  0
 24 18  1  0
 25 27  1  0
 26 25  2  0
M  END
$$$$
