MSG.pdb
     RDKit          3D

 19 18  0  0  1  0  0  0  0  0999 V2000
   21.0865  -14.2714  -19.2691 C   0  0  0  0  0  0  0  0  0  0  0  0
   20.5355  -13.4075  -20.7853 S   0  0  0  0  0  0  0  0  0  0  0  0
   21.1227  -11.6781  -20.6151 C   0  0  0  0  0  0  0  0  0  0  0  0
   20.3995  -10.9644  -19.5252 C   0  0  0  0  0  0  0  0  0  0  0  0
   21.2883   -9.9648  -18.8755 C   0  0  2  0  0  0  0  0  0  0  0  0
   22.4290  -10.6628  -18.2864 N   0  0  0  0  0  0  0  0  0  0  0  0
   20.6648   -9.1083  -17.8664 C   0  0  0  0  0  0  0  0  0  0  0  0
   19.5939   -8.4656  -17.9860 O   0  0  0  0  0  0  0  0  0  0  0  0
   21.9460   -9.6567  -14.1311 O   0  0  0  0  0  0  0  0  0  0  0  0
   20.7496   -8.9710  -14.2819 C   0  0  0  0  0  0  0  0  0  0  0  0
   20.7674   -8.1465  -15.5651 C   0  0  2  0  0  0  0  0  0  0  0  0
   21.3183   -8.9656  -16.5963 N   0  0  0  0  0  0  0  0  0  0  0  0
   21.7108   -7.0024  -15.3050 C   0  0  0  0  0  0  0  0  0  0  0  0
   22.8905   -7.0461  -15.6996 O   0  0  0  0  0  0  0  0  0  0  0  0
   21.2916   -5.8356  -14.6028 N   0  0  0  0  0  0  0  0  0  0  0  0
   22.1566   -4.7232  -14.3208 C   0  0  0  0  0  0  0  0  0  0  0  0
   21.4351   -3.5617  -13.7738 C   0  0  0  0  0  0  0  0  0  0  0  0
   22.0907   -2.4056  -13.3814 O   0  0  0  0  0  0  0  0  0  0  0  0
   20.1849   -3.6304  -13.6630 O   0  0  0  0  0  0  0  0  0  0  0  0
  2  1  1  0
  3  2  1  0
  4  5  1  0
  4  3  1  0
  5  6  1  1
  7  8  2  0
  7  5  1  0
 10  9  1  0
 11 10  1  1
 11 12  1  0
 12  7  1  0
 13 14  2  0
 13 11  1  0
 15 13  1  0
 16 17  1  0
 16 15  1  0
 17 18  1  0
 19 17  2  0
M  END
$$$$
