MSG.pdb
     RDKit          3D

 19 18  0  0  1  0  0  0  0  0999 V2000
   20.9095  -14.0759  -21.4809 C   0  0  0  0  0  0  0  0  0  0  0  0
   21.5638  -12.6545  -20.5321 S   0  0  0  0  0  0  0  0  0  0  0  0
   20.6983  -12.6933  -18.9153 C   0  0  0  0  0  0  0  0  0  0  0  0
   21.1497  -11.5819  -18.0315 C   0  0  0  0  0  0  0  0  0  0  0  0
   20.4024  -11.5999  -16.7460 C   0  0  2  0  0  0  0  0  0  0  0  0
   19.3218  -12.5786  -16.8443 N   0  0  0  0  0  0  0  0  0  0  0  0
   19.8607  -10.3167  -16.2980 C   0  0  0  0  0  0  0  0  0  0  0  0
   18.7692   -9.8022  -16.6417 O   0  0  0  0  0  0  0  0  0  0  0  0
   18.5159   -9.1060  -13.3585 O   0  0  0  0  0  0  0  0  0  0  0  0
   19.7469   -8.4708  -13.4307 C   0  0  0  0  0  0  0  0  0  0  0  0
   20.1624   -8.2804  -14.8859 C   0  0  2  0  0  0  0  0  0  0  0  0
   20.6309   -9.5394  -15.3689 N   0  0  0  0  0  0  0  0  0  0  0  0
   21.3180   -7.3158  -14.8602 C   0  0  0  0  0  0  0  0  0  0  0  0
   22.4838   -7.7210  -14.6990 O   0  0  0  0  0  0  0  0  0  0  0  0
   21.1220   -5.9133  -15.0183 N   0  0  0  0  0  0  0  0  0  0  0  0
   22.1873   -4.9503  -14.9665 C   0  0  0  0  0  0  0  0  0  0  0  0
   21.7354   -3.5805  -15.2634 C   0  0  0  0  0  0  0  0  0  0  0  0
   22.5740   -2.4846  -15.1363 O   0  0  0  0  0  0  0  0  0  0  0  0
   20.5495   -3.4097  -15.6438 O   0  0  0  0  0  0  0  0  0  0  0  0
  2  1  1  0
  3  2  1  0
  4  5  1  0
  4  3  1  0
  5  6  1  6
  7  8  2  0
  7  5  1  0
 10  9  1  0
 11 10  1  1
 11 12  1  0
 12  7  1  0
 13 14  2  0
 13 11  1  0
 15 13  1  0
 16 17  1  0
 16 15  1  0
 17 18  1  0
 19 17  2  0
M  END
$$$$
