MSG.pdb
     RDKit          3D

 19 18  0  0  1  0  0  0  0  0999 V2000
   27.9917  -10.5833  -15.7884 C   0  0  0  0  0  0  0  0  0  0  0  0
   27.6754  -12.3746  -15.5887 S   0  0  0  0  0  0  0  0  0  0  0  0
   25.8509  -12.5629  -15.5974 C   0  0  0  0  0  0  0  0  0  0  0  0
   25.1780  -11.3071  -16.0340 C   0  0  0  0  0  0  0  0  0  0  0  0
   23.7008  -11.4777  -16.0319 C   0  0  2  0  0  0  0  0  0  0  0  0
   23.3447  -12.5025  -17.0109 N   0  0  0  0  0  0  0  0  0  0  0  0
   22.9128  -10.2701  -16.2795 C   0  0  0  0  0  0  0  0  0  0  0  0
   22.7857   -9.6685  -17.3732 O   0  0  0  0  0  0  0  0  0  0  0  0
   19.4764   -9.8655  -15.7933 O   0  0  0  0  0  0  0  0  0  0  0  0
   19.9694   -8.8697  -14.9628 C   0  0  0  0  0  0  0  0  0  0  0  0
   21.4009   -8.5141  -15.3509 C   0  0  2  0  0  0  0  0  0  0  0  0
   22.1979   -9.6861  -15.1802 N   0  0  0  0  0  0  0  0  0  0  0  0
   21.8510   -7.4782  -14.3555 C   0  0  0  0  0  0  0  0  0  0  0  0
   22.4009   -7.8135  -13.2904 O   0  0  0  0  0  0  0  0  0  0  0  0
   21.6656   -6.0856  -14.5935 N   0  0  0  0  0  0  0  0  0  0  0  0
   22.0859   -5.0594  -13.6796 C   0  0  0  0  0  0  0  0  0  0  0  0
   21.7227   -3.7060  -14.1324 C   0  0  0  0  0  0  0  0  0  0  0  0
   21.9817   -2.5795  -13.3680 O   0  0  0  0  0  0  0  0  0  0  0  0
   21.1602   -3.5783  -15.2492 O   0  0  0  0  0  0  0  0  0  0  0  0
  2  1  1  0
  3  2  1  0
  4  5  1  0
  4  3  1  0
  5  6  1  6
  7  8  2  0
  7  5  1  0
 10  9  1  0
 11 10  1  1
 11 12  1  0
 12  7  1  0
 13 14  2  0
 13 11  1  0
 15 13  1  0
 16 17  1  0
 16 15  1  0
 17 18  1  0
 19 17  2  0
M  END
$$$$
