MSG.pdb
     RDKit          3D

 19 18  0  0  1  0  0  0  0  0999 V2000
   28.8136  -11.2724  -16.6642 C   0  0  0  0  0  0  0  0  0  0  0  0
   27.8926  -12.3277  -15.4866 S   0  0  0  0  0  0  0  0  0  0  0  0
   26.2778  -12.6737  -16.2848 C   0  0  0  0  0  0  0  0  0  0  0  0
   25.3898  -11.4775  -16.2536 C   0  0  0  0  0  0  0  0  0  0  0  0
   24.1171  -11.7525  -16.9718 C   0  0  2  0  0  0  0  0  0  0  0  0
   24.4262  -12.4001  -18.2448 N   0  0  0  0  0  0  0  0  0  0  0  0
   23.2489  -10.5988  -17.2083 C   0  0  0  0  0  0  0  0  0  0  0  0
   23.2922   -9.8157  -18.1876 O   0  0  0  0  0  0  0  0  0  0  0  0
   19.8744  -10.4480  -15.0214 O   0  0  0  0  0  0  0  0  0  0  0  0
   19.9392   -9.6544  -16.1574 C   0  0  0  0  0  0  0  0  0  0  0  0
   21.3683   -9.1753  -16.3905 C   0  0  2  0  0  0  0  0  0  0  0  0
   22.2311  -10.3026  -16.2403 N   0  0  0  0  0  0  0  0  0  0  0  0
   21.6592   -8.1971  -15.2837 C   0  0  0  0  0  0  0  0  0  0  0  0
   22.3090   -8.5439  -14.2803 O   0  0  0  0  0  0  0  0  0  0  0  0
   21.2050   -6.8478  -15.3428 N   0  0  0  0  0  0  0  0  0  0  0  0
   21.3773   -5.9029  -14.2740 C   0  0  0  0  0  0  0  0  0  0  0  0
   22.3519   -4.8467  -14.5956 C   0  0  0  0  0  0  0  0  0  0  0  0
   22.6397   -3.8171  -13.7138 O   0  0  0  0  0  0  0  0  0  0  0  0
   22.9364   -4.8887  -15.7076 O   0  0  0  0  0  0  0  0  0  0  0  0
  2  1  1  0
  3  2  1  0
  4  5  1  0
  4  3  1  0
  5  6  1  6
  7  8  2  0
  7  5  1  0
 10  9  1  0
 11 10  1  1
 11 12  1  0
 12  7  1  0
 13 14  2  0
 13 11  1  0
 15 13  1  0
 16 17  1  0
 16 15  1  0
 17 18  1  0
 19 17  2  0
M  END
$$$$
