MSG.pdb
     RDKit          3D

 19 18  0  0  1  0  0  0  0  0999 V2000
   17.3080  -13.3738  -19.9133 C   0  0  0  0  0  0  0  0  0  0  0  0
   18.9015  -13.7675  -20.7221 S   0  0  0  0  0  0  0  0  0  0  0  0
   20.1526  -12.7059  -19.9024 C   0  0  0  0  0  0  0  0  0  0  0  0
   19.5698  -11.9801  -18.7389 C   0  0  0  0  0  0  0  0  0  0  0  0
   20.5949  -11.1169  -18.0944 C   0  0  2  0  0  0  0  0  0  0  0  0
   21.4134  -11.9413  -17.2079 N   0  0  0  0  0  0  0  0  0  0  0  0
   20.0899   -9.9586  -17.3569 C   0  0  0  0  0  0  0  0  0  0  0  0
   19.3743   -9.0337  -17.8114 O   0  0  0  0  0  0  0  0  0  0  0  0
   18.3076   -9.9910  -14.0888 O   0  0  0  0  0  0  0  0  0  0  0  0
   19.4566   -9.2444  -13.8732 C   0  0  0  0  0  0  0  0  0  0  0  0
   20.0015   -8.7133  -15.1951 C   0  0  2  0  0  0  0  0  0  0  0  0
   20.4287   -9.8354  -15.9674 N   0  0  0  0  0  0  0  0  0  0  0  0
   21.2090   -7.8875  -14.8395 C   0  0  0  0  0  0  0  0  0  0  0  0
   22.3512   -8.3811  -14.8711 O   0  0  0  0  0  0  0  0  0  0  0  0
   21.0904   -6.5202  -14.4563 N   0  0  0  0  0  0  0  0  0  0  0  0
   22.2164   -5.6696  -14.1847 C   0  0  0  0  0  0  0  0  0  0  0  0
   21.8217   -4.3120  -13.7726 C   0  0  0  0  0  0  0  0  0  0  0  0
   22.7474   -3.3744  -13.3432 O   0  0  0  0  0  0  0  0  0  0  0  0
   20.6040   -4.0029  -13.8150 O   0  0  0  0  0  0  0  0  0  0  0  0
  2  1  1  0
  3  2  1  0
  4  5  1  0
  4  3  1  0
  5  6  1  1
  7  8  2  0
  7  5  1  0
 10  9  1  0
 11 10  1  1
 11 12  1  0
 12  7  1  0
 13 14  2  0
 13 11  1  0
 15 13  1  0
 16 17  1  0
 16 15  1  0
 17 18  1  0
 19 17  2  0
M  END
$$$$
