MSG.pdb
     RDKit          3D

 19 18  0  0  1  0  0  0  0  0999 V2000
   20.8706  -14.2061  -14.7475 C   0  0  0  0  0  0  0  0  0  0  0  0
   21.5146  -15.2917  -16.0724 S   0  0  0  0  0  0  0  0  0  0  0  0
   23.0169  -14.4576  -16.7143 C   0  0  0  0  0  0  0  0  0  0  0  0
   23.1891  -13.1078  -16.1075 C   0  0  0  0  0  0  0  0  0  0  0  0
   24.4509  -12.4791  -16.5807 C   0  0  2  0  0  0  0  0  0  0  0  0
   25.5717  -13.0673  -15.8504 N   0  0  0  0  0  0  0  0  0  0  0  0
   24.5181  -11.0205  -16.4872 C   0  0  0  0  0  0  0  0  0  0  0  0
   25.3479  -10.3485  -15.8283 O   0  0  0  0  0  0  0  0  0  0  0  0
   21.8448   -8.8700  -18.8466 O   0  0  0  0  0  0  0  0  0  0  0  0
   23.0959   -8.3399  -18.5675 C   0  0  0  0  0  0  0  0  0  0  0  0
   23.5844   -8.8192  -17.2044 C   0  0  2  0  0  0  0  0  0  0  0  0
   23.5502  -10.2463  -17.2114 N   0  0  0  0  0  0  0  0  0  0  0  0
   22.5735   -8.3197  -16.2069 C   0  0  0  0  0  0  0  0  0  0  0  0
   21.6871   -9.0734  -15.7649 O   0  0  0  0  0  0  0  0  0  0  0  0
   22.5935   -6.9753  -15.7349 N   0  0  0  0  0  0  0  0  0  0  0  0
   21.6735   -6.4615  -14.7578 C   0  0  0  0  0  0  0  0  0  0  0  0
   21.9690   -5.0723  -14.3686 C   0  0  0  0  0  0  0  0  0  0  0  0
   21.1160   -4.3364  -13.5616 O   0  0  0  0  0  0  0  0  0  0  0  0
   23.0311   -4.5456  -14.7866 O   0  0  0  0  0  0  0  0  0  0  0  0
  2  1  1  0
  3  2  1  0
  4  5  1  0
  4  3  1  0
  5  6  1  1
  7  8  2  0
  7  5  1  0
 10  9  1  0
 11 10  1  6
 11 12  1  0
 12  7  1  0
 13 14  2  0
 13 11  1  0
 15 13  1  0
 16 17  1  0
 16 15  1  0
 17 18  1  0
 19 17  2  0
M  END
$$$$
