MSG.pdb
     RDKit          3D

 19 18  0  0  1  0  0  0  0  0999 V2000
   18.2947  -12.8172  -14.8402 C   0  0  0  0  0  0  0  0  0  0  0  0
   18.2281  -12.6872  -16.6643 S   0  0  0  0  0  0  0  0  0  0  0  0
   19.1469  -11.1576  -17.0890 C   0  0  0  0  0  0  0  0  0  0  0  0
   18.9762  -10.1132  -16.0401 C   0  0  0  0  0  0  0  0  0  0  0  0
   19.7501   -8.8919  -16.3876 C   0  0  2  0  0  0  0  0  0  0  0  0
   21.1714   -9.2300  -16.4213 N   0  0  0  0  0  0  0  0  0  0  0  0
   19.5441   -7.7309  -15.5215 C   0  0  0  0  0  0  0  0  0  0  0  0
   18.4430   -7.2628  -15.1437 O   0  0  0  0  0  0  0  0  0  0  0  0
   22.9287   -6.0821  -13.8599 O   0  0  0  0  0  0  0  0  0  0  0  0
   21.7184   -5.8832  -13.2119 C   0  0  0  0  0  0  0  0  0  0  0  0
   20.5727   -5.8664  -14.2186 C   0  0  2  0  0  0  0  0  0  0  0  0
   20.6989   -7.0307  -15.0350 N   0  0  0  0  0  0  0  0  0  0  0  0
   20.7986   -4.6508  -15.0776 C   0  0  0  0  0  0  0  0  0  0  0  0
   21.2326   -4.7620  -16.2389 O   0  0  0  0  0  0  0  0  0  0  0  0
   20.5260   -3.3374  -14.5970 N   0  0  0  0  0  0  0  0  0  0  0  0
   20.7716   -2.1444  -15.3595 C   0  0  0  0  0  0  0  0  0  0  0  0
   20.2906   -0.9260  -14.6865 C   0  0  0  0  0  0  0  0  0  0  0  0
   20.5660    0.3418  -15.1736 O   0  0  0  0  0  0  0  0  0  0  0  0
   19.6091   -1.0499  -13.6376 O   0  0  0  0  0  0  0  0  0  0  0  0
  2  1  1  0
  3  2  1  0
  4  5  1  0
  4  3  1  0
  5  6  1  1
  7  8  2  0
  7  5  1  0
 10  9  1  0
 11 10  1  1
 11 12  1  0
 12  7  1  0
 13 14  2  0
 13 11  1  0
 15 13  1  0
 16 17  1  0
 16 15  1  0
 17 18  1  0
 19 17  2  0
M  END
$$$$
