MSG.pdb
     RDKit          3D

 19 18  0  0  1  0  0  0  0  0999 V2000
   25.2597  -19.5576   -8.0010 C   0  0  0  0  0  0  0  0  0  0  0  0
   25.5973  -21.2061   -8.7203 S   0  0  0  0  0  0  0  0  0  0  0  0
   26.9426  -20.9515   -9.9408 C   0  0  0  0  0  0  0  0  0  0  0  0
   26.4684  -20.1665  -11.1151 C   0  0  0  0  0  0  0  0  0  0  0  0
   25.6186  -21.0087  -11.9982 C   0  0  2  0  0  0  0  0  0  0  0  0
   26.4635  -22.0062  -12.6513 N   0  0  0  0  0  0  0  0  0  0  0  0
   24.8342  -20.2963  -13.0071 C   0  0  0  0  0  0  0  0  0  0  0  0
   24.1180  -19.2828  -12.8224 O   0  0  0  0  0  0  0  0  0  0  0  0
   26.0544  -20.1119  -16.7389 O   0  0  0  0  0  0  0  0  0  0  0  0
   24.7263  -20.5120  -16.7228 C   0  0  0  0  0  0  0  0  0  0  0  0
   24.0828  -20.1655  -15.3840 C   0  0  2  0  0  0  0  0  0  0  0  0
   24.8635  -20.7792  -14.3586 N   0  0  0  0  0  0  0  0  0  0  0  0
   22.7226  -20.8104  -15.4030 C   0  0  0  0  0  0  0  0  0  0  0  0
   22.6005  -22.0449  -15.3006 O   0  0  0  0  0  0  0  0  0  0  0  0
   21.5331  -20.0377  -15.5379 N   0  0  0  0  0  0  0  0  0  0  0  0
   20.2103  -20.5854  -15.4140 C   0  0  0  0  0  0  0  0  0  0  0  0
   19.6104  -20.9318  -16.7136 C   0  0  0  0  0  0  0  0  0  0  0  0
   18.3199  -21.4251  -16.8208 O   0  0  0  0  0  0  0  0  0  0  0  0
   20.2985  -20.7715  -17.7532 O   0  0  0  0  0  0  0  0  0  0  0  0
  2  1  1  0
  3  2  1  0
  4  5  1  0
  4  3  1  0
  5  6  1  6
  7  8  2  0
  7  5  1  0
 10  9  1  0
 11 10  1  6
 11 12  1  0
 12  7  1  0
 13 14  2  0
 13 11  1  0
 15 13  1  0
 16 17  1  0
 16 15  1  0
 17 18  1  0
 19 17  2  0
M  END
$$$$
