MSG.pdb
     RDKit          3D

 19 18  0  0  1  0  0  0  0  0999 V2000
   14.0644   -9.2056  -15.3274 C   0  0  0  0  0  0  0  0  0  0  0  0
   13.5428   -9.2500  -13.5739 S   0  0  0  0  0  0  0  0  0  0  0  0
   14.9470   -9.9897  -12.6545 C   0  0  0  0  0  0  0  0  0  0  0  0
   16.1026   -9.0518  -12.5826 C   0  0  0  0  0  0  0  0  0  0  0  0
   17.2620   -9.7011  -11.9150 C   0  0  2  0  0  0  0  0  0  0  0  0
   16.8577  -10.1216  -10.5752 N   0  0  0  0  0  0  0  0  0  0  0  0
   18.4851   -8.9029  -11.8287 C   0  0  0  0  0  0  0  0  0  0  0  0
   18.8080   -8.1231  -10.9003 O   0  0  0  0  0  0  0  0  0  0  0  0
   21.1840   -9.5301  -14.8081 O   0  0  0  0  0  0  0  0  0  0  0  0
   21.6862   -8.8974  -13.6804 C   0  0  0  0  0  0  0  0  0  0  0  0
   20.5771   -8.1402  -12.9572 C   0  0  2  0  0  0  0  0  0  0  0  0
   19.4368   -8.9970  -12.8992 N   0  0  0  0  0  0  0  0  0  0  0  0
   20.2472   -6.9604  -13.8324 C   0  0  0  0  0  0  0  0  0  0  0  0
   19.4307   -7.0671  -14.7658 O   0  0  0  0  0  0  0  0  0  0  0  0
   20.8528   -5.6871  -13.6264 N   0  0  0  0  0  0  0  0  0  0  0  0
   20.6547   -4.5617  -14.4979 C   0  0  0  0  0  0  0  0  0  0  0  0
   21.3954   -3.3650  -14.0643 C   0  0  0  0  0  0  0  0  0  0  0  0
   22.7459   -3.4063  -13.7566 O   0  0  0  0  0  0  0  0  0  0  0  0
   20.7744   -2.2759  -13.9735 O   0  0  0  0  0  0  0  0  0  0  0  0
  2  1  1  0
  3  2  1  0
  4  5  1  0
  4  3  1  0
  5  6  1  1
  7  8  2  0
  7  5  1  0
 10  9  1  0
 11 10  1  6
 11 12  1  0
 12  7  1  0
 13 14  2  0
 13 11  1  0
 15 13  1  0
 16 17  1  0
 16 15  1  0
 17 18  1  0
 19 17  2  0
M  END
$$$$
