MSG.pdb
     RDKit          3D

 19 18  0  0  1  0  0  0  0  0999 V2000
   19.0789  -15.3769  -19.5085 C   0  0  0  0  0  0  0  0  0  0  0  0
   19.8571  -14.4202  -20.8605 S   0  0  0  0  0  0  0  0  0  0  0  0
   21.0961  -13.3344  -20.0539 C   0  0  0  0  0  0  0  0  0  0  0  0
   20.5330  -11.9837  -19.7735 C   0  0  0  0  0  0  0  0  0  0  0  0
   21.4269  -11.2241  -18.8596 C   0  0  2  0  0  0  0  0  0  0  0  0
   21.7611  -12.0720  -17.7173 N   0  0  0  0  0  0  0  0  0  0  0  0
   20.9173   -9.9386  -18.3818 C   0  0  0  0  0  0  0  0  0  0  0  0
   20.5441   -8.9705  -19.0874 O   0  0  0  0  0  0  0  0  0  0  0  0
   18.3749   -7.6579  -15.3025 O   0  0  0  0  0  0  0  0  0  0  0  0
   18.9107   -8.7965  -15.8862 C   0  0  0  0  0  0  0  0  0  0  0  0
   20.3072   -8.5093  -16.4281 C   0  0  2  0  0  0  0  0  0  0  0  0
   20.8205   -9.7283  -16.9651 N   0  0  0  0  0  0  0  0  0  0  0  0
   21.1393   -8.1224  -15.2346 C   0  0  0  0  0  0  0  0  0  0  0  0
   21.6887   -8.9902  -14.5316 O   0  0  0  0  0  0  0  0  0  0  0  0
   21.3274   -6.7584  -14.8677 N   0  0  0  0  0  0  0  0  0  0  0  0
   22.0580   -6.3415  -13.7026 C   0  0  0  0  0  0  0  0  0  0  0  0
   21.9608   -4.8932  -13.4542 C   0  0  0  0  0  0  0  0  0  0  0  0
   22.5283   -4.2977  -12.3389 O   0  0  0  0  0  0  0  0  0  0  0  0
   21.3416   -4.1825  -14.2857 O   0  0  0  0  0  0  0  0  0  0  0  0
  2  1  1  0
  3  2  1  0
  4  5  1  0
  4  3  1  0
  5  6  1  1
  7  8  2  0
  7  5  1  0
 10  9  1  0
 11 10  1  1
 11 12  1  0
 12  7  1  0
 13 14  2  0
 13 11  1  0
 15 13  1  0
 16 17  1  0
 16 15  1  0
 17 18  1  0
 19 17  2  0
M  END
$$$$
