MSG.pdb
     RDKit          3D

 19 18  0  0  1  0  0  0  0  0999 V2000
   21.8971  -17.2423  -16.5759 C   0  0  0  0  0  0  0  0  0  0  0  0
   21.6794  -15.6696  -15.6660 S   0  0  0  0  0  0  0  0  0  0  0  0
   23.0142  -14.5608  -16.2602 C   0  0  0  0  0  0  0  0  0  0  0  0
   22.9271  -13.2169  -15.6228 C   0  0  0  0  0  0  0  0  0  0  0  0
   23.9817  -12.3152  -16.1577 C   0  0  2  0  0  0  0  0  0  0  0  0
   25.2491  -12.6352  -15.5047 N   0  0  0  0  0  0  0  0  0  0  0  0
   23.7210  -10.8801  -16.0427 C   0  0  0  0  0  0  0  0  0  0  0  0
   24.0337  -10.1356  -15.0824 O   0  0  0  0  0  0  0  0  0  0  0  0
   24.2029   -8.0809  -18.8477 O   0  0  0  0  0  0  0  0  0  0  0  0
   22.8741   -8.2937  -18.5108 C   0  0  0  0  0  0  0  0  0  0  0  0
   22.7654   -8.8226  -17.0843 C   0  0  2  0  0  0  0  0  0  0  0  0
   23.0391  -10.2231  -17.1216 N   0  0  0  0  0  0  0  0  0  0  0  0
   21.3284   -8.6247  -16.6814 C   0  0  0  0  0  0  0  0  0  0  0  0
   20.4630   -9.4723  -16.9678 O   0  0  0  0  0  0  0  0  0  0  0  0
   20.9083   -7.4684  -15.9625 N   0  0  0  0  0  0  0  0  0  0  0  0
   19.5672   -7.2724  -15.4847 C   0  0  0  0  0  0  0  0  0  0  0  0
   19.3849   -5.9779  -14.8067 C   0  0  0  0  0  0  0  0  0  0  0  0
   18.1533   -5.5680  -14.3211 O   0  0  0  0  0  0  0  0  0  0  0  0
   20.3838   -5.2274  -14.6687 O   0  0  0  0  0  0  0  0  0  0  0  0
  2  1  1  0
  3  2  1  0
  4  5  1  0
  4  3  1  0
  5  6  1  1
  7  8  2  0
  7  5  1  0
 10  9  1  0
 11 10  1  6
 11 12  1  0
 12  7  1  0
 13 14  2  0
 13 11  1  0
 15 13  1  0
 16 17  1  0
 16 15  1  0
 17 18  1  0
 19 17  2  0
M  END
$$$$
