MSG.pdb
     RDKit          3D

 19 18  0  0  1  0  0  0  0  0999 V2000
   29.7022   -9.7328  -17.5180 C   0  0  0  0  0  0  0  0  0  0  0  0
   29.4053  -11.5369  -17.4424 S   0  0  0  0  0  0  0  0  0  0  0  0
   27.8669  -11.7486  -16.4661 C   0  0  0  0  0  0  0  0  0  0  0  0
   26.7607  -10.9103  -17.0082 C   0  0  0  0  0  0  0  0  0  0  0  0
   25.9019  -10.4017  -15.9059 C   0  0  2  0  0  0  0  0  0  0  0  0
   25.3266  -11.5411  -15.1944 N   0  0  0  0  0  0  0  0  0  0  0  0
   24.8353   -9.4785  -16.2941 C   0  0  0  0  0  0  0  0  0  0  0  0
   24.9736   -8.3704  -16.8660 O   0  0  0  0  0  0  0  0  0  0  0  0
   21.0151  -10.6785  -15.3526 O   0  0  0  0  0  0  0  0  0  0  0  0
   21.1411   -9.8719  -16.4741 C   0  0  0  0  0  0  0  0  0  0  0  0
   22.3865   -8.9984  -16.3635 C   0  0  2  0  0  0  0  0  0  0  0  0
   23.4779   -9.8465  -16.0065 N   0  0  0  0  0  0  0  0  0  0  0  0
   22.1231   -8.0498  -15.2245 C   0  0  0  0  0  0  0  0  0  0  0  0
   22.6046   -8.2588  -14.0959 O   0  0  0  0  0  0  0  0  0  0  0  0
   21.3186   -6.8861  -15.3945 N   0  0  0  0  0  0  0  0  0  0  0  0
   21.0466   -5.9463  -14.3419 C   0  0  0  0  0  0  0  0  0  0  0  0
   21.8344   -4.7080  -14.4627 C   0  0  0  0  0  0  0  0  0  0  0  0
   21.2365   -3.4647  -14.5939 O   0  0  0  0  0  0  0  0  0  0  0  0
   23.0885   -4.7912  -14.4453 O   0  0  0  0  0  0  0  0  0  0  0  0
  2  1  1  0
  3  2  1  0
  4  5  1  0
  4  3  1  0
  5  6  1  6
  7  8  2  0
  7  5  1  0
 10  9  1  0
 11 10  1  1
 11 12  1  0
 12  7  1  0
 13 14  2  0
 13 11  1  0
 15 13  1  0
 16 17  1  0
 16 15  1  0
 17 18  1  0
 19 17  2  0
M  END
$$$$
