MSG.pdb
     RDKit          3D

 19 18  0  0  1  0  0  0  0  0999 V2000
   22.7911  -33.9386    3.9691 C   0  0  0  0  0  0  0  0  0  0  0  0
   23.8855  -33.4940    5.3668 S   0  0  0  0  0  0  0  0  0  0  0  0
   25.4665  -32.9537    4.6098 C   0  0  0  0  0  0  0  0  0  0  0  0
   26.0489  -34.0217    3.7493 C   0  0  0  0  0  0  0  0  0  0  0  0
   27.3776  -33.6056    3.2271 C   0  0  2  0  0  0  0  0  0  0  0  0
   27.2022  -32.4255    2.3831 N   0  0  0  0  0  0  0  0  0  0  0  0
   28.1288  -34.6243    2.4931 C   0  0  0  0  0  0  0  0  0  0  0  0
   28.6309  -35.6722    2.9663 O   0  0  0  0  0  0  0  0  0  0  0  0
   28.7826  -33.6630   -1.3108 O   0  0  0  0  0  0  0  0  0  0  0  0
   28.7900  -35.0435   -1.1747 C   0  0  0  0  0  0  0  0  0  0  0  0
   28.9758  -35.4326    0.2884 C   0  0  2  0  0  0  0  0  0  0  0  0
   28.3314  -34.4380    1.0843 N   0  0  0  0  0  0  0  0  0  0  0  0
   30.4577  -35.3676    0.5457 C   0  0  0  0  0  0  0  0  0  0  0  0
   30.9809  -34.3354    1.0042 O   0  0  0  0  0  0  0  0  0  0  0  0
   31.3105  -36.4768    0.2759 N   0  0  0  0  0  0  0  0  0  0  0  0
   32.7246  -36.4737    0.5314 C   0  0  0  0  0  0  0  0  0  0  0  0
   33.3924  -37.7019    0.0685 C   0  0  0  0  0  0  0  0  0  0  0  0
   34.7563  -37.8985    0.2150 O   0  0  0  0  0  0  0  0  0  0  0  0
   32.6949  -38.5949   -0.4757 O   0  0  0  0  0  0  0  0  0  0  0  0
  2  1  1  0
  3  2  1  0
  4  5  1  0
  4  3  1  0
  5  6  1  6
  7  8  2  0
  7  5  1  0
 10  9  1  0
 11 10  1  6
 11 12  1  0
 12  7  1  0
 13 14  2  0
 13 11  1  0
 15 13  1  0
 16 17  1  0
 16 15  1  0
 17 18  1  0
 19 17  2  0
M  END
$$$$
