MSG.pdb
     RDKit          3D

 19 18  0  0  1  0  0  0  0  0999 V2000
   14.7462  -10.0488  -20.5420 C   0  0  0  0  0  0  0  0  0  0  0  0
   15.3672   -9.5086  -18.9077 S   0  0  0  0  0  0  0  0  0  0  0  0
   16.7980  -10.5937  -18.5343 C   0  0  0  0  0  0  0  0  0  0  0  0
   17.4528  -10.2065  -17.2531 C   0  0  0  0  0  0  0  0  0  0  0  0
   18.6448  -11.0579  -16.9971 C   0  0  2  0  0  0  0  0  0  0  0  0
   18.2019  -12.4333  -16.7793 N   0  0  0  0  0  0  0  0  0  0  0  0
   19.5081  -10.6415  -15.8917 C   0  0  0  0  0  0  0  0  0  0  0  0
   19.4599  -11.0512  -14.7068 O   0  0  0  0  0  0  0  0  0  0  0  0
   22.9273   -8.5181  -16.8206 O   0  0  0  0  0  0  0  0  0  0  0  0
   22.8175   -9.2470  -15.6455 C   0  0  0  0  0  0  0  0  0  0  0  0
   21.3875   -9.1922  -15.1176 C   0  0  2  0  0  0  0  0  0  0  0  0
   20.5268   -9.6646  -16.1538 N   0  0  0  0  0  0  0  0  0  0  0  0
   21.0942   -7.7353  -14.8767 C   0  0  0  0  0  0  0  0  0  0  0  0
   20.5308   -7.0457  -15.7463 O   0  0  0  0  0  0  0  0  0  0  0  0
   21.4481   -7.0961  -13.6533 N   0  0  0  0  0  0  0  0  0  0  0  0
   21.1872   -5.7105  -13.3752 C   0  0  0  0  0  0  0  0  0  0  0  0
   21.9749   -4.7989  -14.2220 C   0  0  0  0  0  0  0  0  0  0  0  0
   22.8183   -5.2637  -15.2185 O   0  0  0  0  0  0  0  0  0  0  0  0
   21.8725   -3.5612  -14.0275 O   0  0  0  0  0  0  0  0  0  0  0  0
  2  1  1  0
  3  2  1  0
  4  5  1  0
  4  3  1  0
  5  6  1  1
  7  8  2  0
  7  5  1  0
 10  9  1  0
 11 10  1  6
 11 12  1  0
 12  7  1  0
 13 14  2  0
 13 11  1  0
 15 13  1  0
 16 17  1  0
 16 15  1  0
 17 18  1  0
 19 17  2  0
M  END
$$$$
