ILW.pdb
     RDKit          3D

 31 32  0  0  1  0  0  0  0  0999 V2000
   20.3164  -16.9187  -19.3790 C   0  0  0  0  0  0  0  0  0  0  0  0
   20.6049  -17.5142  -18.0385 C   0  0  0  0  0  0  0  0  0  0  0  0
   21.9153  -18.1655  -17.8541 C   0  0  2  0  0  0  0  0  0  0  0  0
   21.6924  -19.6551  -17.5628 C   0  0  0  0  0  0  0  0  0  0  0  0
   22.8394  -17.6137  -16.8301 C   0  0  2  0  0  0  0  0  0  0  0  0
   22.9665  -16.1547  -16.9780 N   0  0  0  0  0  0  0  0  0  0  0  0
   24.1850  -18.1960  -16.7765 C   0  0  0  0  0  0  0  0  0  0  0  0
   24.3725  -19.3941  -17.0795 O   0  0  0  0  0  0  0  0  0  0  0  0
   28.0199  -17.0505  -18.5753 C   0  0  0  0  0  0  0  0  0  0  0  0
   27.5875  -16.0508  -17.4816 C   0  0  2  0  0  0  0  0  0  0  0  0
   28.5118  -14.8909  -17.6004 C   0  0  0  0  0  0  0  0  0  0  0  0
   27.6057  -16.8004  -16.2069 C   0  0  0  0  0  0  0  0  0  0  0  0
   26.6013  -17.9109  -16.0677 C   0  0  2  0  0  0  0  0  0  0  0  0
   25.2871  -17.3925  -16.3830 N   0  0  0  0  0  0  0  0  0  0  0  0
   26.5734  -18.3705  -14.6280 C   0  0  0  0  0  0  0  0  0  0  0  0
   26.7784  -17.5665  -13.6888 O   0  0  0  0  0  0  0  0  0  0  0  0
   26.3150  -19.7231  -14.3033 N   0  0  0  0  0  0  0  0  0  0  0  0
   26.2775  -20.2242  -12.9131 C   0  0  1  0  0  0  0  0  0  0  0  0
   25.2477  -19.4973  -12.1308 C   0  0  0  0  0  0  0  0  0  0  0  0
   25.0055  -20.0422  -10.7907 C   0  0  0  0  0  0  0  0  0  0  0  0
   25.9430  -20.2272   -9.7799 C   0  0  0  0  0  0  0  0  0  0  0  0
   25.3575  -20.7785   -8.7067 N   0  0  0  0  0  0  0  0  0  0  0  0
   24.0558  -20.9703   -8.9610 C   0  0  0  0  0  0  0  0  0  0  0  0
   22.9889  -21.4764   -8.2365 C   0  0  0  0  0  0  0  0  0  0  0  0
   21.7118  -21.5430   -8.7513 C   0  0  0  0  0  0  0  0  0  0  0  0
   21.4727  -21.0911  -10.0387 C   0  0  0  0  0  0  0  0  0  0  0  0
   22.5257  -20.5875  -10.7666 C   0  0  0  0  0  0  0  0  0  0  0  0
   23.8150  -20.5146  -10.2632 C   0  0  0  0  0  0  0  0  0  0  0  0
   26.2488  -21.6861  -12.8994 C   0  0  0  0  0  0  0  0  0  0  0  0
   26.8874  -22.5136  -11.9968 O   0  0  0  0  0  0  0  0  0  0  0  0
   25.5761  -22.2885  -13.8062 O   0  0  0  0  0  0  0  0  0  0  0  0
  2  3  1  0
  2  1  1  0
  3  4  1  1
  5  3  1  0
  5  7  1  0
  5  6  1  6
  7  8  2  0
 10  9  1  6
 10 12  1  0
 11 10  1  0
 13 12  1  1
 13 15  1  0
 14 13  1  0
 14  7  1  0
 15 17  1  0
 16 15  2  0
 17 18  1  0
 18 19  1  6
 19 20  1  0
 20 21  2  0
 22 21  1  0
 23 22  1  0
 24 23  2  0
 25 24  1  0
 26 27  1  0
 26 25  2  0
 27 28  2  0
 28 23  1  0
 28 20  1  0
 29 30  1  0
 29 18  1  0
 31 29  2  0
M  END
$$$$
