ILW.pdb
     RDKit          3D

 31 32  0  0  1  0  0  0  0  0999 V2000
   29.4326  -18.3746  -16.1229 C   0  0  0  0  0  0  0  0  0  0  0  0
   28.6218  -19.5380  -16.5957 C   0  0  0  0  0  0  0  0  0  0  0  0
   27.6495  -20.1159  -15.6490 C   0  0  2  0  0  0  0  0  0  0  0  0
   26.4629  -19.1538  -15.5074 C   0  0  0  0  0  0  0  0  0  0  0  0
   28.1233  -20.4897  -14.2915 C   0  0  2  0  0  0  0  0  0  0  0  0
   29.2198  -21.4681  -14.3757 N   0  0  0  0  0  0  0  0  0  0  0  0
   27.1121  -21.0013  -13.3597 C   0  0  0  0  0  0  0  0  0  0  0  0
   26.5221  -22.0790  -13.5898 O   0  0  0  0  0  0  0  0  0  0  0  0
   26.7810  -21.6202   -8.6515 C   0  0  0  0  0  0  0  0  0  0  0  0
   27.0512  -20.1821   -9.1428 C   0  0  2  0  0  0  0  0  0  0  0  0
   27.2661  -19.3659   -7.9175 C   0  0  0  0  0  0  0  0  0  0  0  0
   25.9052  -19.8180  -10.0037 C   0  0  0  0  0  0  0  0  0  0  0  0
   25.7357  -20.6158  -11.2671 C   0  0  2  0  0  0  0  0  0  0  0  0
   26.8028  -20.2710  -12.1824 N   0  0  0  0  0  0  0  0  0  0  0  0
   24.4317  -20.2248  -11.9238 C   0  0  0  0  0  0  0  0  0  0  0  0
   24.1835  -19.0295  -12.2069 O   0  0  0  0  0  0  0  0  0  0  0  0
   23.4557  -21.2003  -12.2362 N   0  0  0  0  0  0  0  0  0  0  0  0
   22.1917  -20.8803  -12.9326 C   0  0  1  0  0  0  0  0  0  0  0  0
   22.0710  -21.6808  -14.1757 C   0  0  0  0  0  0  0  0  0  0  0  0
   21.4798  -20.9599  -15.3079 C   0  0  0  0  0  0  0  0  0  0  0  0
   21.8761  -19.7266  -15.8144 C   0  0  0  0  0  0  0  0  0  0  0  0
   21.0792  -19.3715  -16.8329 N   0  0  0  0  0  0  0  0  0  0  0  0
   20.1591  -20.3258  -17.0299 C   0  0  0  0  0  0  0  0  0  0  0  0
   19.1174  -20.5004  -17.9262 C   0  0  0  0  0  0  0  0  0  0  0  0
   18.3146  -21.6211  -17.9165 C   0  0  0  0  0  0  0  0  0  0  0  0
   18.5469  -22.6164  -16.9816 C   0  0  0  0  0  0  0  0  0  0  0  0
   19.5785  -22.4520  -16.0866 C   0  0  0  0  0  0  0  0  0  0  0  0
   20.3937  -21.3311  -16.0834 C   0  0  0  0  0  0  0  0  0  0  0  0
   21.0732  -20.8969  -11.9908 C   0  0  0  0  0  0  0  0  0  0  0  0
   19.8034  -20.4007  -12.2120 O   0  0  0  0  0  0  0  0  0  0  0  0
   21.2607  -21.4124  -10.8347 O   0  0  0  0  0  0  0  0  0  0  0  0
  2  3  1  0
  2  1  1  0
  3  4  1  1
  5  3  1  0
  5  7  1  0
  5  6  1  6
  7  8  2  0
 10  9  1  1
 10 12  1  0
 11 10  1  0
 13 12  1  1
 13 15  1  0
 14 13  1  0
 14  7  1  0
 15 17  1  0
 16 15  2  0
 17 18  1  0
 18 19  1  6
 19 20  1  0
 20 21  2  0
 22 21  1  0
 23 22  1  0
 24 23  2  0
 25 24  1  0
 26 27  1  0
 26 25  2  0
 27 28  2  0
 28 23  1  0
 28 20  1  0
 29 30  1  0
 29 18  1  0
 31 29  2  0
M  END
$$$$
