ILW.pdb
     RDKit          3D

 31 32  0  0  1  0  0  0  0  0999 V2000
   26.4460  -17.2891  -18.7303 C   0  0  0  0  0  0  0  0  0  0  0  0
   27.4035  -17.9017  -17.7594 C   0  0  0  0  0  0  0  0  0  0  0  0
   26.8408  -18.7737  -16.7113 C   0  0  2  0  0  0  0  0  0  0  0  0
   25.8421  -17.9633  -15.8750 C   0  0  0  0  0  0  0  0  0  0  0  0
   27.7791  -19.4669  -15.7915 C   0  0  2  0  0  0  0  0  0  0  0  0
   28.7695  -20.2469  -16.5514 N   0  0  0  0  0  0  0  0  0  0  0  0
   27.1799  -20.3383  -14.7746 C   0  0  0  0  0  0  0  0  0  0  0  0
   26.5820  -21.3849  -15.1056 O   0  0  0  0  0  0  0  0  0  0  0  0
   29.1108  -22.4545  -11.6285 C   0  0  0  0  0  0  0  0  0  0  0  0
   29.0123  -20.9448  -11.3226 C   0  0  2  0  0  0  0  0  0  0  0  0
   29.9271  -20.7004  -10.1749 C   0  0  0  0  0  0  0  0  0  0  0  0
   27.5765  -20.6589  -11.1137 C   0  0  0  0  0  0  0  0  0  0  0  0
   26.6898  -20.7594  -12.3242 C   0  0  2  0  0  0  0  0  0  0  0  0
   27.2832  -19.9954  -13.4010 N   0  0  0  0  0  0  0  0  0  0  0  0
   25.3521  -20.1312  -12.0068 C   0  0  0  0  0  0  0  0  0  0  0  0
   25.2571  -18.9084  -11.7496 O   0  0  0  0  0  0  0  0  0  0  0  0
   24.1706  -20.9093  -11.9918 N   0  0  0  0  0  0  0  0  0  0  0  0
   22.9049  -20.4632  -12.6115 C   0  0  1  0  0  0  0  0  0  0  0  0
   23.1552  -19.9440  -13.9785 C   0  0  0  0  0  0  0  0  0  0  0  0
   21.9652  -19.4197  -14.6569 C   0  0  0  0  0  0  0  0  0  0  0  0
   21.5228  -18.1010  -14.6724 C   0  0  0  0  0  0  0  0  0  0  0  0
   20.3809  -18.0085  -15.3695 N   0  0  0  0  0  0  0  0  0  0  0  0
   20.0396  -19.2218  -15.8251 C   0  0  0  0  0  0  0  0  0  0  0  0
   18.9972  -19.7127  -16.5941 C   0  0  0  0  0  0  0  0  0  0  0  0
   18.8979  -21.0433  -16.9407 C   0  0  0  0  0  0  0  0  0  0  0  0
   19.8689  -21.9326  -16.5109 C   0  0  0  0  0  0  0  0  0  0  0  0
   20.9077  -21.4552  -15.7461 C   0  0  0  0  0  0  0  0  0  0  0  0
   21.0210  -20.1207  -15.3889 C   0  0  0  0  0  0  0  0  0  0  0  0
   21.8677  -21.4794  -12.4395 C   0  0  0  0  0  0  0  0  0  0  0  0
   20.5367  -21.2559  -12.1468 O   0  0  0  0  0  0  0  0  0  0  0  0
   22.1973  -22.7099  -12.5618 O   0  0  0  0  0  0  0  0  0  0  0  0
  2  3  1  0
  2  1  1  0
  3  4  1  1
  5  3  1  0
  5  7  1  0
  5  6  1  6
  7  8  2  0
 10  9  1  1
 10 12  1  0
 11 10  1  0
 13 12  1  1
 13 15  1  0
 14 13  1  0
 14  7  1  0
 15 17  1  0
 16 15  2  0
 17 18  1  0
 18 19  1  6
 19 20  1  0
 20 21  2  0
 22 21  1  0
 23 22  1  0
 24 23  2  0
 25 24  1  0
 26 27  1  0
 26 25  2  0
 27 28  2  0
 28 23  1  0
 28 20  1  0
 29 30  1  0
 29 18  1  0
 31 29  2  0
M  END
$$$$
