ILW.pdb
     RDKit          3D

 31 32  0  0  1  0  0  0  0  0999 V2000
   27.8638  -18.1385  -18.2699 C   0  0  0  0  0  0  0  0  0  0  0  0
   28.4110  -18.9786  -17.1611 C   0  0  0  0  0  0  0  0  0  0  0  0
   27.4458  -19.5458  -16.2009 C   0  0  2  0  0  0  0  0  0  0  0  0
   26.6424  -18.4011  -15.5701 C   0  0  0  0  0  0  0  0  0  0  0  0
   27.9610  -20.4196  -15.1155 C   0  0  2  0  0  0  0  0  0  0  0  0
   28.7793  -21.5097  -15.6712 N   0  0  0  0  0  0  0  0  0  0  0  0
   26.9638  -21.0003  -14.2094 C   0  0  0  0  0  0  0  0  0  0  0  0
   26.1215  -21.8214  -14.6322 O   0  0  0  0  0  0  0  0  0  0  0  0
   24.1896  -20.7789   -9.5623 C   0  0  0  0  0  0  0  0  0  0  0  0
   25.6616  -21.1927   -9.3520 C   0  0  2  0  0  0  0  0  0  0  0  0
   26.0348  -20.6998   -7.9987 C   0  0  0  0  0  0  0  0  0  0  0  0
   26.4129  -20.6432  -10.5012 C   0  0  0  0  0  0  0  0  0  0  0  0
   26.0194  -21.1472  -11.8623 C   0  0  2  0  0  0  0  0  0  0  0  0
   26.9565  -20.6326  -12.8383 N   0  0  0  0  0  0  0  0  0  0  0  0
   24.6545  -20.6007  -12.2129 C   0  0  0  0  0  0  0  0  0  0  0  0
   24.4218  -19.3699  -12.1749 O   0  0  0  0  0  0  0  0  0  0  0  0
   23.6023  -21.4666  -12.5936 N   0  0  0  0  0  0  0  0  0  0  0  0
   22.2920  -20.9788  -13.0734 C   0  0  1  0  0  0  0  0  0  0  0  0
   22.3060  -20.8311  -14.5495 C   0  0  0  0  0  0  0  0  0  0  0  0
   21.0178  -20.4434  -15.1338 C   0  0  0  0  0  0  0  0  0  0  0  0
   20.4657  -19.1672  -15.1720 C   0  0  0  0  0  0  0  0  0  0  0  0
   19.2601  -19.2064  -15.7580 N   0  0  0  0  0  0  0  0  0  0  0  0
   18.9819  -20.4674  -16.1167 C   0  0  0  0  0  0  0  0  0  0  0  0
   17.9176  -21.0834  -16.7546 C   0  0  0  0  0  0  0  0  0  0  0  0
   17.8996  -22.4355  -17.0228 C   0  0  0  0  0  0  0  0  0  0  0  0
   18.9783  -23.2184  -16.6459 C   0  0  0  0  0  0  0  0  0  0  0  0
   20.0397  -22.6163  -16.0111 C   0  0  0  0  0  0  0  0  0  0  0  0
   20.0723  -21.2586  -15.7340 C   0  0  0  0  0  0  0  0  0  0  0  0
   21.2083  -21.7518  -12.4684 C   0  0  0  0  0  0  0  0  0  0  0  0
   19.9039  -21.3367  -12.2850 O   0  0  0  0  0  0  0  0  0  0  0  0
   21.4650  -22.9345  -12.0527 O   0  0  0  0  0  0  0  0  0  0  0  0
  2  3  1  0
  2  1  1  0
  3  4  1  1
  5  3  1  0
  5  7  1  0
  5  6  1  6
  7  8  2  0
 10  9  1  6
 10 12  1  0
 11 10  1  0
 13 12  1  1
 13 15  1  0
 14 13  1  0
 14  7  1  0
 15 17  1  0
 16 15  2  0
 17 18  1  0
 18 19  1  6
 19 20  1  0
 20 21  2  0
 22 21  1  0
 23 22  1  0
 24 23  2  0
 25 24  1  0
 26 27  1  0
 26 25  2  0
 27 28  2  0
 28 23  1  0
 28 20  1  0
 29 30  1  0
 29 18  1  0
 31 29  2  0
M  END
$$$$
