ILW.pdb
     RDKit          3D

 31 32  0  0  1  0  0  0  0  0999 V2000
   26.4199  -16.3342  -14.6121 C   0  0  0  0  0  0  0  0  0  0  0  0
   27.4075  -17.4129  -14.9215 C   0  0  0  0  0  0  0  0  0  0  0  0
   27.4698  -18.5603  -13.9968 C   0  0  2  0  0  0  0  0  0  0  0  0
   27.6707  -18.0365  -12.5689 C   0  0  0  0  0  0  0  0  0  0  0  0
   28.4734  -19.6239  -14.2588 C   0  0  2  0  0  0  0  0  0  0  0  0
   28.3505  -20.1251  -15.6374 N   0  0  0  0  0  0  0  0  0  0  0  0
   28.4706  -20.7706  -13.3436 C   0  0  0  0  0  0  0  0  0  0  0  0
   27.5837  -21.6477  -13.4250 O   0  0  0  0  0  0  0  0  0  0  0  0
   31.2501  -23.5879  -13.3434 C   0  0  0  0  0  0  0  0  0  0  0  0
   31.8325  -22.4260  -12.5107 C   0  0  2  0  0  0  0  0  0  0  0  0
   33.2855  -22.7137  -12.3692 C   0  0  0  0  0  0  0  0  0  0  0  0
   31.0322  -22.3669  -11.2685 C   0  0  0  0  0  0  0  0  0  0  0  0
   29.5847  -21.9888  -11.4209 C   0  0  2  0  0  0  0  0  0  0  0  0
   29.4863  -20.8911  -12.3593 N   0  0  0  0  0  0  0  0  0  0  0  0
   29.0632  -21.4956  -10.0907 C   0  0  0  0  0  0  0  0  0  0  0  0
   29.8412  -21.0412   -9.2197 O   0  0  0  0  0  0  0  0  0  0  0  0
   27.6803  -21.5347   -9.7942 N   0  0  0  0  0  0  0  0  0  0  0  0
   27.1248  -21.1195   -8.4887 C   0  0  1  0  0  0  0  0  0  0  0  0
   27.6888  -19.8091   -8.0818 C   0  0  0  0  0  0  0  0  0  0  0  0
   27.2937  -19.3675   -6.7401 C   0  0  0  0  0  0  0  0  0  0  0  0
   26.1213  -18.7075   -6.3871 C   0  0  0  0  0  0  0  0  0  0  0  0
   26.1253  -18.4365   -5.0737 N   0  0  0  0  0  0  0  0  0  0  0  0
   27.2619  -18.8930   -4.5299 C   0  0  0  0  0  0  0  0  0  0  0  0
   27.7882  -18.9075   -3.2485 C   0  0  0  0  0  0  0  0  0  0  0  0
   29.0094  -19.4774   -2.9580 C   0  0  0  0  0  0  0  0  0  0  0  0
   29.7475  -20.0601   -3.9750 C   0  0  0  0  0  0  0  0  0  0  0  0
   29.2339  -20.0502   -5.2510 C   0  0  0  0  0  0  0  0  0  0  0  0
   28.0083  -19.4807   -5.5589 C   0  0  0  0  0  0  0  0  0  0  0  0
   25.6711  -21.2765   -8.4808 C   0  0  0  0  0  0  0  0  0  0  0  0
   24.8882  -21.6398   -7.4026 O   0  0  0  0  0  0  0  0  0  0  0  0
   25.0321  -21.0677   -9.5696 O   0  0  0  0  0  0  0  0  0  0  0  0
  2  3  1  0
  2  1  1  0
  3  4  1  1
  5  3  1  0
  5  7  1  0
  5  6  1  6
  7  8  2  0
 10  9  1  6
 10 12  1  0
 11 10  1  0
 13 12  1  1
 13 15  1  0
 14 13  1  0
 14  7  1  0
 15 17  1  0
 16 15  2  0
 17 18  1  0
 18 19  1  6
 19 20  1  0
 20 21  2  0
 22 21  1  0
 23 22  1  0
 24 23  2  0
 25 24  1  0
 26 27  1  0
 26 25  2  0
 27 28  2  0
 28 23  1  0
 28 20  1  0
 29 30  1  0
 29 18  1  0
 31 29  2  0
M  END
$$$$
