ILW.pdb
     RDKit          3D

 31 32  0  0  1  0  0  0  0  0999 V2000
   20.2354  -18.6740  -14.4545 C   0  0  0  0  0  0  0  0  0  0  0  0
   21.7080  -18.5264  -14.6658 C   0  0  0  0  0  0  0  0  0  0  0  0
   22.5799  -19.5849  -14.1228 C   0  0  2  0  0  0  0  0  0  0  0  0
   22.1756  -19.8638  -12.6694 C   0  0  0  0  0  0  0  0  0  0  0  0
   24.0509  -19.3841  -14.1771 C   0  0  2  0  0  0  0  0  0  0  0  0
   24.4833  -19.0841  -15.5518 N   0  0  0  0  0  0  0  0  0  0  0  0
   24.8831  -20.4730  -13.6534 C   0  0  0  0  0  0  0  0  0  0  0  0
   24.6487  -21.6602  -13.9666 O   0  0  0  0  0  0  0  0  0  0  0  0
   28.7443  -21.3365  -14.5634 C   0  0  0  0  0  0  0  0  0  0  0  0
   28.7085  -20.1340  -13.5963 C   0  0  2  0  0  0  0  0  0  0  0  0
   30.0639  -19.5230  -13.6546 C   0  0  0  0  0  0  0  0  0  0  0  0
   28.2646  -20.6678  -12.2905 C   0  0  0  0  0  0  0  0  0  0  0  0
   26.8508  -21.1756  -12.2194 C   0  0  2  0  0  0  0  0  0  0  0  0
   25.9686  -20.1784  -12.7875 N   0  0  0  0  0  0  0  0  0  0  0  0
   26.4636  -21.3492  -10.7687 C   0  0  0  0  0  0  0  0  0  0  0  0
   27.0168  -22.2150  -10.0513 O   0  0  0  0  0  0  0  0  0  0  0  0
   25.4642  -20.5372  -10.1825 N   0  0  0  0  0  0  0  0  0  0  0  0
   24.9557  -20.7505   -8.8110 C   0  0  1  0  0  0  0  0  0  0  0  0
   25.1263  -19.5196   -8.0007 C   0  0  0  0  0  0  0  0  0  0  0  0
   26.4992  -19.2773   -7.5451 C   0  0  0  0  0  0  0  0  0  0  0  0
   27.4301  -18.4140   -8.1134 C   0  0  0  0  0  0  0  0  0  0  0  0
   28.5890  -18.4827   -7.4421 N   0  0  0  0  0  0  0  0  0  0  0  0
   28.4693  -19.3637   -6.4393 C   0  0  0  0  0  0  0  0  0  0  0  0
   29.3134  -19.8170   -5.4388 C   0  0  0  0  0  0  0  0  0  0  0  0
   28.9138  -20.7423   -4.4982 C   0  0  0  0  0  0  0  0  0  0  0  0
   27.6240  -21.2453   -4.5437 C   0  0  0  0  0  0  0  0  0  0  0  0
   26.7784  -20.8020   -5.5338 C   0  0  0  0  0  0  0  0  0  0  0  0
   27.1655  -19.8729   -6.4868 C   0  0  0  0  0  0  0  0  0  0  0  0
   23.6329  -21.3724   -8.8495 C   0  0  0  0  0  0  0  0  0  0  0  0
   22.9449  -21.9107   -7.7798 O   0  0  0  0  0  0  0  0  0  0  0  0
   23.0284  -21.4443   -9.9751 O   0  0  0  0  0  0  0  0  0  0  0  0
  2  3  1  0
  2  1  1  0
  3  4  1  1
  5  3  1  0
  5  7  1  0
  5  6  1  6
  7  8  2  0
 10  9  1  6
 10 12  1  0
 11 10  1  0
 13 12  1  1
 13 15  1  0
 14 13  1  0
 14  7  1  0
 15 17  1  0
 16 15  2  0
 17 18  1  0
 18 19  1  6
 19 20  1  0
 20 21  2  0
 22 21  1  0
 23 22  1  0
 24 23  2  0
 25 24  1  0
 26 27  1  0
 26 25  2  0
 27 28  2  0
 28 23  1  0
 28 20  1  0
 29 30  1  0
 29 18  1  0
 31 29  2  0
M  END
$$$$
