ILW.pdb
     RDKit          3D

 31 32  0  0  1  0  0  0  0  0999 V2000
   23.8259  -17.6255  -18.8459 C   0  0  0  0  0  0  0  0  0  0  0  0
   25.0177  -17.8806  -17.9803 C   0  0  0  0  0  0  0  0  0  0  0  0
   24.9041  -18.9473  -16.9680 C   0  0  2  0  0  0  0  0  0  0  0  0
   23.6423  -18.7037  -16.1300 C   0  0  0  0  0  0  0  0  0  0  0  0
   26.0493  -19.1724  -16.0488 C   0  0  2  0  0  0  0  0  0  0  0  0
   27.3094  -19.2686  -16.8036 N   0  0  0  0  0  0  0  0  0  0  0  0
   25.9543  -20.3285  -15.1505 C   0  0  0  0  0  0  0  0  0  0  0  0
   25.9311  -21.4909  -15.6095 O   0  0  0  0  0  0  0  0  0  0  0  0
   28.7038  -20.7793  -10.3761 C   0  0  0  0  0  0  0  0  0  0  0  0
   28.0673  -21.0948  -11.7464 C   0  0  2  0  0  0  0  0  0  0  0  0
   28.7741  -20.2337  -12.7327 C   0  0  0  0  0  0  0  0  0  0  0  0
   26.6129  -20.8818  -11.5846 C   0  0  0  0  0  0  0  0  0  0  0  0
   25.7525  -21.1949  -12.7776 C   0  0  2  0  0  0  0  0  0  0  0  0
   25.8937  -20.1287  -13.7464 N   0  0  0  0  0  0  0  0  0  0  0  0
   24.3046  -21.2250  -12.3448 C   0  0  0  0  0  0  0  0  0  0  0  0
   23.8798  -22.1139  -11.5704 O   0  0  0  0  0  0  0  0  0  0  0  0
   23.3899  -20.2483  -12.8043 N   0  0  0  0  0  0  0  0  0  0  0  0
   21.9730  -20.2116  -12.3843 C   0  0  1  0  0  0  0  0  0  0  0  0
   21.4282  -18.8393  -12.5278 C   0  0  0  0  0  0  0  0  0  0  0  0
   20.5411  -18.6550  -13.6813 C   0  0  0  0  0  0  0  0  0  0  0  0
   19.2172  -19.0667  -13.7938 C   0  0  0  0  0  0  0  0  0  0  0  0
   18.7406  -18.7522  -15.0071 N   0  0  0  0  0  0  0  0  0  0  0  0
   19.7000  -18.1411  -15.7159 C   0  0  0  0  0  0  0  0  0  0  0  0
   19.7706  -17.5974  -16.9881 C   0  0  0  0  0  0  0  0  0  0  0  0
   20.9122  -16.9943  -17.4713 C   0  0  0  0  0  0  0  0  0  0  0  0
   22.0368  -16.9226  -16.6659 C   0  0  0  0  0  0  0  0  0  0  0  0
   21.9771  -17.4603  -15.4012 C   0  0  0  0  0  0  0  0  0  0  0  0
   20.8372  -18.0703  -14.9016 C   0  0  0  0  0  0  0  0  0  0  0  0
   21.2323  -21.3146  -12.9950 C   0  0  0  0  0  0  0  0  0  0  0  0
   21.6255  -22.0670  -14.0843 O   0  0  0  0  0  0  0  0  0  0  0  0
   20.0991  -21.6354  -12.4944 O   0  0  0  0  0  0  0  0  0  0  0  0
  2  3  1  0
  2  1  1  0
  3  4  1  1
  5  3  1  0
  5  7  1  0
  5  6  1  6
  7  8  2  0
 10  9  1  1
 10 12  1  0
 11 10  1  0
 13 12  1  1
 13 15  1  0
 14 13  1  0
 14  7  1  0
 15 17  1  0
 16 15  2  0
 17 18  1  0
 18 19  1  6
 19 20  1  0
 20 21  2  0
 22 21  1  0
 23 22  1  0
 24 23  2  0
 25 24  1  0
 26 27  1  0
 26 25  2  0
 27 28  2  0
 28 23  1  0
 28 20  1  0
 29 30  1  0
 29 18  1  0
 31 29  2  0
M  END
$$$$
