ILW.pdb
     RDKit          3D

 31 32  0  0  1  0  0  0  0  0999 V2000
   20.0398  -19.2418  -12.1061 C   0  0  0  0  0  0  0  0  0  0  0  0
   21.1818  -19.0246  -13.0460 C   0  0  0  0  0  0  0  0  0  0  0  0
   22.3556  -19.9059  -12.9012 C   0  0  2  0  0  0  0  0  0  0  0  0
   22.8255  -19.8707  -11.4412 C   0  0  0  0  0  0  0  0  0  0  0  0
   23.5274  -19.6708  -13.7837 C   0  0  2  0  0  0  0  0  0  0  0  0
   23.1226  -19.6861  -15.1989 N   0  0  0  0  0  0  0  0  0  0  0  0
   24.6696  -20.5761  -13.6154 C   0  0  0  0  0  0  0  0  0  0  0  0
   24.5410  -21.8050  -13.8052 O   0  0  0  0  0  0  0  0  0  0  0  0
   27.5174  -20.7254  -16.0064 C   0  0  0  0  0  0  0  0  0  0  0  0
   27.9531  -19.5934  -15.0519 C   0  0  2  0  0  0  0  0  0  0  0  0
   29.0609  -18.8803  -15.7433 C   0  0  0  0  0  0  0  0  0  0  0  0
   28.2697  -20.2413  -13.7608 C   0  0  0  0  0  0  0  0  0  0  0  0
   27.1165  -20.8616  -13.0213 C   0  0  2  0  0  0  0  0  0  0  0  0
   25.9350  -20.0543  -13.2394 N   0  0  0  0  0  0  0  0  0  0  0  0
   27.4137  -20.8384  -11.5394 C   0  0  0  0  0  0  0  0  0  0  0  0
   28.5782  -20.6499  -11.1167 O   0  0  0  0  0  0  0  0  0  0  0  0
   26.3825  -21.0297  -10.5898 N   0  0  0  0  0  0  0  0  0  0  0  0
   26.6061  -20.9472   -9.1310 C   0  0  1  0  0  0  0  0  0  0  0  0
   27.3310  -19.6984   -8.7904 C   0  0  0  0  0  0  0  0  0  0  0  0
   27.4670  -19.4476   -7.3517 C   0  0  0  0  0  0  0  0  0  0  0  0
   26.7180  -18.5645   -6.5811 C   0  0  0  0  0  0  0  0  0  0  0  0
   27.1508  -18.5826   -5.3119 N   0  0  0  0  0  0  0  0  0  0  0  0
   28.1666  -19.4497   -5.2018 C   0  0  0  0  0  0  0  0  0  0  0  0
   28.9683  -19.8791   -4.1567 C   0  0  0  0  0  0  0  0  0  0  0  0
   29.9574  -20.8245   -4.3248 C   0  0  0  0  0  0  0  0  0  0  0  0
   30.1681  -21.3733   -5.5790 C   0  0  0  0  0  0  0  0  0  0  0  0
   29.3779  -20.9530   -6.6235 C   0  0  0  0  0  0  0  0  0  0  0  0
   28.3801  -20.0030   -6.4706 C   0  0  0  0  0  0  0  0  0  0  0  0
   25.3703  -21.2455   -8.4086 C   0  0  0  0  0  0  0  0  0  0  0  0
   25.2670  -21.7513   -7.1277 O   0  0  0  0  0  0  0  0  0  0  0  0
   24.2553  -21.0313   -8.9991 O   0  0  0  0  0  0  0  0  0  0  0  0
  2  3  1  0
  2  1  1  0
  3  4  1  1
  5  3  1  0
  5  7  1  0
  5  6  1  6
  7  8  2  0
 10  9  1  6
 10 12  1  0
 11 10  1  0
 13 12  1  6
 13 15  1  0
 14 13  1  0
 14  7  1  0
 15 17  1  0
 16 15  2  0
 17 18  1  0
 18 19  1  6
 19 20  1  0
 20 21  2  0
 22 21  1  0
 23 22  1  0
 24 23  2  0
 25 24  1  0
 26 27  1  0
 26 25  2  0
 27 28  2  0
 28 23  1  0
 28 20  1  0
 29 30  1  0
 29 18  1  0
 31 29  2  0
M  END
$$$$
