ILW.pdb
     RDKit          3D

 31 32  0  0  1  0  0  0  0  0999 V2000
   22.1684  -16.1756  -16.8830 C   0  0  0  0  0  0  0  0  0  0  0  0
   22.6577  -16.6601  -15.5562 C   0  0  0  0  0  0  0  0  0  0  0  0
   23.4869  -17.8798  -15.5438 C   0  0  2  0  0  0  0  0  0  0  0  0
   22.7526  -18.9868  -16.3112 C   0  0  0  0  0  0  0  0  0  0  0  0
   23.9257  -18.4213  -14.2318 C   0  0  2  0  0  0  0  0  0  0  0  0
   24.6840  -17.4083  -13.4797 N   0  0  0  0  0  0  0  0  0  0  0  0
   24.7072  -19.6626  -14.2608 C   0  0  0  0  0  0  0  0  0  0  0  0
   24.2654  -20.6794  -14.8381 O   0  0  0  0  0  0  0  0  0  0  0  0
   27.8043  -18.7763  -15.3773 C   0  0  0  0  0  0  0  0  0  0  0  0
   28.5028  -19.0904  -14.0372 C   0  0  2  0  0  0  0  0  0  0  0  0
   29.9241  -18.6873  -14.2135 C   0  0  0  0  0  0  0  0  0  0  0  0
   28.2359  -20.5178  -13.7574 C   0  0  0  0  0  0  0  0  0  0  0  0
   26.7979  -20.9014  -13.5422 C   0  0  2  0  0  0  0  0  0  0  0  0
   25.9795  -19.7109  -13.6332 N   0  0  0  0  0  0  0  0  0  0  0  0
   26.6406  -21.4533  -12.1438 C   0  0  0  0  0  0  0  0  0  0  0  0
   27.1704  -22.5402  -11.8146 O   0  0  0  0  0  0  0  0  0  0  0  0
   25.8893  -20.7556  -11.1689 N   0  0  0  0  0  0  0  0  0  0  0  0
   25.2576  -21.4220  -10.0105 C   0  0  1  0  0  0  0  0  0  0  0  0
   26.2624  -21.6707   -8.9478 C   0  0  0  0  0  0  0  0  0  0  0  0
   26.5922  -20.4946   -8.1358 C   0  0  0  0  0  0  0  0  0  0  0  0
   26.2248  -19.1761   -8.3836 C   0  0  0  0  0  0  0  0  0  0  0  0
   26.7370  -18.3723   -7.4403 N   0  0  0  0  0  0  0  0  0  0  0  0
   27.4370  -19.1061   -6.5642 C   0  0  0  0  0  0  0  0  0  0  0  0
   28.1506  -18.8227   -5.4112 C   0  0  0  0  0  0  0  0  0  0  0  0
   28.7772  -19.8024   -4.6708 C   0  0  0  0  0  0  0  0  0  0  0  0
   28.6984  -21.1222   -5.0835 C   0  0  0  0  0  0  0  0  0  0  0  0
   27.9927  -21.4139   -6.2276 C   0  0  0  0  0  0  0  0  0  0  0  0
   27.3580  -20.4403   -6.9829 C   0  0  0  0  0  0  0  0  0  0  0  0
   24.0196  -20.7368   -9.6416 C   0  0  0  0  0  0  0  0  0  0  0  0
   23.2447  -20.9813   -8.5249 O   0  0  0  0  0  0  0  0  0  0  0  0
   23.5821  -19.8158  -10.4148 O   0  0  0  0  0  0  0  0  0  0  0  0
  2  3  1  0
  2  1  1  0
  3  4  1  1
  5  3  1  0
  5  7  1  0
  5  6  1  6
  7  8  2  0
 10  9  1  6
 10 12  1  0
 11 10  1  0
 13 12  1  1
 13 15  1  0
 14 13  1  0
 14  7  1  0
 15 17  1  0
 16 15  2  0
 17 18  1  0
 18 19  1  1
 19 20  1  0
 20 21  2  0
 22 21  1  0
 23 22  1  0
 24 23  2  0
 25 24  1  0
 26 27  1  0
 26 25  2  0
 27 28  2  0
 28 23  1  0
 28 20  1  0
 29 30  1  0
 29 18  1  0
 31 29  2  0
M  END
$$$$
