ILW.pdb
     RDKit          3D

 31 32  0  0  1  0  0  0  0  0999 V2000
   25.1243  -32.6892  -19.4180 C   0  0  0  0  0  0  0  0  0  0  0  0
   25.5243  -34.0478  -18.9395 C   0  0  0  0  0  0  0  0  0  0  0  0
   24.9178  -34.5301  -17.6846 C   0  0  2  0  0  0  0  0  0  0  0  0
   25.3537  -33.6097  -16.5371 C   0  0  0  0  0  0  0  0  0  0  0  0
   25.1580  -35.9395  -17.2810 C   0  0  2  0  0  0  0  0  0  0  0  0
   24.6464  -36.8665  -18.3037 N   0  0  0  0  0  0  0  0  0  0  0  0
   24.6301  -36.3487  -15.9747 C   0  0  0  0  0  0  0  0  0  0  0  0
   23.4336  -36.6884  -15.8499 O   0  0  0  0  0  0  0  0  0  0  0  0
   22.7840  -38.5750  -12.9164 C   0  0  0  0  0  0  0  0  0  0  0  0
   23.8990  -39.0091  -13.8914 C   0  0  2  0  0  0  0  0  0  0  0  0
   23.9277  -40.4959  -13.8426 C   0  0  0  0  0  0  0  0  0  0  0  0
   25.1219  -38.2962  -13.4634 C   0  0  0  0  0  0  0  0  0  0  0  0
   25.0770  -36.7941  -13.5204 C   0  0  2  0  0  0  0  0  0  0  0  0
   25.4848  -36.3656  -14.8415 N   0  0  0  0  0  0  0  0  0  0  0  0
   26.0767  -36.2350  -12.5342 C   0  0  0  0  0  0  0  0  0  0  0  0
   27.2894  -36.5445  -12.5974 O   0  0  0  0  0  0  0  0  0  0  0  0
   25.6680  -35.3461  -11.5121 N   0  0  0  0  0  0  0  0  0  0  0  0
   26.5966  -34.8046  -10.4973 C   0  0  1  0  0  0  0  0  0  0  0  0
   26.1441  -33.4656  -10.0469 C   0  0  0  0  0  0  0  0  0  0  0  0
   26.7590  -33.0046   -8.7977 C   0  0  0  0  0  0  0  0  0  0  0  0
   27.9824  -32.3582   -8.6551 C   0  0  0  0  0  0  0  0  0  0  0  0
   28.2268  -32.1200   -7.3583 N   0  0  0  0  0  0  0  0  0  0  0  0
   27.2076  -32.5840   -6.6221 C   0  0  0  0  0  0  0  0  0  0  0  0
   26.9164  -32.6011   -5.2678 C   0  0  0  0  0  0  0  0  0  0  0  0
   25.7509  -33.1432   -4.7697 C   0  0  0  0  0  0  0  0  0  0  0  0
   24.8288  -33.6943   -5.6441 C   0  0  0  0  0  0  0  0  0  0  0  0
   25.1090  -33.6830   -6.9907 C   0  0  0  0  0  0  0  0  0  0  0  0
   26.2764  -33.1424   -7.5066 C   0  0  0  0  0  0  0  0  0  0  0  0
   26.8827  -35.8140   -9.4788 C   0  0  0  0  0  0  0  0  0  0  0  0
   25.9966  -36.7418   -8.9675 O   0  0  0  0  0  0  0  0  0  0  0  0
   28.0638  -35.8643   -8.9890 O   0  0  0  0  0  0  0  0  0  0  0  0
  2  3  1  0
  2  1  1  0
  3  4  1  1
  5  3  1  0
  5  7  1  0
  5  6  1  6
  7  8  2  0
 10  9  1  1
 10 12  1  0
 11 10  1  0
 13 12  1  6
 13 15  1  0
 14 13  1  0
 14  7  1  0
 15 17  1  0
 16 15  2  0
 17 18  1  0
 18 19  1  1
 19 20  1  0
 20 21  2  0
 22 21  1  0
 23 22  1  0
 24 23  2  0
 25 24  1  0
 26 27  1  0
 26 25  2  0
 27 28  2  0
 28 23  1  0
 28 20  1  0
 29 30  1  0
 29 18  1  0
 31 29  2  0
M  END
$$$$
