ILW.pdb
     RDKit          3D

 31 32  0  0  1  0  0  0  0  0999 V2000
   21.0960  -17.3024  -17.2446 C   0  0  0  0  0  0  0  0  0  0  0  0
   21.6246  -17.6152  -15.8817 C   0  0  0  0  0  0  0  0  0  0  0  0
   22.7919  -18.5129  -15.7972 C   0  0  2  0  0  0  0  0  0  0  0  0
   22.4480  -19.8402  -16.4855 C   0  0  0  0  0  0  0  0  0  0  0  0
   23.3609  -18.8059  -14.4565 C   0  0  2  0  0  0  0  0  0  0  0  0
   23.7881  -17.5642  -13.7914 N   0  0  0  0  0  0  0  0  0  0  0  0
   24.4692  -19.7661  -14.4079 C   0  0  0  0  0  0  0  0  0  0  0  0
   24.3203  -20.9319  -14.8337 O   0  0  0  0  0  0  0  0  0  0  0  0
   27.6119  -19.4551  -16.6163 C   0  0  0  0  0  0  0  0  0  0  0  0
   27.9153  -18.5388  -15.4118 C   0  0  2  0  0  0  0  0  0  0  0  0
   29.0811  -17.7070  -15.8152 C   0  0  0  0  0  0  0  0  0  0  0  0
   28.0950  -19.4332  -14.2479 C   0  0  0  0  0  0  0  0  0  0  0  0
   26.8907  -20.2249  -13.8184 C   0  0  2  0  0  0  0  0  0  0  0  0
   25.7249  -19.3690  -13.8784 N   0  0  0  0  0  0  0  0  0  0  0  0
   27.0687  -20.6476  -12.3782 C   0  0  0  0  0  0  0  0  0  0  0  0
   27.9622  -21.4624  -12.0494 O   0  0  0  0  0  0  0  0  0  0  0  0
   26.2290  -20.1331  -11.3623 N   0  0  0  0  0  0  0  0  0  0  0  0
   26.2196  -20.6611   -9.9816 C   0  0  1  0  0  0  0  0  0  0  0  0
   26.9371  -19.7355   -9.0709 C   0  0  0  0  0  0  0  0  0  0  0  0
   26.8796  -20.1107   -7.6541 C   0  0  0  0  0  0  0  0  0  0  0  0
   25.8726  -20.8293   -7.0183 C   0  0  0  0  0  0  0  0  0  0  0  0
   26.1506  -20.9508   -5.7120 N   0  0  0  0  0  0  0  0  0  0  0  0
   27.3126  -20.3380   -5.4468 C   0  0  0  0  0  0  0  0  0  0  0  0
   28.0787  -20.1600   -4.3063 C   0  0  0  0  0  0  0  0  0  0  0  0
   29.2796  -19.4832   -4.3215 C   0  0  0  0  0  0  0  0  0  0  0  0
   29.7491  -18.9569   -5.5136 C   0  0  0  0  0  0  0  0  0  0  0  0
   28.9954  -19.1277   -6.6515 C   0  0  0  0  0  0  0  0  0  0  0  0
   27.7860  -19.8049   -6.6523 C   0  0  0  0  0  0  0  0  0  0  0  0
   24.8716  -21.0876   -9.6087 C   0  0  0  0  0  0  0  0  0  0  0  0
   23.6863  -20.6530  -10.1685 O   0  0  0  0  0  0  0  0  0  0  0  0
   24.7450  -21.9461   -8.6682 O   0  0  0  0  0  0  0  0  0  0  0  0
  2  3  1  0
  2  1  1  0
  3  4  1  1
  5  3  1  0
  5  7  1  0
  5  6  1  6
  7  8  2  0
 10  9  1  6
 10 12  1  0
 11 10  1  0
 13 12  1  1
 13 15  1  0
 14 13  1  0
 14  7  1  0
 15 17  1  0
 16 15  2  0
 17 18  1  0
 18 19  1  1
 19 20  1  0
 20 21  2  0
 22 21  1  0
 23 22  1  0
 24 23  2  0
 25 24  1  0
 26 27  1  0
 26 25  2  0
 27 28  2  0
 28 23  1  0
 28 20  1  0
 29 30  1  0
 29 18  1  0
 31 29  2  0
M  END
$$$$
