RIP.pdb
     RDKit          3D

 27 27  0  0  1  0  0  0  0  0999 V2000
   20.9994  -23.5287  -16.1392 N   0  0  0  0  0  0  0  0  0  0  0  0
   22.0681  -24.3417  -16.6415 C   0  0  0  0  0  0  0  0  0  0  0  0
   22.1351  -24.6123  -17.8874 N   0  0  0  0  0  0  0  0  0  0  0  0
   23.0653  -24.8576  -15.7671 N   0  0  0  0  0  0  0  0  0  0  0  0
   24.1164  -25.7156  -16.2502 C   0  0  0  0  0  0  0  0  0  0  0  0
   25.3937  -24.9319  -16.4225 C   0  0  0  0  0  0  0  0  0  0  0  0
   25.2050  -23.7795  -17.3750 C   0  0  0  0  0  0  0  0  0  0  0  0
   26.4860  -22.9598  -17.4967 C   0  0  2  0  0  0  0  0  0  0  0  0
   27.6326  -23.7903  -17.7015 N   0  0  0  0  0  0  0  0  0  0  0  0
   26.6780  -22.1009  -16.3052 C   0  0  0  0  0  0  0  0  0  0  0  0
   27.5365  -22.4365  -15.4496 O   0  0  0  0  0  0  0  0  0  0  0  0
   22.8614  -25.2414  -18.2555 C   0  0  0  0  0  0  0  0  0  0  0  0
   28.2441  -18.4632  -16.0286 C   0  0  0  0  0  0  0  0  0  0  0  0
   26.7810  -18.1014  -16.3464 C   0  0  1  0  0  0  0  0  0  0  0  0
   25.9167  -18.6154  -15.2334 C   0  0  0  0  0  0  0  0  0  0  0  0
   26.1391  -17.7849  -14.0131 C   0  0  2  0  0  0  0  0  0  0  0  0
   26.1428  -20.0834  -14.8985 N   0  0  0  0  0  0  0  0  0  0  0  0
   25.9414  -20.9000  -16.0612 C   0  0  0  0  0  0  0  0  0  0  0  0
   25.4543  -20.5294  -13.6844 O   0  0  0  0  0  0  0  0  0  0  0  0
   24.1743  -20.6044  -13.7753 N   0  0  0  0  0  0  0  0  0  0  0  0
   26.0215  -20.8792  -12.4428 C   0  0  0  0  0  0  0  0  0  0  0  0
   27.4296  -21.0262  -12.2019 C   0  0  0  0  0  0  0  0  0  0  0  0
   27.5817  -21.4902  -10.7416 C   0  0  0  0  0  0  0  0  0  0  0  0
   26.2908  -21.0420  -10.1235 C   0  0  2  0  0  0  0  0  0  0  0  0
   25.3016  -21.2106  -11.2512 C   0  0  0  0  0  0  0  0  0  0  0  0
   24.1151  -20.3342  -11.0041 O   0  0  0  0  0  0  0  0  0  0  0  0
   24.0470  -19.2449  -11.6068 O   0  0  0  0  0  0  0  0  0  0  0  0
  2  1  1  0
  3  2  2  0
  4  2  1  0
  5  4  1  0
  6  5  1  0
  6  7  1  0
  8 10  1  0
  8  9  1  1
  8  7  1  0
 10 11  2  0
 13 12  1  0
 14 13  1  0
 14 15  1  6
 16 17  1  1
 16 14  1  0
 17 10  1  0
 18 16  1  0
 19 18  2  0
 20 18  1  0
 20 24  1  0
 21 22  1  0
 21 20  1  0
 22 23  1  0
 23 24  1  0
 25 27  1  0
 24 25  1  6
 26 25  2  0
M  END
$$$$
