RIP.pdb
     RDKit          3D

 27 27  0  0  1  0  0  0  0  0999 V2000
   28.8046  -28.1589  -16.4970 N   0  0  0  0  0  0  0  0  0  0  0  0
   27.7914  -28.8634  -17.2267 C   0  0  0  0  0  0  0  0  0  0  0  0
   27.7347  -30.1378  -17.1748 N   0  0  0  0  0  0  0  0  0  0  0  0
   26.8385  -28.1602  -18.0160 N   0  0  0  0  0  0  0  0  0  0  0  0
   26.8598  -26.7236  -18.1154 C   0  0  0  0  0  0  0  0  0  0  0  0
   26.2496  -26.1049  -16.8823 C   0  0  0  0  0  0  0  0  0  0  0  0
   26.0188  -24.6274  -17.0677 C   0  0  0  0  0  0  0  0  0  0  0  0
   27.3130  -23.8455  -16.8643 C   0  0  2  0  0  0  0  0  0  0  0  0
   28.4195  -24.7090  -16.5878 N   0  0  0  0  0  0  0  0  0  0  0  0
   27.1596  -22.8428  -15.7848 C   0  0  0  0  0  0  0  0  0  0  0  0
   27.4168  -23.1835  -14.6018 O   0  0  0  0  0  0  0  0  0  0  0  0
   27.0605  -30.6628  -17.7480 C   0  0  0  0  0  0  0  0  0  0  0  0
   28.0761  -17.4914  -16.7443 C   0  0  0  0  0  0  0  0  0  0  0  0
   28.0758  -18.9119  -16.1487 C   0  0  2  0  0  0  0  0  0  0  0  0
   26.7658  -19.1294  -15.4512 C   0  0  0  0  0  0  0  0  0  0  0  0
   26.6457  -18.1665  -14.3169 C   0  0  2  0  0  0  0  0  0  0  0  0
   26.5633  -20.5486  -14.9382 N   0  0  0  0  0  0  0  0  0  0  0  0
   26.7325  -21.4958  -16.0029 C   0  0  0  0  0  0  0  0  0  0  0  0
   25.3574  -20.7203  -14.1236 O   0  0  0  0  0  0  0  0  0  0  0  0
   24.2464  -20.6509  -14.7662 N   0  0  0  0  0  0  0  0  0  0  0  0
   25.2719  -20.9468  -12.7355 C   0  0  0  0  0  0  0  0  0  0  0  0
   26.4022  -21.0883  -11.8610 C   0  0  0  0  0  0  0  0  0  0  0  0
   25.8414  -21.3997  -10.4613 C   0  0  0  0  0  0  0  0  0  0  0  0
   24.4407  -20.8708  -10.5488 C   0  0  2  0  0  0  0  0  0  0  0  0
   24.0682  -21.1417  -11.9864 C   0  0  0  0  0  0  0  0  0  0  0  0
   22.9557  -20.2274  -12.3904 O   0  0  0  0  0  0  0  0  0  0  0  0
   23.2245  -19.2538  -13.1213 O   0  0  0  0  0  0  0  0  0  0  0  0
  2  1  1  0
  3  2  2  0
  4  2  1  0
  5  4  1  0
  6  5  1  0
  6  7  1  0
  8 10  1  0
  8  9  1  1
  8  7  1  0
 10 11  2  0
 13 12  1  0
 14 13  1  0
 14 15  1  6
 16 17  1  1
 16 14  1  0
 17 10  1  0
 18 16  1  0
 19 18  2  0
 20 18  1  0
 20 24  1  0
 21 22  1  0
 21 20  1  0
 22 23  1  0
 23 24  1  0
 25 27  1  0
 24 25  1  1
 26 25  2  0
M  END
$$$$
