RIP.pdb
     RDKit          3D

 27 27  0  0  1  0  0  0  0  0999 V2000
   19.4651  -22.4009   -9.8222 N   0  0  0  0  0  0  0  0  0  0  0  0
   18.6587  -22.6618  -10.9785 C   0  0  0  0  0  0  0  0  0  0  0  0
   17.7696  -23.5774  -10.9454 N   0  0  0  0  0  0  0  0  0  0  0  0
   18.8340  -21.9109  -12.1747 N   0  0  0  0  0  0  0  0  0  0  0  0
   19.8489  -20.8945  -12.2812 C   0  0  0  0  0  0  0  0  0  0  0  0
   21.0463  -21.2609  -11.4403 C   0  0  0  0  0  0  0  0  0  0  0  0
   22.1872  -20.3023  -11.6644 C   0  0  0  0  0  0  0  0  0  0  0  0
   23.4313  -20.7508  -10.9037 C   0  0  2  0  0  0  0  0  0  0  0  0
   23.3929  -20.3446   -9.5326 N   0  0  0  0  0  0  0  0  0  0  0  0
   24.6604  -20.2442  -11.5570 C   0  0  0  0  0  0  0  0  0  0  0  0
   25.0347  -19.0687  -11.3127 O   0  0  0  0  0  0  0  0  0  0  0  0
   17.1233  -23.7182  -11.7335 C   0  0  0  0  0  0  0  0  0  0  0  0
   28.8342  -20.5281  -10.7118 C   0  0  0  0  0  0  0  0  0  0  0  0
   28.0683  -21.7364  -11.2826 C   0  0  1  0  0  0  0  0  0  0  0  0
   27.8248  -21.4923  -12.7424 C   0  0  0  0  0  0  0  0  0  0  0  0
   29.0785  -20.9836  -13.3728 C   0  0  2  0  0  0  0  0  0  0  0  0
   26.6826  -20.5270  -13.0288 N   0  0  0  0  0  0  0  0  0  0  0  0
   25.4591  -21.0143  -12.4589 C   0  0  0  0  0  0  0  0  0  0  0  0
   26.6029  -20.0982  -14.4277 O   0  0  0  0  0  0  0  0  0  0  0  0
   26.4286  -21.0424  -15.2823 N   0  0  0  0  0  0  0  0  0  0  0  0
   26.6963  -18.7895  -14.9417 C   0  0  0  0  0  0  0  0  0  0  0  0
   26.7906  -17.6026  -14.1387 C   0  0  0  0  0  0  0  0  0  0  0  0
   26.7904  -16.4096  -15.1121 C   0  0  0  0  0  0  0  0  0  0  0  0
   27.2447  -17.0390  -16.3954 C   0  0  2  0  0  0  0  0  0  0  0  0
   26.6426  -18.4214  -16.3236 C   0  0  0  0  0  0  0  0  0  0  0  0
   27.4083  -19.3421  -17.2196 O   0  0  0  0  0  0  0  0  0  0  0  0
   28.3070  -20.0457  -16.7180 O   0  0  0  0  0  0  0  0  0  0  0  0
  2  1  1  0
  3  2  2  0
  4  2  1  0
  5  4  1  0
  6  5  1  0
  6  7  1  0
  8 10  1  0
  8  9  1  1
  8  7  1  0
 10 11  2  0
 13 12  1  0
 14 13  1  0
 14 15  1  1
 16 17  1  1
 16 14  1  0
 17 10  1  0
 18 16  1  0
 19 18  2  0
 20 18  1  0
 20 24  1  0
 21 22  1  0
 21 20  1  0
 22 23  1  0
 23 24  1  0
 25 27  1  0
 24 25  1  1
 26 25  2  0
M  END
$$$$
