RIP.pdb
     RDKit          3D

 27 27  0  0  1  0  0  0  0  0999 V2000
   30.4666  -26.2742  -16.9058 N   0  0  0  0  0  0  0  0  0  0  0  0
   29.1514  -26.8401  -16.8313 C   0  0  0  0  0  0  0  0  0  0  0  0
   29.0004  -28.0695  -16.5223 N   0  0  0  0  0  0  0  0  0  0  0  0
   28.0000  -26.0475  -17.0986 N   0  0  0  0  0  0  0  0  0  0  0  0
   28.1145  -24.6750  -17.5198 C   0  0  0  0  0  0  0  0  0  0  0  0
   28.9971  -23.9075  -16.5672 C   0  0  0  0  0  0  0  0  0  0  0  0
   28.1849  -23.0078  -15.6720 C   0  0  0  0  0  0  0  0  0  0  0  0
   27.5352  -21.8851  -16.4751 C   0  0  2  0  0  0  0  0  0  0  0  0
   28.5074  -21.0784  -17.1463 N   0  0  0  0  0  0  0  0  0  0  0  0
   26.6778  -21.0441  -15.6080 C   0  0  0  0  0  0  0  0  0  0  0  0
   27.2170  -20.1444  -14.9142 O   0  0  0  0  0  0  0  0  0  0  0  0
   28.0766  -28.5199  -16.5734 C   0  0  0  0  0  0  0  0  0  0  0  0
   23.9023  -19.3563  -17.8437 C   0  0  0  0  0  0  0  0  0  0  0  0
   23.8839  -18.6816  -16.4591 C   0  0  2  0  0  0  0  0  0  0  0  0
   23.3626  -19.6716  -15.4601 C   0  0  0  0  0  0  0  0  0  0  0  0
   22.4157  -18.9844  -14.5332 C   0  0  2  0  0  0  0  0  0  0  0  0
   24.4485  -20.3702  -14.6531 N   0  0  0  0  0  0  0  0  0  0  0  0
   25.2591  -21.1905  -15.5072 C   0  0  0  0  0  0  0  0  0  0  0  0
   23.9595  -21.0167  -13.4324 O   0  0  0  0  0  0  0  0  0  0  0  0
   23.0088  -21.8647  -13.6034 N   0  0  0  0  0  0  0  0  0  0  0  0
   24.4004  -20.8196  -12.1087 C   0  0  0  0  0  0  0  0  0  0  0  0
   25.6322  -20.1761  -11.7466 C   0  0  0  0  0  0  0  0  0  0  0  0
   25.7373  -20.2551  -10.2124 C   0  0  0  0  0  0  0  0  0  0  0  0
   24.3084  -20.4478   -9.7997 C   0  0  2  0  0  0  0  0  0  0  0  0
   23.7429  -21.2810  -10.9243 C   0  0  0  0  0  0  0  0  0  0  0  0
   22.2566  -21.1189  -10.9616 O   0  0  0  0  0  0  0  0  0  0  0  0
   21.7678  -20.3221  -11.7865 O   0  0  0  0  0  0  0  0  0  0  0  0
  2  1  1  0
  3  2  2  0
  4  2  1  0
  5  4  1  0
  6  5  1  0
  6  7  1  0
  8 10  1  0
  8  9  1  1
  8  7  1  0
 10 11  2  0
 13 12  1  0
 14 13  1  0
 14 15  1  1
 16 17  1  1
 16 14  1  0
 17 10  1  0
 18 16  1  0
 19 18  2  0
 20 18  1  0
 20 24  1  0
 21 22  1  0
 21 20  1  0
 22 23  1  0
 23 24  1  0
 25 27  1  0
 24 25  1  6
 26 25  2  0
M  END
$$$$
