RIP.pdb
     RDKit          3D

 27 27  0  0  1  0  0  0  0  0999 V2000
   17.8130  -23.0101  -13.1390 N   0  0  0  0  0  0  0  0  0  0  0  0
   18.3063  -24.2325  -13.7027 C   0  0  0  0  0  0  0  0  0  0  0  0
   17.4919  -25.0882  -14.1870 N   0  0  0  0  0  0  0  0  0  0  0  0
   19.7015  -24.5117  -13.7321 N   0  0  0  0  0  0  0  0  0  0  0  0
   20.6773  -23.4547  -13.8016 C   0  0  0  0  0  0  0  0  0  0  0  0
   20.4822  -22.6446  -15.0590 C   0  0  0  0  0  0  0  0  0  0  0  0
   21.1511  -21.2985  -14.9529 C   0  0  0  0  0  0  0  0  0  0  0  0
   21.3557  -20.9071  -13.4925 C   0  0  2  0  0  0  0  0  0  0  0  0
   20.3646  -19.9771  -13.0461 N   0  0  0  0  0  0  0  0  0  0  0  0
   22.7136  -20.3548  -13.2796 C   0  0  0  0  0  0  0  0  0  0  0  0
   22.9464  -19.1697  -13.6303 O   0  0  0  0  0  0  0  0  0  0  0  0
   17.8310  -25.9607  -14.6144 C   0  0  0  0  0  0  0  0  0  0  0  0
   25.6930  -20.8597   -8.7563 C   0  0  0  0  0  0  0  0  0  0  0  0
   25.0294  -20.3264  -10.0399 C   0  0  2  0  0  0  0  0  0  0  0  0
   25.7165  -20.9496  -11.2187 C   0  0  0  0  0  0  0  0  0  0  0  0
   27.1644  -20.5876  -11.1932 C   0  0  2  0  0  0  0  0  0  0  0  0
   25.1178  -20.5609  -12.5637 N   0  0  0  0  0  0  0  0  0  0  0  0
   23.7906  -21.0907  -12.6941 C   0  0  0  0  0  0  0  0  0  0  0  0
   26.0091  -20.7982  -13.7023 O   0  0  0  0  0  0  0  0  0  0  0  0
   26.3065  -22.0297  -13.9194 N   0  0  0  0  0  0  0  0  0  0  0  0
   26.5745  -19.8479  -14.5757 C   0  0  0  0  0  0  0  0  0  0  0  0
   26.3475  -18.4319  -14.4979 C   0  0  0  0  0  0  0  0  0  0  0  0
   27.0924  -17.7992  -15.6877 C   0  0  0  0  0  0  0  0  0  0  0  0
   28.1187  -18.8416  -16.0183 C   0  0  2  0  0  0  0  0  0  0  0  0
   27.3986  -20.1321  -15.7106 C   0  0  0  0  0  0  0  0  0  0  0  0
   28.4026  -21.2135  -15.4669 O   0  0  0  0  0  0  0  0  0  0  0  0
   28.6083  -21.5776  -14.2924 O   0  0  0  0  0  0  0  0  0  0  0  0
  2  1  1  0
  3  2  2  0
  4  2  1  0
  5  4  1  0
  6  5  1  0
  6  7  1  0
  8 10  1  0
  8  9  1  6
  8  7  1  0
 10 11  2  0
 13 12  1  0
 14 13  1  0
 14 15  1  6
 16 17  1  6
 16 14  1  0
 17 10  1  0
 18 16  1  0
 19 18  2  0
 20 18  1  0
 20 24  1  0
 21 22  1  0
 21 20  1  0
 22 23  1  0
 23 24  1  0
 25 27  1  0
 24 25  1  1
 26 25  2  0
M  END
$$$$
