RIP.pdb
     RDKit          3D

 27 27  0  0  1  0  0  0  0  0999 V2000
   23.8720  -25.2750  -14.7279 N   0  0  0  0  0  0  0  0  0  0  0  0
   22.5679  -25.7838  -14.4180 C   0  0  0  0  0  0  0  0  0  0  0  0
   22.3228  -27.0311  -14.5367 N   0  0  0  0  0  0  0  0  0  0  0  0
   21.5316  -24.9142  -13.9762 N   0  0  0  0  0  0  0  0  0  0  0  0
   21.7328  -23.4909  -13.8874 C   0  0  0  0  0  0  0  0  0  0  0  0
   21.2103  -22.8104  -15.1280 C   0  0  0  0  0  0  0  0  0  0  0  0
   21.6019  -21.3556  -15.1611 C   0  0  0  0  0  0  0  0  0  0  0  0
   21.7813  -20.8089  -13.7481 C   0  0  2  0  0  0  0  0  0  0  0  0
   20.8215  -19.7927  -13.4440 N   0  0  0  0  0  0  0  0  0  0  0  0
   23.1564  -20.2943  -13.5521 C   0  0  0  0  0  0  0  0  0  0  0  0
   23.4559  -19.1710  -14.0318 O   0  0  0  0  0  0  0  0  0  0  0  0
   21.4252  -27.4274  -14.2270 C   0  0  0  0  0  0  0  0  0  0  0  0
   24.7571  -21.4587   -9.6223 C   0  0  0  0  0  0  0  0  0  0  0  0
   25.7805  -20.5066  -10.2694 C   0  0  2  0  0  0  0  0  0  0  0  0
   26.2390  -21.1161  -11.5610 C   0  0  0  0  0  0  0  0  0  0  0  0
   27.7144  -20.9340  -11.6955 C   0  0  2  0  0  0  0  0  0  0  0  0
   25.5421  -20.5565  -12.7938 N   0  0  0  0  0  0  0  0  0  0  0  0
   24.1785  -21.0004  -12.8442 C   0  0  0  0  0  0  0  0  0  0  0  0
   26.3066  -20.7173  -14.0335 O   0  0  0  0  0  0  0  0  0  0  0  0
   26.4449  -21.9288  -14.4401 N   0  0  0  0  0  0  0  0  0  0  0  0
   26.9036  -19.7138  -14.8223 C   0  0  0  0  0  0  0  0  0  0  0  0
   26.8016  -18.3048  -14.5639 C   0  0  0  0  0  0  0  0  0  0  0  0
   27.5336  -17.5906  -15.7149 C   0  0  0  0  0  0  0  0  0  0  0  0
   28.4492  -18.6610  -16.2297 C   0  0  2  0  0  0  0  0  0  0  0  0
   27.6397  -19.9197  -16.0321 C   0  0  0  0  0  0  0  0  0  0  0  0
   28.5602  -21.0974  -15.9809 O   0  0  0  0  0  0  0  0  0  0  0  0
   28.8796  -21.5520  -14.8649 O   0  0  0  0  0  0  0  0  0  0  0  0
  2  1  1  0
  3  2  2  0
  4  2  1  0
  5  4  1  0
  6  5  1  0
  6  7  1  0
  8 10  1  0
  8  9  1  6
  8  7  1  0
 10 11  2  0
 13 12  1  0
 14 13  1  0
 14 15  1  6
 16 17  1  6
 16 14  1  0
 17 10  1  0
 18 16  1  0
 19 18  2  0
 20 18  1  0
 20 24  1  0
 21 22  1  0
 21 20  1  0
 22 23  1  0
 23 24  1  0
 25 27  1  0
 24 25  1  1
 26 25  2  0
M  END
$$$$
