RIP.pdb
     RDKit          3D

 27 27  0  0  1  0  0  0  0  0999 V2000
   20.8674  -20.2432  -15.2873 N   0  0  0  0  0  0  0  0  0  0  0  0
   20.1121  -21.3821  -14.8540 C   0  0  0  0  0  0  0  0  0  0  0  0
   18.9062  -21.5362  -15.2438 N   0  0  0  0  0  0  0  0  0  0  0  0
   20.6885  -22.3534  -13.9881 N   0  0  0  0  0  0  0  0  0  0  0  0
   22.0755  -22.2890  -13.6053 C   0  0  0  0  0  0  0  0  0  0  0  0
   22.4073  -20.9183  -13.0702 C   0  0  0  0  0  0  0  0  0  0  0  0
   22.1042  -20.8169  -11.5976 C   0  0  0  0  0  0  0  0  0  0  0  0
   23.3486  -21.1105  -10.7652 C   0  0  2  0  0  0  0  0  0  0  0  0
   23.1808  -20.7194   -9.3995 N   0  0  0  0  0  0  0  0  0  0  0  0
   24.5404  -20.4509  -11.3474 C   0  0  0  0  0  0  0  0  0  0  0  0
   24.7381  -19.2334  -11.1022 O   0  0  0  0  0  0  0  0  0  0  0  0
   18.3630  -22.3672  -14.9732 C   0  0  0  0  0  0  0  0  0  0  0  0
   29.4507  -21.7308  -10.3157 C   0  0  0  0  0  0  0  0  0  0  0  0
   28.1376  -21.0174  -10.6887 C   0  0  2  0  0  0  0  0  0  0  0  0
   27.9222  -21.1700  -12.1652 C   0  0  0  0  0  0  0  0  0  0  0  0
   29.1195  -20.6563  -12.8936 C   0  0  2  0  0  0  0  0  0  0  0  0
   26.6719  -20.4740  -12.6858 N   0  0  0  0  0  0  0  0  0  0  0  0
   25.4926  -21.1168  -12.1806 C   0  0  0  0  0  0  0  0  0  0  0  0
   26.6878  -20.2243  -14.1296 O   0  0  0  0  0  0  0  0  0  0  0  0
   26.6473  -21.2750  -14.8690 N   0  0  0  0  0  0  0  0  0  0  0  0
   26.7442  -18.9840  -14.7961 C   0  0  0  0  0  0  0  0  0  0  0  0
   26.7168  -17.7052  -14.1431 C   0  0  0  0  0  0  0  0  0  0  0  0
   26.7182  -16.6410  -15.2559 C   0  0  0  0  0  0  0  0  0  0  0  0
   27.2945  -17.3908  -16.4199 C   0  0  2  0  0  0  0  0  0  0  0  0
   26.7662  -18.7897  -16.2137 C   0  0  0  0  0  0  0  0  0  0  0  0
   27.6419  -19.7615  -16.9387 O   0  0  0  0  0  0  0  0  0  0  0  0
   28.4831  -20.4058  -16.2816 O   0  0  0  0  0  0  0  0  0  0  0  0
  2  1  1  0
  3  2  2  0
  4  2  1  0
  5  4  1  0
  6  5  1  0
  6  7  1  0
  8 10  1  0
  8  9  1  1
  8  7  1  0
 10 11  2  0
 13 12  1  0
 14 13  1  0
 14 15  1  6
 16 17  1  1
 16 14  1  0
 17 10  1  0
 18 16  1  0
 19 18  2  0
 20 18  1  0
 20 24  1  0
 21 22  1  0
 21 20  1  0
 22 23  1  0
 23 24  1  0
 25 27  1  0
 24 25  1  1
 26 25  2  0
M  END
$$$$
