RIP.pdb
     RDKit          3D

 27 27  0  0  1  0  0  0  0  0999 V2000
   23.5296  -17.7478  -14.5511 N   0  0  0  0  0  0  0  0  0  0  0  0
   23.6211  -18.8103  -15.5093 C   0  0  0  0  0  0  0  0  0  0  0  0
   23.6041  -18.5485  -16.7587 N   0  0  0  0  0  0  0  0  0  0  0  0
   23.7315  -20.1652  -15.0880 N   0  0  0  0  0  0  0  0  0  0  0  0
   24.3610  -20.5147  -13.8406 C   0  0  0  0  0  0  0  0  0  0  0  0
   23.8058  -19.6711  -12.7202 C   0  0  0  0  0  0  0  0  0  0  0  0
   24.1807  -20.2336  -11.3734 C   0  0  0  0  0  0  0  0  0  0  0  0
   25.6925  -20.4020  -11.2566 C   0  0  2  0  0  0  0  0  0  0  0  0
   26.2034  -21.3182  -12.2292 N   0  0  0  0  0  0  0  0  0  0  0  0
   26.0712  -20.8353   -9.8916 C   0  0  0  0  0  0  0  0  0  0  0  0
   25.9472  -22.0489   -9.5860 O   0  0  0  0  0  0  0  0  0  0  0  0
   23.6099  -19.3024  -17.4591 C   0  0  0  0  0  0  0  0  0  0  0  0
   29.5133  -19.7510   -5.1595 C   0  0  0  0  0  0  0  0  0  0  0  0
   27.9898  -19.7964   -5.3814 C   0  0  2  0  0  0  0  0  0  0  0  0
   27.7101  -19.4166   -6.8053 C   0  0  0  0  0  0  0  0  0  0  0  0
   27.1998  -18.0145   -6.8502 C   0  0  2  0  0  0  0  0  0  0  0  0
   26.7270  -20.3394   -7.5127 N   0  0  0  0  0  0  0  0  0  0  0  0
   26.5748  -19.9524   -8.8861 C   0  0  0  0  0  0  0  0  0  0  0  0
   25.4802  -20.5583   -6.7746 O   0  0  0  0  0  0  0  0  0  0  0  0
   24.7470  -19.5149   -6.6137 N   0  0  0  0  0  0  0  0  0  0  0  0
   24.9963  -21.7619   -6.2244 C   0  0  0  0  0  0  0  0  0  0  0  0
   25.5664  -23.0573   -6.4681 C   0  0  0  0  0  0  0  0  0  0  0  0
   24.6748  -24.0770   -5.7360 C   0  0  0  0  0  0  0  0  0  0  0  0
   23.9995  -23.2303   -4.6985 C   0  0  2  0  0  0  0  0  0  0  0  0
   23.8341  -21.9048   -5.4017 C   0  0  0  0  0  0  0  0  0  0  0  0
   23.6829  -20.8197   -4.3837 O   0  0  0  0  0  0  0  0  0  0  0  0
   24.6872  -20.1450   -4.0829 O   0  0  0  0  0  0  0  0  0  0  0  0
  2  1  1  0
  3  2  2  0
  4  2  1  0
  5  4  1  0
  6  5  1  0
  6  7  1  0
  8 10  1  0
  8  9  1  6
  8  7  1  0
 10 11  2  0
 13 12  1  0
 14 13  1  0
 14 15  1  6
 16 17  1  1
 16 14  1  0
 17 10  1  0
 18 16  1  0
 19 18  2  0
 20 18  1  0
 20 24  1  0
 21 22  1  0
 21 20  1  0
 22 23  1  0
 23 24  1  0
 25 27  1  0
 24 25  1  1
 26 25  2  0
M  END
$$$$
