RIP.pdb
     RDKit          3D

 27 27  0  0  1  0  0  0  0  0999 V2000
   26.0885  -25.5851  -18.2486 N   0  0  0  0  0  0  0  0  0  0  0  0
   26.1780  -25.2800  -16.8507 C   0  0  0  0  0  0  0  0  0  0  0  0
   25.1710  -25.4683  -16.0889 N   0  0  0  0  0  0  0  0  0  0  0  0
   27.3815  -24.7655  -16.2918 N   0  0  0  0  0  0  0  0  0  0  0  0
   28.5183  -24.4504  -17.1181 C   0  0  0  0  0  0  0  0  0  0  0  0
   28.3972  -23.0487  -17.6620 C   0  0  0  0  0  0  0  0  0  0  0  0
   27.8883  -22.0956  -16.6116 C   0  0  0  0  0  0  0  0  0  0  0  0
   26.8176  -21.1737  -17.1874 C   0  0  2  0  0  0  0  0  0  0  0  0
   27.3742  -20.1993  -18.0745 N   0  0  0  0  0  0  0  0  0  0  0  0
   26.0557  -20.5093  -16.1046 C   0  0  0  0  0  0  0  0  0  0  0  0
   26.4502  -19.3911  -15.6857 O   0  0  0  0  0  0  0  0  0  0  0  0
   25.2026  -25.2087  -15.0937 C   0  0  0  0  0  0  0  0  0  0  0  0
   21.8468  -19.7542  -17.3079 C   0  0  0  0  0  0  0  0  0  0  0  0
   22.7416  -19.1270  -16.2223 C   0  0  2  0  0  0  0  0  0  0  0  0
   22.7362  -20.0330  -15.0268 C   0  0  0  0  0  0  0  0  0  0  0  0
   21.9255  -19.4095  -13.9396 C   0  0  2  0  0  0  0  0  0  0  0  0
   24.1232  -20.3716  -14.4978 N   0  0  0  0  0  0  0  0  0  0  0  0
   24.8862  -21.0636  -15.4969 C   0  0  0  0  0  0  0  0  0  0  0  0
   24.1188  -20.9849  -13.1670 O   0  0  0  0  0  0  0  0  0  0  0  0
   23.2960  -21.9607  -13.0149 N   0  0  0  0  0  0  0  0  0  0  0  0
   24.8981  -20.6346  -12.0465 C   0  0  0  0  0  0  0  0  0  0  0  0
   26.0146  -19.7319  -12.0795 C   0  0  0  0  0  0  0  0  0  0  0  0
   26.6074  -19.7105  -10.6587 C   0  0  0  0  0  0  0  0  0  0  0  0
   25.4542  -20.1750   -9.8198 C   0  0  2  0  0  0  0  0  0  0  0  0
   24.7571  -21.1627  -10.7239 C   0  0  0  0  0  0  0  0  0  0  0  0
   23.3347  -21.3150  -10.2875 O   0  0  0  0  0  0  0  0  0  0  0  0
   22.4520  -20.7018  -10.9192 O   0  0  0  0  0  0  0  0  0  0  0  0
  2  1  1  0
  3  2  2  0
  4  2  1  0
  5  4  1  0
  6  5  1  0
  6  7  1  0
  8 10  1  0
  8  9  1  6
  8  7  1  0
 10 11  2  0
 13 12  1  0
 14 13  1  0
 14 15  1  1
 16 17  1  1
 16 14  1  0
 17 10  1  0
 18 16  1  0
 19 18  2  0
 20 18  1  0
 20 24  1  0
 21 22  1  0
 21 20  1  0
 22 23  1  0
 23 24  1  0
 25 27  1  0
 24 25  1  6
 26 25  2  0
M  END
$$$$
