RIP.pdb
     RDKit          3D

 27 27  0  0  1  0  0  0  0  0999 V2000
   18.0083  -24.5029  -11.2107 N   0  0  0  0  0  0  0  0  0  0  0  0
   17.5379  -23.4579  -12.0722 C   0  0  0  0  0  0  0  0  0  0  0  0
   16.2851  -23.2973  -12.2584 N   0  0  0  0  0  0  0  0  0  0  0  0
   18.4521  -22.5879  -12.7301 N   0  0  0  0  0  0  0  0  0  0  0  0
   19.8724  -22.6881  -12.5131 C   0  0  0  0  0  0  0  0  0  0  0  0
   20.6038  -21.6792  -13.3632 C   0  0  0  0  0  0  0  0  0  0  0  0
   22.0897  -21.9296  -13.3540 C   0  0  0  0  0  0  0  0  0  0  0  0
   22.7233  -21.3920  -12.0744 C   0  0  2  0  0  0  0  0  0  0  0  0
   21.8367  -20.5214  -11.3657 N   0  0  0  0  0  0  0  0  0  0  0  0
   23.9996  -20.6998  -12.3682 C   0  0  0  0  0  0  0  0  0  0  0  0
   23.9879  -19.4529  -12.5311 O   0  0  0  0  0  0  0  0  0  0  0  0
   15.9335  -22.6070  -12.9356 C   0  0  0  0  0  0  0  0  0  0  0  0
   28.8194  -21.6717   -9.9652 C   0  0  0  0  0  0  0  0  0  0  0  0
   27.5503  -21.0816  -10.6082 C   0  0  2  0  0  0  0  0  0  0  0  0
   27.6565  -21.2453  -12.0954 C   0  0  0  0  0  0  0  0  0  0  0  0
   28.9102  -20.5923  -12.5749 C   0  0  2  0  0  0  0  0  0  0  0  0
   26.4665  -20.6923  -12.8679 N   0  0  0  0  0  0  0  0  0  0  0  0
   25.2600  -21.3656  -12.4802 C   0  0  0  0  0  0  0  0  0  0  0  0
   26.6940  -20.5812  -14.3112 O   0  0  0  0  0  0  0  0  0  0  0  0
   26.8466  -21.6973  -14.9304 N   0  0  0  0  0  0  0  0  0  0  0  0
   26.7671  -19.4102  -15.0914 C   0  0  0  0  0  0  0  0  0  0  0  0
   26.4664  -18.0904  -14.6116 C   0  0  0  0  0  0  0  0  0  0  0  0
   26.6019  -17.1410  -15.8163 C   0  0  0  0  0  0  0  0  0  0  0  0
   27.4928  -17.9164  -16.7407 C   0  0  2  0  0  0  0  0  0  0  0  0
   27.0787  -19.3456  -16.4866 C   0  0  0  0  0  0  0  0  0  0  0  0
   28.1869  -20.2625  -16.8966 O   0  0  0  0  0  0  0  0  0  0  0  0
   28.9092  -20.7540  -16.0073 O   0  0  0  0  0  0  0  0  0  0  0  0
  2  1  1  0
  3  2  2  0
  4  2  1  0
  5  4  1  0
  6  5  1  0
  6  7  1  0
  8 10  1  0
  8  9  1  6
  8  7  1  0
 10 11  2  0
 13 12  1  0
 14 13  1  0
 14 15  1  6
 16 17  1  1
 16 14  1  0
 17 10  1  0
 18 16  1  0
 19 18  2  0
 20 18  1  0
 20 24  1  0
 21 22  1  0
 21 20  1  0
 22 23  1  0
 23 24  1  0
 25 27  1  0
 24 25  1  1
 26 25  2  0
M  END
$$$$
