RIP.pdb
     RDKit          3D

 27 27  0  0  1  0  0  0  0  0999 V2000
   29.2745  -16.2205  -19.3532 N   0  0  0  0  0  0  0  0  0  0  0  0
   28.0276  -15.5888  -19.0346 C   0  0  0  0  0  0  0  0  0  0  0  0
   27.5789  -14.6495  -19.7737 N   0  0  0  0  0  0  0  0  0  0  0  0
   27.2740  -15.9941  -17.8974 N   0  0  0  0  0  0  0  0  0  0  0  0
   27.7113  -17.0764  -17.0537 C   0  0  0  0  0  0  0  0  0  0  0  0
   27.9551  -18.3162  -17.8776 C   0  0  0  0  0  0  0  0  0  0  0  0
   27.2187  -19.5031  -17.3124 C   0  0  0  0  0  0  0  0  0  0  0  0
   28.0564  -20.2061  -16.2485 C   0  0  2  0  0  0  0  0  0  0  0  0
   28.9886  -21.1251  -16.8255 N   0  0  0  0  0  0  0  0  0  0  0  0
   27.1896  -20.8991  -15.2673 C   0  0  0  0  0  0  0  0  0  0  0  0
   26.6432  -21.9814  -15.6014 O   0  0  0  0  0  0  0  0  0  0  0  0
   26.7039  -14.1616  -19.5390 C   0  0  0  0  0  0  0  0  0  0  0  0
   25.9237  -20.8126   -9.1791 C   0  0  0  0  0  0  0  0  0  0  0  0
   25.5573  -21.3839  -10.5618 C   0  0  2  0  0  0  0  0  0  0  0  0
   26.3517  -20.6487  -11.6002 C   0  0  0  0  0  0  0  0  0  0  0  0
   26.1150  -19.1821  -11.4550 C   0  0  2  0  0  0  0  0  0  0  0  0
   26.0490  -21.0744  -13.0305 N   0  0  0  0  0  0  0  0  0  0  0  0
   26.9303  -20.4114  -13.9485 C   0  0  0  0  0  0  0  0  0  0  0  0
   24.6255  -21.0303  -13.3755 O   0  0  0  0  0  0  0  0  0  0  0  0
   24.0960  -19.8590  -13.3730 N   0  0  0  0  0  0  0  0  0  0  0  0
   23.7774  -22.1068  -13.7031 C   0  0  0  0  0  0  0  0  0  0  0  0
   24.2083  -23.4686  -13.8520 C   0  0  0  0  0  0  0  0  0  0  0  0
   22.9729  -24.2777  -14.2875 C   0  0  0  0  0  0  0  0  0  0  0  0
   21.8392  -23.4137  -13.8210 C   0  0  2  0  0  0  0  0  0  0  0  0
   22.3819  -22.0174  -14.0073 C   0  0  0  0  0  0  0  0  0  0  0  0
   21.6341  -21.0732  -13.1207 O   0  0  0  0  0  0  0  0  0  0  0  0
   22.1875  -20.6769  -12.0762 O   0  0  0  0  0  0  0  0  0  0  0  0
  2  1  1  0
  3  2  2  0
  4  2  1  0
  5  4  1  0
  6  5  1  0
  6  7  1  0
  8 10  1  0
  8  9  1  6
  8  7  1  0
 10 11  2  0
 13 12  1  0
 14 13  1  0
 14 15  1  6
 16 17  1  6
 16 14  1  0
 17 10  1  0
 18 16  1  0
 19 18  2  0
 20 18  1  0
 20 24  1  0
 21 22  1  0
 21 20  1  0
 22 23  1  0
 23 24  1  0
 25 27  1  0
 24 25  1  1
 26 25  2  0
M  END
$$$$
