RIP.pdb
     RDKit          3D

 27 27  0  0  1  0  0  0  0  0999 V2000
   26.6698  -28.3524  -18.6389 N   0  0  0  0  0  0  0  0  0  0  0  0
   25.7338  -27.5406  -17.9176 C   0  0  0  0  0  0  0  0  0  0  0  0
   24.4801  -27.7510  -18.0357 N   0  0  0  0  0  0  0  0  0  0  0  0
   26.1821  -26.4938  -17.0640 N   0  0  0  0  0  0  0  0  0  0  0  0
   27.5816  -26.3009  -16.7837 C   0  0  0  0  0  0  0  0  0  0  0  0
   28.2406  -25.5420  -17.9084 C   0  0  0  0  0  0  0  0  0  0  0  0
   28.5019  -24.1088  -17.5231 C   0  0  0  0  0  0  0  0  0  0  0  0
   27.4982  -23.1746  -18.1921 C   0  0  2  0  0  0  0  0  0  0  0  0
   28.0518  -22.5361  -19.3463 N   0  0  0  0  0  0  0  0  0  0  0  0
   26.9991  -22.1623  -17.2327 C   0  0  0  0  0  0  0  0  0  0  0  0
   27.7031  -21.1452  -17.0057 O   0  0  0  0  0  0  0  0  0  0  0  0
   23.7925  -27.0998  -17.6334 C   0  0  0  0  0  0  0  0  0  0  0  0
   21.8898  -19.3661  -15.7793 C   0  0  0  0  0  0  0  0  0  0  0  0
   23.3187  -19.6581  -15.2837 C   0  0  2  0  0  0  0  0  0  0  0  0
   23.8874  -20.7693  -16.1154 C   0  0  0  0  0  0  0  0  0  0  0  0
   22.9357  -21.9192  -16.1185 C   0  0  2  0  0  0  0  0  0  0  0  0
   25.2603  -21.2455  -15.6606 N   0  0  0  0  0  0  0  0  0  0  0  0
   25.7532  -22.2675  -16.5391 C   0  0  0  0  0  0  0  0  0  0  0  0
   25.3409  -21.5480  -14.2291 O   0  0  0  0  0  0  0  0  0  0  0  0
   24.4064  -22.3043  -13.7744 N   0  0  0  0  0  0  0  0  0  0  0  0
   26.3080  -21.1112  -13.3021 C   0  0  0  0  0  0  0  0  0  0  0  0
   27.4970  -20.3827  -13.6460 C   0  0  0  0  0  0  0  0  0  0  0  0
   28.2898  -20.1896  -12.3403 C   0  0  0  0  0  0  0  0  0  0  0  0
   27.2288  -20.3442  -11.2916 C   0  0  2  0  0  0  0  0  0  0  0  0
   26.3066  -21.3754  -11.8957 C   0  0  0  0  0  0  0  0  0  0  0  0
   24.9552  -21.2609  -11.2653 O   0  0  0  0  0  0  0  0  0  0  0  0
   24.0323  -20.7505  -11.9303 O   0  0  0  0  0  0  0  0  0  0  0  0
  2  1  1  0
  3  2  2  0
  4  2  1  0
  5  4  1  0
  6  5  1  0
  6  7  1  0
  8 10  1  0
  8  9  1  6
  8  7  1  0
 10 11  2  0
 13 12  1  0
 14 13  1  0
 14 15  1  6
 16 17  1  1
 16 14  1  0
 17 10  1  0
 18 16  1  0
 19 18  2  0
 20 18  1  0
 20 24  1  0
 21 22  1  0
 21 20  1  0
 22 23  1  0
 23 24  1  0
 25 27  1  0
 24 25  1  6
 26 25  2  0
M  END
$$$$
