VCE.pdb
     RDKit          3D

 23 22  0  0  1  0  0  0  0  0999 V2000
   25.7899  -15.5495  -16.1799 C   0  0  0  0  0  0  0  0  0  0  0  0
   25.1194  -14.2506  -16.5487 C   0  0  2  0  0  0  0  0  0  0  0  0
   24.9992  -13.3773  -15.3136 C   0  0  0  0  0  0  0  0  0  0  0  0
   23.7394  -14.4896  -17.1316 C   0  0  2  0  0  0  0  0  0  0  0  0
   23.8786  -15.3686  -18.2767 N   0  0  0  0  0  0  0  0  0  0  0  0
   23.1606  -13.2094  -17.6047 C   0  0  0  0  0  0  0  0  0  0  0  0
   23.6996  -12.5596  -18.5640 O   0  0  0  0  0  0  0  0  0  0  0  0
   22.0094  -12.6477  -17.0376 N   0  0  0  0  0  0  0  0  0  0  0  0
   21.4297  -11.3750  -17.5088 C   0  0  1  0  0  0  0  0  0  0  0  0
   20.0888  -11.7526  -18.1136 C   0  0  0  0  0  0  0  0  0  0  0  0
   20.2347  -12.7366  -19.6148 S   0  0  0  0  0  0  0  0  0  0  0  0
   21.2021  -10.5252  -16.3284 C   0  0  0  0  0  0  0  0  0  0  0  0
   20.7562  -11.0400  -15.2641 O   0  0  0  0  0  0  0  0  0  0  0  0
   21.4458   -9.1250  -16.2658 N   0  0  0  0  0  0  0  0  0  0  0  0
   21.1258   -8.3118  -15.1086 C   0  0  1  0  0  0  0  0  0  0  0  0
   21.8971   -7.0270  -15.1994 C   0  0  0  0  0  0  0  0  0  0  0  0
   21.6285   -6.0349  -14.1303 C   0  0  0  0  0  0  0  0  0  0  0  0
   22.3403   -4.7703  -14.2773 C   0  0  0  0  0  0  0  0  0  0  0  0
   23.2405   -4.6021  -15.1300 O   0  0  0  0  0  0  0  0  0  0  0  0
   19.6610   -7.9564  -15.1072 C   0  0  0  0  0  0  0  0  0  0  0  0
   19.0079   -7.8893  -16.1764 O   0  0  0  0  0  0  0  0  0  0  0  0
   21.9673   -3.7315  -13.4074 O   0  0  0  0  0  0  0  0  0  0  0  0
   18.9633   -7.6876  -13.9400 O   0  0  0  0  0  0  0  0  0  0  0  0
  2  3  1  1
  2  1  1  0
  4  2  1  0
  4  5  1  6
  6  4  1  0
  7  6  2  0
  8  6  1  0
  9 12  1  0
  9  8  1  0
  9 10  1  1
 11 10  1  0
 12 14  1  0
 13 12  2  0
 14 15  1  0
 15 16  1  6
 15 20  1  0
 16 17  1  0
 17 18  1  0
 18 22  1  0
 19 18  2  0
 20 21  2  0
 20 23  1  0
M  END
$$$$
