VCE.pdb
     RDKit          3D

 23 22  0  0  1  0  0  0  0  0999 V2000
   27.2519  -12.1701  -16.2651 C   0  0  0  0  0  0  0  0  0  0  0  0
   26.1137  -11.2027  -16.4681 C   0  0  2  0  0  0  0  0  0  0  0  0
   26.3467   -9.9658  -15.6204 C   0  0  0  0  0  0  0  0  0  0  0  0
   24.7849  -11.8288  -16.0892 C   0  0  2  0  0  0  0  0  0  0  0  0
   24.5903  -13.0077  -16.9110 N   0  0  0  0  0  0  0  0  0  0  0  0
   23.6795  -10.8834  -16.3755 C   0  0  0  0  0  0  0  0  0  0  0  0
   23.3287  -10.6274  -17.5773 O   0  0  0  0  0  0  0  0  0  0  0  0
   22.9679  -10.2273  -15.3627 N   0  0  0  0  0  0  0  0  0  0  0  0
   21.8413   -9.3163  -15.6436 C   0  0  1  0  0  0  0  0  0  0  0  0
   20.7019   -9.8185  -14.7743 C   0  0  0  0  0  0  0  0  0  0  0  0
   19.8904  -11.2830  -15.4375 S   0  0  0  0  0  0  0  0  0  0  0  0
   22.2332   -7.9709  -15.1919 C   0  0  0  0  0  0  0  0  0  0  0  0
   22.9212   -7.8404  -14.1401 O   0  0  0  0  0  0  0  0  0  0  0  0
   21.9007   -6.7547  -15.8506 N   0  0  0  0  0  0  0  0  0  0  0  0
   22.3678   -5.4554  -15.4074 C   0  0  1  0  0  0  0  0  0  0  0  0
   22.1293   -4.4614  -16.5070 C   0  0  0  0  0  0  0  0  0  0  0  0
   22.4106   -3.0448  -16.1699 C   0  0  0  0  0  0  0  0  0  0  0  0
   22.0616   -2.0874  -17.2135 C   0  0  0  0  0  0  0  0  0  0  0  0
   21.6049   -0.9511  -16.9563 O   0  0  0  0  0  0  0  0  0  0  0  0
   21.5785   -4.9960  -14.2084 C   0  0  0  0  0  0  0  0  0  0  0  0
   20.3806   -5.3345  -14.0509 O   0  0  0  0  0  0  0  0  0  0  0  0
   22.2628   -2.5005  -18.5416 O   0  0  0  0  0  0  0  0  0  0  0  0
   22.1247   -4.1848  -13.2262 O   0  0  0  0  0  0  0  0  0  0  0  0
  2  3  1  1
  2  1  1  0
  4  2  1  0
  4  5  1  6
  6  4  1  0
  7  6  2  0
  8  6  1  0
  9 12  1  0
  9  8  1  0
  9 10  1  1
 11 10  1  0
 12 14  1  0
 13 12  2  0
 14 15  1  0
 15 16  1  6
 15 20  1  0
 16 17  1  0
 17 18  1  0
 18 22  1  0
 19 18  2  0
 20 21  2  0
 20 23  1  0
M  END
$$$$
