VCE.pdb
     RDKit          3D

 23 22  0  0  1  0  0  0  0  0999 V2000
   29.6320  -32.2333  -17.5422 C   0  0  0  0  0  0  0  0  0  0  0  0
   28.9160  -30.9498  -17.8778 C   0  0  2  0  0  0  0  0  0  0  0  0
   29.5904  -29.7946  -17.1611 C   0  0  0  0  0  0  0  0  0  0  0  0
   27.4562  -31.0110  -17.4700 C   0  0  2  0  0  0  0  0  0  0  0  0
   26.7970  -32.0026  -18.2978 N   0  0  0  0  0  0  0  0  0  0  0  0
   26.8057  -29.7021  -17.7177 C   0  0  0  0  0  0  0  0  0  0  0  0
   26.5763  -29.2973  -18.9079 O   0  0  0  0  0  0  0  0  0  0  0  0
   26.4118  -28.8479  -16.6796 N   0  0  0  0  0  0  0  0  0  0  0  0
   25.6824  -27.5876  -16.9193 C   0  0  1  0  0  0  0  0  0  0  0  0
   24.5197  -27.6131  -15.9428 C   0  0  0  0  0  0  0  0  0  0  0  0
   23.0902  -28.5189  -16.5587 S   0  0  0  0  0  0  0  0  0  0  0  0
   26.5827  -26.4778  -16.5655 C   0  0  0  0  0  0  0  0  0  0  0  0
   27.4684  -26.6491  -15.6806 O   0  0  0  0  0  0  0  0  0  0  0  0
   26.5527  -25.1795  -17.1462 N   0  0  0  0  0  0  0  0  0  0  0  0
   27.5056  -24.1373  -16.8165 C   0  0  1  0  0  0  0  0  0  0  0  0
   28.7000  -24.2803  -17.7148 C   0  0  0  0  0  0  0  0  0  0  0  0
   29.7916  -23.2996  -17.4997 C   0  0  0  0  0  0  0  0  0  0  0  0
   30.9141  -23.4226  -18.4230 C   0  0  0  0  0  0  0  0  0  0  0  0
   31.1982  -24.4989  -18.9944 O   0  0  0  0  0  0  0  0  0  0  0  0
   26.9074  -22.7789  -17.0786 C   0  0  0  0  0  0  0  0  0  0  0  0
   25.9369  -22.6365  -17.8610 O   0  0  0  0  0  0  0  0  0  0  0  0
   31.6759  -22.2632  -18.6479 O   0  0  0  0  0  0  0  0  0  0  0  0
   27.3898  -21.6266  -16.4778 O   0  0  0  0  0  0  0  0  0  0  0  0
  2  3  1  1
  2  1  1  0
  4  2  1  0
  4  5  1  6
  6  4  1  0
  7  6  2  0
  8  6  1  0
  9 12  1  0
  9  8  1  0
  9 10  1  1
 11 10  1  0
 12 14  1  0
 13 12  2  0
 14 15  1  0
 15 16  1  6
 15 20  1  0
 16 17  1  0
 17 18  1  0
 18 22  1  0
 19 18  2  0
 20 21  2  0
 20 23  1  0
M  END
$$$$
