VCE.pdb
     RDKit          3D

 23 22  0  0  1  0  0  0  0  0999 V2000
   32.0545  -21.1500  -11.8504 C   0  0  0  0  0  0  0  0  0  0  0  0
   30.5989  -21.5072  -11.6889 C   0  0  2  0  0  0  0  0  0  0  0  0
   29.7468  -20.5007  -12.4397 C   0  0  0  0  0  0  0  0  0  0  0  0
   30.1936  -21.5176  -10.2271 C   0  0  2  0  0  0  0  0  0  0  0  0
   30.9264  -22.5782   -9.5627 N   0  0  0  0  0  0  0  0  0  0  0  0
   28.7464  -21.8148  -10.1047 C   0  0  0  0  0  0  0  0  0  0  0  0
   28.3061  -23.0061  -10.2462 O   0  0  0  0  0  0  0  0  0  0  0  0
   27.7942  -20.8242   -9.8317 N   0  0  0  0  0  0  0  0  0  0  0  0
   26.3431  -21.0930   -9.8332 C   0  0  1  0  0  0  0  0  0  0  0  0
   25.8057  -20.3636   -8.6144 C   0  0  0  0  0  0  0  0  0  0  0  0
   24.0067  -20.3280   -8.5398 S   0  0  0  0  0  0  0  0  0  0  0  0
   25.7781  -20.4811  -11.0472 C   0  0  0  0  0  0  0  0  0  0  0  0
   26.0505  -19.2792  -11.3262 O   0  0  0  0  0  0  0  0  0  0  0  0
   24.9218  -21.1371  -11.9746 N   0  0  0  0  0  0  0  0  0  0  0  0
   24.3093  -20.4664  -13.1051 C   0  0  1  0  0  0  0  0  0  0  0  0
   24.2978  -21.4110  -14.2720 C   0  0  0  0  0  0  0  0  0  0  0  0
   23.6563  -20.9025  -15.5088 C   0  0  0  0  0  0  0  0  0  0  0  0
   23.6487  -21.8425  -16.6241 C   0  0  0  0  0  0  0  0  0  0  0  0
   24.1094  -23.0020  -16.5276 O   0  0  0  0  0  0  0  0  0  0  0  0
   22.8758  -20.1197  -12.7945 C   0  0  0  0  0  0  0  0  0  0  0  0
   22.2469  -20.7116  -11.8843 O   0  0  0  0  0  0  0  0  0  0  0  0
   23.0933  -21.3849  -17.8312 O   0  0  0  0  0  0  0  0  0  0  0  0
   22.1816  -19.1406  -13.4880 O   0  0  0  0  0  0  0  0  0  0  0  0
  2  3  1  6
  2  1  1  0
  4  2  1  0
  4  5  1  1
  6  4  1  0
  7  6  2  0
  8  6  1  0
  9 12  1  0
  9  8  1  0
  9 10  1  1
 11 10  1  0
 12 14  1  0
 13 12  2  0
 14 15  1  0
 15 16  1  6
 15 20  1  0
 16 17  1  0
 17 18  1  0
 18 22  1  0
 19 18  2  0
 20 21  2  0
 20 23  1  0
M  END
$$$$
