VCE.pdb
     RDKit          3D

 23 22  0  0  1  0  0  0  0  0999 V2000
   16.3981   -9.1827  -17.7035 C   0  0  0  0  0  0  0  0  0  0  0  0
   17.4974   -9.6329  -18.6317 C   0  0  2  0  0  0  0  0  0  0  0  0
   16.8897  -10.1122  -19.9371 C   0  0  0  0  0  0  0  0  0  0  0  0
   18.3133  -10.7537  -18.0158 C   0  0  2  0  0  0  0  0  0  0  0  0
   17.4139  -11.8467  -17.7004 N   0  0  0  0  0  0  0  0  0  0  0  0
   18.9343  -10.2923  -16.7512 C   0  0  0  0  0  0  0  0  0  0  0  0
   18.3744  -10.5159  -15.6245 O   0  0  0  0  0  0  0  0  0  0  0  0
   20.1498   -9.5964  -16.7186 N   0  0  0  0  0  0  0  0  0  0  0  0
   20.7992   -9.1874  -15.4581 C   0  0  1  0  0  0  0  0  0  0  0  0
   22.1390   -9.9024  -15.4548 C   0  0  0  0  0  0  0  0  0  0  0  0
   23.2000   -9.4234  -14.0807 S   0  0  0  0  0  0  0  0  0  0  0  0
   21.0298   -7.7350  -15.5268 C   0  0  0  0  0  0  0  0  0  0  0  0
   21.4377   -7.2171  -16.6048 O   0  0  0  0  0  0  0  0  0  0  0  0
   20.8295   -6.8206  -14.4557 N   0  0  0  0  0  0  0  0  0  0  0  0
   21.0975   -5.3993  -14.5611 C   0  0  1  0  0  0  0  0  0  0  0  0
   19.8399   -4.6500  -14.2278 C   0  0  0  0  0  0  0  0  0  0  0  0
   18.8015   -4.6268  -15.2864 C   0  0  0  0  0  0  0  0  0  0  0  0
   17.5642   -3.9500  -14.9141 C   0  0  0  0  0  0  0  0  0  0  0  0
   16.6201   -3.7869  -15.7190 O   0  0  0  0  0  0  0  0  0  0  0  0
   22.1441   -4.9878  -13.5576 C   0  0  0  0  0  0  0  0  0  0  0  0
   22.4894   -5.7557  -12.6273 O   0  0  0  0  0  0  0  0  0  0  0  0
   17.4748   -3.4809  -13.5924 O   0  0  0  0  0  0  0  0  0  0  0  0
   22.7749   -3.7545  -13.6059 O   0  0  0  0  0  0  0  0  0  0  0  0
  2  3  1  6
  2  1  1  0
  4  2  1  0
  4  5  1  1
  6  4  1  0
  7  6  2  0
  8  6  1  0
  9 12  1  0
  9  8  1  0
  9 10  1  6
 11 10  1  0
 12 14  1  0
 13 12  2  0
 14 15  1  0
 15 16  1  1
 15 20  1  0
 16 17  1  0
 17 18  1  0
 18 22  1  0
 19 18  2  0
 20 21  2  0
 20 23  1  0
M  END
$$$$
