VCE.pdb
     RDKit          3D

 23 22  0  0  1  0  0  0  0  0999 V2000
   19.7182  -19.8331  -10.8751 C   0  0  0  0  0  0  0  0  0  0  0  0
   21.0493  -19.5472  -11.5226 C   0  0  2  0  0  0  0  0  0  0  0  0
   20.8267  -18.7885  -12.8179 C   0  0  0  0  0  0  0  0  0  0  0  0
   21.8059  -20.8291  -11.8147 C   0  0  2  0  0  0  0  0  0  0  0  0
   21.9307  -21.5724  -10.5757 N   0  0  0  0  0  0  0  0  0  0  0  0
   23.1711  -20.5127  -12.2983 C   0  0  0  0  0  0  0  0  0  0  0  0
   23.3490  -19.7880  -13.3356 O   0  0  0  0  0  0  0  0  0  0  0  0
   24.3251  -20.9815  -11.6572 N   0  0  0  0  0  0  0  0  0  0  0  0
   25.6845  -20.5962  -12.0832 C   0  0  1  0  0  0  0  0  0  0  0  0
   26.6150  -21.2726  -11.0918 C   0  0  0  0  0  0  0  0  0  0  0  0
   26.3611  -20.7333   -9.3924 S   0  0  0  0  0  0  0  0  0  0  0  0
   25.9107  -21.1674  -13.4211 C   0  0  0  0  0  0  0  0  0  0  0  0
   25.7919  -22.4130  -13.5972 O   0  0  0  0  0  0  0  0  0  0  0  0
   26.2631  -20.4244  -14.5819 N   0  0  0  0  0  0  0  0  0  0  0  0
   26.4097  -21.0211  -15.8954 C   0  0  1  0  0  0  0  0  0  0  0  0
   25.1030  -20.8987  -16.6243 C   0  0  0  0  0  0  0  0  0  0  0  0
   24.5454  -19.5282  -16.7260 C   0  0  0  0  0  0  0  0  0  0  0  0
   23.2698  -19.4379  -17.4275 C   0  0  0  0  0  0  0  0  0  0  0  0
   23.0794  -18.6419  -18.3741 O   0  0  0  0  0  0  0  0  0  0  0  0
   27.4429  -20.2729  -16.6981 C   0  0  0  0  0  0  0  0  0  0  0  0
   27.8883  -19.1653  -16.3120 O   0  0  0  0  0  0  0  0  0  0  0  0
   22.2466  -20.2958  -16.9894 O   0  0  0  0  0  0  0  0  0  0  0  0
   27.9518  -20.7604  -17.8918 O   0  0  0  0  0  0  0  0  0  0  0  0
  2  3  1  6
  2  1  1  0
  4  2  1  0
  4  5  1  1
  6  4  1  0
  7  6  2  0
  8  6  1  0
  9 12  1  0
  9  8  1  0
  9 10  1  1
 11 10  1  0
 12 14  1  0
 13 12  2  0
 14 15  1  0
 15 16  1  6
 15 20  1  0
 16 17  1  0
 17 18  1  0
 18 22  1  0
 19 18  2  0
 20 21  2  0
 20 23  1  0
M  END
$$$$
