VCE.pdb
     RDKit          3D

 23 22  0  0  1  0  0  0  0  0999 V2000
   23.5646  -22.2210  -13.5726 C   0  0  0  0  0  0  0  0  0  0  0  0
   24.9062  -22.5245  -14.1896 C   0  0  2  0  0  0  0  0  0  0  0  0
   25.2207  -23.9983  -14.0116 C   0  0  0  0  0  0  0  0  0  0  0  0
   26.0052  -21.6955  -13.5524 C   0  0  2  0  0  0  0  0  0  0  0  0
   25.9374  -21.8830  -12.1159 N   0  0  0  0  0  0  0  0  0  0  0  0
   25.7850  -20.2574  -13.8373 C   0  0  0  0  0  0  0  0  0  0  0  0
   25.2977  -19.4788  -12.9490 O   0  0  0  0  0  0  0  0  0  0  0  0
   26.0930  -19.6788  -15.0755 N   0  0  0  0  0  0  0  0  0  0  0  0
   25.7752  -18.2744  -15.3988 C   0  0  1  0  0  0  0  0  0  0  0  0
   26.9997  -17.7511  -16.1288 C   0  0  0  0  0  0  0  0  0  0  0  0
   27.4941  -18.7801  -17.5217 S   0  0  0  0  0  0  0  0  0  0  0  0
   24.6297  -18.2786  -16.3237 C   0  0  0  0  0  0  0  0  0  0  0  0
   24.5561  -19.1627  -17.2235 O   0  0  0  0  0  0  0  0  0  0  0  0
   23.5540  -17.3480  -16.3021 N   0  0  0  0  0  0  0  0  0  0  0  0
   22.4411  -17.3954  -17.2306 C   0  0  1  0  0  0  0  0  0  0  0  0
   21.1685  -17.1860  -16.4621 C   0  0  0  0  0  0  0  0  0  0  0  0
   19.9135  -17.3219  -17.2407 C   0  0  0  0  0  0  0  0  0  0  0  0
   18.6917  -17.1130  -16.4718 C   0  0  0  0  0  0  0  0  0  0  0  0
   18.7065  -16.7663  -15.2695 O   0  0  0  0  0  0  0  0  0  0  0  0
   22.5484  -16.2761  -18.2342 C   0  0  0  0  0  0  0  0  0  0  0  0
   23.1784  -15.2239  -17.9688 O   0  0  0  0  0  0  0  0  0  0  0  0
   17.4774  -17.3207  -17.1480 O   0  0  0  0  0  0  0  0  0  0  0  0
   21.9648  -16.3458  -19.4896 O   0  0  0  0  0  0  0  0  0  0  0  0
  2  3  1  1
  2  1  1  0
  4  2  1  0
  4  5  1  1
  6  4  1  0
  7  6  2  0
  8  6  1  0
  9 12  1  0
  9  8  1  0
  9 10  1  6
 11 10  1  0
 12 14  1  0
 13 12  2  0
 14 15  1  0
 15 16  1  1
 15 20  1  0
 16 17  1  0
 17 18  1  0
 18 22  1  0
 19 18  2  0
 20 21  2  0
 20 23  1  0
M  END
$$$$
