VCE.pdb
     RDKit          3D

 23 22  0  0  1  0  0  0  0  0999 V2000
   18.2932  -12.3607  -19.9977 C   0  0  0  0  0  0  0  0  0  0  0  0
   18.2529  -11.0926  -19.1834 C   0  0  2  0  0  0  0  0  0  0  0  0
   18.2269   -9.8957  -20.1160 C   0  0  0  0  0  0  0  0  0  0  0  0
   19.4566  -10.9890  -18.2661 C   0  0  2  0  0  0  0  0  0  0  0  0
   19.5504  -12.2187  -17.5031 N   0  0  0  0  0  0  0  0  0  0  0  0
   19.2710   -9.8705  -17.3110 C   0  0  0  0  0  0  0  0  0  0  0  0
   19.1312   -8.6696  -17.7248 O   0  0  0  0  0  0  0  0  0  0  0  0
   19.2386  -10.0620  -15.9236 N   0  0  0  0  0  0  0  0  0  0  0  0
   18.9405   -8.9704  -14.9763 C   0  0  1  0  0  0  0  0  0  0  0  0
   18.4591   -9.6641  -13.7141 C   0  0  0  0  0  0  0  0  0  0  0  0
   16.8216  -10.3948  -13.8817 S   0  0  0  0  0  0  0  0  0  0  0  0
   20.2046   -8.2727  -14.6886 C   0  0  0  0  0  0  0  0  0  0  0  0
   21.2705   -8.9387  -14.5578 O   0  0  0  0  0  0  0  0  0  0  0  0
   20.3497   -6.8655  -14.5385 N   0  0  0  0  0  0  0  0  0  0  0  0
   21.6206   -6.2198  -14.2725 C   0  0  1  0  0  0  0  0  0  0  0  0
   21.8059   -5.1046  -15.2604 C   0  0  0  0  0  0  0  0  0  0  0  0
   20.8975   -3.9430  -15.1018 C   0  0  0  0  0  0  0  0  0  0  0  0
   21.0742   -2.8890  -16.0945 C   0  0  0  0  0  0  0  0  0  0  0  0
   22.0534   -2.8577  -16.8729 O   0  0  0  0  0  0  0  0  0  0  0  0
   21.6175   -5.6043  -12.8967 C   0  0  0  0  0  0  0  0  0  0  0  0
   20.5538   -5.4805  -12.2429 O   0  0  0  0  0  0  0  0  0  0  0  0
   20.0829   -1.8939  -16.1415 O   0  0  0  0  0  0  0  0  0  0  0  0
   22.7744   -5.1468  -12.2853 O   0  0  0  0  0  0  0  0  0  0  0  0
  2  3  1  6
  2  1  1  0
  4  2  1  0
  4  5  1  1
  6  4  1  0
  7  6  2  0
  8  6  1  0
  9 12  1  0
  9  8  1  0
  9 10  1  1
 11 10  1  0
 12 14  1  0
 13 12  2  0
 14 15  1  0
 15 16  1  6
 15 20  1  0
 16 17  1  0
 17 18  1  0
 18 22  1  0
 19 18  2  0
 20 21  2  0
 20 23  1  0
M  END
$$$$
