VCE.pdb
     RDKit          3D

 23 22  0  0  1  0  0  0  0  0999 V2000
   19.0779  -13.9223  -17.2716 C   0  0  0  0  0  0  0  0  0  0  0  0
   19.9955  -14.0212  -18.4636 C   0  0  2  0  0  0  0  0  0  0  0  0
   19.4922  -15.1057  -19.3982 C   0  0  0  0  0  0  0  0  0  0  0  0
   21.4161  -14.3427  -18.0395 C   0  0  2  0  0  0  0  0  0  0  0  0
   21.3942  -15.5854  -17.2921 N   0  0  0  0  0  0  0  0  0  0  0  0
   21.9305  -13.2789  -17.1442 C   0  0  0  0  0  0  0  0  0  0  0  0
   21.6292  -13.2628  -15.9025 O   0  0  0  0  0  0  0  0  0  0  0  0
   22.7623  -12.2478  -17.5997 N   0  0  0  0  0  0  0  0  0  0  0  0
   23.2943  -11.2009  -16.7059 C   0  0  1  0  0  0  0  0  0  0  0  0
   24.7863  -11.1635  -16.9868 C   0  0  0  0  0  0  0  0  0  0  0  0
   25.7304  -12.3241  -15.9843 S   0  0  0  0  0  0  0  0  0  0  0  0
   22.6961   -9.9195  -17.1154 C   0  0  0  0  0  0  0  0  0  0  0  0
   22.4957   -9.6865  -18.3410 O   0  0  0  0  0  0  0  0  0  0  0  0
   22.3051   -8.8764  -16.2307 N   0  0  0  0  0  0  0  0  0  0  0  0
   21.6833   -7.6447  -16.6771 C   0  0  1  0  0  0  0  0  0  0  0  0
   21.2941   -6.8412  -15.4701 C   0  0  0  0  0  0  0  0  0  0  0  0
   22.4146   -6.3472  -14.6336 C   0  0  0  0  0  0  0  0  0  0  0  0
   22.0099   -5.5764  -13.4633 C   0  0  0  0  0  0  0  0  0  0  0  0
   20.8740   -5.6833  -12.9494 O   0  0  0  0  0  0  0  0  0  0  0  0
   22.6655   -6.8190  -17.4679 C   0  0  0  0  0  0  0  0  0  0  0  0
   23.9025   -6.9419  -17.2979 O   0  0  0  0  0  0  0  0  0  0  0  0
   22.9641   -4.6944  -12.9278 O   0  0  0  0  0  0  0  0  0  0  0  0
   22.2620   -5.8902  -18.4145 O   0  0  0  0  0  0  0  0  0  0  0  0
  2  3  1  6
  2  1  1  0
  4  2  1  0
  4  5  1  1
  6  4  1  0
  7  6  2  0
  8  6  1  0
  9 12  1  0
  9  8  1  0
  9 10  1  6
 11 10  1  0
 12 14  1  0
 13 12  2  0
 14 15  1  0
 15 16  1  1
 15 20  1  0
 16 17  1  0
 17 18  1  0
 18 22  1  0
 19 18  2  0
 20 21  2  0
 20 23  1  0
M  END
$$$$
