VCE.pdb
     RDKit          3D

 23 22  0  0  1  0  0  0  0  0999 V2000
   26.3930  -23.1898  -16.9791 C   0  0  0  0  0  0  0  0  0  0  0  0
   25.3705  -22.6863  -15.9924 C   0  0  2  0  0  0  0  0  0  0  0  0
   25.4642  -21.1747  -15.8969 C   0  0  0  0  0  0  0  0  0  0  0  0
   25.5872  -23.2912  -14.6182 C   0  0  2  0  0  0  0  0  0  0  0  0
   25.3968  -24.7252  -14.7206 N   0  0  0  0  0  0  0  0  0  0  0  0
   24.5803  -22.7623  -13.6674 C   0  0  0  0  0  0  0  0  0  0  0  0
   23.3831  -23.2092  -13.6625 O   0  0  0  0  0  0  0  0  0  0  0  0
   24.8776  -21.7595  -12.7354 N   0  0  0  0  0  0  0  0  0  0  0  0
   23.8858  -21.2539  -11.7667 C   0  0  1  0  0  0  0  0  0  0  0  0
   24.7040  -20.5715  -10.6845 C   0  0  0  0  0  0  0  0  0  0  0  0
   25.7736  -21.7023   -9.7788 S   0  0  0  0  0  0  0  0  0  0  0  0
   23.0644  -20.2450  -12.4559 C   0  0  0  0  0  0  0  0  0  0  0  0
   23.5743  -19.5473  -13.3778 O   0  0  0  0  0  0  0  0  0  0  0  0
   21.6975  -19.9683  -12.1750 N   0  0  0  0  0  0  0  0  0  0  0  0
   20.6969  -19.7701  -13.2058 C   0  0  1  0  0  0  0  0  0  0  0  0
   20.6402  -21.0034  -14.0600 C   0  0  0  0  0  0  0  0  0  0  0  0
   19.7178  -20.9444  -15.2199 C   0  0  0  0  0  0  0  0  0  0  0  0
   19.6965  -22.1466  -16.0455 C   0  0  0  0  0  0  0  0  0  0  0  0
   18.6951  -22.8935  -16.1176 O   0  0  0  0  0  0  0  0  0  0  0  0
   19.3349  -19.5909  -12.5858 C   0  0  0  0  0  0  0  0  0  0  0  0
   19.0207  -20.1837  -11.5255 O   0  0  0  0  0  0  0  0  0  0  0  0
   20.8662  -22.4363  -16.7686 O   0  0  0  0  0  0  0  0  0  0  0  0
   18.3663  -18.7721  -13.1451 O   0  0  0  0  0  0  0  0  0  0  0  0
  2  3  1  1
  2  1  1  0
  4  2  1  0
  4  5  1  6
  6  4  1  0
  7  6  2  0
  8  6  1  0
  9 12  1  0
  9  8  1  0
  9 10  1  1
 11 10  1  0
 12 14  1  0
 13 12  2  0
 14 15  1  0
 15 16  1  6
 15 20  1  0
 16 17  1  0
 17 18  1  0
 18 22  1  0
 19 18  2  0
 20 21  2  0
 20 23  1  0
M  END
$$$$
