VCE.pdb
     RDKit          3D

 23 22  0  0  1  0  0  0  0  0999 V2000
   18.0907  -13.0743  -19.7732 C   0  0  0  0  0  0  0  0  0  0  0  0
   18.1838  -12.3595  -18.4492 C   0  0  2  0  0  0  0  0  0  0  0  0
   16.7873  -12.0280  -17.9564 C   0  0  0  0  0  0  0  0  0  0  0  0
   18.9911  -11.0809  -18.5695 C   0  0  2  0  0  0  0  0  0  0  0  0
   20.2627  -11.4058  -19.1865 N   0  0  0  0  0  0  0  0  0  0  0  0
   19.2644  -10.5256  -17.2224 C   0  0  0  0  0  0  0  0  0  0  0  0
   18.3085  -10.2259  -16.4291 O   0  0  0  0  0  0  0  0  0  0  0  0
   20.5638  -10.3013  -16.7492 N   0  0  0  0  0  0  0  0  0  0  0  0
   20.8390   -9.5894  -15.4862 C   0  0  1  0  0  0  0  0  0  0  0  0
   22.1645  -10.1481  -14.9994 C   0  0  0  0  0  0  0  0  0  0  0  0
   22.7927   -9.3174  -13.5302 S   0  0  0  0  0  0  0  0  0  0  0  0
   21.0079   -8.1625  -15.8070 C   0  0  0  0  0  0  0  0  0  0  0  0
   21.6527   -7.8261  -16.8403 O   0  0  0  0  0  0  0  0  0  0  0  0
   20.4949   -7.0818  -15.0372 N   0  0  0  0  0  0  0  0  0  0  0  0
   20.7577   -5.6893  -15.3450 C   0  0  1  0  0  0  0  0  0  0  0  0
   19.4841   -4.9133  -15.1725 C   0  0  0  0  0  0  0  0  0  0  0  0
   19.5969   -3.4428  -15.3295 C   0  0  0  0  0  0  0  0  0  0  0  0
   18.3579   -2.7073  -15.1029 C   0  0  0  0  0  0  0  0  0  0  0  0
   17.2842   -3.2768  -14.8054 O   0  0  0  0  0  0  0  0  0  0  0  0
   21.7642   -5.1202  -14.3781 C   0  0  0  0  0  0  0  0  0  0  0  0
   22.3393   -4.0288  -14.6067 O   0  0  0  0  0  0  0  0  0  0  0  0
   18.4209   -1.3095  -15.2346 O   0  0  0  0  0  0  0  0  0  0  0  0
   22.1058   -5.7624  -13.1981 O   0  0  0  0  0  0  0  0  0  0  0  0
  2  3  1  6
  2  1  1  0
  4  2  1  0
  4  5  1  1
  6  4  1  0
  7  6  2  0
  8  6  1  0
  9 12  1  0
  9  8  1  0
  9 10  1  6
 11 10  1  0
 12 14  1  0
 13 12  2  0
 14 15  1  0
 15 16  1  1
 15 20  1  0
 16 17  1  0
 17 18  1  0
 18 22  1  0
 19 18  2  0
 20 21  2  0
 20 23  1  0
M  END
$$$$
