VCE.pdb
     RDKit          3D

 23 22  0  0  1  0  0  0  0  0999 V2000
   17.4973  -11.7778  -18.0682 C   0  0  0  0  0  0  0  0  0  0  0  0
   18.7260  -11.4032  -18.8572 C   0  0  2  0  0  0  0  0  0  0  0  0
   19.1486  -12.5783  -19.7194 C   0  0  0  0  0  0  0  0  0  0  0  0
   19.8710  -11.0145  -17.9412 C   0  0  2  0  0  0  0  0  0  0  0  0
   20.1778  -12.1509  -17.0941 N   0  0  0  0  0  0  0  0  0  0  0  0
   19.4610   -9.8894  -17.0672 C   0  0  0  0  0  0  0  0  0  0  0  0
   19.1802   -8.7440  -17.5592 O   0  0  0  0  0  0  0  0  0  0  0  0
   19.3595  -10.0146  -15.6756 N   0  0  0  0  0  0  0  0  0  0  0  0
   19.0420   -8.8737  -14.7950 C   0  0  1  0  0  0  0  0  0  0  0  0
   18.6479   -9.4979  -13.4678 C   0  0  0  0  0  0  0  0  0  0  0  0
   18.6051   -8.3171  -12.1087 S   0  0  0  0  0  0  0  0  0  0  0  0
   20.2781   -8.0953  -14.6115 C   0  0  0  0  0  0  0  0  0  0  0  0
   21.3706   -8.6961  -14.4061 O   0  0  0  0  0  0  0  0  0  0  0  0
   20.3668   -6.6759  -14.6451 N   0  0  0  0  0  0  0  0  0  0  0  0
   21.6136   -5.9519  -14.4903 C   0  0  1  0  0  0  0  0  0  0  0  0
   21.6468   -4.8370  -15.4952 C   0  0  0  0  0  0  0  0  0  0  0  0
   22.8153   -3.9274  -15.4132 C   0  0  0  0  0  0  0  0  0  0  0  0
   22.8127   -2.8400  -16.3854 C   0  0  0  0  0  0  0  0  0  0  0  0
   21.9195   -2.7180  -17.2532 O   0  0  0  0  0  0  0  0  0  0  0  0
   21.6884   -5.3245  -13.1218 C   0  0  0  0  0  0  0  0  0  0  0  0
   20.6538   -5.1294  -12.4394 O   0  0  0  0  0  0  0  0  0  0  0  0
   23.8721   -1.9200  -16.3058 O   0  0  0  0  0  0  0  0  0  0  0  0
   22.8885   -4.9335  -12.5488 O   0  0  0  0  0  0  0  0  0  0  0  0
  2  3  1  1
  2  1  1  0
  4  2  1  0
  4  5  1  1
  6  4  1  0
  7  6  2  0
  8  6  1  0
  9 12  1  0
  9  8  1  0
  9 10  1  1
 11 10  1  0
 12 14  1  0
 13 12  2  0
 14 15  1  0
 15 16  1  6
 15 20  1  0
 16 17  1  0
 17 18  1  0
 18 22  1  0
 19 18  2  0
 20 21  2  0
 20 23  1  0
M  END
$$$$
