VCE.pdb
     RDKit          3D

 23 22  0  0  1  0  0  0  0  0999 V2000
   22.6963  -14.3762  -17.8873 C   0  0  0  0  0  0  0  0  0  0  0  0
   21.3554  -13.7624  -18.2002 C   0  0  2  0  0  0  0  0  0  0  0  0
   20.7760  -14.4220  -19.4380 C   0  0  0  0  0  0  0  0  0  0  0  0
   21.4754  -12.2687  -18.4362 C   0  0  2  0  0  0  0  0  0  0  0  0
   22.3790  -12.0585  -19.5509 N   0  0  0  0  0  0  0  0  0  0  0  0
   22.0605  -11.6127  -17.2425 C   0  0  0  0  0  0  0  0  0  0  0  0
   21.4703  -11.6622  -16.1101 O   0  0  0  0  0  0  0  0  0  0  0  0
   23.2732  -10.9125  -17.2859 N   0  0  0  0  0  0  0  0  0  0  0  0
   23.7648  -10.1015  -16.1552 C   0  0  1  0  0  0  0  0  0  0  0  0
   25.2500   -9.9210  -16.4159 C   0  0  0  0  0  0  0  0  0  0  0  0
   26.2283  -11.3767  -16.0075 S   0  0  0  0  0  0  0  0  0  0  0  0
   23.1015   -8.7892  -16.2268 C   0  0  0  0  0  0  0  0  0  0  0  0
   22.7195   -8.3420  -17.3453 O   0  0  0  0  0  0  0  0  0  0  0  0
   22.8369   -7.9415  -15.1155 N   0  0  0  0  0  0  0  0  0  0  0  0
   22.0729   -6.7130  -15.2149 C   0  0  1  0  0  0  0  0  0  0  0  0
   20.6459   -7.0615  -15.5251 C   0  0  0  0  0  0  0  0  0  0  0  0
   19.7301   -5.9132  -15.7310 C   0  0  0  0  0  0  0  0  0  0  0  0
   18.3556   -6.2783  -16.0551 C   0  0  0  0  0  0  0  0  0  0  0  0
   17.9904   -7.4679  -16.1864 O   0  0  0  0  0  0  0  0  0  0  0  0
   22.0799   -5.9837  -13.8958 C   0  0  0  0  0  0  0  0  0  0  0  0
   22.2862   -6.5924  -12.8182 O   0  0  0  0  0  0  0  0  0  0  0  0
   17.4435   -5.2214  -16.2165 O   0  0  0  0  0  0  0  0  0  0  0  0
   21.8618   -4.6181  -13.8012 O   0  0  0  0  0  0  0  0  0  0  0  0
  2  3  1  6
  2  1  1  0
  4  2  1  0
  4  5  1  6
  6  4  1  0
  7  6  2  0
  8  6  1  0
  9 12  1  0
  9  8  1  0
  9 10  1  6
 11 10  1  0
 12 14  1  0
 13 12  2  0
 14 15  1  0
 15 16  1  1
 15 20  1  0
 16 17  1  0
 17 18  1  0
 18 22  1  0
 19 18  2  0
 20 21  2  0
 20 23  1  0
M  END
$$$$
