VCE.pdb
     RDKit          3D

 23 22  0  0  1  0  0  0  0  0999 V2000
   18.7939  -13.9047  -17.1287 C   0  0  0  0  0  0  0  0  0  0  0  0
   18.6820  -12.4070  -16.9987 C   0  0  2  0  0  0  0  0  0  0  0  0
   20.0365  -11.7759  -17.2630 C   0  0  0  0  0  0  0  0  0  0  0  0
   18.2033  -12.0089  -15.6155 C   0  0  2  0  0  0  0  0  0  0  0  0
   16.9022  -12.6112  -15.3969 N   0  0  0  0  0  0  0  0  0  0  0  0
   18.0452  -10.5369  -15.5383 C   0  0  0  0  0  0  0  0  0  0  0  0
   17.2544   -9.9188  -16.3293 O   0  0  0  0  0  0  0  0  0  0  0  0
   18.7414   -9.7519  -14.6101 N   0  0  0  0  0  0  0  0  0  0  0  0
   18.6187   -8.2821  -14.5598 C   0  0  1  0  0  0  0  0  0  0  0  0
   17.6597   -8.0054  -13.4152 C   0  0  0  0  0  0  0  0  0  0  0  0
   18.2299   -8.6527  -11.8343 S   0  0  0  0  0  0  0  0  0  0  0  0
   19.9429   -7.7360  -14.2198 C   0  0  0  0  0  0  0  0  0  0  0  0
   20.6987   -8.3734  -13.4330 O   0  0  0  0  0  0  0  0  0  0  0  0
   20.4768   -6.5122  -14.7108 N   0  0  0  0  0  0  0  0  0  0  0  0
   21.7666   -5.9869  -14.3066 C   0  0  1  0  0  0  0  0  0  0  0  0
   22.1865   -4.9382  -15.2954 C   0  0  0  0  0  0  0  0  0  0  0  0
   21.4211   -3.6685  -15.2552 C   0  0  0  0  0  0  0  0  0  0  0  0
   21.5652   -2.8302  -16.4401 C   0  0  0  0  0  0  0  0  0  0  0  0
   22.3950   -3.0810  -17.3426 O   0  0  0  0  0  0  0  0  0  0  0  0
   21.6607   -5.3174  -12.9604 C   0  0  0  0  0  0  0  0  0  0  0  0
   20.5462   -5.0048  -12.4763 O   0  0  0  0  0  0  0  0  0  0  0  0
   20.7198   -1.7110  -16.5279 O   0  0  0  0  0  0  0  0  0  0  0  0
   22.7741   -5.0137  -12.1925 O   0  0  0  0  0  0  0  0  0  0  0  0
  2  3  1  1
  2  1  1  0
  4  2  1  0
  4  5  1  6
  6  4  1  0
  7  6  2  0
  8  6  1  0
  9 12  1  0
  9  8  1  0
  9 10  1  1
 11 10  1  0
 12 14  1  0
 13 12  2  0
 14 15  1  0
 15 16  1  6
 15 20  1  0
 16 17  1  0
 17 18  1  0
 18 22  1  0
 19 18  2  0
 20 21  2  0
 20 23  1  0
M  END
$$$$
