VCE.pdb
     RDKit          3D

 23 22  0  0  1  0  0  0  0  0999 V2000
   25.4622  -15.7777  -15.7816 C   0  0  0  0  0  0  0  0  0  0  0  0
   24.8061  -14.4844  -16.1935 C   0  0  2  0  0  0  0  0  0  0  0  0
   24.6474  -13.5905  -14.9775 C   0  0  0  0  0  0  0  0  0  0  0  0
   23.4453  -14.7316  -16.8166 C   0  0  2  0  0  0  0  0  0  0  0  0
   23.6192  -15.6348  -17.9379 N   0  0  0  0  0  0  0  0  0  0  0  0
   22.8870  -13.4600  -17.3353 C   0  0  0  0  0  0  0  0  0  0  0  0
   23.4648  -12.8272  -18.2833 O   0  0  0  0  0  0  0  0  0  0  0  0
   21.7142  -12.8884  -16.8251 N   0  0  0  0  0  0  0  0  0  0  0  0
   21.1505  -11.6284  -17.3472 C   0  0  1  0  0  0  0  0  0  0  0  0
   19.8121  -12.0157  -17.9512 C   0  0  0  0  0  0  0  0  0  0  0  0
   19.9577  -12.7958  -19.5678 S   0  0  0  0  0  0  0  0  0  0  0  0
   20.9194  -10.7349  -16.2002 C   0  0  0  0  0  0  0  0  0  0  0  0
   20.3535  -11.1827  -15.1630 O   0  0  0  0  0  0  0  0  0  0  0  0
   21.2865   -9.3617  -16.1425 N   0  0  0  0  0  0  0  0  0  0  0  0
   21.0583   -8.5244  -14.9807 C   0  0  1  0  0  0  0  0  0  0  0  0
   21.8402   -7.2535  -15.1467 C   0  0  0  0  0  0  0  0  0  0  0  0
   21.6784   -6.2494  -14.0673 C   0  0  0  0  0  0  0  0  0  0  0  0
   22.3937   -4.9971  -14.2853 C   0  0  0  0  0  0  0  0  0  0  0  0
   23.3164   -4.8886  -15.1237 O   0  0  0  0  0  0  0  0  0  0  0  0
   19.6024   -8.1462  -14.8856 C   0  0  0  0  0  0  0  0  0  0  0  0
   18.8930   -8.0297  -15.9139 O   0  0  0  0  0  0  0  0  0  0  0  0
   21.9975   -3.8995  -13.5022 O   0  0  0  0  0  0  0  0  0  0  0  0
   18.9745   -7.9090  -13.6727 O   0  0  0  0  0  0  0  0  0  0  0  0
  2  3  1  1
  2  1  1  0
  4  2  1  0
  4  5  1  6
  6  4  1  0
  7  6  2  0
  8  6  1  0
  9 12  1  0
  9  8  1  0
  9 10  1  1
 11 10  1  0
 12 14  1  0
 13 12  2  0
 14 15  1  0
 15 16  1  6
 15 20  1  0
 16 17  1  0
 17 18  1  0
 18 22  1  0
 19 18  2  0
 20 21  2  0
 20 23  1  0
M  END
$$$$
