YAM.pdb
     RDKit          3D

 26 26  0  0  1  0  0  0  0  0999 V2000
   29.9066  -10.8678  -16.0665 O   0  0  0  0  0  0  0  0  0  0  0  0
   28.6540  -10.2659  -16.1908 C   0  0  0  0  0  0  0  0  0  0  0  0
   27.6511  -10.7308  -15.3549 C   0  0  0  0  0  0  0  0  0  0  0  0
   26.3919  -10.1748  -15.4316 C   0  0  0  0  0  0  0  0  0  0  0  0
   26.1734   -9.1624  -16.3500 C   0  0  0  0  0  0  0  0  0  0  0  0
   24.8368   -8.5621  -16.4417 C   0  0  0  0  0  0  0  0  0  0  0  0
   23.7887   -9.5635  -16.9368 C   0  0  2  0  0  0  0  0  0  0  0  0
   24.3044  -10.0944  -18.1826 N   0  0  0  0  0  0  0  0  0  0  0  0
   22.5400   -8.7874  -17.1425 C   0  0  0  0  0  0  0  0  0  0  0  0
   22.5027   -7.9972  -18.1167 O   0  0  0  0  0  0  0  0  0  0  0  0
   27.1623   -8.6909  -17.1870 C   0  0  0  0  0  0  0  0  0  0  0  0
   28.4111   -9.2583  -17.0951 C   0  0  0  0  0  0  0  0  0  0  0  0
   19.0795   -8.8974  -15.7077 C   0  0  0  0  0  0  0  0  0  0  0  0
   20.1583   -8.2150  -16.5556 C   0  0  2  0  0  0  0  0  0  0  0  0
   21.3980   -8.8851  -16.3113 N   0  0  0  0  0  0  0  0  0  0  0  0
   20.2511   -6.7743  -16.0971 C   0  0  0  0  0  0  0  0  0  0  0  0
   20.8349   -6.4723  -15.0450 O   0  0  0  0  0  0  0  0  0  0  0  0
   21.8524   -2.6237  -21.1918 C   0  0  0  0  0  0  0  0  0  0  0  0
   20.4104   -2.4046  -20.1166 S   0  0  0  0  0  0  0  0  0  0  0  0
   20.6589   -3.4997  -18.6641 C   0  0  0  0  0  0  0  0  0  0  0  0
   19.4792   -3.4309  -17.7342 C   0  0  0  0  0  0  0  0  0  0  0  0
   19.6609   -4.3352  -16.5505 C   0  0  2  0  0  0  0  0  0  0  0  0
   19.6799   -5.7313  -16.8463 N   0  0  0  0  0  0  0  0  0  0  0  0
   18.5588   -4.1115  -15.5997 C   0  0  0  0  0  0  0  0  0  0  0  0
   18.3723   -2.9797  -15.0342 O   0  0  0  0  0  0  0  0  0  0  0  0
   17.6358   -5.0968  -15.2370 O   0  0  0  0  0  0  0  0  0  0  0  0
  1  2  1  0
  2 12  2  0
  3  4  2  0
  3  2  1  0
  4  5  1  0
  5  6  1  0
  5 11  2  0
  7  8  1  6
  7  6  1  0
  7  9  1  0
  9 10  2  0
 12 11  1  0
 14 13  1  1
 14 16  1  0
 15  9  1  0
 15 14  1  0
 16 17  2  0
 18 19  1  0
 20 19  1  0
 21 20  1  0
 22 21  1  6
 22 24  1  0
 23 16  1  0
 23 22  1  0
 24 26  1  0
 25 24  2  0
M  END
$$$$
