YAM.pdb
     RDKit          3D

 26 26  0  0  1  0  0  0  0  0999 V2000
   20.9492  -28.7302  -11.5109 O   0  0  0  0  0  0  0  0  0  0  0  0
   21.6120  -29.7050  -10.7642 C   0  0  0  0  0  0  0  0  0  0  0  0
   22.5712  -29.2612   -9.8678 C   0  0  0  0  0  0  0  0  0  0  0  0
   23.2596  -30.1777   -9.1019 C   0  0  0  0  0  0  0  0  0  0  0  0
   22.9644  -31.5212   -9.2580 C   0  0  0  0  0  0  0  0  0  0  0  0
   23.6907  -32.5073   -8.4485 C   0  0  0  0  0  0  0  0  0  0  0  0
   25.1953  -32.4923   -8.7359 C   0  0  2  0  0  0  0  0  0  0  0  0
   25.3581  -33.1211  -10.0312 N   0  0  0  0  0  0  0  0  0  0  0  0
   25.8308  -33.2853   -7.6537 C   0  0  0  0  0  0  0  0  0  0  0  0
   25.9489  -34.5215   -7.8339 O   0  0  0  0  0  0  0  0  0  0  0  0
   22.0126  -31.9755  -10.1460 C   0  0  0  0  0  0  0  0  0  0  0  0
   21.3371  -31.0458  -10.9005 C   0  0  0  0  0  0  0  0  0  0  0  0
   27.3512  -32.5122   -4.2948 C   0  0  0  0  0  0  0  0  0  0  0  0
   26.8997  -33.4929   -5.3824 C   0  0  2  0  0  0  0  0  0  0  0  0
   26.3078  -32.7337   -6.4400 N   0  0  0  0  0  0  0  0  0  0  0  0
   25.8652  -34.4105   -4.7639 C   0  0  0  0  0  0  0  0  0  0  0  0
   24.6742  -34.0730   -4.6844 O   0  0  0  0  0  0  0  0  0  0  0  0
   28.6746  -39.2145   -0.1856 C   0  0  0  0  0  0  0  0  0  0  0  0
   27.6147  -39.4759   -1.6319 S   0  0  0  0  0  0  0  0  0  0  0  0
   26.9583  -37.8305   -2.1143 C   0  0  0  0  0  0  0  0  0  0  0  0
   26.0407  -37.9473   -3.2997 C   0  0  0  0  0  0  0  0  0  0  0  0
   25.3834  -36.6357   -3.6153 C   0  0  2  0  0  0  0  0  0  0  0  0
   26.2182  -35.6740   -4.2596 N   0  0  0  0  0  0  0  0  0  0  0  0
   24.9066  -36.0224   -2.3641 C   0  0  0  0  0  0  0  0  0  0  0  0
   23.7875  -36.3453   -1.8359 O   0  0  0  0  0  0  0  0  0  0  0  0
   25.6203  -35.0514   -1.6555 O   0  0  0  0  0  0  0  0  0  0  0  0
  1  2  1  0
  2 12  2  0
  3  4  2  0
  3  2  1  0
  4  5  1  0
  5  6  1  0
  5 11  2  0
  7  8  1  6
  7  6  1  0
  7  9  1  0
  9 10  2  0
 12 11  1  0
 14 13  1  1
 14 16  1  0
 15  9  1  0
 15 14  1  0
 16 17  2  0
 18 19  1  0
 20 19  1  0
 21 20  1  0
 22 21  1  1
 22 24  1  0
 23 16  1  0
 23 22  1  0
 24 26  1  0
 25 24  2  0
M  END
$$$$
