YAM.pdb
     RDKit          3D

 26 26  0  0  1  0  0  0  0  0999 V2000
   23.4475  -21.8646   -8.1224 O   0  0  0  0  0  0  0  0  0  0  0  0
   24.0634  -21.3590   -9.2678 C   0  0  0  0  0  0  0  0  0  0  0  0
   23.2507  -21.1356  -10.3680 C   0  0  0  0  0  0  0  0  0  0  0  0
   23.8023  -20.6368  -11.5288 C   0  0  0  0  0  0  0  0  0  0  0  0
   25.1614  -20.3748  -11.5530 C   0  0  0  0  0  0  0  0  0  0  0  0
   25.7611  -19.8437  -12.7833 C   0  0  0  0  0  0  0  0  0  0  0  0
   25.7130  -20.8568  -13.9312 C   0  0  2  0  0  0  0  0  0  0  0  0
   26.8347  -21.7496  -13.7197 N   0  0  0  0  0  0  0  0  0  0  0  0
   25.8610  -20.0714  -15.1822 C   0  0  0  0  0  0  0  0  0  0  0  0
   26.9913  -19.5869  -15.4321 O   0  0  0  0  0  0  0  0  0  0  0  0
   25.9806  -20.5925  -10.4657 C   0  0  0  0  0  0  0  0  0  0  0  0
   25.4114  -21.0902   -9.3175 C   0  0  0  0  0  0  0  0  0  0  0  0
   24.0001  -19.7701  -18.3563 C   0  0  0  0  0  0  0  0  0  0  0  0
   24.9591  -19.1388  -17.3413 C   0  0  2  0  0  0  0  0  0  0  0  0
   24.8108  -19.8387  -16.1029 N   0  0  0  0  0  0  0  0  0  0  0  0
   24.5476  -17.6912  -17.1687 C   0  0  0  0  0  0  0  0  0  0  0  0
   23.5324  -17.3853  -16.5247 O   0  0  0  0  0  0  0  0  0  0  0  0
   28.1087  -11.9335  -16.9184 C   0  0  0  0  0  0  0  0  0  0  0  0
   28.3861  -13.5100  -16.0693 S   0  0  0  0  0  0  0  0  0  0  0  0
   26.8169  -14.4566  -16.1796 C   0  0  0  0  0  0  0  0  0  0  0  0
   26.2296  -14.3596  -17.5604 C   0  0  0  0  0  0  0  0  0  0  0  0
   25.0273  -15.2455  -17.7081 C   0  0  2  0  0  0  0  0  0  0  0  0
   25.3003  -16.6461  -17.7312 N   0  0  0  0  0  0  0  0  0  0  0  0
   24.3411  -14.9198  -18.9698 C   0  0  0  0  0  0  0  0  0  0  0  0
   24.5781  -15.5570  -20.0531 O   0  0  0  0  0  0  0  0  0  0  0  0
   23.3877  -13.9050  -19.0943 O   0  0  0  0  0  0  0  0  0  0  0  0
  1  2  1  0
  2 12  2  0
  3  4  2  0
  3  2  1  0
  4  5  1  0
  5  6  1  0
  5 11  2  0
  7  8  1  1
  7  6  1  0
  7  9  1  0
  9 10  2  0
 12 11  1  0
 14 13  1  6
 14 16  1  0
 15  9  1  0
 15 14  1  0
 16 17  2  0
 18 19  1  0
 20 19  1  0
 21 20  1  0
 22 21  1  6
 22 24  1  0
 23 16  1  0
 23 22  1  0
 24 26  1  0
 25 24  2  0
M  END
$$$$
