YAM.pdb
     RDKit          3D

 26 26  0  0  1  0  0  0  0  0999 V2000
   22.2849   -3.2642  -16.5930 O   0  0  0  0  0  0  0  0  0  0  0  0
   21.5385   -4.0282  -15.6951 C   0  0  0  0  0  0  0  0  0  0  0  0
   21.5815   -5.4038  -15.8582 C   0  0  0  0  0  0  0  0  0  0  0  0
   20.8643   -6.2112  -15.0014 C   0  0  0  0  0  0  0  0  0  0  0  0
   20.1201   -5.6122  -13.9995 C   0  0  0  0  0  0  0  0  0  0  0  0
   19.3516   -6.4610  -13.0806 C   0  0  0  0  0  0  0  0  0  0  0  0
   19.8778   -6.3784  -11.6443 C   0  0  2  0  0  0  0  0  0  0  0  0
   21.1018   -7.1537  -11.6249 N   0  0  0  0  0  0  0  0  0  0  0  0
   18.8287   -6.9816  -10.7844 C   0  0  0  0  0  0  0  0  0  0  0  0
   18.7312   -8.2327  -10.7805 O   0  0  0  0  0  0  0  0  0  0  0  0
   20.0690   -4.2453  -13.8266 C   0  0  0  0  0  0  0  0  0  0  0  0
   20.7912   -3.4575  -14.6913 C   0  0  0  0  0  0  0  0  0  0  0  0
   16.2764   -5.6720   -8.3443 C   0  0  0  0  0  0  0  0  0  0  0  0
   16.9279   -6.8075   -9.1409 C   0  0  2  0  0  0  0  0  0  0  0  0
   17.9389   -6.2349   -9.9749 N   0  0  0  0  0  0  0  0  0  0  0  0
   15.8487   -7.4380   -9.9966 C   0  0  0  0  0  0  0  0  0  0  0  0
   15.4920   -6.9184  -11.0651 O   0  0  0  0  0  0  0  0  0  0  0  0
   10.8994  -13.6259  -10.6754 C   0  0  0  0  0  0  0  0  0  0  0  0
   12.1658  -12.8791   -9.6161 S   0  0  0  0  0  0  0  0  0  0  0  0
   12.6261  -11.2772  -10.3862 C   0  0  0  0  0  0  0  0  0  0  0  0
   13.7921  -10.6546   -9.6695 C   0  0  0  0  0  0  0  0  0  0  0  0
   14.1710   -9.3373  -10.2804 C   0  0  2  0  0  0  0  0  0  0  0  0
   15.2149   -8.6315   -9.6105 N   0  0  0  0  0  0  0  0  0  0  0  0
   12.9924   -8.4544  -10.2911 C   0  0  0  0  0  0  0  0  0  0  0  0
   12.6881   -7.7199   -9.2893 O   0  0  0  0  0  0  0  0  0  0  0  0
   12.1175   -8.3422  -11.3756 O   0  0  0  0  0  0  0  0  0  0  0  0
  1  2  1  0
  2 12  2  0
  3  4  2  0
  3  2  1  0
  4  5  1  0
  5  6  1  0
  5 11  2  0
  7  8  1  6
  7  6  1  0
  7  9  1  0
  9 10  2  0
 12 11  1  0
 14 13  1  6
 14 16  1  0
 15  9  1  0
 15 14  1  0
 16 17  2  0
 18 19  1  0
 20 19  1  0
 21 20  1  0
 22 21  1  1
 22 24  1  0
 23 16  1  0
 23 22  1  0
 24 26  1  0
 25 24  2  0
M  END
$$$$
