YAM.pdb
     RDKit          3D

 26 26  0  0  1  0  0  0  0  0999 V2000
   21.3947  -23.2191  -14.3238 O   0  0  0  0  0  0  0  0  0  0  0  0
   22.3646  -23.9579  -15.0022 C   0  0  0  0  0  0  0  0  0  0  0  0
   22.8402  -23.4242  -16.1895 C   0  0  0  0  0  0  0  0  0  0  0  0
   23.7995  -24.1086  -16.9049 C   0  0  0  0  0  0  0  0  0  0  0  0
   24.2572  -25.3160  -16.4058 C   0  0  0  0  0  0  0  0  0  0  0  0
   25.2785  -26.0549  -17.1583 C   0  0  0  0  0  0  0  0  0  0  0  0
   26.6309  -26.0622  -16.4389 C   0  0  2  0  0  0  0  0  0  0  0  0
   27.1481  -24.7133  -16.5525 N   0  0  0  0  0  0  0  0  0  0  0  0
   27.4793  -27.0414  -17.1635 C   0  0  0  0  0  0  0  0  0  0  0  0
   28.1652  -26.6150  -18.1240 O   0  0  0  0  0  0  0  0  0  0  0  0
   23.7924  -25.8577  -15.2262 C   0  0  0  0  0  0  0  0  0  0  0  0
   22.8360  -25.1598  -14.5277 C   0  0  0  0  0  0  0  0  0  0  0  0
   28.8556  -30.3794  -16.3798 C   0  0  0  0  0  0  0  0  0  0  0  0
   28.4723  -29.3399  -17.4386 C   0  0  2  0  0  0  0  0  0  0  0  0
   27.5599  -28.4170  -16.8377 N   0  0  0  0  0  0  0  0  0  0  0  0
   27.7892  -30.0777  -18.5715 C   0  0  0  0  0  0  0  0  0  0  0  0
   26.5614  -30.2544  -18.5738 O   0  0  0  0  0  0  0  0  0  0  0  0
   30.8710  -33.3126  -23.8002 C   0  0  0  0  0  0  0  0  0  0  0  0
   29.6252  -32.2031  -24.5076 S   0  0  0  0  0  0  0  0  0  0  0  0
   28.3734  -31.9053  -23.1979 C   0  0  0  0  0  0  0  0  0  0  0  0
   29.0180  -31.3496  -21.9583 C   0  0  0  0  0  0  0  0  0  0  0  0
   28.0306  -31.2275  -20.8348 C   0  0  2  0  0  0  0  0  0  0  0  0
   28.5214  -30.5869  -19.6577 N   0  0  0  0  0  0  0  0  0  0  0  0
   27.5836  -32.5734  -20.4379 C   0  0  0  0  0  0  0  0  0  0  0  0
   26.4922  -33.0794  -20.8721 O   0  0  0  0  0  0  0  0  0  0  0  0
   28.2980  -33.4025  -19.5680 O   0  0  0  0  0  0  0  0  0  0  0  0
  1  2  1  0
  2 12  2  0
  3  4  2  0
  3  2  1  0
  4  5  1  0
  5  6  1  0
  5 11  2  0
  7  8  1  6
  7  6  1  0
  7  9  1  0
  9 10  2  0
 12 11  1  0
 14 13  1  1
 14 16  1  0
 15  9  1  0
 15 14  1  0
 16 17  2  0
 18 19  1  0
 20 19  1  0
 21 20  1  0
 22 21  1  6
 22 24  1  0
 23 16  1  0
 23 22  1  0
 24 26  1  0
 25 24  2  0
M  END
$$$$
