YAM.pdb
     RDKit          3D

 26 26  0  0  1  0  0  0  0  0999 V2000
   21.8262   -2.0224  -15.1253 O   0  0  0  0  0  0  0  0  0  0  0  0
   21.6958   -3.4104  -15.0660 C   0  0  0  0  0  0  0  0  0  0  0  0
   20.9381   -4.0102  -16.0594 C   0  0  0  0  0  0  0  0  0  0  0  0
   20.7732   -5.3790  -16.0535 C   0  0  0  0  0  0  0  0  0  0  0  0
   21.3767   -6.1111  -15.0455 C   0  0  0  0  0  0  0  0  0  0  0  0
   21.2085   -7.5694  -15.0279 C   0  0  0  0  0  0  0  0  0  0  0  0
   19.7602   -7.9786  -14.7421 C   0  0  2  0  0  0  0  0  0  0  0  0
   19.5693   -7.7934  -13.3176 N   0  0  0  0  0  0  0  0  0  0  0  0
   19.6492   -9.4065  -15.1328 C   0  0  0  0  0  0  0  0  0  0  0  0
   20.0479  -10.2653  -14.3093 O   0  0  0  0  0  0  0  0  0  0  0  0
   22.1328   -5.5266  -14.0518 C   0  0  0  0  0  0  0  0  0  0  0  0
   22.2853   -4.1606  -14.0753 C   0  0  0  0  0  0  0  0  0  0  0  0
   18.0833  -11.3053  -17.9656 C   0  0  0  0  0  0  0  0  0  0  0  0
   19.0256  -11.2255  -16.7597 C   0  0  2  0  0  0  0  0  0  0  0  0
   19.1243   -9.8531  -16.3696 N   0  0  0  0  0  0  0  0  0  0  0  0
   20.3802  -11.7334  -17.2087 C   0  0  0  0  0  0  0  0  0  0  0  0
   21.1801  -10.9913  -17.7990 O   0  0  0  0  0  0  0  0  0  0  0  0
   26.7846  -15.7500  -15.7925 C   0  0  0  0  0  0  0  0  0  0  0  0
   25.2285  -15.0945  -15.1349 S   0  0  0  0  0  0  0  0  0  0  0  0
   24.1758  -14.6747  -16.5793 C   0  0  0  0  0  0  0  0  0  0  0  0
   22.9270  -13.9607  -16.1416 C   0  0  0  0  0  0  0  0  0  0  0  0
   22.0166  -13.6869  -17.3028 C   0  0  2  0  0  0  0  0  0  0  0  0
   20.7774  -13.0607  -16.9725 N   0  0  0  0  0  0  0  0  0  0  0  0
   21.6918  -14.9586  -17.9706 C   0  0  0  0  0  0  0  0  0  0  0  0
   22.3303  -15.3637  -19.0021 O   0  0  0  0  0  0  0  0  0  0  0  0
   20.6764  -15.8203  -17.5455 O   0  0  0  0  0  0  0  0  0  0  0  0
  1  2  1  0
  2 12  2  0
  3  4  2  0
  3  2  1  0
  4  5  1  0
  5  6  1  0
  5 11  2  0
  7  8  1  1
  7  6  1  0
  7  9  1  0
  9 10  2  0
 12 11  1  0
 14 13  1  6
 14 16  1  0
 15  9  1  0
 15 14  1  0
 16 17  2  0
 18 19  1  0
 20 19  1  0
 21 20  1  0
 22 21  1  1
 22 24  1  0
 23 16  1  0
 23 22  1  0
 24 26  1  0
 25 24  2  0
M  END
$$$$
