YAM.pdb
     RDKit          3D

 26 26  0  0  1  0  0  0  0  0999 V2000
   22.4099  -22.5150   -6.3796 O   0  0  0  0  0  0  0  0  0  0  0  0
   23.1698  -21.9244   -7.3898 C   0  0  0  0  0  0  0  0  0  0  0  0
   22.6655  -22.0023   -8.6783 C   0  0  0  0  0  0  0  0  0  0  0  0
   23.3719  -21.4372   -9.7186 C   0  0  0  0  0  0  0  0  0  0  0  0
   24.5710  -20.8062   -9.4350 C   0  0  0  0  0  0  0  0  0  0  0  0
   25.3330  -20.2007  -10.5340 C   0  0  0  0  0  0  0  0  0  0  0  0
   25.7858  -21.2415  -11.5627 C   0  0  2  0  0  0  0  0  0  0  0  0
   26.9462  -21.8903  -10.9863 N   0  0  0  0  0  0  0  0  0  0  0  0
   26.1306  -20.4846  -12.7924 C   0  0  0  0  0  0  0  0  0  0  0  0
   27.0701  -19.6560  -12.7186 O   0  0  0  0  0  0  0  0  0  0  0  0
   25.0835  -20.7218   -8.1578 C   0  0  0  0  0  0  0  0  0  0  0  0
   24.3640  -21.2916   -7.1342 C   0  0  0  0  0  0  0  0  0  0  0  0
   25.4109  -20.8755  -16.4172 C   0  0  0  0  0  0  0  0  0  0  0  0
   25.8557  -19.9914  -15.2471 C   0  0  2  0  0  0  0  0  0  0  0  0
   25.4675  -20.6411  -14.0336 N   0  0  0  0  0  0  0  0  0  0  0  0
   25.1313  -18.6676  -15.3785 C   0  0  0  0  0  0  0  0  0  0  0  0
   23.9386  -18.5542  -15.0566 O   0  0  0  0  0  0  0  0  0  0  0  0
   28.4822  -13.1653  -15.9380 C   0  0  0  0  0  0  0  0  0  0  0  0
   26.9318  -12.4756  -16.5735 S   0  0  0  0  0  0  0  0  0  0  0  0
   25.6538  -13.7806  -16.3879 C   0  0  0  0  0  0  0  0  0  0  0  0
   26.2874  -15.1115  -16.0911 C   0  0  0  0  0  0  0  0  0  0  0  0
   25.2616  -16.2049  -16.0276 C   0  0  2  0  0  0  0  0  0  0  0  0
   25.7840  -17.5235  -15.8689 N   0  0  0  0  0  0  0  0  0  0  0  0
   24.4751  -16.2005  -17.2727 C   0  0  0  0  0  0  0  0  0  0  0  0
   24.8926  -16.7704  -18.3388 O   0  0  0  0  0  0  0  0  0  0  0  0
   23.2263  -15.5850  -17.3987 O   0  0  0  0  0  0  0  0  0  0  0  0
  1  2  1  0
  2 12  2  0
  3  4  2  0
  3  2  1  0
  4  5  1  0
  5  6  1  0
  5 11  2  0
  7  8  1  1
  7  6  1  0
  7  9  1  0
  9 10  2  0
 12 11  1  0
 14 13  1  6
 14 16  1  0
 15  9  1  0
 15 14  1  0
 16 17  2  0
 18 19  1  0
 20 19  1  0
 21 20  1  0
 22 21  1  6
 22 24  1  0
 23 16  1  0
 23 22  1  0
 24 26  1  0
 25 24  2  0
M  END
$$$$
