YAM.pdb
     RDKit          3D

 26 26  0  0  1  0  0  0  0  0999 V2000
   17.6590  -19.6142  -15.4732 O   0  0  0  0  0  0  0  0  0  0  0  0
   18.8622  -20.0170  -14.8926 C   0  0  0  0  0  0  0  0  0  0  0  0
   18.9120  -21.3068  -14.3879 C   0  0  0  0  0  0  0  0  0  0  0  0
   20.0741  -21.7617  -13.8022 C   0  0  0  0  0  0  0  0  0  0  0  0
   21.1595  -20.9047  -13.7391 C   0  0  0  0  0  0  0  0  0  0  0  0
   22.4028  -21.3770  -13.1176 C   0  0  0  0  0  0  0  0  0  0  0  0
   23.5393  -21.5145  -14.1354 C   0  0  2  0  0  0  0  0  0  0  0  0
   23.2211  -22.6839  -14.9299 N   0  0  0  0  0  0  0  0  0  0  0  0
   24.7813  -21.7056  -13.3451 C   0  0  0  0  0  0  0  0  0  0  0  0
   24.9213  -22.7962  -12.7402 O   0  0  0  0  0  0  0  0  0  0  0  0
   21.1229  -19.6197  -14.2374 C   0  0  0  0  0  0  0  0  0  0  0  0
   19.9549  -19.1850  -14.8176 C   0  0  0  0  0  0  0  0  0  0  0  0
   27.8738  -19.6721  -12.6508 C   0  0  0  0  0  0  0  0  0  0  0  0
   26.9383  -20.8516  -12.3639 C   0  0  2  0  0  0  0  0  0  0  0  0
   25.8091  -20.7381  -13.2342 N   0  0  0  0  0  0  0  0  0  0  0  0
   26.4919  -20.7353  -10.9211 C   0  0  0  0  0  0  0  0  0  0  0  0
   25.3641  -20.3078  -10.6310 O   0  0  0  0  0  0  0  0  0  0  0  0
   29.1475  -20.1274   -3.4984 C   0  0  0  0  0  0  0  0  0  0  0  0
   29.6391  -20.3432   -5.2291 S   0  0  0  0  0  0  0  0  0  0  0  0
   28.0923  -20.4973   -6.2060 C   0  0  0  0  0  0  0  0  0  0  0  0
   28.3986  -20.7160   -7.6618 C   0  0  0  0  0  0  0  0  0  0  0  0
   27.1444  -20.9118   -8.4622 C   0  0  2  0  0  0  0  0  0  0  0  0
   27.3384  -21.1073   -9.8626 N   0  0  0  0  0  0  0  0  0  0  0  0
   26.2845  -19.7263   -8.3081 C   0  0  0  0  0  0  0  0  0  0  0  0
   26.5726  -18.6058   -8.8533 O   0  0  0  0  0  0  0  0  0  0  0  0
   25.0994  -19.7192   -7.5666 O   0  0  0  0  0  0  0  0  0  0  0  0
  1  2  1  0
  2 12  2  0
  3  4  2  0
  3  2  1  0
  4  5  1  0
  5  6  1  0
  5 11  2  0
  7  8  1  6
  7  6  1  0
  7  9  1  0
  9 10  2  0
 12 11  1  0
 14 13  1  6
 14 16  1  0
 15  9  1  0
 15 14  1  0
 16 17  2  0
 18 19  1  0
 20 19  1  0
 21 20  1  0
 22 21  1  1
 22 24  1  0
 23 16  1  0
 23 22  1  0
 24 26  1  0
 25 24  2  0
M  END
$$$$
