SWV.pdb
     RDKit          3D

 28 29  0  0  1  0  0  0  0  0999 V2000
    8.5649  -17.8334   19.9939 O   0  0  0  0  0  0  0  0  0  0  0  0
    7.2159  -17.7281   20.3496 C   0  0  0  0  0  0  0  0  0  0  0  0
    6.9180  -16.3852   20.9128 C   0  0  2  0  0  0  0  0  0  0  0  0
    6.8041  -15.3613   19.8996 N   0  0  0  0  0  0  0  0  0  0  0  0
    7.9459  -15.9999   21.9366 C   0  0  0  0  0  0  0  0  0  0  0  0
    8.8186  -15.1130   21.6644 O   0  0  0  0  0  0  0  0  0  0  0  0
    8.0221  -16.5668   23.2247 N   0  0  0  0  0  0  0  0  0  0  0  0
    9.0946  -16.2564   24.1783 C   0  0  1  0  0  0  0  0  0  0  0  0
    8.4970  -16.2348   25.5306 C   0  0  0  0  0  0  0  0  0  0  0  0
    7.3702  -15.3000   25.7125 C   0  0  0  0  0  0  0  0  0  0  0  0
    6.0132  -15.4528   25.6615 C   0  0  0  0  0  0  0  0  0  0  0  0
    5.3710  -14.2793   25.8801 N   0  0  0  0  0  0  0  0  0  0  0  0
    6.3265  -13.3649   26.0739 C   0  0  0  0  0  0  0  0  0  0  0  0
    6.1952  -12.0007   26.3388 C   0  0  0  0  0  0  0  0  0  0  0  0
    7.3128  -11.2211   26.5108 C   0  0  0  0  0  0  0  0  0  0  0  0
    8.5787  -11.8075   26.4171 C   0  0  0  0  0  0  0  0  0  0  0  0
    8.6853  -13.1422   26.1568 C   0  0  0  0  0  0  0  0  0  0  0  0
    7.5602  -13.9389   25.9817 C   0  0  0  0  0  0  0  0  0  0  0  0
   10.2780  -17.1053   24.0155 C   0  0  0  0  0  0  0  0  0  0  0  0
   10.1666  -18.3298   23.8402 O   0  0  0  0  0  0  0  0  0  0  0  0
   13.1818  -16.7530   21.6026 C   0  0  0  0  0  0  0  0  0  0  0  0
   13.7801  -16.8397   22.9865 C   0  0  1  0  0  0  0  0  0  0  0  0
   14.2439  -15.4588   23.3864 C   0  0  0  0  0  0  0  0  0  0  0  0
   12.7741  -17.4306   23.9581 C   0  0  2  0  0  0  0  0  0  0  0  0
   11.6074  -16.5614   24.0505 N   0  0  0  0  0  0  0  0  0  0  0  0
   13.4501  -17.5334   25.2637 C   0  0  0  0  0  0  0  0  0  0  0  0
   13.0420  -16.8069   26.2341 O   0  0  0  0  0  0  0  0  0  0  0  0
   14.5084  -18.3622   25.5488 O   0  0  0  0  0  0  0  0  0  0  0  0
  1  2  1  0
  3  2  1  0
  3  4  1  6
  5  3  1  0
  5  6  2  0
  7  5  1  0
  8  7  1  0
  8  9  1  1
 10  9  1  0
 10 11  2  0
 12 11  1  0
 13 18  2  0
 13 12  1  0
 14 13  1  0
 15 14  2  0
 16 15  1  0
 16 17  2  0
 17 18  1  0
 18 10  1  0
 19  8  1  0
 20 19  2  0
 22 21  1  6
 22 24  1  0
 23 22  1  0
 24 25  1  1
 25 19  1  0
 26 28  1  0
 26 24  1  0
 27 26  2  0
M  END
$$$$
