SWV.pdb
     RDKit          3D

 28 29  0  0  1  0  0  0  0  0999 V2000
   13.3185  -17.5902   20.9188 O   0  0  0  0  0  0  0  0  0  0  0  0
   12.0064  -18.0676   20.8309 C   0  0  0  0  0  0  0  0  0  0  0  0
   11.0781  -16.9928   20.3924 C   0  0  2  0  0  0  0  0  0  0  0  0
   11.6868  -16.0643   19.4676 N   0  0  0  0  0  0  0  0  0  0  0  0
   10.5153  -16.2625   21.5770 C   0  0  0  0  0  0  0  0  0  0  0  0
   10.9531  -15.1059   21.8824 O   0  0  0  0  0  0  0  0  0  0  0  0
    9.5017  -16.7789   22.4089 N   0  0  0  0  0  0  0  0  0  0  0  0
    9.0201  -16.0901   23.6129 C   0  0  1  0  0  0  0  0  0  0  0  0
    7.6609  -16.5953   23.9025 C   0  0  0  0  0  0  0  0  0  0  0  0
    6.8538  -15.7614   24.8135 C   0  0  0  0  0  0  0  0  0  0  0  0
    5.7443  -16.0114   25.5709 C   0  0  0  0  0  0  0  0  0  0  0  0
    5.3410  -14.9063   26.2442 N   0  0  0  0  0  0  0  0  0  0  0  0
    6.2016  -13.9379   25.9153 C   0  0  0  0  0  0  0  0  0  0  0  0
    6.2299  -12.6079   26.3380 C   0  0  0  0  0  0  0  0  0  0  0  0
    7.2094  -11.7600   25.8815 C   0  0  0  0  0  0  0  0  0  0  0  0
    8.1736  -12.2427   24.9914 C   0  0  0  0  0  0  0  0  0  0  0  0
    8.1279  -13.5456   24.5901 C   0  0  0  0  0  0  0  0  0  0  0  0
    7.1409  -14.4107   25.0469 C   0  0  0  0  0  0  0  0  0  0  0  0
    9.9709  -16.1378   24.7269 C   0  0  0  0  0  0  0  0  0  0  0  0
   10.8532  -17.0104   24.7768 O   0  0  0  0  0  0  0  0  0  0  0  0
    9.0815  -14.1887   28.3430 C   0  0  0  0  0  0  0  0  0  0  0  0
   10.5357  -14.1854   27.9355 C   0  0  1  0  0  0  0  0  0  0  0  0
   11.3756  -14.2810   29.1874 C   0  0  0  0  0  0  0  0  0  0  0  0
   10.8087  -15.3095   26.9522 C   0  0  2  0  0  0  0  0  0  0  0  0
    9.9241  -15.1838   25.8003 N   0  0  0  0  0  0  0  0  0  0  0  0
   10.5552  -16.5734   27.6665 C   0  0  0  0  0  0  0  0  0  0  0  0
    9.4684  -17.2086   27.4395 O   0  0  0  0  0  0  0  0  0  0  0  0
   11.4013  -17.1548   28.5798 O   0  0  0  0  0  0  0  0  0  0  0  0
  1  2  1  0
  3  2  1  0
  3  4  1  6
  5  3  1  0
  5  6  2  0
  7  5  1  0
  8  7  1  0
  8  9  1  1
 10  9  1  0
 10 11  2  0
 12 11  1  0
 13 18  2  0
 13 12  1  0
 14 13  1  0
 15 14  2  0
 16 15  1  0
 16 17  2  0
 17 18  1  0
 18 10  1  0
 19  8  1  0
 20 19  2  0
 22 21  1  1
 22 24  1  0
 23 22  1  0
 24 25  1  6
 25 19  1  0
 26 28  1  0
 26 24  1  0
 27 26  2  0
M  END
$$$$
