SWV.pdb
     RDKit          3D

 28 29  0  0  1  0  0  0  0  0999 V2000
    9.5197  -18.7208   20.9863 O   0  0  0  0  0  0  0  0  0  0  0  0
    9.9831  -17.7035   20.1450 C   0  0  0  0  0  0  0  0  0  0  0  0
    9.4802  -16.3770   20.5882 C   0  0  2  0  0  0  0  0  0  0  0  0
    9.9337  -15.2923   19.7482 N   0  0  0  0  0  0  0  0  0  0  0  0
    9.8485  -16.1221   22.0209 C   0  0  0  0  0  0  0  0  0  0  0  0
   10.9158  -15.4869   22.3036 O   0  0  0  0  0  0  0  0  0  0  0  0
    9.0744  -16.5488   23.1186 N   0  0  0  0  0  0  0  0  0  0  0  0
    9.4537  -16.3015   24.5154 C   0  0  1  0  0  0  0  0  0  0  0  0
    8.2076  -16.1284   25.2923 C   0  0  0  0  0  0  0  0  0  0  0  0
    7.4199  -14.9233   24.9697 C   0  0  0  0  0  0  0  0  0  0  0  0
    6.5052  -14.6395   23.9950 C   0  0  0  0  0  0  0  0  0  0  0  0
    6.0539  -13.3650   24.0910 N   0  0  0  0  0  0  0  0  0  0  0  0
    6.6856  -12.8264   25.1386 C   0  0  0  0  0  0  0  0  0  0  0  0
    6.5759  -11.5370   25.6620 C   0  0  0  0  0  0  0  0  0  0  0  0
    7.3178  -11.1728   26.7590 C   0  0  0  0  0  0  0  0  0  0  0  0
    8.1813  -12.1048   27.3427 C   0  0  0  0  0  0  0  0  0  0  0  0
    8.2744  -13.3594   26.8156 C   0  0  0  0  0  0  0  0  0  0  0  0
    7.5275  -13.7370   25.7062 C   0  0  0  0  0  0  0  0  0  0  0  0
   10.4034  -17.2862   25.0408 C   0  0  0  0  0  0  0  0  0  0  0  0
   10.7362  -17.2773   26.2373 O   0  0  0  0  0  0  0  0  0  0  0  0
   12.8555  -19.7296   22.5148 C   0  0  0  0  0  0  0  0  0  0  0  0
   12.1717  -20.3638   23.7027 C   0  0  1  0  0  0  0  0  0  0  0  0
   13.0554  -21.4761   24.2162 C   0  0  0  0  0  0  0  0  0  0  0  0
   11.8685  -19.3141   24.7569 C   0  0  2  0  0  0  0  0  0  0  0  0
   10.9848  -18.2966   24.2010 N   0  0  0  0  0  0  0  0  0  0  0  0
   13.1583  -18.7216   25.1537 C   0  0  0  0  0  0  0  0  0  0  0  0
   13.4644  -17.5554   24.7264 O   0  0  0  0  0  0  0  0  0  0  0  0
   14.0922  -19.3188   25.9657 O   0  0  0  0  0  0  0  0  0  0  0  0
  1  2  1  0
  3  2  1  0
  3  4  1  6
  5  3  1  0
  5  6  2  0
  7  5  1  0
  8  7  1  0
  8  9  1  1
 10  9  1  0
 10 11  2  0
 12 11  1  0
 13 18  2  0
 13 12  1  0
 14 13  1  0
 15 14  2  0
 16 15  1  0
 16 17  2  0
 17 18  1  0
 18 10  1  0
 19  8  1  0
 20 19  2  0
 22 21  1  6
 22 24  1  0
 23 22  1  0
 24 25  1  6
 25 19  1  0
 26 28  1  0
 26 24  1  0
 27 26  2  0
M  END
$$$$
