SWV.pdb
     RDKit          3D

 28 29  0  0  1  0  0  0  0  0999 V2000
   12.8799  -18.5003   21.7867 O   0  0  0  0  0  0  0  0  0  0  0  0
   11.6098  -18.3461   21.2206 C   0  0  0  0  0  0  0  0  0  0  0  0
   11.2704  -16.9080   21.0605 C   0  0  2  0  0  0  0  0  0  0  0  0
   12.3478  -16.1346   20.4869 N   0  0  0  0  0  0  0  0  0  0  0  0
   10.8378  -16.3164   22.3706 C   0  0  0  0  0  0  0  0  0  0  0  0
   11.4323  -15.2908   22.8365 O   0  0  0  0  0  0  0  0  0  0  0  0
    9.7846  -16.8292   23.1541 N   0  0  0  0  0  0  0  0  0  0  0  0
    9.3198  -16.1929   24.3931 C   0  0  1  0  0  0  0  0  0  0  0  0
    7.8786  -16.4918   24.5348 C   0  0  0  0  0  0  0  0  0  0  0  0
    6.9643  -15.3807   24.2088 C   0  0  0  0  0  0  0  0  0  0  0  0
    5.9942  -15.2180   23.2604 C   0  0  0  0  0  0  0  0  0  0  0  0
    5.4212  -13.9921   23.3386 N   0  0  0  0  0  0  0  0  0  0  0  0
    6.0302  -13.3626   24.3484 C   0  0  0  0  0  0  0  0  0  0  0  0
    5.8097  -12.0753   24.8410 C   0  0  0  0  0  0  0  0  0  0  0  0
    6.5473  -11.6068   25.9007 C   0  0  0  0  0  0  0  0  0  0  0  0
    7.5183  -12.4310   26.4776 C   0  0  0  0  0  0  0  0  0  0  0  0
    7.7188  -13.6855   25.9809 C   0  0  0  0  0  0  0  0  0  0  0  0
    6.9771  -14.1680   24.9093 C   0  0  0  0  0  0  0  0  0  0  0  0
   10.1555  -16.5080   25.5549 C   0  0  0  0  0  0  0  0  0  0  0  0
   10.8732  -17.5215   25.5696 O   0  0  0  0  0  0  0  0  0  0  0  0
    9.4485  -14.8196   29.3056 C   0  0  0  0  0  0  0  0  0  0  0  0
   10.9047  -14.9004   28.9135 C   0  0  1  0  0  0  0  0  0  0  0  0
   11.7107  -15.2008   30.1553 C   0  0  0  0  0  0  0  0  0  0  0  0
   11.0977  -15.9339   27.8182 C   0  0  2  0  0  0  0  0  0  0  0  0
   10.1809  -15.6639   26.7174 N   0  0  0  0  0  0  0  0  0  0  0  0
   10.8159  -17.2503   28.4180 C   0  0  0  0  0  0  0  0  0  0  0  0
    9.6485  -17.7563   28.2869 O   0  0  0  0  0  0  0  0  0  0  0  0
   11.7153  -18.0116   29.1249 O   0  0  0  0  0  0  0  0  0  0  0  0
  1  2  1  0
  3  2  1  0
  3  4  1  1
  5  3  1  0
  5  6  2  0
  7  5  1  0
  8  7  1  0
  8  9  1  1
 10  9  1  0
 10 11  2  0
 12 11  1  0
 13 18  2  0
 13 12  1  0
 14 13  1  0
 15 14  2  0
 16 15  1  0
 16 17  2  0
 17 18  1  0
 18 10  1  0
 19  8  1  0
 20 19  2  0
 22 21  1  1
 22 24  1  0
 23 22  1  0
 24 25  1  6
 25 19  1  0
 26 28  1  0
 26 24  1  0
 27 26  2  0
M  END
$$$$
