SWV.pdb
     RDKit          3D

 28 29  0  0  1  0  0  0  0  0999 V2000
   12.7765  -18.4806   21.1087 O   0  0  0  0  0  0  0  0  0  0  0  0
   12.8844  -17.1604   20.6582 C   0  0  0  0  0  0  0  0  0  0  0  0
   11.5600  -16.6324   20.2382 C   0  0  2  0  0  0  0  0  0  0  0  0
   11.6312  -15.8090   19.0529 N   0  0  0  0  0  0  0  0  0  0  0  0
   10.9082  -15.8809   21.3623 C   0  0  0  0  0  0  0  0  0  0  0  0
   11.2003  -14.6584   21.5684 O   0  0  0  0  0  0  0  0  0  0  0  0
    9.9622  -16.4467   22.2405 N   0  0  0  0  0  0  0  0  0  0  0  0
    9.3941  -15.7240   23.3854 C   0  0  1  0  0  0  0  0  0  0  0  0
    7.9218  -15.8215   23.2888 C   0  0  0  0  0  0  0  0  0  0  0  0
    7.1719  -15.2667   24.4319 C   0  0  0  0  0  0  0  0  0  0  0  0
    6.4213  -15.8371   25.4210 C   0  0  0  0  0  0  0  0  0  0  0  0
    5.9016  -14.9027   26.2541 N   0  0  0  0  0  0  0  0  0  0  0  0
    6.3241  -13.7208   25.7943 C   0  0  0  0  0  0  0  0  0  0  0  0
    6.0704  -12.4427   26.2947 C   0  0  0  0  0  0  0  0  0  0  0  0
    6.6043  -11.3404   25.6730 C   0  0  0  0  0  0  0  0  0  0  0  0
    7.4013  -11.5128   24.5372 C   0  0  0  0  0  0  0  0  0  0  0  0
    7.6366  -12.7703   24.0639 C   0  0  0  0  0  0  0  0  0  0  0  0
    7.1009  -13.8913   24.6864 C   0  0  0  0  0  0  0  0  0  0  0  0
    9.9785  -16.1214   24.6692 C   0  0  0  0  0  0  0  0  0  0  0  0
   10.5404  -17.2210   24.8022 O   0  0  0  0  0  0  0  0  0  0  0  0
    8.9152  -14.3100   28.3044 C   0  0  0  0  0  0  0  0  0  0  0  0
   10.3930  -14.5451   28.0998 C   0  0  1  0  0  0  0  0  0  0  0  0
   11.0048  -14.8881   29.4378 C   0  0  0  0  0  0  0  0  0  0  0  0
   10.6140  -15.6234   27.0541 C   0  0  2  0  0  0  0  0  0  0  0  0
    9.9277  -15.2622   25.8197 N   0  0  0  0  0  0  0  0  0  0  0  0
   10.0651  -16.8743   27.6070 C   0  0  0  0  0  0  0  0  0  0  0  0
    8.8941  -17.2490   27.2538 O   0  0  0  0  0  0  0  0  0  0  0  0
   10.7108  -17.7043   28.4915 O   0  0  0  0  0  0  0  0  0  0  0  0
  1  2  1  0
  3  2  1  0
  3  4  1  6
  5  3  1  0
  5  6  2  0
  7  5  1  0
  8  7  1  0
  8  9  1  1
 10  9  1  0
 10 11  2  0
 12 11  1  0
 13 18  2  0
 13 12  1  0
 14 13  1  0
 15 14  2  0
 16 15  1  0
 16 17  2  0
 17 18  1  0
 18 10  1  0
 19  8  1  0
 20 19  2  0
 22 21  1  1
 22 24  1  0
 23 22  1  0
 24 25  1  6
 25 19  1  0
 26 28  1  0
 26 24  1  0
 27 26  2  0
M  END
$$$$
