SWV.pdb
     RDKit          3D

 28 29  0  0  1  0  0  0  0  0999 V2000
    8.1312  -17.6445   20.0920 O   0  0  0  0  0  0  0  0  0  0  0  0
    7.8299  -16.3546   19.6414 C   0  0  0  0  0  0  0  0  0  0  0  0
    7.2791  -15.5222   20.7426 C   0  0  2  0  0  0  0  0  0  0  0  0
    6.8554  -14.2128   20.3022 N   0  0  0  0  0  0  0  0  0  0  0  0
    8.2693  -15.4048   21.8646 C   0  0  0  0  0  0  0  0  0  0  0  0
    9.2070  -14.5450   21.8028 O   0  0  0  0  0  0  0  0  0  0  0  0
    8.2397  -16.2043   23.0249 N   0  0  0  0  0  0  0  0  0  0  0  0
    9.2162  -16.0781   24.1142 C   0  0  1  0  0  0  0  0  0  0  0  0
    8.4775  -16.1861   25.3905 C   0  0  0  0  0  0  0  0  0  0  0  0
    7.3635  -15.2341   25.5625 C   0  0  0  0  0  0  0  0  0  0  0  0
    6.0056  -15.3613   25.4781 C   0  0  0  0  0  0  0  0  0  0  0  0
    5.3795  -14.1801   25.7019 N   0  0  0  0  0  0  0  0  0  0  0  0
    6.3464  -13.2865   25.9327 C   0  0  0  0  0  0  0  0  0  0  0  0
    6.2334  -11.9247   26.2175 C   0  0  0  0  0  0  0  0  0  0  0  0
    7.3605  -11.1685   26.4280 C   0  0  0  0  0  0  0  0  0  0  0  0
    8.6175  -11.7761   26.3532 C   0  0  0  0  0  0  0  0  0  0  0  0
    8.7063  -13.1081   26.0729 C   0  0  0  0  0  0  0  0  0  0  0  0
    7.5715  -13.8812   25.8589 C   0  0  0  0  0  0  0  0  0  0  0  0
   10.3690  -16.9704   23.9650 C   0  0  0  0  0  0  0  0  0  0  0  0
   10.2145  -18.1920   23.8025 O   0  0  0  0  0  0  0  0  0  0  0  0
   13.5862  -16.3332   21.7857 C   0  0  0  0  0  0  0  0  0  0  0  0
   14.0013  -16.7078   23.1886 C   0  0  1  0  0  0  0  0  0  0  0  0
   14.4835  -15.4579   23.8865 C   0  0  0  0  0  0  0  0  0  0  0  0
   12.8520  -17.3847   23.9139 C   0  0  2  0  0  0  0  0  0  0  0  0
   11.7169  -16.4740   23.9990 N   0  0  0  0  0  0  0  0  0  0  0  0
   13.3414  -17.7323   25.2599 C   0  0  0  0  0  0  0  0  0  0  0  0
   12.8571  -17.1218   26.2743 O   0  0  0  0  0  0  0  0  0  0  0  0
   14.2959  -18.6803   25.5394 O   0  0  0  0  0  0  0  0  0  0  0  0
  1  2  1  0
  3  2  1  0
  3  4  1  6
  5  3  1  0
  5  6  2  0
  7  5  1  0
  8  7  1  0
  8  9  1  1
 10  9  1  0
 10 11  2  0
 12 11  1  0
 13 18  2  0
 13 12  1  0
 14 13  1  0
 15 14  2  0
 16 15  1  0
 16 17  2  0
 17 18  1  0
 18 10  1  0
 19  8  1  0
 20 19  2  0
 22 21  1  6
 22 24  1  0
 23 22  1  0
 24 25  1  1
 25 19  1  0
 26 28  1  0
 26 24  1  0
 27 26  2  0
M  END
$$$$
