SWV.pdb
     RDKit          3D

 28 29  0  0  1  0  0  0  0  0999 V2000
    9.7744  -18.2780   20.2164 O   0  0  0  0  0  0  0  0  0  0  0  0
    8.4384  -18.1628   20.6155 C   0  0  0  0  0  0  0  0  0  0  0  0
    8.1266  -16.7709   21.0331 C   0  0  2  0  0  0  0  0  0  0  0  0
    8.3518  -15.8033   19.9838 N   0  0  0  0  0  0  0  0  0  0  0  0
    8.9010  -16.4009   22.2647 C   0  0  0  0  0  0  0  0  0  0  0  0
    9.9372  -15.6660   22.1719 O   0  0  0  0  0  0  0  0  0  0  0  0
    8.5561  -16.8214   23.5649 N   0  0  0  0  0  0  0  0  0  0  0  0
    9.3793  -16.5376   24.7472 C   0  0  1  0  0  0  0  0  0  0  0  0
    8.4719  -16.4454   25.9111 C   0  0  0  0  0  0  0  0  0  0  0  0
    7.3922  -15.4462   25.7975 C   0  0  0  0  0  0  0  0  0  0  0  0
    6.0690  -15.5353   25.4683 C   0  0  0  0  0  0  0  0  0  0  0  0
    5.4696  -14.3196   25.4800 N   0  0  0  0  0  0  0  0  0  0  0  0
    6.4186  -13.4423   25.8210 C   0  0  0  0  0  0  0  0  0  0  0  0
    6.3200  -12.0585   25.9759 C   0  0  0  0  0  0  0  0  0  0  0  0
    7.4235  -11.3249   26.3375 C   0  0  0  0  0  0  0  0  0  0  0  0
    8.6420  -11.9777   26.5473 C   0  0  0  0  0  0  0  0  0  0  0  0
    8.7173  -13.3306   26.3901 C   0  0  0  0  0  0  0  0  0  0  0  0
    7.6062  -14.0810   26.0248 C   0  0  0  0  0  0  0  0  0  0  0  0
   10.5167  -17.4499   24.8938 C   0  0  0  0  0  0  0  0  0  0  0  0
   10.4021  -18.6599   24.6383 O   0  0  0  0  0  0  0  0  0  0  0  0
   15.3790  -18.1616   25.5253 C   0  0  0  0  0  0  0  0  0  0  0  0
   14.2281  -17.2093   25.3033 C   0  0  1  0  0  0  0  0  0  0  0  0
   14.3535  -16.6355   23.9115 C   0  0  0  0  0  0  0  0  0  0  0  0
   12.9061  -17.9195   25.5339 C   0  0  2  0  0  0  0  0  0  0  0  0
   11.8033  -16.9870   25.3349 N   0  0  0  0  0  0  0  0  0  0  0  0
   12.9234  -18.4153   26.9216 C   0  0  0  0  0  0  0  0  0  0  0  0
   12.1597  -17.8653   27.7879 O   0  0  0  0  0  0  0  0  0  0  0  0
   13.7036  -19.4453   27.3890 O   0  0  0  0  0  0  0  0  0  0  0  0
  1  2  1  0
  3  2  1  0
  3  4  1  6
  5  3  1  0
  5  6  2  0
  7  5  1  0
  8  7  1  0
  8  9  1  1
 10  9  1  0
 10 11  2  0
 12 11  1  0
 13 18  2  0
 13 12  1  0
 14 13  1  0
 15 14  2  0
 16 15  1  0
 16 17  2  0
 17 18  1  0
 18 10  1  0
 19  8  1  0
 20 19  2  0
 22 21  1  6
 22 24  1  0
 23 22  1  0
 24 25  1  1
 25 19  1  0
 26 28  1  0
 26 24  1  0
 27 26  2  0
M  END
$$$$
