SWV.pdb
     RDKit          3D

 28 29  0  0  1  0  0  0  0  0999 V2000
    9.3651  -18.6704   18.3796 O   0  0  0  0  0  0  0  0  0  0  0  0
    9.8672  -18.0480   19.5276 C   0  0  0  0  0  0  0  0  0  0  0  0
    9.0566  -16.8537   19.8822 C   0  0  2  0  0  0  0  0  0  0  0  0
    9.2352  -15.7564   18.9592 N   0  0  0  0  0  0  0  0  0  0  0  0
    9.3494  -16.4123   21.2868 C   0  0  0  0  0  0  0  0  0  0  0  0
   10.3127  -15.6116   21.5179 O   0  0  0  0  0  0  0  0  0  0  0  0
    8.6120  -16.8328   22.4118 N   0  0  0  0  0  0  0  0  0  0  0  0
    8.9366  -16.4256   23.7847 C   0  0  1  0  0  0  0  0  0  0  0  0
    7.6667  -16.3435   24.5379 C   0  0  0  0  0  0  0  0  0  0  0  0
    7.2392  -14.9830   24.9163 C   0  0  0  0  0  0  0  0  0  0  0  0
    6.2483  -14.1570   24.4658 C   0  0  0  0  0  0  0  0  0  0  0  0
    6.2541  -12.9694   25.1191 N   0  0  0  0  0  0  0  0  0  0  0  0
    7.2591  -13.0352   25.9979 C   0  0  0  0  0  0  0  0  0  0  0  0
    7.6881  -12.0737   26.9144 C   0  0  0  0  0  0  0  0  0  0  0  0
    8.7522  -12.3366   27.7421 C   0  0  0  0  0  0  0  0  0  0  0  0
    9.3984  -13.5736   27.6560 C   0  0  0  0  0  0  0  0  0  0  0  0
    8.9639  -14.4992   26.7532 C   0  0  0  0  0  0  0  0  0  0  0  0
    7.8881  -14.2422   25.9120 C   0  0  0  0  0  0  0  0  0  0  0  0
    9.9913  -17.2388   24.3961 C   0  0  0  0  0  0  0  0  0  0  0  0
    9.8967  -18.4763   24.4444 O   0  0  0  0  0  0  0  0  0  0  0  0
   13.6168  -15.4381   25.8388 C   0  0  0  0  0  0  0  0  0  0  0  0
   13.5759  -16.8436   25.2878 C   0  0  1  0  0  0  0  0  0  0  0  0
   14.7131  -17.6241   25.9039 C   0  0  0  0  0  0  0  0  0  0  0  0
   12.2180  -17.4710   25.5482 C   0  0  2  0  0  0  0  0  0  0  0  0
   11.1711  -16.6440   24.9605 N   0  0  0  0  0  0  0  0  0  0  0  0
   12.0573  -17.5510   27.0109 C   0  0  0  0  0  0  0  0  0  0  0  0
   12.7618  -18.3920   27.6687 O   0  0  0  0  0  0  0  0  0  0  0  0
   11.1984  -16.7837   27.7603 O   0  0  0  0  0  0  0  0  0  0  0  0
  1  2  1  0
  3  2  1  0
  3  4  1  6
  5  3  1  0
  5  6  2  0
  7  5  1  0
  8  7  1  0
  8  9  1  1
 10  9  1  0
 10 11  2  0
 12 11  1  0
 13 18  2  0
 13 12  1  0
 14 13  1  0
 15 14  2  0
 16 15  1  0
 16 17  2  0
 17 18  1  0
 18 10  1  0
 19  8  1  0
 20 19  2  0
 22 21  1  1
 22 24  1  0
 23 22  1  0
 24 25  1  1
 25 19  1  0
 26 28  1  0
 26 24  1  0
 27 26  2  0
M  END
$$$$
