SWV.pdb
     RDKit          3D

 28 29  0  0  1  0  0  0  0  0999 V2000
    8.3452  -18.1675   19.4190 O   0  0  0  0  0  0  0  0  0  0  0  0
    7.1518  -17.9859   20.1264 C   0  0  0  0  0  0  0  0  0  0  0  0
    7.0055  -16.5743   20.5682 C   0  0  2  0  0  0  0  0  0  0  0  0
    7.0910  -15.6302   19.4777 N   0  0  0  0  0  0  0  0  0  0  0  0
    8.0138  -16.2440   21.6301 C   0  0  0  0  0  0  0  0  0  0  0  0
    9.0187  -15.5122   21.3524 O   0  0  0  0  0  0  0  0  0  0  0  0
    7.9303  -16.6997   22.9611 N   0  0  0  0  0  0  0  0  0  0  0  0
    8.9800  -16.4626   23.9601 C   0  0  1  0  0  0  0  0  0  0  0  0
    8.3445  -16.5075   25.2945 C   0  0  0  0  0  0  0  0  0  0  0  0
    7.2845  -15.5080   25.5274 C   0  0  0  0  0  0  0  0  0  0  0  0
    5.9209  -15.5599   25.4559 C   0  0  0  0  0  0  0  0  0  0  0  0
    5.3607  -14.3598   25.7447 N   0  0  0  0  0  0  0  0  0  0  0  0
    6.3761  -13.5302   26.0045 C   0  0  0  0  0  0  0  0  0  0  0  0
    6.3385  -12.1798   26.3559 C   0  0  0  0  0  0  0  0  0  0  0  0
    7.5063  -11.4947   26.5866 C   0  0  0  0  0  0  0  0  0  0  0  0
    8.7285  -12.1629   26.4653 C   0  0  0  0  0  0  0  0  0  0  0  0
    8.7435  -13.4825   26.1203 C   0  0  0  0  0  0  0  0  0  0  0  0
    7.5671  -14.1839   25.8853 C   0  0  0  0  0  0  0  0  0  0  0  0
   10.1540  -17.3213   23.7817 C   0  0  0  0  0  0  0  0  0  0  0  0
   10.0487  -18.4500   23.2741 O   0  0  0  0  0  0  0  0  0  0  0  0
   14.9064  -17.8915   23.0081 C   0  0  0  0  0  0  0  0  0  0  0  0
   13.6712  -17.0352   23.1564 C   0  0  1  0  0  0  0  0  0  0  0  0
   13.1811  -16.6724   21.7743 C   0  0  0  0  0  0  0  0  0  0  0  0
   12.6251  -17.7603   23.9840 C   0  0  2  0  0  0  0  0  0  0  0  0
   11.4670  -16.8972   24.1822 N   0  0  0  0  0  0  0  0  0  0  0  0
   13.2545  -18.0900   25.2751 C   0  0  0  0  0  0  0  0  0  0  0  0
   12.9081  -17.4385   26.3200 O   0  0  0  0  0  0  0  0  0  0  0  0
   14.2057  -19.0620   25.4715 O   0  0  0  0  0  0  0  0  0  0  0  0
  1  2  1  0
  3  2  1  0
  3  4  1  6
  5  3  1  0
  5  6  2  0
  7  5  1  0
  8  7  1  0
  8  9  1  1
 10  9  1  0
 10 11  2  0
 12 11  1  0
 13 18  2  0
 13 12  1  0
 14 13  1  0
 15 14  2  0
 16 15  1  0
 16 17  2  0
 17 18  1  0
 18 10  1  0
 19  8  1  0
 20 19  2  0
 22 21  1  6
 22 24  1  0
 23 22  1  0
 24 25  1  1
 25 19  1  0
 26 28  1  0
 26 24  1  0
 27 26  2  0
M  END
$$$$
