SWV.pdb
     RDKit          3D

 28 29  0  0  1  0  0  0  0  0999 V2000
    8.1498  -16.6688   19.1461 O   0  0  0  0  0  0  0  0  0  0  0  0
    6.9304  -16.3690   19.7629 C   0  0  0  0  0  0  0  0  0  0  0  0
    7.0068  -15.0752   20.4905 C   0  0  2  0  0  0  0  0  0  0  0  0
    7.3207  -13.9601   19.6269 N   0  0  0  0  0  0  0  0  0  0  0  0
    7.9921  -15.1594   21.6198 C   0  0  0  0  0  0  0  0  0  0  0  0
    9.1103  -14.5547   21.5394 O   0  0  0  0  0  0  0  0  0  0  0  0
    7.7659  -15.8847   22.8069 N   0  0  0  0  0  0  0  0  0  0  0  0
    8.7732  -16.0304   23.8651 C   0  0  1  0  0  0  0  0  0  0  0  0
    8.0540  -16.2353   25.1408 C   0  0  0  0  0  0  0  0  0  0  0  0
    7.1458  -15.1434   25.5406 C   0  0  0  0  0  0  0  0  0  0  0  0
    5.7931  -15.0731   25.7201 C   0  0  0  0  0  0  0  0  0  0  0  0
    5.4021  -13.8260   26.0793 N   0  0  0  0  0  0  0  0  0  0  0  0
    6.5162  -13.0893   26.1311 C   0  0  0  0  0  0  0  0  0  0  0  0
    6.6614  -11.7389   26.4532 C   0  0  0  0  0  0  0  0  0  0  0  0
    7.9069  -11.1598   26.4519 C   0  0  0  0  0  0  0  0  0  0  0  0
    9.0232  -11.9357   26.1247 C   0  0  0  0  0  0  0  0  0  0  0  0
    8.8597  -13.2534   25.8123 C   0  0  0  0  0  0  0  0  0  0  0  0
    7.6035  -13.8478   25.8114 C   0  0  0  0  0  0  0  0  0  0  0  0
    9.8076  -17.0189   23.5482 C   0  0  0  0  0  0  0  0  0  0  0  0
    9.5054  -18.1440   23.1174 O   0  0  0  0  0  0  0  0  0  0  0  0
   12.8744  -16.7815   21.3013 C   0  0  0  0  0  0  0  0  0  0  0  0
   13.3583  -17.1789   22.6756 C   0  0  1  0  0  0  0  0  0  0  0  0
   13.9870  -15.9670   23.3220 C   0  0  0  0  0  0  0  0  0  0  0  0
   12.2141  -17.7570   23.4891 C   0  0  2  0  0  0  0  0  0  0  0  0
   11.2046  -16.7309   23.7201 N   0  0  0  0  0  0  0  0  0  0  0  0
   12.7876  -18.2185   24.7658 C   0  0  0  0  0  0  0  0  0  0  0  0
   13.6437  -19.1689   24.7554 O   0  0  0  0  0  0  0  0  0  0  0  0
   12.4837  -17.7088   26.0052 O   0  0  0  0  0  0  0  0  0  0  0  0
  1  2  1  0
  3  2  1  0
  3  4  1  6
  5  3  1  0
  5  6  2  0
  7  5  1  0
  8  7  1  0
  8  9  1  1
 10  9  1  0
 10 11  2  0
 12 11  1  0
 13 18  2  0
 13 12  1  0
 14 13  1  0
 15 14  2  0
 16 15  1  0
 16 17  2  0
 17 18  1  0
 18 10  1  0
 19  8  1  0
 20 19  2  0
 22 21  1  6
 22 24  1  0
 23 22  1  0
 24 25  1  1
 25 19  1  0
 26 28  1  0
 26 24  1  0
 27 26  2  0
M  END
$$$$
