SWV.pdb
     RDKit          3D

 28 29  0  0  1  0  0  0  0  0999 V2000
   13.5322  -17.9579   21.9195 O   0  0  0  0  0  0  0  0  0  0  0  0
   12.4061  -18.0543   21.0948 C   0  0  0  0  0  0  0  0  0  0  0  0
   11.8706  -16.7071   20.7670 C   0  0  2  0  0  0  0  0  0  0  0  0
   12.8612  -15.8337   20.1806 N   0  0  0  0  0  0  0  0  0  0  0  0
   11.2600  -16.0695   21.9810 C   0  0  0  0  0  0  0  0  0  0  0  0
   11.8851  -15.1510   22.6039 O   0  0  0  0  0  0  0  0  0  0  0  0
   10.0002  -16.4238   22.5043 N   0  0  0  0  0  0  0  0  0  0  0  0
    9.4239  -15.8035   23.7039 C   0  0  1  0  0  0  0  0  0  0  0  0
    7.9524  -15.8961   23.5911 C   0  0  0  0  0  0  0  0  0  0  0  0
    7.1899  -15.2389   24.6697 C   0  0  0  0  0  0  0  0  0  0  0  0
    6.4440  -15.7168   25.7102 C   0  0  0  0  0  0  0  0  0  0  0  0
    5.9072  -14.7102   26.4422 N   0  0  0  0  0  0  0  0  0  0  0  0
    6.3138  -13.5752   25.8651 C   0  0  0  0  0  0  0  0  0  0  0  0
    6.0391  -12.2566   26.2317 C   0  0  0  0  0  0  0  0  0  0  0  0
    6.5590  -11.2156   25.5020 C   0  0  0  0  0  0  0  0  0  0  0  0
    7.3629  -11.4909   24.3917 C   0  0  0  0  0  0  0  0  0  0  0  0
    7.6188  -12.7864   24.0498 C   0  0  0  0  0  0  0  0  0  0  0  0
    7.0974  -13.8460   24.7823 C   0  0  0  0  0  0  0  0  0  0  0  0
   10.0026  -16.3082   24.9520 C   0  0  0  0  0  0  0  0  0  0  0  0
   10.4615  -17.4601   25.0234 O   0  0  0  0  0  0  0  0  0  0  0  0
   11.0401  -13.5755   27.9198 C   0  0  0  0  0  0  0  0  0  0  0  0
   10.6362  -14.9359   28.4364 C   0  0  1  0  0  0  0  0  0  0  0  0
    9.2396  -14.8291   29.0021 C   0  0  0  0  0  0  0  0  0  0  0  0
   10.7501  -15.9725   27.3329 C   0  0  2  0  0  0  0  0  0  0  0  0
   10.0644  -15.4980   26.1370 N   0  0  0  0  0  0  0  0  0  0  0  0
   10.1206  -17.2056   27.8379 C   0  0  0  0  0  0  0  0  0  0  0  0
    9.0172  -17.5966   27.3224 O   0  0  0  0  0  0  0  0  0  0  0  0
   10.6216  -18.0023   28.8392 O   0  0  0  0  0  0  0  0  0  0  0  0
  1  2  1  0
  3  2  1  0
  3  4  1  1
  5  3  1  0
  5  6  2  0
  7  5  1  0
  8  7  1  0
  8  9  1  1
 10  9  1  0
 10 11  2  0
 12 11  1  0
 13 18  2  0
 13 12  1  0
 14 13  1  0
 15 14  2  0
 16 15  1  0
 16 17  2  0
 17 18  1  0
 18 10  1  0
 19  8  1  0
 20 19  2  0
 22 21  1  6
 22 24  1  0
 23 22  1  0
 24 25  1  6
 25 19  1  0
 26 28  1  0
 26 24  1  0
 27 26  2  0
M  END
$$$$
