SWV.pdb
     RDKit          3D

 28 29  0  0  1  0  0  0  0  0999 V2000
   13.0844  -18.4935   22.4900 O   0  0  0  0  0  0  0  0  0  0  0  0
   11.9407  -18.9433   21.8215 C   0  0  0  0  0  0  0  0  0  0  0  0
   11.3331  -17.8526   21.0151 C   0  0  2  0  0  0  0  0  0  0  0  0
   12.2467  -17.2907   20.0468 N   0  0  0  0  0  0  0  0  0  0  0  0
   10.7844  -16.7767   21.9066 C   0  0  0  0  0  0  0  0  0  0  0  0
   11.4116  -15.6763   22.0413 O   0  0  0  0  0  0  0  0  0  0  0  0
    9.5832  -16.8964   22.6339 N   0  0  0  0  0  0  0  0  0  0  0  0
    9.0970  -15.8656   23.5596 C   0  0  1  0  0  0  0  0  0  0  0  0
    7.6619  -16.1257   23.8034 C   0  0  0  0  0  0  0  0  0  0  0  0
    7.0144  -15.2407   24.7905 C   0  0  0  0  0  0  0  0  0  0  0  0
    6.3052  -15.4789   25.9339 C   0  0  0  0  0  0  0  0  0  0  0  0
    5.8841  -14.3258   26.5086 N   0  0  0  0  0  0  0  0  0  0  0  0
    6.3287  -13.3380   25.7255 C   0  0  0  0  0  0  0  0  0  0  0  0
    6.1666  -11.9596   25.8738 C   0  0  0  0  0  0  0  0  0  0  0  0
    6.7081  -11.0984   24.9510 C   0  0  0  0  0  0  0  0  0  0  0  0
    7.4203  -11.6166   23.8651 C   0  0  0  0  0  0  0  0  0  0  0  0
    7.5668  -12.9668   23.7380 C   0  0  0  0  0  0  0  0  0  0  0  0
    7.0227  -13.8457   24.6669 C   0  0  0  0  0  0  0  0  0  0  0  0
    9.9325  -15.7196   24.7547 C   0  0  0  0  0  0  0  0  0  0  0  0
   10.9364  -14.9883   24.7468 O   0  0  0  0  0  0  0  0  0  0  0  0
   10.3105  -14.8988   29.3545 C   0  0  0  0  0  0  0  0  0  0  0  0
    9.6761  -15.0421   27.9915 C   0  0  1  0  0  0  0  0  0  0  0  0
    9.7217  -13.6961   27.3071 C   0  0  0  0  0  0  0  0  0  0  0  0
   10.3738  -16.1330   27.1988 C   0  0  2  0  0  0  0  0  0  0  0  0
    9.6278  -16.4099   25.9773 N   0  0  0  0  0  0  0  0  0  0  0  0
   10.4188  -17.3266   28.0621 C   0  0  0  0  0  0  0  0  0  0  0  0
    9.6565  -18.3178   27.7927 O   0  0  0  0  0  0  0  0  0  0  0  0
   11.2276  -17.4833   29.1619 O   0  0  0  0  0  0  0  0  0  0  0  0
  1  2  1  0
  3  2  1  0
  3  4  1  6
  5  3  1  0
  5  6  2  0
  7  5  1  0
  8  7  1  0
  8  9  1  1
 10  9  1  0
 10 11  2  0
 12 11  1  0
 13 18  2  0
 13 12  1  0
 14 13  1  0
 15 14  2  0
 16 15  1  0
 16 17  2  0
 17 18  1  0
 18 10  1  0
 19  8  1  0
 20 19  2  0
 22 21  1  1
 22 24  1  0
 23 22  1  0
 24 25  1  6
 25 19  1  0
 26 28  1  0
 26 24  1  0
 27 26  2  0
M  END
$$$$
