SWV.pdb
     RDKit          3D

 28 29  0  0  1  0  0  0  0  0999 V2000
   12.4968  -17.5782   21.2328 O   0  0  0  0  0  0  0  0  0  0  0  0
   11.1853  -17.8927   20.8609 C   0  0  0  0  0  0  0  0  0  0  0  0
   10.3582  -16.6637   20.7393 C   0  0  2  0  0  0  0  0  0  0  0  0
   10.9447  -15.6733   19.8657 N   0  0  0  0  0  0  0  0  0  0  0  0
   10.0822  -16.0745   22.0920 C   0  0  0  0  0  0  0  0  0  0  0  0
   10.5263  -14.9181   22.3886 O   0  0  0  0  0  0  0  0  0  0  0  0
    9.3415  -16.7284   23.0970 N   0  0  0  0  0  0  0  0  0  0  0  0
    9.0646  -16.1315   24.4096 C   0  0  1  0  0  0  0  0  0  0  0  0
    7.7516  -16.6389   24.8626 C   0  0  0  0  0  0  0  0  0  0  0  0
    6.7730  -15.6072   25.2560 C   0  0  0  0  0  0  0  0  0  0  0  0
    5.4333  -15.6448   25.5225 C   0  0  0  0  0  0  0  0  0  0  0  0
    4.9518  -14.4158   25.8307 N   0  0  0  0  0  0  0  0  0  0  0  0
    5.9940  -13.5818   25.7615 C   0  0  0  0  0  0  0  0  0  0  0  0
    6.0335  -12.2053   25.9900 C   0  0  0  0  0  0  0  0  0  0  0  0
    7.2175  -11.5200   25.8686 C   0  0  0  0  0  0  0  0  0  0  0  0
    8.3782  -12.2143   25.5141 C   0  0  0  0  0  0  0  0  0  0  0  0
    8.3182  -13.5592   25.2946 C   0  0  0  0  0  0  0  0  0  0  0  0
    7.1248  -14.2610   25.4155 C   0  0  0  0  0  0  0  0  0  0  0  0
   10.1705  -16.2817   25.3593 C   0  0  0  0  0  0  0  0  0  0  0  0
   11.1015  -17.0728   25.1356 O   0  0  0  0  0  0  0  0  0  0  0  0
   10.8834  -13.4781   28.3790 C   0  0  0  0  0  0  0  0  0  0  0  0
   11.0148  -14.9217   28.8027 C   0  0  1  0  0  0  0  0  0  0  0  0
    9.7792  -15.2967   29.5867 C   0  0  0  0  0  0  0  0  0  0  0  0
   11.2377  -15.8075   27.5900 C   0  0  2  0  0  0  0  0  0  0  0  0
   10.2252  -15.5255   26.5797 N   0  0  0  0  0  0  0  0  0  0  0  0
   11.1340  -17.2023   28.0543 C   0  0  0  0  0  0  0  0  0  0  0  0
   12.0735  -17.6899   28.7726 O   0  0  0  0  0  0  0  0  0  0  0  0
   10.0917  -18.0558   27.7837 O   0  0  0  0  0  0  0  0  0  0  0  0
  1  2  1  0
  3  2  1  0
  3  4  1  6
  5  3  1  0
  5  6  2  0
  7  5  1  0
  8  7  1  0
  8  9  1  1
 10  9  1  0
 10 11  2  0
 12 11  1  0
 13 18  2  0
 13 12  1  0
 14 13  1  0
 15 14  2  0
 16 15  1  0
 16 17  2  0
 17 18  1  0
 18 10  1  0
 19  8  1  0
 20 19  2  0
 22 21  1  6
 22 24  1  0
 23 22  1  0
 24 25  1  6
 25 19  1  0
 26 28  1  0
 26 24  1  0
 27 26  2  0
M  END
$$$$
