SWV.pdb
     RDKit          3D

 28 29  0  0  1  0  0  0  0  0999 V2000
   13.6348  -17.8094   21.9522 O   0  0  0  0  0  0  0  0  0  0  0  0
   12.4688  -18.2113   21.2918 C   0  0  0  0  0  0  0  0  0  0  0  0
   11.7257  -17.0374   20.7636 C   0  0  2  0  0  0  0  0  0  0  0  0
   12.5562  -16.1481   19.9843 N   0  0  0  0  0  0  0  0  0  0  0  0
   11.0555  -16.2887   21.8788 C   0  0  0  0  0  0  0  0  0  0  0  0
   11.5341  -15.1796   22.2827 O   0  0  0  0  0  0  0  0  0  0  0  0
    9.8934  -16.7369   22.5382 N   0  0  0  0  0  0  0  0  0  0  0  0
    9.3118  -16.0512   23.6990 C   0  0  1  0  0  0  0  0  0  0  0  0
    7.8417  -16.1762   23.6009 C   0  0  0  0  0  0  0  0  0  0  0  0
    7.0729  -15.4703   24.6437 C   0  0  0  0  0  0  0  0  0  0  0  0
    6.2628  -15.8990   25.6571 C   0  0  0  0  0  0  0  0  0  0  0  0
    5.7512  -14.8591   26.3601 N   0  0  0  0  0  0  0  0  0  0  0  0
    6.2391  -13.7522   25.7914 C   0  0  0  0  0  0  0  0  0  0  0  0
    6.0197  -12.4178   26.1373 C   0  0  0  0  0  0  0  0  0  0  0  0
    6.6216  -11.4120   25.4214 C   0  0  0  0  0  0  0  0  0  0  0  0
    7.4530  -11.7391   24.3458 C   0  0  0  0  0  0  0  0  0  0  0  0
    7.6538  -13.0493   24.0236 C   0  0  0  0  0  0  0  0  0  0  0  0
    7.0492  -14.0735   24.7425 C   0  0  0  0  0  0  0  0  0  0  0  0
    9.9051  -16.4649   24.9735 C   0  0  0  0  0  0  0  0  0  0  0  0
   10.3877  -17.6007   25.1147 O   0  0  0  0  0  0  0  0  0  0  0  0
   11.1298  -13.5040   27.5851 C   0  0  0  0  0  0  0  0  0  0  0  0
   10.7020  -14.7757   28.2783 C   0  0  1  0  0  0  0  0  0  0  0  0
    9.3455  -14.5397   28.8999 C   0  0  0  0  0  0  0  0  0  0  0  0
   10.7108  -15.9365   27.2997 C   0  0  2  0  0  0  0  0  0  0  0  0
    9.9546  -15.5810   26.1051 N   0  0  0  0  0  0  0  0  0  0  0  0
   10.0872  -17.0808   27.9881 C   0  0  0  0  0  0  0  0  0  0  0  0
    8.9267  -17.4715   27.6184 O   0  0  0  0  0  0  0  0  0  0  0  0
   10.6509  -17.7924   29.0196 O   0  0  0  0  0  0  0  0  0  0  0  0
  1  2  1  0
  3  2  1  0
  3  4  1  1
  5  3  1  0
  5  6  2  0
  7  5  1  0
  8  7  1  0
  8  9  1  1
 10  9  1  0
 10 11  2  0
 12 11  1  0
 13 18  2  0
 13 12  1  0
 14 13  1  0
 15 14  2  0
 16 15  1  0
 16 17  2  0
 17 18  1  0
 18 10  1  0
 19  8  1  0
 20 19  2  0
 22 21  1  6
 22 24  1  0
 23 22  1  0
 24 25  1  6
 25 19  1  0
 26 28  1  0
 26 24  1  0
 27 26  2  0
M  END
$$$$
