SMK.pdb
     RDKit          3D

 24 23  0  0  1  0  0  0  0  0999 V2000
   19.2337  -10.9477  -17.6529 O   0  0  0  0  0  0  0  0  0  0  0  0
   20.2694  -11.6954  -18.2236 C   0  0  0  0  0  0  0  0  0  0  0  0
   21.0719  -12.3932  -17.1459 C   0  0  2  0  0  0  0  0  0  0  0  0
   20.2016  -13.2584  -16.4036 N   0  0  0  0  0  0  0  0  0  0  0  0
   21.7409  -11.4386  -16.2372 C   0  0  0  0  0  0  0  0  0  0  0  0
   21.1879  -11.1582  -15.1516 O   0  0  0  0  0  0  0  0  0  0  0  0
   28.3877  -12.5184  -15.2246 C   0  0  0  0  0  0  0  0  0  0  0  0
   27.5623  -11.0275  -15.8110 S   0  0  0  0  0  0  0  0  0  0  0  0
   25.7662  -11.1332  -15.4411 C   0  0  0  0  0  0  0  0  0  0  0  0
   25.1100   -9.8416  -15.8440 C   0  0  0  0  0  0  0  0  0  0  0  0
   23.6282   -9.8200  -15.7112 C   0  0  2  0  0  0  0  0  0  0  0  0
   22.9816  -10.8240  -16.5363 N   0  0  0  0  0  0  0  0  0  0  0  0
   22.9944   -8.4965  -15.9188 C   0  0  0  0  0  0  0  0  0  0  0  0
   22.6006   -8.1015  -17.0431 O   0  0  0  0  0  0  0  0  0  0  0  0
   22.7926   -7.5794  -14.8305 N   0  0  0  0  0  0  0  0  0  0  0  0
   22.1443   -6.2864  -15.0176 C   0  0  1  0  0  0  0  0  0  0  0  0
   20.7585   -6.5069  -15.5269 C   0  0  0  0  0  0  0  0  0  0  0  0
   20.0547   -5.2298  -15.8311 C   0  0  0  0  0  0  0  0  0  0  0  0
   18.6688   -5.5360  -16.3456 C   0  0  0  0  0  0  0  0  0  0  0  0
   17.9370   -4.2382  -16.7163 C   0  0  0  0  0  0  0  0  0  0  0  0
   16.6862   -4.6395  -17.3330 N   0  0  0  0  0  0  0  0  0  0  0  0
   22.2255   -5.4695  -13.7862 C   0  0  0  0  0  0  0  0  0  0  0  0
   22.4975   -6.0027  -12.5433 O   0  0  0  0  0  0  0  0  0  0  0  0
   22.0393   -4.2159  -13.8474 O   0  0  0  0  0  0  0  0  0  0  0  0
  2  1  1  0
  3  2  1  0
  3  4  1  1
  5  6  2  0
  5  3  1  0
  7  8  1  0
  8  9  1  0
  9 10  1  0
 11 10  1  6
 11 12  1  0
 12  5  1  0
 13 15  1  0
 13 11  1  0
 14 13  2  0
 16 22  1  0
 16 15  1  0
 16 17  1  1
 17 18  1  0
 18 19  1  0
 19 20  1  0
 20 21  1  0
 22 23  1  0
 24 22  2  0
M  END
$$$$
