SMK.pdb
     RDKit          3D

 24 23  0  0  1  0  0  0  0  0999 V2000
   26.6728  -18.9101  -17.0452 O   0  0  0  0  0  0  0  0  0  0  0  0
   27.3673  -19.9872  -17.6065 C   0  0  0  0  0  0  0  0  0  0  0  0
   28.2156  -20.6724  -16.5561 C   0  0  2  0  0  0  0  0  0  0  0  0
   28.9627  -21.7278  -17.1765 N   0  0  0  0  0  0  0  0  0  0  0  0
   27.4056  -21.2063  -15.4411 C   0  0  0  0  0  0  0  0  0  0  0  0
   26.9256  -22.3557  -15.5470 O   0  0  0  0  0  0  0  0  0  0  0  0
   30.1681  -22.0131   -9.2824 C   0  0  0  0  0  0  0  0  0  0  0  0
   28.8018  -20.9544   -9.7929 S   0  0  0  0  0  0  0  0  0  0  0  0
   28.1666  -21.5135  -11.4232 C   0  0  0  0  0  0  0  0  0  0  0  0
   27.0084  -20.6401  -11.8193 C   0  0  0  0  0  0  0  0  0  0  0  0
   26.3824  -20.9788  -13.1259 C   0  0  2  0  0  0  0  0  0  0  0  0
   27.1458  -20.4778  -14.2542 N   0  0  0  0  0  0  0  0  0  0  0  0
   24.9558  -20.6000  -13.2601 C   0  0  0  0  0  0  0  0  0  0  0  0
   24.5887  -19.4595  -13.6336 O   0  0  0  0  0  0  0  0  0  0  0  0
   23.8994  -21.5294  -12.9664 N   0  0  0  0  0  0  0  0  0  0  0  0
   22.4927  -21.1768  -13.1213 C   0  0  1  0  0  0  0  0  0  0  0  0
   21.6686  -22.4188  -13.0400 C   0  0  0  0  0  0  0  0  0  0  0  0
   20.2157  -22.1507  -13.2301 C   0  0  0  0  0  0  0  0  0  0  0  0
   19.4540  -23.4510  -13.1402 C   0  0  0  0  0  0  0  0  0  0  0  0
   17.9676  -23.2227  -13.4495 C   0  0  0  0  0  0  0  0  0  0  0  0
   17.3357  -24.5277  -13.3906 N   0  0  0  0  0  0  0  0  0  0  0  0
   22.1038  -20.1157  -12.1657 C   0  0  0  0  0  0  0  0  0  0  0  0
   21.1622  -19.1493  -12.4531 O   0  0  0  0  0  0  0  0  0  0  0  0
   22.6473  -20.0682  -11.0202 O   0  0  0  0  0  0  0  0  0  0  0  0
  2  1  1  0
  3  2  1  0
  3  4  1  6
  5  6  2  0
  5  3  1  0
  7  8  1  0
  8  9  1  0
  9 10  1  0
 11 10  1  1
 11 12  1  0
 12  5  1  0
 13 15  1  0
 13 11  1  0
 14 13  2  0
 16 22  1  0
 16 15  1  0
 16 17  1  1
 17 18  1  0
 18 19  1  0
 19 20  1  0
 20 21  1  0
 22 23  1  0
 24 22  2  0
M  END
$$$$
