SMK.pdb
     RDKit          3D

 24 23  0  0  1  0  0  0  0  0999 V2000
   26.5675  -18.5475  -15.5586 O   0  0  0  0  0  0  0  0  0  0  0  0
   27.8360  -18.6739  -14.9821 C   0  0  0  0  0  0  0  0  0  0  0  0
   28.1550  -20.1311  -14.7233 C   0  0  2  0  0  0  0  0  0  0  0  0
   28.2188  -20.8239  -15.9774 N   0  0  0  0  0  0  0  0  0  0  0  0
   27.1643  -20.7732  -13.8341 C   0  0  0  0  0  0  0  0  0  0  0  0
   26.4103  -21.6486  -14.3118 O   0  0  0  0  0  0  0  0  0  0  0  0
   27.1538  -19.6638   -7.5517 C   0  0  0  0  0  0  0  0  0  0  0  0
   25.5447  -20.4752   -7.5289 S   0  0  0  0  0  0  0  0  0  0  0  0
   25.1015  -21.0096   -9.2295 C   0  0  0  0  0  0  0  0  0  0  0  0
   26.2176  -20.6323  -10.1640 C   0  0  0  0  0  0  0  0  0  0  0  0
   25.9608  -20.9221  -11.6007 C   0  0  2  0  0  0  0  0  0  0  0  0
   27.0265  -20.4451  -12.4629 N   0  0  0  0  0  0  0  0  0  0  0  0
   24.6445  -20.4708  -12.1108 C   0  0  0  0  0  0  0  0  0  0  0  0
   24.3963  -19.2705  -12.3803 O   0  0  0  0  0  0  0  0  0  0  0  0
   23.5645  -21.3942  -12.3281 N   0  0  0  0  0  0  0  0  0  0  0  0
   22.2745  -20.9662  -12.8571 C   0  0  1  0  0  0  0  0  0  0  0  0
   21.8154  -21.9547  -13.8770 C   0  0  0  0  0  0  0  0  0  0  0  0
   20.5097  -21.5777  -14.4869 C   0  0  0  0  0  0  0  0  0  0  0  0
   20.1171  -22.6202  -15.5059 C   0  0  0  0  0  0  0  0  0  0  0  0
   18.8353  -22.1970  -16.2375 C   0  0  0  0  0  0  0  0  0  0  0  0
   18.5920  -23.2093  -17.2484 N   0  0  0  0  0  0  0  0  0  0  0  0
   21.3094  -20.7163  -11.7631 C   0  0  0  0  0  0  0  0  0  0  0  0
   21.4650  -21.2223  -10.4892 O   0  0  0  0  0  0  0  0  0  0  0  0
   20.2802  -20.0067  -11.9798 O   0  0  0  0  0  0  0  0  0  0  0  0
  2  1  1  0
  3  2  1  0
  3  4  1  6
  5  6  2  0
  5  3  1  0
  7  8  1  0
  8  9  1  0
  9 10  1  0
 11 10  1  1
 11 12  1  0
 12  5  1  0
 13 15  1  0
 13 11  1  0
 14 13  2  0
 16 22  1  0
 16 15  1  0
 16 17  1  6
 17 18  1  0
 18 19  1  0
 19 20  1  0
 20 21  1  0
 22 23  1  0
 24 22  2  0
M  END
$$$$
