SMK.pdb
     RDKit          3D

 24 23  0  0  1  0  0  0  0  0999 V2000
   31.6744  -31.9532  -16.6214 O   0  0  0  0  0  0  0  0  0  0  0  0
   32.4144  -32.0384  -17.8058 C   0  0  0  0  0  0  0  0  0  0  0  0
   32.1783  -30.8140  -18.6644 C   0  0  2  0  0  0  0  0  0  0  0  0
   32.6335  -29.6532  -17.9557 N   0  0  0  0  0  0  0  0  0  0  0  0
   30.7578  -30.6584  -19.0419 C   0  0  0  0  0  0  0  0  0  0  0  0
   30.1900  -29.5713  -18.7996 O   0  0  0  0  0  0  0  0  0  0  0  0
   28.9439  -32.7232  -24.5674 C   0  0  0  0  0  0  0  0  0  0  0  0
   28.2616  -31.0921  -24.2176 S   0  0  0  0  0  0  0  0  0  0  0  0
   28.6736  -30.6101  -22.4937 C   0  0  0  0  0  0  0  0  0  0  0  0
   28.5188  -31.8116  -21.6028 C   0  0  0  0  0  0  0  0  0  0  0  0
   28.6435  -31.5354  -20.1461 C   0  0  2  0  0  0  0  0  0  0  0  0
   30.0056  -31.6832  -19.6670 N   0  0  0  0  0  0  0  0  0  0  0  0
   27.7075  -32.2882  -19.2779 C   0  0  0  0  0  0  0  0  0  0  0  0
   26.4664  -32.2957  -19.4639 O   0  0  0  0  0  0  0  0  0  0  0  0
   28.1746  -33.0618  -18.1600 N   0  0  0  0  0  0  0  0  0  0  0  0
   27.2782  -33.8948  -17.3664 C   0  0  1  0  0  0  0  0  0  0  0  0
   26.2772  -33.0207  -16.6865 C   0  0  0  0  0  0  0  0  0  0  0  0
   25.3382  -33.7937  -15.8266 C   0  0  0  0  0  0  0  0  0  0  0  0
   25.6733  -33.5454  -14.3758 C   0  0  0  0  0  0  0  0  0  0  0  0
   24.8299  -34.4530  -13.4690 C   0  0  0  0  0  0  0  0  0  0  0  0
   25.2710  -34.1929  -12.1112 N   0  0  0  0  0  0  0  0  0  0  0  0
   26.6932  -34.9772  -18.1890 C   0  0  0  0  0  0  0  0  0  0  0  0
   27.0420  -36.3045  -18.0485 O   0  0  0  0  0  0  0  0  0  0  0  0
   25.8276  -34.6993  -19.0740 O   0  0  0  0  0  0  0  0  0  0  0  0
  2  1  1  0
  3  2  1  0
  3  4  1  1
  5  6  2  0
  5  3  1  0
  7  8  1  0
  8  9  1  0
  9 10  1  0
 11 10  1  6
 11 12  1  0
 12  5  1  0
 13 15  1  0
 13 11  1  0
 14 13  2  0
 16 22  1  0
 16 15  1  0
 16 17  1  6
 17 18  1  0
 18 19  1  0
 19 20  1  0
 20 21  1  0
 22 23  1  0
 24 22  2  0
M  END
$$$$
