SMK.pdb
     RDKit          3D

 24 23  0  0  1  0  0  0  0  0999 V2000
   22.6192  -14.6452  -16.2329 O   0  0  0  0  0  0  0  0  0  0  0  0
   21.3566  -14.2009  -16.6404 C   0  0  0  0  0  0  0  0  0  0  0  0
   21.4790  -12.9110  -17.4237 C   0  0  2  0  0  0  0  0  0  0  0  0
   22.3887  -13.1125  -18.5140 N   0  0  0  0  0  0  0  0  0  0  0  0
   21.9314  -11.7837  -16.5817 C   0  0  0  0  0  0  0  0  0  0  0  0
   21.1594  -11.3477  -15.7004 O   0  0  0  0  0  0  0  0  0  0  0  0
   28.1688  -12.3951  -16.3683 C   0  0  0  0  0  0  0  0  0  0  0  0
   27.6528  -10.9303  -15.4538 S   0  0  0  0  0  0  0  0  0  0  0  0
   25.8490  -11.0187  -15.1182 C   0  0  0  0  0  0  0  0  0  0  0  0
   25.1539   -9.9468  -15.9112 C   0  0  0  0  0  0  0  0  0  0  0  0
   23.6694  -10.0453  -15.9369 C   0  0  2  0  0  0  0  0  0  0  0  0
   23.2008  -11.1711  -16.7240 N   0  0  0  0  0  0  0  0  0  0  0  0
   22.9608   -8.8065  -16.3368 C   0  0  0  0  0  0  0  0  0  0  0  0
   23.0881   -8.2885  -17.4728 O   0  0  0  0  0  0  0  0  0  0  0  0
   22.0770   -8.1202  -15.4346 N   0  0  0  0  0  0  0  0  0  0  0  0
   21.3556   -6.9142  -15.8251 C   0  0  1  0  0  0  0  0  0  0  0  0
   20.0270   -7.3024  -16.3841 C   0  0  0  0  0  0  0  0  0  0  0  0
   19.2444   -6.1272  -16.8588 C   0  0  0  0  0  0  0  0  0  0  0  0
   17.9051   -6.5964  -17.3736 C   0  0  0  0  0  0  0  0  0  0  0  0
   17.1157   -5.4184  -17.9623 C   0  0  0  0  0  0  0  0  0  0  0  0
   15.8548   -5.9664  -18.4267 N   0  0  0  0  0  0  0  0  0  0  0  0
   21.2947   -5.9472  -14.7065 C   0  0  0  0  0  0  0  0  0  0  0  0
   21.2133   -4.5826  -14.8920 O   0  0  0  0  0  0  0  0  0  0  0  0
   21.3176   -6.3657  -13.5089 O   0  0  0  0  0  0  0  0  0  0  0  0
  2  1  1  0
  3  2  1  0
  3  4  1  6
  5  6  2  0
  5  3  1  0
  7  8  1  0
  8  9  1  0
  9 10  1  0
 11 10  1  6
 11 12  1  0
 12  5  1  0
 13 15  1  0
 13 11  1  0
 14 13  2  0
 16 22  1  0
 16 15  1  0
 16 17  1  1
 17 18  1  0
 18 19  1  0
 19 20  1  0
 20 21  1  0
 22 23  1  0
 24 22  2  0
M  END
$$$$
