SMK.pdb
     RDKit          3D

 24 23  0  0  1  0  0  0  0  0999 V2000
   28.1140  -14.6321  -20.9604 O   0  0  0  0  0  0  0  0  0  0  0  0
   27.5167  -15.8659  -20.6803 C   0  0  0  0  0  0  0  0  0  0  0  0
   26.6346  -16.2984  -21.8324 C   0  0  2  0  0  0  0  0  0  0  0  0
   27.4043  -16.2760  -23.0423 N   0  0  0  0  0  0  0  0  0  0  0  0
   25.4360  -15.4451  -21.9728 C   0  0  0  0  0  0  0  0  0  0  0  0
   25.4506  -14.5281  -22.8223 O   0  0  0  0  0  0  0  0  0  0  0  0
   17.6857  -14.7458  -20.2261 C   0  0  0  0  0  0  0  0  0  0  0  0
   19.2002  -15.7226  -20.2445 S   0  0  0  0  0  0  0  0  0  0  0  0
   20.5922  -14.6875  -20.8483 C   0  0  0  0  0  0  0  0  0  0  0  0
   21.8559  -15.5017  -20.8099 C   0  0  0  0  0  0  0  0  0  0  0  0
   23.0731  -14.7982  -21.2971 C   0  0  2  0  0  0  0  0  0  0  0  0
   24.2676  -15.6158  -21.1902 N   0  0  0  0  0  0  0  0  0  0  0  0
   23.3095  -13.4605  -20.7045 C   0  0  0  0  0  0  0  0  0  0  0  0
   23.8559  -13.3007  -19.5861 O   0  0  0  0  0  0  0  0  0  0  0  0
   22.9214  -12.2559  -21.3860 N   0  0  0  0  0  0  0  0  0  0  0  0
   23.2924  -10.9341  -20.8939 C   0  0  1  0  0  0  0  0  0  0  0  0
   23.4485  -10.0094  -22.0553 C   0  0  0  0  0  0  0  0  0  0  0  0
   23.9249   -8.6585  -21.6465 C   0  0  0  0  0  0  0  0  0  0  0  0
   24.0540   -7.7850  -22.8710 C   0  0  0  0  0  0  0  0  0  0  0  0
   24.5732   -6.3932  -22.4828 C   0  0  0  0  0  0  0  0  0  0  0  0
   24.7939   -5.6807  -23.7276 N   0  0  0  0  0  0  0  0  0  0  0  0
   22.3428  -10.4682  -19.8586 C   0  0  0  0  0  0  0  0  0  0  0  0
   22.7385   -9.8072  -18.7142 O   0  0  0  0  0  0  0  0  0  0  0  0
   21.0994  -10.6740  -20.0046 O   0  0  0  0  0  0  0  0  0  0  0  0
  2  1  1  0
  3  2  1  0
  3  4  1  6
  5  6  2  0
  5  3  1  0
  7  8  1  0
  8  9  1  0
  9 10  1  0
 11 10  1  1
 11 12  1  0
 12  5  1  0
 13 15  1  0
 13 11  1  0
 14 13  2  0
 16 22  1  0
 16 15  1  0
 16 17  1  6
 17 18  1  0
 18 19  1  0
 19 20  1  0
 20 21  1  0
 22 23  1  0
 24 22  2  0
M  END
$$$$
