SMK.pdb
     RDKit          3D

 24 23  0  0  1  0  0  0  0  0999 V2000
   16.0698  -27.0650   -3.9010 O   0  0  0  0  0  0  0  0  0  0  0  0
   16.3904  -26.9084   -2.5481 C   0  0  0  0  0  0  0  0  0  0  0  0
   17.4945  -27.8663   -2.1536 C   0  0  2  0  0  0  0  0  0  0  0  0
   16.9639  -29.1982   -2.1144 N   0  0  0  0  0  0  0  0  0  0  0  0
   18.1005  -27.5186   -0.8511 C   0  0  0  0  0  0  0  0  0  0  0  0
   17.7150  -28.1284    0.1699 O   0  0  0  0  0  0  0  0  0  0  0  0
   23.4112  -23.9876   -0.3483 C   0  0  0  0  0  0  0  0  0  0  0  0
   23.1383  -24.1301    1.4275 S   0  0  0  0  0  0  0  0  0  0  0  0
   21.4587  -24.8051    1.7393 C   0  0  0  0  0  0  0  0  0  0  0  0
   20.9353  -25.4130    0.4674 C   0  0  0  0  0  0  0  0  0  0  0  0
   19.5807  -26.0200    0.5706 C   0  0  2  0  0  0  0  0  0  0  0  0
   19.1000  -26.5259   -0.7020 N   0  0  0  0  0  0  0  0  0  0  0  0
   18.5516  -25.1639    1.2067 C   0  0  0  0  0  0  0  0  0  0  0  0
   17.8777  -24.3220    0.5646 O   0  0  0  0  0  0  0  0  0  0  0  0
   18.2638  -25.2508    2.6123 N   0  0  0  0  0  0  0  0  0  0  0  0
   17.3558  -24.3220    3.2757 C   0  0  1  0  0  0  0  0  0  0  0  0
   15.9722  -24.8806    3.2322 C   0  0  0  0  0  0  0  0  0  0  0  0
   15.0628  -24.0800    2.3656 C   0  0  0  0  0  0  0  0  0  0  0  0
   13.6675  -24.6506    2.4478 C   0  0  0  0  0  0  0  0  0  0  0  0
   12.7139  -23.8652    1.5360 C   0  0  0  0  0  0  0  0  0  0  0  0
   11.4000  -24.4529    1.7205 N   0  0  0  0  0  0  0  0  0  0  0  0
   17.8414  -23.9837    4.6322 C   0  0  0  0  0  0  0  0  0  0  0  0
   18.4522  -24.8981    5.4651 O   0  0  0  0  0  0  0  0  0  0  0  0
   17.7012  -22.8034    5.0762 O   0  0  0  0  0  0  0  0  0  0  0  0
  2  1  1  0
  3  2  1  0
  3  4  1  1
  5  6  2  0
  5  3  1  0
  7  8  1  0
  8  9  1  0
  9 10  1  0
 11 10  1  6
 11 12  1  0
 12  5  1  0
 13 15  1  0
 13 11  1  0
 14 13  2  0
 16 22  1  0
 16 15  1  0
 16 17  1  1
 17 18  1  0
 18 19  1  0
 19 20  1  0
 20 21  1  0
 22 23  1  0
 24 22  2  0
M  END
$$$$
