SMK.pdb
     RDKit          3D

 24 23  0  0  1  0  0  0  0  0999 V2000
   28.7877  -26.7723  -15.7706 O   0  0  0  0  0  0  0  0  0  0  0  0
   29.5411  -25.9164  -16.5814 C   0  0  0  0  0  0  0  0  0  0  0  0
   29.2407  -26.1744  -18.0428 C   0  0  2  0  0  0  0  0  0  0  0  0
   27.8472  -25.9331  -18.2816 N   0  0  0  0  0  0  0  0  0  0  0  0
   29.6003  -27.5471  -18.4560 C   0  0  0  0  0  0  0  0  0  0  0  0
   28.6822  -28.3726  -18.6527 O   0  0  0  0  0  0  0  0  0  0  0  0
   35.7230  -30.6396  -18.9864 C   0  0  0  0  0  0  0  0  0  0  0  0
   34.9086  -30.6022  -20.5937 S   0  0  0  0  0  0  0  0  0  0  0  0
   33.0867  -30.6026  -20.3600 C   0  0  0  0  0  0  0  0  0  0  0  0
   32.6752  -29.2938  -19.7443 C   0  0  0  0  0  0  0  0  0  0  0  0
   31.3282  -29.2913  -19.1124 C   0  0  2  0  0  0  0  0  0  0  0  0
   30.9380  -27.9751  -18.6412 N   0  0  0  0  0  0  0  0  0  0  0  0
   31.1290  -30.3005  -18.0454 C   0  0  0  0  0  0  0  0  0  0  0  0
   31.6992  -30.2300  -16.9296 O   0  0  0  0  0  0  0  0  0  0  0  0
   30.2606  -31.4308  -18.2309 N   0  0  0  0  0  0  0  0  0  0  0  0
   29.9843  -32.3793  -17.1580 C   0  0  1  0  0  0  0  0  0  0  0  0
   28.5192  -32.6631  -17.1257 C   0  0  0  0  0  0  0  0  0  0  0  0
   28.1614  -33.6913  -16.1089 C   0  0  0  0  0  0  0  0  0  0  0  0
   26.9982  -33.1931  -15.2856 C   0  0  0  0  0  0  0  0  0  0  0  0
   26.6066  -34.2348  -14.2278 C   0  0  0  0  0  0  0  0  0  0  0  0
   25.5764  -33.6180  -13.4128 N   0  0  0  0  0  0  0  0  0  0  0  0
   30.8420  -33.5795  -17.2776 C   0  0  0  0  0  0  0  0  0  0  0  0
   31.5588  -33.8846  -18.4160 O   0  0  0  0  0  0  0  0  0  0  0  0
   30.9403  -34.3843  -16.3016 O   0  0  0  0  0  0  0  0  0  0  0  0
  2  1  1  0
  3  2  1  0
  3  4  1  1
  5  6  2  0
  5  3  1  0
  7  8  1  0
  8  9  1  0
  9 10  1  0
 11 10  1  1
 11 12  1  0
 12  5  1  0
 13 15  1  0
 13 11  1  0
 14 13  2  0
 16 22  1  0
 16 15  1  0
 16 17  1  6
 17 18  1  0
 18 19  1  0
 19 20  1  0
 20 21  1  0
 22 23  1  0
 24 22  2  0
M  END
$$$$
