SMK.pdb
     RDKit          3D

 24 23  0  0  1  0  0  0  0  0999 V2000
   14.7651   -8.2425  -16.1353 O   0  0  0  0  0  0  0  0  0  0  0  0
   15.9636   -8.5816  -16.7726 C   0  0  0  0  0  0  0  0  0  0  0  0
   16.7739   -9.5221  -15.9060 C   0  0  2  0  0  0  0  0  0  0  0  0
   16.0708  -10.7662  -15.7848 N   0  0  0  0  0  0  0  0  0  0  0  0
   17.0479   -8.9570  -14.5681 C   0  0  0  0  0  0  0  0  0  0  0  0
   16.2778   -9.2470  -13.6270 O   0  0  0  0  0  0  0  0  0  0  0  0
   22.2940   -4.9670  -13.0022 C   0  0  0  0  0  0  0  0  0  0  0  0
   22.0471   -6.0781  -11.6049 S   0  0  0  0  0  0  0  0  0  0  0  0
   20.2865   -6.5974  -11.5360 C   0  0  0  0  0  0  0  0  0  0  0  0
   19.8755   -7.1035  -12.8911 C   0  0  0  0  0  0  0  0  0  0  0  0
   18.4583   -7.5445  -12.9951 C   0  0  2  0  0  0  0  0  0  0  0  0
   18.1436   -8.1006  -14.2984 N   0  0  0  0  0  0  0  0  0  0  0  0
   17.4504   -6.5277  -12.6119 C   0  0  0  0  0  0  0  0  0  0  0  0
   17.0151   -5.6672  -13.4152 O   0  0  0  0  0  0  0  0  0  0  0  0
   16.9082   -6.4691  -11.2820 N   0  0  0  0  0  0  0  0  0  0  0  0
   15.9624   -5.4357  -10.8763 C   0  0  1  0  0  0  0  0  0  0  0  0
   15.1238   -5.9569   -9.7568 C   0  0  0  0  0  0  0  0  0  0  0  0
   14.1877   -4.9293   -9.2214 C   0  0  0  0  0  0  0  0  0  0  0  0
   13.4264   -5.5099   -8.0542 C   0  0  0  0  0  0  0  0  0  0  0  0
   12.5551   -4.4315   -7.3942 C   0  0  0  0  0  0  0  0  0  0  0  0
   11.7237   -5.1194   -6.4238 N   0  0  0  0  0  0  0  0  0  0  0  0
   16.6603   -4.1639  -10.5830 C   0  0  0  0  0  0  0  0  0  0  0  0
   16.0883   -2.9250  -10.7853 O   0  0  0  0  0  0  0  0  0  0  0  0
   17.8427   -4.1848  -10.1233 O   0  0  0  0  0  0  0  0  0  0  0  0
  2  1  1  0
  3  2  1  0
  3  4  1  1
  5  6  2  0
  5  3  1  0
  7  8  1  0
  8  9  1  0
  9 10  1  0
 11 10  1  6
 11 12  1  0
 12  5  1  0
 13 15  1  0
 13 11  1  0
 14 13  2  0
 16 22  1  0
 16 15  1  0
 16 17  1  1
 17 18  1  0
 18 19  1  0
 19 20  1  0
 20 21  1  0
 22 23  1  0
 24 22  2  0
M  END
$$$$
