SMK.pdb
     RDKit          3D

 24 23  0  0  1  0  0  0  0  0999 V2000
   19.4266  -12.0154  -19.4456 O   0  0  0  0  0  0  0  0  0  0  0  0
   19.9550  -11.1709  -18.4632 C   0  0  0  0  0  0  0  0  0  0  0  0
   20.9668  -11.9143  -17.6172 C   0  0  2  0  0  0  0  0  0  0  0  0
   20.3118  -13.0090  -16.9620 N   0  0  0  0  0  0  0  0  0  0  0  0
   21.6182  -11.0378  -16.6213 C   0  0  0  0  0  0  0  0  0  0  0  0
   21.0335  -10.8271  -15.5366 O   0  0  0  0  0  0  0  0  0  0  0  0
   28.0250  -12.6261  -15.1106 C   0  0  0  0  0  0  0  0  0  0  0  0
   27.3771  -11.0284  -15.6358 S   0  0  0  0  0  0  0  0  0  0  0  0
   25.5454  -11.0325  -15.4984 C   0  0  0  0  0  0  0  0  0  0  0  0
   25.0228   -9.6888  -15.9257 C   0  0  0  0  0  0  0  0  0  0  0  0
   23.5420   -9.5481  -15.8878 C   0  0  2  0  0  0  0  0  0  0  0  0
   22.8763  -10.4230  -16.8354 N   0  0  0  0  0  0  0  0  0  0  0  0
   23.0354   -8.1618  -16.0227 C   0  0  0  0  0  0  0  0  0  0  0  0
   22.8597   -7.6087  -17.1354 O   0  0  0  0  0  0  0  0  0  0  0  0
   22.7128   -7.3629  -14.8721 N   0  0  0  0  0  0  0  0  0  0  0  0
   22.0563   -6.0659  -14.9894 C   0  0  1  0  0  0  0  0  0  0  0  0
   20.6183   -6.2781  -15.3290 C   0  0  0  0  0  0  0  0  0  0  0  0
   19.8647   -4.9979  -15.4376 C   0  0  0  0  0  0  0  0  0  0  0  0
   18.4159   -5.2974  -15.7381 C   0  0  0  0  0  0  0  0  0  0  0  0
   17.6120   -3.9939  -15.8485 C   0  0  0  0  0  0  0  0  0  0  0  0
   16.2520   -4.3822  -16.1735 N   0  0  0  0  0  0  0  0  0  0  0  0
   22.2892   -5.2426  -13.7818 C   0  0  0  0  0  0  0  0  0  0  0  0
   22.1964   -3.8662  -13.7773 O   0  0  0  0  0  0  0  0  0  0  0  0
   22.5911   -5.8036  -12.6845 O   0  0  0  0  0  0  0  0  0  0  0  0
  2  1  1  0
  3  2  1  0
  3  4  1  1
  5  6  2  0
  5  3  1  0
  7  8  1  0
  8  9  1  0
  9 10  1  0
 11 10  1  6
 11 12  1  0
 12  5  1  0
 13 15  1  0
 13 11  1  0
 14 13  2  0
 16 22  1  0
 16 15  1  0
 16 17  1  1
 17 18  1  0
 18 19  1  0
 19 20  1  0
 20 21  1  0
 22 23  1  0
 24 22  2  0
M  END
$$$$
