SMK.pdb
     RDKit          3D

 24 23  0  0  1  0  0  0  0  0999 V2000
   18.0955  -26.7102   -9.4540 O   0  0  0  0  0  0  0  0  0  0  0  0
   17.3038  -26.1435   -8.4492 C   0  0  0  0  0  0  0  0  0  0  0  0
   17.9789  -24.9158   -7.8755 C   0  0  2  0  0  0  0  0  0  0  0  0
   19.2617  -24.7563   -8.4966 N   0  0  0  0  0  0  0  0  0  0  0  0
   18.1275  -24.9915   -6.4069 C   0  0  0  0  0  0  0  0  0  0  0  0
   18.6128  -24.0102   -5.8033 O   0  0  0  0  0  0  0  0  0  0  0  0
   15.2197  -22.0856   -2.4732 C   0  0  0  0  0  0  0  0  0  0  0  0
   14.4680  -23.7236   -2.4746 S   0  0  0  0  0  0  0  0  0  0  0  0
   15.7815  -25.0028   -2.5858 C   0  0  0  0  0  0  0  0  0  0  0  0
   16.2256  -25.1204   -4.0177 C   0  0  0  0  0  0  0  0  0  0  0  0
   17.3311  -26.0871   -4.2566 C   0  0  2  0  0  0  0  0  0  0  0  0
   17.7458  -26.1245   -5.6470 N   0  0  0  0  0  0  0  0  0  0  0  0
   17.0892  -27.4603   -3.7540 C   0  0  0  0  0  0  0  0  0  0  0  0
   16.1989  -28.2086   -4.2256 O   0  0  0  0  0  0  0  0  0  0  0  0
   17.8707  -28.0191   -2.6848 N   0  0  0  0  0  0  0  0  0  0  0  0
   17.7351  -29.4115   -2.2726 C   0  0  1  0  0  0  0  0  0  0  0  0
   18.9422  -29.8056   -1.4878 C   0  0  0  0  0  0  0  0  0  0  0  0
   18.9385  -31.2507   -1.1263 C   0  0  0  0  0  0  0  0  0  0  0  0
   20.2641  -31.6100   -0.4994 C   0  0  0  0  0  0  0  0  0  0  0  0
   20.3643  -33.1282   -0.2933 C   0  0  0  0  0  0  0  0  0  0  0  0
   21.6650  -33.3719    0.3023 N   0  0  0  0  0  0  0  0  0  0  0  0
   16.4479  -29.6358   -1.5775 C   0  0  0  0  0  0  0  0  0  0  0  0
   15.7456  -28.6299   -0.9466 O   0  0  0  0  0  0  0  0  0  0  0  0
   15.9435  -30.7995   -1.5439 O   0  0  0  0  0  0  0  0  0  0  0  0
  2  1  1  0
  3  2  1  0
  3  4  1  6
  5  6  2  0
  5  3  1  0
  7  8  1  0
  8  9  1  0
  9 10  1  0
 11 10  1  6
 11 12  1  0
 12  5  1  0
 13 15  1  0
 13 11  1  0
 14 13  2  0
 16 22  1  0
 16 15  1  0
 16 17  1  1
 17 18  1  0
 18 19  1  0
 19 20  1  0
 20 21  1  0
 22 23  1  0
 24 22  2  0
M  END
$$$$
