SMK.pdb
     RDKit          3D

 24 23  0  0  1  0  0  0  0  0999 V2000
   26.6888  -18.5400  -15.2720 O   0  0  0  0  0  0  0  0  0  0  0  0
   27.9712  -18.8943  -14.8391 C   0  0  0  0  0  0  0  0  0  0  0  0
   28.0603  -20.3902  -14.6230 C   0  0  2  0  0  0  0  0  0  0  0  0
   27.9008  -21.0535  -15.8845 N   0  0  0  0  0  0  0  0  0  0  0  0
   27.0538  -20.8788  -13.6573 C   0  0  0  0  0  0  0  0  0  0  0  0
   26.1197  -21.5954  -14.0779 O   0  0  0  0  0  0  0  0  0  0  0  0
   27.7401  -19.8829   -7.3554 C   0  0  0  0  0  0  0  0  0  0  0  0
   26.0291  -20.4354   -7.2312 S   0  0  0  0  0  0  0  0  0  0  0  0
   25.4533  -21.0267   -8.8721 C   0  0  0  0  0  0  0  0  0  0  0  0
   26.4392  -20.5894   -9.9199 C   0  0  0  0  0  0  0  0  0  0  0  0
   26.0568  -20.9170  -11.3200 C   0  0  2  0  0  0  0  0  0  0  0  0
   27.0954  -20.5747  -12.2744 N   0  0  0  0  0  0  0  0  0  0  0  0
   24.7511  -20.3725  -11.7622 C   0  0  0  0  0  0  0  0  0  0  0  0
   24.5553  -19.1472  -11.9499 O   0  0  0  0  0  0  0  0  0  0  0  0
   23.6217  -21.2282  -12.0039 N   0  0  0  0  0  0  0  0  0  0  0  0
   22.3807  -20.7270  -12.5835 C   0  0  1  0  0  0  0  0  0  0  0  0
   22.3034  -21.1557  -14.0113 C   0  0  0  0  0  0  0  0  0  0  0  0
   21.0526  -20.6952  -14.6763 C   0  0  0  0  0  0  0  0  0  0  0  0
   21.0295  -21.2022  -16.0981 C   0  0  0  0  0  0  0  0  0  0  0  0
   19.7684  -20.7086  -16.8216 C   0  0  0  0  0  0  0  0  0  0  0  0
   19.8232  -21.2675  -18.1597 N   0  0  0  0  0  0  0  0  0  0  0  0
   21.2150  -21.1170  -11.7591 C   0  0  0  0  0  0  0  0  0  0  0  0
   21.1617  -22.2895  -11.0343 O   0  0  0  0  0  0  0  0  0  0  0  0
   20.2020  -20.3555  -11.6989 O   0  0  0  0  0  0  0  0  0  0  0  0
  2  1  1  0
  3  2  1  0
  3  4  1  6
  5  6  2  0
  5  3  1  0
  7  8  1  0
  8  9  1  0
  9 10  1  0
 11 10  1  1
 11 12  1  0
 12  5  1  0
 13 15  1  0
 13 11  1  0
 14 13  2  0
 16 22  1  0
 16 15  1  0
 16 17  1  6
 17 18  1  0
 18 19  1  0
 19 20  1  0
 20 21  1  0
 22 23  1  0
 24 22  2  0
M  END
$$$$
