SMK.pdb
     RDKit          3D

 24 23  0  0  1  0  0  0  0  0999 V2000
   28.4463  -18.5362  -16.5968 O   0  0  0  0  0  0  0  0  0  0  0  0
   27.4011  -19.1755  -15.9213 C   0  0  0  0  0  0  0  0  0  0  0  0
   27.8718  -20.4968  -15.3513 C   0  0  2  0  0  0  0  0  0  0  0  0
   28.1033  -21.4135  -16.4298 N   0  0  0  0  0  0  0  0  0  0  0  0
   26.9053  -21.0701  -14.3913 C   0  0  0  0  0  0  0  0  0  0  0  0
   26.0980  -21.9335  -14.7985 O   0  0  0  0  0  0  0  0  0  0  0  0
   26.3203  -19.1667   -7.8488 C   0  0  0  0  0  0  0  0  0  0  0  0
   25.7706  -20.8772   -7.9906 S   0  0  0  0  0  0  0  0  0  0  0  0
   25.1088  -21.1724   -9.6785 C   0  0  0  0  0  0  0  0  0  0  0  0
   26.1909  -20.8844  -10.6821 C   0  0  0  0  0  0  0  0  0  0  0  0
   25.7967  -21.0728  -12.1044 C   0  0  2  0  0  0  0  0  0  0  0  0
   26.8484  -20.6889  -13.0281 N   0  0  0  0  0  0  0  0  0  0  0  0
   24.5135  -20.4413  -12.4934 C   0  0  0  0  0  0  0  0  0  0  0  0
   24.3621  -19.1973  -12.5601 O   0  0  0  0  0  0  0  0  0  0  0  0
   23.3559  -21.2282  -12.8202 N   0  0  0  0  0  0  0  0  0  0  0  0
   22.0708  -20.6182  -13.1422 C   0  0  1  0  0  0  0  0  0  0  0  0
   21.6732  -21.0228  -14.5230 C   0  0  0  0  0  0  0  0  0  0  0  0
   21.2961  -19.8574  -15.3706 C   0  0  0  0  0  0  0  0  0  0  0  0
   22.4970  -19.4156  -16.1717 C   0  0  0  0  0  0  0  0  0  0  0  0
   22.1339  -18.2211  -17.0653 C   0  0  0  0  0  0  0  0  0  0  0  0
   23.3838  -17.7332  -17.6182 N   0  0  0  0  0  0  0  0  0  0  0  0
   21.0652  -20.9182  -12.0986 C   0  0  0  0  0  0  0  0  0  0  0  0
   20.0473  -20.0510  -11.7598 O   0  0  0  0  0  0  0  0  0  0  0  0
   21.1187  -22.0184  -11.4688 O   0  0  0  0  0  0  0  0  0  0  0  0
  2  1  1  0
  3  2  1  0
  3  4  1  6
  5  6  2  0
  5  3  1  0
  7  8  1  0
  8  9  1  0
  9 10  1  0
 11 10  1  1
 11 12  1  0
 12  5  1  0
 13 15  1  0
 13 11  1  0
 14 13  2  0
 16 22  1  0
 16 15  1  0
 16 17  1  6
 17 18  1  0
 18 19  1  0
 19 20  1  0
 20 21  1  0
 22 23  1  0
 24 22  2  0
M  END
$$$$
