SMK.pdb
     RDKit          3D

 24 23  0  0  1  0  0  0  0  0999 V2000
   27.8097  -17.7657  -16.5395 O   0  0  0  0  0  0  0  0  0  0  0  0
   27.1558  -19.0021  -16.5746 C   0  0  0  0  0  0  0  0  0  0  0  0
   27.9121  -20.0224  -15.7505 C   0  0  2  0  0  0  0  0  0  0  0  0
   28.5466  -20.9570  -16.6342 N   0  0  0  0  0  0  0  0  0  0  0  0
   27.0361  -20.7342  -14.7964 C   0  0  0  0  0  0  0  0  0  0  0  0
   26.4450  -21.7661  -15.1822 O   0  0  0  0  0  0  0  0  0  0  0  0
   24.7182  -21.3997   -7.1900 C   0  0  0  0  0  0  0  0  0  0  0  0
   25.8008  -20.6561   -8.4241 S   0  0  0  0  0  0  0  0  0  0  0  0
   25.2931  -21.2090  -10.1005 C   0  0  0  0  0  0  0  0  0  0  0  0
   26.2362  -20.6201  -11.1130 C   0  0  0  0  0  0  0  0  0  0  0  0
   25.8940  -20.9053  -12.5327 C   0  0  2  0  0  0  0  0  0  0  0  0
   26.8326  -20.3040  -13.4622 N   0  0  0  0  0  0  0  0  0  0  0  0
   24.5018  -20.5812  -12.9244 C   0  0  0  0  0  0  0  0  0  0  0  0
   24.1017  -19.4042  -13.0963 O   0  0  0  0  0  0  0  0  0  0  0  0
   23.5193  -21.6097  -13.1320 N   0  0  0  0  0  0  0  0  0  0  0  0
   22.1634  -21.3069  -13.5758 C   0  0  1  0  0  0  0  0  0  0  0  0
   21.6692  -22.4286  -14.4278 C   0  0  0  0  0  0  0  0  0  0  0  0
   20.3034  -22.1750  -14.9655 C   0  0  0  0  0  0  0  0  0  0  0  0
   19.8575  -23.3694  -15.7741 C   0  0  0  0  0  0  0  0  0  0  0  0
   18.5213  -23.0750  -16.4708 C   0  0  0  0  0  0  0  0  0  0  0  0
   18.2330  -24.2302  -17.3004 N   0  0  0  0  0  0  0  0  0  0  0  0
   21.2912  -20.9753  -12.4270 C   0  0  0  0  0  0  0  0  0  0  0  0
   20.2759  -20.0438  -12.4944 O   0  0  0  0  0  0  0  0  0  0  0  0
   21.4641  -21.5600  -11.3143 O   0  0  0  0  0  0  0  0  0  0  0  0
  2  1  1  0
  3  2  1  0
  3  4  1  6
  5  6  2  0
  5  3  1  0
  7  8  1  0
  8  9  1  0
  9 10  1  0
 11 10  1  1
 11 12  1  0
 12  5  1  0
 13 15  1  0
 13 11  1  0
 14 13  2  0
 16 22  1  0
 16 15  1  0
 16 17  1  1
 17 18  1  0
 18 19  1  0
 19 20  1  0
 20 21  1  0
 22 23  1  0
 24 22  2  0
M  END
$$$$
