CRQ.pdb
     RDKit          3D

 27 26  0  0  1  0  0  0  0  0999 V2000
    7.3544  -18.6152   15.8097 N   0  0  0  0  0  0  0  0  0  0  0  0
    8.6164  -18.2460   16.3702 C   0  0  1  0  0  0  0  0  0  0  0  0
    9.0508  -16.8752   15.8360 C   0  0  0  0  0  0  0  0  0  0  0  0
    9.3502  -16.9381   14.0613 S   0  0  0  0  0  0  0  0  0  0  0  0
    8.6251  -18.1870   17.8398 C   0  0  0  0  0  0  0  0  0  0  0  0
    7.6483  -17.6281   18.4049 O   0  0  0  0  0  0  0  0  0  0  0  0
   10.7503  -25.1295   21.3488 N   0  0  0  0  0  0  0  0  0  0  0  0
   10.2258  -24.4913   20.1857 C   0  0  0  0  0  0  0  0  0  0  0  0
    9.6846  -25.1851   19.2578 N   0  0  0  0  0  0  0  0  0  0  0  0
   10.2885  -23.0841   20.0221 N   0  0  0  0  0  0  0  0  0  0  0  0
   11.0086  -22.2364   20.9113 C   0  0  0  0  0  0  0  0  0  0  0  0
   10.9996  -20.7570   20.4772 C   0  0  0  0  0  0  0  0  0  0  0  0
    9.6029  -20.2090   20.5596 C   0  0  0  0  0  0  0  0  0  0  0  0
    9.5115  -18.7840   20.1125 C   0  0  2  0  0  0  0  0  0  0  0  0
    9.6572  -18.7163   18.6533 N   0  0  0  0  0  0  0  0  0  0  0  0
   10.5316  -17.9193   20.7549 C   0  0  0  0  0  0  0  0  0  0  0  0
   11.6144  -17.5747   20.2272 O   0  0  0  0  0  0  0  0  0  0  0  0
    9.3400  -24.7049   18.4039 N   0  0  0  0  0  0  0  0  0  0  0  0
    9.2345  -13.8414   25.3198 C   0  0  0  0  0  0  0  0  0  0  0  0
    9.3067  -15.2168   25.6284 O   0  0  0  0  0  0  0  0  0  0  0  0
    8.7728  -15.6555   26.6645 C   0  0  0  0  0  0  0  0  0  0  0  0
   10.0121  -16.2170   24.7540 C   0  0  0  0  0  0  0  0  0  0  0  0
   10.7069  -15.5334   23.6116 C   0  0  1  0  0  0  0  0  0  0  0  0
   11.3260  -16.5306   22.7030 N   0  0  0  0  0  0  0  0  0  0  0  0
   10.3375  -17.3970   22.0822 C   0  0  0  0  0  0  0  0  0  0  0  0
   12.3213  -17.3537   23.3986 O   0  0  0  0  0  0  0  0  0  0  0  0
   13.4683  -16.8257   23.6417 O   0  0  0  0  0  0  0  0  0  0  0  0
  2  1  1  6
  3  2  1  0
  4  3  1  0
  5  2  1  0
  5  6  2  0
  7  8  1  0
  8 10  1  0
  9  8  2  0
 10 11  1  0
 12 11  1  0
 12 13  1  0
 14 15  1  0
 14 13  1  1
 15  5  1  0
 16 14  1  0
 17 16  2  0
 18 19  1  0
 19 21  1  0
 19 20  2  0
 21 22  1  0
 23 22  1  6
 23 25  1  0
 23 24  1  0
 24 16  1  0
 25 27  1  0
 26 25  2  0
M  END
$$$$
