CRQ.pdb
     RDKit          3D

 27 26  0  0  1  0  0  0  0  0999 V2000
    5.0300  -13.8671   26.6479 N   0  0  0  0  0  0  0  0  0  0  0  0
    6.1003  -13.3084   25.8827 C   0  0  1  0  0  0  0  0  0  0  0  0
    6.9932  -12.4406   26.7788 C   0  0  0  0  0  0  0  0  0  0  0  0
    6.3273  -10.7748   26.9360 S   0  0  0  0  0  0  0  0  0  0  0  0
    6.9516  -14.3098   25.2227 C   0  0  0  0  0  0  0  0  0  0  0  0
    7.3758  -15.2655   25.9246 O   0  0  0  0  0  0  0  0  0  0  0  0
    8.8535  -12.4418   18.3071 N   0  0  0  0  0  0  0  0  0  0  0  0
    8.9504  -13.8404   18.0427 C   0  0  0  0  0  0  0  0  0  0  0  0
    9.7599  -14.2741   17.1528 N   0  0  0  0  0  0  0  0  0  0  0  0
    8.1602  -14.7831   18.7481 N   0  0  0  0  0  0  0  0  0  0  0  0
    7.1316  -14.4008   19.6557 C   0  0  0  0  0  0  0  0  0  0  0  0
    7.6446  -14.1780   21.0925 C   0  0  0  0  0  0  0  0  0  0  0  0
    7.7399  -15.4943   21.8108 C   0  0  0  0  0  0  0  0  0  0  0  0
    8.1150  -15.3432   23.2514 C   0  0  2  0  0  0  0  0  0  0  0  0
    7.3212  -14.2663   23.8557 N   0  0  0  0  0  0  0  0  0  0  0  0
    9.5595  -15.0607   23.4370 C   0  0  0  0  0  0  0  0  0  0  0  0
   10.0678  -13.9159   23.4682 O   0  0  0  0  0  0  0  0  0  0  0  0
    9.7948  -15.2931   16.9557 N   0  0  0  0  0  0  0  0  0  0  0  0
   10.5426  -15.9984   29.6740 C   0  0  0  0  0  0  0  0  0  0  0  0
   10.7749  -15.5921   28.3424 O   0  0  0  0  0  0  0  0  0  0  0  0
   10.5961  -14.4056   28.0091 C   0  0  0  0  0  0  0  0  0  0  0  0
   11.2399  -16.5353   27.2670 C   0  0  0  0  0  0  0  0  0  0  0  0
   10.4119  -16.3799   26.0238 C   0  0  1  0  0  0  0  0  0  0  0  0
   11.2814  -16.2692   24.8259 N   0  0  0  0  0  0  0  0  0  0  0  0
   10.5130  -16.1268   23.6002 C   0  0  0  0  0  0  0  0  0  0  0  0
   12.1817  -17.4207   24.7009 O   0  0  0  0  0  0  0  0  0  0  0  0
   13.0905  -17.5685   25.5985 O   0  0  0  0  0  0  0  0  0  0  0  0
  2  1  1  1
  3  2  1  0
  4  3  1  0
  5  2  1  0
  5  6  2  0
  7  8  1  0
  8 10  1  0
  9  8  2  0
 10 11  1  0
 12 11  1  0
 12 13  1  0
 14 15  1  0
 14 13  1  6
 15  5  1  0
 16 14  1  0
 17 16  2  0
 18 19  1  0
 19 21  1  0
 19 20  2  0
 21 22  1  0
 23 22  1  1
 23 25  1  0
 23 24  1  0
 24 16  1  0
 25 27  1  0
 26 25  2  0
M  END
$$$$
