CRQ.pdb
     RDKit          3D

 27 26  0  0  1  0  0  0  0  0999 V2000
    6.3916  -15.7129   20.1725 N   0  0  0  0  0  0  0  0  0  0  0  0
    7.4686  -15.0939   20.8796 C   0  0  1  0  0  0  0  0  0  0  0  0
    6.9361  -14.3648   22.1199 C   0  0  0  0  0  0  0  0  0  0  0  0
    7.9914  -12.9717   22.5538 S   0  0  0  0  0  0  0  0  0  0  0  0
    8.5162  -16.0299   21.3150 C   0  0  0  0  0  0  0  0  0  0  0  0
    8.1659  -16.9980   22.0402 O   0  0  0  0  0  0  0  0  0  0  0  0
   13.3241  -19.3289   16.9565 N   0  0  0  0  0  0  0  0  0  0  0  0
   12.7959  -20.1759   17.9757 C   0  0  0  0  0  0  0  0  0  0  0  0
   12.9988  -21.4378   17.9353 N   0  0  0  0  0  0  0  0  0  0  0  0
   12.0363  -19.6523   19.0527 N   0  0  0  0  0  0  0  0  0  0  0  0
   12.5312  -19.5912   20.3866 C   0  0  0  0  0  0  0  0  0  0  0  0
   12.9143  -18.1636   20.8250 C   0  0  0  0  0  0  0  0  0  0  0  0
   11.8549  -17.1927   20.3858 C   0  0  0  0  0  0  0  0  0  0  0  0
   10.8779  -16.8696   21.4720 C   0  0  2  0  0  0  0  0  0  0  0  0
    9.8854  -15.9108   20.9711 N   0  0  0  0  0  0  0  0  0  0  0  0
   11.5345  -16.3189   22.6829 C   0  0  0  0  0  0  0  0  0  0  0  0
   11.4010  -15.1449   23.0998 O   0  0  0  0  0  0  0  0  0  0  0  0
   12.7519  -22.0157   18.7620 N   0  0  0  0  0  0  0  0  0  0  0  0
   10.1465  -19.8223   26.6361 C   0  0  0  0  0  0  0  0  0  0  0  0
   10.3937  -18.7038   27.4607 O   0  0  0  0  0  0  0  0  0  0  0  0
   10.1913  -18.7729   28.6876 C   0  0  0  0  0  0  0  0  0  0  0  0
   10.9029  -17.3914   26.9308 C   0  0  0  0  0  0  0  0  0  0  0  0
   10.9471  -17.4011   25.4298 C   0  0  1  0  0  0  0  0  0  0  0  0
   12.3192  -17.1094   24.9444 N   0  0  0  0  0  0  0  0  0  0  0  0
   12.4049  -17.1300   23.4934 C   0  0  0  0  0  0  0  0  0  0  0  0
   13.3017  -18.0464   25.5000 O   0  0  0  0  0  0  0  0  0  0  0  0
   14.0503  -17.6283   26.4583 O   0  0  0  0  0  0  0  0  0  0  0  0
  2  1  1  1
  3  2  1  0
  4  3  1  0
  5  2  1  0
  5  6  2  0
  7  8  1  0
  8 10  1  0
  9  8  2  0
 10 11  1  0
 12 11  1  0
 12 13  1  0
 14 15  1  0
 14 13  1  6
 15  5  1  0
 16 14  1  0
 17 16  2  0
 18 19  1  0
 19 21  1  0
 19 20  2  0
 21 22  1  0
 23 22  1  6
 23 25  1  0
 23 24  1  0
 24 16  1  0
 25 27  1  0
 26 25  2  0
M  END
$$$$
