CRQ.pdb
     RDKit          3D

 27 26  0  0  1  0  0  0  0  0999 V2000
    5.0921  -13.8351   26.6017 N   0  0  0  0  0  0  0  0  0  0  0  0
    6.0185  -13.0442   25.8540 C   0  0  1  0  0  0  0  0  0  0  0  0
    7.0429  -12.3990   26.7962 C   0  0  0  0  0  0  0  0  0  0  0  0
    6.3625  -10.9280   27.5813 S   0  0  0  0  0  0  0  0  0  0  0  0
    6.7541  -13.7953   24.8253 C   0  0  0  0  0  0  0  0  0  0  0  0
    7.1016  -14.9735   25.1030 O   0  0  0  0  0  0  0  0  0  0  0  0
   10.0822  -15.5835   17.7215 N   0  0  0  0  0  0  0  0  0  0  0  0
    8.8789  -15.0607   17.1612 C   0  0  0  0  0  0  0  0  0  0  0  0
    8.3986  -15.5585   16.0856 N   0  0  0  0  0  0  0  0  0  0  0  0
    8.1859  -13.9839   17.7705 N   0  0  0  0  0  0  0  0  0  0  0  0
    8.6891  -13.2881   18.9064 C   0  0  0  0  0  0  0  0  0  0  0  0
    8.6244  -14.1199   20.2030 C   0  0  0  0  0  0  0  0  0  0  0  0
    7.8548  -13.3700   21.2533 C   0  0  0  0  0  0  0  0  0  0  0  0
    7.7509  -14.1208   22.5433 C   0  0  2  0  0  0  0  0  0  0  0  0
    7.0934  -13.2791   23.5504 N   0  0  0  0  0  0  0  0  0  0  0  0
    9.0720  -14.5646   23.0516 C   0  0  0  0  0  0  0  0  0  0  0  0
    9.9589  -13.8036   23.5033 O   0  0  0  0  0  0  0  0  0  0  0  0
    7.5455  -15.1360   15.6707 N   0  0  0  0  0  0  0  0  0  0  0  0
   10.1680  -19.6150   26.4637 C   0  0  0  0  0  0  0  0  0  0  0  0
   10.5822  -18.3419   26.9106 O   0  0  0  0  0  0  0  0  0  0  0  0
   10.8013  -18.1432   28.1203 C   0  0  0  0  0  0  0  0  0  0  0  0
   10.7812  -17.1731   25.9850 C   0  0  0  0  0  0  0  0  0  0  0  0
   10.4945  -17.5615   24.5630 C   0  0  2  0  0  0  0  0  0  0  0  0
   10.6876  -16.4034   23.6547 N   0  0  0  0  0  0  0  0  0  0  0  0
    9.4385  -15.9568   23.0603 C   0  0  0  0  0  0  0  0  0  0  0  0
   11.6496  -16.7046   22.5890 O   0  0  0  0  0  0  0  0  0  0  0  0
   12.8785  -16.3804   22.7845 O   0  0  0  0  0  0  0  0  0  0  0  0
  2  1  1  1
  3  2  1  0
  4  3  1  0
  5  2  1  0
  5  6  2  0
  7  8  1  0
  8 10  1  0
  9  8  2  0
 10 11  1  0
 12 11  1  0
 12 13  1  0
 14 15  1  0
 14 13  1  6
 15  5  1  0
 16 14  1  0
 17 16  2  0
 18 19  1  0
 19 21  1  0
 19 20  2  0
 21 22  1  0
 23 22  1  1
 23 25  1  0
 23 24  1  0
 24 16  1  0
 25 27  1  0
 26 25  2  0
M  END
$$$$
