CRQ.pdb
     RDKit          3D

 27 26  0  0  1  0  0  0  0  0999 V2000
    7.7372  -14.8957   17.4968 N   0  0  0  0  0  0  0  0  0  0  0  0
    8.4213  -14.4258   18.6605 C   0  0  1  0  0  0  0  0  0  0  0  0
    8.1300  -12.9355   18.8786 C   0  0  0  0  0  0  0  0  0  0  0  0
    8.9755  -12.3191   20.3442 S   0  0  0  0  0  0  0  0  0  0  0  0
    8.0691  -15.1451   19.8942 C   0  0  0  0  0  0  0  0  0  0  0  0
    6.8461  -15.2547   20.1741 O   0  0  0  0  0  0  0  0  0  0  0  0
    6.7837  -20.9215   24.0177 N   0  0  0  0  0  0  0  0  0  0  0  0
    7.9681  -21.0664   24.7996 C   0  0  0  0  0  0  0  0  0  0  0  0
    7.8925  -21.4244   26.0249 N   0  0  0  0  0  0  0  0  0  0  0  0
    9.2520  -20.8194   24.2504 N   0  0  0  0  0  0  0  0  0  0  0  0
    9.4507  -20.0363   23.0777 C   0  0  0  0  0  0  0  0  0  0  0  0
    8.8084  -18.6376   23.1682 C   0  0  0  0  0  0  0  0  0  0  0  0
    9.1404  -17.8423   21.9373 C   0  0  0  0  0  0  0  0  0  0  0  0
    8.5816  -16.4548   21.9748 C   0  0  2  0  0  0  0  0  0  0  0  0
    9.0138  -15.7184   20.7806 N   0  0  0  0  0  0  0  0  0  0  0  0
    8.9874  -15.7105   23.1922 C   0  0  0  0  0  0  0  0  0  0  0  0
   10.0719  -15.0983   23.3300 O   0  0  0  0  0  0  0  0  0  0  0  0
    8.7667  -21.5250   26.5764 N   0  0  0  0  0  0  0  0  0  0  0  0
    5.1479  -11.9046   26.1111 C   0  0  0  0  0  0  0  0  0  0  0  0
    6.2805  -11.9069   26.9534 O   0  0  0  0  0  0  0  0  0  0  0  0
    6.3525  -11.1113   27.9087 C   0  0  0  0  0  0  0  0  0  0  0  0
    7.4431  -12.8417   26.7608 C   0  0  0  0  0  0  0  0  0  0  0  0
    7.1992  -13.7684   25.6047 C   0  0  1  0  0  0  0  0  0  0  0  0
    8.3617  -14.6687   25.4008 N   0  0  0  0  0  0  0  0  0  0  0  0
    8.1269  -15.6388   24.3440 C   0  0  0  0  0  0  0  0  0  0  0  0
    8.7231  -15.3755   26.6343 O   0  0  0  0  0  0  0  0  0  0  0  0
    8.1691  -16.5150   26.8540 O   0  0  0  0  0  0  0  0  0  0  0  0
  2  1  1  6
  3  2  1  0
  4  3  1  0
  5  2  1  0
  5  6  2  0
  7  8  1  0
  8 10  1  0
  9  8  2  0
 10 11  1  0
 12 11  1  0
 12 13  1  0
 14 15  1  0
 14 13  1  1
 15  5  1  0
 16 14  1  0
 17 16  2  0
 18 19  1  0
 19 21  1  0
 19 20  2  0
 21 22  1  0
 23 22  1  6
 23 25  1  0
 23 24  1  0
 24 16  1  0
 25 27  1  0
 26 25  2  0
M  END
$$$$
