CRQ.pdb
     RDKit          3D

 27 26  0  0  1  0  0  0  0  0999 V2000
    7.0221  -14.3669   18.0500 N   0  0  0  0  0  0  0  0  0  0  0  0
    8.0028  -13.9357   18.9961 C   0  0  1  0  0  0  0  0  0  0  0  0
    7.6191  -12.5642   19.5664 C   0  0  0  0  0  0  0  0  0  0  0  0
    8.7620  -12.0608   20.8639 S   0  0  0  0  0  0  0  0  0  0  0  0
    8.1959  -14.8609   20.1231 C   0  0  0  0  0  0  0  0  0  0  0  0
    7.1657  -15.3554   20.6522 O   0  0  0  0  0  0  0  0  0  0  0  0
   13.1158  -21.6151   19.8822 N   0  0  0  0  0  0  0  0  0  0  0  0
   12.8058  -20.2254   19.9702 C   0  0  0  0  0  0  0  0  0  0  0  0
   13.0512  -19.4460   18.9865 N   0  0  0  0  0  0  0  0  0  0  0  0
   12.2242  -19.6697   21.1381 N   0  0  0  0  0  0  0  0  0  0  0  0
   10.8562  -19.8620   21.4839 C   0  0  0  0  0  0  0  0  0  0  0  0
   10.2151  -18.6180   22.1308 C   0  0  0  0  0  0  0  0  0  0  0  0
   10.1210  -17.5086   21.1217 C   0  0  0  0  0  0  0  0  0  0  0  0
    9.5777  -16.2410   21.7021 C   0  0  2  0  0  0  0  0  0  0  0  0
    9.4603  -15.2277   20.6463 N   0  0  0  0  0  0  0  0  0  0  0  0
   10.4175  -15.7144   22.8058 C   0  0  0  0  0  0  0  0  0  0  0  0
   11.5596  -15.2190   22.6641 O   0  0  0  0  0  0  0  0  0  0  0  0
   12.8643  -18.4297   19.0888 N   0  0  0  0  0  0  0  0  0  0  0  0
    9.1014  -15.6873   29.1833 C   0  0  0  0  0  0  0  0  0  0  0  0
   10.1160  -14.7347   28.9483 O   0  0  0  0  0  0  0  0  0  0  0  0
   10.5121  -14.0002   29.8727 C   0  0  0  0  0  0  0  0  0  0  0  0
   10.7687  -14.5465   27.6063 C   0  0  0  0  0  0  0  0  0  0  0  0
   10.1672  -15.4681   26.5845 C   0  0  2  0  0  0  0  0  0  0  0  0
   10.7959  -15.2590   25.2561 N   0  0  0  0  0  0  0  0  0  0  0  0
    9.9575  -15.7385   24.1697 C   0  0  0  0  0  0  0  0  0  0  0  0
   12.1115  -15.9023   25.1715 O   0  0  0  0  0  0  0  0  0  0  0  0
   13.1487  -15.1695   25.3733 O   0  0  0  0  0  0  0  0  0  0  0  0
  2  1  1  6
  3  2  1  0
  4  3  1  0
  5  2  1  0
  5  6  2  0
  7  8  1  0
  8 10  1  0
  9  8  2  0
 10 11  1  0
 12 11  1  0
 12 13  1  0
 14 15  1  0
 14 13  1  6
 15  5  1  0
 16 14  1  0
 17 16  2  0
 18 19  1  0
 19 21  1  0
 19 20  2  0
 21 22  1  0
 23 22  1  6
 23 25  1  0
 23 24  1  0
 24 16  1  0
 25 27  1  0
 26 25  2  0
M  END
$$$$
