CRQ.pdb
     RDKit          3D

 27 26  0  0  1  0  0  0  0  0999 V2000
    7.8693  -14.7939   18.1370 N   0  0  0  0  0  0  0  0  0  0  0  0
    8.4785  -14.3106   19.3363 C   0  0  1  0  0  0  0  0  0  0  0  0
    7.9245  -12.9240   19.6883 C   0  0  0  0  0  0  0  0  0  0  0  0
    8.7151  -11.6421   18.7012 S   0  0  0  0  0  0  0  0  0  0  0  0
    8.2874  -15.1878   20.5013 C   0  0  0  0  0  0  0  0  0  0  0  0
    7.1088  -15.3658   20.9077 O   0  0  0  0  0  0  0  0  0  0  0  0
   11.9311  -19.3187   19.0788 N   0  0  0  0  0  0  0  0  0  0  0  0
   13.1554  -19.2477   19.8077 C   0  0  0  0  0  0  0  0  0  0  0  0
   14.2159  -19.7894   19.3418 N   0  0  0  0  0  0  0  0  0  0  0  0
   13.2344  -18.5838   21.0583 N   0  0  0  0  0  0  0  0  0  0  0  0
   12.1215  -18.4641   21.9387 C   0  0  0  0  0  0  0  0  0  0  0  0
   10.8313  -18.0134   21.2251 C   0  0  0  0  0  0  0  0  0  0  0  0
    9.6833  -18.0169   22.1946 C   0  0  0  0  0  0  0  0  0  0  0  0
    9.0729  -16.6628   22.3759 C   0  0  2  0  0  0  0  0  0  0  0  0
    9.3397  -15.8405   21.1895 N   0  0  0  0  0  0  0  0  0  0  0  0
    9.5771  -15.9686   23.5861 C   0  0  0  0  0  0  0  0  0  0  0  0
   10.6735  -15.3670   23.6630 O   0  0  0  0  0  0  0  0  0  0  0  0
   15.1092  -19.6777   19.8596 N   0  0  0  0  0  0  0  0  0  0  0  0
    7.0559  -11.6844   26.8575 C   0  0  0  0  0  0  0  0  0  0  0  0
    6.3983  -12.9293   26.7581 O   0  0  0  0  0  0  0  0  0  0  0  0
    5.1640  -12.9998   26.9084 C   0  0  0  0  0  0  0  0  0  0  0  0
    7.1207  -14.2173   26.4727 C   0  0  0  0  0  0  0  0  0  0  0  0
    8.5804  -13.9684   26.2228 C   0  0  1  0  0  0  0  0  0  0  0  0
    9.2965  -15.2468   25.9851 N   0  0  0  0  0  0  0  0  0  0  0  0
    8.8089  -15.9384   24.8031 C   0  0  0  0  0  0  0  0  0  0  0  0
    9.2042  -16.1434   27.1424 O   0  0  0  0  0  0  0  0  0  0  0  0
    8.5274  -17.2281   27.0050 O   0  0  0  0  0  0  0  0  0  0  0  0
  2  1  1  6
  3  2  1  0
  4  3  1  0
  5  2  1  0
  5  6  2  0
  7  8  1  0
  8 10  1  0
  9  8  2  0
 10 11  1  0
 12 11  1  0
 12 13  1  0
 14 15  1  0
 14 13  1  6
 15  5  1  0
 16 14  1  0
 17 16  2  0
 18 19  1  0
 19 21  1  0
 19 20  2  0
 21 22  1  0
 23 22  1  6
 23 25  1  0
 23 24  1  0
 24 16  1  0
 25 27  1  0
 26 25  2  0
M  END
$$$$
