CRQ.pdb
     RDKit          3D

 27 26  0  0  1  0  0  0  0  0999 V2000
    7.4004  -13.3628   17.0249 N   0  0  0  0  0  0  0  0  0  0  0  0
    8.1946  -13.3270   18.2127 C   0  0  1  0  0  0  0  0  0  0  0  0
    7.4911  -12.4960   19.2934 C   0  0  0  0  0  0  0  0  0  0  0  0
    8.4368  -12.4948   20.8260 S   0  0  0  0  0  0  0  0  0  0  0  0
    8.4899  -14.6530   18.7765 C   0  0  0  0  0  0  0  0  0  0  0  0
    7.7398  -15.6073   18.4413 O   0  0  0  0  0  0  0  0  0  0  0  0
   11.2744  -22.2871   16.7999 N   0  0  0  0  0  0  0  0  0  0  0  0
   11.7382  -21.0544   17.3480 C   0  0  0  0  0  0  0  0  0  0  0  0
   12.5471  -21.0525   18.3384 N   0  0  0  0  0  0  0  0  0  0  0  0
   11.3208  -19.8063   16.8198 N   0  0  0  0  0  0  0  0  0  0  0  0
   11.8335  -18.5622   17.2857 C   0  0  0  0  0  0  0  0  0  0  0  0
   11.2508  -18.1403   18.6493 C   0  0  0  0  0  0  0  0  0  0  0  0
   10.6146  -16.7838   18.5354 C   0  0  0  0  0  0  0  0  0  0  0  0
   10.0768  -16.2838   19.8391 C   0  0  2  0  0  0  0  0  0  0  0  0
    9.5587  -14.9211   19.6670 N   0  0  0  0  0  0  0  0  0  0  0  0
   11.0957  -16.2960   20.9173 C   0  0  0  0  0  0  0  0  0  0  0  0
   12.1430  -15.6083   20.9219 O   0  0  0  0  0  0  0  0  0  0  0  0
   12.8521  -20.1444   18.7394 N   0  0  0  0  0  0  0  0  0  0  0  0
   11.0114  -19.6293   26.5203 C   0  0  0  0  0  0  0  0  0  0  0  0
   12.1457  -18.7897   26.5449 O   0  0  0  0  0  0  0  0  0  0  0  0
   12.9401  -18.8375   27.5028 C   0  0  0  0  0  0  0  0  0  0  0  0
   12.4634  -17.8091   25.4495 C   0  0  0  0  0  0  0  0  0  0  0  0
   11.4911  -17.9427   24.3128 C   0  0  2  0  0  0  0  0  0  0  0  0
   11.9061  -17.0958   23.1665 N   0  0  0  0  0  0  0  0  0  0  0  0
   10.9430  -17.1334   22.0783 C   0  0  0  0  0  0  0  0  0  0  0  0
   13.2264  -17.4819   22.6569 O   0  0  0  0  0  0  0  0  0  0  0  0
   14.2579  -16.9347   23.1956 O   0  0  0  0  0  0  0  0  0  0  0  0
  2  1  1  6
  3  2  1  0
  4  3  1  0
  5  2  1  0
  5  6  2  0
  7  8  1  0
  8 10  1  0
  9  8  2  0
 10 11  1  0
 12 11  1  0
 12 13  1  0
 14 15  1  0
 14 13  1  6
 15  5  1  0
 16 14  1  0
 17 16  2  0
 18 19  1  0
 19 21  1  0
 19 20  2  0
 21 22  1  0
 23 22  1  1
 23 25  1  0
 23 24  1  0
 24 16  1  0
 25 27  1  0
 26 25  2  0
M  END
$$$$
