CRQ.pdb
     RDKit          3D

 27 26  0  0  1  0  0  0  0  0999 V2000
    7.0768  -14.9983   18.4128 N   0  0  0  0  0  0  0  0  0  0  0  0
    7.9594  -14.6740   19.4893 C   0  0  1  0  0  0  0  0  0  0  0  0
    8.1606  -13.1552   19.5681 C   0  0  0  0  0  0  0  0  0  0  0  0
    9.0970  -12.5529   18.1527 S   0  0  0  0  0  0  0  0  0  0  0  0
    7.4974  -15.1421   20.8049 C   0  0  0  0  0  0  0  0  0  0  0  0
    6.3261  -14.8365   21.1522 O   0  0  0  0  0  0  0  0  0  0  0  0
    9.0694  -19.7748   26.9172 N   0  0  0  0  0  0  0  0  0  0  0  0
    7.8165  -20.4494   26.8149 C   0  0  0  0  0  0  0  0  0  0  0  0
    7.2654  -20.9480   27.8556 N   0  0  0  0  0  0  0  0  0  0  0  0
    7.1507  -20.5888   25.5707 N   0  0  0  0  0  0  0  0  0  0  0  0
    7.6185  -19.9756   24.3736 C   0  0  0  0  0  0  0  0  0  0  0  0
    7.4492  -18.4431   24.3727 C   0  0  0  0  0  0  0  0  0  0  0  0
    7.8891  -17.8812   23.0504 C   0  0  0  0  0  0  0  0  0  0  0  0
    7.7281  -16.3959   22.9687 C   0  0  2  0  0  0  0  0  0  0  0  0
    8.2829  -15.9103   21.6992 N   0  0  0  0  0  0  0  0  0  0  0  0
    8.3799  -15.6897   24.0989 C   0  0  0  0  0  0  0  0  0  0  0  0
    9.6166  -15.6337   24.2917 O   0  0  0  0  0  0  0  0  0  0  0  0
    6.3182  -21.3658   27.7743 N   0  0  0  0  0  0  0  0  0  0  0  0
    5.2739  -11.6926   27.8109 C   0  0  0  0  0  0  0  0  0  0  0  0
    6.1148  -11.2652   26.7609 O   0  0  0  0  0  0  0  0  0  0  0  0
    5.9612  -10.1380   26.2543 C   0  0  0  0  0  0  0  0  0  0  0  0
    7.2205  -12.1158   26.1985 C   0  0  0  0  0  0  0  0  0  0  0  0
    7.3184  -13.4214   26.9339 C   0  0  2  0  0  0  0  0  0  0  0  0
    8.2372  -14.3512   26.2303 N   0  0  0  0  0  0  0  0  0  0  0  0
    7.6030  -14.9929   25.0905 C   0  0  0  0  0  0  0  0  0  0  0  0
    8.7633  -15.3805   27.1334 O   0  0  0  0  0  0  0  0  0  0  0  0
    8.3421  -16.5852   26.9760 O   0  0  0  0  0  0  0  0  0  0  0  0
  2  1  1  6
  3  2  1  0
  4  3  1  0
  5  2  1  0
  5  6  2  0
  7  8  1  0
  8 10  1  0
  9  8  2  0
 10 11  1  0
 12 11  1  0
 12 13  1  0
 14 15  1  0
 14 13  1  1
 15  5  1  0
 16 14  1  0
 17 16  2  0
 18 19  1  0
 19 21  1  0
 19 20  2  0
 21 22  1  0
 23 22  1  6
 23 25  1  0
 23 24  1  0
 24 16  1  0
 25 27  1  0
 26 25  2  0
M  END
$$$$
