CRQ.pdb
     RDKit          3D

 27 26  0  0  1  0  0  0  0  0999 V2000
    7.4272  -14.1363   18.2273 N   0  0  0  0  0  0  0  0  0  0  0  0
    8.3612  -13.8644   19.2745 C   0  0  1  0  0  0  0  0  0  0  0  0
    7.9798  -12.5667   19.9984 C   0  0  0  0  0  0  0  0  0  0  0  0
    9.2057  -12.1380   21.2460 S   0  0  0  0  0  0  0  0  0  0  0  0
    8.4639  -14.9341   20.2787 C   0  0  0  0  0  0  0  0  0  0  0  0
    7.3901  -15.4122   20.7305 O   0  0  0  0  0  0  0  0  0  0  0  0
    9.7202  -20.2868   17.6395 N   0  0  0  0  0  0  0  0  0  0  0  0
    9.1766  -21.1281   18.6553 C   0  0  0  0  0  0  0  0  0  0  0  0
    8.7953  -22.3157   18.3737 N   0  0  0  0  0  0  0  0  0  0  0  0
    9.0415  -20.6792   19.9937 N   0  0  0  0  0  0  0  0  0  0  0  0
    8.5512  -19.3843   20.3263 C   0  0  0  0  0  0  0  0  0  0  0  0
    9.5054  -18.2493   19.9041 C   0  0  0  0  0  0  0  0  0  0  0  0
   10.2955  -17.7776   21.0920 C   0  0  0  0  0  0  0  0  0  0  0  0
    9.7079  -16.5601   21.7332 C   0  0  2  0  0  0  0  0  0  0  0  0
    9.6875  -15.4562   20.7657 N   0  0  0  0  0  0  0  0  0  0  0  0
   10.4495  -16.1427   22.9484 C   0  0  0  0  0  0  0  0  0  0  0  0
   11.5563  -15.5556   22.9466 O   0  0  0  0  0  0  0  0  0  0  0  0
    9.0591  -22.7267   17.4572 N   0  0  0  0  0  0  0  0  0  0  0  0
    8.4860  -13.6000   28.2744 C   0  0  0  0  0  0  0  0  0  0  0  0
    9.7629  -14.1005   28.6078 O   0  0  0  0  0  0  0  0  0  0  0  0
   10.2682  -13.8405   29.7159 C   0  0  0  0  0  0  0  0  0  0  0  0
   10.5768  -14.9560   27.6760 C   0  0  0  0  0  0  0  0  0  0  0  0
    9.8189  -15.2406   26.4112 C   0  0  1  0  0  0  0  0  0  0  0  0
   10.6611  -16.0042   25.4566 N   0  0  0  0  0  0  0  0  0  0  0  0
    9.9254  -16.3949   24.2653 C   0  0  0  0  0  0  0  0  0  0  0  0
   11.2407  -17.1988   26.0802 O   0  0  0  0  0  0  0  0  0  0  0  0
   10.5914  -18.3034   25.9726 O   0  0  0  0  0  0  0  0  0  0  0  0
  2  1  1  6
  3  2  1  0
  4  3  1  0
  5  2  1  0
  5  6  2  0
  7  8  1  0
  8 10  1  0
  9  8  2  0
 10 11  1  0
 12 11  1  0
 12 13  1  0
 14 15  1  0
 14 13  1  6
 15  5  1  0
 16 14  1  0
 17 16  2  0
 18 19  1  0
 19 21  1  0
 19 20  2  0
 21 22  1  0
 23 22  1  6
 23 25  1  0
 23 24  1  0
 24 16  1  0
 25 27  1  0
 26 25  2  0
M  END
$$$$
