CRQ.pdb
     RDKit          3D

 27 26  0  0  1  0  0  0  0  0999 V2000
   11.6472  -19.1068   18.4851 N   0  0  0  0  0  0  0  0  0  0  0  0
   10.6182  -19.3399   19.4495 C   0  0  1  0  0  0  0  0  0  0  0  0
   10.7738  -20.7386   20.0601 C   0  0  0  0  0  0  0  0  0  0  0  0
    9.4500  -21.8321   19.5170 S   0  0  0  0  0  0  0  0  0  0  0  0
   10.5939  -18.3623   20.5481 C   0  0  0  0  0  0  0  0  0  0  0  0
   11.6883  -18.0907   21.1089 O   0  0  0  0  0  0  0  0  0  0  0  0
    8.6237  -13.4495   18.1956 N   0  0  0  0  0  0  0  0  0  0  0  0
    8.4599  -12.5055   19.2526 C   0  0  0  0  0  0  0  0  0  0  0  0
    9.2560  -11.5102   19.3579 N   0  0  0  0  0  0  0  0  0  0  0  0
    7.4226  -12.6396   20.2102 N   0  0  0  0  0  0  0  0  0  0  0  0
    7.2557  -13.8083   21.0066 C   0  0  0  0  0  0  0  0  0  0  0  0
    8.5482  -14.6380   21.1418 C   0  0  0  0  0  0  0  0  0  0  0  0
    8.3037  -15.8231   22.0326 C   0  0  0  0  0  0  0  0  0  0  0  0
    9.4817  -16.7422   22.1118 C   0  0  2  0  0  0  0  0  0  0  0  0
    9.4236  -17.7118   21.0111 N   0  0  0  0  0  0  0  0  0  0  0  0
    9.5552  -17.4630   23.4063 C   0  0  0  0  0  0  0  0  0  0  0  0
    8.6841  -18.2539   23.8370 O   0  0  0  0  0  0  0  0  0  0  0  0
    9.1305  -10.8443   20.1448 N   0  0  0  0  0  0  0  0  0  0  0  0
   14.8276  -19.3937   26.3702 C   0  0  0  0  0  0  0  0  0  0  0  0
   13.7633  -19.7458   27.2278 O   0  0  0  0  0  0  0  0  0  0  0  0
   13.9837  -20.4017   28.2632 C   0  0  0  0  0  0  0  0  0  0  0  0
   12.3334  -19.3649   26.9585 C   0  0  0  0  0  0  0  0  0  0  0  0
   12.2300  -18.5075   25.7300 C   0  0  2  0  0  0  0  0  0  0  0  0
   10.8216  -18.1048   25.4894 N   0  0  0  0  0  0  0  0  0  0  0  0
   10.6786  -17.2949   24.2908 C   0  0  0  0  0  0  0  0  0  0  0  0
   10.2625  -17.3772   26.6339 O   0  0  0  0  0  0  0  0  0  0  0  0
   10.0605  -16.1146   26.4981 O   0  0  0  0  0  0  0  0  0  0  0  0
  2  1  1  6
  3  2  1  0
  4  3  1  0
  5  2  1  0
  5  6  2  0
  7  8  1  0
  8 10  1  0
  9  8  2  0
 10 11  1  0
 12 11  1  0
 12 13  1  0
 14 15  1  0
 14 13  1  1
 15  5  1  0
 16 14  1  0
 17 16  2  0
 18 19  1  0
 19 21  1  0
 19 20  2  0
 21 22  1  0
 23 22  1  6
 23 25  1  0
 23 24  1  0
 24 16  1  0
 25 27  1  0
 26 25  2  0
M  END
$$$$
