CRQ.pdb
     RDKit          3D

 27 26  0  0  1  0  0  0  0  0999 V2000
    4.9965  -19.6236   23.8567 N   0  0  0  0  0  0  0  0  0  0  0  0
    6.3333  -19.9786   23.4963 C   0  0  1  0  0  0  0  0  0  0  0  0
    6.3175  -21.0466   22.3952 C   0  0  0  0  0  0  0  0  0  0  0  0
    7.9689  -21.7056   22.1099 S   0  0  0  0  0  0  0  0  0  0  0  0
    7.1470  -18.8480   23.0240 C   0  0  0  0  0  0  0  0  0  0  0  0
    8.3693  -19.0615   22.8086 O   0  0  0  0  0  0  0  0  0  0  0  0
    8.9566  -11.5539   19.1362 N   0  0  0  0  0  0  0  0  0  0  0  0
    8.7216  -12.9121   18.7685 C   0  0  0  0  0  0  0  0  0  0  0  0
    9.5097  -13.5059   17.9551 N   0  0  0  0  0  0  0  0  0  0  0  0
    7.6186  -13.6382   19.2854 N   0  0  0  0  0  0  0  0  0  0  0  0
    6.9837  -13.3031   20.5152 C   0  0  0  0  0  0  0  0  0  0  0  0
    7.5830  -14.0441   21.7272 C   0  0  0  0  0  0  0  0  0  0  0  0
    6.7332  -15.2351   22.0692 C   0  0  0  0  0  0  0  0  0  0  0  0
    7.5422  -16.4366   22.4443 C   0  0  2  0  0  0  0  0  0  0  0  0
    6.6443  -17.5430   22.7977 N   0  0  0  0  0  0  0  0  0  0  0  0
    8.4696  -16.1693   23.5709 C   0  0  0  0  0  0  0  0  0  0  0  0
    8.1430  -15.6382   24.6577 O   0  0  0  0  0  0  0  0  0  0  0  0
    9.3463  -14.5073   17.7342 N   0  0  0  0  0  0  0  0  0  0  0  0
   12.2024  -18.7109   28.7606 C   0  0  0  0  0  0  0  0  0  0  0  0
   11.2015  -18.2336   27.8873 O   0  0  0  0  0  0  0  0  0  0  0  0
   10.0329  -18.6525   27.9849 C   0  0  0  0  0  0  0  0  0  0  0  0
   11.4694  -17.2172   26.8113 C   0  0  0  0  0  0  0  0  0  0  0  0
   10.4406  -17.3078   25.7212 C   0  0  1  0  0  0  0  0  0  0  0  0
   10.7509  -16.3532   24.6276 N   0  0  0  0  0  0  0  0  0  0  0  0
    9.8641  -16.5165   23.4873 C   0  0  0  0  0  0  0  0  0  0  0  0
   12.1423  -16.4756   24.1793 O   0  0  0  0  0  0  0  0  0  0  0  0
   12.3485  -16.8685   22.9724 O   0  0  0  0  0  0  0  0  0  0  0  0
  2  1  1  6
  3  2  1  0
  4  3  1  0
  5  2  1  0
  5  6  2  0
  7  8  1  0
  8 10  1  0
  9  8  2  0
 10 11  1  0
 12 11  1  0
 12 13  1  0
 14 15  1  0
 14 13  1  1
 15  5  1  0
 16 14  1  0
 17 16  2  0
 18 19  1  0
 19 21  1  0
 19 20  2  0
 21 22  1  0
 23 22  1  1
 23 25  1  0
 23 24  1  0
 24 16  1  0
 25 27  1  0
 26 25  2  0
M  END
$$$$
