CRQ.pdb
     RDKit          3D

 27 26  0  0  1  0  0  0  0  0999 V2000
    6.1636  -19.9850   24.6677 N   0  0  0  0  0  0  0  0  0  0  0  0
    6.6220  -18.6997   25.0932 C   0  0  1  0  0  0  0  0  0  0  0  0
    7.6737  -18.8537   26.1993 C   0  0  0  0  0  0  0  0  0  0  0  0
    7.9764  -17.2832   27.0269 S   0  0  0  0  0  0  0  0  0  0  0  0
    7.2072  -17.8856   24.0170 C   0  0  0  0  0  0  0  0  0  0  0  0
    8.0716  -18.4302   23.2807 O   0  0  0  0  0  0  0  0  0  0  0  0
    8.9905  -14.9842   18.7205 N   0  0  0  0  0  0  0  0  0  0  0  0
    8.2700  -13.8667   18.2038 C   0  0  0  0  0  0  0  0  0  0  0  0
    8.6752  -13.2703   17.1477 N   0  0  0  0  0  0  0  0  0  0  0  0
    7.0964  -13.3857   18.8380 N   0  0  0  0  0  0  0  0  0  0  0  0
    6.5388  -14.0003   19.9952 C   0  0  0  0  0  0  0  0  0  0  0  0
    7.3598  -13.7393   21.2738 C   0  0  0  0  0  0  0  0  0  0  0  0
    6.7819  -14.5198   22.4203 C   0  0  0  0  0  0  0  0  0  0  0  0
    7.5628  -15.7576   22.7317 C   0  0  2  0  0  0  0  0  0  0  0  0
    6.8608  -16.5363   23.7592 N   0  0  0  0  0  0  0  0  0  0  0  0
    8.9424  -15.4602   23.1890 C   0  0  0  0  0  0  0  0  0  0  0  0
    9.2376  -14.9610   24.2996 O   0  0  0  0  0  0  0  0  0  0  0  0
    8.1772  -12.4173   16.8269 N   0  0  0  0  0  0  0  0  0  0  0  0
   13.1114  -17.9127   26.8810 C   0  0  0  0  0  0  0  0  0  0  0  0
   12.9300  -18.1983   25.5107 O   0  0  0  0  0  0  0  0  0  0  0  0
   12.8095  -19.3768   25.1269 C   0  0  0  0  0  0  0  0  0  0  0  0
   12.8717  -17.1315   24.4520 C   0  0  0  0  0  0  0  0  0  0  0  0
   11.4755  -16.9810   23.9199 C   0  0  1  0  0  0  0  0  0  0  0  0
   11.4120  -15.8876   22.9178 N   0  0  0  0  0  0  0  0  0  0  0  0
   10.0812  -15.7366   22.3528 C   0  0  0  0  0  0  0  0  0  0  0  0
   12.3778  -16.0899   21.8325 O   0  0  0  0  0  0  0  0  0  0  0  0
   11.9862  -16.7475   20.7992 O   0  0  0  0  0  0  0  0  0  0  0  0
  2  1  1  6
  3  2  1  0
  4  3  1  0
  5  2  1  0
  5  6  2  0
  7  8  1  0
  8 10  1  0
  9  8  2  0
 10 11  1  0
 12 11  1  0
 12 13  1  0
 14 15  1  0
 14 13  1  1
 15  5  1  0
 16 14  1  0
 17 16  2  0
 18 19  1  0
 19 21  1  0
 19 20  2  0
 21 22  1  0
 23 22  1  1
 23 25  1  0
 23 24  1  0
 24 16  1  0
 25 27  1  0
 26 25  2  0
M  END
$$$$
