CRQ.pdb
     RDKit          3D

 27 26  0  0  1  0  0  0  0  0999 V2000
    7.2231  -18.3434   27.1637 N   0  0  0  0  0  0  0  0  0  0  0  0
    7.1999  -17.0322   26.5951 C   0  0  1  0  0  0  0  0  0  0  0  0
    7.9900  -16.0591   27.4795 C   0  0  0  0  0  0  0  0  0  0  0  0
    7.4868  -14.3566   27.1773 S   0  0  0  0  0  0  0  0  0  0  0  0
    7.7494  -16.9600   25.2327 C   0  0  0  0  0  0  0  0  0  0  0  0
    8.6143  -17.8161   24.9086 O   0  0  0  0  0  0  0  0  0  0  0  0
    8.3873  -13.3421   17.1049 N   0  0  0  0  0  0  0  0  0  0  0  0
    8.3336  -12.7960   18.4217 C   0  0  0  0  0  0  0  0  0  0  0  0
    9.3075  -12.1001   18.8718 N   0  0  0  0  0  0  0  0  0  0  0  0
    7.2128  -13.0063   19.2647 N   0  0  0  0  0  0  0  0  0  0  0  0
    6.8194  -14.2985   19.7154 C   0  0  0  0  0  0  0  0  0  0  0  0
    7.8420  -14.9426   20.6727 C   0  0  0  0  0  0  0  0  0  0  0  0
    7.2750  -14.9990   22.0631 C   0  0  0  0  0  0  0  0  0  0  0  0
    8.0305  -15.9278   22.9606 C   0  0  2  0  0  0  0  0  0  0  0  0
    7.3685  -15.9937   24.2692 N   0  0  0  0  0  0  0  0  0  0  0  0
    9.4460  -15.5210   23.1391 C   0  0  0  0  0  0  0  0  0  0  0  0
    9.8282  -14.5239   23.7945 O   0  0  0  0  0  0  0  0  0  0  0  0
    9.2215  -11.6568   19.8070 N   0  0  0  0  0  0  0  0  0  0  0  0
   13.7555  -17.8542   26.1082 C   0  0  0  0  0  0  0  0  0  0  0  0
   12.6993  -18.4906   25.4214 O   0  0  0  0  0  0  0  0  0  0  0  0
   12.3084  -19.6176   25.7790 C   0  0  0  0  0  0  0  0  0  0  0  0
   11.9947  -17.8704   24.2460 C   0  0  0  0  0  0  0  0  0  0  0  0
   12.4327  -16.4475   24.0492 C   0  0  1  0  0  0  0  0  0  0  0  0
   11.9087  -15.9107   22.7682 N   0  0  0  0  0  0  0  0  0  0  0  0
   10.5192  -16.2757   22.5467 C   0  0  0  0  0  0  0  0  0  0  0  0
   12.7133  -16.3546   21.6247 O   0  0  0  0  0  0  0  0  0  0  0  0
   12.1141  -16.9987   20.6869 O   0  0  0  0  0  0  0  0  0  0  0  0
  2  1  1  1
  3  2  1  0
  4  3  1  0
  5  2  1  0
  5  6  2  0
  7  8  1  0
  8 10  1  0
  9  8  2  0
 10 11  1  0
 12 11  1  0
 12 13  1  0
 14 15  1  0
 14 13  1  6
 15  5  1  0
 16 14  1  0
 17 16  2  0
 18 19  1  0
 19 21  1  0
 19 20  2  0
 21 22  1  0
 23 22  1  1
 23 25  1  0
 23 24  1  0
 24 16  1  0
 25 27  1  0
 26 25  2  0
M  END
$$$$
