CRQ.pdb
     RDKit          3D

 27 26  0  0  1  0  0  0  0  0999 V2000
    5.7390  -14.6991   26.9072 N   0  0  0  0  0  0  0  0  0  0  0  0
    6.3375  -13.7313   26.0422 C   0  0  1  0  0  0  0  0  0  0  0  0
    7.3767  -12.9060   26.8120 C   0  0  0  0  0  0  0  0  0  0  0  0
    6.5979  -11.5349   27.6818 S   0  0  0  0  0  0  0  0  0  0  0  0
    6.9973  -14.3093   24.8616 C   0  0  0  0  0  0  0  0  0  0  0  0
    7.4483  -15.4807   24.9630 O   0  0  0  0  0  0  0  0  0  0  0  0
    9.7683  -15.3194   18.5416 N   0  0  0  0  0  0  0  0  0  0  0  0
    9.0454  -14.8439   17.4073 C   0  0  0  0  0  0  0  0  0  0  0  0
    9.2688  -15.3348   16.2478 N   0  0  0  0  0  0  0  0  0  0  0  0
    8.0689  -13.8226   17.5272 N   0  0  0  0  0  0  0  0  0  0  0  0
    7.7454  -13.2081   18.7704 C   0  0  0  0  0  0  0  0  0  0  0  0
    8.0522  -14.1048   19.9865 C   0  0  0  0  0  0  0  0  0  0  0  0
    7.5409  -13.4561   21.2417 C   0  0  0  0  0  0  0  0  0  0  0  0
    7.6934  -14.3272   22.4487 C   0  0  2  0  0  0  0  0  0  0  0  0
    7.1554  -13.6346   23.6259 N   0  0  0  0  0  0  0  0  0  0  0  0
    9.1044  -14.7109   22.6990 C   0  0  0  0  0  0  0  0  0  0  0  0
    9.9949  -13.9353   23.1176 O   0  0  0  0  0  0  0  0  0  0  0  0
    8.7391  -14.9676   15.4335 N   0  0  0  0  0  0  0  0  0  0  0  0
   12.1871  -19.2569   25.6050 C   0  0  0  0  0  0  0  0  0  0  0  0
   11.1756  -18.3477   25.9823 O   0  0  0  0  0  0  0  0  0  0  0  0
   10.8627  -18.2204   27.1809 C   0  0  0  0  0  0  0  0  0  0  0  0
   10.4285  -17.4961   24.9928 C   0  0  0  0  0  0  0  0  0  0  0  0
   10.9371  -17.7244   23.5984 C   0  0  2  0  0  0  0  0  0  0  0  0
   10.9148  -16.4610   22.8194 N   0  0  0  0  0  0  0  0  0  0  0  0
    9.5638  -16.0556   22.4681 C   0  0  0  0  0  0  0  0  0  0  0  0
   11.7219  -16.5623   21.5986 O   0  0  0  0  0  0  0  0  0  0  0  0
   11.1163  -16.8665   20.5058 O   0  0  0  0  0  0  0  0  0  0  0  0
  2  1  1  1
  3  2  1  0
  4  3  1  0
  5  2  1  0
  5  6  2  0
  7  8  1  0
  8 10  1  0
  9  8  2  0
 10 11  1  0
 12 11  1  0
 12 13  1  0
 14 15  1  0
 14 13  1  6
 15  5  1  0
 16 14  1  0
 17 16  2  0
 18 19  1  0
 19 21  1  0
 19 20  2  0
 21 22  1  0
 23 22  1  1
 23 25  1  0
 23 24  1  0
 24 16  1  0
 25 27  1  0
 26 25  2  0
M  END
$$$$
