EIC.pdb
     RDKit          3D

 24 23  0  0  1  0  0  0  0  0999 V2000
    8.6102  -15.5175   20.5006 N   0  0  0  0  0  0  0  0  0  0  0  0
    7.8539  -15.7654   21.6759 C   0  0  1  0  0  0  0  0  0  0  0  0
    7.5314  -17.2262   21.8055 C   0  0  0  0  0  0  0  0  0  0  0  0
    8.6652  -18.1632   21.6255 C   0  0  0  0  0  0  0  0  0  0  0  0
    8.3948  -19.5891   21.7309 C   0  0  0  0  0  0  0  0  0  0  0  0
    8.2863  -20.2270   20.6246 O   0  0  0  0  0  0  0  0  0  0  0  0
    8.4796  -15.2180   22.9063 C   0  0  0  0  0  0  0  0  0  0  0  0
    9.7151  -15.0829   22.9785 O   0  0  0  0  0  0  0  0  0  0  0  0
    8.2383  -20.3387   22.8733 O   0  0  0  0  0  0  0  0  0  0  0  0
    5.6384  -11.7557   26.2117 C   0  0  0  0  0  0  0  0  0  0  0  0
    6.7768  -12.3780   25.4816 C   0  0  0  0  0  0  0  0  0  0  0  0
    7.5224  -13.4645   26.1403 C   0  0  2  0  0  0  0  0  0  0  0  0
    8.3227  -12.9669   27.3419 C   0  0  0  0  0  0  0  0  0  0  0  0
    8.3144  -14.3257   25.2482 C   0  0  2  0  0  0  0  0  0  0  0  0
    7.6957  -14.8256   24.0569 N   0  0  0  0  0  0  0  0  0  0  0  0
    8.8698  -15.4773   26.0540 C   0  0  0  0  0  0  0  0  0  0  0  0
    8.1285  -16.4357   26.3961 O   0  0  0  0  0  0  0  0  0  0  0  0
   10.2369  -15.4995   26.4414 N   0  0  0  0  0  0  0  0  0  0  0  0
   10.7739  -16.6168   27.1649 C   0  0  1  0  0  0  0  0  0  0  0  0
   12.2056  -16.8526   26.7345 C   0  0  0  0  0  0  0  0  0  0  0  0
   13.0027  -18.1299   27.7309 S   0  0  0  0  0  0  0  0  0  0  0  0
   10.6450  -16.4852   28.6119 C   0  0  0  0  0  0  0  0  0  0  0  0
   10.6315  -15.3555   29.1436 O   0  0  0  0  0  0  0  0  0  0  0  0
   10.5353  -17.6021   29.4172 O   0  0  0  0  0  0  0  0  0  0  0  0
  2  3  1  0
  2  1  1  6
  4  3  1  0
  5  4  1  0
  5  6  2  0
  7  8  2  0
  7  2  1  0
  9  5  1  0
 10 11  1  0
 11 12  1  0
 12 14  1  0
 12 13  1  1
 14 15  1  6
 15  7  1  0
 16 17  2  0
 16 14  1  0
 18 16  1  0
 19 20  1  1
 19 18  1  0
 21 20  1  0
 22 19  1  0
 23 22  2  0
 24 22  1  0
M  END
$$$$
