EIC.pdb
     RDKit          3D

 24 23  0  0  1  0  0  0  0  0999 V2000
    9.1891  -16.2040   20.5895 N   0  0  0  0  0  0  0  0  0  0  0  0
    8.5501  -16.5159   21.8179 C   0  0  1  0  0  0  0  0  0  0  0  0
    8.6403  -17.9862   22.1088 C   0  0  0  0  0  0  0  0  0  0  0  0
    9.0622  -18.8498   20.9809 C   0  0  0  0  0  0  0  0  0  0  0  0
    9.0693  -20.2899   21.1901 C   0  0  0  0  0  0  0  0  0  0  0  0
    8.6418  -21.0045   20.2159 O   0  0  0  0  0  0  0  0  0  0  0  0
    9.0246  -15.6889   22.9563 C   0  0  0  0  0  0  0  0  0  0  0  0
   10.2304  -15.3989   23.0650 O   0  0  0  0  0  0  0  0  0  0  0  0
    9.4765  -20.9807   22.3073 O   0  0  0  0  0  0  0  0  0  0  0  0
    5.7500  -12.5584   26.8706 C   0  0  0  0  0  0  0  0  0  0  0  0
    6.4657  -13.5968   26.0794 C   0  0  0  0  0  0  0  0  0  0  0  0
    7.7872  -13.2646   25.5193 C   0  0  2  0  0  0  0  0  0  0  0  0
    7.7057  -12.1584   24.4697 C   0  0  0  0  0  0  0  0  0  0  0  0
    8.5970  -14.4098   25.0750 C   0  0  2  0  0  0  0  0  0  0  0  0
    8.1233  -15.1933   23.9734 N   0  0  0  0  0  0  0  0  0  0  0  0
    8.8585  -15.3078   26.2620 C   0  0  0  0  0  0  0  0  0  0  0  0
    8.2376  -16.3955   26.3912 O   0  0  0  0  0  0  0  0  0  0  0  0
    9.8078  -14.9416   27.2542 N   0  0  0  0  0  0  0  0  0  0  0  0
   10.3377  -15.9235   28.1571 C   0  0  1  0  0  0  0  0  0  0  0  0
   11.6150  -16.4969   27.5821 C   0  0  0  0  0  0  0  0  0  0  0  0
   11.2918  -17.5502   26.1518 S   0  0  0  0  0  0  0  0  0  0  0  0
   10.5174  -15.4234   29.5155 C   0  0  0  0  0  0  0  0  0  0  0  0
   10.3084  -14.2206   29.7775 O   0  0  0  0  0  0  0  0  0  0  0  0
   10.9193  -16.2669   30.5329 O   0  0  0  0  0  0  0  0  0  0  0  0
  2  3  1  0
  2  1  1  6
  4  3  1  0
  5  4  1  0
  5  6  2  0
  7  8  2  0
  7  2  1  0
  9  5  1  0
 10 11  1  0
 11 12  1  0
 12 14  1  0
 12 13  1  6
 14 15  1  6
 15  7  1  0
 16 17  2  0
 16 14  1  0
 18 16  1  0
 19 20  1  6
 19 18  1  0
 21 20  1  0
 22 19  1  0
 23 22  2  0
 24 22  1  0
M  END
$$$$
