EIC.pdb
     RDKit          3D

 24 23  0  0  1  0  0  0  0  0999 V2000
    8.2099  -16.3851   21.1135 N   0  0  0  0  0  0  0  0  0  0  0  0
    7.9024  -16.4926   22.4950 C   0  0  1  0  0  0  0  0  0  0  0  0
    8.2044  -17.8726   23.0038 C   0  0  0  0  0  0  0  0  0  0  0  0
    9.0545  -18.7178   22.1325 C   0  0  0  0  0  0  0  0  0  0  0  0
    9.9231  -19.6963   22.7692 C   0  0  0  0  0  0  0  0  0  0  0  0
   10.5936  -20.4535   21.9821 O   0  0  0  0  0  0  0  0  0  0  0  0
    8.5378  -15.4375   23.3246 C   0  0  0  0  0  0  0  0  0  0  0  0
    9.5976  -14.8986   22.9554 O   0  0  0  0  0  0  0  0  0  0  0  0
   10.1123  -19.9117   24.1143 O   0  0  0  0  0  0  0  0  0  0  0  0
    5.3060  -11.9560   26.0984 C   0  0  0  0  0  0  0  0  0  0  0  0
    6.5101  -12.4084   25.3487 C   0  0  0  0  0  0  0  0  0  0  0  0
    7.6016  -13.0538   26.0986 C   0  0  2  0  0  0  0  0  0  0  0  0
    8.3421  -12.0679   26.9995 C   0  0  0  0  0  0  0  0  0  0  0  0
    8.5135  -13.8905   25.3029 C   0  0  2  0  0  0  0  0  0  0  0  0
    7.9651  -14.9975   24.5779 N   0  0  0  0  0  0  0  0  0  0  0  0
    9.6326  -14.3727   26.1967 C   0  0  0  0  0  0  0  0  0  0  0  0
   10.3917  -13.5500   26.7730 O   0  0  0  0  0  0  0  0  0  0  0  0
    9.8498  -15.7620   26.4025 N   0  0  0  0  0  0  0  0  0  0  0  0
   10.7472  -16.2182   27.4257 C   0  0  1  0  0  0  0  0  0  0  0  0
   10.2936  -15.6826   28.7667 C   0  0  0  0  0  0  0  0  0  0  0  0
   11.2986  -16.3284   30.1204 S   0  0  0  0  0  0  0  0  0  0  0  0
   10.9225  -17.6662   27.4382 C   0  0  0  0  0  0  0  0  0  0  0  0
    9.9954  -18.4169   27.0695 O   0  0  0  0  0  0  0  0  0  0  0  0
   12.1119  -18.2316   27.8553 O   0  0  0  0  0  0  0  0  0  0  0  0
  2  3  1  0
  2  1  1  6
  4  3  1  0
  5  4  1  0
  5  6  2  0
  7  8  2  0
  7  2  1  0
  9  5  1  0
 10 11  1  0
 11 12  1  0
 12 14  1  0
 12 13  1  6
 14 15  1  1
 15  7  1  0
 16 17  2  0
 16 14  1  0
 18 16  1  0
 19 20  1  1
 19 18  1  0
 21 20  1  0
 22 19  1  0
 23 22  2  0
 24 22  1  0
M  END
$$$$
