EIC.pdb
     RDKit          3D

 24 23  0  0  1  0  0  0  0  0999 V2000
    7.7022  -14.4635   19.9839 N   0  0  0  0  0  0  0  0  0  0  0  0
    7.0237  -14.9087   21.1484 C   0  0  1  0  0  0  0  0  0  0  0  0
    6.5523  -16.3247   20.9835 C   0  0  0  0  0  0  0  0  0  0  0  0
    7.3760  -17.1886   20.1053 C   0  0  0  0  0  0  0  0  0  0  0  0
    6.9213  -18.5504   19.8678 C   0  0  0  0  0  0  0  0  0  0  0  0
    7.6855  -19.2833   19.1458 O   0  0  0  0  0  0  0  0  0  0  0  0
    7.8070  -14.7201   22.3958 C   0  0  0  0  0  0  0  0  0  0  0  0
    9.0501  -14.6637   22.3568 O   0  0  0  0  0  0  0  0  0  0  0  0
    5.7692  -19.1492   20.3209 O   0  0  0  0  0  0  0  0  0  0  0  0
    5.7082  -11.5539   26.4044 C   0  0  0  0  0  0  0  0  0  0  0  0
    6.6551  -12.2363   25.4802 C   0  0  0  0  0  0  0  0  0  0  0  0
    7.2849  -13.4923   25.9233 C   0  0  2  0  0  0  0  0  0  0  0  0
    8.1876  -13.2860   27.1376 C   0  0  0  0  0  0  0  0  0  0  0  0
    7.9278  -14.2897   24.8672 C   0  0  2  0  0  0  0  0  0  0  0  0
    7.1723  -14.5974   23.6898 N   0  0  0  0  0  0  0  0  0  0  0  0
    8.4578  -15.5661   25.4788 C   0  0  0  0  0  0  0  0  0  0  0  0
    7.6848  -16.3572   26.0802 O   0  0  0  0  0  0  0  0  0  0  0  0
    9.8371  -15.8964   25.3878 N   0  0  0  0  0  0  0  0  0  0  0  0
   10.3286  -17.1361   25.9185 C   0  0  1  0  0  0  0  0  0  0  0  0
   11.6680  -17.4555   25.2902 C   0  0  0  0  0  0  0  0  0  0  0  0
   12.7408  -16.0047   25.2267 S   0  0  0  0  0  0  0  0  0  0  0  0
   10.3804  -17.1617   27.3760 C   0  0  0  0  0  0  0  0  0  0  0  0
   10.4967  -18.2461   27.9840 O   0  0  0  0  0  0  0  0  0  0  0  0
   10.3029  -15.9926   28.1076 O   0  0  0  0  0  0  0  0  0  0  0  0
  2  3  1  0
  2  1  1  6
  4  3  1  0
  5  4  1  0
  5  6  2  0
  7  8  2  0
  7  2  1  0
  9  5  1  0
 10 11  1  0
 11 12  1  0
 12 14  1  0
 12 13  1  1
 14 15  1  6
 15  7  1  0
 16 17  2  0
 16 14  1  0
 18 16  1  0
 19 20  1  6
 19 18  1  0
 21 20  1  0
 22 19  1  0
 23 22  2  0
 24 22  1  0
M  END
$$$$
