EIC.pdb
     RDKit          3D

 24 23  0  0  1  0  0  0  0  0999 V2000
    8.9640  -19.1830   19.7213 N   0  0  0  0  0  0  0  0  0  0  0  0
   10.0377  -18.3554   19.3008 C   0  0  1  0  0  0  0  0  0  0  0  0
   10.1096  -18.2937   17.8023 C   0  0  0  0  0  0  0  0  0  0  0  0
   11.2714  -17.5703   17.2340 C   0  0  0  0  0  0  0  0  0  0  0  0
   11.7616  -17.9860   15.9285 C   0  0  0  0  0  0  0  0  0  0  0  0
   12.8758  -18.6194   15.9187 O   0  0  0  0  0  0  0  0  0  0  0  0
   10.0176  -17.0046   19.9173 C   0  0  0  0  0  0  0  0  0  0  0  0
   11.0021  -16.2497   19.8132 O   0  0  0  0  0  0  0  0  0  0  0  0
   11.1775  -17.7809   14.7005 O   0  0  0  0  0  0  0  0  0  0  0  0
    7.0616  -12.7129   19.2668 C   0  0  0  0  0  0  0  0  0  0  0  0
    8.0638  -13.7240   19.7024 C   0  0  0  0  0  0  0  0  0  0  0  0
    8.0057  -14.2164   21.0896 C   0  0  2  0  0  0  0  0  0  0  0  0
    8.0455  -13.0778   22.1065 C   0  0  0  0  0  0  0  0  0  0  0  0
    8.9398  -15.3044   21.4191 C   0  0  2  0  0  0  0  0  0  0  0  0
    8.8741  -16.5142   20.6550 N   0  0  0  0  0  0  0  0  0  0  0  0
    8.8105  -15.6249   22.8903 C   0  0  0  0  0  0  0  0  0  0  0  0
    7.6761  -15.7158   23.4287 O   0  0  0  0  0  0  0  0  0  0  0  0
    9.9654  -15.8283   23.6931 N   0  0  0  0  0  0  0  0  0  0  0  0
    9.9011  -16.6415   24.8742 C   0  0  1  0  0  0  0  0  0  0  0  0
    9.2308  -17.9572   24.5420 C   0  0  0  0  0  0  0  0  0  0  0  0
    7.9319  -18.3652   25.7278 S   0  0  0  0  0  0  0  0  0  0  0  0
   11.1956  -16.8270   25.5202 C   0  0  0  0  0  0  0  0  0  0  0  0
   11.2753  -17.4280   26.6118 O   0  0  0  0  0  0  0  0  0  0  0  0
   12.3523  -16.3445   24.9392 O   0  0  0  0  0  0  0  0  0  0  0  0
  2  3  1  0
  2  1  1  6
  4  3  1  0
  5  4  1  0
  5  6  2  0
  7  8  2  0
  7  2  1  0
  9  5  1  0
 10 11  1  0
 11 12  1  0
 12 14  1  0
 12 13  1  1
 14 15  1  6
 15  7  1  0
 16 17  2  0
 16 14  1  0
 18 16  1  0
 19 20  1  6
 19 18  1  0
 21 20  1  0
 22 19  1  0
 23 22  2  0
 24 22  1  0
M  END
$$$$
