EIC.pdb
     RDKit          3D

 24 23  0  0  1  0  0  0  0  0999 V2000
   10.9868  -18.4285   18.3848 N   0  0  0  0  0  0  0  0  0  0  0  0
    9.8517  -18.3054   19.2279 C   0  0  1  0  0  0  0  0  0  0  0  0
    9.5700  -19.5987   19.9368 C   0  0  0  0  0  0  0  0  0  0  0  0
   10.6358  -20.6260   19.8681 C   0  0  0  0  0  0  0  0  0  0  0  0
   10.9910  -21.3232   21.0951 C   0  0  0  0  0  0  0  0  0  0  0  0
   11.8579  -22.2604   20.9817 O   0  0  0  0  0  0  0  0  0  0  0  0
    9.9360  -17.1581   20.1669 C   0  0  0  0  0  0  0  0  0  0  0  0
   11.0338  -16.6255   20.4142 O   0  0  0  0  0  0  0  0  0  0  0  0
   10.5089  -21.1023   22.3640 O   0  0  0  0  0  0  0  0  0  0  0  0
    6.9339  -12.7251   19.7104 C   0  0  0  0  0  0  0  0  0  0  0  0
    7.9632  -13.7372   20.0750 C   0  0  0  0  0  0  0  0  0  0  0  0
    7.8972  -14.3546   21.4109 C   0  0  2  0  0  0  0  0  0  0  0  0
    7.9030  -13.3126   22.5272 C   0  0  0  0  0  0  0  0  0  0  0  0
    8.8473  -15.4514   21.6535 C   0  0  2  0  0  0  0  0  0  0  0  0
    8.7673  -16.6182   20.8264 N   0  0  0  0  0  0  0  0  0  0  0  0
    8.7628  -15.8528   23.1080 C   0  0  0  0  0  0  0  0  0  0  0  0
    7.6623  -16.1951   23.6150 O   0  0  0  0  0  0  0  0  0  0  0  0
    9.9219  -15.8503   23.9303 N   0  0  0  0  0  0  0  0  0  0  0  0
    9.9825  -16.6642   25.1111 C   0  0  1  0  0  0  0  0  0  0  0  0
    9.6837  -18.1023   24.7457 C   0  0  0  0  0  0  0  0  0  0  0  0
    9.7866  -19.1930   26.1807 S   0  0  0  0  0  0  0  0  0  0  0  0
   11.2363  -16.5280   25.8440 C   0  0  0  0  0  0  0  0  0  0  0  0
   11.3875  -17.0954   26.9459 O   0  0  0  0  0  0  0  0  0  0  0  0
   12.2753  -15.7734   25.3349 O   0  0  0  0  0  0  0  0  0  0  0  0
  2  3  1  0
  2  1  1  1
  4  3  1  0
  5  4  1  0
  5  6  2  0
  7  8  2  0
  7  2  1  0
  9  5  1  0
 10 11  1  0
 11 12  1  0
 12 14  1  0
 12 13  1  1
 14 15  1  6
 15  7  1  0
 16 17  2  0
 16 14  1  0
 18 16  1  0
 19 20  1  6
 19 18  1  0
 21 20  1  0
 22 19  1  0
 23 22  2  0
 24 22  1  0
M  END
$$$$
