EIC.pdb
     RDKit          3D

 24 23  0  0  1  0  0  0  0  0999 V2000
    9.1639  -15.5537   20.7875 N   0  0  0  0  0  0  0  0  0  0  0  0
    8.4108  -15.9094   21.9367 C   0  0  1  0  0  0  0  0  0  0  0  0
    8.2786  -17.4009   22.0483 C   0  0  0  0  0  0  0  0  0  0  0  0
    7.9884  -18.1263   20.7891 C   0  0  0  0  0  0  0  0  0  0  0  0
    7.8316  -19.5715   20.8552 C   0  0  0  0  0  0  0  0  0  0  0  0
    6.6271  -20.0084   20.8837 O   0  0  0  0  0  0  0  0  0  0  0  0
    8.9210  -15.2964   23.1893 C   0  0  0  0  0  0  0  0  0  0  0  0
   10.1445  -15.1485   23.3656 O   0  0  0  0  0  0  0  0  0  0  0  0
    8.8181  -20.5290   20.8935 O   0  0  0  0  0  0  0  0  0  0  0  0
    5.8736  -11.6604   26.1427 C   0  0  0  0  0  0  0  0  0  0  0  0
    7.0355  -12.3541   25.5219 C   0  0  0  0  0  0  0  0  0  0  0  0
    7.6841  -13.4438   26.2716 C   0  0  2  0  0  0  0  0  0  0  0  0
    8.3686  -12.9409   27.5407 C   0  0  0  0  0  0  0  0  0  0  0  0
    8.5429  -14.3386   25.4801 C   0  0  2  0  0  0  0  0  0  0  0  0
    8.0351  -14.8529   24.2434 N   0  0  0  0  0  0  0  0  0  0  0  0
    8.9921  -15.4823   26.3599 C   0  0  0  0  0  0  0  0  0  0  0  0
    8.2523  -16.4863   26.5325 O   0  0  0  0  0  0  0  0  0  0  0  0
   10.2557  -15.4456   27.0092 N   0  0  0  0  0  0  0  0  0  0  0  0
   10.6646  -16.5156   27.8742 C   0  0  1  0  0  0  0  0  0  0  0  0
   11.8191  -17.2610   27.2398 C   0  0  0  0  0  0  0  0  0  0  0  0
   11.3249  -18.0852   25.7114 S   0  0  0  0  0  0  0  0  0  0  0  0
   10.9674  -16.0781   29.2324 C   0  0  0  0  0  0  0  0  0  0  0  0
   11.3293  -16.9049   30.0953 O   0  0  0  0  0  0  0  0  0  0  0  0
   10.8608  -14.7475   29.5877 O   0  0  0  0  0  0  0  0  0  0  0  0
  2  3  1  0
  2  1  1  6
  4  3  1  0
  5  4  1  0
  5  6  2  0
  7  8  2  0
  7  2  1  0
  9  5  1  0
 10 11  1  0
 11 12  1  0
 12 14  1  0
 12 13  1  1
 14 15  1  6
 15  7  1  0
 16 17  2  0
 16 14  1  0
 18 16  1  0
 19 20  1  6
 19 18  1  0
 21 20  1  0
 22 19  1  0
 23 22  2  0
 24 22  1  0
M  END
$$$$
