EIC.pdb
     RDKit          3D

 24 23  0  0  1  0  0  0  0  0999 V2000
    8.2813  -14.7989   20.0449 N   0  0  0  0  0  0  0  0  0  0  0  0
    7.4980  -15.2419   21.1425 C   0  0  1  0  0  0  0  0  0  0  0  0
    7.2115  -16.7119   21.0357 C   0  0  0  0  0  0  0  0  0  0  0  0
    6.9632  -17.2308   19.6700 C   0  0  0  0  0  0  0  0  0  0  0  0
    6.5618  -18.6227   19.5318 C   0  0  0  0  0  0  0  0  0  0  0  0
    5.3002  -18.8468   19.5041 O   0  0  0  0  0  0  0  0  0  0  0  0
    8.0722  -14.8769   22.4624 C   0  0  0  0  0  0  0  0  0  0  0  0
    9.3060  -14.8244   22.6200 O   0  0  0  0  0  0  0  0  0  0  0  0
    7.3703  -19.7305   19.4296 O   0  0  0  0  0  0  0  0  0  0  0  0
    5.9399  -11.0496   25.7801 C   0  0  0  0  0  0  0  0  0  0  0  0
    6.8281  -12.0117   25.0716 C   0  0  0  0  0  0  0  0  0  0  0  0
    7.1582  -13.2832   25.7385 C   0  0  2  0  0  0  0  0  0  0  0  0
    7.8906  -13.0661   27.0608 C   0  0  0  0  0  0  0  0  0  0  0  0
    7.8047  -14.2977   24.8915 C   0  0  2  0  0  0  0  0  0  0  0  0
    7.2387  -14.5730   23.6048 N   0  0  0  0  0  0  0  0  0  0  0  0
    7.9242  -15.5818   25.6794 C   0  0  0  0  0  0  0  0  0  0  0  0
    7.0410  -16.4743   25.5871 O   0  0  0  0  0  0  0  0  0  0  0  0
    9.0335  -15.8054   26.5392 N   0  0  0  0  0  0  0  0  0  0  0  0
    9.7503  -17.0483   26.4998 C   0  0  1  0  0  0  0  0  0  0  0  0
   10.2750  -17.2813   25.0993 C   0  0  0  0  0  0  0  0  0  0  0  0
   11.2192  -18.8158   24.9846 S   0  0  0  0  0  0  0  0  0  0  0  0
   10.8006  -17.1427   27.5075 C   0  0  0  0  0  0  0  0  0  0  0  0
   11.6168  -16.2097   27.6571 O   0  0  0  0  0  0  0  0  0  0  0  0
   10.9111  -18.2602   28.3121 O   0  0  0  0  0  0  0  0  0  0  0  0
  2  3  1  0
  2  1  1  6
  4  3  1  0
  5  4  1  0
  5  6  2  0
  7  8  2  0
  7  2  1  0
  9  5  1  0
 10 11  1  0
 11 12  1  0
 12 14  1  0
 12 13  1  1
 14 15  1  6
 15  7  1  0
 16 17  2  0
 16 14  1  0
 18 16  1  0
 19 20  1  6
 19 18  1  0
 21 20  1  0
 22 19  1  0
 23 22  2  0
 24 22  1  0
M  END
$$$$
