EIC.pdb
     RDKit          3D

 24 23  0  0  1  0  0  0  0  0999 V2000
    8.6955  -14.8328   20.4167 N   0  0  0  0  0  0  0  0  0  0  0  0
    8.0130  -15.3728   21.5379 C   0  0  1  0  0  0  0  0  0  0  0  0
    7.9176  -16.8678   21.4362 C   0  0  0  0  0  0  0  0  0  0  0  0
    7.4144  -17.4034   20.1494 C   0  0  0  0  0  0  0  0  0  0  0  0
    7.2411  -18.8434   20.0313 C   0  0  0  0  0  0  0  0  0  0  0  0
    6.0497  -19.2849   20.1994 O   0  0  0  0  0  0  0  0  0  0  0  0
    8.5775  -14.9341   22.8395 C   0  0  0  0  0  0  0  0  0  0  0  0
    9.7863  -14.6536   22.9396 O   0  0  0  0  0  0  0  0  0  0  0  0
    8.2001  -19.7921   19.7634 O   0  0  0  0  0  0  0  0  0  0  0  0
    6.0174  -11.6047   26.3441 C   0  0  0  0  0  0  0  0  0  0  0  0
    7.0343  -12.3845   25.5861 C   0  0  0  0  0  0  0  0  0  0  0  0
    7.5845  -13.6044   26.2019 C   0  0  2  0  0  0  0  0  0  0  0  0
    8.3360  -13.3064   27.4974 C   0  0  0  0  0  0  0  0  0  0  0  0
    8.3379  -14.4894   25.2997 C   0  0  2  0  0  0  0  0  0  0  0  0
    7.7631  -14.8169   24.0292 N   0  0  0  0  0  0  0  0  0  0  0  0
    8.6835  -15.7588   26.0434 C   0  0  0  0  0  0  0  0  0  0  0  0
    7.7748  -16.5081   26.4882 O   0  0  0  0  0  0  0  0  0  0  0  0
   10.0389  -16.1295   26.2557 N   0  0  0  0  0  0  0  0  0  0  0  0
   10.3655  -17.3730   26.8939 C   0  0  1  0  0  0  0  0  0  0  0  0
   11.5852  -17.9737   26.2289 C   0  0  0  0  0  0  0  0  0  0  0  0
   11.4490  -17.9445   24.4288 S   0  0  0  0  0  0  0  0  0  0  0  0
   10.5233  -17.2576   28.3394 C   0  0  0  0  0  0  0  0  0  0  0  0
   10.5278  -16.1348   28.8857 O   0  0  0  0  0  0  0  0  0  0  0  0
   10.6692  -18.3827   29.1275 O   0  0  0  0  0  0  0  0  0  0  0  0
  2  3  1  0
  2  1  1  6
  4  3  1  0
  5  4  1  0
  5  6  2  0
  7  8  2  0
  7  2  1  0
  9  5  1  0
 10 11  1  0
 11 12  1  0
 12 14  1  0
 12 13  1  1
 14 15  1  6
 15  7  1  0
 16 17  2  0
 16 14  1  0
 18 16  1  0
 19 20  1  6
 19 18  1  0
 21 20  1  0
 22 19  1  0
 23 22  2  0
 24 22  1  0
M  END
$$$$
