EIC.pdb
     RDKit          3D

 24 23  0  0  1  0  0  0  0  0999 V2000
    9.7397  -18.3279   17.4281 N   0  0  0  0  0  0  0  0  0  0  0  0
    8.6815  -18.0282   18.3253 C   0  0  1  0  0  0  0  0  0  0  0  0
    8.0705  -19.2868   18.8704 C   0  0  0  0  0  0  0  0  0  0  0  0
    8.9482  -20.1215   19.7242 C   0  0  0  0  0  0  0  0  0  0  0  0
    8.3776  -21.3177   20.3251 C   0  0  0  0  0  0  0  0  0  0  0  0
    9.1744  -22.0296   21.0328 O   0  0  0  0  0  0  0  0  0  0  0  0
    9.0707  -17.0820   19.4016 C   0  0  0  0  0  0  0  0  0  0  0  0
   10.2719  -16.8799   19.6588 O   0  0  0  0  0  0  0  0  0  0  0  0
    7.0867  -21.7815   20.2255 O   0  0  0  0  0  0  0  0  0  0  0  0
    7.0510  -12.1058   19.5229 C   0  0  0  0  0  0  0  0  0  0  0  0
    7.8764  -13.3273   19.7304 C   0  0  0  0  0  0  0  0  0  0  0  0
    7.7686  -14.0363   21.0173 C   0  0  2  0  0  0  0  0  0  0  0  0
    8.0769  -13.1254   22.2035 C   0  0  0  0  0  0  0  0  0  0  0  0
    8.4714  -15.3265   21.0947 C   0  0  2  0  0  0  0  0  0  0  0  0
    8.0891  -16.3667   20.1871 N   0  0  0  0  0  0  0  0  0  0  0  0
    8.3921  -15.8368   22.5150 C   0  0  0  0  0  0  0  0  0  0  0  0
    7.3118  -16.2948   22.9716 O   0  0  0  0  0  0  0  0  0  0  0  0
    9.5334  -15.8084   23.3613 N   0  0  0  0  0  0  0  0  0  0  0  0
    9.8834  -16.9515   24.1556 C   0  0  1  0  0  0  0  0  0  0  0  0
   10.0574  -18.1550   23.2544 C   0  0  0  0  0  0  0  0  0  0  0  0
   10.4776  -19.6391   24.1928 S   0  0  0  0  0  0  0  0  0  0  0  0
   11.0433  -16.7283   25.0115 C   0  0  0  0  0  0  0  0  0  0  0  0
   12.0568  -16.1533   24.5629 O   0  0  0  0  0  0  0  0  0  0  0  0
   11.0421  -17.1459   26.3283 O   0  0  0  0  0  0  0  0  0  0  0  0
  2  3  1  0
  2  1  1  1
  4  3  1  0
  5  4  1  0
  5  6  2  0
  7  8  2  0
  7  2  1  0
  9  5  1  0
 10 11  1  0
 11 12  1  0
 12 14  1  0
 12 13  1  1
 14 15  1  6
 15  7  1  0
 16 17  2  0
 16 14  1  0
 18 16  1  0
 19 20  1  6
 19 18  1  0
 21 20  1  0
 22 19  1  0
 23 22  2  0
 24 22  1  0
M  END
$$$$
