EIC.pdb
     RDKit          3D

 24 23  0  0  1  0  0  0  0  0999 V2000
    9.5260  -15.5450   20.8801 N   0  0  0  0  0  0  0  0  0  0  0  0
    8.7654  -16.0049   21.9867 C   0  0  1  0  0  0  0  0  0  0  0  0
    8.7833  -17.5044   22.0611 C   0  0  0  0  0  0  0  0  0  0  0  0
    8.2805  -18.2230   20.8666 C   0  0  0  0  0  0  0  0  0  0  0  0
    8.1764  -19.6728   20.9365 C   0  0  0  0  0  0  0  0  0  0  0  0
    6.9893  -20.1555   20.9194 O   0  0  0  0  0  0  0  0  0  0  0  0
    9.1559  -15.3749   23.2735 C   0  0  0  0  0  0  0  0  0  0  0  0
   10.3480  -15.1008   23.5047 O   0  0  0  0  0  0  0  0  0  0  0  0
    9.1964  -20.5914   21.0214 O   0  0  0  0  0  0  0  0  0  0  0  0
    5.7445  -11.9948   26.1255 C   0  0  0  0  0  0  0  0  0  0  0  0
    6.9343  -12.6609   25.5278 C   0  0  0  0  0  0  0  0  0  0  0  0
    7.6258  -13.6978   26.3132 C   0  0  2  0  0  0  0  0  0  0  0  0
    8.2100  -13.1430   27.6105 C   0  0  0  0  0  0  0  0  0  0  0  0
    8.5854  -14.5275   25.5679 C   0  0  2  0  0  0  0  0  0  0  0  0
    8.1860  -15.0586   24.2990 N   0  0  0  0  0  0  0  0  0  0  0  0
    9.0533  -15.6506   26.4643 C   0  0  0  0  0  0  0  0  0  0  0  0
    8.2610  -16.5655   26.8112 O   0  0  0  0  0  0  0  0  0  0  0  0
   10.3942  -15.6946   26.9331 N   0  0  0  0  0  0  0  0  0  0  0  0
   10.8223  -16.7320   27.8280 C   0  0  1  0  0  0  0  0  0  0  0  0
   12.1235  -17.3215   27.3277 C   0  0  0  0  0  0  0  0  0  0  0  0
   12.0699  -17.6537   25.5539 S   0  0  0  0  0  0  0  0  0  0  0  0
   10.9092  -16.2978   29.2178 C   0  0  0  0  0  0  0  0  0  0  0  0
   11.2153  -17.1110   30.1146 O   0  0  0  0  0  0  0  0  0  0  0  0
   10.6565  -14.9853   29.5664 O   0  0  0  0  0  0  0  0  0  0  0  0
  2  3  1  0
  2  1  1  6
  4  3  1  0
  5  4  1  0
  5  6  2  0
  7  8  2  0
  7  2  1  0
  9  5  1  0
 10 11  1  0
 11 12  1  0
 12 14  1  0
 12 13  1  1
 14 15  1  6
 15  7  1  0
 16 17  2  0
 16 14  1  0
 18 16  1  0
 19 20  1  6
 19 18  1  0
 21 20  1  0
 22 19  1  0
 23 22  2  0
 24 22  1  0
M  END
$$$$
