EIC.pdb
     RDKit          3D

 24 23  0  0  1  0  0  0  0  0999 V2000
    9.0219  -18.3956   16.7197 N   0  0  0  0  0  0  0  0  0  0  0  0
    8.1255  -18.1136   17.7834 C   0  0  1  0  0  0  0  0  0  0  0  0
    7.5229  -19.3782   18.3238 C   0  0  0  0  0  0  0  0  0  0  0  0
    8.2860  -20.6236   18.0734 C   0  0  0  0  0  0  0  0  0  0  0  0
    8.3492  -21.6110   19.1405 C   0  0  0  0  0  0  0  0  0  0  0  0
    9.5116  -22.0793   19.4088 O   0  0  0  0  0  0  0  0  0  0  0  0
    8.7246  -17.2761   18.8534 C   0  0  0  0  0  0  0  0  0  0  0  0
    9.9468  -17.3285   19.0845 O   0  0  0  0  0  0  0  0  0  0  0  0
    7.3133  -22.1070   19.8970 O   0  0  0  0  0  0  0  0  0  0  0  0
    7.1239  -12.0955   19.8214 C   0  0  0  0  0  0  0  0  0  0  0  0
    7.8934  -13.3662   19.7232 C   0  0  0  0  0  0  0  0  0  0  0  0
    7.9863  -14.2239   20.9173 C   0  0  2  0  0  0  0  0  0  0  0  0
    8.6633  -13.5116   22.0861 C   0  0  0  0  0  0  0  0  0  0  0  0
    8.5202  -15.5760   20.6907 C   0  0  2  0  0  0  0  0  0  0  0  0
    7.9290  -16.3790   19.6623 N   0  0  0  0  0  0  0  0  0  0  0  0
    8.4995  -16.3308   21.9998 C   0  0  0  0  0  0  0  0  0  0  0  0
    7.5492  -17.1096   22.2750 O   0  0  0  0  0  0  0  0  0  0  0  0
    9.5500  -16.1752   22.9441 N   0  0  0  0  0  0  0  0  0  0  0  0
   10.1077  -17.3166   23.6122 C   0  0  1  0  0  0  0  0  0  0  0  0
   10.5939  -18.3134   22.5823 C   0  0  0  0  0  0  0  0  0  0  0  0
   10.6702  -19.9874   23.2543 S   0  0  0  0  0  0  0  0  0  0  0  0
   11.1424  -16.9718   24.5808 C   0  0  0  0  0  0  0  0  0  0  0  0
   12.0189  -16.1299   24.2946 O   0  0  0  0  0  0  0  0  0  0  0  0
   11.1716  -17.5666   25.8273 O   0  0  0  0  0  0  0  0  0  0  0  0
  2  3  1  0
  2  1  1  6
  4  3  1  0
  5  4  1  0
  5  6  2  0
  7  8  2  0
  7  2  1  0
  9  5  1  0
 10 11  1  0
 11 12  1  0
 12 14  1  0
 12 13  1  1
 14 15  1  6
 15  7  1  0
 16 17  2  0
 16 14  1  0
 18 16  1  0
 19 20  1  6
 19 18  1  0
 21 20  1  0
 22 19  1  0
 23 22  2  0
 24 22  1  0
M  END
$$$$
