EIC.pdb
     RDKit          3D

 24 23  0  0  1  0  0  0  0  0999 V2000
    6.9029  -17.0530   21.8235 N   0  0  0  0  0  0  0  0  0  0  0  0
    8.3167  -16.9745   21.9213 C   0  0  1  0  0  0  0  0  0  0  0  0
    8.9045  -16.3587   20.6845 C   0  0  0  0  0  0  0  0  0  0  0  0
    8.3920  -16.8731   19.3927 C   0  0  0  0  0  0  0  0  0  0  0  0
    8.9584  -16.3274   18.1684 C   0  0  0  0  0  0  0  0  0  0  0  0
    8.3584  -16.6400   17.0799 O   0  0  0  0  0  0  0  0  0  0  0  0
    8.7859  -16.3026   23.1596 C   0  0  0  0  0  0  0  0  0  0  0  0
   10.0015  -16.1166   23.3538 O   0  0  0  0  0  0  0  0  0  0  0  0
   10.0620  -15.5179   18.0338 O   0  0  0  0  0  0  0  0  0  0  0  0
    6.1597  -12.1042   25.3577 C   0  0  0  0  0  0  0  0  0  0  0  0
    7.2370  -13.0628   24.9878 C   0  0  0  0  0  0  0  0  0  0  0  0
    7.6049  -14.1115   25.9548 C   0  0  2  0  0  0  0  0  0  0  0  0
    8.2701  -13.5355   27.2029 C   0  0  0  0  0  0  0  0  0  0  0  0
    8.3374  -15.2608   25.4005 C   0  0  2  0  0  0  0  0  0  0  0  0
    7.8680  -15.8436   24.1790 N   0  0  0  0  0  0  0  0  0  0  0  0
    8.4421  -16.3279   26.4654 C   0  0  0  0  0  0  0  0  0  0  0  0
    7.4866  -17.1210   26.6734 O   0  0  0  0  0  0  0  0  0  0  0  0
    9.6188  -16.4556   27.2519 N   0  0  0  0  0  0  0  0  0  0  0  0
    9.9561  -17.7087   27.8652 C   0  0  1  0  0  0  0  0  0  0  0  0
   10.1921  -18.7469   26.7894 C   0  0  0  0  0  0  0  0  0  0  0  0
   10.4713  -20.3868   27.4911 S   0  0  0  0  0  0  0  0  0  0  0  0
   11.0732  -17.6143   28.7983 C   0  0  0  0  0  0  0  0  0  0  0  0
   11.9950  -16.7962   28.5978 O   0  0  0  0  0  0  0  0  0  0  0  0
   11.1318  -18.4233   29.9165 O   0  0  0  0  0  0  0  0  0  0  0  0
  2  3  1  0
  2  1  1  6
  4  3  1  0
  5  4  1  0
  5  6  2  0
  7  8  2  0
  7  2  1  0
  9  5  1  0
 10 11  1  0
 11 12  1  0
 12 14  1  0
 12 13  1  1
 14 15  1  6
 15  7  1  0
 16 17  2  0
 16 14  1  0
 18 16  1  0
 19 20  1  6
 19 18  1  0
 21 20  1  0
 22 19  1  0
 23 22  2  0
 24 22  1  0
M  END
$$$$
