EIC.pdb
     RDKit          3D

 24 23  0  0  1  0  0  0  0  0999 V2000
    8.7124  -15.6042   20.3111 N   0  0  0  0  0  0  0  0  0  0  0  0
    7.8222  -15.7797   21.4026 C   0  0  1  0  0  0  0  0  0  0  0  0
    7.2596  -17.1718   21.4147 C   0  0  0  0  0  0  0  0  0  0  0  0
    7.1178  -17.8297   20.0944 C   0  0  0  0  0  0  0  0  0  0  0  0
    6.4685  -19.1311   20.0473 C   0  0  0  0  0  0  0  0  0  0  0  0
    6.2593  -19.6162   18.8796 O   0  0  0  0  0  0  0  0  0  0  0  0
    8.4126  -15.4021   22.7118 C   0  0  0  0  0  0  0  0  0  0  0  0
    9.6319  -15.5458   22.9182 O   0  0  0  0  0  0  0  0  0  0  0  0
    6.0482  -19.9060   21.1029 O   0  0  0  0  0  0  0  0  0  0  0  0
    5.7019  -12.2809   26.9806 C   0  0  0  0  0  0  0  0  0  0  0  0
    6.2513  -13.3662   26.1222 C   0  0  0  0  0  0  0  0  0  0  0  0
    7.6712  -13.3030   25.7348 C   0  0  2  0  0  0  0  0  0  0  0  0
    8.0135  -12.0009   25.0142 C   0  0  0  0  0  0  0  0  0  0  0  0
    8.1960  -14.4900   25.0418 C   0  0  2  0  0  0  0  0  0  0  0  0
    7.6114  -14.8615   23.7880 N   0  0  0  0  0  0  0  0  0  0  0  0
    8.1510  -15.6647   25.9915 C   0  0  0  0  0  0  0  0  0  0  0  0
    7.2155  -16.5048   25.9271 O   0  0  0  0  0  0  0  0  0  0  0  0
    9.1618  -15.8425   26.9746 N   0  0  0  0  0  0  0  0  0  0  0  0
    9.4612  -17.1493   27.4875 C   0  0  1  0  0  0  0  0  0  0  0  0
   10.2079  -17.9423   26.4366 C   0  0  0  0  0  0  0  0  0  0  0  0
    9.1095  -18.5130   25.1222 S   0  0  0  0  0  0  0  0  0  0  0  0
   10.1649  -17.1223   28.7648 C   0  0  0  0  0  0  0  0  0  0  0  0
   10.4797  -16.0334   29.2885 O   0  0  0  0  0  0  0  0  0  0  0  0
   10.4940  -18.2950   29.4165 O   0  0  0  0  0  0  0  0  0  0  0  0
  2  3  1  0
  2  1  1  6
  4  3  1  0
  5  4  1  0
  5  6  2  0
  7  8  2  0
  7  2  1  0
  9  5  1  0
 10 11  1  0
 11 12  1  0
 12 14  1  0
 12 13  1  6
 14 15  1  6
 15  7  1  0
 16 17  2  0
 16 14  1  0
 18 16  1  0
 19 20  1  6
 19 18  1  0
 21 20  1  0
 22 19  1  0
 23 22  2  0
 24 22  1  0
M  END
$$$$
