INS.pdb
     RDKit          3D

 23 22  0  0  1  0  0  0  0  0999 V2000
   12.0044   -9.7139  -11.7478 C   0  0  0  0  0  0  0  0  0  0  0  0
   13.2904  -10.4005  -11.3229 C   0  0  0  0  0  0  0  0  0  0  0  0
   14.4241   -9.4766  -11.6232 C   0  0  2  0  0  0  0  0  0  0  0  0
   14.5031   -9.2048  -13.1022 C   0  0  0  0  0  0  0  0  0  0  0  0
   15.7647   -9.9923  -11.1556 C   0  0  2  0  0  0  0  0  0  0  0  0
   15.8045  -10.1357   -9.7183 N   0  0  0  0  0  0  0  0  0  0  0  0
   16.8802   -9.1307  -11.5964 C   0  0  0  0  0  0  0  0  0  0  0  0
   17.1464   -8.1114  -10.9220 O   0  0  0  0  0  0  0  0  0  0  0  0
   20.9063   -7.0672  -14.2045 N   0  0  0  0  0  0  0  0  0  0  0  0
   20.9952   -8.4776  -14.1946 C   0  0  0  0  0  0  0  0  0  0  0  0
   22.0610   -9.0127  -14.5890 O   0  0  0  0  0  0  0  0  0  0  0  0
   19.9048   -9.3501  -13.7471 C   0  0  0  0  0  0  0  0  0  0  0  0
   18.6874   -8.6112  -13.2760 C   0  0  2  0  0  0  0  0  0  0  0  0
   17.6451   -9.4334  -12.7554 N   0  0  0  0  0  0  0  0  0  0  0  0
   18.1855   -7.6484  -14.3146 C   0  0  0  0  0  0  0  0  0  0  0  0
   17.6822   -8.0239  -15.4060 O   0  0  0  0  0  0  0  0  0  0  0  0
   16.0992   -3.5216  -15.0735 O   0  0  0  0  0  0  0  0  0  0  0  0
   16.6316   -4.4954  -14.2436 C   0  0  0  0  0  0  0  0  0  0  0  0
   17.7150   -5.2593  -15.0055 C   0  0  2  0  0  0  0  0  0  0  0  0
   18.2531   -6.2420  -14.1174 N   0  0  0  0  0  0  0  0  0  0  0  0
   18.8112   -4.2951  -15.3384 C   0  0  0  0  0  0  0  0  0  0  0  0
   19.8260   -4.1810  -14.6250 O   0  0  0  0  0  0  0  0  0  0  0  0
   18.7181   -3.4885  -16.4758 O   0  0  0  0  0  0  0  0  0  0  0  0
  2  1  1  0
  3  2  1  0
  3  4  1  6
  5  3  1  0
  5  6  1  1
  7  5  1  0
  7  8  2  0
  9 10  1  0
 10 12  1  0
 11 10  2  0
 13 12  1  6
 14 13  1  0
 14  7  1  0
 15 16  2  0
 15 13  1  0
 17 18  1  0
 19 18  1  1
 19 20  1  0
 19 21  1  0
 20 15  1  0
 21 23  1  0
 22 21  2  0
M  END
$$$$
