INS.pdb
     RDKit          3D

 23 22  0  0  1  0  0  0  0  0999 V2000
   26.9732  -13.7257  -16.0958 C   0  0  0  0  0  0  0  0  0  0  0  0
   25.5364  -13.9481  -15.6579 C   0  0  0  0  0  0  0  0  0  0  0  0
   24.7541  -12.7279  -16.0157 C   0  0  2  0  0  0  0  0  0  0  0  0
   25.2638  -11.5341  -15.2522 C   0  0  0  0  0  0  0  0  0  0  0  0
   23.2711  -12.8645  -15.7628 C   0  0  2  0  0  0  0  0  0  0  0  0
   22.7182  -14.0032  -16.4597 N   0  0  0  0  0  0  0  0  0  0  0  0
   22.5250  -11.6465  -16.1383 C   0  0  0  0  0  0  0  0  0  0  0  0
   22.2436  -11.4698  -17.3442 O   0  0  0  0  0  0  0  0  0  0  0  0
   18.3842   -7.6470  -14.7509 N   0  0  0  0  0  0  0  0  0  0  0  0
   19.2230   -8.3319  -15.6591 C   0  0  0  0  0  0  0  0  0  0  0  0
   19.3727   -7.8550  -16.8115 O   0  0  0  0  0  0  0  0  0  0  0  0
   19.9284   -9.5733  -15.3246 C   0  0  0  0  0  0  0  0  0  0  0  0
   21.4193   -9.4834  -15.4639 C   0  0  2  0  0  0  0  0  0  0  0  0
   22.1274  -10.6856  -15.1695 N   0  0  0  0  0  0  0  0  0  0  0  0
   21.9761   -8.3010  -14.7225 C   0  0  0  0  0  0  0  0  0  0  0  0
   22.2297   -8.3269  -13.4894 O   0  0  0  0  0  0  0  0  0  0  0  0
   22.1514   -4.8231  -16.7669 O   0  0  0  0  0  0  0  0  0  0  0  0
   23.2104   -4.9450  -15.8815 C   0  0  0  0  0  0  0  0  0  0  0  0
   22.8163   -5.9138  -14.7661 C   0  0  2  0  0  0  0  0  0  0  0  0
   22.2501   -7.0723  -15.3835 N   0  0  0  0  0  0  0  0  0  0  0  0
   21.7450   -5.2627  -13.9473 C   0  0  0  0  0  0  0  0  0  0  0  0
   20.5598   -5.6437  -13.9920 O   0  0  0  0  0  0  0  0  0  0  0  0
   22.0567   -4.1953  -13.1008 O   0  0  0  0  0  0  0  0  0  0  0  0
  2  1  1  0
  3  2  1  0
  3  4  1  1
  5  3  1  0
  5  6  1  6
  7  5  1  0
  7  8  2  0
  9 10  1  0
 10 12  1  0
 11 10  2  0
 13 12  1  1
 14 13  1  0
 14  7  1  0
 15 16  2  0
 15 13  1  0
 17 18  1  0
 19 18  1  6
 19 20  1  0
 19 21  1  0
 20 15  1  0
 21 23  1  0
 22 21  2  0
M  END
$$$$
