INS.pdb
     RDKit          3D

 23 22  0  0  1  0  0  0  0  0999 V2000
   17.9037  -12.6932  -18.8582 C   0  0  0  0  0  0  0  0  0  0  0  0
   17.8850  -12.7971  -17.3435 C   0  0  0  0  0  0  0  0  0  0  0  0
   18.4426  -11.5275  -16.7899 C   0  0  2  0  0  0  0  0  0  0  0  0
   17.9291  -10.3447  -17.5678 C   0  0  0  0  0  0  0  0  0  0  0  0
   19.9525  -11.4820  -16.7841 C   0  0  2  0  0  0  0  0  0  0  0  0
   20.5129  -12.6032  -16.0653 N   0  0  0  0  0  0  0  0  0  0  0  0
   20.4719  -10.2219  -16.2151 C   0  0  0  0  0  0  0  0  0  0  0  0
   19.8424   -9.6907  -15.2738 O   0  0  0  0  0  0  0  0  0  0  0  0
   23.5809   -6.2298  -14.9284 N   0  0  0  0  0  0  0  0  0  0  0  0
   24.2746   -7.0385  -15.8569 C   0  0  0  0  0  0  0  0  0  0  0  0
   25.4571   -6.7331  -16.1501 O   0  0  0  0  0  0  0  0  0  0  0  0
   23.6833   -8.2180  -16.4971 C   0  0  0  0  0  0  0  0  0  0  0  0
   22.2283   -8.4133  -16.1891 C   0  0  2  0  0  0  0  0  0  0  0  0
   21.6556   -9.6107  -16.7104 N   0  0  0  0  0  0  0  0  0  0  0  0
   21.4182   -7.1974  -16.5400 C   0  0  0  0  0  0  0  0  0  0  0  0
   21.2489   -6.8097  -17.7260 O   0  0  0  0  0  0  0  0  0  0  0  0
   17.8701   -6.3811  -15.8792 O   0  0  0  0  0  0  0  0  0  0  0  0
   18.6209   -5.5171  -15.0980 C   0  0  0  0  0  0  0  0  0  0  0  0
   19.9647   -5.2682  -15.7837 C   0  0  2  0  0  0  0  0  0  0  0  0
   20.7907   -6.4088  -15.5371 N   0  0  0  0  0  0  0  0  0  0  0  0
   20.6071   -4.0875  -15.1239 C   0  0  0  0  0  0  0  0  0  0  0  0
   21.7020   -4.1773  -14.5364 O   0  0  0  0  0  0  0  0  0  0  0  0
   19.9819   -2.8381  -15.1531 O   0  0  0  0  0  0  0  0  0  0  0  0
  2  1  1  0
  3  2  1  0
  3  4  1  6
  5  3  1  0
  5  6  1  1
  7  5  1  0
  7  8  2  0
  9 10  1  0
 10 12  1  0
 11 10  2  0
 13 12  1  6
 14 13  1  0
 14  7  1  0
 15 16  2  0
 15 13  1  0
 17 18  1  0
 19 18  1  1
 19 20  1  0
 19 21  1  0
 20 15  1  0
 21 23  1  0
 22 21  2  0
M  END
$$$$
