INS.pdb
     RDKit          3D

 23 22  0  0  1  0  0  0  0  0999 V2000
   29.6541  -19.5801  -12.1488 C   0  0  0  0  0  0  0  0  0  0  0  0
   29.3512  -20.7805  -13.0280 C   0  0  0  0  0  0  0  0  0  0  0  0
   27.8828  -20.7927  -13.2974 C   0  0  2  0  0  0  0  0  0  0  0  0
   27.4141  -19.4244  -13.7168 C   0  0  0  0  0  0  0  0  0  0  0  0
   27.0551  -21.2452  -12.1176 C   0  0  2  0  0  0  0  0  0  0  0  0
   27.4705  -22.5470  -11.6481 N   0  0  0  0  0  0  0  0  0  0  0  0
   25.6106  -21.2691  -12.4239 C   0  0  0  0  0  0  0  0  0  0  0  0
   25.1742  -22.1805  -13.1611 O   0  0  0  0  0  0  0  0  0  0  0  0
   23.4498  -20.3495   -8.7889 N   0  0  0  0  0  0  0  0  0  0  0  0
   22.5177  -20.5478   -9.8326 C   0  0  0  0  0  0  0  0  0  0  0  0
   21.6812  -21.4779   -9.7190 O   0  0  0  0  0  0  0  0  0  0  0  0
   22.4773  -19.7220  -11.0438 C   0  0  0  0  0  0  0  0  0  0  0  0
   23.3197  -20.2478  -12.1680 C   0  0  2  0  0  0  0  0  0  0  0  0
   24.7205  -20.2901  -11.9049 N   0  0  0  0  0  0  0  0  0  0  0  0
   23.0067  -19.5585  -13.4660 C   0  0  0  0  0  0  0  0  0  0  0  0
   23.1356  -18.3163  -13.6268 O   0  0  0  0  0  0  0  0  0  0  0  0
   23.3609  -21.6228  -16.7244 O   0  0  0  0  0  0  0  0  0  0  0  0
   23.2656  -20.2482  -16.8716 C   0  0  0  0  0  0  0  0  0  0  0  0
   22.2394  -19.7117  -15.8731 C   0  0  2  0  0  0  0  0  0  0  0  0
   22.5417  -20.2826  -14.5977 N   0  0  0  0  0  0  0  0  0  0  0  0
   20.8892  -20.2088  -16.2878 C   0  0  0  0  0  0  0  0  0  0  0  0
   20.2183  -20.9706  -15.5657 O   0  0  0  0  0  0  0  0  0  0  0  0
   20.3431  -19.8225  -17.5148 O   0  0  0  0  0  0  0  0  0  0  0  0
  2  1  1  0
  3  2  1  0
  3  4  1  1
  5  3  1  0
  5  6  1  6
  7  5  1  0
  7  8  2  0
  9 10  1  0
 10 12  1  0
 11 10  2  0
 13 12  1  1
 14 13  1  0
 14  7  1  0
 15 16  2  0
 15 13  1  0
 17 18  1  0
 19 18  1  6
 19 20  1  0
 19 21  1  0
 20 15  1  0
 21 23  1  0
 22 21  2  0
M  END
$$$$
