INS.pdb
     RDKit          3D

 23 22  0  0  1  0  0  0  0  0999 V2000
   12.2827   -7.1689   -7.4896 C   0  0  0  0  0  0  0  0  0  0  0  0
   13.7346   -6.7253   -7.4630 C   0  0  0  0  0  0  0  0  0  0  0  0
   14.3560   -7.1116   -8.7644 C   0  0  2  0  0  0  0  0  0  0  0  0
   14.2244   -8.5947   -8.9900 C   0  0  0  0  0  0  0  0  0  0  0  0
   15.8147   -6.7349   -8.8736 C   0  0  2  0  0  0  0  0  0  0  0  0
   16.0118   -5.3177   -8.6725 N   0  0  0  0  0  0  0  0  0  0  0  0
   16.4005   -7.1355  -10.1688 C   0  0  0  0  0  0  0  0  0  0  0  0
   16.5408   -8.3556  -10.4059 O   0  0  0  0  0  0  0  0  0  0  0  0
   14.8714   -7.5697  -13.3005 N   0  0  0  0  0  0  0  0  0  0  0  0
   15.4133   -6.4379  -13.9508 C   0  0  0  0  0  0  0  0  0  0  0  0
   14.7647   -5.9230  -14.8951 O   0  0  0  0  0  0  0  0  0  0  0  0
   16.6965   -5.8332  -13.5791 C   0  0  0  0  0  0  0  0  0  0  0  0
   17.3638   -6.4914  -12.4080 C   0  0  2  0  0  0  0  0  0  0  0  0
   16.8023   -6.1747  -11.1360 N   0  0  0  0  0  0  0  0  0  0  0  0
   18.8533   -6.2957  -12.4354 C   0  0  0  0  0  0  0  0  0  0  0  0
   19.4201   -5.3008  -11.9115 O   0  0  0  0  0  0  0  0  0  0  0  0
   23.0312   -8.3259  -13.9255 O   0  0  0  0  0  0  0  0  0  0  0  0
   21.6470   -8.2926  -13.9829 C   0  0  0  0  0  0  0  0  0  0  0  0
   21.1407   -7.1502  -13.1016 C   0  0  2  0  0  0  0  0  0  0  0  0
   19.7142   -7.2370  -13.0632 N   0  0  0  0  0  0  0  0  0  0  0  0
   21.5022   -5.8590  -13.7681 C   0  0  0  0  0  0  0  0  0  0  0  0
   20.8913   -5.4427  -14.7708 O   0  0  0  0  0  0  0  0  0  0  0  0
   22.5504   -5.0796  -13.2714 O   0  0  0  0  0  0  0  0  0  0  0  0
  2  1  1  0
  3  2  1  0
  3  4  1  1
  5  3  1  0
  5  6  1  6
  7  5  1  0
  7  8  2  0
  9 10  1  0
 10 12  1  0
 11 10  2  0
 13 12  1  6
 14 13  1  0
 14  7  1  0
 15 16  2  0
 15 13  1  0
 17 18  1  0
 19 18  1  6
 19 20  1  0
 19 21  1  0
 20 15  1  0
 21 23  1  0
 22 21  2  0
M  END
$$$$
