INS.pdb
     RDKit          3D

 23 22  0  0  1  0  0  0  0  0999 V2000
   28.2185  -20.7409   -5.2302 C   0  0  0  0  0  0  0  0  0  0  0  0
   28.8539  -19.8177   -6.2547 C   0  0  0  0  0  0  0  0  0  0  0  0
   27.8141  -19.4741   -7.2695 C   0  0  2  0  0  0  0  0  0  0  0  0
   26.6881  -18.7063   -6.6289 C   0  0  0  0  0  0  0  0  0  0  0  0
   27.2364  -20.6782   -7.9751 C   0  0  2  0  0  0  0  0  0  0  0  0
   28.2740  -21.5848   -8.4102 N   0  0  0  0  0  0  0  0  0  0  0  0
   26.3958  -20.3004   -9.1291 C   0  0  0  0  0  0  0  0  0  0  0  0
   25.4999  -19.4446   -8.9572 O   0  0  0  0  0  0  0  0  0  0  0  0
   29.0985  -20.7474  -12.8258 N   0  0  0  0  0  0  0  0  0  0  0  0
   27.8720  -20.0517  -12.9215 C   0  0  0  0  0  0  0  0  0  0  0  0
   27.9013  -18.8028  -13.0524 O   0  0  0  0  0  0  0  0  0  0  0  0
   26.5646  -20.7143  -12.8754 C   0  0  0  0  0  0  0  0  0  0  0  0
   25.8363  -20.5351  -11.5763 C   0  0  2  0  0  0  0  0  0  0  0  0
   26.5827  -20.8828  -10.4120 N   0  0  0  0  0  0  0  0  0  0  0  0
   24.4855  -21.1926  -11.6016 C   0  0  0  0  0  0  0  0  0  0  0  0
   24.2819  -22.3502  -11.1498 O   0  0  0  0  0  0  0  0  0  0  0  0
   19.8870  -20.6260  -11.1668 O   0  0  0  0  0  0  0  0  0  0  0  0
   21.1760  -20.1234  -11.2472 C   0  0  0  0  0  0  0  0  0  0  0  0
   22.0148  -21.0466  -12.1315 C   0  0  2  0  0  0  0  0  0  0  0  0
   23.3490  -20.5332  -12.1448 N   0  0  0  0  0  0  0  0  0  0  0  0
   21.4783  -20.9610  -13.5268 C   0  0  0  0  0  0  0  0  0  0  0  0
   21.9779  -20.2012  -14.3782 O   0  0  0  0  0  0  0  0  0  0  0  0
   20.3869  -21.7448  -13.9108 O   0  0  0  0  0  0  0  0  0  0  0  0
  2  1  1  0
  3  2  1  0
  3  4  1  1
  5  3  1  0
  5  6  1  6
  7  5  1  0
  7  8  2  0
  9 10  1  0
 10 12  1  0
 11 10  2  0
 13 12  1  6
 14 13  1  0
 14  7  1  0
 15 16  2  0
 15 13  1  0
 17 18  1  0
 19 18  1  1
 19 20  1  0
 19 21  1  0
 20 15  1  0
 21 23  1  0
 22 21  2  0
M  END
$$$$
