INS.pdb
     RDKit          3D

 23 22  0  0  1  0  0  0  0  0999 V2000
   24.7268  -15.4094  -17.1603 C   0  0  0  0  0  0  0  0  0  0  0  0
   23.4522  -14.5877  -17.2383 C   0  0  0  0  0  0  0  0  0  0  0  0
   23.8028  -13.1680  -16.9376 C   0  0  2  0  0  0  0  0  0  0  0  0
   24.3676  -13.0494  -15.5466 C   0  0  0  0  0  0  0  0  0  0  0  0
   22.6368  -12.2165  -17.0672 C   0  0  2  0  0  0  0  0  0  0  0  0
   22.0093  -12.3223  -18.3644 N   0  0  0  0  0  0  0  0  0  0  0  0
   23.0293  -10.8140  -16.8220 C   0  0  0  0  0  0  0  0  0  0  0  0
   23.3828  -10.4889  -15.6670 O   0  0  0  0  0  0  0  0  0  0  0  0
   24.2419   -5.7643  -17.4225 N   0  0  0  0  0  0  0  0  0  0  0  0
   24.1830   -6.3595  -18.7031 C   0  0  0  0  0  0  0  0  0  0  0  0
   24.4972   -5.6643  -19.7009 O   0  0  0  0  0  0  0  0  0  0  0  0
   23.7726   -7.7494  -18.9269 C   0  0  0  0  0  0  0  0  0  0  0  0
   23.3369   -8.4641  -17.6822 C   0  0  2  0  0  0  0  0  0  0  0  0
   23.0124   -9.8415  -17.8582 N   0  0  0  0  0  0  0  0  0  0  0  0
   22.2530   -7.7135  -16.9613 C   0  0  0  0  0  0  0  0  0  0  0  0
   21.0623   -7.6761  -17.3692 O   0  0  0  0  0  0  0  0  0  0  0  0
   20.1139   -7.0511  -13.0861 O   0  0  0  0  0  0  0  0  0  0  0  0
   21.0340   -7.5683  -13.9840 C   0  0  0  0  0  0  0  0  0  0  0  0
   21.5236   -6.4436  -14.8969 C   0  0  2  0  0  0  0  0  0  0  0  0
   22.5181   -6.9955  -15.7632 N   0  0  0  0  0  0  0  0  0  0  0  0
   22.1865   -5.4101  -14.0400 C   0  0  0  0  0  0  0  0  0  0  0  0
   23.4243   -5.2728  -14.0138 O   0  0  0  0  0  0  0  0  0  0  0  0
   21.4180   -4.5627  -13.2374 O   0  0  0  0  0  0  0  0  0  0  0  0
  2  1  1  0
  3  2  1  0
  3  4  1  1
  5  3  1  0
  5  6  1  6
  7  5  1  0
  7  8  2  0
  9 10  1  0
 10 12  1  0
 11 10  2  0
 13 12  1  6
 14 13  1  0
 14  7  1  0
 15 16  2  0
 15 13  1  0
 17 18  1  0
 19 18  1  1
 19 20  1  0
 19 21  1  0
 20 15  1  0
 21 23  1  0
 22 21  2  0
M  END
$$$$
