INS.pdb
     RDKit          3D

 23 22  0  0  1  0  0  0  0  0999 V2000
   16.9577  -26.3494   -2.4361 C   0  0  0  0  0  0  0  0  0  0  0  0
   17.2491  -26.8058   -3.8547 C   0  0  0  0  0  0  0  0  0  0  0  0
   17.1191  -25.6208   -4.7535 C   0  0  2  0  0  0  0  0  0  0  0  0
   15.7471  -25.0129   -4.6266 C   0  0  0  0  0  0  0  0  0  0  0  0
   17.3746  -25.9345   -6.2088 C   0  0  2  0  0  0  0  0  0  0  0  0
   18.7080  -26.4526   -6.4123 N   0  0  0  0  0  0  0  0  0  0  0  0
   17.1634  -24.7605   -7.0796 C   0  0  0  0  0  0  0  0  0  0  0  0
   16.1964  -24.0055   -6.8356 O   0  0  0  0  0  0  0  0  0  0  0  0
   17.4455  -21.4499  -11.1489 N   0  0  0  0  0  0  0  0  0  0  0  0
   18.6737  -22.1441  -11.0634 C   0  0  0  0  0  0  0  0  0  0  0  0
   19.5960  -21.8279  -11.8553 O   0  0  0  0  0  0  0  0  0  0  0  0
   18.9267  -23.2167  -10.0960 C   0  0  0  0  0  0  0  0  0  0  0  0
   17.7894  -23.4648   -9.1499 C   0  0  2  0  0  0  0  0  0  0  0  0
   18.0252  -24.4772   -8.1737 N   0  0  0  0  0  0  0  0  0  0  0  0
   16.4936  -23.6729   -9.8816 C   0  0  0  0  0  0  0  0  0  0  0  0
   16.2559  -24.7010  -10.5686 O   0  0  0  0  0  0  0  0  0  0  0  0
   13.5134  -20.9840   -9.1356 O   0  0  0  0  0  0  0  0  0  0  0  0
   13.1321  -22.2692   -9.4864 C   0  0  0  0  0  0  0  0  0  0  0  0
   14.1685  -22.8495  -10.4492 C   0  0  2  0  0  0  0  0  0  0  0  0
   15.4521  -22.7062   -9.8362 N   0  0  0  0  0  0  0  0  0  0  0  0
   14.1603  -22.0155  -11.6927 C   0  0  0  0  0  0  0  0  0  0  0  0
   15.1531  -21.3511  -12.0458 O   0  0  0  0  0  0  0  0  0  0  0  0
   13.0193  -21.9633  -12.4979 O   0  0  0  0  0  0  0  0  0  0  0  0
  2  1  1  0
  3  2  1  0
  3  4  1  6
  5  3  1  0
  5  6  1  1
  7  5  1  0
  7  8  2  0
  9 10  1  0
 10 12  1  0
 11 10  2  0
 13 12  1  6
 14 13  1  0
 14  7  1  0
 15 16  2  0
 15 13  1  0
 17 18  1  0
 19 18  1  1
 19 20  1  0
 19 21  1  0
 20 15  1  0
 21 23  1  0
 22 21  2  0
M  END
$$$$
