INS.pdb
     RDKit          3D

 23 22  0  0  1  0  0  0  0  0999 V2000
   17.7754  -13.8176  -14.9227 C   0  0  0  0  0  0  0  0  0  0  0  0
   17.4317  -12.9812  -16.1426 C   0  0  0  0  0  0  0  0  0  0  0  0
   18.5769  -12.0597  -16.4041 C   0  0  2  0  0  0  0  0  0  0  0  0
   18.5437  -10.8959  -15.4490 C   0  0  0  0  0  0  0  0  0  0  0  0
   18.6119  -11.5238  -17.8159 C   0  0  2  0  0  0  0  0  0  0  0  0
   18.7710  -12.5868  -18.7816 N   0  0  0  0  0  0  0  0  0  0  0  0
   19.6782  -10.5200  -18.0071 C   0  0  0  0  0  0  0  0  0  0  0  0
   20.5495  -10.7367  -18.8780 O   0  0  0  0  0  0  0  0  0  0  0  0
   22.5358   -6.2245  -18.1322 N   0  0  0  0  0  0  0  0  0  0  0  0
   21.6995   -6.7476  -19.1443 C   0  0  0  0  0  0  0  0  0  0  0  0
   21.8261   -6.3052  -20.3130 O   0  0  0  0  0  0  0  0  0  0  0  0
   20.6891   -7.7819  -18.8993 C   0  0  0  0  0  0  0  0  0  0  0  0
   20.6238   -8.2444  -17.4739 C   0  0  2  0  0  0  0  0  0  0  0  0
   19.7322   -9.3305  -17.2311 N   0  0  0  0  0  0  0  0  0  0  0  0
   20.3941   -7.0994  -16.5284 C   0  0  0  0  0  0  0  0  0  0  0  0
   19.3412   -6.4088  -16.5369 O   0  0  0  0  0  0  0  0  0  0  0  0
   21.1388   -6.7178  -11.9689 O   0  0  0  0  0  0  0  0  0  0  0  0
   21.3378   -7.2529  -13.2317 C   0  0  0  0  0  0  0  0  0  0  0  0
   21.0800   -6.1675  -14.2773 C   0  0  2  0  0  0  0  0  0  0  0  0
   21.3672   -6.7297  -15.5600 N   0  0  0  0  0  0  0  0  0  0  0  0
   22.0537   -5.0556  -14.0373 C   0  0  0  0  0  0  0  0  0  0  0  0
   21.7074   -3.9794  -13.5143 O   0  0  0  0  0  0  0  0  0  0  0  0
   23.3949   -5.2036  -14.4009 O   0  0  0  0  0  0  0  0  0  0  0  0
  2  1  1  0
  3  2  1  0
  3  4  1  1
  5  3  1  0
  5  6  1  6
  7  5  1  0
  7  8  2  0
  9 10  1  0
 10 12  1  0
 11 10  2  0
 13 12  1  6
 14 13  1  0
 14  7  1  0
 15 16  2  0
 15 13  1  0
 17 18  1  0
 19 18  1  1
 19 20  1  0
 19 21  1  0
 20 15  1  0
 21 23  1  0
 22 21  2  0
M  END
$$$$
