INS.pdb
     RDKit          3D

 23 22  0  0  1  0  0  0  0  0999 V2000
   17.8691  -22.4429  -12.2107 C   0  0  0  0  0  0  0  0  0  0  0  0
   18.9578  -22.2668  -11.1670 C   0  0  0  0  0  0  0  0  0  0  0  0
   20.0722  -21.4951  -11.7927 C   0  0  2  0  0  0  0  0  0  0  0  0
   20.5710  -22.1992  -13.0269 C   0  0  0  0  0  0  0  0  0  0  0  0
   21.2414  -21.2614  -10.8653 C   0  0  2  0  0  0  0  0  0  0  0  0
   20.8331  -20.5732   -9.6622 N   0  0  0  0  0  0  0  0  0  0  0  0
   22.3316  -20.5088  -11.5182 C   0  0  0  0  0  0  0  0  0  0  0  0
   22.1951  -19.2745  -11.6681 O   0  0  0  0  0  0  0  0  0  0  0  0
   25.6214  -20.2448  -10.0305 N   0  0  0  0  0  0  0  0  0  0  0  0
   26.3724  -20.9231  -11.0170 C   0  0  0  0  0  0  0  0  0  0  0  0
   27.4639  -21.4472  -10.6827 O   0  0  0  0  0  0  0  0  0  0  0  0
   25.9421  -21.0464  -12.4135 C   0  0  0  0  0  0  0  0  0  0  0  0
   24.5700  -20.5015  -12.6786 C   0  0  2  0  0  0  0  0  0  0  0  0
   23.5149  -21.1515  -11.9730 N   0  0  0  0  0  0  0  0  0  0  0  0
   24.2884  -20.3979  -14.1509 C   0  0  0  0  0  0  0  0  0  0  0  0
   24.1567  -21.4068  -14.8926 O   0  0  0  0  0  0  0  0  0  0  0  0
   23.8892  -16.6252  -15.6766 O   0  0  0  0  0  0  0  0  0  0  0  0
   23.1011  -17.5932  -16.2786 C   0  0  0  0  0  0  0  0  0  0  0  0
   23.8044  -18.9462  -16.1670 C   0  0  2  0  0  0  0  0  0  0  0  0
   24.1537  -19.1370  -14.7939 N   0  0  0  0  0  0  0  0  0  0  0  0
   25.0750  -18.8716  -16.9557 C   0  0  0  0  0  0  0  0  0  0  0  0
   26.1920  -18.8643  -16.4043 O   0  0  0  0  0  0  0  0  0  0  0  0
   25.0348  -18.8074  -18.3511 O   0  0  0  0  0  0  0  0  0  0  0  0
  2  1  1  0
  3  2  1  0
  3  4  1  6
  5  3  1  0
  5  6  1  1
  7  5  1  0
  7  8  2  0
  9 10  1  0
 10 12  1  0
 11 10  2  0
 13 12  1  6
 14 13  1  0
 14  7  1  0
 15 16  2  0
 15 13  1  0
 17 18  1  0
 19 18  1  1
 19 20  1  0
 19 21  1  0
 20 15  1  0
 21 23  1  0
 22 21  2  0
M  END
$$$$
