INS.pdb
     RDKit          3D

 23 22  0  0  1  0  0  0  0  0999 V2000
   15.7807  -10.2897  -18.4703 C   0  0  0  0  0  0  0  0  0  0  0  0
   16.8444  -10.6485  -17.4479 C   0  0  0  0  0  0  0  0  0  0  0  0
   17.1951   -9.4072  -16.6962 C   0  0  2  0  0  0  0  0  0  0  0  0
   17.8069   -8.3880  -17.6208 C   0  0  0  0  0  0  0  0  0  0  0  0
   18.1440   -9.6448  -15.5452 C   0  0  2  0  0  0  0  0  0  0  0  0
   17.5801  -10.5535  -14.5735 N   0  0  0  0  0  0  0  0  0  0  0  0
   18.5371   -8.3885  -14.8756 C   0  0  0  0  0  0  0  0  0  0  0  0
   17.7335   -7.8668  -14.0715 O   0  0  0  0  0  0  0  0  0  0  0  0
   21.1511   -4.0244  -13.5534 N   0  0  0  0  0  0  0  0  0  0  0  0
   22.0626   -5.0827  -13.7689 C   0  0  0  0  0  0  0  0  0  0  0  0
   23.2703   -4.9014  -13.4748 O   0  0  0  0  0  0  0  0  0  0  0  0
   21.6702   -6.3839  -14.3197 C   0  0  0  0  0  0  0  0  0  0  0  0
   20.1994   -6.5156  -14.5829 C   0  0  2  0  0  0  0  0  0  0  0  0
   19.7923   -7.7703  -15.1247 N   0  0  0  0  0  0  0  0  0  0  0  0
   19.6716   -5.3557  -15.3790 C   0  0  0  0  0  0  0  0  0  0  0  0
   19.9571   -5.1749  -16.5919 O   0  0  0  0  0  0  0  0  0  0  0  0
   16.8013   -3.1620  -13.5593 O   0  0  0  0  0  0  0  0  0  0  0  0
   16.7258   -3.2319  -14.9412 C   0  0  0  0  0  0  0  0  0  0  0  0
   18.1403   -3.3447  -15.5109 C   0  0  2  0  0  0  0  0  0  0  0  0
   18.8093   -4.3868  -14.7965 N   0  0  0  0  0  0  0  0  0  0  0  0
   18.8564   -2.0614  -15.2240 C   0  0  0  0  0  0  0  0  0  0  0  0
   19.8767   -2.0228  -14.5104 O   0  0  0  0  0  0  0  0  0  0  0  0
   18.3877   -0.8587  -15.7596 O   0  0  0  0  0  0  0  0  0  0  0  0
  2  1  1  0
  3  2  1  0
  3  4  1  6
  5  3  1  0
  5  6  1  1
  7  5  1  0
  7  8  2  0
  9 10  1  0
 10 12  1  0
 11 10  2  0
 13 12  1  6
 14 13  1  0
 14  7  1  0
 15 16  2  0
 15 13  1  0
 17 18  1  0
 19 18  1  1
 19 20  1  0
 19 21  1  0
 20 15  1  0
 21 23  1  0
 22 21  2  0
M  END
$$$$
