INS.pdb
     RDKit          3D

 23 22  0  0  1  0  0  0  0  0999 V2000
   23.6590  -15.4946  -15.5877 C   0  0  0  0  0  0  0  0  0  0  0  0
   22.6918  -14.3644  -15.8924 C   0  0  0  0  0  0  0  0  0  0  0  0
   23.4508  -13.0806  -15.8245 C   0  0  2  0  0  0  0  0  0  0  0  0
   24.0163  -12.8767  -14.4437 C   0  0  0  0  0  0  0  0  0  0  0  0
   22.6253  -11.8698  -16.1909 C   0  0  2  0  0  0  0  0  0  0  0  0
   22.0943  -11.9771  -17.5305 N   0  0  0  0  0  0  0  0  0  0  0  0
   23.3890  -10.6123  -16.0624 C   0  0  0  0  0  0  0  0  0  0  0  0
   23.7473  -10.2484  -14.9205 O   0  0  0  0  0  0  0  0  0  0  0  0
   25.7357   -6.0506  -17.0000 N   0  0  0  0  0  0  0  0  0  0  0  0
   25.8703   -6.8738  -18.1409 C   0  0  0  0  0  0  0  0  0  0  0  0
   26.6119   -6.4832  -19.0764 O   0  0  0  0  0  0  0  0  0  0  0  0
   25.1870   -8.1629  -18.2889 C   0  0  0  0  0  0  0  0  0  0  0  0
   24.3012   -8.5193  -17.1321 C   0  0  2  0  0  0  0  0  0  0  0  0
   23.7188   -9.8195  -17.1949 N   0  0  0  0  0  0  0  0  0  0  0  0
   23.2780   -7.4515  -16.8664 C   0  0  0  0  0  0  0  0  0  0  0  0
   22.3488   -7.1818  -17.6723 O   0  0  0  0  0  0  0  0  0  0  0  0
   21.2406   -4.7349  -13.4565 O   0  0  0  0  0  0  0  0  0  0  0  0
   22.1350   -5.7278  -13.8234 C   0  0  0  0  0  0  0  0  0  0  0  0
   22.3640   -5.6567  -15.3335 C   0  0  2  0  0  0  0  0  0  0  0  0
   23.3050   -6.6779  -15.6738 N   0  0  0  0  0  0  0  0  0  0  0  0
   22.9936   -4.3338  -15.6424 C   0  0  0  0  0  0  0  0  0  0  0  0
   24.1746   -4.0802  -15.3378 O   0  0  0  0  0  0  0  0  0  0  0  0
   22.2576   -3.3379  -16.2901 O   0  0  0  0  0  0  0  0  0  0  0  0
  2  1  1  0
  3  2  1  0
  3  4  1  1
  5  3  1  0
  5  6  1  6
  7  5  1  0
  7  8  2  0
  9 10  1  0
 10 12  1  0
 11 10  2  0
 13 12  1  6
 14 13  1  0
 14  7  1  0
 15 16  2  0
 15 13  1  0
 17 18  1  0
 19 18  1  1
 19 20  1  0
 19 21  1  0
 20 15  1  0
 21 23  1  0
 22 21  2  0
M  END
$$$$
