INS.pdb
     RDKit          3D

 23 22  0  0  1  0  0  0  0  0999 V2000
   25.4482  -33.4320  -13.8720 C   0  0  0  0  0  0  0  0  0  0  0  0
   24.0818  -33.9334  -13.4394 C   0  0  0  0  0  0  0  0  0  0  0  0
   23.8534  -33.4861  -12.0334 C   0  0  2  0  0  0  0  0  0  0  0  0
   24.9211  -34.0381  -11.1262 C   0  0  0  0  0  0  0  0  0  0  0  0
   22.5027  -33.8816  -11.4847 C   0  0  2  0  0  0  0  0  0  0  0  0
   21.4276  -33.3031  -12.2575 N   0  0  0  0  0  0  0  0  0  0  0  0
   22.3450  -33.5091  -10.0643 C   0  0  0  0  0  0  0  0  0  0  0  0
   21.6955  -32.4762   -9.7892 O   0  0  0  0  0  0  0  0  0  0  0  0
   21.1181  -32.8561   -4.9359 N   0  0  0  0  0  0  0  0  0  0  0  0
   21.4884  -34.0807   -5.5365 C   0  0  0  0  0  0  0  0  0  0  0  0
   21.8183  -35.0367   -4.7917 O   0  0  0  0  0  0  0  0  0  0  0  0
   21.5076  -34.2925   -6.9875 C   0  0  0  0  0  0  0  0  0  0  0  0
   22.8234  -33.9725   -7.6326 C   0  0  2  0  0  0  0  0  0  0  0  0
   22.9096  -34.2906   -9.0200 N   0  0  0  0  0  0  0  0  0  0  0  0
   23.9769  -34.5327   -6.8494 C   0  0  0  0  0  0  0  0  0  0  0  0
   24.3685  -35.7234   -6.9695 O   0  0  0  0  0  0  0  0  0  0  0  0
   25.6719  -32.2607   -3.7968 O   0  0  0  0  0  0  0  0  0  0  0  0
   26.5465  -32.8907   -4.6678 C   0  0  0  0  0  0  0  0  0  0  0  0
   25.8763  -34.1487   -5.2212 C   0  0  2  0  0  0  0  0  0  0  0  0
   24.6978  -33.7366   -5.9177 N   0  0  0  0  0  0  0  0  0  0  0  0
   25.4495  -34.9923   -4.0601 C   0  0  0  0  0  0  0  0  0  0  0  0
   24.2509  -35.1224   -3.7470 O   0  0  0  0  0  0  0  0  0  0  0  0
   26.4028  -35.6633   -3.2893 O   0  0  0  0  0  0  0  0  0  0  0  0
  2  1  1  0
  3  2  1  0
  3  4  1  1
  5  3  1  0
  5  6  1  6
  7  5  1  0
  7  8  2  0
  9 10  1  0
 10 12  1  0
 11 10  2  0
 13 12  1  1
 14 13  1  0
 14  7  1  0
 15 16  2  0
 15 13  1  0
 17 18  1  0
 19 18  1  1
 19 20  1  0
 19 21  1  0
 20 15  1  0
 21 23  1  0
 22 21  2  0
M  END
$$$$
