INS.pdb
     RDKit          3D

 23 22  0  0  1  0  0  0  0  0999 V2000
   15.6325  -13.3741  -13.9120 C   0  0  0  0  0  0  0  0  0  0  0  0
   16.5815  -12.5829  -13.0293 C   0  0  0  0  0  0  0  0  0  0  0  0
   15.8746  -11.3426  -12.5924 C   0  0  2  0  0  0  0  0  0  0  0  0
   15.5188  -10.4930  -13.7837 C   0  0  0  0  0  0  0  0  0  0  0  0
   16.6709  -10.5026  -11.6218 C   0  0  2  0  0  0  0  0  0  0  0  0
   17.0336  -11.2563  -10.4435 N   0  0  0  0  0  0  0  0  0  0  0  0
   15.9509   -9.2770  -11.2211 C   0  0  0  0  0  0  0  0  0  0  0  0
   15.6582   -8.4431  -12.1063 O   0  0  0  0  0  0  0  0  0  0  0  0
   12.3571   -9.8710   -8.0408 N   0  0  0  0  0  0  0  0  0  0  0  0
   12.7958   -8.6741   -8.6512 C   0  0  0  0  0  0  0  0  0  0  0  0
   12.0947   -8.1782   -9.5678 O   0  0  0  0  0  0  0  0  0  0  0  0
   14.0300   -7.9806   -8.2689 C   0  0  0  0  0  0  0  0  0  0  0  0
   15.0106   -7.8181   -9.3923 C   0  0  2  0  0  0  0  0  0  0  0  0
   15.5904   -9.0308   -9.8685 N   0  0  0  0  0  0  0  0  0  0  0  0
   16.0486   -6.7783   -9.0775 C   0  0  0  0  0  0  0  0  0  0  0  0
   17.2539   -7.0644   -8.8517 O   0  0  0  0  0  0  0  0  0  0  0  0
   16.9776   -3.8960  -11.1909 O   0  0  0  0  0  0  0  0  0  0  0  0
   17.6174   -4.4040  -10.0716 C   0  0  0  0  0  0  0  0  0  0  0  0
   16.6639   -4.3312   -8.8785 C   0  0  2  0  0  0  0  0  0  0  0  0
   15.7203   -5.3963   -9.0171 N   0  0  0  0  0  0  0  0  0  0  0  0
   15.9116   -3.0397   -8.9679 C   0  0  0  0  0  0  0  0  0  0  0  0
   14.7432   -2.9873   -9.3966 O   0  0  0  0  0  0  0  0  0  0  0  0
   16.5141   -1.8447   -8.5654 O   0  0  0  0  0  0  0  0  0  0  0  0
  2  1  1  0
  3  2  1  0
  3  4  1  6
  5  3  1  0
  5  6  1  1
  7  5  1  0
  7  8  2  0
  9 10  1  0
 10 12  1  0
 11 10  2  0
 13 12  1  1
 14 13  1  0
 14  7  1  0
 15 16  2  0
 15 13  1  0
 17 18  1  0
 19 18  1  6
 19 20  1  0
 19 21  1  0
 20 15  1  0
 21 23  1  0
 22 21  2  0
M  END
$$$$
