KHP.pdb
     RDKit          3D

 27 28  0  0  1  0  0  0  0  0999 V2000
   16.6531  -11.1447  -13.2596 N   0  0  0  0  0  0  0  0  0  0  0  0
   17.1724   -9.9589  -12.7011 C   0  0  1  0  0  0  0  0  0  0  0  0
   17.9189   -9.1000  -13.6207 C   0  0  0  0  0  0  0  0  0  0  0  0
   18.5892   -7.8840  -13.2331 C   0  0  0  0  0  0  0  0  0  0  0  0
   19.9794   -7.5003  -13.4662 C   0  0  0  0  0  0  0  0  0  0  0  0
   20.4711   -6.1838  -13.0133 C   0  0  0  0  0  0  0  0  0  0  0  0
   21.8978   -6.0444  -13.2668 N   0  0  0  0  0  0  0  0  0  0  0  0
   16.0518   -9.1575  -12.0475 C   0  0  0  0  0  0  0  0  0  0  0  0
   14.9877   -8.9175  -12.6661 O   0  0  0  0  0  0  0  0  0  0  0  0
   16.2129   -8.6859  -10.7437 N   0  0  0  0  0  0  0  0  0  0  0  0
   15.2220   -7.8630  -10.0535 C   0  0  1  0  0  0  0  0  0  0  0  0
   14.8105   -8.7109   -8.8385 C   0  0  0  0  0  0  0  0  0  0  0  0
   13.7238   -9.5976   -9.2844 C   0  0  0  0  0  0  0  0  0  0  0  0
   12.3714   -9.3510   -9.3475 C   0  0  0  0  0  0  0  0  0  0  0  0
   11.7334  -10.4331   -9.8135 N   0  0  0  0  0  0  0  0  0  0  0  0
   12.6614  -11.3676  -10.0489 C   0  0  0  0  0  0  0  0  0  0  0  0
   13.8812  -10.8547   -9.7243 N   0  0  0  0  0  0  0  0  0  0  0  0
   15.9074   -6.6306   -9.6042 C   0  0  0  0  0  0  0  0  0  0  0  0
   17.0818   -6.6593   -9.1671 O   0  0  0  0  0  0  0  0  0  0  0  0
   15.2827   -5.3298   -9.6370 N   0  0  0  0  0  0  0  0  0  0  0  0
   13.9511   -5.0134  -10.1079 C   0  0  0  0  0  0  0  0  0  0  0  0
   14.2243   -3.7799  -10.9608 C   0  0  0  0  0  0  0  0  0  0  0  0
   15.3781   -3.1035  -10.2613 C   0  0  0  0  0  0  0  0  0  0  0  0
   15.8590   -4.0744   -9.2138 C   0  0  1  0  0  0  0  0  0  0  0  0
   15.2987   -3.6564   -7.9076 C   0  0  0  0  0  0  0  0  0  0  0  0
   14.3030   -4.2352   -7.4066 O   0  0  0  0  0  0  0  0  0  0  0  0
   15.8350   -2.6108   -7.1669 O   0  0  0  0  0  0  0  0  0  0  0  0
  2  1  1  6
  3  2  1  0
  4  5  1  0
  4  3  1  0
  5  6  1  0
  7  6  1  0
  8  9  2  0
  8  2  1  0
 10  8  1  0
 11 10  1  0
 11 12  1  1
 12 13  1  0
 13 17  1  0
 13 14  2  0
 14 15  1  0
 16 15  1  0
 17 16  2  0
 18 11  1  0
 19 18  2  0
 20 24  1  0
 20 18  1  0
 21 22  1  0
 21 20  1  0
 22 23  1  0
 23 24  1  0
 25 27  1  0
 24 25  1  1
 26 25  2  0
M  END
$$$$
