KHP.pdb
     RDKit          3D

 27 28  0  0  1  0  0  0  0  0999 V2000
   25.1764  -20.0427  -15.9338 N   0  0  0  0  0  0  0  0  0  0  0  0
   25.9848  -20.7024  -14.9856 C   0  0  1  0  0  0  0  0  0  0  0  0
   27.4179  -20.7222  -15.2800 C   0  0  0  0  0  0  0  0  0  0  0  0
   27.9906  -20.3632  -16.5533 C   0  0  0  0  0  0  0  0  0  0  0  0
   28.1756  -19.0300  -17.1214 C   0  0  0  0  0  0  0  0  0  0  0  0
   28.8808  -18.8639  -18.4080 C   0  0  0  0  0  0  0  0  0  0  0  0
   28.9548  -17.4597  -18.7846 N   0  0  0  0  0  0  0  0  0  0  0  0
   25.7546  -20.1061  -13.6012 C   0  0  0  0  0  0  0  0  0  0  0  0
   25.7068  -18.8639  -13.4359 O   0  0  0  0  0  0  0  0  0  0  0  0
   25.5945  -20.9544  -12.5044 N   0  0  0  0  0  0  0  0  0  0  0  0
   25.2777  -20.4836  -11.1578 C   0  0  1  0  0  0  0  0  0  0  0  0
   24.0142  -21.2708  -10.7723 C   0  0  0  0  0  0  0  0  0  0  0  0
   22.8850  -20.6343  -11.4691 C   0  0  0  0  0  0  0  0  0  0  0  0
   22.8964  -19.6083  -12.3861 C   0  0  0  0  0  0  0  0  0  0  0  0
   21.6442  -19.3316  -12.7743 N   0  0  0  0  0  0  0  0  0  0  0  0
   20.8332  -20.1682  -12.1166 C   0  0  0  0  0  0  0  0  0  0  0  0
   21.5946  -20.9663  -11.3169 N   0  0  0  0  0  0  0  0  0  0  0  0
   26.4042  -20.8692  -10.2788 C   0  0  0  0  0  0  0  0  0  0  0  0
   27.2129  -21.7676  -10.6105 O   0  0  0  0  0  0  0  0  0  0  0  0
   26.6480  -20.2483   -8.9987 N   0  0  0  0  0  0  0  0  0  0  0  0
   25.8576  -19.2134   -8.3669 C   0  0  0  0  0  0  0  0  0  0  0  0
   26.9461  -18.2555   -7.8967 C   0  0  0  0  0  0  0  0  0  0  0  0
   28.1104  -19.1599   -7.5733 C   0  0  0  0  0  0  0  0  0  0  0  0
   27.7340  -20.5257   -8.0874 C   0  0  1  0  0  0  0  0  0  0  0  0
   27.2596  -21.3341   -6.9401 C   0  0  0  0  0  0  0  0  0  0  0  0
   26.0405  -21.5888   -6.7779 O   0  0  0  0  0  0  0  0  0  0  0  0
   28.1251  -21.8532   -5.9856 O   0  0  0  0  0  0  0  0  0  0  0  0
  2  1  1  6
  3  2  1  0
  4  5  1  0
  4  3  1  0
  5  6  1  0
  7  6  1  0
  8  9  2  0
  8  2  1  0
 10  8  1  0
 11 10  1  0
 11 12  1  1
 12 13  1  0
 13 17  1  0
 13 14  2  0
 14 15  1  0
 16 15  1  0
 17 16  2  0
 18 11  1  0
 19 18  2  0
 20 24  1  0
 20 18  1  0
 21 22  1  0
 21 20  1  0
 22 23  1  0
 23 24  1  0
 25 27  1  0
 24 25  1  1
 26 25  2  0
M  END
$$$$
