KHP.pdb
     RDKit          3D

 27 28  0  0  1  0  0  0  0  0999 V2000
   22.4936  -20.5940  -17.7593 N   0  0  0  0  0  0  0  0  0  0  0  0
   22.8047  -19.7954  -16.6399 C   0  0  1  0  0  0  0  0  0  0  0  0
   21.7067  -18.9808  -16.1187 C   0  0  0  0  0  0  0  0  0  0  0  0
   20.7349  -18.3052  -16.9417 C   0  0  0  0  0  0  0  0  0  0  0  0
   19.6820  -17.3805  -16.5287 C   0  0  0  0  0  0  0  0  0  0  0  0
   18.7362  -16.8409  -17.5260 C   0  0  0  0  0  0  0  0  0  0  0  0
   17.8361  -15.8707  -16.9195 N   0  0  0  0  0  0  0  0  0  0  0  0
   23.3727  -20.6642  -15.5229 C   0  0  0  0  0  0  0  0  0  0  0  0
   22.6919  -21.5881  -15.0175 O   0  0  0  0  0  0  0  0  0  0  0  0
   24.6674  -20.4279  -15.0580 N   0  0  0  0  0  0  0  0  0  0  0  0
   25.2927  -21.1946  -13.9825 C   0  0  1  0  0  0  0  0  0  0  0  0
   26.6037  -21.7082  -14.6006 C   0  0  0  0  0  0  0  0  0  0  0  0
   26.2482  -22.8274  -15.4877 C   0  0  0  0  0  0  0  0  0  0  0  0
   26.1740  -22.8578  -16.8615 C   0  0  0  0  0  0  0  0  0  0  0  0
   25.8118  -24.0814  -17.2701 N   0  0  0  0  0  0  0  0  0  0  0  0
   25.6539  -24.8328  -16.1743 C   0  0  0  0  0  0  0  0  0  0  0  0
   25.9216  -24.0634  -15.0823 N   0  0  0  0  0  0  0  0  0  0  0  0
   25.5861  -20.2511  -12.8806 C   0  0  0  0  0  0  0  0  0  0  0  0
   25.7093  -19.0214  -13.0897 O   0  0  0  0  0  0  0  0  0  0  0  0
   25.7482  -20.6729  -11.5097 N   0  0  0  0  0  0  0  0  0  0  0  0
   25.6517  -22.0223  -10.9952 C   0  0  0  0  0  0  0  0  0  0  0  0
   24.7851  -21.8067   -9.7600 C   0  0  0  0  0  0  0  0  0  0  0  0
   25.1710  -20.4280   -9.2821 C   0  0  0  0  0  0  0  0  0  0  0  0
   26.0328  -19.8356  -10.3673 C   0  0  1  0  0  0  0  0  0  0  0  0
   27.4495  -19.9755   -9.9572 C   0  0  0  0  0  0  0  0  0  0  0  0
   27.9196  -19.3230   -8.9925 O   0  0  0  0  0  0  0  0  0  0  0  0
   28.3330  -20.8274  -10.6078 O   0  0  0  0  0  0  0  0  0  0  0  0
  2  1  1  6
  3  2  1  0
  4  5  1  0
  4  3  1  0
  5  6  1  0
  7  6  1  0
  8  9  2  0
  8  2  1  0
 10  8  1  0
 11 10  1  0
 11 12  1  6
 12 13  1  0
 13 17  1  0
 13 14  2  0
 14 15  1  0
 16 15  1  0
 17 16  2  0
 18 11  1  0
 19 18  2  0
 20 24  1  0
 20 18  1  0
 21 22  1  0
 21 20  1  0
 22 23  1  0
 23 24  1  0
 25 27  1  0
 24 25  1  1
 26 25  2  0
M  END
$$$$
