KHP.pdb
     RDKit          3D

 27 28  0  0  1  0  0  0  0  0999 V2000
   22.8252  -12.3043  -19.5561 N   0  0  0  0  0  0  0  0  0  0  0  0
   22.6349  -10.9079  -19.5961 C   0  0  1  0  0  0  0  0  0  0  0  0
   21.7785  -10.4164  -20.6758 C   0  0  0  0  0  0  0  0  0  0  0  0
   21.7339  -10.9850  -21.9999 C   0  0  0  0  0  0  0  0  0  0  0  0
   21.0538  -12.1994  -22.4434 C   0  0  0  0  0  0  0  0  0  0  0  0
   20.9988  -12.5356  -23.8801 C   0  0  0  0  0  0  0  0  0  0  0  0
   20.3424  -13.8177  -24.0910 N   0  0  0  0  0  0  0  0  0  0  0  0
   22.1003  -10.4173  -18.2549 C   0  0  0  0  0  0  0  0  0  0  0  0
   20.9697  -10.7721  -17.8446 O   0  0  0  0  0  0  0  0  0  0  0  0
   22.8803   -9.5626  -17.4741 N   0  0  0  0  0  0  0  0  0  0  0  0
   22.5403   -9.1835  -16.1044 C   0  0  1  0  0  0  0  0  0  0  0  0
   23.7382   -9.6700  -15.2719 C   0  0  0  0  0  0  0  0  0  0  0  0
   23.6310  -11.1352  -15.1846 C   0  0  0  0  0  0  0  0  0  0  0  0
   24.5088  -12.0987  -15.6259 C   0  0  0  0  0  0  0  0  0  0  0  0
   24.0252  -13.3166  -15.3463 N   0  0  0  0  0  0  0  0  0  0  0  0
   22.8494  -13.1428  -14.7318 C   0  0  0  0  0  0  0  0  0  0  0  0
   22.6086  -11.8055  -14.6331 N   0  0  0  0  0  0  0  0  0  0  0  0
   22.4592   -7.7063  -16.0625 C   0  0  0  0  0  0  0  0  0  0  0  0
   23.1698   -6.9922  -16.8083 O   0  0  0  0  0  0  0  0  0  0  0  0
   21.5707   -6.9948  -15.1749 N   0  0  0  0  0  0  0  0  0  0  0  0
   20.6570   -7.5696  -14.2107 C   0  0  0  0  0  0  0  0  0  0  0  0
   19.3953   -6.7571  -14.4779 C   0  0  0  0  0  0  0  0  0  0  0  0
   19.9169   -5.4016  -14.8887 C   0  0  0  0  0  0  0  0  0  0  0  0
   21.4043   -5.5636  -15.0702 C   0  0  1  0  0  0  0  0  0  0  0  0
   22.0747   -5.0474  -13.8541 C   0  0  0  0  0  0  0  0  0  0  0  0
   22.4677   -5.8196  -12.9449 O   0  0  0  0  0  0  0  0  0  0  0  0
   22.3063   -3.6931  -13.6488 O   0  0  0  0  0  0  0  0  0  0  0  0
  2  1  1  1
  3  2  1  0
  4  5  1  0
  4  3  1  0
  5  6  1  0
  7  6  1  0
  8  9  2  0
  8  2  1  0
 10  8  1  0
 11 10  1  0
 11 12  1  1
 12 13  1  0
 13 17  1  0
 13 14  2  0
 14 15  1  0
 16 15  1  0
 17 16  2  0
 18 11  1  0
 19 18  2  0
 20 24  1  0
 20 18  1  0
 21 22  1  0
 21 20  1  0
 22 23  1  0
 23 24  1  0
 25 27  1  0
 24 25  1  1
 26 25  2  0
M  END
$$$$
