KHP.pdb
     RDKit          3D

 27 28  0  0  1  0  0  0  0  0999 V2000
   26.7782  -17.3135  -17.4867 N   0  0  0  0  0  0  0  0  0  0  0  0
   25.7765  -16.4799  -16.9489 C   0  0  1  0  0  0  0  0  0  0  0  0
   24.9621  -15.7573  -17.9264 C   0  0  0  0  0  0  0  0  0  0  0  0
   24.8316  -16.1340  -19.3119 C   0  0  0  0  0  0  0  0  0  0  0  0
   25.7298  -15.8302  -20.4232 C   0  0  0  0  0  0  0  0  0  0  0  0
   25.4365  -16.3455  -21.7755 C   0  0  0  0  0  0  0  0  0  0  0  0
   25.0368  -15.2679  -22.6689 N   0  0  0  0  0  0  0  0  0  0  0  0
   24.8710  -17.2854  -16.0235 C   0  0  0  0  0  0  0  0  0  0  0  0
   23.9003  -16.7442  -15.4427 O   0  0  0  0  0  0  0  0  0  0  0  0
   25.1262  -18.6427  -15.8212 N   0  0  0  0  0  0  0  0  0  0  0  0
   24.3403  -19.4882  -14.9252 C   0  0  1  0  0  0  0  0  0  0  0  0
   23.7212  -20.5459  -15.8540 C   0  0  0  0  0  0  0  0  0  0  0  0
   22.4745  -19.9715  -16.3847 C   0  0  0  0  0  0  0  0  0  0  0  0
   21.2447  -19.8538  -15.7785 C   0  0  0  0  0  0  0  0  0  0  0  0
   20.3788  -19.2685  -16.6169 N   0  0  0  0  0  0  0  0  0  0  0  0
   21.0403  -19.0110  -17.7510 C   0  0  0  0  0  0  0  0  0  0  0  0
   22.3248  -19.4422  -17.6078 N   0  0  0  0  0  0  0  0  0  0  0  0
   25.2840  -20.1298  -13.9828 C   0  0  0  0  0  0  0  0  0  0  0  0
   26.5011  -20.2493  -14.2580 O   0  0  0  0  0  0  0  0  0  0  0  0
   24.8770  -20.6544  -12.7012 N   0  0  0  0  0  0  0  0  0  0  0  0
   23.5352  -20.6898  -12.1597 C   0  0  0  0  0  0  0  0  0  0  0  0
   23.7764  -20.1928  -10.7390 C   0  0  0  0  0  0  0  0  0  0  0  0
   25.1560  -20.7056  -10.4044 C   0  0  0  0  0  0  0  0  0  0  0  0
   25.7246  -21.2455  -11.6915 C   0  0  1  0  0  0  0  0  0  0  0  0
   25.5724  -22.7191  -11.6791 C   0  0  0  0  0  0  0  0  0  0  0  0
   26.3686  -23.4545  -11.0445 O   0  0  0  0  0  0  0  0  0  0  0  0
   24.5512  -23.3686  -12.3610 O   0  0  0  0  0  0  0  0  0  0  0  0
  2  1  1  6
  3  2  1  0
  4  5  1  0
  4  3  1  0
  5  6  1  0
  7  6  1  0
  8  9  2  0
  8  2  1  0
 10  8  1  0
 11 10  1  0
 11 12  1  6
 12 13  1  0
 13 17  1  0
 13 14  2  0
 14 15  1  0
 16 15  1  0
 17 16  2  0
 18 11  1  0
 19 18  2  0
 20 24  1  0
 20 18  1  0
 21 22  1  0
 21 20  1  0
 22 23  1  0
 23 24  1  0
 25 27  1  0
 24 25  1  1
 26 25  2  0
M  END
$$$$
