KHP.pdb
     RDKit          3D

 27 28  0  0  1  0  0  0  0  0999 V2000
   19.1060  -15.1494  -17.3588 N   0  0  0  0  0  0  0  0  0  0  0  0
   19.3000  -13.8283  -17.8111 C   0  0  1  0  0  0  0  0  0  0  0  0
   18.0888  -13.1124  -18.2128 C   0  0  0  0  0  0  0  0  0  0  0  0
   17.2842  -13.4566  -19.3584 C   0  0  0  0  0  0  0  0  0  0  0  0
   17.2399  -14.7208  -20.0893 C   0  0  0  0  0  0  0  0  0  0  0  0
   16.3410  -14.8745  -21.2505 C   0  0  0  0  0  0  0  0  0  0  0  0
   16.4469  -16.2106  -21.8187 N   0  0  0  0  0  0  0  0  0  0  0  0
   20.0452  -13.0207  -16.7538 C   0  0  0  0  0  0  0  0  0  0  0  0
   19.8126  -13.1899  -15.5333 O   0  0  0  0  0  0  0  0  0  0  0  0
   20.9988  -12.0818  -17.1505 N   0  0  0  0  0  0  0  0  0  0  0  0
   21.7795  -11.2770  -16.2133 C   0  0  1  0  0  0  0  0  0  0  0  0
   23.1843  -11.2318  -16.8370 C   0  0  0  0  0  0  0  0  0  0  0  0
   23.8276  -12.5205  -16.5352 C   0  0  0  0  0  0  0  0  0  0  0  0
   24.0381  -13.6013  -17.3606 C   0  0  0  0  0  0  0  0  0  0  0  0
   24.6608  -14.5757  -16.6839 N   0  0  0  0  0  0  0  0  0  0  0  0
   24.8507  -14.1307  -15.4365 C   0  0  0  0  0  0  0  0  0  0  0  0
   24.3397  -12.8709  -15.3462 N   0  0  0  0  0  0  0  0  0  0  0  0
   21.1874   -9.9207  -16.1963 C   0  0  0  0  0  0  0  0  0  0  0  0
   20.6577   -9.4270  -17.2194 O   0  0  0  0  0  0  0  0  0  0  0  0
   21.1777   -9.0842  -15.0200 N   0  0  0  0  0  0  0  0  0  0  0  0
   21.7964   -9.3683  -13.7428 C   0  0  0  0  0  0  0  0  0  0  0  0
   20.6775   -8.9866  -12.7806 C   0  0  0  0  0  0  0  0  0  0  0  0
   19.9706   -7.8504  -13.4787 C   0  0  0  0  0  0  0  0  0  0  0  0
   20.5430   -7.7949  -14.8717 C   0  0  1  0  0  0  0  0  0  0  0  0
   21.5502   -6.7092  -14.9121 C   0  0  0  0  0  0  0  0  0  0  0  0
   22.7813   -6.9566  -14.8889 O   0  0  0  0  0  0  0  0  0  0  0  0
   21.1971   -5.3673  -14.9773 O   0  0  0  0  0  0  0  0  0  0  0  0
  2  1  1  1
  3  2  1  0
  4  5  1  0
  4  3  1  0
  5  6  1  0
  7  6  1  0
  8  9  2  0
  8  2  1  0
 10  8  1  0
 11 10  1  0
 11 12  1  6
 12 13  1  0
 13 17  1  0
 13 14  2  0
 14 15  1  0
 16 15  1  0
 17 16  2  0
 18 11  1  0
 19 18  2  0
 20 24  1  0
 20 18  1  0
 21 22  1  0
 21 20  1  0
 22 23  1  0
 23 24  1  0
 25 27  1  0
 24 25  1  1
 26 25  2  0
M  END
$$$$
