KHP.pdb
     RDKit          3D

 27 28  0  0  1  0  0  0  0  0999 V2000
   27.3687  -26.7353  -16.3094 N   0  0  0  0  0  0  0  0  0  0  0  0
   27.7082  -27.5980  -17.3716 C   0  0  1  0  0  0  0  0  0  0  0  0
   28.2816  -26.9525  -18.5528 C   0  0  0  0  0  0  0  0  0  0  0  0
   27.5101  -26.4803  -19.6753 C   0  0  0  0  0  0  0  0  0  0  0  0
   26.5157  -27.2056  -20.4622 C   0  0  0  0  0  0  0  0  0  0  0  0
   25.9759  -26.6131  -21.7023 C   0  0  0  0  0  0  0  0  0  0  0  0
   25.0499  -27.5262  -22.3565 N   0  0  0  0  0  0  0  0  0  0  0  0
   28.6517  -28.6881  -16.8749 C   0  0  0  0  0  0  0  0  0  0  0  0
   29.5653  -28.4243  -16.0574 O   0  0  0  0  0  0  0  0  0  0  0  0
   28.4956  -29.9962  -17.3362 N   0  0  0  0  0  0  0  0  0  0  0  0
   29.3779  -31.0977  -16.9572 C   0  0  1  0  0  0  0  0  0  0  0  0
   28.4793  -32.3430  -17.0370 C   0  0  0  0  0  0  0  0  0  0  0  0
   27.6389  -32.3417  -15.8289 C   0  0  0  0  0  0  0  0  0  0  0  0
   28.0182  -32.3133  -14.5063 C   0  0  0  0  0  0  0  0  0  0  0  0
   26.9321  -32.3241  -13.7217 N   0  0  0  0  0  0  0  0  0  0  0  0
   25.8640  -32.3590  -14.5267 C   0  0  0  0  0  0  0  0  0  0  0  0
   26.2981  -32.3699  -15.8181 N   0  0  0  0  0  0  0  0  0  0  0  0
   30.4477  -31.1772  -17.9768 C   0  0  0  0  0  0  0  0  0  0  0  0
   30.3410  -30.5949  -19.0816 O   0  0  0  0  0  0  0  0  0  0  0  0
   31.6698  -31.9183  -17.7746 N   0  0  0  0  0  0  0  0  0  0  0  0
   31.9880  -32.7889  -16.6630 C   0  0  0  0  0  0  0  0  0  0  0  0
   33.4040  -32.3351  -16.3278 C   0  0  0  0  0  0  0  0  0  0  0  0
   33.9812  -31.9312  -17.6627 C   0  0  0  0  0  0  0  0  0  0  0  0
   32.8300  -31.9388  -18.6353 C   0  0  1  0  0  0  0  0  0  0  0  0
   32.8869  -33.2033  -19.4051 C   0  0  0  0  0  0  0  0  0  0  0  0
   32.1833  -34.1946  -19.0894 O   0  0  0  0  0  0  0  0  0  0  0  0
   33.7127  -33.3664  -20.5102 O   0  0  0  0  0  0  0  0  0  0  0  0
  2  1  1  1
  3  2  1  0
  4  5  1  0
  4  3  1  0
  5  6  1  0
  7  6  1  0
  8  9  2  0
  8  2  1  0
 10  8  1  0
 11 10  1  0
 11 12  1  6
 12 13  1  0
 13 17  1  0
 13 14  2  0
 14 15  1  0
 16 15  1  0
 17 16  2  0
 18 11  1  0
 19 18  2  0
 20 24  1  0
 20 18  1  0
 21 22  1  0
 21 20  1  0
 22 23  1  0
 23 24  1  0
 25 27  1  0
 24 25  1  1
 26 25  2  0
M  END
$$$$
