KHP.pdb
     RDKit          3D

 27 28  0  0  1  0  0  0  0  0999 V2000
   23.6909  -17.0278  -16.9372 N   0  0  0  0  0  0  0  0  0  0  0  0
   24.6756  -16.8928  -15.9372 C   0  0  1  0  0  0  0  0  0  0  0  0
   24.8464  -15.5446  -15.3950 C   0  0  0  0  0  0  0  0  0  0  0  0
   25.6885  -14.5331  -15.9835 C   0  0  0  0  0  0  0  0  0  0  0  0
   26.6428  -14.6728  -17.0808 C   0  0  0  0  0  0  0  0  0  0  0  0
   27.4481  -13.5138  -17.5148 C   0  0  0  0  0  0  0  0  0  0  0  0
   28.3407  -13.8781  -18.6056 N   0  0  0  0  0  0  0  0  0  0  0  0
   24.3998  -17.8708  -14.8003 C   0  0  0  0  0  0  0  0  0  0  0  0
   23.4490  -17.6807  -14.0050 O   0  0  0  0  0  0  0  0  0  0  0  0
   25.2162  -18.9921  -14.6438 N   0  0  0  0  0  0  0  0  0  0  0  0
   25.0549  -19.9653  -13.5657 C   0  0  1  0  0  0  0  0  0  0  0  0
   25.0106  -21.3220  -14.2882 C   0  0  0  0  0  0  0  0  0  0  0  0
   23.6410  -21.4892  -14.8000 C   0  0  0  0  0  0  0  0  0  0  0  0
   22.5236  -21.9659  -14.1535 C   0  0  0  0  0  0  0  0  0  0  0  0
   21.4754  -21.9527  -14.9879 N   0  0  0  0  0  0  0  0  0  0  0  0
   21.9093  -21.4734  -16.1592 C   0  0  0  0  0  0  0  0  0  0  0  0
   23.2368  -21.1896  -16.0432 N   0  0  0  0  0  0  0  0  0  0  0  0
   26.2615  -19.8832  -12.7127 C   0  0  0  0  0  0  0  0  0  0  0  0
   27.3086  -19.3241  -13.1153 O   0  0  0  0  0  0  0  0  0  0  0  0
   26.3172  -20.4317  -11.3787 N   0  0  0  0  0  0  0  0  0  0  0  0
   25.2746  -21.1649  -10.6929 C   0  0  0  0  0  0  0  0  0  0  0  0
   25.2949  -20.4967   -9.3231 C   0  0  0  0  0  0  0  0  0  0  0  0
   26.7426  -20.1177   -9.1257 C   0  0  0  0  0  0  0  0  0  0  0  0
   27.4213  -20.3564  -10.4500 C   0  0  1  0  0  0  0  0  0  0  0  0
   28.1308  -21.6548  -10.3756 C   0  0  0  0  0  0  0  0  0  0  0  0
   27.5975  -22.7169  -10.7818 O   0  0  0  0  0  0  0  0  0  0  0  0
   29.4144  -21.7740   -9.8579 O   0  0  0  0  0  0  0  0  0  0  0  0
  2  1  1  6
  3  2  1  0
  4  5  1  0
  4  3  1  0
  5  6  1  0
  7  6  1  0
  8  9  2  0
  8  2  1  0
 10  8  1  0
 11 10  1  0
 11 12  1  6
 12 13  1  0
 13 17  1  0
 13 14  2  0
 14 15  1  0
 16 15  1  0
 17 16  2  0
 18 11  1  0
 19 18  2  0
 20 24  1  0
 20 18  1  0
 21 22  1  0
 21 20  1  0
 22 23  1  0
 23 24  1  0
 25 27  1  0
 24 25  1  1
 26 25  2  0
M  END
$$$$
