KHP.pdb
     RDKit          3D

 27 28  0  0  1  0  0  0  0  0999 V2000
   26.1238  -17.9442  -18.9139 N   0  0  0  0  0  0  0  0  0  0  0  0
   26.9170  -18.1486  -17.7664 C   0  0  1  0  0  0  0  0  0  0  0  0
   27.9361  -17.1300  -17.5117 C   0  0  0  0  0  0  0  0  0  0  0  0
   28.5193  -16.2923  -18.5297 C   0  0  0  0  0  0  0  0  0  0  0  0
   29.1499  -16.6948  -19.7845 C   0  0  0  0  0  0  0  0  0  0  0  0
   29.6829  -15.6729  -20.7074 C   0  0  0  0  0  0  0  0  0  0  0  0
   31.0899  -15.4118  -20.4401 N   0  0  0  0  0  0  0  0  0  0  0  0
   26.0259  -18.2996  -16.5383 C   0  0  0  0  0  0  0  0  0  0  0  0
   25.6143  -17.2926  -15.9146 O   0  0  0  0  0  0  0  0  0  0  0  0
   25.6636  -19.5756  -16.1036 N   0  0  0  0  0  0  0  0  0  0  0  0
   24.7883  -19.8216  -14.9595 C   0  0  1  0  0  0  0  0  0  0  0  0
   23.5169  -20.4223  -15.5818 C   0  0  0  0  0  0  0  0  0  0  0  0
   22.7179  -19.2966  -16.0920 C   0  0  0  0  0  0  0  0  0  0  0  0
   21.6995  -18.6046  -15.4773 C   0  0  0  0  0  0  0  0  0  0  0  0
   21.2401  -17.6491  -16.2966 N   0  0  0  0  0  0  0  0  0  0  0  0
   21.9524  -17.7223  -17.4268 C   0  0  0  0  0  0  0  0  0  0  0  0
   22.8580  -18.7323  -17.3005 N   0  0  0  0  0  0  0  0  0  0  0  0
   25.4561  -20.8248  -14.1005 C   0  0  0  0  0  0  0  0  0  0  0  0
   26.3086  -21.6178  -14.5648 O   0  0  0  0  0  0  0  0  0  0  0  0
   25.1781  -20.9590  -12.6904 N   0  0  0  0  0  0  0  0  0  0  0  0
   24.2396  -20.1823  -11.9088 C   0  0  0  0  0  0  0  0  0  0  0  0
   25.0766  -19.8600  -10.6763 C   0  0  0  0  0  0  0  0  0  0  0  0
   25.9695  -21.0666  -10.5185 C   0  0  0  0  0  0  0  0  0  0  0  0
   25.7834  -21.8904  -11.7667 C   0  0  1  0  0  0  0  0  0  0  0  0
   24.8492  -22.9964  -11.4527 C   0  0  0  0  0  0  0  0  0  0  0  0
   23.6217  -22.9082  -11.7037 O   0  0  0  0  0  0  0  0  0  0  0  0
   25.2701  -24.1842  -10.8682 O   0  0  0  0  0  0  0  0  0  0  0  0
  2  1  1  6
  3  2  1  0
  4  5  1  0
  4  3  1  0
  5  6  1  0
  7  6  1  0
  8  9  2  0
  8  2  1  0
 10  8  1  0
 11 10  1  0
 11 12  1  6
 12 13  1  0
 13 17  1  0
 13 14  2  0
 14 15  1  0
 16 15  1  0
 17 16  2  0
 18 11  1  0
 19 18  2  0
 20 24  1  0
 20 18  1  0
 21 22  1  0
 21 20  1  0
 22 23  1  0
 23 24  1  0
 25 27  1  0
 24 25  1  1
 26 25  2  0
M  END
$$$$
