KHP.pdb
     RDKit          3D

 27 28  0  0  1  0  0  0  0  0999 V2000
   26.3058  -21.1122  -13.6506 N   0  0  0  0  0  0  0  0  0  0  0  0
   27.2115  -20.1854  -13.0952 C   0  0  1  0  0  0  0  0  0  0  0  0
   27.4857  -19.0018  -13.9106 C   0  0  0  0  0  0  0  0  0  0  0  0
   27.7792  -19.0378  -15.3216 C   0  0  0  0  0  0  0  0  0  0  0  0
   28.5758  -20.0163  -16.0579 C   0  0  0  0  0  0  0  0  0  0  0  0
   28.7360  -19.8919  -17.5205 C   0  0  0  0  0  0  0  0  0  0  0  0
   29.5614  -20.9687  -18.0482 N   0  0  0  0  0  0  0  0  0  0  0  0
   26.7332  -19.7552  -11.7127 C   0  0  0  0  0  0  0  0  0  0  0  0
   26.3564  -18.5782  -11.5001 O   0  0  0  0  0  0  0  0  0  0  0  0
   26.7142  -20.6842  -10.6711 N   0  0  0  0  0  0  0  0  0  0  0  0
   26.2677  -20.3698   -9.3157 C   0  0  1  0  0  0  0  0  0  0  0  0
   25.1222  -21.3628   -9.0579 C   0  0  0  0  0  0  0  0  0  0  0  0
   23.9345  -20.8332   -9.7470 C   0  0  0  0  0  0  0  0  0  0  0  0
   23.3462  -21.2584  -10.9161 C   0  0  0  0  0  0  0  0  0  0  0  0
   22.2790  -20.4964  -11.1913 N   0  0  0  0  0  0  0  0  0  0  0  0
   22.1785  -19.5898  -10.2125 C   0  0  0  0  0  0  0  0  0  0  0  0
   23.1935  -19.7970   -9.3276 N   0  0  0  0  0  0  0  0  0  0  0  0
   27.3980  -20.6502   -8.4023 C   0  0  0  0  0  0  0  0  0  0  0  0
   28.1927  -21.5952   -8.6183 O   0  0  0  0  0  0  0  0  0  0  0  0
   27.6615  -19.8683   -7.2180 N   0  0  0  0  0  0  0  0  0  0  0  0
   26.9161  -18.7204   -6.7472 C   0  0  0  0  0  0  0  0  0  0  0  0
   28.0449  -17.7567   -6.4001 C   0  0  0  0  0  0  0  0  0  0  0  0
   29.1632  -18.6590   -5.9381 C   0  0  0  0  0  0  0  0  0  0  0  0
   28.7268  -20.0647   -6.2621 C   0  0  1  0  0  0  0  0  0  0  0  0
   28.2068  -20.6825   -5.0201 C   0  0  0  0  0  0  0  0  0  0  0  0
   26.9765  -20.8633   -4.8438 O   0  0  0  0  0  0  0  0  0  0  0  0
   29.0397  -21.0944   -3.9874 O   0  0  0  0  0  0  0  0  0  0  0  0
  2  1  1  6
  3  2  1  0
  4  5  1  0
  4  3  1  0
  5  6  1  0
  7  6  1  0
  8  9  2  0
  8  2  1  0
 10  8  1  0
 11 10  1  0
 11 12  1  1
 12 13  1  0
 13 17  1  0
 13 14  2  0
 14 15  1  0
 16 15  1  0
 17 16  2  0
 18 11  1  0
 19 18  2  0
 20 24  1  0
 20 18  1  0
 21 22  1  0
 21 20  1  0
 22 23  1  0
 23 24  1  0
 25 27  1  0
 24 25  1  1
 26 25  2  0
M  END
$$$$
