KHP.pdb
     RDKit          3D

 27 28  0  0  1  0  0  0  0  0999 V2000
   23.9086  -23.0027  -19.6015 N   0  0  0  0  0  0  0  0  0  0  0  0
   23.5327  -23.3241  -18.2812 C   0  0  1  0  0  0  0  0  0  0  0  0
   23.9552  -24.6418  -17.8058 C   0  0  0  0  0  0  0  0  0  0  0  0
   25.2623  -25.2062  -18.0322 C   0  0  0  0  0  0  0  0  0  0  0  0
   26.4249  -25.1860  -17.1478 C   0  0  0  0  0  0  0  0  0  0  0  0
   27.6992  -25.7904  -17.5847 C   0  0  0  0  0  0  0  0  0  0  0  0
   28.7099  -25.6875  -16.5420 N   0  0  0  0  0  0  0  0  0  0  0  0
   24.0322  -22.2493  -17.3219 C   0  0  0  0  0  0  0  0  0  0  0  0
   24.9769  -21.4895  -17.6429 O   0  0  0  0  0  0  0  0  0  0  0  0
   23.4294  -22.1094  -16.0707 N   0  0  0  0  0  0  0  0  0  0  0  0
   23.7757  -21.0551  -15.1199 C   0  0  1  0  0  0  0  0  0  0  0  0
   22.4190  -20.4572  -14.7119 C   0  0  0  0  0  0  0  0  0  0  0  0
   22.0095  -19.5485  -15.7946 C   0  0  0  0  0  0  0  0  0  0  0  0
   21.0400  -19.7229  -16.7557 C   0  0  0  0  0  0  0  0  0  0  0  0
   20.9910  -18.6467  -17.5524 N   0  0  0  0  0  0  0  0  0  0  0  0
   21.9170  -17.7872  -17.1121 C   0  0  0  0  0  0  0  0  0  0  0  0
   22.5408  -18.3407  -16.0348 N   0  0  0  0  0  0  0  0  0  0  0  0
   24.4157  -21.7047  -13.9542 C   0  0  0  0  0  0  0  0  0  0  0  0
   24.1318  -22.8803  -13.6248 O   0  0  0  0  0  0  0  0  0  0  0  0
   25.3960  -21.0418  -13.1278 N   0  0  0  0  0  0  0  0  0  0  0  0
   25.9159  -19.7015  -13.2963 C   0  0  0  0  0  0  0  0  0  0  0  0
   27.4101  -19.9382  -13.1100 C   0  0  0  0  0  0  0  0  0  0  0  0
   27.4767  -21.0714  -12.1153 C   0  0  0  0  0  0  0  0  0  0  0  0
   26.0660  -21.5807  -11.9669 C   0  0  1  0  0  0  0  0  0  0  0  0
   25.4990  -21.0081  -10.7238 C   0  0  0  0  0  0  0  0  0  0  0  0
   25.8421  -21.4307   -9.5919 O   0  0  0  0  0  0  0  0  0  0  0  0
   24.5640  -19.9807  -10.7354 O   0  0  0  0  0  0  0  0  0  0  0  0
  2  1  1  6
  3  2  1  0
  4  5  1  0
  4  3  1  0
  5  6  1  0
  7  6  1  0
  8  9  2  0
  8  2  1  0
 10  8  1  0
 11 10  1  0
 11 12  1  1
 12 13  1  0
 13 17  1  0
 13 14  2  0
 14 15  1  0
 16 15  1  0
 17 16  2  0
 18 11  1  0
 19 18  2  0
 20 24  1  0
 20 18  1  0
 21 22  1  0
 21 20  1  0
 22 23  1  0
 23 24  1  0
 25 27  1  0
 24 25  1  1
 26 25  2  0
M  END
$$$$
