KHP.pdb
     RDKit          3D

 27 28  0  0  1  0  0  0  0  0999 V2000
   29.4934  -21.6660  -22.3143 N   0  0  0  0  0  0  0  0  0  0  0  0
   30.8483  -22.0561  -22.3149 C   0  0  1  0  0  0  0  0  0  0  0  0
   31.8168  -20.9803  -22.1017 C   0  0  0  0  0  0  0  0  0  0  0  0
   32.5618  -20.3377  -23.1554 C   0  0  0  0  0  0  0  0  0  0  0  0
   33.6365  -20.8921  -23.9751 C   0  0  0  0  0  0  0  0  0  0  0  0
   34.3892  -20.0204  -24.8991 C   0  0  0  0  0  0  0  0  0  0  0  0
   35.3654  -20.7866  -25.6601 N   0  0  0  0  0  0  0  0  0  0  0  0
   31.0726  -23.1585  -21.2855 C   0  0  0  0  0  0  0  0  0  0  0  0
   32.2096  -23.6601  -21.1179 O   0  0  0  0  0  0  0  0  0  0  0  0
   29.9981  -23.6141  -20.5198 N   0  0  0  0  0  0  0  0  0  0  0  0
   30.1093  -24.6762  -19.5222 C   0  0  1  0  0  0  0  0  0  0  0  0
   28.8535  -24.5061  -18.6512 C   0  0  0  0  0  0  0  0  0  0  0  0
   28.9024  -25.5561  -17.6212 C   0  0  0  0  0  0  0  0  0  0  0  0
   28.1390  -26.6951  -17.5042 C   0  0  0  0  0  0  0  0  0  0  0  0
   28.5103  -27.3812  -16.4148 N   0  0  0  0  0  0  0  0  0  0  0  0
   29.5012  -26.6946  -15.8347 C   0  0  0  0  0  0  0  0  0  0  0  0
   29.7410  -25.5761  -16.5747 N   0  0  0  0  0  0  0  0  0  0  0  0
   30.0558  -25.9671  -20.2440 C   0  0  0  0  0  0  0  0  0  0  0  0
   29.3873  -26.0994  -21.2960 O   0  0  0  0  0  0  0  0  0  0  0  0
   30.7580  -27.1458  -19.7955 N   0  0  0  0  0  0  0  0  0  0  0  0
   31.5437  -27.2862  -18.5881 C   0  0  0  0  0  0  0  0  0  0  0  0
   32.7851  -27.9904  -19.1231 C   0  0  0  0  0  0  0  0  0  0  0  0
   32.2592  -28.8476  -20.2486 C   0  0  0  0  0  0  0  0  0  0  0  0
   30.8282  -28.4257  -20.4617 C   0  0  1  0  0  0  0  0  0  0  0  0
   29.9526  -29.4134  -19.7890 C   0  0  0  0  0  0  0  0  0  0  0  0
   29.4284  -29.1715  -18.6736 O   0  0  0  0  0  0  0  0  0  0  0  0
   29.6621  -30.6527  -20.3453 O   0  0  0  0  0  0  0  0  0  0  0  0
  2  1  1  1
  3  2  1  0
  4  5  1  0
  4  3  1  0
  5  6  1  0
  7  6  1  0
  8  9  2  0
  8  2  1  0
 10  8  1  0
 11 10  1  0
 11 12  1  1
 12 13  1  0
 13 17  1  0
 13 14  2  0
 14 15  1  0
 16 15  1  0
 17 16  2  0
 18 11  1  0
 19 18  2  0
 20 24  1  0
 20 18  1  0
 21 22  1  0
 21 20  1  0
 22 23  1  0
 23 24  1  0
 25 27  1  0
 24 25  1  1
 26 25  2  0
M  END
$$$$
