KHP.pdb
     RDKit          3D

 27 28  0  0  1  0  0  0  0  0999 V2000
   15.4208  -19.8156    1.3351 N   0  0  0  0  0  0  0  0  0  0  0  0
   15.1446  -19.3472    2.6359 C   0  0  1  0  0  0  0  0  0  0  0  0
   14.4385  -20.2846    3.5096 C   0  0  0  0  0  0  0  0  0  0  0  0
   13.9898  -21.5931    3.1033 C   0  0  0  0  0  0  0  0  0  0  0  0
   12.7357  -21.9599    2.4501 C   0  0  0  0  0  0  0  0  0  0  0  0
   12.4700  -23.3678    2.0930 C   0  0  0  0  0  0  0  0  0  0  0  0
   11.9855  -24.1154    3.2443 N   0  0  0  0  0  0  0  0  0  0  0  0
   16.4345  -18.8918    3.3096 C   0  0  0  0  0  0  0  0  0  0  0  0
   17.5307  -19.4343    3.0328 O   0  0  0  0  0  0  0  0  0  0  0  0
   16.3940  -17.8574    4.2458 N   0  0  0  0  0  0  0  0  0  0  0  0
   17.5585  -17.4097    5.0068 C   0  0  1  0  0  0  0  0  0  0  0  0
   17.0801  -16.1254    5.7042 C   0  0  0  0  0  0  0  0  0  0  0  0
   17.7860  -15.0035    5.0646 C   0  0  0  0  0  0  0  0  0  0  0  0
   18.7361  -15.0285    4.0694 C   0  0  0  0  0  0  0  0  0  0  0  0
   19.1210  -13.7789    3.7770 N   0  0  0  0  0  0  0  0  0  0  0  0
   18.4285  -12.9561    4.5729 C   0  0  0  0  0  0  0  0  0  0  0  0
   17.6105  -13.7076    5.3618 N   0  0  0  0  0  0  0  0  0  0  0  0
   17.8562  -18.4533    6.0130 C   0  0  0  0  0  0  0  0  0  0  0  0
   16.9629  -19.2221    6.4398 O   0  0  0  0  0  0  0  0  0  0  0  0
   19.1743  -18.6569    6.5649 N   0  0  0  0  0  0  0  0  0  0  0  0
   20.3781  -17.9211    6.2420 C   0  0  0  0  0  0  0  0  0  0  0  0
   21.3822  -19.0556    6.0743 C   0  0  0  0  0  0  0  0  0  0  0  0
   20.9133  -20.1030    7.0547 C   0  0  0  0  0  0  0  0  0  0  0  0
   19.5661  -19.6409    7.5475 C   0  0  1  0  0  0  0  0  0  0  0  0
   19.7539  -19.0084    8.8739 C   0  0  0  0  0  0  0  0  0  0  0  0
   19.8813  -19.6977    9.9161 O   0  0  0  0  0  0  0  0  0  0  0  0
   19.7999  -17.6303    9.0427 O   0  0  0  0  0  0  0  0  0  0  0  0
  2  1  1  6
  3  2  1  0
  4  5  1  0
  4  3  1  0
  5  6  1  0
  7  6  1  0
  8  9  2  0
  8  2  1  0
 10  8  1  0
 11 10  1  0
 11 12  1  1
 12 13  1  0
 13 17  1  0
 13 14  2  0
 14 15  1  0
 16 15  1  0
 17 16  2  0
 18 11  1  0
 19 18  2  0
 20 24  1  0
 20 18  1  0
 21 22  1  0
 21 20  1  0
 22 23  1  0
 23 24  1  0
 25 27  1  0
 24 25  1  1
 26 25  2  0
M  END
$$$$
