KHP.pdb
     RDKit          3D

 27 28  0  0  1  0  0  0  0  0999 V2000
   11.3481  -12.6831  -11.2444 N   0  0  0  0  0  0  0  0  0  0  0  0
   11.4337  -11.3059  -11.5338 C   0  0  1  0  0  0  0  0  0  0  0  0
   10.3177  -10.4884  -11.0572 C   0  0  0  0  0  0  0  0  0  0  0  0
    8.9665  -10.5925  -11.5490 C   0  0  0  0  0  0  0  0  0  0  0  0
    8.4652  -10.3087  -12.8915 C   0  0  0  0  0  0  0  0  0  0  0  0
    7.0141  -10.3389  -13.1626 C   0  0  0  0  0  0  0  0  0  0  0  0
    6.3462  -11.3193  -12.3189 N   0  0  0  0  0  0  0  0  0  0  0  0
   12.7460  -10.7427  -10.9991 C   0  0  0  0  0  0  0  0  0  0  0  0
   13.1742  -11.0734   -9.8678 O   0  0  0  0  0  0  0  0  0  0  0  0
   13.4797   -9.8480  -11.7797 N   0  0  0  0  0  0  0  0  0  0  0  0
   14.7316   -9.2330  -11.3436 C   0  0  1  0  0  0  0  0  0  0  0  0
   15.6703   -9.3957  -12.5507 C   0  0  0  0  0  0  0  0  0  0  0  0
   15.9937  -10.8279  -12.6506 C   0  0  0  0  0  0  0  0  0  0  0  0
   16.8371  -11.5850  -11.8699 C   0  0  0  0  0  0  0  0  0  0  0  0
   16.8440  -12.8522  -12.3051 N   0  0  0  0  0  0  0  0  0  0  0  0
   16.0157  -12.9138  -13.3539 C   0  0  0  0  0  0  0  0  0  0  0  0
   15.4949  -11.6726  -13.5650 N   0  0  0  0  0  0  0  0  0  0  0  0
   14.4583   -7.7987  -11.1024 C   0  0  0  0  0  0  0  0  0  0  0  0
   13.5855   -7.1815  -11.7570 O   0  0  0  0  0  0  0  0  0  0  0  0
   15.1652   -7.0215  -10.1125 N   0  0  0  0  0  0  0  0  0  0  0  0
   16.2212   -7.4799   -9.2352 C   0  0  0  0  0  0  0  0  0  0  0  0
   15.7750   -6.8907   -7.9022 C   0  0  0  0  0  0  0  0  0  0  0  0
   15.0892   -5.6022   -8.2863 C   0  0  0  0  0  0  0  0  0  0  0  0
   14.9605   -5.6288   -9.7877 C   0  0  1  0  0  0  0  0  0  0  0  0
   16.0445   -4.7949  -10.3569 C   0  0  0  0  0  0  0  0  0  0  0  0
   17.0702   -5.3116  -10.8653 O   0  0  0  0  0  0  0  0  0  0  0  0
   15.9922   -3.4067  -10.3625 O   0  0  0  0  0  0  0  0  0  0  0  0
  2  1  1  1
  3  2  1  0
  4  5  1  0
  4  3  1  0
  5  6  1  0
  7  6  1  0
  8  9  2  0
  8  2  1  0
 10  8  1  0
 11 10  1  0
 11 12  1  6
 12 13  1  0
 13 17  1  0
 13 14  2  0
 14 15  1  0
 16 15  1  0
 17 16  2  0
 18 11  1  0
 19 18  2  0
 20 24  1  0
 20 18  1  0
 21 22  1  0
 21 20  1  0
 22 23  1  0
 23 24  1  0
 25 27  1  0
 24 25  1  6
 26 25  2  0
M  END
$$$$
