MAW.pdb
     RDKit          3D

 28 29  0  0  1  0  0  0  0  0999 V2000
    9.0089  -11.5883   20.3830 C   0  0  0  0  0  0  0  0  0  0  0  0
    7.5929  -12.2550   19.4851 S   0  0  0  0  0  0  0  0  0  0  0  0
    7.8003  -13.9887   19.1758 C   0  0  0  0  0  0  0  0  0  0  0  0
    8.1879  -14.8438   20.3176 C   0  0  0  0  0  0  0  0  0  0  0  0
    8.3640  -16.2970   20.0707 C   0  0  2  0  0  0  0  0  0  0  0  0
    7.2216  -16.9456   19.5118 N   0  0  0  0  0  0  0  0  0  0  0  0
    8.6442  -16.9228   21.4070 C   0  0  0  0  0  0  0  0  0  0  0  0
    7.6748  -17.2394   22.1781 O   0  0  0  0  0  0  0  0  0  0  0  0
   11.4894  -18.8102   22.8414 C   0  0  0  0  0  0  0  0  0  0  0  0
   10.2389  -17.9919   22.9875 C   0  0  2  0  0  0  0  0  0  0  0  0
    9.9690  -17.1636   21.8183 N   0  0  0  0  0  0  0  0  0  0  0  0
   10.3173  -17.0539   24.1580 C   0  0  0  0  0  0  0  0  0  0  0  0
   10.9709  -15.9742   24.1117 O   0  0  0  0  0  0  0  0  0  0  0  0
    9.6548  -17.3376   25.3829 N   0  0  0  0  0  0  0  0  0  0  0  0
   10.0813  -16.7191   26.6275 C   0  0  1  0  0  0  0  0  0  0  0  0
    8.9360  -16.5316   27.5820 C   0  0  0  0  0  0  0  0  0  0  0  0
    7.8467  -15.8289   26.8695 C   0  0  0  0  0  0  0  0  0  0  0  0
    6.7766  -16.3990   26.2161 C   0  0  0  0  0  0  0  0  0  0  0  0
    6.0003  -15.4087   25.6860 N   0  0  0  0  0  0  0  0  0  0  0  0
    6.5500  -14.2101   25.9856 C   0  0  0  0  0  0  0  0  0  0  0  0
    6.1830  -12.9262   25.7020 C   0  0  0  0  0  0  0  0  0  0  0  0
    6.9511  -11.8735   26.1449 C   0  0  0  0  0  0  0  0  0  0  0  0
    8.0873  -12.1181   26.8726 C   0  0  0  0  0  0  0  0  0  0  0  0
    8.4636  -13.4079   27.1624 C   0  0  0  0  0  0  0  0  0  0  0  0
    7.7004  -14.4676   26.7228 C   0  0  0  0  0  0  0  0  0  0  0  0
   11.2176  -17.4810   27.2215 C   0  0  0  0  0  0  0  0  0  0  0  0
   11.5178  -18.6401   26.7974 O   0  0  0  0  0  0  0  0  0  0  0  0
   11.9876  -16.9671   28.2480 O   0  0  0  0  0  0  0  0  0  0  0  0
  2  1  1  0
  3  4  1  0
  3  2  1  0
  4  5  1  0
  5  7  1  0
  5  6  1  1
  7  8  2  0
 10  9  1  6
 11 10  1  0
 11  7  1  0
 12 10  1  0
 13 12  2  0
 14 12  1  0
 15 26  1  0
 15 14  1  0
 15 16  1  1
 17 16  1  0
 18 17  2  0
 19 20  1  0
 19 18  1  0
 20 25  2  0
 21 22  2  0
 21 20  1  0
 22 23  1  0
 23 24  2  0
 25 17  1  0
 25 24  1  0
 26 28  1  0
 27 26  2  0
M  END
$$$$
