MAW.pdb
     RDKit          3D

 28 29  0  0  1  0  0  0  0  0999 V2000
    1.4328  -19.6835   19.5110 C   0  0  0  0  0  0  0  0  0  0  0  0
    1.0453  -19.5476   21.2681 S   0  0  0  0  0  0  0  0  0  0  0  0
    2.5237  -19.3538   22.2278 C   0  0  0  0  0  0  0  0  0  0  0  0
    3.7280  -18.8533   21.5320 C   0  0  0  0  0  0  0  0  0  0  0  0
    5.0156  -18.8687   22.2707 C   0  0  2  0  0  0  0  0  0  0  0  0
    4.9104  -18.5225   23.6517 N   0  0  0  0  0  0  0  0  0  0  0  0
    5.8983  -17.8524   21.6045 C   0  0  0  0  0  0  0  0  0  0  0  0
    6.3308  -18.0628   20.4200 O   0  0  0  0  0  0  0  0  0  0  0  0
    6.8606  -14.3914   21.5529 C   0  0  0  0  0  0  0  0  0  0  0  0
    7.3103  -15.8105   21.7497 C   0  0  2  0  0  0  0  0  0  0  0  0
    6.2544  -16.6672   22.2761 N   0  0  0  0  0  0  0  0  0  0  0  0
    8.4523  -15.9062   22.7206 C   0  0  0  0  0  0  0  0  0  0  0  0
    9.5604  -15.3368   22.5136 O   0  0  0  0  0  0  0  0  0  0  0  0
    8.3404  -16.6473   23.9281 N   0  0  0  0  0  0  0  0  0  0  0  0
    9.4853  -16.8301   24.8052 C   0  0  1  0  0  0  0  0  0  0  0  0
    9.2175  -16.3160   26.1916 C   0  0  0  0  0  0  0  0  0  0  0  0
    9.1455  -14.8397   26.1348 C   0  0  0  0  0  0  0  0  0  0  0  0
   10.1571  -13.9700   25.7923 C   0  0  0  0  0  0  0  0  0  0  0  0
    9.6872  -12.6901   25.8663 N   0  0  0  0  0  0  0  0  0  0  0  0
    8.3910  -12.7182   26.2500 C   0  0  0  0  0  0  0  0  0  0  0  0
    7.4695  -11.7359   26.4726 C   0  0  0  0  0  0  0  0  0  0  0  0
    6.1918  -12.0626   26.8664 C   0  0  0  0  0  0  0  0  0  0  0  0
    5.8464  -13.3788   27.0349 C   0  0  0  0  0  0  0  0  0  0  0  0
    6.7684  -14.3738   26.8128 C   0  0  0  0  0  0  0  0  0  0  0  0
    8.0497  -14.0556   26.4183 C   0  0  0  0  0  0  0  0  0  0  0  0
    9.9301  -18.2535   24.7862 C   0  0  0  0  0  0  0  0  0  0  0  0
   10.8987  -18.6436   25.5095 O   0  0  0  0  0  0  0  0  0  0  0  0
    9.3159  -19.2027   23.9908 O   0  0  0  0  0  0  0  0  0  0  0  0
  2  1  1  0
  3  4  1  0
  3  2  1  0
  4  5  1  0
  5  7  1  0
  5  6  1  1
  7  8  2  0
 10  9  1  1
 11 10  1  0
 11  7  1  0
 12 10  1  0
 13 12  2  0
 14 12  1  0
 15 26  1  0
 15 14  1  0
 15 16  1  1
 17 16  1  0
 18 17  2  0
 19 20  1  0
 19 18  1  0
 20 25  2  0
 21 22  2  0
 21 20  1  0
 22 23  1  0
 23 24  2  0
 25 17  1  0
 25 24  1  0
 26 28  1  0
 27 26  2  0
M  END
$$$$
