MAW.pdb
     RDKit          3D

 28 29  0  0  1  0  0  0  0  0999 V2000
    8.4361  -11.9606   21.2649 C   0  0  0  0  0  0  0  0  0  0  0  0
    7.4447  -12.3043   19.7969 S   0  0  0  0  0  0  0  0  0  0  0  0
    7.6177  -13.9977   19.3002 C   0  0  0  0  0  0  0  0  0  0  0  0
    8.0810  -14.9635   20.3188 C   0  0  0  0  0  0  0  0  0  0  0  0
    8.3308  -16.3623   19.8890 C   0  0  2  0  0  0  0  0  0  0  0  0
    7.2125  -17.0016   19.2735 N   0  0  0  0  0  0  0  0  0  0  0  0
    8.6777  -17.1317   21.1316 C   0  0  0  0  0  0  0  0  0  0  0  0
    7.7482  -17.6466   21.8425 O   0  0  0  0  0  0  0  0  0  0  0  0
   11.7771  -18.5049   22.7502 C   0  0  0  0  0  0  0  0  0  0  0  0
   10.3555  -18.0218   22.7368 C   0  0  2  0  0  0  0  0  0  0  0  0
   10.0215  -17.2901   21.5206 N   0  0  0  0  0  0  0  0  0  0  0  0
   10.0701  -17.0899   23.8797 C   0  0  0  0  0  0  0  0  0  0  0  0
    9.4659  -15.9927   23.7178 O   0  0  0  0  0  0  0  0  0  0  0  0
   10.4687  -17.3998   25.2081 N   0  0  0  0  0  0  0  0  0  0  0  0
    9.8613  -16.7335   26.3486 C   0  0  1  0  0  0  0  0  0  0  0  0
    8.4045  -17.0750   26.4872 C   0  0  0  0  0  0  0  0  0  0  0  0
    7.6096  -15.9545   25.9389 C   0  0  0  0  0  0  0  0  0  0  0  0
    6.6030  -16.0289   25.0018 C   0  0  0  0  0  0  0  0  0  0  0  0
    6.1252  -14.7725   24.7619 N   0  0  0  0  0  0  0  0  0  0  0  0
    6.8050  -13.8890   25.5271 C   0  0  0  0  0  0  0  0  0  0  0  0
    6.7259  -12.5336   25.6689 C   0  0  0  0  0  0  0  0  0  0  0  0
    7.5642  -11.8795   26.5427 C   0  0  0  0  0  0  0  0  0  0  0  0
    8.4803  -12.5937   27.2714 C   0  0  0  0  0  0  0  0  0  0  0  0
    8.5662  -13.9587   27.1344 C   0  0  0  0  0  0  0  0  0  0  0  0
    7.7307  -14.6214   26.2618 C   0  0  0  0  0  0  0  0  0  0  0  0
   10.6457  -17.0084   27.5869 C   0  0  0  0  0  0  0  0  0  0  0  0
   10.3107  -16.4934   28.6987 O   0  0  0  0  0  0  0  0  0  0  0  0
   11.7596  -17.8270   27.5823 O   0  0  0  0  0  0  0  0  0  0  0  0
  2  1  1  0
  3  4  1  0
  3  2  1  0
  4  5  1  0
  5  7  1  0
  5  6  1  1
  7  8  2  0
 10  9  1  6
 11 10  1  0
 11  7  1  0
 12 10  1  0
 13 12  2  0
 14 12  1  0
 15 26  1  0
 15 14  1  0
 15 16  1  1
 17 16  1  0
 18 17  2  0
 19 20  1  0
 19 18  1  0
 20 25  2  0
 21 22  2  0
 21 20  1  0
 22 23  1  0
 23 24  2  0
 25 17  1  0
 25 24  1  0
 26 28  1  0
 27 26  2  0
M  END
$$$$
