MAW.pdb
     RDKit          3D

 28 29  0  0  1  0  0  0  0  0999 V2000
    8.2158  -22.6232   17.7356 C   0  0  0  0  0  0  0  0  0  0  0  0
    8.5536  -21.1080   18.6555 S   0  0  0  0  0  0  0  0  0  0  0  0
    8.1340  -19.6784   17.6940 C   0  0  0  0  0  0  0  0  0  0  0  0
    8.4559  -18.3536   18.2652 C   0  0  0  0  0  0  0  0  0  0  0  0
    8.4768  -18.2194   19.7435 C   0  0  2  0  0  0  0  0  0  0  0  0
    7.2728  -18.6284   20.3925 N   0  0  0  0  0  0  0  0  0  0  0  0
    8.6865  -16.7606   20.0335 C   0  0  0  0  0  0  0  0  0  0  0  0
    9.6178  -16.1197   19.4364 O   0  0  0  0  0  0  0  0  0  0  0  0
    6.8273  -13.8969   21.3801 C   0  0  0  0  0  0  0  0  0  0  0  0
    8.0992  -14.6882   21.2762 C   0  0  2  0  0  0  0  0  0  0  0  0
    7.8639  -16.0920   20.9602 N   0  0  0  0  0  0  0  0  0  0  0  0
    8.8757  -14.6712   22.5618 C   0  0  0  0  0  0  0  0  0  0  0  0
    9.4075  -13.6180   23.0122 O   0  0  0  0  0  0  0  0  0  0  0  0
    9.0506  -15.8478   23.3394 N   0  0  0  0  0  0  0  0  0  0  0  0
    9.8738  -15.8399   24.5377 C   0  0  1  0  0  0  0  0  0  0  0  0
    9.1174  -16.3275   25.7411 C   0  0  0  0  0  0  0  0  0  0  0  0
    7.8761  -15.5326   25.8640 C   0  0  0  0  0  0  0  0  0  0  0  0
    6.5996  -15.9261   25.5286 C   0  0  0  0  0  0  0  0  0  0  0  0
    5.7354  -14.9017   25.7899 N   0  0  0  0  0  0  0  0  0  0  0  0
    6.4310  -13.8547   26.2879 C   0  0  0  0  0  0  0  0  0  0  0  0
    6.0584  -12.6093   26.7044 C   0  0  0  0  0  0  0  0  0  0  0  0
    7.0029  -11.7263   27.1762 C   0  0  0  0  0  0  0  0  0  0  0  0
    8.3208  -12.1013   27.2268 C   0  0  0  0  0  0  0  0  0  0  0  0
    8.7042  -13.3536   26.8094 C   0  0  0  0  0  0  0  0  0  0  0  0
    7.7651  -14.2437   26.3357 C   0  0  0  0  0  0  0  0  0  0  0  0
   11.1404  -16.5907   24.3006 C   0  0  0  0  0  0  0  0  0  0  0  0
   11.3405  -17.2024   23.2054 O   0  0  0  0  0  0  0  0  0  0  0  0
   12.1434  -16.6544   25.2497 O   0  0  0  0  0  0  0  0  0  0  0  0
  2  1  1  0
  3  4  1  0
  3  2  1  0
  4  5  1  0
  5  7  1  0
  5  6  1  1
  7  8  2  0
 10  9  1  1
 11 10  1  0
 11  7  1  0
 12 10  1  0
 13 12  2  0
 14 12  1  0
 15 26  1  0
 15 14  1  0
 15 16  1  1
 17 16  1  0
 18 17  2  0
 19 20  1  0
 19 18  1  0
 20 25  2  0
 21 22  2  0
 21 20  1  0
 22 23  1  0
 23 24  2  0
 25 17  1  0
 25 24  1  0
 26 28  1  0
 27 26  2  0
M  END
$$$$
