MAW.pdb
     RDKit          3D

 28 29  0  0  1  0  0  0  0  0999 V2000
    7.7302  -12.1057   20.3312 C   0  0  0  0  0  0  0  0  0  0  0  0
    6.5028  -12.9603   21.3406 S   0  0  0  0  0  0  0  0  0  0  0  0
    6.6245  -14.7168   21.1307 C   0  0  0  0  0  0  0  0  0  0  0  0
    7.9697  -15.3230   21.2209 C   0  0  0  0  0  0  0  0  0  0  0  0
    8.1054  -16.7666   20.9023 C   0  0  2  0  0  0  0  0  0  0  0  0
    6.8842  -17.5036   20.9610 N   0  0  0  0  0  0  0  0  0  0  0  0
    9.0421  -17.3402   21.9268 C   0  0  0  0  0  0  0  0  0  0  0  0
    8.7671  -18.4557   22.4878 O   0  0  0  0  0  0  0  0  0  0  0  0
   12.6773  -16.7950   22.4413 C   0  0  0  0  0  0  0  0  0  0  0  0
   11.3545  -17.3827   22.8408 C   0  0  2  0  0  0  0  0  0  0  0  0
   10.2230  -16.6574   22.2753 N   0  0  0  0  0  0  0  0  0  0  0  0
   11.1618  -17.3669   24.3303 C   0  0  0  0  0  0  0  0  0  0  0  0
   11.9546  -17.9562   25.1171 O   0  0  0  0  0  0  0  0  0  0  0  0
   10.0703  -16.6829   24.9308 N   0  0  0  0  0  0  0  0  0  0  0  0
    9.9250  -16.6245   26.3761 C   0  0  1  0  0  0  0  0  0  0  0  0
    8.5046  -16.8587   26.8070 C   0  0  0  0  0  0  0  0  0  0  0  0
    7.6441  -15.8600   26.1360 C   0  0  0  0  0  0  0  0  0  0  0  0
    6.6194  -16.1064   25.2494 C   0  0  0  0  0  0  0  0  0  0  0  0
    6.0766  -14.9170   24.8555 N   0  0  0  0  0  0  0  0  0  0  0  0
    6.7323  -13.9079   25.4719 C   0  0  0  0  0  0  0  0  0  0  0  0
    6.5924  -12.5506   25.4302 C   0  0  0  0  0  0  0  0  0  0  0  0
    7.4199  -11.7466   26.1805 C   0  0  0  0  0  0  0  0  0  0  0  0
    8.3865  -12.3132   26.9710 C   0  0  0  0  0  0  0  0  0  0  0  0
    8.5339  -13.6789   27.0185 C   0  0  0  0  0  0  0  0  0  0  0  0
    7.7096  -14.4912   26.2706 C   0  0  0  0  0  0  0  0  0  0  0  0
   10.8939  -17.5497   27.0316 C   0  0  0  0  0  0  0  0  0  0  0  0
   11.4096  -18.5162   26.3886 O   0  0  0  0  0  0  0  0  0  0  0  0
   11.2716  -17.3995   28.3529 O   0  0  0  0  0  0  0  0  0  0  0  0
  2  1  1  0
  3  4  1  0
  3  2  1  0
  4  5  1  0
  5  7  1  0
  5  6  1  1
  7  8  2  0
 10  9  1  1
 11 10  1  0
 11  7  1  0
 12 10  1  0
 13 12  2  0
 14 12  1  0
 15 26  1  0
 15 14  1  0
 15 16  1  6
 17 16  1  0
 18 17  2  0
 19 20  1  0
 19 18  1  0
 20 25  2  0
 21 22  2  0
 21 20  1  0
 22 23  1  0
 23 24  2  0
 25 17  1  0
 25 24  1  0
 26 28  1  0
 27 26  2  0
M  END
$$$$
