MAW.pdb
     RDKit          3D

 28 29  0  0  1  0  0  0  0  0999 V2000
    9.9021  -19.1615   26.6478 C   0  0  0  0  0  0  0  0  0  0  0  0
    8.2150  -19.5580   27.1504 S   0  0  0  0  0  0  0  0  0  0  0  0
    7.1674  -19.7686   25.7354 C   0  0  0  0  0  0  0  0  0  0  0  0
    6.7202  -18.5490   25.0300 C   0  0  0  0  0  0  0  0  0  0  0  0
    5.9301  -18.7155   23.7843 C   0  0  2  0  0  0  0  0  0  0  0  0
    5.7821  -20.0683   23.3530 N   0  0  0  0  0  0  0  0  0  0  0  0
    6.6673  -17.9657   22.7117 C   0  0  0  0  0  0  0  0  0  0  0  0
    7.4947  -18.5823   21.9570 O   0  0  0  0  0  0  0  0  0  0  0  0
    6.3563  -14.6585   20.9992 C   0  0  0  0  0  0  0  0  0  0  0  0
    7.1178  -15.8733   21.4455 C   0  0  2  0  0  0  0  0  0  0  0  0
    6.4541  -16.5857   22.5309 N   0  0  0  0  0  0  0  0  0  0  0  0
    8.4880  -15.5211   21.9500 C   0  0  0  0  0  0  0  0  0  0  0  0
    9.3694  -15.0121   21.2023 O   0  0  0  0  0  0  0  0  0  0  0  0
    8.8616  -15.7449   23.3027 N   0  0  0  0  0  0  0  0  0  0  0  0
   10.2105  -15.4619   23.7653 C   0  0  1  0  0  0  0  0  0  0  0  0
   10.2566  -14.2500   24.6525 C   0  0  0  0  0  0  0  0  0  0  0  0
    9.0717  -14.2757   25.5375 C   0  0  0  0  0  0  0  0  0  0  0  0
    8.7314  -15.2553   26.4439 C   0  0  0  0  0  0  0  0  0  0  0  0
    7.5637  -14.9056   27.0592 N   0  0  0  0  0  0  0  0  0  0  0  0
    7.1445  -13.7183   26.5664 C   0  0  0  0  0  0  0  0  0  0  0  0
    6.0572  -12.9370   26.8326 C   0  0  0  0  0  0  0  0  0  0  0  0
    5.8791  -11.7481   26.1626 C   0  0  0  0  0  0  0  0  0  0  0  0
    6.7977  -11.3499   25.2257 C   0  0  0  0  0  0  0  0  0  0  0  0
    7.8953  -12.1308   24.9519 C   0  0  0  0  0  0  0  0  0  0  0  0
    8.0813  -13.3225   25.6182 C   0  0  0  0  0  0  0  0  0  0  0  0
   10.8047  -16.6734   24.4006 C   0  0  0  0  0  0  0  0  0  0  0  0
   10.0737  -17.6528   24.7473 O   0  0  0  0  0  0  0  0  0  0  0  0
   12.1619  -16.7855   24.6382 O   0  0  0  0  0  0  0  0  0  0  0  0
  2  1  1  0
  3  4  1  0
  3  2  1  0
  4  5  1  0
  5  7  1  0
  5  6  1  6
  7  8  2  0
 10  9  1  1
 11 10  1  0
 11  7  1  0
 12 10  1  0
 13 12  2  0
 14 12  1  0
 15 26  1  0
 15 14  1  0
 15 16  1  1
 17 16  1  0
 18 17  2  0
 19 20  1  0
 19 18  1  0
 20 25  2  0
 21 22  2  0
 21 20  1  0
 22 23  1  0
 23 24  2  0
 25 17  1  0
 25 24  1  0
 26 28  1  0
 27 26  2  0
M  END
$$$$
