MAW.pdb
     RDKit          3D

 28 29  0  0  1  0  0  0  0  0999 V2000
    5.7259  -12.2002   26.4535 C   0  0  0  0  0  0  0  0  0  0  0  0
    7.0762  -13.0681   25.6294 S   0  0  0  0  0  0  0  0  0  0  0  0
    7.5721  -14.4937   26.5601 C   0  0  0  0  0  0  0  0  0  0  0  0
    7.7149  -15.7702   25.8285 C   0  0  0  0  0  0  0  0  0  0  0  0
    6.8531  -15.9917   24.6402 C   0  0  2  0  0  0  0  0  0  0  0  0
    5.7153  -16.8201   24.8797 N   0  0  0  0  0  0  0  0  0  0  0  0
    7.7133  -16.6719   23.6139 C   0  0  0  0  0  0  0  0  0  0  0  0
    7.5940  -17.9292   23.4148 O   0  0  0  0  0  0  0  0  0  0  0  0
    9.9549  -15.6089   20.8023 C   0  0  0  0  0  0  0  0  0  0  0  0
    9.4345  -16.5813   21.8214 C   0  0  2  0  0  0  0  0  0  0  0  0
    8.6525  -15.9343   22.8682 N   0  0  0  0  0  0  0  0  0  0  0  0
   10.5473  -17.3109   22.5182 C   0  0  0  0  0  0  0  0  0  0  0  0
   10.4087  -18.4868   22.9575 O   0  0  0  0  0  0  0  0  0  0  0  0
   11.8192  -16.7092   22.7181 N   0  0  0  0  0  0  0  0  0  0  0  0
   12.0937  -15.9103   23.9013 C   0  0  1  0  0  0  0  0  0  0  0  0
   10.8333  -15.3842   24.5278 C   0  0  0  0  0  0  0  0  0  0  0  0
   10.7177  -15.9524   25.8886 C   0  0  0  0  0  0  0  0  0  0  0  0
   10.5342  -17.2753   26.2249 C   0  0  0  0  0  0  0  0  0  0  0  0
   10.4751  -17.3843   27.5847 N   0  0  0  0  0  0  0  0  0  0  0  0
   10.6172  -16.1560   28.1318 C   0  0  0  0  0  0  0  0  0  0  0  0
   10.6319  -15.7134   29.4230 C   0  0  0  0  0  0  0  0  0  0  0  0
   10.7972  -14.3740   29.6932 C   0  0  0  0  0  0  0  0  0  0  0  0
   10.9472  -13.4842   28.6606 C   0  0  0  0  0  0  0  0  0  0  0  0
   10.9336  -13.9220   27.3577 C   0  0  0  0  0  0  0  0  0  0  0  0
   10.7686  -15.2611   27.0784 C   0  0  0  0  0  0  0  0  0  0  0  0
   12.9450  -16.6761   24.8569 C   0  0  0  0  0  0  0  0  0  0  0  0
   13.7574  -16.0788   25.6295 O   0  0  0  0  0  0  0  0  0  0  0  0
   12.8897  -18.0545   24.9456 O   0  0  0  0  0  0  0  0  0  0  0  0
  2  1  1  0
  3  4  1  0
  3  2  1  0
  4  5  1  0
  5  7  1  0
  5  6  1  1
  7  8  2  0
 10  9  1  6
 11 10  1  0
 11  7  1  0
 12 10  1  0
 13 12  2  0
 14 12  1  0
 15 26  1  0
 15 14  1  0
 15 16  1  1
 17 16  1  0
 18 17  2  0
 19 20  1  0
 19 18  1  0
 20 25  2  0
 21 22  2  0
 21 20  1  0
 22 23  1  0
 23 24  2  0
 25 17  1  0
 25 24  1  0
 26 28  1  0
 27 26  2  0
M  END
$$$$
