MAW.pdb
     RDKit          3D

 28 29  0  0  1  0  0  0  0  0999 V2000
    8.0336  -22.8528   16.9723 C   0  0  0  0  0  0  0  0  0  0  0  0
    7.7797  -21.0740   17.1379 S   0  0  0  0  0  0  0  0  0  0  0  0
    9.0820  -20.3358   18.0883 C   0  0  0  0  0  0  0  0  0  0  0  0
    8.9126  -18.9256   18.4979 C   0  0  0  0  0  0  0  0  0  0  0  0
    8.9806  -18.6086   19.9466 C   0  0  2  0  0  0  0  0  0  0  0  0
    7.8642  -19.0705   20.7071 N   0  0  0  0  0  0  0  0  0  0  0  0
    9.0240  -17.1108   20.0508 C   0  0  0  0  0  0  0  0  0  0  0  0
    9.8388  -16.4449   19.3247 O   0  0  0  0  0  0  0  0  0  0  0  0
    6.9627  -14.2953   21.1338 C   0  0  0  0  0  0  0  0  0  0  0  0
    8.2932  -14.9913   21.1268 C   0  0  2  0  0  0  0  0  0  0  0  0
    8.1728  -16.4329   20.9443 N   0  0  0  0  0  0  0  0  0  0  0  0
    9.0362  -14.7917   22.4168 C   0  0  0  0  0  0  0  0  0  0  0  0
    9.5109  -13.6706   22.7527 O   0  0  0  0  0  0  0  0  0  0  0  0
    9.2423  -15.8621   23.3286 N   0  0  0  0  0  0  0  0  0  0  0  0
    9.9491  -15.6547   24.5819 C   0  0  1  0  0  0  0  0  0  0  0  0
    9.1200  -16.0614   25.7674 C   0  0  0  0  0  0  0  0  0  0  0  0
    7.8046  -15.3923   25.6668 C   0  0  0  0  0  0  0  0  0  0  0  0
    6.6192  -15.9478   25.2389 C   0  0  0  0  0  0  0  0  0  0  0  0
    5.6389  -14.9987   25.2912 N   0  0  0  0  0  0  0  0  0  0  0  0
    6.1702  -13.8411   25.7450 C   0  0  0  0  0  0  0  0  0  0  0  0
    5.6369  -12.6067   25.9800 C   0  0  0  0  0  0  0  0  0  0  0  0
    6.4325  -11.5881   26.4529 C   0  0  0  0  0  0  0  0  0  0  0  0
    7.7640  -11.8167   26.6876 C   0  0  0  0  0  0  0  0  0  0  0  0
    8.3087  -13.0568   26.4536 C   0  0  0  0  0  0  0  0  0  0  0  0
    7.5193  -14.0821   25.9802 C   0  0  0  0  0  0  0  0  0  0  0  0
   11.2804  -16.3260   24.5428 C   0  0  0  0  0  0  0  0  0  0  0  0
   11.6014  -17.0813   23.5733 O   0  0  0  0  0  0  0  0  0  0  0  0
   12.2153  -16.1588   25.5472 O   0  0  0  0  0  0  0  0  0  0  0  0
  2  1  1  0
  3  4  1  0
  3  2  1  0
  4  5  1  0
  5  7  1  0
  5  6  1  1
  7  8  2  0
 10  9  1  1
 11 10  1  0
 11  7  1  0
 12 10  1  0
 13 12  2  0
 14 12  1  0
 15 26  1  0
 15 14  1  0
 15 16  1  1
 17 16  1  0
 18 17  2  0
 19 20  1  0
 19 18  1  0
 20 25  2  0
 21 22  2  0
 21 20  1  0
 22 23  1  0
 23 24  2  0
 25 17  1  0
 25 24  1  0
 26 28  1  0
 27 26  2  0
M  END
$$$$
