MAW.pdb
     RDKit          3D

 28 29  0  0  1  0  0  0  0  0999 V2000
    7.6537  -11.5323   20.4731 C   0  0  0  0  0  0  0  0  0  0  0  0
    8.4753  -12.7468   19.4216 S   0  0  0  0  0  0  0  0  0  0  0  0
    7.3332  -13.9920   18.8835 C   0  0  0  0  0  0  0  0  0  0  0  0
    7.3769  -15.3003   19.5701 C   0  0  0  0  0  0  0  0  0  0  0  0
    7.2542  -15.3144   21.0495 C   0  0  2  0  0  0  0  0  0  0  0  0
    7.7574  -14.1458   21.6968 N   0  0  0  0  0  0  0  0  0  0  0  0
    8.0551  -16.4909   21.5297 C   0  0  0  0  0  0  0  0  0  0  0  0
    7.8658  -17.6445   21.0123 O   0  0  0  0  0  0  0  0  0  0  0  0
   10.7947  -17.9614   22.0488 C   0  0  0  0  0  0  0  0  0  0  0  0
    9.7688  -17.4817   23.0349 C   0  0  2  0  0  0  0  0  0  0  0  0
    9.0147  -16.3328   22.5479 N   0  0  0  0  0  0  0  0  0  0  0  0
   10.3954  -17.0543   24.3313 C   0  0  0  0  0  0  0  0  0  0  0  0
   11.5905  -16.6518   24.4000 O   0  0  0  0  0  0  0  0  0  0  0  0
    9.6685  -17.0818   25.5522 N   0  0  0  0  0  0  0  0  0  0  0  0
   10.3049  -16.7347   26.8124 C   0  0  1  0  0  0  0  0  0  0  0  0
    9.6954  -15.5074   27.4292 C   0  0  0  0  0  0  0  0  0  0  0  0
    8.3782  -15.2744   26.7978 C   0  0  0  0  0  0  0  0  0  0  0  0
    7.4279  -16.2201   26.4826 C   0  0  0  0  0  0  0  0  0  0  0  0
    6.3552  -15.5988   25.9100 N   0  0  0  0  0  0  0  0  0  0  0  0
    6.5961  -14.2697   25.8502 C   0  0  0  0  0  0  0  0  0  0  0  0
    5.8664  -13.2165   25.3794 C   0  0  0  0  0  0  0  0  0  0  0  0
    6.3729  -11.9385   25.4477 C   0  0  0  0  0  0  0  0  0  0  0  0
    7.6140  -11.7258   25.9905 C   0  0  0  0  0  0  0  0  0  0  0  0
    8.3550  -12.7809   26.4669 C   0  0  0  0  0  0  0  0  0  0  0  0
    7.8555  -14.0635   26.4024 C   0  0  0  0  0  0  0  0  0  0  0  0
   10.3087  -17.9094   27.7313 C   0  0  0  0  0  0  0  0  0  0  0  0
    9.6389  -18.9534   27.4576 O   0  0  0  0  0  0  0  0  0  0  0  0
   11.0331  -17.9166   28.9087 O   0  0  0  0  0  0  0  0  0  0  0  0
  2  1  1  0
  3  4  1  0
  3  2  1  0
  4  5  1  0
  5  7  1  0
  5  6  1  1
  7  8  2  0
 10  9  1  6
 11 10  1  0
 11  7  1  0
 12 10  1  0
 13 12  2  0
 14 12  1  0
 15 26  1  0
 15 14  1  0
 15 16  1  1
 17 16  1  0
 18 17  2  0
 19 20  1  0
 19 18  1  0
 20 25  2  0
 21 22  2  0
 21 20  1  0
 22 23  1  0
 23 24  2  0
 25 17  1  0
 25 24  1  0
 26 28  1  0
 27 26  2  0
M  END
$$$$
