MAW.pdb
     RDKit          3D

 28 29  0  0  1  0  0  0  0  0999 V2000
    7.1552  -18.2587   28.5153 C   0  0  0  0  0  0  0  0  0  0  0  0
    7.5662  -19.7033   27.5152 S   0  0  0  0  0  0  0  0  0  0  0  0
    6.4988  -19.8191   26.1040 C   0  0  0  0  0  0  0  0  0  0  0  0
    6.9824  -19.2390   24.8334 C   0  0  0  0  0  0  0  0  0  0  0  0
    6.0690  -19.2663   23.6634 C   0  0  2  0  0  0  0  0  0  0  0  0
    5.8306  -20.5682   23.1283 N   0  0  0  0  0  0  0  0  0  0  0  0
    6.7248  -18.4394   22.5947 C   0  0  0  0  0  0  0  0  0  0  0  0
    7.5528  -18.9832   21.7865 O   0  0  0  0  0  0  0  0  0  0  0  0
    6.1983  -15.1561   20.9388 C   0  0  0  0  0  0  0  0  0  0  0  0
    7.0777  -16.2640   21.4427 C   0  0  2  0  0  0  0  0  0  0  0  0
    6.4344  -17.0669   22.4759 N   0  0  0  0  0  0  0  0  0  0  0  0
    8.3479  -15.7390   22.0485 C   0  0  0  0  0  0  0  0  0  0  0  0
    9.1354  -14.9850   21.4109 O   0  0  0  0  0  0  0  0  0  0  0  0
    8.7278  -16.0673   23.3780 N   0  0  0  0  0  0  0  0  0  0  0  0
    9.9832  -15.5943   23.9382 C   0  0  1  0  0  0  0  0  0  0  0  0
    9.7740  -14.4716   24.9148 C   0  0  0  0  0  0  0  0  0  0  0  0
    8.3986  -14.5704   25.4499 C   0  0  0  0  0  0  0  0  0  0  0  0
    7.6803  -15.7206   25.6908 C   0  0  0  0  0  0  0  0  0  0  0  0
    6.4510  -15.3829   26.1800 N   0  0  0  0  0  0  0  0  0  0  0  0
    6.3632  -14.0359   26.2592 C   0  0  0  0  0  0  0  0  0  0  0  0
    5.3704  -13.1954   26.6728 C   0  0  0  0  0  0  0  0  0  0  0  0
    5.5611  -11.8326   26.6437 C   0  0  0  0  0  0  0  0  0  0  0  0
    6.7524  -11.3209   26.1974 C   0  0  0  0  0  0  0  0  0  0  0  0
    7.7570  -12.1605   25.7793 C   0  0  0  0  0  0  0  0  0  0  0  0
    7.5745  -13.5260   25.8052 C   0  0  0  0  0  0  0  0  0  0  0  0
   10.7546  -16.7333   24.5146 C   0  0  0  0  0  0  0  0  0  0  0  0
   11.9574  -16.5806   24.8934 O   0  0  0  0  0  0  0  0  0  0  0  0
   10.2029  -17.9921   24.6620 O   0  0  0  0  0  0  0  0  0  0  0  0
  2  1  1  0
  3  4  1  0
  3  2  1  0
  4  5  1  0
  5  7  1  0
  5  6  1  6
  7  8  2  0
 10  9  1  1
 11 10  1  0
 11  7  1  0
 12 10  1  0
 13 12  2  0
 14 12  1  0
 15 26  1  0
 15 14  1  0
 15 16  1  1
 17 16  1  0
 18 17  2  0
 19 20  1  0
 19 18  1  0
 20 25  2  0
 21 22  2  0
 21 20  1  0
 22 23  1  0
 23 24  2  0
 25 17  1  0
 25 24  1  0
 26 28  1  0
 27 26  2  0
M  END
$$$$
