MAW.pdb
     RDKit          3D

 28 29  0  0  1  0  0  0  0  0999 V2000
    8.5712  -11.8558   20.2847 C   0  0  0  0  0  0  0  0  0  0  0  0
    7.4189  -12.7915   21.3107 S   0  0  0  0  0  0  0  0  0  0  0  0
    7.5946  -14.5335   21.0302 C   0  0  0  0  0  0  0  0  0  0  0  0
    6.7422  -15.4420   21.8261 C   0  0  0  0  0  0  0  0  0  0  0  0
    6.8310  -16.8982   21.5517 C   0  0  2  0  0  0  0  0  0  0  0  0
    5.7272  -17.6612   22.0392 N   0  0  0  0  0  0  0  0  0  0  0  0
    8.0720  -17.3849   22.2439 C   0  0  0  0  0  0  0  0  0  0  0  0
    7.9747  -18.0754   23.3155 O   0  0  0  0  0  0  0  0  0  0  0  0
   11.7103  -17.6907   21.3952 C   0  0  0  0  0  0  0  0  0  0  0  0
   10.5441  -17.6370   22.3396 C   0  0  2  0  0  0  0  0  0  0  0  0
    9.3445  -17.0854   21.7210 N   0  0  0  0  0  0  0  0  0  0  0  0
   10.8326  -16.7775   23.5371 C   0  0  0  0  0  0  0  0  0  0  0  0
   11.6799  -15.8415   23.5045 O   0  0  0  0  0  0  0  0  0  0  0  0
   10.1611  -16.9769   24.7736 N   0  0  0  0  0  0  0  0  0  0  0  0
   10.7151  -16.4705   26.0187 C   0  0  1  0  0  0  0  0  0  0  0  0
   10.2916  -15.0537   26.2858 C   0  0  0  0  0  0  0  0  0  0  0  0
    8.8158  -14.9871   26.2108 C   0  0  0  0  0  0  0  0  0  0  0  0
    7.9409  -16.0429   26.0809 C   0  0  0  0  0  0  0  0  0  0  0  0
    6.6640  -15.5604   26.0455 N   0  0  0  0  0  0  0  0  0  0  0  0
    6.6992  -14.2128   26.1502 C   0  0  0  0  0  0  0  0  0  0  0  0
    5.7223  -13.2595   26.1672 C   0  0  0  0  0  0  0  0  0  0  0  0
    6.0558  -11.9295   26.2870 C   0  0  0  0  0  0  0  0  0  0  0  0
    7.3735  -11.5642   26.3893 C   0  0  0  0  0  0  0  0  0  0  0  0
    8.3630  -12.5181   26.3730 C   0  0  0  0  0  0  0  0  0  0  0  0
    8.0379  -13.8517   26.2534 C   0  0  0  0  0  0  0  0  0  0  0  0
   10.3951  -17.3973   27.1425 C   0  0  0  0  0  0  0  0  0  0  0  0
    9.5968  -18.3715   26.9771 O   0  0  0  0  0  0  0  0  0  0  0  0
   10.9460  -17.2413   28.4007 O   0  0  0  0  0  0  0  0  0  0  0  0
  2  1  1  0
  3  4  1  0
  3  2  1  0
  4  5  1  0
  5  7  1  0
  5  6  1  1
  7  8  2  0
 10  9  1  6
 11 10  1  0
 11  7  1  0
 12 10  1  0
 13 12  2  0
 14 12  1  0
 15 26  1  0
 15 14  1  0
 15 16  1  1
 17 16  1  0
 18 17  2  0
 19 20  1  0
 19 18  1  0
 20 25  2  0
 21 22  2  0
 21 20  1  0
 22 23  1  0
 23 24  2  0
 25 17  1  0
 25 24  1  0
 26 28  1  0
 27 26  2  0
M  END
$$$$
