MAW.pdb
     RDKit          3D

 28 29  0  0  1  0  0  0  0  0999 V2000
    9.1875  -11.5255   19.0466 C   0  0  0  0  0  0  0  0  0  0  0  0
    8.1539  -12.4120   17.8627 S   0  0  0  0  0  0  0  0  0  0  0  0
    8.2807  -14.1645   18.1014 C   0  0  0  0  0  0  0  0  0  0  0  0
    9.1560  -14.6428   19.1924 C   0  0  0  0  0  0  0  0  0  0  0  0
    9.2140  -16.1039   19.4484 C   0  0  2  0  0  0  0  0  0  0  0  0
    9.1994  -16.9125   18.2720 N   0  0  0  0  0  0  0  0  0  0  0  0
    7.9940  -16.4410   20.2571 C   0  0  0  0  0  0  0  0  0  0  0  0
    6.8458  -16.4715   19.6957 O   0  0  0  0  0  0  0  0  0  0  0  0
    6.0038  -17.9680   21.9570 C   0  0  0  0  0  0  0  0  0  0  0  0
    6.9093  -16.8773   22.4520 C   0  0  2  0  0  0  0  0  0  0  0  0
    8.1052  -16.7238   21.6319 N   0  0  0  0  0  0  0  0  0  0  0  0
    7.3898  -17.1400   23.8506 C   0  0  0  0  0  0  0  0  0  0  0  0
    6.5985  -17.2009   24.8330 O   0  0  0  0  0  0  0  0  0  0  0  0
    8.7678  -17.3347   24.1383 N   0  0  0  0  0  0  0  0  0  0  0  0
    9.5974  -16.2392   24.6128 C   0  0  1  0  0  0  0  0  0  0  0  0
    9.3600  -15.9450   26.0671 C   0  0  0  0  0  0  0  0  0  0  0  0
    7.9922  -15.4016   26.2148 C   0  0  0  0  0  0  0  0  0  0  0  0
    6.8116  -16.1109   26.2234 C   0  0  0  0  0  0  0  0  0  0  0  0
    5.7710  -15.2404   26.3781 N   0  0  0  0  0  0  0  0  0  0  0  0
    6.2587  -13.9826   26.4696 C   0  0  0  0  0  0  0  0  0  0  0  0
    5.6596  -12.7664   26.6286 C   0  0  0  0  0  0  0  0  0  0  0  0
    6.4224  -11.6224   26.6902 C   0  0  0  0  0  0  0  0  0  0  0  0
    7.7873  -11.7077   26.5911 C   0  0  0  0  0  0  0  0  0  0  0  0
    8.3982  -12.9285   26.4308 C   0  0  0  0  0  0  0  0  0  0  0  0
    7.6421  -14.0787   26.3683 C   0  0  0  0  0  0  0  0  0  0  0  0
   11.0312  -16.5009   24.2966 C   0  0  0  0  0  0  0  0  0  0  0  0
   11.3943  -17.6033   23.7804 O   0  0  0  0  0  0  0  0  0  0  0  0
   12.0193  -15.5672   24.5470 O   0  0  0  0  0  0  0  0  0  0  0  0
  2  1  1  0
  3  4  1  0
  3  2  1  0
  4  5  1  0
  5  7  1  0
  5  6  1  6
  7  8  2  0
 10  9  1  6
 11 10  1  0
 11  7  1  0
 12 10  1  0
 13 12  2  0
 14 12  1  0
 15 26  1  0
 15 14  1  0
 15 16  1  1
 17 16  1  0
 18 17  2  0
 19 20  1  0
 19 18  1  0
 20 25  2  0
 21 22  2  0
 21 20  1  0
 22 23  1  0
 23 24  2  0
 25 17  1  0
 25 24  1  0
 26 28  1  0
 27 26  2  0
M  END
$$$$
