EVQ.pdb
     RDKit          3D

 26 25  0  0  1  0  0  0  0  0999 V2000
    9.5199  -16.6544   15.7686 N   0  0  0  0  0  0  0  0  0  0  0  0
    8.4773  -16.8274   16.7593 C   0  0  1  0  0  0  0  0  0  0  0  0
    8.2121  -18.3055   16.8777 C   0  0  0  0  0  0  0  0  0  0  0  0
    7.1794  -18.6139   17.9398 C   0  0  0  0  0  0  0  0  0  0  0  0
    6.9867  -20.0653   18.1034 C   0  0  0  0  0  0  0  0  0  0  0  0
    6.1322  -20.6632   17.4221 O   0  0  0  0  0  0  0  0  0  0  0  0
    8.9355  -16.2278   18.0266 C   0  0  0  0  0  0  0  0  0  0  0  0
   10.1008  -16.4420   18.4337 O   0  0  0  0  0  0  0  0  0  0  0  0
    7.7506  -20.7640   19.0097 O   0  0  0  0  0  0  0  0  0  0  0  0
    7.9311  -12.9560   21.6530 C   0  0  0  0  0  0  0  0  0  0  0  0
    7.5709  -13.6343   20.3502 C   0  0  1  0  0  0  0  0  0  0  0  0
    7.7769  -12.6478   19.2320 C   0  0  0  0  0  0  0  0  0  0  0  0
    8.5197  -14.8072   20.0773 C   0  0  2  0  0  0  0  0  0  0  0  0
    8.1152  -15.3964   18.8418 N   0  0  0  0  0  0  0  0  0  0  0  0
    8.3907  -15.7240   21.2326 C   0  0  0  0  0  0  0  0  0  0  0  0
    7.4561  -16.5797   21.1706 O   0  0  0  0  0  0  0  0  0  0  0  0
   12.1231  -18.9230   19.6638 N   0  0  0  0  0  0  0  0  0  0  0  0
   12.2468  -19.3675   21.0048 C   0  0  0  0  0  0  0  0  0  0  0  0
   12.9925  -20.3541   21.2114 O   0  0  0  0  0  0  0  0  0  0  0  0
   11.5332  -18.7001   22.0901 C   0  0  0  0  0  0  0  0  0  0  0  0
   10.7096  -17.5235   21.7142 C   0  0  0  0  0  0  0  0  0  0  0  0
    9.8737  -16.9353   22.8130 C   0  0  2  0  0  0  0  0  0  0  0  0
    9.2082  -15.7171   22.3677 N   0  0  0  0  0  0  0  0  0  0  0  0
   10.6560  -16.6874   24.0488 C   0  0  0  0  0  0  0  0  0  0  0  0
   11.3595  -15.4973   24.1509 O   0  0  0  0  0  0  0  0  0  0  0  0
   10.7196  -17.4912   25.0092 O   0  0  0  0  0  0  0  0  0  0  0  0
  2  1  1  6
  3  2  1  0
  4  3  1  0
  5  4  1  0
  6  5  2  0
  7  8  2  0
  7  2  1  0
  9  5  1  0
 11 10  1  1
 11 12  1  0
 13 11  1  0
 13 14  1  6
 14  7  1  0
 15 13  1  0
 16 15  2  0
 18 20  1  0
 18 17  1  0
 19 18  2  0
 21 20  1  0
 22 21  1  6
 22 23  1  0
 23 15  1  0
 24 22  1  0
 24 25  1  0
 26 24  2  0
M  END
$$$$
