EVQ.pdb
     RDKit          3D

 26 25  0  0  1  0  0  0  0  0999 V2000
    7.6526  -17.6302   16.8866 N   0  0  0  0  0  0  0  0  0  0  0  0
    9.0518  -17.7782   17.2313 C   0  0  1  0  0  0  0  0  0  0  0  0
    9.8412  -17.6847   15.9517 C   0  0  0  0  0  0  0  0  0  0  0  0
    9.5055  -16.4349   15.1675 C   0  0  0  0  0  0  0  0  0  0  0  0
   10.3109  -16.3338   13.9379 C   0  0  0  0  0  0  0  0  0  0  0  0
   11.4788  -15.9034   13.9894 O   0  0  0  0  0  0  0  0  0  0  0  0
    9.4071  -16.7225   18.1981 C   0  0  0  0  0  0  0  0  0  0  0  0
   10.6103  -16.5037   18.4701 O   0  0  0  0  0  0  0  0  0  0  0  0
    9.7745  -16.7146   12.7296 O   0  0  0  0  0  0  0  0  0  0  0  0
    7.8033  -12.9551   21.0382 C   0  0  0  0  0  0  0  0  0  0  0  0
    7.5341  -14.0334   20.0127 C   0  0  1  0  0  0  0  0  0  0  0  0
    7.3827  -13.3769   18.6666 C   0  0  0  0  0  0  0  0  0  0  0  0
    8.7352  -14.9801   19.9035 C   0  0  2  0  0  0  0  0  0  0  0  0
    8.4428  -15.9115   18.8623 N   0  0  0  0  0  0  0  0  0  0  0  0
    8.8857  -15.6158   21.2321 C   0  0  0  0  0  0  0  0  0  0  0  0
    8.1031  -16.5817   21.4858 O   0  0  0  0  0  0  0  0  0  0  0  0
   11.9205  -19.7337   21.0413 N   0  0  0  0  0  0  0  0  0  0  0  0
   12.0620  -19.6286   22.4484 C   0  0  0  0  0  0  0  0  0  0  0  0
   12.6223  -20.5832   23.0375 O   0  0  0  0  0  0  0  0  0  0  0  0
   11.5733  -18.4574   23.1709 C   0  0  0  0  0  0  0  0  0  0  0  0
   10.9584  -17.3839   22.3503 C   0  0  0  0  0  0  0  0  0  0  0  0
   10.3841  -16.2272   23.1148 C   0  0  2  0  0  0  0  0  0  0  0  0
    9.8102  -15.2375   22.2114 N   0  0  0  0  0  0  0  0  0  0  0  0
   11.3758  -15.6002   24.0226 C   0  0  0  0  0  0  0  0  0  0  0  0
   11.6189  -16.2061   25.2456 O   0  0  0  0  0  0  0  0  0  0  0  0
   12.0092  -14.5528   23.7501 O   0  0  0  0  0  0  0  0  0  0  0  0
  2  1  1  6
  3  2  1  0
  4  3  1  0
  5  4  1  0
  6  5  2  0
  7  8  2  0
  7  2  1  0
  9  5  1  0
 11 10  1  1
 11 12  1  0
 13 11  1  0
 13 14  1  6
 14  7  1  0
 15 13  1  0
 16 15  2  0
 18 20  1  0
 18 17  1  0
 19 18  2  0
 21 20  1  0
 22 21  1  6
 22 23  1  0
 23 15  1  0
 24 22  1  0
 24 25  1  0
 26 24  2  0
M  END
$$$$
