EVQ.pdb
     RDKit          3D

 26 25  0  0  1  0  0  0  0  0999 V2000
    8.9990  -16.5177   21.6331 N   0  0  0  0  0  0  0  0  0  0  0  0
    8.1905  -16.5402   22.8349 C   0  0  1  0  0  0  0  0  0  0  0  0
    7.6496  -17.9380   22.9854 C   0  0  0  0  0  0  0  0  0  0  0  0
    7.7433  -18.7250   21.6964 C   0  0  0  0  0  0  0  0  0  0  0  0
    7.1222  -20.0547   21.8267 C   0  0  0  0  0  0  0  0  0  0  0  0
    6.6406  -20.4154   22.9175 O   0  0  0  0  0  0  0  0  0  0  0  0
    9.0359  -16.1311   23.9722 C   0  0  0  0  0  0  0  0  0  0  0  0
   10.2807  -16.2536   23.9011 O   0  0  0  0  0  0  0  0  0  0  0  0
    7.0729  -20.9012   20.7433 O   0  0  0  0  0  0  0  0  0  0  0  0
    9.2540  -13.5836   28.2339 C   0  0  0  0  0  0  0  0  0  0  0  0
    8.4633  -14.1378   27.0701 C   0  0  1  0  0  0  0  0  0  0  0  0
    8.1717  -13.0091   26.1177 C   0  0  0  0  0  0  0  0  0  0  0  0
    9.3009  -15.1595   26.2921 C   0  0  2  0  0  0  0  0  0  0  0  0
    8.5138  -15.5899   25.1818 N   0  0  0  0  0  0  0  0  0  0  0  0
    9.6163  -16.2492   27.2432 C   0  0  0  0  0  0  0  0  0  0  0  0
    8.6289  -16.9062   27.6941 O   0  0  0  0  0  0  0  0  0  0  0  0
   14.5800  -20.0607   27.3912 N   0  0  0  0  0  0  0  0  0  0  0  0
   13.6217  -19.6774   26.4187 C   0  0  0  0  0  0  0  0  0  0  0  0
   13.8448  -20.0199   25.2333 O   0  0  0  0  0  0  0  0  0  0  0  0
   12.4316  -18.9171   26.7902 C   0  0  0  0  0  0  0  0  0  0  0  0
   12.3296  -18.5023   28.2120 C   0  0  0  0  0  0  0  0  0  0  0  0
   11.0969  -17.7288   28.5784 C   0  0  2  0  0  0  0  0  0  0  0  0
   10.8993  -16.6024   27.6744 N   0  0  0  0  0  0  0  0  0  0  0  0
   11.1119  -17.2753   29.9907 C   0  0  0  0  0  0  0  0  0  0  0  0
   11.0940  -18.2382   30.9880 O   0  0  0  0  0  0  0  0  0  0  0  0
   11.1400  -16.0707   30.3382 O   0  0  0  0  0  0  0  0  0  0  0  0
  2  1  1  6
  3  2  1  0
  4  3  1  0
  5  4  1  0
  6  5  2  0
  7  8  2  0
  7  2  1  0
  9  5  1  0
 11 10  1  1
 11 12  1  0
 13 11  1  0
 13 14  1  6
 14  7  1  0
 15 13  1  0
 16 15  2  0
 18 20  1  0
 18 17  1  0
 19 18  2  0
 21 20  1  0
 22 21  1  6
 22 23  1  0
 23 15  1  0
 24 22  1  0
 24 25  1  0
 26 24  2  0
M  END
$$$$
