EVQ.pdb
     RDKit          3D

 26 25  0  0  1  0  0  0  0  0999 V2000
    7.8354  -15.5563   20.9727 N   0  0  0  0  0  0  0  0  0  0  0  0
    7.1474  -15.8106   22.2219 C   0  0  1  0  0  0  0  0  0  0  0  0
    7.2023  -17.2953   22.4700 C   0  0  0  0  0  0  0  0  0  0  0  0
    6.8541  -18.0915   21.2312 C   0  0  0  0  0  0  0  0  0  0  0  0
    6.7908  -19.5358   21.5150 C   0  0  0  0  0  0  0  0  0  0  0  0
    5.7828  -20.1927   21.1917 O   0  0  0  0  0  0  0  0  0  0  0  0
    7.8090  -15.0307   23.2847 C   0  0  0  0  0  0  0  0  0  0  0  0
    9.0498  -14.8604   23.2543 O   0  0  0  0  0  0  0  0  0  0  0  0
    7.8453  -20.1625   22.1381 O   0  0  0  0  0  0  0  0  0  0  0  0
    7.1665  -12.2430   27.3851 C   0  0  0  0  0  0  0  0  0  0  0  0
    6.5972  -13.0296   26.2257 C   0  0  1  0  0  0  0  0  0  0  0  0
    5.9584  -12.0608   25.2668 C   0  0  0  0  0  0  0  0  0  0  0  0
    7.7197  -13.7319   25.4529 C   0  0  2  0  0  0  0  0  0  0  0  0
    7.1083  -14.4410   24.3756 N   0  0  0  0  0  0  0  0  0  0  0  0
    8.4020  -14.6172   26.4236 C   0  0  0  0  0  0  0  0  0  0  0  0
    9.0192  -14.0432   27.3720 O   0  0  0  0  0  0  0  0  0  0  0  0
    7.5659  -20.2900   29.2328 N   0  0  0  0  0  0  0  0  0  0  0  0
    7.3185  -20.0991   27.8495 C   0  0  0  0  0  0  0  0  0  0  0  0
    6.8526  -21.0746   27.2143 O   0  0  0  0  0  0  0  0  0  0  0  0
    7.5974  -18.8202   27.2022 C   0  0  0  0  0  0  0  0  0  0  0  0
    8.1372  -17.7439   28.0706 C   0  0  0  0  0  0  0  0  0  0  0  0
    9.0888  -16.7895   27.4104 C   0  0  2  0  0  0  0  0  0  0  0  0
    8.4168  -16.0152   26.3742 N   0  0  0  0  0  0  0  0  0  0  0  0
   10.2877  -17.4719   26.8650 C   0  0  0  0  0  0  0  0  0  0  0  0
   10.5215  -17.3945   25.5007 O   0  0  0  0  0  0  0  0  0  0  0  0
   11.1047  -18.1162   27.5649 O   0  0  0  0  0  0  0  0  0  0  0  0
  2  1  1  6
  3  2  1  0
  4  3  1  0
  5  4  1  0
  6  5  2  0
  7  8  2  0
  7  2  1  0
  9  5  1  0
 11 10  1  1
 11 12  1  0
 13 11  1  0
 13 14  1  6
 14  7  1  0
 15 13  1  0
 16 15  2  0
 18 20  1  0
 18 17  1  0
 19 18  2  0
 21 20  1  0
 22 21  1  6
 22 23  1  0
 23 15  1  0
 24 22  1  0
 24 25  1  0
 26 24  2  0
M  END
$$$$
