EVQ.pdb
     RDKit          3D

 26 25  0  0  1  0  0  0  0  0999 V2000
    7.7070  -13.7439   20.5130 N   0  0  0  0  0  0  0  0  0  0  0  0
    7.4606  -14.7012   21.5720 C   0  0  1  0  0  0  0  0  0  0  0  0
    8.1182  -15.9950   21.1689 C   0  0  0  0  0  0  0  0  0  0  0  0
    7.8401  -17.1057   22.1582 C   0  0  0  0  0  0  0  0  0  0  0  0
    8.4092  -18.3879   21.7079 C   0  0  0  0  0  0  0  0  0  0  0  0
    7.9570  -18.9502   20.6924 O   0  0  0  0  0  0  0  0  0  0  0  0
    8.0035  -14.1539   22.8295 C   0  0  0  0  0  0  0  0  0  0  0  0
    9.1821  -13.7309   22.8693 O   0  0  0  0  0  0  0  0  0  0  0  0
    9.4420  -18.9673   22.4083 O   0  0  0  0  0  0  0  0  0  0  0  0
    7.0369  -12.4036   27.3613 C   0  0  0  0  0  0  0  0  0  0  0  0
    6.5683  -13.0262   26.0653 C   0  0  1  0  0  0  0  0  0  0  0  0
    5.9732  -11.9409   25.2086 C   0  0  0  0  0  0  0  0  0  0  0  0
    7.7584  -13.5952   25.2839 C   0  0  2  0  0  0  0  0  0  0  0  0
    7.2530  -14.0727   24.0373 N   0  0  0  0  0  0  0  0  0  0  0  0
    8.3375  -14.6643   26.1285 C   0  0  0  0  0  0  0  0  0  0  0  0
    8.6338  -14.3424   27.3195 O   0  0  0  0  0  0  0  0  0  0  0  0
    8.0309  -20.9206   25.0268 N   0  0  0  0  0  0  0  0  0  0  0  0
    6.9839  -20.0703   25.4649 C   0  0  0  0  0  0  0  0  0  0  0  0
    5.8103  -20.4772   25.2940 O   0  0  0  0  0  0  0  0  0  0  0  0
    7.2693  -18.7797   26.0858 C   0  0  0  0  0  0  0  0  0  0  0  0
    8.6970  -18.3772   26.1469 C   0  0  0  0  0  0  0  0  0  0  0  0
    8.9638  -17.0016   26.6843 C   0  0  2  0  0  0  0  0  0  0  0  0
    8.5783  -15.9799   25.7186 N   0  0  0  0  0  0  0  0  0  0  0  0
   10.3744  -16.8225   27.1068 C   0  0  0  0  0  0  0  0  0  0  0  0
   10.8719  -17.6547   28.0977 O   0  0  0  0  0  0  0  0  0  0  0  0
   11.1462  -15.9619   26.6208 O   0  0  0  0  0  0  0  0  0  0  0  0
  2  1  1  6
  3  2  1  0
  4  3  1  0
  5  4  1  0
  6  5  2  0
  7  8  2  0
  7  2  1  0
  9  5  1  0
 11 10  1  1
 11 12  1  0
 13 11  1  0
 13 14  1  6
 14  7  1  0
 15 13  1  0
 16 15  2  0
 18 20  1  0
 18 17  1  0
 19 18  2  0
 21 20  1  0
 22 21  1  6
 22 23  1  0
 23 15  1  0
 24 22  1  0
 24 25  1  0
 26 24  2  0
M  END
$$$$
