EVQ.pdb
     RDKit          3D

 26 25  0  0  1  0  0  0  0  0999 V2000
    9.8468  -17.1383   16.1678 N   0  0  0  0  0  0  0  0  0  0  0  0
    8.9839  -17.3896   17.3039 C   0  0  1  0  0  0  0  0  0  0  0  0
    9.1492  -18.8386   17.6807 C   0  0  0  0  0  0  0  0  0  0  0  0
    8.4902  -19.7641   16.6813 C   0  0  0  0  0  0  0  0  0  0  0  0
    8.6545  -21.1780   17.0615 C   0  0  0  0  0  0  0  0  0  0  0  0
    9.0116  -22.0163   16.2119 O   0  0  0  0  0  0  0  0  0  0  0  0
    9.3677  -16.4708   18.3920 C   0  0  0  0  0  0  0  0  0  0  0  0
   10.5664  -16.1349   18.5323 O   0  0  0  0  0  0  0  0  0  0  0  0
    8.4137  -21.5758   18.3564 O   0  0  0  0  0  0  0  0  0  0  0  0
    7.7203  -13.3697   21.9344 C   0  0  0  0  0  0  0  0  0  0  0  0
    7.4947  -14.2401   20.7185 C   0  0  1  0  0  0  0  0  0  0  0  0
    7.2143  -13.3437   19.5421 C   0  0  0  0  0  0  0  0  0  0  0  0
    8.7681  -15.0226   20.3767 C   0  0  2  0  0  0  0  0  0  0  0  0
    8.4366  -15.9242   19.3210 N   0  0  0  0  0  0  0  0  0  0  0  0
    9.1824  -15.7071   21.6223 C   0  0  0  0  0  0  0  0  0  0  0  0
    8.4581  -16.6785   21.9985 O   0  0  0  0  0  0  0  0  0  0  0  0
   15.3111  -15.8106   23.2348 N   0  0  0  0  0  0  0  0  0  0  0  0
   14.1149  -15.9502   22.4861 C   0  0  0  0  0  0  0  0  0  0  0  0
   14.0712  -15.3793   21.3706 O   0  0  0  0  0  0  0  0  0  0  0  0
   12.9890  -16.7257   22.9995 C   0  0  0  0  0  0  0  0  0  0  0  0
   12.0740  -16.0229   23.9337 C   0  0  0  0  0  0  0  0  0  0  0  0
   10.6117  -16.1199   23.6100 C   0  0  2  0  0  0  0  0  0  0  0  0
   10.2935  -15.3686   22.4019 N   0  0  0  0  0  0  0  0  0  0  0  0
    9.7520  -15.6905   24.7400 C   0  0  0  0  0  0  0  0  0  0  0  0
    9.8191  -16.4089   25.9237 O   0  0  0  0  0  0  0  0  0  0  0  0
    8.9662  -14.7145   24.6893 O   0  0  0  0  0  0  0  0  0  0  0  0
  2  1  1  6
  3  2  1  0
  4  3  1  0
  5  4  1  0
  6  5  2  0
  7  8  2  0
  7  2  1  0
  9  5  1  0
 11 10  1  1
 11 12  1  0
 13 11  1  0
 13 14  1  6
 14  7  1  0
 15 13  1  0
 16 15  2  0
 18 20  1  0
 18 17  1  0
 19 18  2  0
 21 20  1  0
 22 21  1  1
 22 23  1  0
 23 15  1  0
 24 22  1  0
 24 25  1  0
 26 24  2  0
M  END
$$$$
