EVQ.pdb
     RDKit          3D

 26 25  0  0  1  0  0  0  0  0999 V2000
    7.3749  -17.6974   17.1120 N   0  0  0  0  0  0  0  0  0  0  0  0
    8.8114  -17.7596   17.2884 C   0  0  1  0  0  0  0  0  0  0  0  0
    9.4390  -17.5476   15.9355 C   0  0  0  0  0  0  0  0  0  0  0  0
    9.0017  -16.2435   15.3048 C   0  0  0  0  0  0  0  0  0  0  0  0
    9.6587  -16.0230   14.0046 C   0  0  0  0  0  0  0  0  0  0  0  0
   10.8334  -15.6105   13.9599 O   0  0  0  0  0  0  0  0  0  0  0  0
    9.2051  -16.7284   18.2668 C   0  0  0  0  0  0  0  0  0  0  0  0
   10.4130  -16.5766   18.5624 O   0  0  0  0  0  0  0  0  0  0  0  0
    8.9760  -16.2724   12.8365 O   0  0  0  0  0  0  0  0  0  0  0  0
    7.8472  -12.8290   21.0254 C   0  0  0  0  0  0  0  0  0  0  0  0
    7.5022  -13.9006   20.0157 C   0  0  1  0  0  0  0  0  0  0  0  0
    7.4867  -13.2725   18.6478 C   0  0  0  0  0  0  0  0  0  0  0  0
    8.5908  -14.9799   19.9877 C   0  0  2  0  0  0  0  0  0  0  0  0
    8.2739  -15.8686   18.9166 N   0  0  0  0  0  0  0  0  0  0  0  0
    8.5640  -15.6321   21.3165 C   0  0  0  0  0  0  0  0  0  0  0  0
    7.8875  -16.7018   21.4050 O   0  0  0  0  0  0  0  0  0  0  0  0
   11.1309  -19.8168   21.8533 N   0  0  0  0  0  0  0  0  0  0  0  0
   12.1621  -19.0362   22.4350 C   0  0  0  0  0  0  0  0  0  0  0  0
   13.3362  -19.4574   22.3076 O   0  0  0  0  0  0  0  0  0  0  0  0
   11.8606  -17.7987   23.1492 C   0  0  0  0  0  0  0  0  0  0  0  0
   11.0166  -16.8104   22.4316 C   0  0  0  0  0  0  0  0  0  0  0  0
   10.0258  -16.0641   23.2763 C   0  0  2  0  0  0  0  0  0  0  0  0
    9.2176  -15.1650   22.4617 N   0  0  0  0  0  0  0  0  0  0  0  0
   10.6721  -15.3288   24.3907 C   0  0  0  0  0  0  0  0  0  0  0  0
   10.6942  -15.9241   25.6425 O   0  0  0  0  0  0  0  0  0  0  0  0
   11.2011  -14.1983   24.2689 O   0  0  0  0  0  0  0  0  0  0  0  0
  2  1  1  6
  3  2  1  0
  4  3  1  0
  5  4  1  0
  6  5  2  0
  7  8  2  0
  7  2  1  0
  9  5  1  0
 11 10  1  1
 11 12  1  0
 13 11  1  0
 13 14  1  6
 14  7  1  0
 15 13  1  0
 16 15  2  0
 18 20  1  0
 18 17  1  0
 19 18  2  0
 21 20  1  0
 22 21  1  6
 22 23  1  0
 23 15  1  0
 24 22  1  0
 24 25  1  0
 26 24  2  0
M  END
$$$$
