EVQ.pdb
     RDKit          3D

 26 25  0  0  1  0  0  0  0  0999 V2000
    8.7843  -16.0271   16.2061 N   0  0  0  0  0  0  0  0  0  0  0  0
    9.2123  -16.7880   17.3620 C   0  0  1  0  0  0  0  0  0  0  0  0
   10.4399  -17.5626   16.9595 C   0  0  0  0  0  0  0  0  0  0  0  0
   10.9568  -18.4325   18.0846 C   0  0  0  0  0  0  0  0  0  0  0  0
   12.1075  -19.2465   17.6558 C   0  0  0  0  0  0  0  0  0  0  0  0
   12.7514  -19.9081   18.4922 O   0  0  0  0  0  0  0  0  0  0  0  0
    9.4697  -15.8477   18.4688 C   0  0  0  0  0  0  0  0  0  0  0  0
   10.0109  -14.7420   18.2360 O   0  0  0  0  0  0  0  0  0  0  0  0
   12.4735  -19.2778   16.3299 O   0  0  0  0  0  0  0  0  0  0  0  0
    7.4279  -13.3480   21.6135 C   0  0  0  0  0  0  0  0  0  0  0  0
    7.8299  -14.2296   20.4524 C   0  0  1  0  0  0  0  0  0  0  0  0
    8.3335  -13.3467   19.3420 C   0  0  0  0  0  0  0  0  0  0  0  0
    8.9984  -15.1389   20.8503 C   0  0  2  0  0  0  0  0  0  0  0  0
    9.1332  -16.1229   19.8252 N   0  0  0  0  0  0  0  0  0  0  0  0
    8.6483  -15.7125   22.1695 C   0  0  0  0  0  0  0  0  0  0  0  0
    7.5511  -16.3464   22.2345 O   0  0  0  0  0  0  0  0  0  0  0  0
   11.3562  -19.5243   21.0029 N   0  0  0  0  0  0  0  0  0  0  0  0
   12.2424  -19.3712   22.0994 C   0  0  0  0  0  0  0  0  0  0  0  0
   13.0901  -20.2777   22.2777 O   0  0  0  0  0  0  0  0  0  0  0  0
   12.1633  -18.2067   22.9770 C   0  0  0  0  0  0  0  0  0  0  0  0
   11.1489  -17.1816   22.6249 C   0  0  0  0  0  0  0  0  0  0  0  0
   10.2784  -16.7115   23.7535 C   0  0  2  0  0  0  0  0  0  0  0  0
    9.4235  -15.6096   23.3294 N   0  0  0  0  0  0  0  0  0  0  0  0
   11.0628  -16.3381   24.9558 C   0  0  0  0  0  0  0  0  0  0  0  0
   11.3111  -14.9934   25.1842 O   0  0  0  0  0  0  0  0  0  0  0  0
   11.5161  -17.1670   25.7804 O   0  0  0  0  0  0  0  0  0  0  0  0
  2  1  1  6
  3  2  1  0
  4  3  1  0
  5  4  1  0
  6  5  2  0
  7  8  2  0
  7  2  1  0
  9  5  1  0
 11 10  1  1
 11 12  1  0
 13 11  1  0
 13 14  1  6
 14  7  1  0
 15 13  1  0
 16 15  2  0
 18 20  1  0
 18 17  1  0
 19 18  2  0
 21 20  1  0
 22 21  1  6
 22 23  1  0
 23 15  1  0
 24 22  1  0
 24 25  1  0
 26 24  2  0
M  END
$$$$
