EVQ.pdb
     RDKit          3D

 26 25  0  0  1  0  0  0  0  0999 V2000
    9.5329  -17.3190   16.4083 N   0  0  0  0  0  0  0  0  0  0  0  0
    8.3933  -17.0162   17.2498 C   0  0  1  0  0  0  0  0  0  0  0  0
    7.6690  -18.3116   17.5072 C   0  0  0  0  0  0  0  0  0  0  0  0
    8.5301  -19.3042   18.2576 C   0  0  0  0  0  0  0  0  0  0  0  0
    7.8069  -20.5612   18.5180 C   0  0  0  0  0  0  0  0  0  0  0  0
    8.3221  -21.4422   19.2324 O   0  0  0  0  0  0  0  0  0  0  0  0
    8.8844  -16.3824   18.4879 C   0  0  0  0  0  0  0  0  0  0  0  0
   10.0086  -16.6930   18.9451 O   0  0  0  0  0  0  0  0  0  0  0  0
    6.5604  -20.7647   17.9723 O   0  0  0  0  0  0  0  0  0  0  0  0
    7.9055  -13.0410   22.0849 C   0  0  0  0  0  0  0  0  0  0  0  0
    7.4964  -13.7792   20.8300 C   0  0  1  0  0  0  0  0  0  0  0  0
    7.4161  -12.7848   19.7027 C   0  0  0  0  0  0  0  0  0  0  0  0
    8.5702  -14.7999   20.4354 C   0  0  2  0  0  0  0  0  0  0  0  0
    8.1417  -15.4116   19.2191 N   0  0  0  0  0  0  0  0  0  0  0  0
    8.6736  -15.7520   21.5644 C   0  0  0  0  0  0  0  0  0  0  0  0
    8.1069  -16.8762   21.4065 O   0  0  0  0  0  0  0  0  0  0  0  0
   12.4498  -20.4958   22.0931 N   0  0  0  0  0  0  0  0  0  0  0  0
   12.6713  -19.1425   22.4546 C   0  0  0  0  0  0  0  0  0  0  0  0
   13.7185  -18.6024   22.0258 O   0  0  0  0  0  0  0  0  0  0  0  0
   11.7172  -18.4183   23.2900 C   0  0  0  0  0  0  0  0  0  0  0  0
   10.9651  -17.3196   22.6335 C   0  0  0  0  0  0  0  0  0  0  0  0
    9.9768  -16.5970   23.5014 C   0  0  2  0  0  0  0  0  0  0  0  0
    9.3381  -15.5089   22.7712 N   0  0  0  0  0  0  0  0  0  0  0  0
   10.5848  -16.1017   24.7605 C   0  0  0  0  0  0  0  0  0  0  0  0
   10.4924  -16.8994   25.8906 O   0  0  0  0  0  0  0  0  0  0  0  0
   11.1789  -15.0023   24.8651 O   0  0  0  0  0  0  0  0  0  0  0  0
  2  1  1  6
  3  2  1  0
  4  3  1  0
  5  4  1  0
  6  5  2  0
  7  8  2  0
  7  2  1  0
  9  5  1  0
 11 10  1  1
 11 12  1  0
 13 11  1  0
 13 14  1  6
 14  7  1  0
 15 13  1  0
 16 15  2  0
 18 20  1  0
 18 17  1  0
 19 18  2  0
 21 20  1  0
 22 21  1  6
 22 23  1  0
 23 15  1  0
 24 22  1  0
 24 25  1  0
 26 24  2  0
M  END
$$$$
