EVQ.pdb
     RDKit          3D

 26 25  0  0  1  0  0  0  0  0999 V2000
   10.7947  -16.9483   17.8677 N   0  0  0  0  0  0  0  0  0  0  0  0
   10.2815  -17.5584   19.0772 C   0  0  1  0  0  0  0  0  0  0  0  0
   11.1582  -18.7430   19.3889 C   0  0  0  0  0  0  0  0  0  0  0  0
   11.7555  -19.3519   18.1390 C   0  0  0  0  0  0  0  0  0  0  0  0
   13.0292  -20.0352   18.4243 C   0  0  0  0  0  0  0  0  0  0  0  0
   14.1033  -19.5483   18.0229 O   0  0  0  0  0  0  0  0  0  0  0  0
   10.2905  -16.5454   20.1493 C   0  0  0  0  0  0  0  0  0  0  0  0
   11.1812  -15.6646   20.1690 O   0  0  0  0  0  0  0  0  0  0  0  0
   13.0351  -21.2132   19.1350 O   0  0  0  0  0  0  0  0  0  0  0  0
    7.4837  -14.2570   20.9480 C   0  0  0  0  0  0  0  0  0  0  0  0
    7.8120  -14.9821   22.2338 C   0  0  1  0  0  0  0  0  0  0  0  0
    6.9274  -16.1963   22.3297 C   0  0  0  0  0  0  0  0  0  0  0  0
    9.2562  -15.4960   22.2048 C   0  0  2  0  0  0  0  0  0  0  0  0
    9.3240  -16.5021   21.1946 N   0  0  0  0  0  0  0  0  0  0  0  0
    9.5418  -16.0106   23.5632 C   0  0  0  0  0  0  0  0  0  0  0  0
    9.5756  -17.2724   23.6916 O   0  0  0  0  0  0  0  0  0  0  0  0
    9.7723  -13.0312   29.3015 N   0  0  0  0  0  0  0  0  0  0  0  0
   10.2085  -14.3595   29.5390 C   0  0  0  0  0  0  0  0  0  0  0  0
   10.5152  -14.6562   30.7180 O   0  0  0  0  0  0  0  0  0  0  0  0
   10.2941  -15.3316   28.4526 C   0  0  0  0  0  0  0  0  0  0  0  0
   10.0695  -14.8107   27.0807 C   0  0  0  0  0  0  0  0  0  0  0  0
   10.0426  -15.8402   25.9890 C   0  0  2  0  0  0  0  0  0  0  0  0
    9.7733  -15.2232   24.6960 N   0  0  0  0  0  0  0  0  0  0  0  0
    9.0767  -16.9319   26.2639 C   0  0  0  0  0  0  0  0  0  0  0  0
    9.5511  -18.0927   26.8549 O   0  0  0  0  0  0  0  0  0  0  0  0
    7.8538  -16.8683   25.9934 O   0  0  0  0  0  0  0  0  0  0  0  0
  2  1  1  6
  3  2  1  0
  4  3  1  0
  5  4  1  0
  6  5  2  0
  7  8  2  0
  7  2  1  0
  9  5  1  0
 11 10  1  6
 11 12  1  0
 13 11  1  0
 13 14  1  6
 14  7  1  0
 15 13  1  0
 16 15  2  0
 18 20  1  0
 18 17  1  0
 19 18  2  0
 21 20  1  0
 22 21  1  1
 22 23  1  0
 23 15  1  0
 24 22  1  0
 24 25  1  0
 26 24  2  0
M  END
$$$$
