EVQ.pdb
     RDKit          3D

 26 25  0  0  1  0  0  0  0  0999 V2000
    6.7569  -16.6321   20.8318 N   0  0  0  0  0  0  0  0  0  0  0  0
    8.1898  -16.5179   20.6522 C   0  0  1  0  0  0  0  0  0  0  0  0
    8.4226  -15.8002   19.3484 C   0  0  0  0  0  0  0  0  0  0  0  0
    8.8980  -16.7385   18.2607 C   0  0  0  0  0  0  0  0  0  0  0  0
    8.4143  -16.3194   16.9336 C   0  0  0  0  0  0  0  0  0  0  0  0
    7.2248  -16.5064   16.6142 O   0  0  0  0  0  0  0  0  0  0  0  0
    8.7475  -15.7925   21.8091 C   0  0  0  0  0  0  0  0  0  0  0  0
    9.9517  -15.4469   21.8084 O   0  0  0  0  0  0  0  0  0  0  0  0
    9.2759  -15.7204   16.0438 O   0  0  0  0  0  0  0  0  0  0  0  0
    7.9156  -13.4206   26.0866 C   0  0  0  0  0  0  0  0  0  0  0  0
    7.4063  -14.0848   24.8271 C   0  0  1  0  0  0  0  0  0  0  0  0
    7.0277  -13.0079   23.8458 C   0  0  0  0  0  0  0  0  0  0  0  0
    8.5206  -14.9048   24.1663 C   0  0  2  0  0  0  0  0  0  0  0  0
    7.9835  -15.4491   22.9611 N   0  0  0  0  0  0  0  0  0  0  0  0
    8.9156  -15.9382   25.1500 C   0  0  0  0  0  0  0  0  0  0  0  0
    7.9846  -16.6754   25.5967 O   0  0  0  0  0  0  0  0  0  0  0  0
   14.4939  -18.9346   25.7960 N   0  0  0  0  0  0  0  0  0  0  0  0
   13.6662  -19.4877   26.8060 C   0  0  0  0  0  0  0  0  0  0  0  0
   14.1420  -20.4334   27.4779 O   0  0  0  0  0  0  0  0  0  0  0  0
   12.3207  -18.9730   27.0452 C   0  0  0  0  0  0  0  0  0  0  0  0
   11.8811  -17.8469   26.1834 C   0  0  0  0  0  0  0  0  0  0  0  0
   10.5158  -17.2969   26.4758 C   0  0  2  0  0  0  0  0  0  0  0  0
   10.2162  -16.1587   25.6156 N   0  0  0  0  0  0  0  0  0  0  0  0
   10.3441  -16.9378   27.9047 C   0  0  0  0  0  0  0  0  0  0  0  0
   10.6887  -15.6556   28.3038 O   0  0  0  0  0  0  0  0  0  0  0  0
    9.9050  -17.7256   28.7760 O   0  0  0  0  0  0  0  0  0  0  0  0
  2  1  1  1
  3  2  1  0
  4  3  1  0
  5  4  1  0
  6  5  2  0
  7  8  2  0
  7  2  1  0
  9  5  1  0
 11 10  1  1
 11 12  1  0
 13 11  1  0
 13 14  1  6
 14  7  1  0
 15 13  1  0
 16 15  2  0
 18 20  1  0
 18 17  1  0
 19 18  2  0
 21 20  1  0
 22 21  1  1
 22 23  1  0
 23 15  1  0
 24 22  1  0
 24 25  1  0
 26 24  2  0
M  END
$$$$
