EVQ.pdb
     RDKit          3D

 26 25  0  0  1  0  0  0  0  0999 V2000
   10.2905  -17.4037   16.9410 N   0  0  0  0  0  0  0  0  0  0  0  0
    9.2237  -17.5799   17.9050 C   0  0  1  0  0  0  0  0  0  0  0  0
    9.2142  -19.0327   18.3029 C   0  0  0  0  0  0  0  0  0  0  0  0
    8.0786  -19.7923   17.6524 C   0  0  0  0  0  0  0  0  0  0  0  0
    8.0740  -21.2096   18.0544 C   0  0  0  0  0  0  0  0  0  0  0  0
    8.9820  -21.6562   18.7811 O   0  0  0  0  0  0  0  0  0  0  0  0
    9.4736  -16.6786   19.0455 C   0  0  0  0  0  0  0  0  0  0  0  0
   10.6262  -16.5859   19.5275 O   0  0  0  0  0  0  0  0  0  0  0  0
    7.0663  -22.0436   17.6279 O   0  0  0  0  0  0  0  0  0  0  0  0
    7.5981  -13.0886   21.9631 C   0  0  0  0  0  0  0  0  0  0  0  0
    7.4671  -14.0466   20.8004 C   0  0  1  0  0  0  0  0  0  0  0  0
    7.5156  -13.2494   19.5245 C   0  0  0  0  0  0  0  0  0  0  0  0
    8.6620  -15.0065   20.7605 C   0  0  2  0  0  0  0  0  0  0  0  0
    8.4599  -15.8833   19.6526 N   0  0  0  0  0  0  0  0  0  0  0  0
    8.6770  -15.7061   22.0652 C   0  0  0  0  0  0  0  0  0  0  0  0
    8.0068  -16.7811   22.1353 O   0  0  0  0  0  0  0  0  0  0  0  0
   12.6357  -19.0690   22.2154 N   0  0  0  0  0  0  0  0  0  0  0  0
   12.3588  -19.1873   23.6012 C   0  0  0  0  0  0  0  0  0  0  0  0
   12.9492  -20.1014   24.2240 O   0  0  0  0  0  0  0  0  0  0  0  0
   11.4256  -18.2810   24.2647 C   0  0  0  0  0  0  0  0  0  0  0  0
   10.8320  -17.2116   23.4233 C   0  0  0  0  0  0  0  0  0  0  0  0
    9.9351  -16.2430   24.1372 C   0  0  2  0  0  0  0  0  0  0  0  0
    9.3631  -15.2777   23.2065 N   0  0  0  0  0  0  0  0  0  0  0  0
   10.6231  -15.5533   25.2559 C   0  0  0  0  0  0  0  0  0  0  0  0
   10.8026  -16.2479   26.4421 O   0  0  0  0  0  0  0  0  0  0  0  0
   11.0532  -14.3770   25.1935 O   0  0  0  0  0  0  0  0  0  0  0  0
  2  1  1  6
  3  2  1  0
  4  3  1  0
  5  4  1  0
  6  5  2  0
  7  8  2  0
  7  2  1  0
  9  5  1  0
 11 10  1  1
 11 12  1  0
 13 11  1  0
 13 14  1  6
 14  7  1  0
 15 13  1  0
 16 15  2  0
 18 20  1  0
 18 17  1  0
 19 18  2  0
 21 20  1  0
 22 21  1  6
 22 23  1  0
 23 15  1  0
 24 22  1  0
 24 25  1  0
 26 24  2  0
M  END
$$$$
