EVQ.pdb
     RDKit          3D

 26 25  0  0  1  0  0  0  0  0999 V2000
    8.1492  -13.9782   20.1985 N   0  0  0  0  0  0  0  0  0  0  0  0
    7.1900  -14.2545   21.2483 C   0  0  1  0  0  0  0  0  0  0  0  0
    6.6197  -15.6238   20.9857 C   0  0  0  0  0  0  0  0  0  0  0  0
    7.6930  -16.6900   20.9567 C   0  0  0  0  0  0  0  0  0  0  0  0
    7.1220  -18.0278   20.7226 C   0  0  0  0  0  0  0  0  0  0  0  0
    6.7360  -18.7197   21.6840 O   0  0  0  0  0  0  0  0  0  0  0  0
    7.8834  -14.1659   22.5472 C   0  0  0  0  0  0  0  0  0  0  0  0
    9.0893  -14.4938   22.6352 O   0  0  0  0  0  0  0  0  0  0  0  0
    7.0138  -18.5161   19.4409 O   0  0  0  0  0  0  0  0  0  0  0  0
    7.6350  -12.5802   27.2671 C   0  0  0  0  0  0  0  0  0  0  0  0
    6.9606  -12.8402   25.9387 C   0  0  1  0  0  0  0  0  0  0  0  0
    6.7483  -11.5182   25.2507 C   0  0  0  0  0  0  0  0  0  0  0  0
    7.8760  -13.6647   25.0261 C   0  0  2  0  0  0  0  0  0  0  0  0
    7.2525  -13.7184   23.7432 N   0  0  0  0  0  0  0  0  0  0  0  0
    8.0140  -14.9927   25.6657 C   0  0  0  0  0  0  0  0  0  0  0  0
    7.2603  -15.9120   25.2224 O   0  0  0  0  0  0  0  0  0  0  0  0
   10.5851  -18.0728   22.9133 N   0  0  0  0  0  0  0  0  0  0  0  0
   11.3110  -18.5582   24.0307 C   0  0  0  0  0  0  0  0  0  0  0  0
   11.8933  -19.6605   23.8965 O   0  0  0  0  0  0  0  0  0  0  0  0
   11.3714  -17.8016   25.2783 C   0  0  0  0  0  0  0  0  0  0  0  0
   10.4609  -16.6341   25.3878 C   0  0  0  0  0  0  0  0  0  0  0  0
    9.6856  -16.5302   26.6686 C   0  0  2  0  0  0  0  0  0  0  0  0
    8.8980  -15.3041   26.7042 N   0  0  0  0  0  0  0  0  0  0  0  0
   10.5546  -16.6339   27.8664 C   0  0  0  0  0  0  0  0  0  0  0  0
   10.9204  -15.4636   28.5134 O   0  0  0  0  0  0  0  0  0  0  0  0
   10.9793  -17.7187   28.3305 O   0  0  0  0  0  0  0  0  0  0  0  0
  2  1  1  6
  3  2  1  0
  4  3  1  0
  5  4  1  0
  6  5  2  0
  7  8  2  0
  7  2  1  0
  9  5  1  0
 11 10  1  1
 11 12  1  0
 13 11  1  0
 13 14  1  6
 14  7  1  0
 15 13  1  0
 16 15  2  0
 18 20  1  0
 18 17  1  0
 19 18  2  0
 21 20  1  0
 22 21  1  6
 22 23  1  0
 23 15  1  0
 24 22  1  0
 24 25  1  0
 26 24  2  0
M  END
$$$$
