EVQ.pdb
     RDKit          3D

 26 25  0  0  1  0  0  0  0  0999 V2000
    8.1813  -14.9438   20.6456 N   0  0  0  0  0  0  0  0  0  0  0  0
    7.4002  -15.2620   21.8234 C   0  0  1  0  0  0  0  0  0  0  0  0
    7.3110  -16.7632   21.9103 C   0  0  0  0  0  0  0  0  0  0  0  0
    8.5533  -17.4380   21.3709 C   0  0  0  0  0  0  0  0  0  0  0  0
    8.4210  -18.9054   21.3811 C   0  0  0  0  0  0  0  0  0  0  0  0
    7.6203  -19.4661   20.6088 O   0  0  0  0  0  0  0  0  0  0  0  0
    8.0622  -14.6619   22.9969 C   0  0  0  0  0  0  0  0  0  0  0  0
    9.3113  -14.5714   23.0311 O   0  0  0  0  0  0  0  0  0  0  0  0
    9.1819  -19.6598   22.2441 O   0  0  0  0  0  0  0  0  0  0  0  0
    7.4575  -12.2801   27.3414 C   0  0  0  0  0  0  0  0  0  0  0  0
    6.8816  -12.8815   26.0791 C   0  0  1  0  0  0  0  0  0  0  0  0
    6.4471  -11.7576   25.1767 C   0  0  0  0  0  0  0  0  0  0  0  0
    7.9600  -13.6605   25.3170 C   0  0  2  0  0  0  0  0  0  0  0  0
    7.3530  -14.1640   24.1273 N   0  0  0  0  0  0  0  0  0  0  0  0
    8.4274  -14.7266   26.2317 C   0  0  0  0  0  0  0  0  0  0  0  0
    7.5710  -15.6042   26.5575 O   0  0  0  0  0  0  0  0  0  0  0  0
   13.1056  -14.8808   24.6292 N   0  0  0  0  0  0  0  0  0  0  0  0
   12.9866  -16.1210   25.3066 C   0  0  0  0  0  0  0  0  0  0  0  0
   14.0417  -16.7730   25.4909 O   0  0  0  0  0  0  0  0  0  0  0  0
   11.6889  -16.6095   25.7647 C   0  0  0  0  0  0  0  0  0  0  0  0
   11.4248  -16.5159   27.2226 C   0  0  0  0  0  0  0  0  0  0  0  0
   10.0848  -15.9608   27.6079 C   0  0  2  0  0  0  0  0  0  0  0  0
    9.7203  -14.8367   26.7544 N   0  0  0  0  0  0  0  0  0  0  0  0
   10.0207  -15.5784   29.0397 C   0  0  0  0  0  0  0  0  0  0  0  0
   10.2289  -16.5650   29.9911 O   0  0  0  0  0  0  0  0  0  0  0  0
    9.7891  -14.4137   29.4428 O   0  0  0  0  0  0  0  0  0  0  0  0
  2  1  1  6
  3  2  1  0
  4  3  1  0
  5  4  1  0
  6  5  2  0
  7  8  2  0
  7  2  1  0
  9  5  1  0
 11 10  1  1
 11 12  1  0
 13 11  1  0
 13 14  1  6
 14  7  1  0
 15 13  1  0
 16 15  2  0
 18 20  1  0
 18 17  1  0
 19 18  2  0
 21 20  1  0
 22 21  1  6
 22 23  1  0
 23 15  1  0
 24 22  1  0
 24 25  1  0
 26 24  2  0
M  END
$$$$
