EVQ.pdb
     RDKit          3D

 26 25  0  0  1  0  0  0  0  0999 V2000
    9.3468  -16.6366   15.7918 N   0  0  0  0  0  0  0  0  0  0  0  0
    8.5193  -16.9340   16.9430 C   0  0  1  0  0  0  0  0  0  0  0  0
    8.5832  -18.4220   17.1688 C   0  0  0  0  0  0  0  0  0  0  0  0
    8.8955  -19.1768   15.8951 C   0  0  0  0  0  0  0  0  0  0  0  0
    9.0106  -20.6254   16.1377 C   0  0  0  0  0  0  0  0  0  0  0  0
    8.9014  -21.0761   17.2939 O   0  0  0  0  0  0  0  0  0  0  0  0
    9.0262  -16.1613   18.0925 C   0  0  0  0  0  0  0  0  0  0  0  0
   10.2607  -16.0378   18.2667 O   0  0  0  0  0  0  0  0  0  0  0  0
    9.2392  -21.4840   15.0872 O   0  0  0  0  0  0  0  0  0  0  0  0
    7.8335  -13.1246   21.8694 C   0  0  0  0  0  0  0  0  0  0  0  0
    7.4963  -13.8351   20.5777 C   0  0  1  0  0  0  0  0  0  0  0  0
    7.3939  -12.8046   19.4852 C   0  0  0  0  0  0  0  0  0  0  0  0
    8.6317  -14.7843   20.1769 C   0  0  2  0  0  0  0  0  0  0  0  0
    8.1785  -15.5275   19.0457 N   0  0  0  0  0  0  0  0  0  0  0  0
    8.9047  -15.6295   21.3612 C   0  0  0  0  0  0  0  0  0  0  0  0
    8.0112  -16.4772   21.6659 O   0  0  0  0  0  0  0  0  0  0  0  0
   14.4612  -16.9848   24.2853 N   0  0  0  0  0  0  0  0  0  0  0  0
   13.4744  -17.7224   24.9875 C   0  0  0  0  0  0  0  0  0  0  0  0
   13.8728  -18.4718   25.9105 O   0  0  0  0  0  0  0  0  0  0  0  0
   12.0597  -17.6085   24.6437 C   0  0  0  0  0  0  0  0  0  0  0  0
   11.7266  -16.7202   23.5019 C   0  0  0  0  0  0  0  0  0  0  0  0
   10.2630  -16.5138   23.2420 C   0  0  2  0  0  0  0  0  0  0  0  0
   10.0544  -15.5645   22.1555 N   0  0  0  0  0  0  0  0  0  0  0  0
    9.5257  -16.0935   24.4586 C   0  0  0  0  0  0  0  0  0  0  0  0
    9.1009  -17.0763   25.3392 O   0  0  0  0  0  0  0  0  0  0  0  0
    9.2626  -14.9000   24.7395 O   0  0  0  0  0  0  0  0  0  0  0  0
  2  1  1  6
  3  2  1  0
  4  3  1  0
  5  4  1  0
  6  5  2  0
  7  8  2  0
  7  2  1  0
  9  5  1  0
 11 10  1  1
 11 12  1  0
 13 11  1  0
 13 14  1  6
 14  7  1  0
 15 13  1  0
 16 15  2  0
 18 20  1  0
 18 17  1  0
 19 18  2  0
 21 20  1  0
 22 21  1  1
 22 23  1  0
 23 15  1  0
 24 22  1  0
 24 25  1  0
 26 24  2  0
M  END
$$$$
