EVQ.pdb
     RDKit          3D

 26 25  0  0  1  0  0  0  0  0999 V2000
    9.6162  -16.9075   16.7456 N   0  0  0  0  0  0  0  0  0  0  0  0
    9.9894  -17.5426   17.9929 C   0  0  1  0  0  0  0  0  0  0  0  0
   11.3754  -18.1046   17.8129 C   0  0  0  0  0  0  0  0  0  0  0  0
   11.4939  -18.9300   16.5502 C   0  0  0  0  0  0  0  0  0  0  0  0
   12.8460  -19.4947   16.3966 C   0  0  0  0  0  0  0  0  0  0  0  0
   13.7331  -19.2280   17.2296 O   0  0  0  0  0  0  0  0  0  0  0  0
    9.9187  -16.5349   19.0676 C   0  0  0  0  0  0  0  0  0  0  0  0
   10.9552  -16.2176   19.6957 O   0  0  0  0  0  0  0  0  0  0  0  0
   13.1318  -20.3183   15.3322 O   0  0  0  0  0  0  0  0  0  0  0  0
    7.0878  -13.1507   21.3991 C   0  0  0  0  0  0  0  0  0  0  0  0
    7.3113  -14.1400   20.2774 C   0  0  1  0  0  0  0  0  0  0  0  0
    7.5243  -13.3679   19.0028 C   0  0  0  0  0  0  0  0  0  0  0  0
    8.5945  -14.9434   20.5201 C   0  0  2  0  0  0  0  0  0  0  0  0
    8.7130  -15.8795   19.4492 N   0  0  0  0  0  0  0  0  0  0  0  0
    8.4384  -15.5861   21.8446 C   0  0  0  0  0  0  0  0  0  0  0  0
    7.5134  -16.4486   21.9463 O   0  0  0  0  0  0  0  0  0  0  0  0
   12.7419  -18.3427   25.8745 N   0  0  0  0  0  0  0  0  0  0  0  0
   12.4887  -17.1316   25.1814 C   0  0  0  0  0  0  0  0  0  0  0  0
   13.3611  -16.2348   25.2642 O   0  0  0  0  0  0  0  0  0  0  0  0
   11.2636  -16.9460   24.4087 C   0  0  0  0  0  0  0  0  0  0  0  0
   10.1926  -16.1432   25.0510 C   0  0  0  0  0  0  0  0  0  0  0  0
    8.9379  -15.9680   24.2464 C   0  0  2  0  0  0  0  0  0  0  0  0
    9.2210  -15.3181   22.9726 N   0  0  0  0  0  0  0  0  0  0  0  0
    7.8857  -15.2339   24.9908 C   0  0  0  0  0  0  0  0  0  0  0  0
    7.2710  -15.8725   26.0567 O   0  0  0  0  0  0  0  0  0  0  0  0
    7.5176  -14.0675   24.7138 O   0  0  0  0  0  0  0  0  0  0  0  0
  2  1  1  6
  3  2  1  0
  4  3  1  0
  5  4  1  0
  6  5  2  0
  7  8  2  0
  7  2  1  0
  9  5  1  0
 11 10  1  1
 11 12  1  0
 13 11  1  0
 13 14  1  6
 14  7  1  0
 15 13  1  0
 16 15  2  0
 18 20  1  0
 18 17  1  0
 19 18  2  0
 21 20  1  0
 22 21  1  1
 22 23  1  0
 23 15  1  0
 24 22  1  0
 24 25  1  0
 26 24  2  0
M  END
$$$$
