VRH.pdb
     RDKit          3D

 29 29  0  0  1  0  0  0  0  0999 V2000
    7.1996  -12.0766   18.8886 C   0  0  0  0  0  0  0  0  0  0  0  0
    7.7688  -13.0555   19.8808 C   0  0  2  0  0  0  0  0  0  0  0  0
    8.7297  -12.4014   20.8441 C   0  0  0  0  0  0  0  0  0  0  0  0
    8.3253  -14.2948   19.2543 C   0  0  2  0  0  0  0  0  0  0  0  0
    7.2536  -14.9118   18.4513 N   0  0  0  0  0  0  0  0  0  0  0  0
    8.8437  -15.3112   20.1541 C   0  0  0  0  0  0  0  0  0  0  0  0
    8.0123  -16.0458   20.7879 O   0  0  0  0  0  0  0  0  0  0  0  0
   14.1763  -21.6904   20.8418 N   0  0  0  0  0  0  0  0  0  0  0  0
   13.6400  -21.0126   21.9735 C   0  0  0  0  0  0  0  0  0  0  0  0
   12.6833  -21.4852   22.6871 N   0  0  0  0  0  0  0  0  0  0  0  0
   14.1760  -19.7318   22.3626 N   0  0  0  0  0  0  0  0  0  0  0  0
   13.9119  -18.5392   21.6201 C   0  0  0  0  0  0  0  0  0  0  0  0
   12.4610  -18.1398   21.8605 C   0  0  0  0  0  0  0  0  0  0  0  0
   12.0951  -16.8872   21.1416 C   0  0  0  0  0  0  0  0  0  0  0  0
   10.6046  -16.6099   21.4077 C   0  0  2  0  0  0  0  0  0  0  0  0
   10.2038  -15.6166   20.4379 N   0  0  0  0  0  0  0  0  0  0  0  0
   10.5219  -16.2134   22.8042 C   0  0  0  0  0  0  0  0  0  0  0  0
   10.1553  -15.0402   23.0597 O   0  0  0  0  0  0  0  0  0  0  0  0
   12.2612  -20.9700   23.4781 N   0  0  0  0  0  0  0  0  0  0  0  0
   10.8226  -17.0445   23.9415 C   0  0  2  0  0  0  0  0  0  0  0  0
   10.0702  -16.8967   25.1722 C   0  0  0  0  0  0  0  0  0  0  0  0
    8.5996  -16.8480   25.0183 C   0  0  0  0  0  0  0  0  0  0  0  0
    7.9460  -15.5588   25.0112 C   0  0  0  0  0  0  0  0  0  0  0  0
    8.4586  -14.3037   25.0915 N   0  0  0  0  0  0  0  0  0  0  0  0
    7.4646  -13.3803   25.0170 C   0  0  0  0  0  0  0  0  0  0  0  0
    6.3375  -14.0908   24.8894 N   0  0  0  0  0  0  0  0  0  0  0  0
    6.5926  -15.4009   24.8823 C   0  0  0  0  0  0  0  0  0  0  0  0
   10.5159  -17.8888   26.1877 O   0  0  0  0  0  0  0  0  0  0  0  0
   10.2230  -17.6563   27.5039 O   0  0  0  0  0  0  0  0  0  0  0  0
  2  1  1  6
  3  2  1  0
  4  2  1  0
  4  5  1  1
  6  4  1  0
  7  6  2  0
  9  8  1  0
  9 11  1  0
 10  9  2  0
 12 11  1  0
 12 13  1  0
 13 14  1  0
 15 14  1  6
 15 16  1  0
 16  6  1  0
 17 15  1  0
 17 18  2  0
 19 17  1  0
 20 19  1  0
 20 21  1  6
 21 22  1  0
 22 26  1  0
 22 23  2  0
 23 24  1  0
 25 24  1  0
 26 25  2  0
 27 20  1  0
 28 27  1  0
 29 27  2  0
M  END
$$$$
