VRH.pdb
     RDKit          3D

 29 29  0  0  1  0  0  0  0  0999 V2000
   11.6536  -19.4296   21.1458 C   0  0  0  0  0  0  0  0  0  0  0  0
   11.0670  -19.1366   19.7905 C   0  0  2  0  0  0  0  0  0  0  0  0
   11.5013  -20.1397   18.7492 C   0  0  0  0  0  0  0  0  0  0  0  0
   11.2511  -17.7198   19.3469 C   0  0  2  0  0  0  0  0  0  0  0  0
   12.6745  -17.5368   19.0085 N   0  0  0  0  0  0  0  0  0  0  0  0
   10.8855  -16.6807   20.2946 C   0  0  0  0  0  0  0  0  0  0  0  0
   11.8081  -16.1450   20.9978 O   0  0  0  0  0  0  0  0  0  0  0  0
    8.9581  -14.7581   16.8196 N   0  0  0  0  0  0  0  0  0  0  0  0
    7.9803  -13.7336   16.9685 C   0  0  0  0  0  0  0  0  0  0  0  0
    7.1184  -13.4479   16.0610 N   0  0  0  0  0  0  0  0  0  0  0  0
    7.9298  -12.9620   18.1854 N   0  0  0  0  0  0  0  0  0  0  0  0
    7.2341  -13.4188   19.3476 C   0  0  0  0  0  0  0  0  0  0  0  0
    8.2299  -13.4980   20.4985 C   0  0  0  0  0  0  0  0  0  0  0  0
    7.9505  -14.6452   21.4072 C   0  0  0  0  0  0  0  0  0  0  0  0
    9.2895  -15.3399   21.7136 C   0  0  2  0  0  0  0  0  0  0  0  0
    9.5908  -16.1536   20.5582 N   0  0  0  0  0  0  0  0  0  0  0  0
    9.0852  -16.0524   22.9646 C   0  0  0  0  0  0  0  0  0  0  0  0
    8.6127  -17.2140   22.9072 O   0  0  0  0  0  0  0  0  0  0  0  0
    6.4070  -12.7057   16.1715 N   0  0  0  0  0  0  0  0  0  0  0  0
    9.3754  -15.5515   24.2835 C   0  0  1  0  0  0  0  0  0  0  0  0
    9.2431  -16.4184   25.4384 C   0  0  0  0  0  0  0  0  0  0  0  0
    8.0325  -17.2683   25.4621 C   0  0  0  0  0  0  0  0  0  0  0  0
    7.8795  -18.2265   26.5334 C   0  0  0  0  0  0  0  0  0  0  0  0
    8.6006  -18.4098   27.6696 N   0  0  0  0  0  0  0  0  0  0  0  0
    8.0732  -19.4215   28.4075 C   0  0  0  0  0  0  0  0  0  0  0  0
    7.0187  -19.8526   27.7048 N   0  0  0  0  0  0  0  0  0  0  0  0
    6.8756  -19.1559   26.5754 C   0  0  0  0  0  0  0  0  0  0  0  0
   10.4967  -17.1856   25.6709 O   0  0  0  0  0  0  0  0  0  0  0  0
   11.4103  -16.6939   26.5630 O   0  0  0  0  0  0  0  0  0  0  0  0
  2  1  1  1
  3  2  1  0
  4  2  1  0
  4  5  1  1
  6  4  1  0
  7  6  2  0
  9  8  1  0
  9 11  1  0
 10  9  2  0
 12 11  1  0
 12 13  1  0
 13 14  1  0
 15 14  1  6
 15 16  1  0
 16  6  1  0
 17 15  1  0
 17 18  2  0
 19 17  1  0
 20 19  1  0
 20 21  1  1
 21 22  1  0
 22 26  1  0
 22 23  2  0
 23 24  1  0
 25 24  1  0
 26 25  2  0
 27 20  1  0
 28 27  1  0
 29 27  2  0
M  END
$$$$
