VRH.pdb
     RDKit          3D

 29 29  0  0  1  0  0  0  0  0999 V2000
    7.4177  -12.9491   19.7378 C   0  0  0  0  0  0  0  0  0  0  0  0
    8.5645  -13.1135   18.7763 C   0  0  2  0  0  0  0  0  0  0  0  0
    8.4841  -12.1482   17.6184 C   0  0  0  0  0  0  0  0  0  0  0  0
    8.7894  -14.5272   18.3416 C   0  0  2  0  0  0  0  0  0  0  0  0
    7.7229  -14.8779   17.3858 N   0  0  0  0  0  0  0  0  0  0  0  0
    8.8010  -15.5417   19.3819 C   0  0  0  0  0  0  0  0  0  0  0  0
    7.6924  -16.0776   19.7231 O   0  0  0  0  0  0  0  0  0  0  0  0
   11.3405  -22.3004   20.8694 N   0  0  0  0  0  0  0  0  0  0  0  0
   10.3185  -22.2506   21.8599 C   0  0  0  0  0  0  0  0  0  0  0  0
   10.0802  -23.2156   22.6723 N   0  0  0  0  0  0  0  0  0  0  0  0
    9.4947  -21.0736   21.9817 N   0  0  0  0  0  0  0  0  0  0  0  0
    9.7481  -19.8862   21.2273 C   0  0  0  0  0  0  0  0  0  0  0  0
   10.7330  -19.0258   22.0097 C   0  0  0  0  0  0  0  0  0  0  0  0
   11.0654  -17.7604   21.2968 C   0  0  0  0  0  0  0  0  0  0  0  0
    9.7962  -16.8900   21.2661 C   0  0  2  0  0  0  0  0  0  0  0  0
    9.9206  -16.0435   20.1017 N   0  0  0  0  0  0  0  0  0  0  0  0
    9.7539  -16.2114   22.5514 C   0  0  0  0  0  0  0  0  0  0  0  0
   10.6552  -15.3743   22.8022 O   0  0  0  0  0  0  0  0  0  0  0  0
    9.3110  -23.1952   23.3631 N   0  0  0  0  0  0  0  0  0  0  0  0
    8.7662  -16.4059   23.5815 C   0  0  2  0  0  0  0  0  0  0  0  0
    8.7032  -15.5000   24.7120 C   0  0  0  0  0  0  0  0  0  0  0  0
    7.4072  -14.8139   24.9076 C   0  0  0  0  0  0  0  0  0  0  0  0
    7.2672  -13.9013   26.0197 C   0  0  0  0  0  0  0  0  0  0  0  0
    8.1722  -13.4787   26.9400 N   0  0  0  0  0  0  0  0  0  0  0  0
    7.6003  -12.5890   27.7930 C   0  0  0  0  0  0  0  0  0  0  0  0
    6.3326  -12.4744   27.3790 N   0  0  0  0  0  0  0  0  0  0  0  0
    6.1013  -13.2490   26.3169 C   0  0  0  0  0  0  0  0  0  0  0  0
    9.2039  -16.1601   25.9480 O   0  0  0  0  0  0  0  0  0  0  0  0
   10.0008  -15.4423   26.7977 O   0  0  0  0  0  0  0  0  0  0  0  0
  2  1  1  6
  3  2  1  0
  4  2  1  0
  4  5  1  6
  6  4  1  0
  7  6  2  0
  9  8  1  0
  9 11  1  0
 10  9  2  0
 12 11  1  0
 12 13  1  0
 13 14  1  0
 15 14  1  1
 15 16  1  0
 16  6  1  0
 17 15  1  0
 17 18  2  0
 19 17  1  0
 20 19  1  0
 20 21  1  6
 21 22  1  0
 22 26  1  0
 22 23  2  0
 23 24  1  0
 25 24  1  0
 26 25  2  0
 27 20  1  0
 28 27  1  0
 29 27  2  0
M  END
$$$$
