VRH.pdb
     RDKit          3D

 29 29  0  0  1  0  0  0  0  0999 V2000
    8.5745  -13.2615   20.8921 C   0  0  0  0  0  0  0  0  0  0  0  0
    8.8577  -12.9421   19.4483 C   0  0  2  0  0  0  0  0  0  0  0  0
    7.8036  -12.0473   18.8421 C   0  0  0  0  0  0  0  0  0  0  0  0
    9.1516  -14.1462   18.6104 C   0  0  2  0  0  0  0  0  0  0  0  0
    7.8719  -14.8252   18.3360 N   0  0  0  0  0  0  0  0  0  0  0  0
   10.0627  -15.1304   19.1695 C   0  0  0  0  0  0  0  0  0  0  0  0
    9.5852  -16.0427   19.9261 O   0  0  0  0  0  0  0  0  0  0  0  0
   15.7750  -12.8353   17.5737 N   0  0  0  0  0  0  0  0  0  0  0  0
   16.1509  -13.8486   16.6465 C   0  0  0  0  0  0  0  0  0  0  0  0
   16.8516  -13.6151   15.5965 N   0  0  0  0  0  0  0  0  0  0  0  0
   15.7404  -15.2127   16.8696 N   0  0  0  0  0  0  0  0  0  0  0  0
   14.3685  -15.6115   16.8238 C   0  0  0  0  0  0  0  0  0  0  0  0
   13.6597  -15.0199   18.0363 C   0  0  0  0  0  0  0  0  0  0  0  0
   13.7402  -15.9122   19.2268 C   0  0  0  0  0  0  0  0  0  0  0  0
   12.3242  -16.0392   19.8166 C   0  0  2  0  0  0  0  0  0  0  0  0
   11.4697  -15.2253   18.9828 N   0  0  0  0  0  0  0  0  0  0  0  0
   12.4400  -15.6319   21.2077 C   0  0  0  0  0  0  0  0  0  0  0  0
   12.3045  -14.4127   21.4747 O   0  0  0  0  0  0  0  0  0  0  0  0
   17.1117  -14.3493   14.9164 N   0  0  0  0  0  0  0  0  0  0  0  0
   12.6981  -16.5002   22.3274 C   0  0  1  0  0  0  0  0  0  0  0  0
   11.7661  -16.5566   23.4369 C   0  0  0  0  0  0  0  0  0  0  0  0
   10.3399  -16.6847   23.0652 C   0  0  0  0  0  0  0  0  0  0  0  0
    9.3566  -16.7957   24.1189 C   0  0  0  0  0  0  0  0  0  0  0  0
    9.4950  -16.7569   25.4693 N   0  0  0  0  0  0  0  0  0  0  0  0
    8.2836  -16.8749   26.0734 C   0  0  0  0  0  0  0  0  0  0  0  0
    7.4035  -16.9857   25.0710 N   0  0  0  0  0  0  0  0  0  0  0  0
    8.0158  -16.9416   23.8859 C   0  0  0  0  0  0  0  0  0  0  0  0
   12.1983  -17.5664   24.4407 O   0  0  0  0  0  0  0  0  0  0  0  0
   12.2335  -17.2056   25.7601 O   0  0  0  0  0  0  0  0  0  0  0  0
  2  1  1  1
  3  2  1  0
  4  2  1  0
  4  5  1  1
  6  4  1  0
  7  6  2  0
  9  8  1  0
  9 11  1  0
 10  9  2  0
 12 11  1  0
 12 13  1  0
 13 14  1  0
 15 14  1  6
 15 16  1  0
 16  6  1  0
 17 15  1  0
 17 18  2  0
 19 17  1  0
 20 19  1  0
 20 21  1  1
 21 22  1  0
 22 26  1  0
 22 23  2  0
 23 24  1  0
 25 24  1  0
 26 25  2  0
 27 20  1  0
 28 27  1  0
 29 27  2  0
M  END
$$$$
