VRH.pdb
     RDKit          3D

 29 29  0  0  1  0  0  0  0  0999 V2000
    7.2232  -13.1745   20.7148 C   0  0  0  0  0  0  0  0  0  0  0  0
    8.3271  -12.9937   19.7072 C   0  0  2  0  0  0  0  0  0  0  0  0
    8.0477  -11.8617   18.7483 C   0  0  0  0  0  0  0  0  0  0  0  0
    8.7252  -14.2587   19.0149 C   0  0  2  0  0  0  0  0  0  0  0  0
    7.5820  -14.7007   18.1953 N   0  0  0  0  0  0  0  0  0  0  0  0
    9.1212  -15.3738   19.8581 C   0  0  0  0  0  0  0  0  0  0  0  0
    8.3963  -16.4261   19.8575 O   0  0  0  0  0  0  0  0  0  0  0  0
   16.0015  -20.4850   20.2524 N   0  0  0  0  0  0  0  0  0  0  0  0
   15.4124  -20.5698   21.5461 C   0  0  0  0  0  0  0  0  0  0  0  0
   15.8163  -21.3874   22.4496 N   0  0  0  0  0  0  0  0  0  0  0  0
   14.3072  -19.7094   21.8885 N   0  0  0  0  0  0  0  0  0  0  0  0
   13.6647  -18.8751   20.9218 C   0  0  0  0  0  0  0  0  0  0  0  0
   12.5455  -18.1119   21.6199 C   0  0  0  0  0  0  0  0  0  0  0  0
   11.6889  -17.3633   20.6578 C   0  0  0  0  0  0  0  0  0  0  0  0
   10.5853  -16.6541   21.4632 C   0  0  2  0  0  0  0  0  0  0  0  0
   10.2508  -15.4620   20.7182 N   0  0  0  0  0  0  0  0  0  0  0  0
   11.1398  -16.4465   22.7912 C   0  0  0  0  0  0  0  0  0  0  0  0
   12.0930  -15.6381   22.9086 O   0  0  0  0  0  0  0  0  0  0  0  0
   15.4215  -21.4131   23.4050 N   0  0  0  0  0  0  0  0  0  0  0  0
   10.6981  -17.0849   24.0044 C   0  0  2  0  0  0  0  0  0  0  0  0
   10.9281  -16.4506   25.2880 C   0  0  0  0  0  0  0  0  0  0  0  0
    9.7310  -15.8721   25.9367 C   0  0  0  0  0  0  0  0  0  0  0  0
    9.8737  -15.2695   27.2427 C   0  0  0  0  0  0  0  0  0  0  0  0
   10.9667  -15.1145   28.0337 N   0  0  0  0  0  0  0  0  0  0  0  0
   10.6353  -14.4587   29.1767 C   0  0  0  0  0  0  0  0  0  0  0  0
    9.3234  -14.2151   29.0710 N   0  0  0  0  0  0  0  0  0  0  0  0
    8.8370  -14.6889   27.9220 C   0  0  0  0  0  0  0  0  0  0  0  0
   11.7027  -17.3456   26.1897 O   0  0  0  0  0  0  0  0  0  0  0  0
   12.5228  -16.7803   27.1279 O   0  0  0  0  0  0  0  0  0  0  0  0
  2  1  1  6
  3  2  1  0
  4  2  1  0
  4  5  1  1
  6  4  1  0
  7  6  2  0
  9  8  1  0
  9 11  1  0
 10  9  2  0
 12 11  1  0
 12 13  1  0
 13 14  1  0
 15 14  1  6
 15 16  1  0
 16  6  1  0
 17 15  1  0
 17 18  2  0
 19 17  1  0
 20 19  1  0
 20 21  1  1
 21 22  1  0
 22 26  1  0
 22 23  2  0
 23 24  1  0
 25 24  1  0
 26 25  2  0
 27 20  1  0
 28 27  1  0
 29 27  2  0
M  END
$$$$
