VRH.pdb
     RDKit          3D

 29 29  0  0  1  0  0  0  0  0999 V2000
    7.4006  -12.5005   20.8149 C   0  0  0  0  0  0  0  0  0  0  0  0
    8.4596  -12.8857   19.8164 C   0  0  2  0  0  0  0  0  0  0  0  0
    8.4909  -11.9563   18.6272 C   0  0  0  0  0  0  0  0  0  0  0  0
    8.4244  -14.3296   19.4265 C   0  0  2  0  0  0  0  0  0  0  0  0
    7.2502  -14.5314   18.5579 N   0  0  0  0  0  0  0  0  0  0  0  0
    8.3482  -15.3007   20.5047 C   0  0  0  0  0  0  0  0  0  0  0  0
    7.1980  -15.7319   20.8566 O   0  0  0  0  0  0  0  0  0  0  0  0
   10.8532  -22.4865   25.8833 N   0  0  0  0  0  0  0  0  0  0  0  0
   11.1864  -21.4574   24.9570 C   0  0  0  0  0  0  0  0  0  0  0  0
   12.1715  -20.6520   25.1263 N   0  0  0  0  0  0  0  0  0  0  0  0
   10.3986  -21.2861   23.7617 N   0  0  0  0  0  0  0  0  0  0  0  0
   10.7326  -20.3202   22.7623 C   0  0  0  0  0  0  0  0  0  0  0  0
    9.9166  -19.0604   23.0256 C   0  0  0  0  0  0  0  0  0  0  0  0
   10.0909  -18.0418   21.9524 C   0  0  0  0  0  0  0  0  0  0  0  0
    9.2232  -16.8231   22.3146 C   0  0  2  0  0  0  0  0  0  0  0  0
    9.4196  -15.8632   21.2525 N   0  0  0  0  0  0  0  0  0  0  0  0
    9.6572  -16.4116   23.6399 C   0  0  0  0  0  0  0  0  0  0  0  0
   10.7715  -15.8425   23.7414 O   0  0  0  0  0  0  0  0  0  0  0  0
   12.4241  -19.9175   24.4437 N   0  0  0  0  0  0  0  0  0  0  0  0
    8.9255  -16.5940   24.8671 C   0  0  2  0  0  0  0  0  0  0  0  0
    9.4636  -16.0958   26.1181 C   0  0  0  0  0  0  0  0  0  0  0  0
    8.4843  -15.4550   27.0229 C   0  0  0  0  0  0  0  0  0  0  0  0
    7.6946  -14.3533   26.5209 C   0  0  0  0  0  0  0  0  0  0  0  0
    8.0712  -13.1647   25.9824 N   0  0  0  0  0  0  0  0  0  0  0  0
    6.9794  -12.4419   25.6193 C   0  0  0  0  0  0  0  0  0  0  0  0
    5.9306  -13.2076   25.9438 N   0  0  0  0  0  0  0  0  0  0  0  0
    6.3264  -14.3609   26.4867 C   0  0  0  0  0  0  0  0  0  0  0  0
   10.2845  -17.1371   26.7934 O   0  0  0  0  0  0  0  0  0  0  0  0
   10.9430  -16.8069   27.9465 O   0  0  0  0  0  0  0  0  0  0  0  0
  2  1  1  6
  3  2  1  0
  4  2  1  0
  4  5  1  6
  6  4  1  0
  7  6  2  0
  9  8  1  0
  9 11  1  0
 10  9  2  0
 12 11  1  0
 12 13  1  0
 13 14  1  0
 15 14  1  6
 15 16  1  0
 16  6  1  0
 17 15  1  0
 17 18  2  0
 19 17  1  0
 20 19  1  0
 20 21  1  6
 21 22  1  0
 22 26  1  0
 22 23  2  0
 23 24  1  0
 25 24  1  0
 26 25  2  0
 27 20  1  0
 28 27  1  0
 29 27  2  0
M  END
$$$$
