VRH.pdb
     RDKit          3D

 29 29  0  0  1  0  0  0  0  0999 V2000
    7.6440  -12.7856   21.0695 C   0  0  0  0  0  0  0  0  0  0  0  0
    8.6605  -12.9823   19.9764 C   0  0  2  0  0  0  0  0  0  0  0  0
    8.5487  -11.9349   18.8950 C   0  0  0  0  0  0  0  0  0  0  0  0
    8.7021  -14.3764   19.4351 C   0  0  2  0  0  0  0  0  0  0  0  0
    7.5028  -14.5693   18.5994 N   0  0  0  0  0  0  0  0  0  0  0  0
    8.7432  -15.4578   20.4046 C   0  0  0  0  0  0  0  0  0  0  0  0
    7.6533  -15.8116   20.9699 O   0  0  0  0  0  0  0  0  0  0  0  0
    8.4180  -22.3918   19.8910 N   0  0  0  0  0  0  0  0  0  0  0  0
    8.5621  -21.6428   18.6884 C   0  0  0  0  0  0  0  0  0  0  0  0
    7.8543  -21.8561   17.6389 N   0  0  0  0  0  0  0  0  0  0  0  0
    9.5415  -20.5872   18.6142 N   0  0  0  0  0  0  0  0  0  0  0  0
   10.3301  -20.2004   19.7419 C   0  0  0  0  0  0  0  0  0  0  0  0
    9.6968  -18.9617   20.3639 C   0  0  0  0  0  0  0  0  0  0  0  0
   10.5140  -18.4122   21.4819 C   0  0  0  0  0  0  0  0  0  0  0  0
    9.8453  -17.1102   21.9583 C   0  0  2  0  0  0  0  0  0  0  0  0
    9.8738  -16.2101   20.8283 N   0  0  0  0  0  0  0  0  0  0  0  0
   10.5939  -16.6907   23.1321 C   0  0  0  0  0  0  0  0  0  0  0  0
   11.2159  -15.6019   23.0723 O   0  0  0  0  0  0  0  0  0  0  0  0
    8.0244  -21.3801   16.7368 N   0  0  0  0  0  0  0  0  0  0  0  0
   10.6946  -17.4097   24.3760 C   0  0  2  0  0  0  0  0  0  0  0  0
   10.6926  -16.6918   25.6359 C   0  0  0  0  0  0  0  0  0  0  0  0
    9.6547  -15.6465   25.7721 C   0  0  0  0  0  0  0  0  0  0  0  0
    9.6165  -14.8620   26.9856 C   0  0  0  0  0  0  0  0  0  0  0  0
   10.4138  -14.8885   28.0847 N   0  0  0  0  0  0  0  0  0  0  0  0
   10.0202  -13.9437   28.9784 C   0  0  0  0  0  0  0  0  0  0  0  0
    8.9709  -13.3396   28.4078 N   0  0  0  0  0  0  0  0  0  0  0  0
    8.7036  -13.8676   27.2115 C   0  0  0  0  0  0  0  0  0  0  0  0
   10.7196  -17.6375   26.7843 O   0  0  0  0  0  0  0  0  0  0  0  0
   11.2759  -17.2215   27.9632 O   0  0  0  0  0  0  0  0  0  0  0  0
  2  1  1  1
  3  2  1  0
  4  2  1  0
  4  5  1  1
  6  4  1  0
  7  6  2  0
  9  8  1  0
  9 11  1  0
 10  9  2  0
 12 11  1  0
 12 13  1  0
 13 14  1  0
 15 14  1  6
 15 16  1  0
 16  6  1  0
 17 15  1  0
 17 18  2  0
 19 17  1  0
 20 19  1  0
 20 21  1  6
 21 22  1  0
 22 26  1  0
 22 23  2  0
 23 24  1  0
 25 24  1  0
 26 25  2  0
 27 20  1  0
 28 27  1  0
 29 27  2  0
M  END
$$$$
