VRH.pdb
     RDKit          3D

 29 29  0  0  1  0  0  0  0  0999 V2000
    9.0883  -12.2215   20.1667 C   0  0  0  0  0  0  0  0  0  0  0  0
    8.2966  -13.3299   19.5252 C   0  0  2  0  0  0  0  0  0  0  0  0
    7.7583  -14.3104   20.5391 C   0  0  0  0  0  0  0  0  0  0  0  0
    9.0045  -13.9971   18.3885 C   0  0  2  0  0  0  0  0  0  0  0  0
    8.0366  -14.8819   17.7145 N   0  0  0  0  0  0  0  0  0  0  0  0
   10.1748  -14.7927   18.7182 C   0  0  0  0  0  0  0  0  0  0  0  0
   10.0031  -15.9978   19.1067 O   0  0  0  0  0  0  0  0  0  0  0  0
   14.6596  -14.8722   14.0200 N   0  0  0  0  0  0  0  0  0  0  0  0
   15.5564  -15.4053   14.9892 C   0  0  0  0  0  0  0  0  0  0  0  0
   15.9230  -16.6355   15.0054 N   0  0  0  0  0  0  0  0  0  0  0  0
   16.0962  -14.5478   16.0149 N   0  0  0  0  0  0  0  0  0  0  0  0
   15.2658  -13.7040   16.8160 C   0  0  0  0  0  0  0  0  0  0  0  0
   14.0703  -14.5223   17.2888 C   0  0  0  0  0  0  0  0  0  0  0  0
   13.9219  -14.4981   18.7711 C   0  0  0  0  0  0  0  0  0  0  0  0
   12.6222  -15.2425   19.1263 C   0  0  2  0  0  0  0  0  0  0  0  0
   11.5415  -14.4018   18.6647 N   0  0  0  0  0  0  0  0  0  0  0  0
   12.6841  -15.4791   20.5597 C   0  0  0  0  0  0  0  0  0  0  0  0
   12.5593  -14.4902   21.3229 O   0  0  0  0  0  0  0  0  0  0  0  0
   16.5268  -17.0351   15.7437 N   0  0  0  0  0  0  0  0  0  0  0  0
   12.8769  -16.7538   21.2018 C   0  0  2  0  0  0  0  0  0  0  0  0
   12.8218  -16.8584   22.6470 C   0  0  0  0  0  0  0  0  0  0  0  0
   11.8181  -17.8057   23.1797 C   0  0  0  0  0  0  0  0  0  0  0  0
   11.8457  -18.1243   24.5894 C   0  0  0  0  0  0  0  0  0  0  0  0
   12.6253  -17.6441   25.5924 N   0  0  0  0  0  0  0  0  0  0  0  0
   12.2790  -18.2145   26.7761 C   0  0  0  0  0  0  0  0  0  0  0  0
   11.2757  -19.0496   26.4804 N   0  0  0  0  0  0  0  0  0  0  0  0
   10.9919  -19.0184   25.1766 C   0  0  0  0  0  0  0  0  0  0  0  0
   14.1807  -17.0710   23.2147 O   0  0  0  0  0  0  0  0  0  0  0  0
   15.2372  -17.2013   22.3550 O   0  0  0  0  0  0  0  0  0  0  0  0
  2  1  1  1
  3  2  1  0
  4  2  1  0
  4  5  1  1
  6  4  1  0
  7  6  2  0
  9  8  1  0
  9 11  1  0
 10  9  2  0
 12 11  1  0
 12 13  1  0
 13 14  1  0
 15 14  1  1
 15 16  1  0
 16  6  1  0
 17 15  1  0
 17 18  2  0
 19 17  1  0
 20 19  1  0
 20 21  1  6
 21 22  1  0
 22 26  1  0
 22 23  2  0
 23 24  1  0
 25 24  1  0
 26 25  2  0
 27 20  1  0
 28 27  1  0
 29 27  2  0
M  END
$$$$
