VRH.pdb
     RDKit          3D

 29 29  0  0  1  0  0  0  0  0999 V2000
    7.9540  -12.8772   27.2572 C   0  0  0  0  0  0  0  0  0  0  0  0
    6.6881  -12.5339   26.5179 C   0  0  2  0  0  0  0  0  0  0  0  0
    5.6848  -11.8276   27.3974 C   0  0  0  0  0  0  0  0  0  0  0  0
    6.0965  -13.6851   25.7677 C   0  0  2  0  0  0  0  0  0  0  0  0
    5.7023  -14.7082   26.7535 N   0  0  0  0  0  0  0  0  0  0  0  0
    6.9422  -14.3293   24.7771 C   0  0  0  0  0  0  0  0  0  0  0  0
    7.6495  -15.3305   25.1377 O   0  0  0  0  0  0  0  0  0  0  0  0
    9.6263  -15.4806   17.9758 N   0  0  0  0  0  0  0  0  0  0  0  0
    8.7175  -14.7208   17.1854 C   0  0  0  0  0  0  0  0  0  0  0  0
    8.6438  -14.8216   15.9078 N   0  0  0  0  0  0  0  0  0  0  0  0
    7.8238  -13.7848   17.8210 N   0  0  0  0  0  0  0  0  0  0  0  0
    8.1789  -13.0851   19.0158 C   0  0  0  0  0  0  0  0  0  0  0  0
    8.1437  -14.0735   20.1751 C   0  0  0  0  0  0  0  0  0  0  0  0
    8.3922  -13.4123   21.4869 C   0  0  0  0  0  0  0  0  0  0  0  0
    8.1914  -14.4660   22.5909 C   0  0  2  0  0  0  0  0  0  0  0  0
    7.0973  -13.9882   23.4048 N   0  0  0  0  0  0  0  0  0  0  0  0
    9.4790  -14.5897   23.2549 C   0  0  0  0  0  0  0  0  0  0  0  0
    9.7216  -13.8148   24.2123 O   0  0  0  0  0  0  0  0  0  0  0  0
    7.9853  -14.2673   15.3347 N   0  0  0  0  0  0  0  0  0  0  0  0
   10.5202  -15.5268   22.9196 C   0  0  2  0  0  0  0  0  0  0  0  0
   11.2851  -16.1734   23.9683 C   0  0  0  0  0  0  0  0  0  0  0  0
   10.4912  -16.7278   25.0867 C   0  0  0  0  0  0  0  0  0  0  0  0
   10.4620  -16.0073   26.3395 C   0  0  0  0  0  0  0  0  0  0  0  0
   10.9548  -14.7864   26.6726 N   0  0  0  0  0  0  0  0  0  0  0  0
   10.6686  -14.4976   27.9691 C   0  0  0  0  0  0  0  0  0  0  0  0
    9.9931  -15.5605   28.4222 N   0  0  0  0  0  0  0  0  0  0  0  0
    9.8525  -16.4836   27.4686 C   0  0  0  0  0  0  0  0  0  0  0  0
   12.2457  -17.1544   23.3948 O   0  0  0  0  0  0  0  0  0  0  0  0
   11.9830  -17.6847   22.1611 O   0  0  0  0  0  0  0  0  0  0  0  0
  2  1  1  1
  3  2  1  0
  4  2  1  0
  4  5  1  1
  6  4  1  0
  7  6  2  0
  9  8  1  0
  9 11  1  0
 10  9  2  0
 12 11  1  0
 12 13  1  0
 13 14  1  0
 15 14  1  6
 15 16  1  0
 16  6  1  0
 17 15  1  0
 17 18  2  0
 19 17  1  0
 20 19  1  0
 20 21  1  1
 21 22  1  0
 22 26  1  0
 22 23  2  0
 23 24  1  0
 25 24  1  0
 26 25  2  0
 27 20  1  0
 28 27  1  0
 29 27  2  0
M  END
$$$$
