KVT.pdb
     RDKit          3D

 24 23  0  0  1  0  0  0  0  0999 V2000
   21.2843  -14.7815  -19.3960 N   0  0  0  0  0  0  0  0  0  0  0  0
   20.4901  -13.8278  -18.6768 C   0  0  1  0  0  0  0  0  0  0  0  0
   20.1087  -14.3976  -17.3447 C   0  0  0  0  0  0  0  0  0  0  0  0
   19.1905  -15.5720  -17.4391 C   0  0  0  0  0  0  0  0  0  0  0  0
   18.6075  -15.9895  -16.1269 C   0  0  0  0  0  0  0  0  0  0  0  0
   17.5321  -17.0457  -16.2675 C   0  0  0  0  0  0  0  0  0  0  0  0
   17.0756  -17.3438  -14.9028 N   0  0  0  0  0  0  0  0  0  0  0  0
   21.2876  -12.5682  -18.3948 C   0  0  0  0  0  0  0  0  0  0  0  0
   22.4774  -12.6682  -18.0223 O   0  0  0  0  0  0  0  0  0  0  0  0
   22.2935  -10.2666  -20.7242 C   0  0  0  0  0  0  0  0  0  0  0  0
   21.6014   -9.3363  -19.7224 C   0  0  1  0  0  0  0  0  0  0  0  0
   20.2594   -9.0558  -20.4829 C   0  0  0  0  0  0  0  0  0  0  0  0
   21.2625   -9.9935  -18.4175 C   0  0  2  0  0  0  0  0  0  0  0  0
   20.6904  -11.3203  -18.5526 N   0  0  0  0  0  0  0  0  0  0  0  0
   20.5477   -9.2038  -17.4223 C   0  0  0  0  0  0  0  0  0  0  0  0
   19.2704   -8.9926  -17.5427 O   0  0  0  0  0  0  0  0  0  0  0  0
   20.4691   -9.7055  -13.6378 C   0  0  0  0  0  0  0  0  0  0  0  0
   20.8178   -8.2574  -13.9179 C   0  0  1  0  0  0  0  0  0  0  0  0
   22.1851   -8.1246  -13.8840 O   0  0  0  0  0  0  0  0  0  0  0  0
   20.2401   -7.8852  -15.2916 C   0  0  2  0  0  0  0  0  0  0  0  0
   21.0878   -8.5986  -16.2595 N   0  0  0  0  0  0  0  0  0  0  0  0
   20.4672   -6.4258  -15.4364 C   0  0  0  0  0  0  0  0  0  0  0  0
   21.3234   -5.9580  -16.2403 O   0  0  0  0  0  0  0  0  0  0  0  0
   19.7651   -5.4717  -14.7090 O   0  0  0  0  0  0  0  0  0  0  0  0
  2  1  1  1
  3  2  1  0
  4  3  1  0
  5  6  1  0
  5  4  1  0
  7  6  1  0
  8 14  1  0
  8  2  1  0
  9  8  2  0
 11 10  1  6
 11 12  1  0
 13 14  1  6
 13 11  1  0
 15 13  1  0
 16 15  2  0
 18 17  1  6
 18 19  1  0
 18 20  1  0
 20 22  1  0
 20 21  1  6
 21 15  1  0
 22 24  1  0
 23 22  2  0
M  END
$$$$
