KVT.pdb
     RDKit          3D

 24 23  0  0  1  0  0  0  0  0999 V2000
   18.2050  -12.8256  -17.2142 N   0  0  0  0  0  0  0  0  0  0  0  0
   19.1207  -11.8295  -17.6903 C   0  0  1  0  0  0  0  0  0  0  0  0
   18.3751  -10.8065  -18.4916 C   0  0  0  0  0  0  0  0  0  0  0  0
   17.4868  -11.3988  -19.5363 C   0  0  0  0  0  0  0  0  0  0  0  0
   16.8971  -10.3903  -20.4698 C   0  0  0  0  0  0  0  0  0  0  0  0
   16.0465  -11.0160  -21.5547 C   0  0  0  0  0  0  0  0  0  0  0  0
   15.4456   -9.8974  -22.2945 N   0  0  0  0  0  0  0  0  0  0  0  0
   19.7586  -11.0878  -16.5305 C   0  0  0  0  0  0  0  0  0  0  0  0
   19.0703  -10.8260  -15.5193 O   0  0  0  0  0  0  0  0  0  0  0  0
   24.1531  -10.2411  -14.3163 C   0  0  0  0  0  0  0  0  0  0  0  0
   23.2613  -10.8430  -15.4074 C   0  0  1  0  0  0  0  0  0  0  0  0
   22.9626  -12.2485  -14.7802 C   0  0  0  0  0  0  0  0  0  0  0  0
   21.9535  -10.1302  -15.5843 C   0  0  2  0  0  0  0  0  0  0  0  0
   21.0962  -10.7080  -16.6026 N   0  0  0  0  0  0  0  0  0  0  0  0
   21.9767   -8.6752  -15.6699 C   0  0  0  0  0  0  0  0  0  0  0  0
   22.4630   -8.0851  -16.7215 O   0  0  0  0  0  0  0  0  0  0  0  0
   19.3923   -6.2132  -14.0112 C   0  0  0  0  0  0  0  0  0  0  0  0
   20.3156   -5.7297  -15.1117 C   0  0  1  0  0  0  0  0  0  0  0  0
   20.3156   -4.3556  -15.1073 O   0  0  0  0  0  0  0  0  0  0  0  0
   21.7154   -6.3033  -14.8458 C   0  0  2  0  0  0  0  0  0  0  0  0
   21.5048   -7.7523  -14.7027 N   0  0  0  0  0  0  0  0  0  0  0  0
   22.1315   -5.7453  -13.5351 C   0  0  0  0  0  0  0  0  0  0  0  0
   22.6026   -4.5774  -13.4239 O   0  0  0  0  0  0  0  0  0  0  0  0
   22.0367   -6.4539  -12.3430 O   0  0  0  0  0  0  0  0  0  0  0  0
  2  1  1  1
  3  2  1  0
  4  3  1  0
  5  6  1  0
  5  4  1  0
  7  6  1  0
  8 14  1  0
  8  2  1  0
  9  8  2  0
 11 10  1  1
 11 12  1  0
 13 14  1  6
 13 11  1  0
 15 13  1  0
 16 15  2  0
 18 17  1  1
 18 19  1  0
 18 20  1  0
 20 22  1  0
 20 21  1  1
 21 15  1  0
 22 24  1  0
 23 22  2  0
M  END
$$$$
