KVT.pdb
     RDKit          3D

 24 23  0  0  1  0  0  0  0  0999 V2000
   28.6629  -21.9101  -15.7890 N   0  0  0  0  0  0  0  0  0  0  0  0
   27.9749  -20.8155  -15.1676 C   0  0  1  0  0  0  0  0  0  0  0  0
   27.3867  -19.9301  -16.2234 C   0  0  0  0  0  0  0  0  0  0  0  0
   28.4082  -19.3133  -17.1217 C   0  0  0  0  0  0  0  0  0  0  0  0
   27.8323  -18.3856  -18.1434 C   0  0  0  0  0  0  0  0  0  0  0  0
   28.8903  -17.6977  -18.9797 C   0  0  0  0  0  0  0  0  0  0  0  0
   28.1632  -16.8762  -19.9577 N   0  0  0  0  0  0  0  0  0  0  0  0
   26.8141  -21.3169  -14.3291 C   0  0  0  0  0  0  0  0  0  0  0  0
   26.2576  -22.3939  -14.6371 O   0  0  0  0  0  0  0  0  0  0  0  0
   24.7451  -20.9129   -9.7679 C   0  0  0  0  0  0  0  0  0  0  0  0
   25.7757  -20.5173  -10.8306 C   0  0  1  0  0  0  0  0  0  0  0  0
   26.9818  -21.4220  -10.4006 C   0  0  0  0  0  0  0  0  0  0  0  0
   25.3862  -20.9020  -12.2270 C   0  0  2  0  0  0  0  0  0  0  0  0
   26.3821  -20.5775  -13.2312 N   0  0  0  0  0  0  0  0  0  0  0  0
   24.0430  -20.5598  -12.6784 C   0  0  0  0  0  0  0  0  0  0  0  0
   23.6863  -19.3154  -12.8001 O   0  0  0  0  0  0  0  0  0  0  0  0
   19.8513  -21.6948  -14.9978 C   0  0  0  0  0  0  0  0  0  0  0  0
   21.2416  -22.0600  -14.5174 C   0  0  1  0  0  0  0  0  0  0  0  0
   22.0716  -22.1427  -15.6094 O   0  0  0  0  0  0  0  0  0  0  0  0
   21.7031  -20.9796  -13.5279 C   0  0  2  0  0  0  0  0  0  0  0  0
   23.0038  -21.4566  -13.0331 N   0  0  0  0  0  0  0  0  0  0  0  0
   20.7221  -21.0145  -12.4149 C   0  0  0  0  0  0  0  0  0  0  0  0
   20.7604  -21.9030  -11.5164 O   0  0  0  0  0  0  0  0  0  0  0  0
   19.6980  -20.0850  -12.2752 O   0  0  0  0  0  0  0  0  0  0  0  0
  2  1  1  6
  3  2  1  0
  4  3  1  0
  5  6  1  0
  5  4  1  0
  7  6  1  0
  8 14  1  0
  8  2  1  0
  9  8  2  0
 11 10  1  1
 11 12  1  0
 13 14  1  6
 13 11  1  0
 15 13  1  0
 16 15  2  0
 18 17  1  6
 18 19  1  0
 18 20  1  0
 20 22  1  0
 20 21  1  1
 21 15  1  0
 22 24  1  0
 23 22  2  0
M  END
$$$$
