KVT.pdb
     RDKit          3D

 24 23  0  0  1  0  0  0  0  0999 V2000
   25.8989  -23.2138  -14.8964 N   0  0  0  0  0  0  0  0  0  0  0  0
   25.2195  -21.9523  -14.8300 C   0  0  1  0  0  0  0  0  0  0  0  0
   24.7772  -21.5493  -16.2035 C   0  0  0  0  0  0  0  0  0  0  0  0
   25.7533  -21.9112  -17.2746 C   0  0  0  0  0  0  0  0  0  0  0  0
   26.5105  -20.7432  -17.8211 C   0  0  0  0  0  0  0  0  0  0  0  0
   27.4239  -21.1163  -18.9693 C   0  0  0  0  0  0  0  0  0  0  0  0
   28.0732  -19.8679  -19.3931 N   0  0  0  0  0  0  0  0  0  0  0  0
   23.9627  -22.0626  -13.9871 C   0  0  0  0  0  0  0  0  0  0  0  0
   23.3237  -23.1378  -13.9798 O   0  0  0  0  0  0  0  0  0  0  0  0
   21.6217  -20.0281  -10.0372 C   0  0  0  0  0  0  0  0  0  0  0  0
   22.7393  -20.0321  -11.0854 C   0  0  1  0  0  0  0  0  0  0  0  0
   23.8763  -20.7495  -10.2788 C   0  0  0  0  0  0  0  0  0  0  0  0
   22.4352  -20.8668  -12.2940 C   0  0  2  0  0  0  0  0  0  0  0  0
   23.5354  -20.9720  -13.2342 N   0  0  0  0  0  0  0  0  0  0  0  0
   21.1689  -20.6378  -12.9789 C   0  0  0  0  0  0  0  0  0  0  0  0
   21.0185  -19.6079  -13.7581 O   0  0  0  0  0  0  0  0  0  0  0  0
   16.7291  -22.2342  -14.4926 C   0  0  0  0  0  0  0  0  0  0  0  0
   18.0588  -22.4857  -13.8100 C   0  0  1  0  0  0  0  0  0  0  0  0
   18.7503  -23.4246  -14.5369 O   0  0  0  0  0  0  0  0  0  0  0  0
   18.8147  -21.1508  -13.7325 C   0  0  2  0  0  0  0  0  0  0  0  0
   20.0020  -21.4405  -12.9135 N   0  0  0  0  0  0  0  0  0  0  0  0
   17.9237  -20.2322  -12.9811 C   0  0  0  0  0  0  0  0  0  0  0  0
   17.8956  -20.2116  -11.7174 O   0  0  0  0  0  0  0  0  0  0  0  0
   17.0617  -19.3344  -13.6001 O   0  0  0  0  0  0  0  0  0  0  0  0
  2  1  1  6
  3  2  1  0
  4  3  1  0
  5  6  1  0
  5  4  1  0
  7  6  1  0
  8 14  1  0
  8  2  1  0
  9  8  2  0
 11 10  1  1
 11 12  1  0
 13 14  1  6
 13 11  1  0
 15 13  1  0
 16 15  2  0
 18 17  1  6
 18 19  1  0
 18 20  1  0
 20 22  1  0
 20 21  1  1
 21 15  1  0
 22 24  1  0
 23 22  2  0
M  END
$$$$
