KVT.pdb
     RDKit          3D

 24 23  0  0  1  0  0  0  0  0999 V2000
   19.5126  -15.1158  -16.6399 N   0  0  0  0  0  0  0  0  0  0  0  0
   19.1902  -13.7770  -17.0414 C   0  0  1  0  0  0  0  0  0  0  0  0
   17.7771  -13.4649  -16.6535 C   0  0  0  0  0  0  0  0  0  0  0  0
   16.7798  -14.4298  -17.2061 C   0  0  0  0  0  0  0  0  0  0  0  0
   15.3749  -14.1624  -16.7693 C   0  0  0  0  0  0  0  0  0  0  0  0
   14.3658  -15.0737  -17.4351 C   0  0  0  0  0  0  0  0  0  0  0  0
   14.3794  -14.7203  -18.8615 N   0  0  0  0  0  0  0  0  0  0  0  0
   20.0680  -12.7729  -16.3180 C   0  0  0  0  0  0  0  0  0  0  0  0
   20.3099  -12.9366  -15.1018 O   0  0  0  0  0  0  0  0  0  0  0  0
   23.5436   -9.2362  -16.7210 C   0  0  0  0  0  0  0  0  0  0  0  0
   22.7131  -10.4228  -17.2215 C   0  0  1  0  0  0  0  0  0  0  0  0
   23.6302  -11.6135  -16.7754 C   0  0  0  0  0  0  0  0  0  0  0  0
   21.3917  -10.5744  -16.5282 C   0  0  2  0  0  0  0  0  0  0  0  0
   20.5927  -11.6852  -17.0111 N   0  0  0  0  0  0  0  0  0  0  0  0
   20.5811   -9.3779  -16.3376 C   0  0  0  0  0  0  0  0  0  0  0  0
   20.1543   -8.7016  -17.3628 O   0  0  0  0  0  0  0  0  0  0  0  0
   17.3301   -8.8616  -14.4722 C   0  0  0  0  0  0  0  0  0  0  0  0
   18.3201   -7.8391  -13.9513 C   0  0  1  0  0  0  0  0  0  0  0  0
   18.8957   -8.3349  -12.8062 O   0  0  0  0  0  0  0  0  0  0  0  0
   19.3615   -7.5810  -15.0504 C   0  0  2  0  0  0  0  0  0  0  0  0
   20.1600   -8.8154  -15.1062 N   0  0  0  0  0  0  0  0  0  0  0  0
   20.2138   -6.4787  -14.5397 C   0  0  0  0  0  0  0  0  0  0  0  0
   21.3893   -6.6805  -14.1205 O   0  0  0  0  0  0  0  0  0  0  0  0
   19.7917   -5.1555  -14.4834 O   0  0  0  0  0  0  0  0  0  0  0  0
  2  1  1  1
  3  2  1  0
  4  3  1  0
  5  6  1  0
  5  4  1  0
  7  6  1  0
  8 14  1  0
  8  2  1  0
  9  8  2  0
 11 10  1  1
 11 12  1  0
 13 14  1  6
 13 11  1  0
 15 13  1  0
 16 15  2  0
 18 17  1  6
 18 19  1  0
 18 20  1  0
 20 22  1  0
 20 21  1  1
 21 15  1  0
 22 24  1  0
 23 22  2  0
M  END
$$$$
