KVT.pdb
     RDKit          3D

 24 23  0  0  1  0  0  0  0  0999 V2000
   20.0802  -15.7065  -16.7514 N   0  0  0  0  0  0  0  0  0  0  0  0
   19.6963  -14.3622  -17.0723 C   0  0  1  0  0  0  0  0  0  0  0  0
   18.3564  -14.0673  -16.4705 C   0  0  0  0  0  0  0  0  0  0  0  0
   17.3430  -15.1363  -16.7181 C   0  0  0  0  0  0  0  0  0  0  0  0
   15.9971  -14.8382  -16.1384 C   0  0  0  0  0  0  0  0  0  0  0  0
   14.9947  -15.9487  -16.3707 C   0  0  0  0  0  0  0  0  0  0  0  0
   13.7898  -15.5711  -15.6189 N   0  0  0  0  0  0  0  0  0  0  0  0
   20.6691  -13.3668  -16.4683 C   0  0  0  0  0  0  0  0  0  0  0  0
   21.1349  -13.5821  -15.3275 O   0  0  0  0  0  0  0  0  0  0  0  0
   23.8899  -12.5763  -17.6798 C   0  0  0  0  0  0  0  0  0  0  0  0
   23.2408  -11.1904  -17.6026 C   0  0  1  0  0  0  0  0  0  0  0  0
   22.9035  -10.9553  -19.1155 C   0  0  0  0  0  0  0  0  0  0  0  0
   21.9529  -11.1650  -16.8342 C   0  0  2  0  0  0  0  0  0  0  0  0
   21.0318  -12.2298  -17.1855 N   0  0  0  0  0  0  0  0  0  0  0  0
   21.2644   -9.8871  -16.7006 C   0  0  0  0  0  0  0  0  0  0  0  0
   20.5268   -9.4320  -17.6698 O   0  0  0  0  0  0  0  0  0  0  0  0
   19.1045   -8.7249  -13.7030 C   0  0  0  0  0  0  0  0  0  0  0  0
   20.0889   -7.6289  -14.0590 C   0  0  1  0  0  0  0  0  0  0  0  0
   21.1818   -7.7407  -13.2336 O   0  0  0  0  0  0  0  0  0  0  0  0
   20.4693   -7.7919  -15.5382 C   0  0  2  0  0  0  0  0  0  0  0  0
   21.2839   -9.0162  -15.5820 N   0  0  0  0  0  0  0  0  0  0  0  0
   21.3321   -6.6275  -15.8576 C   0  0  0  0  0  0  0  0  0  0  0  0
   22.5791   -6.7453  -16.0287 O   0  0  0  0  0  0  0  0  0  0  0  0
   20.8428   -5.3334  -15.9920 O   0  0  0  0  0  0  0  0  0  0  0  0
  2  1  1  1
  3  2  1  0
  4  3  1  0
  5  6  1  0
  5  4  1  0
  7  6  1  0
  8 14  1  0
  8  2  1  0
  9  8  2  0
 11 10  1  6
 11 12  1  0
 13 14  1  6
 13 11  1  0
 15 13  1  0
 16 15  2  0
 18 17  1  1
 18 19  1  0
 18 20  1  0
 20 22  1  0
 20 21  1  1
 21 15  1  0
 22 24  1  0
 23 22  2  0
M  END
$$$$
