KVT.pdb
     RDKit          3D

 24 23  0  0  1  0  0  0  0  0999 V2000
   19.0780  -14.6777  -17.8696 N   0  0  0  0  0  0  0  0  0  0  0  0
   19.8802  -13.5395  -18.2141 C   0  0  1  0  0  0  0  0  0  0  0  0
   19.1474  -12.6940  -19.2104 C   0  0  0  0  0  0  0  0  0  0  0  0
   18.8224  -13.4131  -20.4786 C   0  0  0  0  0  0  0  0  0  0  0  0
   18.1306  -12.5619  -21.4950 C   0  0  0  0  0  0  0  0  0  0  0  0
   17.7945  -13.3140  -22.7652 C   0  0  0  0  0  0  0  0  0  0  0  0
   19.0816  -13.6973  -23.3621 N   0  0  0  0  0  0  0  0  0  0  0  0
   20.1203  -12.6636  -16.9987 C   0  0  0  0  0  0  0  0  0  0  0  0
   19.1840  -12.4648  -16.1936 O   0  0  0  0  0  0  0  0  0  0  0  0
   24.3396  -11.3846  -16.0870 C   0  0  0  0  0  0  0  0  0  0  0  0
   23.1516  -11.5939  -15.1421 C   0  0  1  0  0  0  0  0  0  0  0  0
   23.4982  -10.5524  -14.0227 C   0  0  0  0  0  0  0  0  0  0  0  0
   21.8288  -11.2093  -15.7355 C   0  0  2  0  0  0  0  0  0  0  0  0
   21.3736  -12.0930  -16.7925 N   0  0  0  0  0  0  0  0  0  0  0  0
   21.6198   -9.8094  -16.0841 C   0  0  0  0  0  0  0  0  0  0  0  0
   22.3288   -9.2509  -17.0201 O   0  0  0  0  0  0  0  0  0  0  0  0
   18.6786   -8.1263  -17.4498 C   0  0  0  0  0  0  0  0  0  0  0  0
   19.0572   -7.3250  -16.2203 C   0  0  1  0  0  0  0  0  0  0  0  0
   18.2979   -7.7654  -15.1631 O   0  0  0  0  0  0  0  0  0  0  0  0
   20.5595   -7.5213  -15.9674 C   0  0  2  0  0  0  0  0  0  0  0  0
   20.6828   -8.9139  -15.5095 N   0  0  0  0  0  0  0  0  0  0  0  0
   20.8956   -6.6129  -14.8430 C   0  0  0  0  0  0  0  0  0  0  0  0
   20.9713   -5.3601  -14.9942 O   0  0  0  0  0  0  0  0  0  0  0  0
   21.1498   -7.0630  -13.5526 O   0  0  0  0  0  0  0  0  0  0  0  0
  2  1  1  1
  3  2  1  0
  4  3  1  0
  5  6  1  0
  5  4  1  0
  7  6  1  0
  8 14  1  0
  8  2  1  0
  9  8  2  0
 11 10  1  6
 11 12  1  0
 13 14  1  6
 13 11  1  0
 15 13  1  0
 16 15  2  0
 18 17  1  6
 18 19  1  0
 18 20  1  0
 20 22  1  0
 20 21  1  1
 21 15  1  0
 22 24  1  0
 23 22  2  0
M  END
$$$$
