KVT.pdb
     RDKit          3D

 24 23  0  0  1  0  0  0  0  0999 V2000
   23.6372  -20.6532  -15.6935 N   0  0  0  0  0  0  0  0  0  0  0  0
   23.7398  -19.2277  -15.8157 C   0  0  1  0  0  0  0  0  0  0  0  0
   24.9222  -18.8825  -16.6686 C   0  0  0  0  0  0  0  0  0  0  0  0
   26.2238  -19.3424  -16.0981 C   0  0  0  0  0  0  0  0  0  0  0  0
   26.5542  -20.7653  -16.4182 C   0  0  0  0  0  0  0  0  0  0  0  0
   27.8494  -20.9122  -17.1881 C   0  0  0  0  0  0  0  0  0  0  0  0
   28.5244  -22.0899  -16.6250 N   0  0  0  0  0  0  0  0  0  0  0  0
   22.5208  -18.6595  -16.5179 C   0  0  0  0  0  0  0  0  0  0  0  0
   21.8001  -19.4187  -17.2026 O   0  0  0  0  0  0  0  0  0  0  0  0
   19.4433  -17.0321  -14.9499 C   0  0  0  0  0  0  0  0  0  0  0  0
   19.7456  -17.1679  -16.4459 C   0  0  1  0  0  0  0  0  0  0  0  0
   18.6012  -16.2788  -17.0440 C   0  0  0  0  0  0  0  0  0  0  0  0
   21.0574  -16.5682  -16.8572 C   0  0  2  0  0  0  0  0  0  0  0  0
   22.2179  -17.3060  -16.3941 N   0  0  0  0  0  0  0  0  0  0  0  0
   21.2345  -15.1318  -16.6824 C   0  0  0  0  0  0  0  0  0  0  0  0
   21.2988  -14.6165  -15.4904 O   0  0  0  0  0  0  0  0  0  0  0  0
   23.5050  -12.4828  -18.8037 C   0  0  0  0  0  0  0  0  0  0  0  0
   22.0461  -12.0920  -18.6768 C   0  0  1  0  0  0  0  0  0  0  0  0
   21.3780  -12.5366  -19.7923 O   0  0  0  0  0  0  0  0  0  0  0  0
   21.4940  -12.7223  -17.3895 C   0  0  2  0  0  0  0  0  0  0  0  0
   21.3613  -14.1539  -17.7011 N   0  0  0  0  0  0  0  0  0  0  0  0
   20.1405  -12.1407  -17.2106 C   0  0  0  0  0  0  0  0  0  0  0  0
   19.0919  -12.7816  -17.5070 O   0  0  0  0  0  0  0  0  0  0  0  0
   19.9228  -10.8624  -16.7096 O   0  0  0  0  0  0  0  0  0  0  0  0
  2  1  1  6
  3  2  1  0
  4  3  1  0
  5  6  1  0
  5  4  1  0
  7  6  1  0
  8 14  1  0
  8  2  1  0
  9  8  2  0
 11 10  1  1
 11 12  1  0
 13 14  1  1
 13 11  1  0
 15 13  1  0
 16 15  2  0
 18 17  1  6
 18 19  1  0
 18 20  1  0
 20 22  1  0
 20 21  1  6
 21 15  1  0
 22 24  1  0
 23 22  2  0
M  END
$$$$
