KVT.pdb
     RDKit          3D

 24 23  0  0  1  0  0  0  0  0999 V2000
   28.2020  -21.2340  -15.9187 N   0  0  0  0  0  0  0  0  0  0  0  0
   27.7878  -20.2996  -14.9123 C   0  0  1  0  0  0  0  0  0  0  0  0
   27.3944  -19.0076  -15.5606 C   0  0  0  0  0  0  0  0  0  0  0  0
   27.4354  -19.0523  -17.0531 C   0  0  0  0  0  0  0  0  0  0  0  0
   28.0377  -17.8343  -17.6773 C   0  0  0  0  0  0  0  0  0  0  0  0
   29.4943  -18.0186  -18.0464 C   0  0  0  0  0  0  0  0  0  0  0  0
   29.5021  -18.5285  -19.4247 N   0  0  0  0  0  0  0  0  0  0  0  0
   26.5592  -20.8071  -14.1810 C   0  0  0  0  0  0  0  0  0  0  0  0
   25.8361  -21.6701  -14.7259 O   0  0  0  0  0  0  0  0  0  0  0  0
   24.4188  -20.9473   -9.6002 C   0  0  0  0  0  0  0  0  0  0  0  0
   25.4796  -20.4083  -10.5658 C   0  0  1  0  0  0  0  0  0  0  0  0
   26.7073  -21.2919  -10.1537 C   0  0  0  0  0  0  0  0  0  0  0  0
   25.1803  -20.6806  -12.0101 C   0  0  2  0  0  0  0  0  0  0  0  0
   26.2502  -20.3099  -12.9176 N   0  0  0  0  0  0  0  0  0  0  0  0
   23.8792  -20.2720  -12.5250 C   0  0  0  0  0  0  0  0  0  0  0  0
   23.5544  -19.0138  -12.5701 O   0  0  0  0  0  0  0  0  0  0  0  0
   22.1834  -20.5489  -15.8060 C   0  0  0  0  0  0  0  0  0  0  0  0
   21.2654  -21.2087  -14.7965 C   0  0  1  0  0  0  0  0  0  0  0  0
   21.5129  -22.5603  -14.8015 O   0  0  0  0  0  0  0  0  0  0  0  0
   21.5396  -20.5813  -13.4216 C   0  0  2  0  0  0  0  0  0  0  0  0
   22.8521  -21.1130  -13.0230 N   0  0  0  0  0  0  0  0  0  0  0  0
   20.5009  -21.1349  -12.5176 C   0  0  0  0  0  0  0  0  0  0  0  0
   20.7703  -22.0076  -11.6434 O   0  0  0  0  0  0  0  0  0  0  0  0
   19.1683  -20.7420  -12.5608 O   0  0  0  0  0  0  0  0  0  0  0  0
  2  1  1  6
  3  2  1  0
  4  3  1  0
  5  6  1  0
  5  4  1  0
  7  6  1  0
  8 14  1  0
  8  2  1  0
  9  8  2  0
 11 10  1  1
 11 12  1  0
 13 14  1  6
 13 11  1  0
 15 13  1  0
 16 15  2  0
 18 17  1  6
 18 19  1  0
 18 20  1  0
 20 22  1  0
 20 21  1  1
 21 15  1  0
 22 24  1  0
 23 22  2  0
M  END
$$$$
