KVT.pdb
     RDKit          3D

 24 23  0  0  1  0  0  0  0  0999 V2000
   15.4870  -10.7498  -17.0356 N   0  0  0  0  0  0  0  0  0  0  0  0
   16.2060  -10.2674  -15.8920 C   0  0  1  0  0  0  0  0  0  0  0  0
   17.1953  -11.3021  -15.4501 C   0  0  0  0  0  0  0  0  0  0  0  0
   16.5703  -12.4652  -14.7518 C   0  0  0  0  0  0  0  0  0  0  0  0
   16.7891  -13.7731  -15.4429 C   0  0  0  0  0  0  0  0  0  0  0  0
   16.1832  -14.9435  -14.6980 C   0  0  0  0  0  0  0  0  0  0  0  0
   16.3754  -16.1171  -15.5615 N   0  0  0  0  0  0  0  0  0  0  0  0
   17.0066   -9.0277  -16.2443 C   0  0  0  0  0  0  0  0  0  0  0  0
   17.4518   -8.8968  -17.4059 O   0  0  0  0  0  0  0  0  0  0  0  0
   17.4809   -4.2320  -15.6199 C   0  0  0  0  0  0  0  0  0  0  0  0
   16.8478   -5.6271  -15.5869 C   0  0  1  0  0  0  0  0  0  0  0  0
   16.2869   -5.7139  -17.0484 C   0  0  0  0  0  0  0  0  0  0  0  0
   17.8381   -6.7392  -15.4069 C   0  0  2  0  0  0  0  0  0  0  0  0
   17.2367   -8.0533  -15.2766 N   0  0  0  0  0  0  0  0  0  0  0  0
   18.9113   -6.5458  -14.4395 C   0  0  0  0  0  0  0  0  0  0  0  0
   18.6398   -6.3852  -13.1782 O   0  0  0  0  0  0  0  0  0  0  0  0
   21.7509   -8.6302  -13.3267 C   0  0  0  0  0  0  0  0  0  0  0  0
   22.3528   -7.3191  -13.7914 C   0  0  1  0  0  0  0  0  0  0  0  0
   22.7582   -7.4647  -15.0963 O   0  0  0  0  0  0  0  0  0  0  0  0
   21.2850   -6.2251  -13.6422 C   0  0  2  0  0  0  0  0  0  0  0  0
   20.3044   -6.5127  -14.7005 N   0  0  0  0  0  0  0  0  0  0  0  0
   21.9752   -4.9499  -13.9587 C   0  0  0  0  0  0  0  0  0  0  0  0
   21.7926   -4.3435  -15.0528 O   0  0  0  0  0  0  0  0  0  0  0  0
   22.8645   -4.3309  -13.0880 O   0  0  0  0  0  0  0  0  0  0  0  0
  2  1  1  6
  3  2  1  0
  4  3  1  0
  5  6  1  0
  5  4  1  0
  7  6  1  0
  8 14  1  0
  8  2  1  0
  9  8  2  0
 11 10  1  6
 11 12  1  0
 13 14  1  1
 13 11  1  0
 15 13  1  0
 16 15  2  0
 18 17  1  6
 18 19  1  0
 18 20  1  0
 20 22  1  0
 20 21  1  6
 21 15  1  0
 22 24  1  0
 23 22  2  0
M  END
$$$$
