KVT.pdb
     RDKit          3D

 24 23  0  0  1  0  0  0  0  0999 V2000
   27.8021  -22.8059  -16.2156 N   0  0  0  0  0  0  0  0  0  0  0  0
   27.2213  -21.5561  -15.8176 C   0  0  1  0  0  0  0  0  0  0  0  0
   26.5254  -20.9324  -16.9887 C   0  0  0  0  0  0  0  0  0  0  0  0
   27.4502  -20.2267  -17.9255 C   0  0  0  0  0  0  0  0  0  0  0  0
   28.8025  -20.8567  -18.0278 C   0  0  0  0  0  0  0  0  0  0  0  0
   29.7158  -20.1406  -18.9998 C   0  0  0  0  0  0  0  0  0  0  0  0
   31.0052  -20.8431  -18.9373 N   0  0  0  0  0  0  0  0  0  0  0  0
   26.1634  -21.7706  -14.7513 C   0  0  0  0  0  0  0  0  0  0  0  0
   25.3162  -22.6781  -14.9041 O   0  0  0  0  0  0  0  0  0  0  0  0
   24.9907  -20.6985   -9.9650 C   0  0  0  0  0  0  0  0  0  0  0  0
   25.8786  -20.5074  -11.1991 C   0  0  1  0  0  0  0  0  0  0  0  0
   27.0545  -21.4842  -10.8512 C   0  0  0  0  0  0  0  0  0  0  0  0
   25.2513  -20.9788  -12.4774 C   0  0  2  0  0  0  0  0  0  0  0  0
   26.1462  -20.9598  -13.6195 N   0  0  0  0  0  0  0  0  0  0  0  0
   23.9348  -20.4569  -12.8231 C   0  0  0  0  0  0  0  0  0  0  0  0
   23.8072  -19.2523  -13.2954 O   0  0  0  0  0  0  0  0  0  0  0  0
   22.4460  -20.0905  -15.3282 C   0  0  0  0  0  0  0  0  0  0  0  0
   21.3006  -20.7824  -14.6166 C   0  0  1  0  0  0  0  0  0  0  0  0
   21.3713  -22.1283  -14.8848 O   0  0  0  0  0  0  0  0  0  0  0  0
   21.4273  -20.4906  -13.1139 C   0  0  2  0  0  0  0  0  0  0  0  0
   22.6910  -21.1288  -12.7142 N   0  0  0  0  0  0  0  0  0  0  0  0
   20.2997  -21.2112  -12.4724 C   0  0  0  0  0  0  0  0  0  0  0  0
   19.1184  -20.7615  -12.4947 O   0  0  0  0  0  0  0  0  0  0  0  0
   20.4524  -22.4214  -11.8057 O   0  0  0  0  0  0  0  0  0  0  0  0
  2  1  1  6
  3  2  1  0
  4  3  1  0
  5  6  1  0
  5  4  1  0
  7  6  1  0
  8 14  1  0
  8  2  1  0
  9  8  2  0
 11 10  1  1
 11 12  1  0
 13 14  1  6
 13 11  1  0
 15 13  1  0
 16 15  2  0
 18 17  1  6
 18 19  1  0
 18 20  1  0
 20 22  1  0
 20 21  1  1
 21 15  1  0
 22 24  1  0
 23 22  2  0
M  END
$$$$
