KVT.pdb
     RDKit          3D

 24 23  0  0  1  0  0  0  0  0999 V2000
   18.6313  -12.0783  -18.6552 N   0  0  0  0  0  0  0  0  0  0  0  0
   19.6442  -11.0635  -18.6979 C   0  0  1  0  0  0  0  0  0  0  0  0
   19.1325   -9.8775  -19.4571 C   0  0  0  0  0  0  0  0  0  0  0  0
   18.9472  -10.1379  -20.9162 C   0  0  0  0  0  0  0  0  0  0  0  0
   20.2113  -10.0509  -21.7103 C   0  0  0  0  0  0  0  0  0  0  0  0
   19.9758  -10.1132  -23.2044 C   0  0  0  0  0  0  0  0  0  0  0  0
   21.3071  -10.0883  -23.8262 N   0  0  0  0  0  0  0  0  0  0  0  0
   19.9721  -10.5724  -17.3003 C   0  0  0  0  0  0  0  0  0  0  0  0
   19.0436  -10.3927  -16.4817 O   0  0  0  0  0  0  0  0  0  0  0  0
   24.2134  -10.7809  -15.9706 C   0  0  0  0  0  0  0  0  0  0  0  0
   22.9270  -10.7860  -15.1380 C   0  0  1  0  0  0  0  0  0  0  0  0
   23.4553  -10.1541  -13.8040 C   0  0  0  0  0  0  0  0  0  0  0  0
   21.8512   -9.8907  -15.6773 C   0  0  2  0  0  0  0  0  0  0  0  0
   21.2959  -10.3279  -16.9447 N   0  0  0  0  0  0  0  0  0  0  0  0
   22.0934   -8.4532  -15.6690 C   0  0  0  0  0  0  0  0  0  0  0  0
   22.9954   -7.9330  -16.4477 O   0  0  0  0  0  0  0  0  0  0  0  0
   20.1911   -5.6364  -16.7273 C   0  0  0  0  0  0  0  0  0  0  0  0
   20.5284   -5.3116  -15.2858 C   0  0  1  0  0  0  0  0  0  0  0  0
   19.4720   -5.6946  -14.4949 O   0  0  0  0  0  0  0  0  0  0  0  0
   21.8193   -6.0585  -14.9184 C   0  0  2  0  0  0  0  0  0  0  0  0
   21.4325   -7.4774  -14.8809 N   0  0  0  0  0  0  0  0  0  0  0  0
   22.1577   -5.6150  -13.5433 C   0  0  0  0  0  0  0  0  0  0  0  0
   21.9743   -6.3570  -12.5363 O   0  0  0  0  0  0  0  0  0  0  0  0
   22.6961   -4.3654  -13.2589 O   0  0  0  0  0  0  0  0  0  0  0  0
  2  1  1  1
  3  2  1  0
  4  3  1  0
  5  6  1  0
  5  4  1  0
  7  6  1  0
  8 14  1  0
  8  2  1  0
  9  8  2  0
 11 10  1  6
 11 12  1  0
 13 14  1  6
 13 11  1  0
 15 13  1  0
 16 15  2  0
 18 17  1  6
 18 19  1  0
 18 20  1  0
 20 22  1  0
 20 21  1  1
 21 15  1  0
 22 24  1  0
 23 22  2  0
M  END
$$$$
