KVT.pdb
     RDKit          3D

 24 23  0  0  1  0  0  0  0  0999 V2000
   28.2680  -19.7562  -16.1064 N   0  0  0  0  0  0  0  0  0  0  0  0
   27.2961  -19.1085  -15.2737 C   0  0  1  0  0  0  0  0  0  0  0  0
   26.3997  -18.2572  -16.1202 C   0  0  0  0  0  0  0  0  0  0  0  0
   27.0960  -17.0898  -16.7393 C   0  0  0  0  0  0  0  0  0  0  0  0
   27.1608  -15.8864  -15.8538 C   0  0  0  0  0  0  0  0  0  0  0  0
   27.8507  -14.7082  -16.5078 C   0  0  0  0  0  0  0  0  0  0  0  0
   27.7178  -13.5872  -15.5669 N   0  0  0  0  0  0  0  0  0  0  0  0
   26.4045  -20.1306  -14.5938 C   0  0  0  0  0  0  0  0  0  0  0  0
   25.7846  -20.9624  -15.2926 O   0  0  0  0  0  0  0  0  0  0  0  0
   25.5360  -19.4956  -10.2378 C   0  0  0  0  0  0  0  0  0  0  0  0
   25.7631  -20.8600  -10.8973 C   0  0  1  0  0  0  0  0  0  0  0  0
   24.7163  -21.7261  -10.1150 C   0  0  0  0  0  0  0  0  0  0  0  0
   25.3986  -20.8995  -12.3517 C   0  0  2  0  0  0  0  0  0  0  0  0
   26.2856  -20.1325  -13.2065 N   0  0  0  0  0  0  0  0  0  0  0  0
   24.0010  -20.6906  -12.7097 C   0  0  0  0  0  0  0  0  0  0  0  0
   23.5302  -19.4868  -12.8505 O   0  0  0  0  0  0  0  0  0  0  0  0
   19.6672  -22.3160  -14.4373 C   0  0  0  0  0  0  0  0  0  0  0  0
   21.1302  -22.5460  -14.1151 C   0  0  1  0  0  0  0  0  0  0  0  0
   21.8167  -22.6993  -15.2955 O   0  0  0  0  0  0  0  0  0  0  0  0
   21.6365  -21.3395  -13.3107 C   0  0  2  0  0  0  0  0  0  0  0  0
   23.0196  -21.6856  -12.9479 N   0  0  0  0  0  0  0  0  0  0  0  0
   20.8092  -21.3072  -12.0790 C   0  0  0  0  0  0  0  0  0  0  0  0
   21.0093  -22.1028  -11.1171 O   0  0  0  0  0  0  0  0  0  0  0  0
   19.7635  -20.4112  -11.8894 O   0  0  0  0  0  0  0  0  0  0  0  0
  2  1  1  6
  3  2  1  0
  4  3  1  0
  5  6  1  0
  5  4  1  0
  7  6  1  0
  8 14  1  0
  8  2  1  0
  9  8  2  0
 11 10  1  1
 11 12  1  0
 13 14  1  6
 13 11  1  0
 15 13  1  0
 16 15  2  0
 18 17  1  6
 18 19  1  0
 18 20  1  0
 20 22  1  0
 20 21  1  1
 21 15  1  0
 22 24  1  0
 23 22  2  0
M  END
$$$$
