TCT.pdb
     RDKit          3D

 21 20  0  0  1  0  0  0  0  0999 V2000
   20.8229   -8.8108  -20.5079 C   0  0  0  0  0  0  0  0  0  0  0  0
   20.5506  -10.2788  -20.5979 C   0  0  1  0  0  0  0  0  0  0  0  0
   20.2277  -10.5999  -21.8991 O   0  0  0  0  0  0  0  0  0  0  0  0
   21.6918  -11.1137  -20.0618 C   0  0  2  0  0  0  0  0  0  0  0  0
   21.2592  -12.5019  -20.0770 N   0  0  0  0  0  0  0  0  0  0  0  0
   21.9896  -10.7551  -18.6506 C   0  0  0  0  0  0  0  0  0  0  0  0
   21.2462  -11.1127  -17.7006 O   0  0  0  0  0  0  0  0  0  0  0  0
   23.1389   -9.9814  -18.2829 N   0  0  0  0  0  0  0  0  0  0  0  0
   23.3680   -9.5763  -16.9109 C   0  0  1  0  0  0  0  0  0  0  0  0
   24.7031  -10.1300  -16.4889 C   0  0  0  0  0  0  0  0  0  0  0  0
   25.1719   -9.4924  -14.8595 S   0  0  0  0  0  0  0  0  0  0  0  0
   23.2637   -8.1162  -16.7598 C   0  0  0  0  0  0  0  0  0  0  0  0
   24.0326   -7.3735  -17.4363 O   0  0  0  0  0  0  0  0  0  0  0  0
   20.8186   -5.9020  -17.7014 C   0  0  0  0  0  0  0  0  0  0  0  0
   21.0025   -5.5198  -16.2477 C   0  0  1  0  0  0  0  0  0  0  0  0
   20.0288   -6.2129  -15.5056 O   0  0  0  0  0  0  0  0  0  0  0  0
   22.3532   -6.0005  -15.7419 C   0  0  2  0  0  0  0  0  0  0  0  0
   22.3514   -7.4555  -15.8987 N   0  0  0  0  0  0  0  0  0  0  0  0
   22.6084   -5.6040  -14.3490 C   0  0  0  0  0  0  0  0  0  0  0  0
   22.8732   -4.2935  -13.9857 O   0  0  0  0  0  0  0  0  0  0  0  0
   22.5927   -6.4628  -13.4309 O   0  0  0  0  0  0  0  0  0  0  0  0
  2  1  1  6
  2  4  1  0
  2  3  1  0
  4  5  1  1
  6  8  1  0
  6  4  1  0
  7  6  2  0
  9 12  1  0
  9  8  1  0
  9 10  1  6
 11 10  1  0
 12 18  1  0
 13 12  2  0
 15 14  1  6
 16 15  1  0
 17 19  1  0
 17 15  1  0
 17 18  1  1
 19 20  1  0
 21 19  2  0
M  END
$$$$
