TCT.pdb
     RDKit          3D

 21 20  0  0  1  0  0  0  0  0999 V2000
   17.2232  -11.1330  -18.6316 C   0  0  0  0  0  0  0  0  0  0  0  0
   17.3051  -10.3347  -17.3694 C   0  0  1  0  0  0  0  0  0  0  0  0
   16.3199  -10.7571  -16.5025 O   0  0  0  0  0  0  0  0  0  0  0  0
   18.6820  -10.3766  -16.7455 C   0  0  2  0  0  0  0  0  0  0  0  0
   18.7840  -11.6213  -16.0008 N   0  0  0  0  0  0  0  0  0  0  0  0
   18.8560   -9.2624  -15.7774 C   0  0  0  0  0  0  0  0  0  0  0  0
   18.1663   -9.1765  -14.7286 O   0  0  0  0  0  0  0  0  0  0  0  0
   19.8175   -8.2180  -15.9762 N   0  0  0  0  0  0  0  0  0  0  0  0
   19.9292   -7.1095  -15.0500 C   0  0  1  0  0  0  0  0  0  0  0  0
   21.3649   -7.0319  -14.6029 C   0  0  0  0  0  0  0  0  0  0  0  0
   21.7265   -8.3285  -13.3907 S   0  0  0  0  0  0  0  0  0  0  0  0
   19.4324   -5.8602  -15.6486 C   0  0  0  0  0  0  0  0  0  0  0  0
   19.7835   -5.5633  -16.8272 O   0  0  0  0  0  0  0  0  0  0  0  0
   16.1220   -2.2640  -15.9176 C   0  0  0  0  0  0  0  0  0  0  0  0
   16.6677   -3.5354  -15.3022 C   0  0  1  0  0  0  0  0  0  0  0  0
   15.9947   -4.6146  -15.9035 O   0  0  0  0  0  0  0  0  0  0  0  0
   18.1395   -3.6994  -15.6462 C   0  0  2  0  0  0  0  0  0  0  0  0
   18.5723   -4.9387  -14.9995 N   0  0  0  0  0  0  0  0  0  0  0  0
   18.9510   -2.5504  -15.2178 C   0  0  0  0  0  0  0  0  0  0  0  0
   19.2939   -1.5202  -16.0785 O   0  0  0  0  0  0  0  0  0  0  0  0
   19.3642   -2.4708  -14.0330 O   0  0  0  0  0  0  0  0  0  0  0  0
  2  1  1  6
  2  4  1  0
  2  3  1  0
  4  5  1  1
  6  8  1  0
  6  4  1  0
  7  6  2  0
  9 12  1  0
  9  8  1  0
  9 10  1  6
 11 10  1  0
 12 18  1  0
 13 12  2  0
 15 14  1  6
 16 15  1  0
 17 19  1  0
 17 15  1  0
 17 18  1  1
 19 20  1  0
 21 19  2  0
M  END
$$$$
