TCT.pdb
     RDKit          3D

 21 20  0  0  1  0  0  0  0  0999 V2000
   26.5505  -17.8211  -14.8059 C   0  0  0  0  0  0  0  0  0  0  0  0
   27.2234  -18.8813  -15.6185 C   0  0  1  0  0  0  0  0  0  0  0  0
   28.2413  -18.3107  -16.3524 O   0  0  0  0  0  0  0  0  0  0  0  0
   27.6986  -20.0434  -14.7756 C   0  0  2  0  0  0  0  0  0  0  0  0
   28.2983  -21.0161  -15.6749 N   0  0  0  0  0  0  0  0  0  0  0  0
   26.5533  -20.7075  -14.1001 C   0  0  0  0  0  0  0  0  0  0  0  0
   25.7956  -21.5089  -14.7056 O   0  0  0  0  0  0  0  0  0  0  0  0
   26.2401  -20.4783  -12.7203 N   0  0  0  0  0  0  0  0  0  0  0  0
   25.0881  -21.0963  -12.0957 C   0  0  1  0  0  0  0  0  0  0  0  0
   25.1975  -20.8688  -10.6113 C   0  0  0  0  0  0  0  0  0  0  0  0
   26.8476  -21.3212  -10.0165 S   0  0  0  0  0  0  0  0  0  0  0  0
   23.8320  -20.5946  -12.6755 C   0  0  0  0  0  0  0  0  0  0  0  0
   23.5702  -19.3595  -12.5953 O   0  0  0  0  0  0  0  0  0  0  0  0
   20.3391  -20.9099  -16.0479 C   0  0  0  0  0  0  0  0  0  0  0  0
   21.5648  -21.4353  -15.3306 C   0  0  1  0  0  0  0  0  0  0  0  0
   22.6917  -20.9929  -16.0471 O   0  0  0  0  0  0  0  0  0  0  0  0
   21.6681  -20.8225  -13.9431 C   0  0  2  0  0  0  0  0  0  0  0  0
   22.8667  -21.3988  -13.3325 N   0  0  0  0  0  0  0  0  0  0  0  0
   20.4701  -21.0683  -13.1265 C   0  0  0  0  0  0  0  0  0  0  0  0
   19.4476  -20.1408  -13.0086 O   0  0  0  0  0  0  0  0  0  0  0  0
   20.3393  -22.1505  -12.4999 O   0  0  0  0  0  0  0  0  0  0  0  0
  2  1  1  1
  2  4  1  0
  2  3  1  0
  4  5  1  6
  6  8  1  0
  6  4  1  0
  7  6  2  0
  9 12  1  0
  9  8  1  0
  9 10  1  1
 11 10  1  0
 12 18  1  0
 13 12  2  0
 15 14  1  6
 16 15  1  0
 17 19  1  0
 17 15  1  0
 17 18  1  1
 19 20  1  0
 21 19  2  0
M  END
$$$$
