TCT.pdb
     RDKit          3D

 21 20  0  0  1  0  0  0  0  0999 V2000
   23.6017  -13.3083  -17.4634 C   0  0  0  0  0  0  0  0  0  0  0  0
   22.7710  -12.1048  -17.1493 C   0  0  1  0  0  0  0  0  0  0  0  0
   22.3930  -11.4963  -18.3272 O   0  0  0  0  0  0  0  0  0  0  0  0
   21.5910  -12.4306  -16.2615 C   0  0  2  0  0  0  0  0  0  0  0  0
   20.6596  -13.2219  -17.0495 N   0  0  0  0  0  0  0  0  0  0  0  0
   20.8839  -11.1903  -15.8485 C   0  0  0  0  0  0  0  0  0  0  0  0
   19.9741  -10.6766  -16.5494 O   0  0  0  0  0  0  0  0  0  0  0  0
   21.1922  -10.5026  -14.6292 N   0  0  0  0  0  0  0  0  0  0  0  0
   20.4973   -9.2887  -14.2516 C   0  0  1  0  0  0  0  0  0  0  0  0
   19.8686   -9.5238  -12.9037 C   0  0  0  0  0  0  0  0  0  0  0  0
   19.2491   -7.9698  -12.2090 S   0  0  0  0  0  0  0  0  0  0  0  0
   21.3974   -8.1249  -14.2845 C   0  0  0  0  0  0  0  0  0  0  0  0
   22.5187   -8.2006  -13.7036 O   0  0  0  0  0  0  0  0  0  0  0  0
   22.6866   -3.7714  -16.2457 C   0  0  0  0  0  0  0  0  0  0  0  0
   21.7094   -4.9217  -16.1235 C   0  0  1  0  0  0  0  0  0  0  0  0
   21.8883   -5.7452  -17.2500 O   0  0  0  0  0  0  0  0  0  0  0  0
   22.0449   -5.7730  -14.9094 C   0  0  2  0  0  0  0  0  0  0  0  0
   21.1064   -6.8956  -14.9284 N   0  0  0  0  0  0  0  0  0  0  0  0
   21.9638   -5.0178  -13.6502 C   0  0  0  0  0  0  0  0  0  0  0  0
   23.0885   -4.5482  -12.9912 O   0  0  0  0  0  0  0  0  0  0  0  0
   20.8471   -4.7729  -13.1269 O   0  0  0  0  0  0  0  0  0  0  0  0
  2  1  1  6
  2  4  1  0
  2  3  1  0
  4  5  1  6
  6  8  1  0
  6  4  1  0
  7  6  2  0
  9 12  1  0
  9  8  1  0
  9 10  1  1
 11 10  1  0
 12 18  1  0
 13 12  2  0
 15 14  1  6
 16 15  1  0
 17 19  1  0
 17 15  1  0
 17 18  1  1
 19 20  1  0
 21 19  2  0
M  END
$$$$
