TCT.pdb
     RDKit          3D

 21 20  0  0  1  0  0  0  0  0999 V2000
   19.8450   -8.5432  -18.7395 C   0  0  0  0  0  0  0  0  0  0  0  0
   19.4158   -9.6988  -17.8925 C   0  0  1  0  0  0  0  0  0  0  0  0
   19.3563  -10.8339  -18.6726 O   0  0  0  0  0  0  0  0  0  0  0  0
   20.2911   -9.8800  -16.6728 C   0  0  2  0  0  0  0  0  0  0  0  0
   19.7702  -11.0156  -15.9287 N   0  0  0  0  0  0  0  0  0  0  0  0
   20.2108   -8.6907  -15.7851 C   0  0  0  0  0  0  0  0  0  0  0  0
   19.1838   -8.4344  -15.1050 O   0  0  0  0  0  0  0  0  0  0  0  0
   21.2947   -7.7628  -15.6476 N   0  0  0  0  0  0  0  0  0  0  0  0
   21.1527   -6.5467  -14.8730 C   0  0  1  0  0  0  0  0  0  0  0  0
   22.3813   -6.4075  -14.0136 C   0  0  0  0  0  0  0  0  0  0  0  0
   22.3444   -4.8459  -13.0963 S   0  0  0  0  0  0  0  0  0  0  0  0
   20.9095   -5.3843  -15.7422 C   0  0  0  0  0  0  0  0  0  0  0  0
   21.7345   -5.1264  -16.6660 O   0  0  0  0  0  0  0  0  0  0  0  0
   18.5103   -4.7808  -18.1685 C   0  0  0  0  0  0  0  0  0  0  0  0
   18.3756   -3.5566  -17.2875 C   0  0  1  0  0  0  0  0  0  0  0  0
   17.3621   -3.8246  -16.3493 O   0  0  0  0  0  0  0  0  0  0  0  0
   19.6522   -3.3353  -16.4920 C   0  0  2  0  0  0  0  0  0  0  0  0
   19.8011   -4.5075  -15.6285 N   0  0  0  0  0  0  0  0  0  0  0  0
   19.6240   -2.0874  -15.7146 C   0  0  0  0  0  0  0  0  0  0  0  0
   19.7023   -0.8388  -16.3099 O   0  0  0  0  0  0  0  0  0  0  0  0
   19.5261   -2.1214  -14.4615 O   0  0  0  0  0  0  0  0  0  0  0  0
  2  1  1  6
  2  4  1  0
  2  3  1  0
  4  5  1  1
  6  8  1  0
  6  4  1  0
  7  6  2  0
  9 12  1  0
  9  8  1  0
  9 10  1  6
 11 10  1  0
 12 18  1  0
 13 12  2  0
 15 14  1  6
 16 15  1  0
 17 19  1  0
 17 15  1  0
 17 18  1  1
 19 20  1  0
 21 19  2  0
M  END
$$$$
