TCT.pdb
     RDKit          3D

 21 20  0  0  1  0  0  0  0  0999 V2000
   15.1552  -10.7782  -18.4330 C   0  0  0  0  0  0  0  0  0  0  0  0
   16.0888  -10.4660  -17.3069 C   0  0  1  0  0  0  0  0  0  0  0  0
   16.7408  -11.6197  -16.9269 O   0  0  0  0  0  0  0  0  0  0  0  0
   17.0455   -9.3438  -17.6415 C   0  0  2  0  0  0  0  0  0  0  0  0
   17.8532   -9.7827  -18.7683 N   0  0  0  0  0  0  0  0  0  0  0  0
   17.9687   -9.0822  -16.5064 C   0  0  0  0  0  0  0  0  0  0  0  0
   17.5487   -8.7435  -15.3699 O   0  0  0  0  0  0  0  0  0  0  0  0
   19.3916   -9.1989  -16.6337 N   0  0  0  0  0  0  0  0  0  0  0  0
   20.2724   -8.9480  -15.5110 C   0  0  1  0  0  0  0  0  0  0  0  0
   21.3048  -10.0438  -15.4878 C   0  0  0  0  0  0  0  0  0  0  0  0
   22.6760   -9.6050  -14.3885 S   0  0  0  0  0  0  0  0  0  0  0  0
   20.8517   -7.5968  -15.5773 C   0  0  0  0  0  0  0  0  0  0  0  0
   21.5552   -7.2801  -16.5800 O   0  0  0  0  0  0  0  0  0  0  0  0
   19.3776   -4.2127  -13.6420 C   0  0  0  0  0  0  0  0  0  0  0  0
   20.2739   -4.2620  -14.8615 C   0  0  1  0  0  0  0  0  0  0  0  0
   20.9222   -3.0170  -14.9559 O   0  0  0  0  0  0  0  0  0  0  0  0
   21.3653   -5.3034  -14.6731 C   0  0  2  0  0  0  0  0  0  0  0  0
   20.6837   -6.5956  -14.5876 N   0  0  0  0  0  0  0  0  0  0  0  0
   22.1929   -5.0456  -13.4852 C   0  0  0  0  0  0  0  0  0  0  0  0
   22.2218   -5.9047  -12.3986 O   0  0  0  0  0  0  0  0  0  0  0  0
   22.9119   -4.0160  -13.4229 O   0  0  0  0  0  0  0  0  0  0  0  0
  2  1  1  6
  2  4  1  0
  2  3  1  0
  4  5  1  6
  6  8  1  0
  6  4  1  0
  7  6  2  0
  9 12  1  0
  9  8  1  0
  9 10  1  6
 11 10  1  0
 12 18  1  0
 13 12  2  0
 15 14  1  1
 16 15  1  0
 17 19  1  0
 17 15  1  0
 17 18  1  1
 19 20  1  0
 21 19  2  0
M  END
$$$$
