TCT.pdb
     RDKit          3D

 21 20  0  0  1  0  0  0  0  0999 V2000
   18.1441  -11.0250  -19.0903 C   0  0  0  0  0  0  0  0  0  0  0  0
   17.9465  -12.2384  -18.2385 C   0  0  1  0  0  0  0  0  0  0  0  0
   17.7508  -13.3346  -19.0512 O   0  0  0  0  0  0  0  0  0  0  0  0
   19.0737  -12.4435  -17.2515 C   0  0  2  0  0  0  0  0  0  0  0  0
   18.7643  -13.6367  -16.4802 N   0  0  0  0  0  0  0  0  0  0  0  0
   19.1538  -11.3053  -16.2990 C   0  0  0  0  0  0  0  0  0  0  0  0
   18.2153  -11.0314  -15.5071 O   0  0  0  0  0  0  0  0  0  0  0  0
   20.3015  -10.4501  -16.2221 N   0  0  0  0  0  0  0  0  0  0  0  0
   20.3332   -9.3089  -15.3300 C   0  0  1  0  0  0  0  0  0  0  0  0
   21.6876   -9.2816  -14.6727 C   0  0  0  0  0  0  0  0  0  0  0  0
   21.8522   -7.8228  -13.6114 S   0  0  0  0  0  0  0  0  0  0  0  0
   20.0008   -8.0644  -16.0417 C   0  0  0  0  0  0  0  0  0  0  0  0
   20.6670   -7.7498  -17.0702 O   0  0  0  0  0  0  0  0  0  0  0  0
   17.2888   -7.1904  -17.9410 C   0  0  0  0  0  0  0  0  0  0  0  0
   17.3537   -6.0173  -16.9856 C   0  0  1  0  0  0  0  0  0  0  0  0
   16.4717   -6.2918  -15.9244 O   0  0  0  0  0  0  0  0  0  0  0  0
   18.7420   -5.9092  -16.3756 C   0  0  2  0  0  0  0  0  0  0  0  0
   18.9714   -7.1662  -15.6623 N   0  0  0  0  0  0  0  0  0  0  0  0
   18.8789   -4.7463  -15.4859 C   0  0  0  0  0  0  0  0  0  0  0  0
   18.9556   -3.4486  -15.9650 O   0  0  0  0  0  0  0  0  0  0  0  0
   18.9310   -4.9026  -14.2394 O   0  0  0  0  0  0  0  0  0  0  0  0
  2  1  1  6
  2  4  1  0
  2  3  1  0
  4  5  1  1
  6  8  1  0
  6  4  1  0
  7  6  2  0
  9 12  1  0
  9  8  1  0
  9 10  1  6
 11 10  1  0
 12 18  1  0
 13 12  2  0
 15 14  1  6
 16 15  1  0
 17 19  1  0
 17 15  1  0
 17 18  1  1
 19 20  1  0
 21 19  2  0
M  END
$$$$
