TCT.pdb
     RDKit          3D

 21 20  0  0  1  0  0  0  0  0999 V2000
   22.2988   -9.7809  -19.6344 C   0  0  0  0  0  0  0  0  0  0  0  0
   21.2707  -10.8673  -19.6385 C   0  0  1  0  0  0  0  0  0  0  0  0
   21.6020  -11.7998  -20.5982 O   0  0  0  0  0  0  0  0  0  0  0  0
   21.0764  -11.4864  -18.2726 C   0  0  2  0  0  0  0  0  0  0  0  0
   20.0145  -12.4730  -18.3897 N   0  0  0  0  0  0  0  0  0  0  0  0
   20.6294  -10.4650  -17.2898 C   0  0  0  0  0  0  0  0  0  0  0  0
   19.4887   -9.9374  -17.3486 O   0  0  0  0  0  0  0  0  0  0  0  0
   21.4665  -10.0174  -16.2158 N   0  0  0  0  0  0  0  0  0  0  0  0
   21.0229   -8.9956  -15.2893 C   0  0  1  0  0  0  0  0  0  0  0  0
   21.0112   -9.6034  -13.9117 C   0  0  0  0  0  0  0  0  0  0  0  0
   20.6445   -8.3443  -12.6622 S   0  0  0  0  0  0  0  0  0  0  0  0
   21.8540   -7.7852  -15.3899 C   0  0  0  0  0  0  0  0  0  0  0  0
   23.1079   -7.8900  -15.2587 O   0  0  0  0  0  0  0  0  0  0  0  0
   22.4474   -5.5405  -18.1027 C   0  0  0  0  0  0  0  0  0  0  0  0
   22.0179   -4.6262  -16.9745 C   0  0  1  0  0  0  0  0  0  0  0  0
   20.6316   -4.4241  -17.1034 O   0  0  0  0  0  0  0  0  0  0  0  0
   22.2315   -5.3074  -15.6322 C   0  0  2  0  0  0  0  0  0  0  0  0
   21.3552   -6.4794  -15.6273 N   0  0  0  0  0  0  0  0  0  0  0  0
   21.9537   -4.4160  -14.4961 C   0  0  0  0  0  0  0  0  0  0  0  0
   20.8373   -4.5659  -13.6893 O   0  0  0  0  0  0  0  0  0  0  0  0
   22.7392   -3.4737  -14.2208 O   0  0  0  0  0  0  0  0  0  0  0  0
  2  1  1  1
  2  4  1  0
  2  3  1  0
  4  5  1  6
  6  8  1  0
  6  4  1  0
  7  6  2  0
  9 12  1  0
  9  8  1  0
  9 10  1  1
 11 10  1  0
 12 18  1  0
 13 12  2  0
 15 14  1  6
 16 15  1  0
 17 19  1  0
 17 15  1  0
 17 18  1  1
 19 20  1  0
 21 19  2  0
M  END
$$$$
