TCT.pdb
     RDKit          3D

 21 20  0  0  1  0  0  0  0  0999 V2000
   26.8820  -14.0431  -15.3661 C   0  0  0  0  0  0  0  0  0  0  0  0
   25.6394  -13.2818  -15.7030 C   0  0  1  0  0  0  0  0  0  0  0  0
   25.6820  -12.9109  -17.0300 O   0  0  0  0  0  0  0  0  0  0  0  0
   24.3805  -14.0441  -15.3552 C   0  0  2  0  0  0  0  0  0  0  0  0
   24.3410  -15.2266  -16.2006 N   0  0  0  0  0  0  0  0  0  0  0  0
   23.1724  -13.2352  -15.6635 C   0  0  0  0  0  0  0  0  0  0  0  0
   22.3870  -13.5393  -16.5981 O   0  0  0  0  0  0  0  0  0  0  0  0
   22.8262  -12.0608  -14.9181 N   0  0  0  0  0  0  0  0  0  0  0  0
   21.6969  -11.2347  -15.2939 C   0  0  1  0  0  0  0  0  0  0  0  0
   20.5289  -11.6409  -14.4348 C   0  0  0  0  0  0  0  0  0  0  0  0
   19.1621  -10.4666  -14.6200 S   0  0  0  0  0  0  0  0  0  0  0  0
   22.0261   -9.8035  -15.1986 C   0  0  0  0  0  0  0  0  0  0  0  0
   22.5363   -9.3618  -14.1285 O   0  0  0  0  0  0  0  0  0  0  0  0
   23.8595   -7.5757  -17.8213 C   0  0  0  0  0  0  0  0  0  0  0  0
   22.5596   -6.9185  -17.4072 C   0  0  1  0  0  0  0  0  0  0  0  0
   21.5745   -7.3214  -18.3273 O   0  0  0  0  0  0  0  0  0  0  0  0
   22.1165   -7.4344  -16.0475 C   0  0  2  0  0  0  0  0  0  0  0  0
   21.8142   -8.8545  -16.2306 N   0  0  0  0  0  0  0  0  0  0  0  0
   20.9620   -6.6973  -15.5126 C   0  0  0  0  0  0  0  0  0  0  0  0
   21.0774   -5.4284  -14.9684 O   0  0  0  0  0  0  0  0  0  0  0  0
   19.8144   -7.2105  -15.5355 O   0  0  0  0  0  0  0  0  0  0  0  0
  2  1  1  6
  2  4  1  0
  2  3  1  0
  4  5  1  6
  6  8  1  0
  6  4  1  0
  7  6  2  0
  9 12  1  0
  9  8  1  0
  9 10  1  1
 11 10  1  0
 12 18  1  0
 13 12  2  0
 15 14  1  6
 16 15  1  0
 17 19  1  0
 17 15  1  0
 17 18  1  6
 19 20  1  0
 21 19  2  0
M  END
$$$$
