TCT.pdb
     RDKit          3D

 21 20  0  0  1  0  0  0  0  0999 V2000
   18.1496  -10.7304  -20.3345 C   0  0  0  0  0  0  0  0  0  0  0  0
   18.5888  -10.0686  -19.0672 C   0  0  1  0  0  0  0  0  0  0  0  0
   17.6983   -9.0657  -18.7486 O   0  0  0  0  0  0  0  0  0  0  0  0
   18.7808  -11.0532  -17.9356 C   0  0  2  0  0  0  0  0  0  0  0  0
   17.4814  -11.6363  -17.6418 N   0  0  0  0  0  0  0  0  0  0  0  0
   19.2462  -10.3593  -16.7064 C   0  0  0  0  0  0  0  0  0  0  0  0
   18.4448   -9.9571  -15.8238 O   0  0  0  0  0  0  0  0  0  0  0  0
   20.6331  -10.1050  -16.4489 N   0  0  0  0  0  0  0  0  0  0  0  0
   21.0669   -9.4562  -15.2283 C   0  0  1  0  0  0  0  0  0  0  0  0
   22.2750  -10.1986  -14.7219 C   0  0  0  0  0  0  0  0  0  0  0  0
   22.9646   -9.3752  -13.2632 S   0  0  0  0  0  0  0  0  0  0  0  0
   21.3075   -8.0201  -15.4423 C   0  0  0  0  0  0  0  0  0  0  0  0
   21.8742   -7.6460  -16.5097 O   0  0  0  0  0  0  0  0  0  0  0  0
   20.1365   -3.3578  -14.8558 C   0  0  0  0  0  0  0  0  0  0  0  0
   19.9277   -4.8433  -14.6492 C   0  0  1  0  0  0  0  0  0  0  0  0
   19.0953   -5.2981  -15.6882 O   0  0  0  0  0  0  0  0  0  0  0  0
   21.2455   -5.5872  -14.7956 C   0  0  2  0  0  0  0  0  0  0  0  0
   20.9488   -6.9955  -14.5303 N   0  0  0  0  0  0  0  0  0  0  0  0
   22.2878   -5.0722  -13.8950 C   0  0  0  0  0  0  0  0  0  0  0  0
   23.3033   -4.2379  -14.3335 O   0  0  0  0  0  0  0  0  0  0  0  0
   22.2847   -5.3823  -12.6765 O   0  0  0  0  0  0  0  0  0  0  0  0
  2  1  1  6
  2  4  1  0
  2  3  1  0
  4  5  1  1
  6  8  1  0
  6  4  1  0
  7  6  2  0
  9 12  1  0
  9  8  1  0
  9 10  1  6
 11 10  1  0
 12 18  1  0
 13 12  2  0
 15 14  1  6
 16 15  1  0
 17 19  1  0
 17 15  1  0
 17 18  1  1
 19 20  1  0
 21 19  2  0
M  END
$$$$
