TCT.pdb
     RDKit          3D

 21 20  0  0  1  0  0  0  0  0999 V2000
   20.3970  -11.9446  -16.5712 C   0  0  0  0  0  0  0  0  0  0  0  0
   21.6216  -11.2355  -16.0866 C   0  0  1  0  0  0  0  0  0  0  0  0
   22.4512  -12.1417  -15.4613 O   0  0  0  0  0  0  0  0  0  0  0  0
   22.3231  -10.4723  -17.1875 C   0  0  2  0  0  0  0  0  0  0  0  0
   22.8944  -11.4509  -18.0988 N   0  0  0  0  0  0  0  0  0  0  0  0
   23.4448   -9.6667  -16.6381 C   0  0  0  0  0  0  0  0  0  0  0  0
   23.2633   -8.7796  -15.7647 O   0  0  0  0  0  0  0  0  0  0  0  0
   24.8004   -9.8485  -17.0670 N   0  0  0  0  0  0  0  0  0  0  0  0
   25.8814   -9.0665  -16.5021 C   0  0  1  0  0  0  0  0  0  0  0  0
   27.1075   -9.9399  -16.4701 C   0  0  0  0  0  0  0  0  0  0  0  0
   26.8630  -11.3417  -15.3491 S   0  0  0  0  0  0  0  0  0  0  0  0
   26.0754   -7.8093  -17.2421 C   0  0  0  0  0  0  0  0  0  0  0  0
   27.0315   -7.0475  -16.9163 O   0  0  0  0  0  0  0  0  0  0  0  0
   26.0396   -7.2242  -21.0753 C   0  0  0  0  0  0  0  0  0  0  0  0
   25.0908   -6.2470  -20.4136 C   0  0  1  0  0  0  0  0  0  0  0  0
   23.8093   -6.8271  -20.4352 O   0  0  0  0  0  0  0  0  0  0  0  0
   25.4570   -6.0646  -18.9494 C   0  0  2  0  0  0  0  0  0  0  0  0
   25.2608   -7.3691  -18.3159 N   0  0  0  0  0  0  0  0  0  0  0  0
   24.6600   -5.0167  -18.2943 C   0  0  0  0  0  0  0  0  0  0  0  0
   23.6567   -5.3058  -17.3836 O   0  0  0  0  0  0  0  0  0  0  0  0
   24.8729   -3.8039  -18.5489 O   0  0  0  0  0  0  0  0  0  0  0  0
  2  1  1  6
  2  4  1  0
  2  3  1  0
  4  5  1  6
  6  8  1  0
  6  4  1  0
  7  6  2  0
  9 12  1  0
  9  8  1  0
  9 10  1  6
 11 10  1  0
 12 18  1  0
 13 12  2  0
 15 14  1  1
 16 15  1  0
 17 19  1  0
 17 15  1  0
 17 18  1  1
 19 20  1  0
 21 19  2  0
M  END
$$$$
