TCT.pdb
     RDKit          3D

 21 20  0  0  1  0  0  0  0  0999 V2000
   16.4465   -8.2090  -16.5675 C   0  0  0  0  0  0  0  0  0  0  0  0
   16.0342   -9.4665  -15.8706 C   0  0  1  0  0  0  0  0  0  0  0  0
   14.8716   -9.9393  -16.4408 O   0  0  0  0  0  0  0  0  0  0  0  0
   17.1332  -10.5052  -15.8509 C   0  0  2  0  0  0  0  0  0  0  0  0
   16.6335  -11.6527  -15.1106 N   0  0  0  0  0  0  0  0  0  0  0  0
   18.3279   -9.9947  -15.1290 C   0  0  0  0  0  0  0  0  0  0  0  0
   18.3093   -9.7569  -13.8937 O   0  0  0  0  0  0  0  0  0  0  0  0
   19.5734   -9.7417  -15.7919 N   0  0  0  0  0  0  0  0  0  0  0  0
   20.7025   -9.1733  -15.0842 C   0  0  1  0  0  0  0  0  0  0  0  0
   21.9382   -9.9077  -15.5324 C   0  0  0  0  0  0  0  0  0  0  0  0
   23.4239   -9.1422  -14.8339 S   0  0  0  0  0  0  0  0  0  0  0  0
   20.7804   -7.7172  -15.2832 C   0  0  0  0  0  0  0  0  0  0  0  0
   20.8562   -7.2628  -16.4614 O   0  0  0  0  0  0  0  0  0  0  0  0
   18.6109   -5.1301  -15.0700 C   0  0  0  0  0  0  0  0  0  0  0  0
   19.7242   -4.6183  -14.1803 C   0  0  1  0  0  0  0  0  0  0  0  0
   19.3918   -4.9572  -12.8559 O   0  0  0  0  0  0  0  0  0  0  0  0
   21.0257   -5.3379  -14.4959 C   0  0  2  0  0  0  0  0  0  0  0  0
   20.7777   -6.7572  -14.2398 N   0  0  0  0  0  0  0  0  0  0  0  0
   22.1570   -4.8320  -13.7042 C   0  0  0  0  0  0  0  0  0  0  0  0
   22.6954   -3.5703  -13.8988 O   0  0  0  0  0  0  0  0  0  0  0  0
   22.6770   -5.5470  -12.8102 O   0  0  0  0  0  0  0  0  0  0  0  0
  2  1  1  6
  2  4  1  0
  2  3  1  0
  4  5  1  1
  6  8  1  0
  6  4  1  0
  7  6  2  0
  9 12  1  0
  9  8  1  0
  9 10  1  6
 11 10  1  0
 12 18  1  0
 13 12  2  0
 15 14  1  6
 16 15  1  0
 17 19  1  0
 17 15  1  0
 17 18  1  1
 19 20  1  0
 21 19  2  0
M  END
$$$$
