GID.pdb
     RDKit          3D

 21 20  0  0  1  0  0  0  0  0999 V2000
    5.0765  -18.6170   22.8598 N   0  0  0  0  0  0  0  0  0  0  0  0
    5.1574  -17.8672   24.0783 C   0  0  0  0  0  0  0  0  0  0  0  0
    6.3327  -16.9279   24.0610 C   0  0  0  0  0  0  0  0  0  0  0  0
    7.1913  -17.0913   23.1669 O   0  0  0  0  0  0  0  0  0  0  0  0
    5.7311  -11.9494   26.6448 C   0  0  0  0  0  0  0  0  0  0  0  0
    6.0657  -12.9901   25.6298 C   0  0  0  0  0  0  0  0  0  0  0  0
    7.2589  -13.8311   25.9140 C   0  0  2  0  0  0  0  0  0  0  0  0
    8.4448  -12.9806   26.3157 C   0  0  0  0  0  0  0  0  0  0  0  0
    7.5129  -15.0217   25.1071 C   0  0  2  0  0  0  0  0  0  0  0  0
    6.3856  -15.9214   25.0608 N   0  0  0  0  0  0  0  0  0  0  0  0
    8.8148  -15.7016   25.1870 C   0  0  0  0  0  0  0  0  0  0  0  0
    9.8319  -15.3506   24.5634 O   0  0  0  0  0  0  0  0  0  0  0  0
    8.9385  -16.8397   26.0217 N   0  0  0  0  0  0  0  0  0  0  0  0
   10.2209  -17.5194   26.2432 C   0  0  1  0  0  0  0  0  0  0  0  0
   11.3104  -16.5923   25.8106 C   0  0  0  0  0  0  0  0  0  0  0  0
   12.1061  -17.1240   24.6960 C   0  0  0  0  0  0  0  0  0  0  0  0
   12.4572  -16.4168   23.7410 O   0  0  0  0  0  0  0  0  0  0  0  0
   10.3417  -17.8986   27.6642 C   0  0  0  0  0  0  0  0  0  0  0  0
   11.1173  -18.9078   28.1772 O   0  0  0  0  0  0  0  0  0  0  0  0
   12.5104  -18.4694   24.6589 O   0  0  0  0  0  0  0  0  0  0  0  0
    9.6616  -17.2287   28.5132 O   0  0  0  0  0  0  0  0  0  0  0  0
  1  2  1  0
  2  3  1  0
  3 10  1  0
  3  4  2  0
  6  7  1  0
  6  5  1  0
  7  8  1  6
  9  7  1  0
  9 10  1  1
 11  9  1  0
 11 13  1  0
 12 11  2  0
 14 15  1  1
 14 13  1  0
 14 18  1  0
 16 20  1  0
 16 15  1  0
 17 16  2  0
 18 19  1  0
 21 18  2  0
M  END
$$$$
