GID.pdb
     RDKit          3D

 21 20  0  0  1  0  0  0  0  0999 V2000
    8.4544  -18.4656   17.3436 N   0  0  0  0  0  0  0  0  0  0  0  0
    7.5523  -17.9002   18.3029 C   0  0  0  0  0  0  0  0  0  0  0  0
    8.2926  -17.0931   19.3345 C   0  0  0  0  0  0  0  0  0  0  0  0
    9.5311  -17.2467   19.4104 O   0  0  0  0  0  0  0  0  0  0  0  0
    7.2275  -11.8799   20.1160 C   0  0  0  0  0  0  0  0  0  0  0  0
    7.7614  -13.2681   20.0020 C   0  0  0  0  0  0  0  0  0  0  0  0
    7.7838  -14.0726   21.2527 C   0  0  2  0  0  0  0  0  0  0  0  0
    8.2479  -13.2416   22.4297 C   0  0  0  0  0  0  0  0  0  0  0  0
    8.1889  -15.4748   21.2031 C   0  0  2  0  0  0  0  0  0  0  0  0
    7.5338  -16.2132   20.1504 N   0  0  0  0  0  0  0  0  0  0  0  0
    8.3575  -16.2373   22.4496 C   0  0  0  0  0  0  0  0  0  0  0  0
    7.4356  -16.5098   23.2385 O   0  0  0  0  0  0  0  0  0  0  0  0
    9.6518  -16.6975   22.7965 N   0  0  0  0  0  0  0  0  0  0  0  0
    9.9088  -17.4912   24.0047 C   0  0  1  0  0  0  0  0  0  0  0  0
   10.2557  -18.8798   23.5743 C   0  0  0  0  0  0  0  0  0  0  0  0
   11.3978  -18.9251   22.6515 C   0  0  0  0  0  0  0  0  0  0  0  0
   12.5413  -18.6011   23.0021 O   0  0  0  0  0  0  0  0  0  0  0  0
   10.9894  -16.8633   24.7894 C   0  0  0  0  0  0  0  0  0  0  0  0
   11.4142  -17.2371   26.0396 O   0  0  0  0  0  0  0  0  0  0  0  0
   11.2477  -19.3410   21.3176 O   0  0  0  0  0  0  0  0  0  0  0  0
   11.5994  -15.8711   24.2644 O   0  0  0  0  0  0  0  0  0  0  0  0
  1  2  1  0
  2  3  1  0
  3 10  1  0
  3  4  2  0
  6  7  1  0
  6  5  1  0
  7  8  1  1
  9  7  1  0
  9 10  1  6
 11  9  1  0
 11 13  1  0
 12 11  2  0
 14 15  1  6
 14 13  1  0
 14 18  1  0
 16 20  1  0
 16 15  1  0
 17 16  2  0
 18 19  1  0
 21 18  2  0
M  END
$$$$
