GID.pdb
     RDKit          3D

 21 20  0  0  1  0  0  0  0  0999 V2000
    8.4024  -17.7567   16.1963 N   0  0  0  0  0  0  0  0  0  0  0  0
    7.7343  -17.7353   17.4639 C   0  0  0  0  0  0  0  0  0  0  0  0
    8.5158  -16.9429   18.4764 C   0  0  0  0  0  0  0  0  0  0  0  0
    9.7608  -16.9256   18.3623 O   0  0  0  0  0  0  0  0  0  0  0  0
    6.9036  -12.0829   20.1470 C   0  0  0  0  0  0  0  0  0  0  0  0
    7.6564  -13.3144   19.7703 C   0  0  0  0  0  0  0  0  0  0  0  0
    7.9308  -14.2824   20.8655 C   0  0  2  0  0  0  0  0  0  0  0  0
    8.4306  -13.5763   22.1076 C   0  0  0  0  0  0  0  0  0  0  0  0
    8.4957  -15.5914   20.5486 C   0  0  2  0  0  0  0  0  0  0  0  0
    7.7858  -16.2698   19.4912 N   0  0  0  0  0  0  0  0  0  0  0  0
    8.9455  -16.4809   21.6303 C   0  0  0  0  0  0  0  0  0  0  0  0
    8.1872  -17.1591   22.3454 O   0  0  0  0  0  0  0  0  0  0  0  0
   10.3336  -16.5823   21.8956 N   0  0  0  0  0  0  0  0  0  0  0  0
   10.8745  -17.4606   22.9404 C   0  0  1  0  0  0  0  0  0  0  0  0
   12.0433  -18.1917   22.3633 C   0  0  0  0  0  0  0  0  0  0  0  0
   11.7993  -19.6322   22.2103 C   0  0  0  0  0  0  0  0  0  0  0  0
   10.7804  -20.1787   22.6558 O   0  0  0  0  0  0  0  0  0  0  0  0
   11.2462  -16.6561   24.1204 C   0  0  0  0  0  0  0  0  0  0  0  0
   11.2399  -17.0728   25.4279 O   0  0  0  0  0  0  0  0  0  0  0  0
   12.7158  -20.4655   21.5467 O   0  0  0  0  0  0  0  0  0  0  0  0
   11.6127  -15.4489   23.9194 O   0  0  0  0  0  0  0  0  0  0  0  0
  1  2  1  0
  2  3  1  0
  3 10  1  0
  3  4  2  0
  6  7  1  0
  6  5  1  0
  7  8  1  1
  9  7  1  0
  9 10  1  1
 11  9  1  0
 11 13  1  0
 12 11  2  0
 14 15  1  6
 14 13  1  0
 14 18  1  0
 16 20  1  0
 16 15  1  0
 17 16  2  0
 18 19  1  0
 21 18  2  0
M  END
$$$$
