GID.pdb
     RDKit          3D

 21 20  0  0  1  0  0  0  0  0999 V2000
    6.1091  -16.1035   20.0701 N   0  0  0  0  0  0  0  0  0  0  0  0
    5.6613  -15.8451   21.4066 C   0  0  0  0  0  0  0  0  0  0  0  0
    6.7979  -15.3911   22.2818 C   0  0  0  0  0  0  0  0  0  0  0  0
    7.9538  -15.4557   21.8096 O   0  0  0  0  0  0  0  0  0  0  0  0
    7.7991  -11.8190   27.2036 C   0  0  0  0  0  0  0  0  0  0  0  0
    8.2353  -12.9257   26.3035 C   0  0  0  0  0  0  0  0  0  0  0  0
    7.2012  -13.4818   25.3906 C   0  0  2  0  0  0  0  0  0  0  0  0
    5.8393  -13.4974   26.0511 C   0  0  0  0  0  0  0  0  0  0  0  0
    7.5425  -14.5882   24.5003 C   0  0  2  0  0  0  0  0  0  0  0  0
    6.4794  -14.9211   23.5831 N   0  0  0  0  0  0  0  0  0  0  0  0
    8.2667  -15.7572   25.0224 C   0  0  0  0  0  0  0  0  0  0  0  0
    7.7223  -16.7555   25.5259 O   0  0  0  0  0  0  0  0  0  0  0  0
    9.6822  -15.7641   24.9618 N   0  0  0  0  0  0  0  0  0  0  0  0
   10.4787  -16.9585   25.2690 C   0  0  1  0  0  0  0  0  0  0  0  0
   11.8314  -16.7750   24.6605 C   0  0  0  0  0  0  0  0  0  0  0  0
   12.7287  -17.9121   24.9051 C   0  0  0  0  0  0  0  0  0  0  0  0
   12.3670  -18.9117   25.5418 O   0  0  0  0  0  0  0  0  0  0  0  0
   10.5450  -17.1474   26.7311 C   0  0  0  0  0  0  0  0  0  0  0  0
   10.4172  -16.1715   27.6874 O   0  0  0  0  0  0  0  0  0  0  0  0
   14.0496  -17.9212   24.4256 O   0  0  0  0  0  0  0  0  0  0  0  0
   10.7405  -18.3333   27.1643 O   0  0  0  0  0  0  0  0  0  0  0  0
  1  2  1  0
  2  3  1  0
  3 10  1  0
  3  4  2  0
  6  7  1  0
  6  5  1  0
  7  8  1  1
  9  7  1  0
  9 10  1  1
 11  9  1  0
 11 13  1  0
 12 11  2  0
 14 15  1  1
 14 13  1  0
 14 18  1  0
 16 20  1  0
 16 15  1  0
 17 16  2  0
 18 19  1  0
 21 18  2  0
M  END
$$$$
