GID.pdb
     RDKit          3D

 21 20  0  0  1  0  0  0  0  0999 V2000
    7.7282  -17.8227   16.3951 N   0  0  0  0  0  0  0  0  0  0  0  0
    7.1745  -17.7601   17.7153 C   0  0  0  0  0  0  0  0  0  0  0  0
    8.1027  -17.0461   18.6601 C   0  0  0  0  0  0  0  0  0  0  0  0
    9.3320  -17.1902   18.4834 O   0  0  0  0  0  0  0  0  0  0  0  0
    7.0148  -12.0053   20.2401 C   0  0  0  0  0  0  0  0  0  0  0  0
    7.6595  -13.2950   19.8580 C   0  0  0  0  0  0  0  0  0  0  0  0
    7.9410  -14.2470   20.9654 C   0  0  2  0  0  0  0  0  0  0  0  0
    8.5978  -13.5465   22.1355 C   0  0  0  0  0  0  0  0  0  0  0  0
    8.3672  -15.6093   20.6568 C   0  0  2  0  0  0  0  0  0  0  0  0
    7.5186  -16.2585   19.6868 N   0  0  0  0  0  0  0  0  0  0  0  0
    8.8293  -16.4983   21.7337 C   0  0  0  0  0  0  0  0  0  0  0  0
    8.0992  -16.9580   22.6293 O   0  0  0  0  0  0  0  0  0  0  0  0
   10.1975  -16.8639   21.7748 N   0  0  0  0  0  0  0  0  0  0  0  0
   10.7513  -17.7290   22.8239 C   0  0  1  0  0  0  0  0  0  0  0  0
   11.9469  -18.4252   22.2586 C   0  0  0  0  0  0  0  0  0  0  0  0
   12.5104  -19.4287   23.1715 C   0  0  0  0  0  0  0  0  0  0  0  0
   13.2230  -20.3591   22.7690 O   0  0  0  0  0  0  0  0  0  0  0  0
   11.0866  -16.9172   24.0097 C   0  0  0  0  0  0  0  0  0  0  0  0
   11.7820  -15.7342   24.0197 O   0  0  0  0  0  0  0  0  0  0  0  0
   12.2670  -19.3817   24.5547 O   0  0  0  0  0  0  0  0  0  0  0  0
   10.6965  -17.3468   25.1479 O   0  0  0  0  0  0  0  0  0  0  0  0
  1  2  1  0
  2  3  1  0
  3 10  1  0
  3  4  2  0
  6  7  1  0
  6  5  1  0
  7  8  1  1
  9  7  1  0
  9 10  1  1
 11  9  1  0
 11 13  1  0
 12 11  2  0
 14 15  1  6
 14 13  1  0
 14 18  1  0
 16 20  1  0
 16 15  1  0
 17 16  2  0
 18 19  1  0
 21 18  2  0
M  END
$$$$
