GID.pdb
     RDKit          3D

 21 20  0  0  1  0  0  0  0  0999 V2000
   -0.8235  -27.0423   30.0297 N   0  0  0  0  0  0  0  0  0  0  0  0
   -2.1322  -27.0571   29.4461 C   0  0  0  0  0  0  0  0  0  0  0  0
   -2.8650  -25.7726   29.7233 C   0  0  0  0  0  0  0  0  0  0  0  0
   -3.0414  -25.4531   30.9191 O   0  0  0  0  0  0  0  0  0  0  0  0
   -3.3501  -20.7175   26.5111 C   0  0  0  0  0  0  0  0  0  0  0  0
   -4.0087  -21.9514   27.0295 C   0  0  0  0  0  0  0  0  0  0  0  0
   -3.3348  -22.6323   28.1671 C   0  0  2  0  0  0  0  0  0  0  0  0
   -1.8387  -22.7087   27.9505 C   0  0  0  0  0  0  0  0  0  0  0  0
   -3.9893  -23.7601   28.8249 C   0  0  2  0  0  0  0  0  0  0  0  0
   -3.3056  -25.0123   28.6081 N   0  0  0  0  0  0  0  0  0  0  0  0
   -5.4559  -23.8718   28.8095 C   0  0  0  0  0  0  0  0  0  0  0  0
   -6.1106  -24.4241   27.9079 O   0  0  0  0  0  0  0  0  0  0  0  0
   -6.1925  -23.3138   29.8834 N   0  0  0  0  0  0  0  0  0  0  0  0
   -7.6604  -23.3076   29.9135 C   0  0  1  0  0  0  0  0  0  0  0  0
   -8.1005  -24.2832   30.9567 C   0  0  0  0  0  0  0  0  0  0  0  0
   -9.5611  -24.3509   31.0981 C   0  0  0  0  0  0  0  0  0  0  0  0
  -10.1607  -23.7820   32.0213 O   0  0  0  0  0  0  0  0  0  0  0  0
   -8.1446  -21.9408   30.1873 C   0  0  0  0  0  0  0  0  0  0  0  0
   -7.3811  -20.8631   30.5600 O   0  0  0  0  0  0  0  0  0  0  0  0
  -10.3543  -25.0688   30.1869 O   0  0  0  0  0  0  0  0  0  0  0  0
   -9.3983  -21.7247   30.0696 O   0  0  0  0  0  0  0  0  0  0  0  0
  1  2  1  0
  2  3  1  0
  3 10  1  0
  3  4  2  0
  6  7  1  0
  6  5  1  0
  7  8  1  6
  9  7  1  0
  9 10  1  6
 11  9  1  0
 11 13  1  0
 12 11  2  0
 14 15  1  1
 14 13  1  0
 14 18  1  0
 16 20  1  0
 16 15  1  0
 17 16  2  0
 18 19  1  0
 21 18  2  0
M  END
$$$$
