GID.pdb
     RDKit          3D

 21 20  0  0  1  0  0  0  0  0999 V2000
    9.9591  -16.6735   14.2912 N   0  0  0  0  0  0  0  0  0  0  0  0
    9.2758  -16.6685   15.5508 C   0  0  0  0  0  0  0  0  0  0  0  0
    9.9187  -15.7074   16.5135 C   0  0  0  0  0  0  0  0  0  0  0  0
   11.0817  -15.3249   16.2598 O   0  0  0  0  0  0  0  0  0  0  0  0
    6.4446  -12.5049   19.1803 C   0  0  0  0  0  0  0  0  0  0  0  0
    7.6254  -13.0036   18.4171 C   0  0  0  0  0  0  0  0  0  0  0  0
    8.7677  -13.5104   19.2235 C   0  0  2  0  0  0  0  0  0  0  0  0
    9.2753  -12.4520   20.1791 C   0  0  0  0  0  0  0  0  0  0  0  0
    9.7464  -14.4034   18.6090 C   0  0  2  0  0  0  0  0  0  0  0  0
    9.1606  -15.3015   17.6432 N   0  0  0  0  0  0  0  0  0  0  0  0
   10.8010  -15.0174   19.4303 C   0  0  0  0  0  0  0  0  0  0  0  0
   10.7827  -16.1927   19.8362 O   0  0  0  0  0  0  0  0  0  0  0  0
   11.9204  -14.2315   19.7998 N   0  0  0  0  0  0  0  0  0  0  0  0
   13.0765  -14.7912   20.5111 C   0  0  1  0  0  0  0  0  0  0  0  0
   12.6685  -16.1123   21.0784 C   0  0  0  0  0  0  0  0  0  0  0  0
   13.7716  -16.8129   21.7495 C   0  0  0  0  0  0  0  0  0  0  0  0
   14.0568  -16.6072   22.9376 O   0  0  0  0  0  0  0  0  0  0  0  0
   14.2184  -14.9101   19.5841 C   0  0  0  0  0  0  0  0  0  0  0  0
   15.4562  -15.4264   19.8749 O   0  0  0  0  0  0  0  0  0  0  0  0
   14.5619  -17.7568   21.0718 O   0  0  0  0  0  0  0  0  0  0  0  0
   14.0523  -14.4946   18.3874 O   0  0  0  0  0  0  0  0  0  0  0  0
  1  2  1  0
  2  3  1  0
  3 10  1  0
  3  4  2  0
  6  7  1  0
  6  5  1  0
  7  8  1  6
  9  7  1  0
  9 10  1  1
 11  9  1  0
 11 13  1  0
 12 11  2  0
 14 15  1  6
 14 13  1  0
 14 18  1  0
 16 20  1  0
 16 15  1  0
 17 16  2  0
 18 19  1  0
 21 18  2  0
M  END
$$$$
