GID.pdb
     RDKit          3D

 21 20  0  0  1  0  0  0  0  0999 V2000
    5.6074  -18.6721   22.9261 N   0  0  0  0  0  0  0  0  0  0  0  0
    5.4266  -17.7258   23.9870 C   0  0  0  0  0  0  0  0  0  0  0  0
    6.6266  -16.8287   24.1249 C   0  0  0  0  0  0  0  0  0  0  0  0
    7.6155  -17.0687   23.3985 O   0  0  0  0  0  0  0  0  0  0  0  0
    6.9285  -11.9872   27.4298 C   0  0  0  0  0  0  0  0  0  0  0  0
    6.4379  -13.1179   26.5895 C   0  0  0  0  0  0  0  0  0  0  0  0
    7.2842  -13.4918   25.4250 C   0  0  2  0  0  0  0  0  0  0  0  0
    6.9123  -12.6877   24.1977 C   0  0  0  0  0  0  0  0  0  0  0  0
    7.6793  -14.8851   25.2363 C   0  0  2  0  0  0  0  0  0  0  0  0
    6.5532  -15.7720   25.0703 N   0  0  0  0  0  0  0  0  0  0  0  0
    8.7737  -15.4552   26.0368 C   0  0  0  0  0  0  0  0  0  0  0  0
    8.7066  -15.6881   27.2566 O   0  0  0  0  0  0  0  0  0  0  0  0
    9.9987  -15.7623   25.3946 N   0  0  0  0  0  0  0  0  0  0  0  0
   10.9890  -16.6744   25.9802 C   0  0  1  0  0  0  0  0  0  0  0  0
   10.3193  -17.9910   26.2082 C   0  0  0  0  0  0  0  0  0  0  0  0
   11.2304  -19.0124   26.7417 C   0  0  0  0  0  0  0  0  0  0  0  0
   11.8347  -18.8614   27.8129 O   0  0  0  0  0  0  0  0  0  0  0  0
   12.1519  -16.7880   25.0789 C   0  0  0  0  0  0  0  0  0  0  0  0
   12.2969  -16.1886   23.8530 O   0  0  0  0  0  0  0  0  0  0  0  0
   11.4622  -20.2183   26.0584 O   0  0  0  0  0  0  0  0  0  0  0  0
   13.1292  -17.5142   25.4659 O   0  0  0  0  0  0  0  0  0  0  0  0
  1  2  1  0
  2  3  1  0
  3 10  1  0
  3  4  2  0
  6  7  1  0
  6  5  1  0
  7  8  1  6
  9  7  1  0
  9 10  1  1
 11  9  1  0
 11 13  1  0
 12 11  2  0
 14 15  1  6
 14 13  1  0
 14 18  1  0
 16 20  1  0
 16 15  1  0
 17 16  2  0
 18 19  1  0
 21 18  2  0
M  END
$$$$
