GID.pdb
     RDKit          3D

 21 20  0  0  1  0  0  0  0  0999 V2000
    6.8512  -14.7884   20.1555 N   0  0  0  0  0  0  0  0  0  0  0  0
    6.1988  -14.7363   21.4304 C   0  0  0  0  0  0  0  0  0  0  0  0
    7.1977  -14.5906   22.5460 C   0  0  0  0  0  0  0  0  0  0  0  0
    8.4087  -14.7073   22.2579 O   0  0  0  0  0  0  0  0  0  0  0  0
    6.0115  -11.0288   26.4453 C   0  0  0  0  0  0  0  0  0  0  0  0
    6.6178  -11.9193   25.4135 C   0  0  0  0  0  0  0  0  0  0  0  0
    7.2363  -13.1783   25.9078 C   0  0  2  0  0  0  0  0  0  0  0  0
    8.1648  -12.9113   27.0730 C   0  0  0  0  0  0  0  0  0  0  0  0
    7.6143  -14.2200   24.9565 C   0  0  2  0  0  0  0  0  0  0  0  0
    6.6963  -14.3307   23.8486 N   0  0  0  0  0  0  0  0  0  0  0  0
    8.1201  -15.5129   25.4425 C   0  0  0  0  0  0  0  0  0  0  0  0
    7.4012  -16.4415   25.8515 O   0  0  0  0  0  0  0  0  0  0  0  0
    9.5195  -15.7338   25.4590 N   0  0  0  0  0  0  0  0  0  0  0  0
   10.1055  -17.0799   25.4398 C   0  0  1  0  0  0  0  0  0  0  0  0
    9.6519  -17.7582   24.1877 C   0  0  0  0  0  0  0  0  0  0  0  0
   10.2409  -19.0927   24.0133 C   0  0  0  0  0  0  0  0  0  0  0  0
   10.9774  -19.6045   24.8683 O   0  0  0  0  0  0  0  0  0  0  0  0
   11.5757  -16.9815   25.5205 C   0  0  0  0  0  0  0  0  0  0  0  0
   12.3671  -16.0475   24.9004 O   0  0  0  0  0  0  0  0  0  0  0  0
    9.9957  -19.8584   22.8608 O   0  0  0  0  0  0  0  0  0  0  0  0
   12.1862  -17.8461   26.2360 O   0  0  0  0  0  0  0  0  0  0  0  0
  1  2  1  0
  2  3  1  0
  3 10  1  0
  3  4  2  0
  6  7  1  0
  6  5  1  0
  7  8  1  6
  9  7  1  0
  9 10  1  1
 11  9  1  0
 11 13  1  0
 12 11  2  0
 14 15  1  6
 14 13  1  0
 14 18  1  0
 16 20  1  0
 16 15  1  0
 17 16  2  0
 18 19  1  0
 21 18  2  0
M  END
$$$$
