GID.pdb
     RDKit          3D

 21 20  0  0  1  0  0  0  0  0999 V2000
    5.2564  -17.4805   21.8033 N   0  0  0  0  0  0  0  0  0  0  0  0
    5.2335  -17.0963   23.1836 C   0  0  0  0  0  0  0  0  0  0  0  0
    6.4550  -16.2954   23.5447 C   0  0  0  0  0  0  0  0  0  0  0  0
    7.4063  -16.2928   22.7334 O   0  0  0  0  0  0  0  0  0  0  0  0
    6.2423  -11.7356   26.4421 C   0  0  0  0  0  0  0  0  0  0  0  0
    6.6872  -12.7983   25.4944 C   0  0  0  0  0  0  0  0  0  0  0  0
    7.5528  -13.8677   26.0593 C   0  0  2  0  0  0  0  0  0  0  0  0
    8.7893  -13.2847   26.7092 C   0  0  0  0  0  0  0  0  0  0  0  0
    7.6861  -15.1386   25.3522 C   0  0  2  0  0  0  0  0  0  0  0  0
    6.4430  -15.5984   24.7815 N   0  0  0  0  0  0  0  0  0  0  0  0
    8.5149  -16.2134   25.9191 C   0  0  0  0  0  0  0  0  0  0  0  0
    8.0964  -17.0904   26.6952 O   0  0  0  0  0  0  0  0  0  0  0  0
    9.8880  -16.2683   25.5743 N   0  0  0  0  0  0  0  0  0  0  0  0
   10.7651  -17.3653   26.0022 C   0  0  1  0  0  0  0  0  0  0  0  0
   12.0548  -17.2363   25.2579 C   0  0  0  0  0  0  0  0  0  0  0  0
   11.8786  -17.2510   23.7995 C   0  0  0  0  0  0  0  0  0  0  0  0
   11.1090  -18.0426   23.2369 O   0  0  0  0  0  0  0  0  0  0  0  0
   10.9557  -17.3058   27.4643 C   0  0  0  0  0  0  0  0  0  0  0  0
   10.5540  -16.2940   28.2999 O   0  0  0  0  0  0  0  0  0  0  0  0
   12.5789  -16.3620   22.9665 O   0  0  0  0  0  0  0  0  0  0  0  0
   11.5532  -18.2880   28.0215 O   0  0  0  0  0  0  0  0  0  0  0  0
  1  2  1  0
  2  3  1  0
  3 10  1  0
  3  4  2  0
  6  7  1  0
  6  5  1  0
  7  8  1  6
  9  7  1  0
  9 10  1  1
 11  9  1  0
 11 13  1  0
 12 11  2  0
 14 15  1  6
 14 13  1  0
 14 18  1  0
 16 20  1  0
 16 15  1  0
 17 16  2  0
 18 19  1  0
 21 18  2  0
M  END
$$$$
