GID.pdb
     RDKit          3D

 21 20  0  0  1  0  0  0  0  0999 V2000
    5.4566  -18.4641   21.9897 N   0  0  0  0  0  0  0  0  0  0  0  0
    5.4374  -17.8913   23.3031 C   0  0  0  0  0  0  0  0  0  0  0  0
    6.3769  -16.7199   23.3985 C   0  0  0  0  0  0  0  0  0  0  0  0
    7.0348  -16.4208   22.3782 O   0  0  0  0  0  0  0  0  0  0  0  0
    6.9140  -11.5613   26.7019 C   0  0  0  0  0  0  0  0  0  0  0  0
    7.4682  -12.5353   25.7174 C   0  0  0  0  0  0  0  0  0  0  0  0
    6.7803  -13.8510   25.6301 C   0  0  2  0  0  0  0  0  0  0  0  0
    6.2047  -14.2575   26.9698 C   0  0  0  0  0  0  0  0  0  0  0  0
    7.3312  -14.8995   24.7757 C   0  0  2  0  0  0  0  0  0  0  0  0
    6.4514  -16.0353   24.6400 N   0  0  0  0  0  0  0  0  0  0  0  0
    8.7547  -15.2569   24.8731 C   0  0  0  0  0  0  0  0  0  0  0  0
    9.6757  -14.4394   25.0461 O   0  0  0  0  0  0  0  0  0  0  0  0
    9.1238  -16.6201   24.7593 N   0  0  0  0  0  0  0  0  0  0  0  0
   10.5204  -17.0674   24.8304 C   0  0  1  0  0  0  0  0  0  0  0  0
   11.3440  -16.1267   24.0116 C   0  0  0  0  0  0  0  0  0  0  0  0
   12.7735  -16.4653   24.0147 C   0  0  0  0  0  0  0  0  0  0  0  0
   13.2026  -17.5068   24.5308 O   0  0  0  0  0  0  0  0  0  0  0  0
   10.9560  -17.1094   26.2397 C   0  0  0  0  0  0  0  0  0  0  0  0
   12.0891  -17.7113   26.7267 O   0  0  0  0  0  0  0  0  0  0  0  0
   13.7296  -15.6187   23.4283 O   0  0  0  0  0  0  0  0  0  0  0  0
   10.2135  -16.5317   27.1040 O   0  0  0  0  0  0  0  0  0  0  0  0
  1  2  1  0
  2  3  1  0
  3 10  1  0
  3  4  2  0
  6  7  1  0
  6  5  1  0
  7  8  1  1
  9  7  1  0
  9 10  1  1
 11  9  1  0
 11 13  1  0
 12 11  2  0
 14 15  1  6
 14 13  1  0
 14 18  1  0
 16 20  1  0
 16 15  1  0
 17 16  2  0
 18 19  1  0
 21 18  2  0
M  END
$$$$
