GID.pdb
     RDKit          3D

 21 20  0  0  1  0  0  0  0  0999 V2000
    8.3136  -17.8317   16.5056 N   0  0  0  0  0  0  0  0  0  0  0  0
    7.6858  -17.9072   17.7915 C   0  0  0  0  0  0  0  0  0  0  0  0
    8.4336  -17.0900   18.8097 C   0  0  0  0  0  0  0  0  0  0  0  0
    9.6780  -17.2058   18.8443 O   0  0  0  0  0  0  0  0  0  0  0  0
    6.9219  -11.9879   19.9358 C   0  0  0  0  0  0  0  0  0  0  0  0
    7.6010  -13.2938   19.6943 C   0  0  0  0  0  0  0  0  0  0  0  0
    7.8106  -14.1601   20.8849 C   0  0  2  0  0  0  0  0  0  0  0  0
    8.2999  -13.3540   22.0690 C   0  0  0  0  0  0  0  0  0  0  0  0
    8.3379  -15.5111   20.7121 C   0  0  2  0  0  0  0  0  0  0  0  0
    7.6747  -16.2440   19.6607 N   0  0  0  0  0  0  0  0  0  0  0  0
    8.6708  -16.3280   21.8892 C   0  0  0  0  0  0  0  0  0  0  0  0
    7.8334  -16.9016   22.6078 O   0  0  0  0  0  0  0  0  0  0  0  0
   10.0325  -16.4801   22.2494 N   0  0  0  0  0  0  0  0  0  0  0  0
   10.4639  -17.3450   23.3546 C   0  0  1  0  0  0  0  0  0  0  0  0
   11.0536  -18.5840   22.7622 C   0  0  0  0  0  0  0  0  0  0  0  0
   10.9771  -19.7421   23.6627 C   0  0  0  0  0  0  0  0  0  0  0  0
   10.5014  -19.6591   24.8038 O   0  0  0  0  0  0  0  0  0  0  0  0
   11.4272  -16.6193   24.2048 C   0  0  0  0  0  0  0  0  0  0  0  0
   11.6224  -16.7954   25.5517 O   0  0  0  0  0  0  0  0  0  0  0  0
   11.4426  -21.0088   23.2707 O   0  0  0  0  0  0  0  0  0  0  0  0
   12.1597  -15.7355   23.6440 O   0  0  0  0  0  0  0  0  0  0  0  0
  1  2  1  0
  2  3  1  0
  3 10  1  0
  3  4  2  0
  6  7  1  0
  6  5  1  0
  7  8  1  1
  9  7  1  0
  9 10  1  1
 11  9  1  0
 11 13  1  0
 12 11  2  0
 14 15  1  6
 14 13  1  0
 14 18  1  0
 16 20  1  0
 16 15  1  0
 17 16  2  0
 18 19  1  0
 21 18  2  0
M  END
$$$$
