GID.pdb
     RDKit          3D

 21 20  0  0  1  0  0  0  0  0999 V2000
    7.3557  -14.6780   19.9206 N   0  0  0  0  0  0  0  0  0  0  0  0
    6.5843  -14.6223   21.1270 C   0  0  0  0  0  0  0  0  0  0  0  0
    7.4742  -14.5321   22.3369 C   0  0  0  0  0  0  0  0  0  0  0  0
    8.7052  -14.6621   22.1612 O   0  0  0  0  0  0  0  0  0  0  0  0
    6.0306  -11.1042   26.3045 C   0  0  0  0  0  0  0  0  0  0  0  0
    6.6819  -11.9719   25.2808 C   0  0  0  0  0  0  0  0  0  0  0  0
    7.2045  -13.2798   25.7586 C   0  0  2  0  0  0  0  0  0  0  0  0
    7.9990  -13.1177   27.0367 C   0  0  0  0  0  0  0  0  0  0  0  0
    7.6614  -14.2730   24.7902 C   0  0  2  0  0  0  0  0  0  0  0  0
    6.8547  -14.3057   23.5941 N   0  0  0  0  0  0  0  0  0  0  0  0
    8.1021  -15.5996   25.2480 C   0  0  0  0  0  0  0  0  0  0  0  0
    7.3355  -16.5156   25.5941 O   0  0  0  0  0  0  0  0  0  0  0  0
    9.4912  -15.8712   25.3115 N   0  0  0  0  0  0  0  0  0  0  0  0
   10.0204  -17.2051   25.6219 C   0  0  1  0  0  0  0  0  0  0  0  0
   11.2046  -17.4433   24.7418 C   0  0  0  0  0  0  0  0  0  0  0  0
   11.8908  -18.7088   25.0347 C   0  0  0  0  0  0  0  0  0  0  0  0
   11.2746  -19.7736   25.1819 O   0  0  0  0  0  0  0  0  0  0  0  0
   10.3652  -17.2803   27.0547 C   0  0  0  0  0  0  0  0  0  0  0  0
   10.3788  -18.4101   27.8334 O   0  0  0  0  0  0  0  0  0  0  0  0
   13.2887  -18.7732   25.1628 O   0  0  0  0  0  0  0  0  0  0  0  0
   10.6853  -16.1918   27.6420 O   0  0  0  0  0  0  0  0  0  0  0  0
  1  2  1  0
  2  3  1  0
  3 10  1  0
  3  4  2  0
  6  7  1  0
  6  5  1  0
  7  8  1  1
  9  7  1  0
  9 10  1  6
 11  9  1  0
 11 13  1  0
 12 11  2  0
 14 15  1  6
 14 13  1  0
 14 18  1  0
 16 20  1  0
 16 15  1  0
 17 16  2  0
 18 19  1  0
 21 18  2  0
M  END
$$$$
