GID.pdb
     RDKit          3D

 21 20  0  0  1  0  0  0  0  0999 V2000
    4.9635  -17.8132   22.0312 N   0  0  0  0  0  0  0  0  0  0  0  0
    5.0319  -17.4246   23.4089 C   0  0  0  0  0  0  0  0  0  0  0  0
    6.1922  -16.4989   23.6551 C   0  0  0  0  0  0  0  0  0  0  0  0
    7.0703  -16.4227   22.7684 O   0  0  0  0  0  0  0  0  0  0  0  0
    5.6885  -12.0133   26.6446 C   0  0  0  0  0  0  0  0  0  0  0  0
    6.2359  -12.9463   25.6174 C   0  0  0  0  0  0  0  0  0  0  0  0
    7.2264  -13.9478   26.0948 C   0  0  2  0  0  0  0  0  0  0  0  0
    8.4358  -13.2731   26.7059 C   0  0  0  0  0  0  0  0  0  0  0  0
    7.4402  -15.1740   25.3309 C   0  0  2  0  0  0  0  0  0  0  0  0
    6.2098  -15.7762   24.8770 N   0  0  0  0  0  0  0  0  0  0  0  0
    8.4538  -16.1465   25.7674 C   0  0  0  0  0  0  0  0  0  0  0  0
    8.2370  -17.0838   26.5554 O   0  0  0  0  0  0  0  0  0  0  0  0
    9.7753  -16.0214   25.2721 N   0  0  0  0  0  0  0  0  0  0  0  0
   10.8271  -16.9995   25.5760 C   0  0  1  0  0  0  0  0  0  0  0  0
   12.0175  -16.6668   24.7357 C   0  0  0  0  0  0  0  0  0  0  0  0
   11.8004  -16.9266   23.3062 C   0  0  0  0  0  0  0  0  0  0  0  0
   10.8806  -17.6511   22.9005 O   0  0  0  0  0  0  0  0  0  0  0  0
   11.1346  -16.9643   27.0188 C   0  0  0  0  0  0  0  0  0  0  0  0
   11.6732  -17.9829   27.7643 O   0  0  0  0  0  0  0  0  0  0  0  0
   12.6308  -16.3621   22.3231 O   0  0  0  0  0  0  0  0  0  0  0  0
   10.8788  -15.8835   27.6501 O   0  0  0  0  0  0  0  0  0  0  0  0
  1  2  1  0
  2  3  1  0
  3 10  1  0
  3  4  2  0
  6  7  1  0
  6  5  1  0
  7  8  1  6
  9  7  1  0
  9 10  1  1
 11  9  1  0
 11 13  1  0
 12 11  2  0
 14 15  1  6
 14 13  1  0
 14 18  1  0
 16 20  1  0
 16 15  1  0
 17 16  2  0
 18 19  1  0
 21 18  2  0
M  END
$$$$
