GID.pdb
     RDKit          3D

 21 20  0  0  1  0  0  0  0  0999 V2000
    7.1730  -15.1013   19.6779 N   0  0  0  0  0  0  0  0  0  0  0  0
    6.4792  -14.8610   20.9086 C   0  0  0  0  0  0  0  0  0  0  0  0
    7.4394  -14.7616   22.0627 C   0  0  0  0  0  0  0  0  0  0  0  0
    8.6448  -15.0038   21.8357 O   0  0  0  0  0  0  0  0  0  0  0  0
    7.8403  -11.7531   27.4038 C   0  0  0  0  0  0  0  0  0  0  0  0
    8.3188  -12.8354   26.4956 C   0  0  0  0  0  0  0  0  0  0  0  0
    7.4177  -13.2006   25.3703 C   0  0  2  0  0  0  0  0  0  0  0  0
    5.9635  -13.0901   25.7756 C   0  0  0  0  0  0  0  0  0  0  0  0
    7.7950  -14.2817   24.4637 C   0  0  2  0  0  0  0  0  0  0  0  0
    6.9104  -14.3998   23.3296 N   0  0  0  0  0  0  0  0  0  0  0  0
    8.2457  -15.5730   25.0046 C   0  0  0  0  0  0  0  0  0  0  0  0
    7.4887  -16.5106   25.3119 O   0  0  0  0  0  0  0  0  0  0  0  0
    9.6331  -15.7817   25.2019 N   0  0  0  0  0  0  0  0  0  0  0  0
   10.1984  -17.1059   25.4890 C   0  0  1  0  0  0  0  0  0  0  0  0
   11.5290  -17.1913   24.8139 C   0  0  0  0  0  0  0  0  0  0  0  0
   12.2245  -18.4584   25.0764 C   0  0  0  0  0  0  0  0  0  0  0  0
   12.3141  -18.9369   26.2159 O   0  0  0  0  0  0  0  0  0  0  0  0
   10.2997  -17.2955   26.9490 C   0  0  0  0  0  0  0  0  0  0  0  0
   10.5277  -16.3188   27.8856 O   0  0  0  0  0  0  0  0  0  0  0  0
   12.8257  -19.1940   24.0409 O   0  0  0  0  0  0  0  0  0  0  0  0
   10.1635  -18.4829   27.4003 O   0  0  0  0  0  0  0  0  0  0  0  0
  1  2  1  0
  2  3  1  0
  3 10  1  0
  3  4  2  0
  6  7  1  0
  6  5  1  0
  7  8  1  1
  9  7  1  0
  9 10  1  6
 11  9  1  0
 11 13  1  0
 12 11  2  0
 14 15  1  6
 14 13  1  0
 14 18  1  0
 16 20  1  0
 16 15  1  0
 17 16  2  0
 18 19  1  0
 21 18  2  0
M  END
$$$$
