GID.pdb
     RDKit          3D

 21 20  0  0  1  0  0  0  0  0999 V2000
    7.0239  -14.6272   20.0353 N   0  0  0  0  0  0  0  0  0  0  0  0
    6.3435  -14.6771   21.2955 C   0  0  0  0  0  0  0  0  0  0  0  0
    7.3084  -14.5253   22.4399 C   0  0  0  0  0  0  0  0  0  0  0  0
    8.5299  -14.5768   22.1781 O   0  0  0  0  0  0  0  0  0  0  0  0
    5.9700  -11.2556   26.5937 C   0  0  0  0  0  0  0  0  0  0  0  0
    6.6541  -12.0344   25.5210 C   0  0  0  0  0  0  0  0  0  0  0  0
    7.1972  -13.3625   25.9123 C   0  0  2  0  0  0  0  0  0  0  0  0
    8.0122  -13.2674   27.1843 C   0  0  0  0  0  0  0  0  0  0  0  0
    7.6466  -14.2924   24.8797 C   0  0  2  0  0  0  0  0  0  0  0  0
    6.7653  -14.3344   23.7377 N   0  0  0  0  0  0  0  0  0  0  0  0
    8.1947  -15.6040   25.2577 C   0  0  0  0  0  0  0  0  0  0  0  0
    7.5069  -16.6123   25.4963 O   0  0  0  0  0  0  0  0  0  0  0  0
    9.5997  -15.7486   25.3684 N   0  0  0  0  0  0  0  0  0  0  0  0
   10.2573  -17.0609   25.3998 C   0  0  1  0  0  0  0  0  0  0  0  0
   11.4066  -17.0194   24.4453 C   0  0  0  0  0  0  0  0  0  0  0  0
   12.2214  -18.2414   24.4762 C   0  0  0  0  0  0  0  0  0  0  0  0
   11.9255  -19.2128   25.1863 O   0  0  0  0  0  0  0  0  0  0  0  0
   10.6866  -17.3672   26.7780 C   0  0  0  0  0  0  0  0  0  0  0  0
   10.6469  -16.5163   27.8540 O   0  0  0  0  0  0  0  0  0  0  0  0
   13.3836  -18.3687   23.6965 O   0  0  0  0  0  0  0  0  0  0  0  0
   11.1433  -18.5382   27.0070 O   0  0  0  0  0  0  0  0  0  0  0  0
  1  2  1  0
  2  3  1  0
  3 10  1  0
  3  4  2  0
  6  7  1  0
  6  5  1  0
  7  8  1  1
  9  7  1  0
  9 10  1  6
 11  9  1  0
 11 13  1  0
 12 11  2  0
 14 15  1  6
 14 13  1  0
 14 18  1  0
 16 20  1  0
 16 15  1  0
 17 16  2  0
 18 19  1  0
 21 18  2  0
M  END
$$$$
