QVI.pdb
     RDKit          3D

 25 24  0  0  1  0  0  0  0  0999 V2000
   29.2624  -22.1880  -14.7349 N   0  0  0  0  0  0  0  0  0  0  0  0
   28.8543  -21.2423  -15.7216 C   0  0  0  0  0  0  0  0  0  0  0  0
   28.2330  -21.6681  -16.7023 O   0  0  0  0  0  0  0  0  0  0  0  0
   29.1755  -19.8306  -15.5572 C   0  0  0  0  0  0  0  0  0  0  0  0
   28.2341  -19.0346  -14.7126 C   0  0  0  0  0  0  0  0  0  0  0  0
   26.8619  -19.6048  -14.5422 C   0  0  2  0  0  0  0  0  0  0  0  0
   26.1178  -19.1622  -15.7432 N   0  0  0  0  0  0  0  0  0  0  0  0
   26.1245  -19.3054  -13.3352 C   0  0  0  0  0  0  0  0  0  0  0  0
   25.3030  -18.3299  -13.3059 O   0  0  0  0  0  0  0  0  0  0  0  0
   24.0431  -21.8688  -11.5200 C   0  0  0  0  0  0  0  0  0  0  0  0
   23.9936  -20.3766  -11.2875 C   0  0  2  0  0  0  0  0  0  0  0  0
   23.4147  -19.7022  -12.4934 C   0  0  0  0  0  0  0  0  0  0  0  0
   25.3977  -19.8430  -10.9661 C   0  0  2  0  0  0  0  0  0  0  0  0
   26.2324  -20.0440  -12.1079 N   0  0  0  0  0  0  0  0  0  0  0  0
   25.8515  -20.6130   -9.7757 C   0  0  0  0  0  0  0  0  0  0  0  0
   26.0893  -21.8395   -9.9172 O   0  0  0  0  0  0  0  0  0  0  0  0
   28.8352  -18.0883   -6.1047 C   0  0  0  0  0  0  0  0  0  0  0  0
   28.3507  -19.2281   -6.9657 C   0  0  0  0  0  0  0  0  0  0  0  0
   27.1504  -19.8922   -6.3243 C   0  0  2  0  0  0  0  0  0  0  0  0
   27.5870  -20.7582   -5.1617 C   0  0  0  0  0  0  0  0  0  0  0  0
   26.4656  -20.7846   -7.3311 C   0  0  2  0  0  0  0  0  0  0  0  0
   26.0303  -20.0509   -8.5017 N   0  0  0  0  0  0  0  0  0  0  0  0
   25.2574  -21.3467   -6.6806 C   0  0  0  0  0  0  0  0  0  0  0  0
   24.1523  -20.7562   -6.7436 O   0  0  0  0  0  0  0  0  0  0  0  0
   25.2875  -22.5420   -5.9765 O   0  0  0  0  0  0  0  0  0  0  0  0
  1  2  1  0
  2  3  2  0
  4  2  1  0
  5  4  1  0
  6  7  1  6
  6  5  1  0
  8  6  1  0
  9  8  2  0
 11 12  1  6
 11 10  1  0
 11 13  1  0
 13 14  1  6
 14  8  1  0
 15 13  1  0
 15 16  2  0
 18 17  1  0
 19 18  1  0
 19 21  1  0
 19 20  1  1
 21 22  1  6
 22 15  1  0
 23 21  1  0
 24 23  2  0
 25 23  1  0
M  END
$$$$
