QVI.pdb
     RDKit          3D

 25 24  0  0  1  0  0  0  0  0999 V2000
   28.9665  -27.7959  -18.3626 N   0  0  0  0  0  0  0  0  0  0  0  0
   27.9242  -26.8298  -18.4855 C   0  0  0  0  0  0  0  0  0  0  0  0
   27.7244  -26.3405  -19.6033 O   0  0  0  0  0  0  0  0  0  0  0  0
   27.1412  -26.4477  -17.3176 C   0  0  0  0  0  0  0  0  0  0  0  0
   27.6819  -25.3178  -16.5027 C   0  0  0  0  0  0  0  0  0  0  0  0
   27.5966  -23.9599  -17.1239 C   0  0  2  0  0  0  0  0  0  0  0  0
   28.8514  -23.8194  -17.8970 N   0  0  0  0  0  0  0  0  0  0  0  0
   27.3811  -22.8124  -16.2712 C   0  0  0  0  0  0  0  0  0  0  0  0
   28.3720  -22.1965  -15.7553 O   0  0  0  0  0  0  0  0  0  0  0  0
   25.6588  -19.7681  -17.3498 C   0  0  0  0  0  0  0  0  0  0  0  0
   24.9753  -20.1424  -16.0553 C   0  0  2  0  0  0  0  0  0  0  0  0
   24.6112  -18.8981  -15.3047 C   0  0  0  0  0  0  0  0  0  0  0  0
   25.8852  -21.0555  -15.2198 C   0  0  2  0  0  0  0  0  0  0  0  0
   26.0921  -22.2720  -15.9395 N   0  0  0  0  0  0  0  0  0  0  0  0
   25.1665  -21.2606  -13.9325 C   0  0  0  0  0  0  0  0  0  0  0  0
   24.0985  -21.9239  -13.9478 O   0  0  0  0  0  0  0  0  0  0  0  0
   27.7414  -20.2319   -9.0679 C   0  0  0  0  0  0  0  0  0  0  0  0
   26.8837  -20.9527  -10.0779 C   0  0  0  0  0  0  0  0  0  0  0  0
   25.5995  -20.1855  -10.3133 C   0  0  2  0  0  0  0  0  0  0  0  0
   24.7094  -20.2617   -9.0908 C   0  0  0  0  0  0  0  0  0  0  0  0
   24.8466  -20.7981  -11.4695 C   0  0  2  0  0  0  0  0  0  0  0  0
   25.6105  -20.7569  -12.6995 N   0  0  0  0  0  0  0  0  0  0  0  0
   23.6182  -19.9943  -11.6787 C   0  0  0  0  0  0  0  0  0  0  0  0
   23.6693  -18.8553  -12.2021 O   0  0  0  0  0  0  0  0  0  0  0  0
   22.3629  -20.4564  -11.3098 O   0  0  0  0  0  0  0  0  0  0  0  0
  1  2  1  0
  2  3  2  0
  4  2  1  0
  5  4  1  0
  6  7  1  1
  6  5  1  0
  8  6  1  0
  9  8  2  0
 11 12  1  1
 11 10  1  0
 11 13  1  0
 13 14  1  6
 14  8  1  0
 15 13  1  0
 15 16  2  0
 18 17  1  0
 19 18  1  0
 19 21  1  0
 19 20  1  1
 21 22  1  6
 22 15  1  0
 23 21  1  0
 24 23  2  0
 25 23  1  0
M  END
$$$$
