QVI.pdb
     RDKit          3D

 25 24  0  0  1  0  0  0  0  0999 V2000
   21.2768  -11.8743  -20.5968 N   0  0  0  0  0  0  0  0  0  0  0  0
   20.0244  -12.5537  -20.6650 C   0  0  0  0  0  0  0  0  0  0  0  0
   19.7421  -13.1320  -21.7209 O   0  0  0  0  0  0  0  0  0  0  0  0
   19.1261  -12.5464  -19.5178 C   0  0  0  0  0  0  0  0  0  0  0  0
   19.5891  -11.7771  -18.3233 C   0  0  0  0  0  0  0  0  0  0  0  0
   20.6329  -12.4381  -17.4802 C   0  0  2  0  0  0  0  0  0  0  0  0
   19.9495  -13.6070  -16.8814 N   0  0  0  0  0  0  0  0  0  0  0  0
   21.3119  -11.6595  -16.4687 C   0  0  0  0  0  0  0  0  0  0  0  0
   20.7332  -11.3917  -15.3638 O   0  0  0  0  0  0  0  0  0  0  0  0
   25.4931   -9.8899  -14.5188 C   0  0  0  0  0  0  0  0  0  0  0  0
   24.7847  -10.6812  -15.5935 C   0  0  2  0  0  0  0  0  0  0  0  0
   25.4345  -10.4186  -16.9175 C   0  0  0  0  0  0  0  0  0  0  0  0
   23.2916  -10.3213  -15.6201 C   0  0  2  0  0  0  0  0  0  0  0  0
   22.6446  -11.1388  -16.5967 N   0  0  0  0  0  0  0  0  0  0  0  0
   23.2392   -8.8715  -15.9535 C   0  0  0  0  0  0  0  0  0  0  0  0
   23.6385   -8.5086  -17.0891 O   0  0  0  0  0  0  0  0  0  0  0  0
   19.5534   -4.6697  -16.9826 C   0  0  0  0  0  0  0  0  0  0  0  0
   20.8788   -4.8542  -16.2866 C   0  0  0  0  0  0  0  0  0  0  0  0
   21.1405   -6.3262  -16.0455 C   0  0  2  0  0  0  0  0  0  0  0  0
   20.1306   -6.8868  -15.0668 C   0  0  0  0  0  0  0  0  0  0  0  0
   22.5133   -6.5059  -15.4438 C   0  0  2  0  0  0  0  0  0  0  0  0
   22.7697   -7.8828  -15.0742 N   0  0  0  0  0  0  0  0  0  0  0  0
   22.5679   -5.6927  -14.2051 C   0  0  0  0  0  0  0  0  0  0  0  0
   22.7675   -4.4549  -14.2496 O   0  0  0  0  0  0  0  0  0  0  0  0
   22.4027   -6.2537  -12.9467 O   0  0  0  0  0  0  0  0  0  0  0  0
  1  2  1  0
  2  3  2  0
  4  2  1  0
  5  4  1  0
  6  7  1  1
  6  5  1  0
  8  6  1  0
  9  8  2  0
 11 12  1  6
 11 10  1  0
 11 13  1  0
 13 14  1  6
 14  8  1  0
 15 13  1  0
 15 16  2  0
 18 17  1  0
 19 18  1  0
 19 21  1  0
 19 20  1  1
 21 22  1  1
 22 15  1  0
 23 21  1  0
 24 23  2  0
 25 23  1  0
M  END
$$$$
