QVI.pdb
     RDKit          3D

 25 24  0  0  1  0  0  0  0  0999 V2000
   21.3270  -19.0819  -14.4889 N   0  0  0  0  0  0  0  0  0  0  0  0
   21.2843  -19.3158  -13.0824 C   0  0  0  0  0  0  0  0  0  0  0  0
   21.5151  -18.3587  -12.3343 O   0  0  0  0  0  0  0  0  0  0  0  0
   20.9815  -20.6466  -12.5722 C   0  0  0  0  0  0  0  0  0  0  0  0
   22.1009  -21.3594  -11.8852 C   0  0  0  0  0  0  0  0  0  0  0  0
   23.4515  -21.2204  -12.5126 C   0  0  2  0  0  0  0  0  0  0  0  0
   23.3803  -22.0365  -13.7458 N   0  0  0  0  0  0  0  0  0  0  0  0
   24.6227  -21.5569  -11.7344 C   0  0  0  0  0  0  0  0  0  0  0  0
   24.8919  -22.7748  -11.4672 O   0  0  0  0  0  0  0  0  0  0  0  0
   28.0852  -20.9168  -12.4741 C   0  0  0  0  0  0  0  0  0  0  0  0
   27.9520  -20.3715  -11.0712 C   0  0  2  0  0  0  0  0  0  0  0  0
   29.1820  -20.7086  -10.2854 C   0  0  0  0  0  0  0  0  0  0  0  0
   26.6878  -20.9318  -10.4022 C   0  0  2  0  0  0  0  0  0  0  0  0
   25.5596  -20.6007  -11.2137 N   0  0  0  0  0  0  0  0  0  0  0  0
   26.6375  -20.2981   -9.0563 C   0  0  0  0  0  0  0  0  0  0  0  0
   26.0414  -19.1973   -8.9401 O   0  0  0  0  0  0  0  0  0  0  0  0
   28.6715  -21.1496   -3.2040 C   0  0  0  0  0  0  0  0  0  0  0  0
   27.7684  -20.4611   -4.1969 C   0  0  0  0  0  0  0  0  0  0  0  0
   27.9649  -21.0520   -5.5772 C   0  0  2  0  0  0  0  0  0  0  0  0
   29.4219  -20.9724   -5.9811 C   0  0  0  0  0  0  0  0  0  0  0  0
   27.1642  -20.2639   -6.5856 C   0  0  2  0  0  0  0  0  0  0  0  0
   27.2171  -20.8569   -7.9060 N   0  0  0  0  0  0  0  0  0  0  0  0
   27.7679  -18.9127   -6.6776 C   0  0  0  0  0  0  0  0  0  0  0  0
   28.7417  -18.6872   -7.4357 O   0  0  0  0  0  0  0  0  0  0  0  0
   27.2914  -17.8402   -5.9372 O   0  0  0  0  0  0  0  0  0  0  0  0
  1  2  1  0
  2  3  2  0
  4  2  1  0
  5  4  1  0
  6  7  1  6
  6  5  1  0
  8  6  1  0
  9  8  2  0
 11 12  1  1
 11 10  1  0
 11 13  1  0
 13 14  1  6
 14  8  1  0
 15 13  1  0
 15 16  2  0
 18 17  1  0
 19 18  1  0
 19 21  1  0
 19 20  1  6
 21 22  1  6
 22 15  1  0
 23 21  1  0
 24 23  2  0
 25 23  1  0
M  END
$$$$
