QVI.pdb
     RDKit          3D

 25 24  0  0  1  0  0  0  0  0999 V2000
   29.0799  -22.7827  -16.7186 N   0  0  0  0  0  0  0  0  0  0  0  0
   29.9557  -22.5950  -17.8288 C   0  0  0  0  0  0  0  0  0  0  0  0
   30.6756  -23.5446  -18.1586 O   0  0  0  0  0  0  0  0  0  0  0  0
   29.9842  -21.3174  -18.5287 C   0  0  0  0  0  0  0  0  0  0  0  0
   29.0837  -20.2521  -17.9925 C   0  0  0  0  0  0  0  0  0  0  0  0
   27.6238  -20.4260  -18.2676 C   0  0  2  0  0  0  0  0  0  0  0  0
   27.4648  -20.0737  -19.6968 N   0  0  0  0  0  0  0  0  0  0  0  0
   26.6677  -19.7153  -17.4485 C   0  0  0  0  0  0  0  0  0  0  0  0
   26.3773  -18.4995  -17.7031 O   0  0  0  0  0  0  0  0  0  0  0  0
   23.2454  -20.5853  -17.1008 C   0  0  0  0  0  0  0  0  0  0  0  0
   23.7841  -19.3040  -16.5082 C   0  0  2  0  0  0  0  0  0  0  0  0
   24.1853  -18.3734  -17.6115 C   0  0  0  0  0  0  0  0  0  0  0  0
   24.9644  -19.6073  -15.5730 C   0  0  2  0  0  0  0  0  0  0  0  0
   25.9768  -20.2806  -16.3230 N   0  0  0  0  0  0  0  0  0  0  0  0
   24.3995  -20.4467  -14.4812 C   0  0  0  0  0  0  0  0  0  0  0  0
   24.0275  -21.6144  -14.7618 O   0  0  0  0  0  0  0  0  0  0  0  0
   25.6963  -21.0138   -8.5472 C   0  0  0  0  0  0  0  0  0  0  0  0
   24.8004  -21.4126   -9.6934 C   0  0  0  0  0  0  0  0  0  0  0  0
   24.9555  -20.4362  -10.8404 C   0  0  2  0  0  0  0  0  0  0  0  0
   24.4717  -19.0614  -10.4300 C   0  0  0  0  0  0  0  0  0  0  0  0
   24.1157  -20.8893  -12.0101 C   0  0  2  0  0  0  0  0  0  0  0  0
   24.2568  -20.0119  -13.1539 N   0  0  0  0  0  0  0  0  0  0  0  0
   22.6960  -20.8448  -11.5845 C   0  0  0  0  0  0  0  0  0  0  0  0
   21.9703  -19.8559  -11.8478 O   0  0  0  0  0  0  0  0  0  0  0  0
   22.1042  -21.8840  -10.8807 O   0  0  0  0  0  0  0  0  0  0  0  0
  1  2  1  0
  2  3  2  0
  4  2  1  0
  5  4  1  0
  6  7  1  6
  6  5  1  0
  8  6  1  0
  9  8  2  0
 11 12  1  6
 11 10  1  0
 11 13  1  0
 13 14  1  6
 14  8  1  0
 15 13  1  0
 15 16  2  0
 18 17  1  0
 19 18  1  0
 19 21  1  0
 19 20  1  1
 21 22  1  6
 22 15  1  0
 23 21  1  0
 24 23  2  0
 25 23  1  0
M  END
$$$$
