QVI.pdb
     RDKit          3D

 25 24  0  0  1  0  0  0  0  0999 V2000
   23.1075  -17.9681  -14.1589 N   0  0  0  0  0  0  0  0  0  0  0  0
   21.8054  -18.4881  -14.4214 C   0  0  0  0  0  0  0  0  0  0  0  0
   21.2658  -18.1723  -15.4882 O   0  0  0  0  0  0  0  0  0  0  0  0
   21.1551  -19.3548  -13.4472 C   0  0  0  0  0  0  0  0  0  0  0  0
   22.0358  -19.9312  -12.3865 C   0  0  0  0  0  0  0  0  0  0  0  0
   23.2105  -20.7230  -12.8665 C   0  0  2  0  0  0  0  0  0  0  0  0
   22.6206  -21.9003  -13.5432 N   0  0  0  0  0  0  0  0  0  0  0  0
   24.2206  -21.1244  -11.9132 C   0  0  0  0  0  0  0  0  0  0  0  0
   23.9889  -22.0676  -11.0860 O   0  0  0  0  0  0  0  0  0  0  0  0
   28.0496  -21.3619  -12.8038 C   0  0  0  0  0  0  0  0  0  0  0  0
   27.9075  -20.6551  -11.4759 C   0  0  2  0  0  0  0  0  0  0  0  0
   29.0067  -21.0927  -10.5570 C   0  0  0  0  0  0  0  0  0  0  0  0
   26.5243  -20.9372  -10.8702 C   0  0  2  0  0  0  0  0  0  0  0  0
   25.5263  -20.5347  -11.8098 N   0  0  0  0  0  0  0  0  0  0  0  0
   26.4777  -20.1528   -9.6059 C   0  0  0  0  0  0  0  0  0  0  0  0
   26.1038  -18.9538   -9.6644 O   0  0  0  0  0  0  0  0  0  0  0  0
   24.5968  -21.9062   -4.8448 C   0  0  0  0  0  0  0  0  0  0  0  0
   24.9948  -20.9920   -5.9767 C   0  0  0  0  0  0  0  0  0  0  0  0
   26.4814  -20.7094   -5.9203 C   0  0  2  0  0  0  0  0  0  0  0  0
   26.8167  -19.9004   -4.6852 C   0  0  0  0  0  0  0  0  0  0  0  0
   26.8902  -19.8987   -7.1264 C   0  0  2  0  0  0  0  0  0  0  0  0
   26.8271  -20.6724   -8.3493 N   0  0  0  0  0  0  0  0  0  0  0  0
   28.3010  -19.4865   -6.9302 C   0  0  0  0  0  0  0  0  0  0  0  0
   29.2487  -20.2459   -7.2450 O   0  0  0  0  0  0  0  0  0  0  0  0
   28.6410  -18.2527   -6.3939 O   0  0  0  0  0  0  0  0  0  0  0  0
  1  2  1  0
  2  3  2  0
  4  2  1  0
  5  4  1  0
  6  7  1  1
  6  5  1  0
  8  6  1  0
  9  8  2  0
 11 12  1  1
 11 10  1  0
 11 13  1  0
 13 14  1  6
 14  8  1  0
 15 13  1  0
 15 16  2  0
 18 17  1  0
 19 18  1  0
 19 21  1  0
 19 20  1  1
 21 22  1  6
 22 15  1  0
 23 21  1  0
 24 23  2  0
 25 23  1  0
M  END
$$$$
