QVI.pdb
     RDKit          3D

 25 24  0  0  1  0  0  0  0  0999 V2000
   17.5095  -15.2083  -14.6344 N   0  0  0  0  0  0  0  0  0  0  0  0
   17.1969  -16.3173  -15.4752 C   0  0  0  0  0  0  0  0  0  0  0  0
   16.9108  -17.3890  -14.9288 O   0  0  0  0  0  0  0  0  0  0  0  0
   17.2260  -16.1663  -16.9242 C   0  0  0  0  0  0  0  0  0  0  0  0
   17.6042  -14.8151  -17.4384 C   0  0  0  0  0  0  0  0  0  0  0  0
   16.5460  -13.7613  -17.3569 C   0  0  2  0  0  0  0  0  0  0  0  0
   15.6048  -14.0864  -18.4525 N   0  0  0  0  0  0  0  0  0  0  0  0
   16.9380  -12.3705  -17.4051 C   0  0  0  0  0  0  0  0  0  0  0  0
   17.2666  -11.8306  -18.5132 O   0  0  0  0  0  0  0  0  0  0  0  0
   15.2723   -9.1854  -17.0902 C   0  0  0  0  0  0  0  0  0  0  0  0
   16.2650   -9.2221  -15.9517 C   0  0  2  0  0  0  0  0  0  0  0  0
   16.7295   -7.8304  -15.6489 C   0  0  0  0  0  0  0  0  0  0  0  0
   17.4431  -10.1425  -16.3047 C   0  0  2  0  0  0  0  0  0  0  0  0
   16.9891  -11.4964  -16.2663 N   0  0  0  0  0  0  0  0  0  0  0  0
   18.4898   -9.8548  -15.2862 C   0  0  0  0  0  0  0  0  0  0  0  0
   18.2461  -10.1420  -14.0867 O   0  0  0  0  0  0  0  0  0  0  0  0
   24.1929  -10.9244  -14.2914 C   0  0  0  0  0  0  0  0  0  0  0  0
   23.0273  -10.0415  -13.9212 C   0  0  0  0  0  0  0  0  0  0  0  0
   22.0120  -10.0203  -15.0446 C   0  0  2  0  0  0  0  0  0  0  0  0
   22.6215   -9.4193  -16.2934 C   0  0  0  0  0  0  0  0  0  0  0  0
   20.8345   -9.1627  -14.6487 C   0  0  2  0  0  0  0  0  0  0  0  0
   19.7357   -9.2807  -15.5851 N   0  0  0  0  0  0  0  0  0  0  0  0
   21.2855   -7.7502  -14.6640 C   0  0  0  0  0  0  0  0  0  0  0  0
   21.2208   -7.0596  -15.7094 O   0  0  0  0  0  0  0  0  0  0  0  0
   21.7968   -7.1271  -13.5345 O   0  0  0  0  0  0  0  0  0  0  0  0
  1  2  1  0
  2  3  2  0
  4  2  1  0
  5  4  1  0
  6  7  1  6
  6  5  1  0
  8  6  1  0
  9  8  2  0
 11 12  1  6
 11 10  1  0
 11 13  1  0
 13 14  1  1
 14  8  1  0
 15 13  1  0
 15 16  2  0
 18 17  1  0
 19 18  1  0
 19 21  1  0
 19 20  1  6
 21 22  1  6
 22 15  1  0
 23 21  1  0
 24 23  2  0
 25 23  1  0
M  END
$$$$
