QVI.pdb
     RDKit          3D

 25 24  0  0  1  0  0  0  0  0999 V2000
   18.2463  -13.3169  -14.0477 N   0  0  0  0  0  0  0  0  0  0  0  0
   17.6232  -12.0783  -14.3826 C   0  0  0  0  0  0  0  0  0  0  0  0
   18.3132  -11.0541  -14.3222 O   0  0  0  0  0  0  0  0  0  0  0  0
   16.2200  -12.0491  -14.7742 C   0  0  0  0  0  0  0  0  0  0  0  0
   15.4007  -10.9354  -14.2071 C   0  0  0  0  0  0  0  0  0  0  0  0
   14.7511  -11.2040  -12.8868 C   0  0  2  0  0  0  0  0  0  0  0  0
   13.6502  -12.1455  -13.1927 N   0  0  0  0  0  0  0  0  0  0  0  0
   14.2758  -10.0876  -12.1007 C   0  0  0  0  0  0  0  0  0  0  0  0
   13.2231   -9.4558  -12.4473 O   0  0  0  0  0  0  0  0  0  0  0  0
   12.7202   -9.9781   -9.0817 C   0  0  0  0  0  0  0  0  0  0  0  0
   13.8660   -9.0313   -8.8102 C   0  0  2  0  0  0  0  0  0  0  0  0
   13.3942   -7.9163   -7.9279 C   0  0  0  0  0  0  0  0  0  0  0  0
   14.4373   -8.4972  -10.1323 C   0  0  2  0  0  0  0  0  0  0  0  0
   14.9066   -9.6038  -10.9043 N   0  0  0  0  0  0  0  0  0  0  0  0
   15.5267   -7.5603   -9.7435 C   0  0  0  0  0  0  0  0  0  0  0  0
   16.6789   -8.0307   -9.5647 O   0  0  0  0  0  0  0  0  0  0  0  0
   18.5042   -3.8111  -12.5119 C   0  0  0  0  0  0  0  0  0  0  0  0
   17.9326   -3.9178  -11.1201 C   0  0  0  0  0  0  0  0  0  0  0  0
   16.8395   -4.9652  -11.0844 C   0  0  2  0  0  0  0  0  0  0  0  0
   15.6344   -4.4949  -11.8711 C   0  0  0  0  0  0  0  0  0  0  0  0
   16.3987   -5.1906   -9.6583 C   0  0  2  0  0  0  0  0  0  0  0  0
   15.3447   -6.1797   -9.5642 N   0  0  0  0  0  0  0  0  0  0  0  0
   15.8549   -3.9079   -9.1508 C   0  0  0  0  0  0  0  0  0  0  0  0
   14.6529   -3.5963   -9.3300 O   0  0  0  0  0  0  0  0  0  0  0  0
   16.6399   -2.9963   -8.4591 O   0  0  0  0  0  0  0  0  0  0  0  0
  1  2  1  0
  2  3  2  0
  4  2  1  0
  5  4  1  0
  6  7  1  6
  6  5  1  0
  8  6  1  0
  9  8  2  0
 11 12  1  1
 11 10  1  0
 11 13  1  0
 13 14  1  6
 14  8  1  0
 15 13  1  0
 15 16  2  0
 18 17  1  0
 19 18  1  0
 19 21  1  0
 19 20  1  6
 21 22  1  6
 22 15  1  0
 23 21  1  0
 24 23  2  0
 25 23  1  0
M  END
$$$$
