QVI.pdb
     RDKit          3D

 25 24  0  0  1  0  0  0  0  0999 V2000
   25.3222  -26.2179  -17.6139 N   0  0  0  0  0  0  0  0  0  0  0  0
   26.2225  -26.1580  -16.5090 C   0  0  0  0  0  0  0  0  0  0  0  0
   26.0636  -26.9750  -15.5946 O   0  0  0  0  0  0  0  0  0  0  0  0
   27.2802  -25.1562  -16.4823 C   0  0  0  0  0  0  0  0  0  0  0  0
   27.3174  -24.2063  -17.6353 C   0  0  0  0  0  0  0  0  0  0  0  0
   28.3165  -23.0972  -17.5408 C   0  0  2  0  0  0  0  0  0  0  0  0
   29.6337  -23.7679  -17.6254 N   0  0  0  0  0  0  0  0  0  0  0  0
   28.2623  -22.2011  -16.4075 C   0  0  0  0  0  0  0  0  0  0  0  0
   29.2740  -22.0664  -15.6422 O   0  0  0  0  0  0  0  0  0  0  0  0
   26.4708  -18.1543  -14.3180 C   0  0  0  0  0  0  0  0  0  0  0  0
   26.4550  -19.1762  -15.4309 C   0  0  2  0  0  0  0  0  0  0  0  0
   25.0475  -19.3807  -15.9014 C   0  0  0  0  0  0  0  0  0  0  0  0
   27.0829  -20.4933  -14.9505 C   0  0  2  0  0  0  0  0  0  0  0  0
   27.1211  -21.4056  -16.0491 N   0  0  0  0  0  0  0  0  0  0  0  0
   26.2134  -20.9644  -13.8380 C   0  0  0  0  0  0  0  0  0  0  0  0
   25.3095  -21.7972  -14.1027 O   0  0  0  0  0  0  0  0  0  0  0  0
   25.8407  -20.8112   -7.6109 C   0  0  0  0  0  0  0  0  0  0  0  0
   25.2462  -21.1604   -8.9525 C   0  0  0  0  0  0  0  0  0  0  0  0
   26.1193  -20.6207  -10.0659 C   0  0  2  0  0  0  0  0  0  0  0  0
   26.1588  -19.1079  -10.0173 C   0  0  0  0  0  0  0  0  0  0  0  0
   25.5444  -21.0233  -11.4025 C   0  0  2  0  0  0  0  0  0  0  0  0
   26.3422  -20.5337  -12.5079 N   0  0  0  0  0  0  0  0  0  0  0  0
   24.2000  -20.4078  -11.5140 C   0  0  0  0  0  0  0  0  0  0  0  0
   24.0501  -19.2587  -11.9946 O   0  0  0  0  0  0  0  0  0  0  0  0
   23.0513  -21.0650  -11.0967 O   0  0  0  0  0  0  0  0  0  0  0  0
  1  2  1  0
  2  3  2  0
  4  2  1  0
  5  4  1  0
  6  7  1  1
  6  5  1  0
  8  6  1  0
  9  8  2  0
 11 12  1  1
 11 10  1  0
 11 13  1  0
 13 14  1  6
 14  8  1  0
 15 13  1  0
 15 16  2  0
 18 17  1  0
 19 18  1  0
 19 21  1  0
 19 20  1  6
 21 22  1  6
 22 15  1  0
 23 21  1  0
 24 23  2  0
 25 23  1  0
M  END
$$$$
