QVI.pdb
     RDKit          3D

 25 24  0  0  1  0  0  0  0  0999 V2000
   27.4446  -24.1616  -20.1680 N   0  0  0  0  0  0  0  0  0  0  0  0
   28.2048  -25.3660  -20.0888 C   0  0  0  0  0  0  0  0  0  0  0  0
   28.6612  -25.8266  -21.1415 O   0  0  0  0  0  0  0  0  0  0  0  0
   28.4166  -26.0125  -18.8003 C   0  0  0  0  0  0  0  0  0  0  0  0
   27.8636  -25.3019  -17.6077 C   0  0  0  0  0  0  0  0  0  0  0  0
   28.6179  -24.0921  -17.1554 C   0  0  2  0  0  0  0  0  0  0  0  0
   29.8403  -24.6277  -16.5144 N   0  0  0  0  0  0  0  0  0  0  0  0
   27.9570  -23.1362  -16.2953 C   0  0  0  0  0  0  0  0  0  0  0  0
   28.0941  -23.2049  -15.0289 O   0  0  0  0  0  0  0  0  0  0  0  0
   28.4853  -19.5820  -16.5035 C   0  0  0  0  0  0  0  0  0  0  0  0
   26.9786  -19.6784  -16.4433 C   0  0  2  0  0  0  0  0  0  0  0  0
   26.4415  -18.5748  -15.5844 C   0  0  0  0  0  0  0  0  0  0  0  0
   26.5560  -21.0573  -15.9145 C   0  0  2  0  0  0  0  0  0  0  0  0
   27.1244  -22.0608  -16.7574 N   0  0  0  0  0  0  0  0  0  0  0  0
   25.0678  -21.0536  -15.9428 C   0  0  0  0  0  0  0  0  0  0  0  0
   24.4953  -20.8025  -17.0336 O   0  0  0  0  0  0  0  0  0  0  0  0
   22.3911  -25.0037  -13.8050 C   0  0  0  0  0  0  0  0  0  0  0  0
   22.8209  -23.8289  -14.6478 C   0  0  0  0  0  0  0  0  0  0  0  0
   22.2787  -22.5417  -14.0630 C   0  0  2  0  0  0  0  0  0  0  0  0
   20.7684  -22.5123  -14.1655 C   0  0  0  0  0  0  0  0  0  0  0  0
   22.8156  -21.3647  -14.8411 C   0  0  2  0  0  0  0  0  0  0  0  0
   24.2631  -21.3143  -14.8222 N   0  0  0  0  0  0  0  0  0  0  0  0
   22.3165  -20.1314  -14.1864 C   0  0  0  0  0  0  0  0  0  0  0  0
   22.8616  -19.6805  -13.1503 O   0  0  0  0  0  0  0  0  0  0  0  0
   21.2324  -19.4207  -14.6814 O   0  0  0  0  0  0  0  0  0  0  0  0
  1  2  1  0
  2  3  2  0
  4  2  1  0
  5  4  1  0
  6  7  1  1
  6  5  1  0
  8  6  1  0
  9  8  2  0
 11 12  1  1
 11 10  1  0
 11 13  1  0
 13 14  1  6
 14  8  1  0
 15 13  1  0
 15 16  2  0
 18 17  1  0
 19 18  1  0
 19 21  1  0
 19 20  1  6
 21 22  1  1
 22 15  1  0
 23 21  1  0
 24 23  2  0
 25 23  1  0
M  END
$$$$
