QVI.pdb
     RDKit          3D

 25 24  0  0  1  0  0  0  0  0999 V2000
   20.1106  -17.2516  -16.9789 N   0  0  0  0  0  0  0  0  0  0  0  0
   20.0761  -17.0290  -15.5703 C   0  0  0  0  0  0  0  0  0  0  0  0
   20.6501  -16.0246  -15.1339 O   0  0  0  0  0  0  0  0  0  0  0  0
   19.3855  -17.9708  -14.6989 C   0  0  0  0  0  0  0  0  0  0  0  0
   20.2459  -18.9686  -13.9937 C   0  0  0  0  0  0  0  0  0  0  0  0
   20.7924  -20.0769  -14.8364 C   0  0  2  0  0  0  0  0  0  0  0  0
   19.6428  -20.9827  -15.0600 N   0  0  0  0  0  0  0  0  0  0  0  0
   21.9466  -20.8097  -14.3663 C   0  0  0  0  0  0  0  0  0  0  0  0
   21.8458  -21.6058  -13.3746 O   0  0  0  0  0  0  0  0  0  0  0  0
   24.6434  -22.6061  -16.6688 C   0  0  0  0  0  0  0  0  0  0  0  0
   25.3324  -21.7164  -15.6604 C   0  0  2  0  0  0  0  0  0  0  0  0
   26.6102  -22.3603  -15.2169 C   0  0  0  0  0  0  0  0  0  0  0  0
   24.4001  -21.4420  -14.4708 C   0  0  2  0  0  0  0  0  0  0  0  0
   23.2590  -20.7244  -14.9440 N   0  0  0  0  0  0  0  0  0  0  0  0
   25.2142  -20.6587  -13.5016 C   0  0  0  0  0  0  0  0  0  0  0  0
   25.4332  -19.4465  -13.7531 O   0  0  0  0  0  0  0  0  0  0  0  0
   24.8163  -21.0183   -8.1209 C   0  0  0  0  0  0  0  0  0  0  0  0
   25.0479  -20.5330   -9.5302 C   0  0  0  0  0  0  0  0  0  0  0  0
   26.4450  -20.8998   -9.9849 C   0  0  2  0  0  0  0  0  0  0  0  0
   27.4778  -20.1734   -9.1495 C   0  0  0  0  0  0  0  0  0  0  0  0
   26.6378  -20.4802  -11.4221 C   0  0  2  0  0  0  0  0  0  0  0  0
   25.7536  -21.1934  -12.3208 N   0  0  0  0  0  0  0  0  0  0  0  0
   28.0304  -20.8182  -11.8030 C   0  0  0  0  0  0  0  0  0  0  0  0
   28.3595  -21.9966  -12.0807 O   0  0  0  0  0  0  0  0  0  0  0  0
   29.0301  -19.8582  -11.8709 O   0  0  0  0  0  0  0  0  0  0  0  0
  1  2  1  0
  2  3  2  0
  4  2  1  0
  5  4  1  0
  6  7  1  1
  6  5  1  0
  8  6  1  0
  9  8  2  0
 11 12  1  1
 11 10  1  0
 11 13  1  0
 13 14  1  6
 14  8  1  0
 15 13  1  0
 15 16  2  0
 18 17  1  0
 19 18  1  0
 19 21  1  0
 19 20  1  1
 21 22  1  6
 22 15  1  0
 23 21  1  0
 24 23  2  0
 25 23  1  0
M  END
$$$$
