QVI.pdb
     RDKit          3D

 25 24  0  0  1  0  0  0  0  0999 V2000
   16.6754  -14.8678  -14.9039 N   0  0  0  0  0  0  0  0  0  0  0  0
   16.6375  -16.2336  -15.3137 C   0  0  0  0  0  0  0  0  0  0  0  0
   15.6759  -16.9172  -14.9436 O   0  0  0  0  0  0  0  0  0  0  0  0
   17.7098  -16.7795  -16.1355 C   0  0  0  0  0  0  0  0  0  0  0  0
   18.7728  -15.8171  -16.5562 C   0  0  0  0  0  0  0  0  0  0  0  0
   18.5285  -15.0878  -17.8390 C   0  0  2  0  0  0  0  0  0  0  0  0
   18.7758  -16.0932  -18.8973 N   0  0  0  0  0  0  0  0  0  0  0  0
   19.2594  -13.8682  -18.1008 C   0  0  0  0  0  0  0  0  0  0  0  0
   20.2683  -13.8753  -18.8814 O   0  0  0  0  0  0  0  0  0  0  0  0
   17.4534  -10.3372  -18.4862 C   0  0  0  0  0  0  0  0  0  0  0  0
   18.8662  -10.6263  -18.9374 C   0  0  2  0  0  0  0  0  0  0  0  0
   18.8324  -11.4137  -20.2113 C   0  0  0  0  0  0  0  0  0  0  0  0
   19.6323  -11.3741  -17.8357 C   0  0  2  0  0  0  0  0  0  0  0  0
   18.9356  -12.5858  -17.5404 N   0  0  0  0  0  0  0  0  0  0  0  0
   19.6787  -10.4376  -16.6796 C   0  0  0  0  0  0  0  0  0  0  0  0
   18.7436  -10.4835  -15.8403 O   0  0  0  0  0  0  0  0  0  0  0  0
   23.8594  -11.0459  -14.0031 C   0  0  0  0  0  0  0  0  0  0  0  0
   22.4763  -10.6916  -14.4899 C   0  0  0  0  0  0  0  0  0  0  0  0
   22.3594   -9.1942  -14.6831 C   0  0  2  0  0  0  0  0  0  0  0  0
   22.5416   -8.4774  -13.3619 C   0  0  0  0  0  0  0  0  0  0  0  0
   20.9838   -8.8554  -15.2045 C   0  0  2  0  0  0  0  0  0  0  0  0
   20.7061   -9.5040  -16.4694 N   0  0  0  0  0  0  0  0  0  0  0  0
   20.9413   -7.3910  -15.4339 C   0  0  0  0  0  0  0  0  0  0  0  0
   21.2777   -6.8969  -16.5368 O   0  0  0  0  0  0  0  0  0  0  0  0
   20.5316   -6.5021  -14.4503 O   0  0  0  0  0  0  0  0  0  0  0  0
  1  2  1  0
  2  3  2  0
  4  2  1  0
  5  4  1  0
  6  7  1  6
  6  5  1  0
  8  6  1  0
  9  8  2  0
 11 12  1  6
 11 10  1  0
 11 13  1  0
 13 14  1  1
 14  8  1  0
 15 13  1  0
 15 16  2  0
 18 17  1  0
 19 18  1  0
 19 21  1  0
 19 20  1  1
 21 22  1  6
 22 15  1  0
 23 21  1  0
 24 23  2  0
 25 23  1  0
M  END
$$$$
