QVI.pdb
     RDKit          3D

 25 24  0  0  1  0  0  0  0  0999 V2000
   28.1078  -18.1739  -15.6997 N   0  0  0  0  0  0  0  0  0  0  0  0
   28.5416  -18.7438  -16.9333 C   0  0  0  0  0  0  0  0  0  0  0  0
   29.5075  -18.2190  -17.4995 O   0  0  0  0  0  0  0  0  0  0  0  0
   27.8497  -19.9006  -17.4867 C   0  0  0  0  0  0  0  0  0  0  0  0
   26.7656  -20.4865  -16.6415 C   0  0  0  0  0  0  0  0  0  0  0  0
   27.2136  -21.2924  -15.4638 C   0  0  2  0  0  0  0  0  0  0  0  0
   27.7890  -22.5254  -16.0475 N   0  0  0  0  0  0  0  0  0  0  0  0
   26.2572  -21.6067  -14.4262 C   0  0  0  0  0  0  0  0  0  0  0  0
   25.5363  -22.6559  -14.5092 O   0  0  0  0  0  0  0  0  0  0  0  0
   26.8466  -21.2049  -10.5016 C   0  0  0  0  0  0  0  0  0  0  0  0
   25.5549  -20.5347  -10.9080 C   0  0  2  0  0  0  0  0  0  0  0  0
   24.5346  -20.7194   -9.8268 C   0  0  0  0  0  0  0  0  0  0  0  0
   25.0616  -21.1018  -12.2477 C   0  0  2  0  0  0  0  0  0  0  0  0
   26.0367  -20.8113  -13.2505 N   0  0  0  0  0  0  0  0  0  0  0  0
   23.7546  -20.4367  -12.5026 C   0  0  0  0  0  0  0  0  0  0  0  0
   23.7504  -19.1976  -12.7154 O   0  0  0  0  0  0  0  0  0  0  0  0
   19.7575  -20.4461  -16.5466 C   0  0  0  0  0  0  0  0  0  0  0  0
   19.8416  -20.3049  -15.0471 C   0  0  0  0  0  0  0  0  0  0  0  0
   21.1713  -20.8301  -14.5479 C   0  0  2  0  0  0  0  0  0  0  0  0
   21.2608  -22.3260  -14.7640 C   0  0  0  0  0  0  0  0  0  0  0  0
   21.2954  -20.5711  -13.0658 C   0  0  2  0  0  0  0  0  0  0  0  0
   22.5234  -21.1113  -12.5197 N   0  0  0  0  0  0  0  0  0  0  0  0
   20.1665  -21.2605  -12.3958 C   0  0  0  0  0  0  0  0  0  0  0  0
   19.0607  -20.6900  -12.2357 O   0  0  0  0  0  0  0  0  0  0  0  0
   20.2747  -22.5584  -11.9170 O   0  0  0  0  0  0  0  0  0  0  0  0
  1  2  1  0
  2  3  2  0
  4  2  1  0
  5  4  1  0
  6  7  1  6
  6  5  1  0
  8  6  1  0
  9  8  2  0
 11 12  1  1
 11 10  1  0
 11 13  1  0
 13 14  1  6
 14  8  1  0
 15 13  1  0
 15 16  2  0
 18 17  1  0
 19 18  1  0
 19 21  1  0
 19 20  1  1
 21 22  1  1
 22 15  1  0
 23 21  1  0
 24 23  2  0
 25 23  1  0
M  END
$$$$
