IGM.pdb
     RDKit          3D

 21 20  0  0  1  0  0  0  0  0999 V2000
   23.4726  -27.2531  -17.9064 C   0  0  0  0  0  0  0  0  0  0  0  0
   23.0954  -27.0194  -16.4853 C   0  0  0  0  0  0  0  0  0  0  0  0
   21.6504  -27.1194  -16.1556 C   0  0  2  0  0  0  0  0  0  0  0  0
   20.8881  -26.1482  -17.0188 C   0  0  0  0  0  0  0  0  0  0  0  0
   21.3437  -26.9699  -14.6904 C   0  0  2  0  0  0  0  0  0  0  0  0
   22.1698  -27.8989  -13.9583 N   0  0  0  0  0  0  0  0  0  0  0  0
   19.9280  -27.1989  -14.3689 C   0  0  0  0  0  0  0  0  0  0  0  0
   18.9603  -26.5462  -14.8266 O   0  0  0  0  0  0  0  0  0  0  0  0
   19.6006  -28.2586  -13.4512 N   0  0  0  0  0  0  0  0  0  0  0  0
   18.2181  -28.5313  -13.1590 C   0  0  0  0  0  0  0  0  0  0  0  0
   17.8124  -28.3900  -11.7768 C   0  0  0  0  0  0  0  0  0  0  0  0
   18.6853  -28.7749  -10.9053 O   0  0  0  0  0  0  0  0  0  0  0  0
   18.3636  -24.3914   -6.3496 C   0  0  0  0  0  0  0  0  0  0  0  0
   18.5561  -25.5424   -7.7361 S   0  0  0  0  0  0  0  0  0  0  0  0
   17.4885  -24.9754   -9.0889 C   0  0  0  0  0  0  0  0  0  0  0  0
   17.5643  -25.9516  -10.2416 C   0  0  0  0  0  0  0  0  0  0  0  0
   16.5326  -27.0510  -10.1029 C   0  0  2  0  0  0  0  0  0  0  0  0
   16.5790  -27.8816  -11.3182 N   0  0  0  0  0  0  0  0  0  0  0  0
   15.1711  -26.5221   -9.9358 C   0  0  0  0  0  0  0  0  0  0  0  0
   14.6354  -26.3968   -8.6675 O   0  0  0  0  0  0  0  0  0  0  0  0
   14.4597  -26.1725  -10.9102 O   0  0  0  0  0  0  0  0  0  0  0  0
  2  1  1  0
  2  3  1  0
  3  5  1  0
  3  4  1  6
  5  6  1  1
  7  9  1  0
  7  5  1  0
  8  7  2  0
 10  9  1  0
 11 18  1  0
 11 10  1  0
 12 11  2  0
 14 13  1  0
 15 14  1  0
 17 16  1  6
 16 15  1  0
 17 18  1  0
 19 17  1  0
 20 19  1  0
 21 19  2  0
M  END
$$$$
