IGM.pdb
     RDKit          3D

 21 20  0  0  1  0  0  0  0  0999 V2000
   23.8670  -17.4346  -18.2566 C   0  0  0  0  0  0  0  0  0  0  0  0
   22.9324  -18.4964  -17.7924 C   0  0  0  0  0  0  0  0  0  0  0  0
   22.6805  -18.5680  -16.3302 C   0  0  2  0  0  0  0  0  0  0  0  0
   23.9872  -18.8238  -15.6254 C   0  0  0  0  0  0  0  0  0  0  0  0
   21.6018  -19.5415  -15.9405 C   0  0  2  0  0  0  0  0  0  0  0  0
   20.4140  -19.2270  -16.6966 N   0  0  0  0  0  0  0  0  0  0  0  0
   21.2984  -19.5244  -14.5026 C   0  0  0  0  0  0  0  0  0  0  0  0
   20.6706  -18.6223  -13.8992 O   0  0  0  0  0  0  0  0  0  0  0  0
   21.7516  -20.6285  -13.6976 N   0  0  0  0  0  0  0  0  0  0  0  0
   21.3764  -20.6850  -12.3093 C   0  0  0  0  0  0  0  0  0  0  0  0
   20.3955  -21.6862  -11.9480 C   0  0  0  0  0  0  0  0  0  0  0  0
   20.0337  -22.4729  -12.9071 O   0  0  0  0  0  0  0  0  0  0  0  0
   17.0897  -26.3270   -6.5443 C   0  0  0  0  0  0  0  0  0  0  0  0
   18.2377  -24.9687   -6.8926 S   0  0  0  0  0  0  0  0  0  0  0  0
   18.0285  -24.4881   -8.6294 C   0  0  0  0  0  0  0  0  0  0  0  0
   18.9990  -23.3798   -8.9722 C   0  0  0  0  0  0  0  0  0  0  0  0
   18.9033  -22.9944  -10.4332 C   0  0  2  0  0  0  0  0  0  0  0  0
   19.8204  -21.8672  -10.6727 N   0  0  0  0  0  0  0  0  0  0  0  0
   17.5419  -22.5945  -10.8179 C   0  0  0  0  0  0  0  0  0  0  0  0
   16.6785  -23.5310  -11.3550 O   0  0  0  0  0  0  0  0  0  0  0  0
   17.1199  -21.4197  -10.6782 O   0  0  0  0  0  0  0  0  0  0  0  0
  2  1  1  0
  2  3  1  0
  3  5  1  0
  3  4  1  1
  5  6  1  6
  7  9  1  0
  7  5  1  0
  8  7  2  0
 10  9  1  0
 11 18  1  0
 11 10  1  0
 12 11  2  0
 14 13  1  0
 15 14  1  0
 17 16  1  1
 16 15  1  0
 17 18  1  0
 19 17  1  0
 20 19  1  0
 21 19  2  0
M  END
$$$$
