IGM.pdb
     RDKit          3D

 21 20  0  0  1  0  0  0  0  0999 V2000
   15.6203  -10.5039  -15.6557 C   0  0  0  0  0  0  0  0  0  0  0  0
   16.6050   -9.5607  -15.0584 C   0  0  0  0  0  0  0  0  0  0  0  0
   16.4407   -9.2539  -13.6142 C   0  0  2  0  0  0  0  0  0  0  0  0
   15.0487   -8.7246  -13.3866 C   0  0  0  0  0  0  0  0  0  0  0  0
   17.5099   -8.3573  -13.0520 C   0  0  2  0  0  0  0  0  0  0  0  0
   18.7950   -8.9214  -13.3861 N   0  0  0  0  0  0  0  0  0  0  0  0
   17.4067   -8.1749  -11.5973 C   0  0  0  0  0  0  0  0  0  0  0  0
   17.6849   -9.0379  -10.7315 O   0  0  0  0  0  0  0  0  0  0  0  0
   16.9486   -6.9036  -11.1010 N   0  0  0  0  0  0  0  0  0  0  0  0
   16.6713   -6.7576   -9.6963 C   0  0  0  0  0  0  0  0  0  0  0  0
   15.5613   -5.8974   -9.3455 C   0  0  0  0  0  0  0  0  0  0  0  0
   14.4502   -6.1587   -9.9512 O   0  0  0  0  0  0  0  0  0  0  0  0
   11.6440   -6.1916   -5.1547 C   0  0  0  0  0  0  0  0  0  0  0  0
   10.8472   -5.2850   -6.5065 S   0  0  0  0  0  0  0  0  0  0  0  0
   12.0744   -4.1606   -7.2285 C   0  0  0  0  0  0  0  0  0  0  0  0
   13.3497   -4.9186   -7.5226 C   0  0  0  0  0  0  0  0  0  0  0  0
   14.3807   -4.0290   -8.1844 C   0  0  2  0  0  0  0  0  0  0  0  0
   15.5933   -4.8297   -8.4241 N   0  0  0  0  0  0  0  0  0  0  0  0
   14.7303   -2.8663   -7.3556 C   0  0  0  0  0  0  0  0  0  0  0  0
   13.8987   -1.7621   -7.3381 O   0  0  0  0  0  0  0  0  0  0  0  0
   15.7688   -2.8297   -6.6499 O   0  0  0  0  0  0  0  0  0  0  0  0
  2  1  1  0
  2  3  1  0
  3  5  1  0
  3  4  1  6
  5  6  1  1
  7  9  1  0
  7  5  1  0
  8  7  2  0
 10  9  1  0
 11 18  1  0
 11 10  1  0
 12 11  2  0
 14 13  1  0
 15 14  1  0
 17 16  1  1
 16 15  1  0
 17 18  1  0
 19 17  1  0
 20 19  1  0
 21 19  2  0
M  END
$$$$
