IGM.pdb
     RDKit          3D

 21 20  0  0  1  0  0  0  0  0999 V2000
   21.4868  -19.3682  -16.0737 C   0  0  0  0  0  0  0  0  0  0  0  0
   22.7309  -20.1824  -16.1482 C   0  0  0  0  0  0  0  0  0  0  0  0
   23.7974  -19.8587  -15.1662 C   0  0  2  0  0  0  0  0  0  0  0  0
   24.1270  -18.3926  -15.2745 C   0  0  0  0  0  0  0  0  0  0  0  0
   25.0106  -20.7428  -15.2644 C   0  0  2  0  0  0  0  0  0  0  0  0
   24.6019  -22.1020  -15.0052 N   0  0  0  0  0  0  0  0  0  0  0  0
   26.0841  -20.3580  -14.3373 C   0  0  0  0  0  0  0  0  0  0  0  0
   27.0332  -19.5822  -14.6003 O   0  0  0  0  0  0  0  0  0  0  0  0
   26.0646  -20.9074  -13.0068 N   0  0  0  0  0  0  0  0  0  0  0  0
   27.0540  -20.4757  -12.0550 C   0  0  0  0  0  0  0  0  0  0  0  0
   26.8628  -20.9082  -10.6870 C   0  0  0  0  0  0  0  0  0  0  0  0
   26.8014  -22.1878  -10.5182 O   0  0  0  0  0  0  0  0  0  0  0  0
   29.6579  -19.0659   -5.3796 C   0  0  0  0  0  0  0  0  0  0  0  0
   28.0239  -19.3187   -4.6379 S   0  0  0  0  0  0  0  0  0  0  0  0
   27.0239  -20.2889   -5.7998 C   0  0  0  0  0  0  0  0  0  0  0  0
   27.2717  -19.8068   -7.2117 C   0  0  0  0  0  0  0  0  0  0  0  0
   26.5389  -20.6618   -8.2238 C   0  0  2  0  0  0  0  0  0  0  0  0
   26.7416  -20.0714   -9.5577 N   0  0  0  0  0  0  0  0  0  0  0  0
   25.0968  -20.7410   -7.9490 C   0  0  0  0  0  0  0  0  0  0  0  0
   24.6375  -21.5498   -6.9263 O   0  0  0  0  0  0  0  0  0  0  0  0
   24.2480  -20.0958   -8.6130 O   0  0  0  0  0  0  0  0  0  0  0  0
  2  1  1  0
  2  3  1  0
  3  5  1  0
  3  4  1  6
  5  6  1  1
  7  9  1  0
  7  5  1  0
  8  7  2  0
 10  9  1  0
 11 18  1  0
 11 10  1  0
 12 11  2  0
 14 13  1  0
 15 14  1  0
 17 16  1  1
 16 15  1  0
 17 18  1  0
 19 17  1  0
 20 19  1  0
 21 19  2  0
M  END
$$$$
