IGM.pdb
     RDKit          3D

 21 20  0  0  1  0  0  0  0  0999 V2000
   24.1332  -15.4828  -14.7622 C   0  0  0  0  0  0  0  0  0  0  0  0
   24.5722  -16.3289  -15.9057 C   0  0  0  0  0  0  0  0  0  0  0  0
   25.2507  -17.6061  -15.5662 C   0  0  2  0  0  0  0  0  0  0  0  0
   24.2341  -18.5561  -14.9885 C   0  0  0  0  0  0  0  0  0  0  0  0
   26.4651  -17.4425  -14.6935 C   0  0  2  0  0  0  0  0  0  0  0  0
   27.4039  -16.5890  -15.3802 N   0  0  0  0  0  0  0  0  0  0  0  0
   27.1078  -18.7190  -14.3506 C   0  0  0  0  0  0  0  0  0  0  0  0
   27.8067  -19.4157  -15.1238 O   0  0  0  0  0  0  0  0  0  0  0  0
   26.9332  -19.2331  -13.0173 N   0  0  0  0  0  0  0  0  0  0  0  0
   27.4429  -20.5403  -12.6972 C   0  0  0  0  0  0  0  0  0  0  0  0
   27.3707  -20.9366  -11.3069 C   0  0  0  0  0  0  0  0  0  0  0  0
   27.6445  -22.1777  -11.0738 O   0  0  0  0  0  0  0  0  0  0  0  0
   28.7848  -19.6652   -4.7208 C   0  0  0  0  0  0  0  0  0  0  0  0
   28.2757  -19.2421   -6.4078 S   0  0  0  0  0  0  0  0  0  0  0  0
   26.7069  -20.0867   -6.7494 C   0  0  0  0  0  0  0  0  0  0  0  0
   26.1205  -19.5691   -8.0439 C   0  0  0  0  0  0  0  0  0  0  0  0
   26.1811  -20.6166   -9.1355 C   0  0  2  0  0  0  0  0  0  0  0  0
   27.0358  -20.1029  -10.2192 N   0  0  0  0  0  0  0  0  0  0  0  0
   24.8532  -20.9325   -9.6814 C   0  0  0  0  0  0  0  0  0  0  0  0
   24.5488  -20.5890  -10.9853 O   0  0  0  0  0  0  0  0  0  0  0  0
   23.9667  -21.5108   -9.0049 O   0  0  0  0  0  0  0  0  0  0  0  0
  2  1  1  0
  2  3  1  0
  3  5  1  0
  3  4  1  1
  5  6  1  6
  7  9  1  0
  7  5  1  0
  8  7  2  0
 10  9  1  0
 11 18  1  0
 11 10  1  0
 12 11  2  0
 14 13  1  0
 15 14  1  0
 17 16  1  1
 16 15  1  0
 17 18  1  0
 19 17  1  0
 20 19  1  0
 21 19  2  0
M  END
$$$$
