IGM.pdb
     RDKit          3D

 21 20  0  0  1  0  0  0  0  0999 V2000
   19.3882  -13.6067  -20.6948 C   0  0  0  0  0  0  0  0  0  0  0  0
   19.7059  -13.2403  -19.2873 C   0  0  0  0  0  0  0  0  0  0  0  0
   19.4645  -11.8274  -18.8972 C   0  0  2  0  0  0  0  0  0  0  0  0
   20.2517  -10.9298  -19.8160 C   0  0  0  0  0  0  0  0  0  0  0  0
   19.7131  -11.5419  -17.4412 C   0  0  2  0  0  0  0  0  0  0  0  0
   19.0221  -12.5390  -16.6604 N   0  0  0  0  0  0  0  0  0  0  0  0
   19.2801  -10.1982  -17.0324 C   0  0  0  0  0  0  0  0  0  0  0  0
   18.1118   -9.7509  -17.1145 O   0  0  0  0  0  0  0  0  0  0  0  0
   20.2657   -9.3010  -16.4883 N   0  0  0  0  0  0  0  0  0  0  0  0
   19.8886   -7.9460  -16.1838 C   0  0  0  0  0  0  0  0  0  0  0  0
   20.8982   -7.1237  -15.5514 C   0  0  0  0  0  0  0  0  0  0  0  0
   22.0088   -7.7265  -15.2818 O   0  0  0  0  0  0  0  0  0  0  0  0
   21.6374   -1.3173  -18.5640 C   0  0  0  0  0  0  0  0  0  0  0  0
   21.7292   -1.5433  -16.7683 S   0  0  0  0  0  0  0  0  0  0  0  0
   21.8770   -3.3200  -16.4327 C   0  0  0  0  0  0  0  0  0  0  0  0
   21.7638   -3.5692  -14.9453 C   0  0  0  0  0  0  0  0  0  0  0  0
   21.9098   -5.0405  -14.6190 C   0  0  2  0  0  0  0  0  0  0  0  0
   20.7715   -5.7593  -15.2160 N   0  0  0  0  0  0  0  0  0  0  0  0
   21.9295   -5.2926  -13.1708 C   0  0  0  0  0  0  0  0  0  0  0  0
   23.0785   -5.0365  -12.4461 O   0  0  0  0  0  0  0  0  0  0  0  0
   20.9320   -5.7381  -12.5509 O   0  0  0  0  0  0  0  0  0  0  0  0
  2  1  1  0
  2  3  1  0
  3  5  1  0
  3  4  1  6
  5  6  1  1
  7  9  1  0
  7  5  1  0
  8  7  2  0
 10  9  1  0
 11 18  1  0
 11 10  1  0
 12 11  2  0
 14 13  1  0
 15 14  1  0
 17 16  1  1
 16 15  1  0
 17 18  1  0
 19 17  1  0
 20 19  1  0
 21 19  2  0
M  END
$$$$
