IGM.pdb
     RDKit          3D

 21 20  0  0  1  0  0  0  0  0999 V2000
   21.2349  -18.8205  -15.5589 C   0  0  0  0  0  0  0  0  0  0  0  0
   22.3674  -19.2508  -14.6938 C   0  0  0  0  0  0  0  0  0  0  0  0
   22.0124  -19.9498  -13.4320 C   0  0  2  0  0  0  0  0  0  0  0  0
   21.0102  -19.1131  -12.6802 C   0  0  0  0  0  0  0  0  0  0  0  0
   23.1981  -20.3418  -12.5933 C   0  0  2  0  0  0  0  0  0  0  0  0
   24.0988  -21.1126  -13.4156 N   0  0  0  0  0  0  0  0  0  0  0  0
   22.8314  -21.1115  -11.3961 C   0  0  0  0  0  0  0  0  0  0  0  0
   22.5757  -22.3385  -11.3667 O   0  0  0  0  0  0  0  0  0  0  0  0
   22.7526  -20.4171  -10.1375 N   0  0  0  0  0  0  0  0  0  0  0  0
   22.4183  -21.1559   -8.9486 C   0  0  0  0  0  0  0  0  0  0  0  0
   21.0238  -21.5043   -8.7782 C   0  0  0  0  0  0  0  0  0  0  0  0
   20.1808  -20.6097   -9.1765 O   0  0  0  0  0  0  0  0  0  0  0  0
   17.2797  -25.7069  -11.3776 C   0  0  0  0  0  0  0  0  0  0  0  0
   18.6582  -24.6596  -11.9133 S   0  0  0  0  0  0  0  0  0  0  0  0
   18.9038  -23.3706  -10.6606 C   0  0  0  0  0  0  0  0  0  0  0  0
   18.7477  -23.9658   -9.2790 C   0  0  0  0  0  0  0  0  0  0  0  0
   19.0747  -22.9538   -8.2015 C   0  0  2  0  0  0  0  0  0  0  0  0
   20.5259  -22.7047   -8.2293 N   0  0  0  0  0  0  0  0  0  0  0  0
   18.6945  -23.4222   -6.8608 C   0  0  0  0  0  0  0  0  0  0  0  0
   19.6753  -23.6806   -5.9215 O   0  0  0  0  0  0  0  0  0  0  0  0
   17.4978  -23.6014   -6.5239 O   0  0  0  0  0  0  0  0  0  0  0  0
  2  1  1  0
  2  3  1  0
  3  5  1  0
  3  4  1  1
  5  6  1  6
  7  9  1  0
  7  5  1  0
  8  7  2  0
 10  9  1  0
 11 18  1  0
 11 10  1  0
 12 11  2  0
 14 13  1  0
 15 14  1  0
 17 16  1  6
 16 15  1  0
 17 18  1  0
 19 17  1  0
 20 19  1  0
 21 19  2  0
M  END
$$$$
