IGM.pdb
     RDKit          3D

 21 20  0  0  1  0  0  0  0  0999 V2000
   21.4907  -20.3928  -11.3201 C   0  0  0  0  0  0  0  0  0  0  0  0
   22.8625  -20.7466  -10.8627 C   0  0  0  0  0  0  0  0  0  0  0  0
   23.9490  -20.6338  -11.8694 C   0  0  2  0  0  0  0  0  0  0  0  0
   23.5311  -21.3666  -13.1175 C   0  0  0  0  0  0  0  0  0  0  0  0
   25.3007  -21.0580  -11.3632 C   0  0  2  0  0  0  0  0  0  0  0  0
   25.6373  -20.2344  -10.2275 N   0  0  0  0  0  0  0  0  0  0  0  0
   26.3565  -20.9618  -12.3811 C   0  0  0  0  0  0  0  0  0  0  0  0
   26.6574  -21.8548  -13.2081 O   0  0  0  0  0  0  0  0  0  0  0  0
   27.1247  -19.7463  -12.4530 N   0  0  0  0  0  0  0  0  0  0  0  0
   28.2089  -19.6565  -13.3951 C   0  0  0  0  0  0  0  0  0  0  0  0
   27.8559  -19.7643  -14.7947 C   0  0  0  0  0  0  0  0  0  0  0  0
   28.6036  -19.0893  -15.6041 O   0  0  0  0  0  0  0  0  0  0  0  0
   29.1654  -26.2619  -17.7273 C   0  0  0  0  0  0  0  0  0  0  0  0
   28.7054  -25.1861  -16.3434 S   0  0  0  0  0  0  0  0  0  0  0  0
   28.1804  -23.5887  -17.0244 C   0  0  0  0  0  0  0  0  0  0  0  0
   27.6537  -22.7088  -15.9127 C   0  0  0  0  0  0  0  0  0  0  0  0
   27.0400  -21.4369  -16.4588 C   0  0  2  0  0  0  0  0  0  0  0  0
   26.7942  -20.5233  -15.3302 N   0  0  0  0  0  0  0  0  0  0  0  0
   25.7718  -21.6844  -17.1599 C   0  0  0  0  0  0  0  0  0  0  0  0
   25.6911  -21.4768  -18.5243 O   0  0  0  0  0  0  0  0  0  0  0  0
   24.7398  -22.0832  -16.5652 O   0  0  0  0  0  0  0  0  0  0  0  0
  2  1  1  0
  2  3  1  0
  3  5  1  0
  3  4  1  6
  5  6  1  1
  7  9  1  0
  7  5  1  0
  8  7  2  0
 10  9  1  0
 11 18  1  0
 11 10  1  0
 12 11  2  0
 14 13  1  0
 15 14  1  0
 17 16  1  1
 16 15  1  0
 17 18  1  0
 19 17  1  0
 20 19  1  0
 21 19  2  0
M  END
$$$$
