IGM.pdb
     RDKit          3D

 21 20  0  0  1  0  0  0  0  0999 V2000
   25.0847  -16.9600  -18.8861 C   0  0  0  0  0  0  0  0  0  0  0  0
   24.8332  -18.0378  -17.8904 C   0  0  0  0  0  0  0  0  0  0  0  0
   25.6637  -18.0128  -16.6590 C   0  0  2  0  0  0  0  0  0  0  0  0
   27.1173  -18.0130  -17.0549 C   0  0  0  0  0  0  0  0  0  0  0  0
   25.3241  -19.0926  -15.6680 C   0  0  2  0  0  0  0  0  0  0  0  0
   23.9190  -18.9944  -15.3560 N   0  0  0  0  0  0  0  0  0  0  0  0
   26.1172  -19.0153  -14.4331 C   0  0  0  0  0  0  0  0  0  0  0  0
   27.3463  -19.2439  -14.3389 O   0  0  0  0  0  0  0  0  0  0  0  0
   25.4455  -18.6474  -13.2141 N   0  0  0  0  0  0  0  0  0  0  0  0
   26.2210  -18.4507  -12.0178 C   0  0  0  0  0  0  0  0  0  0  0  0
   26.1224  -19.4846  -11.0096 C   0  0  0  0  0  0  0  0  0  0  0  0
   25.2198  -20.3827  -11.2294 O   0  0  0  0  0  0  0  0  0  0  0  0
   28.9314  -19.2842   -5.2870 C   0  0  0  0  0  0  0  0  0  0  0  0
   27.4965  -20.2697   -4.7828 S   0  0  0  0  0  0  0  0  0  0  0  0
   26.6367  -20.8178   -6.2833 C   0  0  0  0  0  0  0  0  0  0  0  0
   27.0829  -19.9808   -7.4613 C   0  0  0  0  0  0  0  0  0  0  0  0
   26.4982  -20.4973   -8.7589 C   0  0  2  0  0  0  0  0  0  0  0  0
   26.9079  -19.5879   -9.8424 N   0  0  0  0  0  0  0  0  0  0  0  0
   25.0302  -20.5676   -8.7217 C   0  0  0  0  0  0  0  0  0  0  0  0
   24.4081  -21.7755   -8.4670 O   0  0  0  0  0  0  0  0  0  0  0  0
   24.3024  -19.5620   -8.9142 O   0  0  0  0  0  0  0  0  0  0  0  0
  2  1  1  0
  2  3  1  0
  3  5  1  0
  3  4  1  6
  5  6  1  1
  7  9  1  0
  7  5  1  0
  8  7  2  0
 10  9  1  0
 11 18  1  0
 11 10  1  0
 12 11  2  0
 14 13  1  0
 15 14  1  0
 17 16  1  1
 16 15  1  0
 17 18  1  0
 19 17  1  0
 20 19  1  0
 21 19  2  0
M  END
$$$$
