IGM.pdb
     RDKit          3D

 21 20  0  0  1  0  0  0  0  0999 V2000
   18.7532  -15.3897  -16.5581 C   0  0  0  0  0  0  0  0  0  0  0  0
   18.0372  -14.2634  -15.8984 C   0  0  0  0  0  0  0  0  0  0  0  0
   18.4511  -12.8916  -16.2903 C   0  0  2  0  0  0  0  0  0  0  0  0
   19.9099  -12.7125  -15.9594 C   0  0  0  0  0  0  0  0  0  0  0  0
   17.5816  -11.8028  -15.7230 C   0  0  2  0  0  0  0  0  0  0  0  0
   16.2059  -12.1244  -16.0151 N   0  0  0  0  0  0  0  0  0  0  0  0
   17.9061  -10.4695  -16.2493 C   0  0  0  0  0  0  0  0  0  0  0  0
   17.8934  -10.1386  -17.4585 O   0  0  0  0  0  0  0  0  0  0  0  0
   18.2731   -9.4387  -15.3138 N   0  0  0  0  0  0  0  0  0  0  0  0
   18.7595   -8.1795  -15.8127 C   0  0  0  0  0  0  0  0  0  0  0  0
   20.0264   -7.7230  -15.2818 C   0  0  0  0  0  0  0  0  0  0  0  0
   20.3474   -8.2106  -14.1291 O   0  0  0  0  0  0  0  0  0  0  0  0
   24.9475   -5.6017  -18.6229 C   0  0  0  0  0  0  0  0  0  0  0  0
   25.5602   -4.9508  -17.0465 S   0  0  0  0  0  0  0  0  0  0  0  0
   24.4633   -5.5448  -15.7293 C   0  0  0  0  0  0  0  0  0  0  0  0
   23.1131   -5.8995  -16.3114 C   0  0  0  0  0  0  0  0  0  0  0  0
   22.1959   -6.4880  -15.2603 C   0  0  2  0  0  0  0  0  0  0  0  0
   20.9118   -6.8166  -15.9020 N   0  0  0  0  0  0  0  0  0  0  0  0
   21.9516   -5.5583  -14.1479 C   0  0  0  0  0  0  0  0  0  0  0  0
   22.7246   -5.6393  -13.0047 O   0  0  0  0  0  0  0  0  0  0  0  0
   21.0565   -4.6781  -14.1897 O   0  0  0  0  0  0  0  0  0  0  0  0
  2  1  1  0
  2  3  1  0
  3  5  1  0
  3  4  1  1
  5  6  1  6
  7  9  1  0
  7  5  1  0
  8  7  2  0
 10  9  1  0
 11 18  1  0
 11 10  1  0
 12 11  2  0
 14 13  1  0
 15 14  1  0
 17 16  1  6
 16 15  1  0
 17 18  1  0
 19 17  1  0
 20 19  1  0
 21 19  2  0
M  END
$$$$
