SVH.pdb
     RDKit          3D

 24 24  0  0  1  0  0  0  0  0999 V2000
   17.2183  -14.4248  -18.4684 O   0  0  0  0  0  0  0  0  0  0  0  0
   17.8386  -13.5001  -17.6496 C   0  0  0  0  0  0  0  0  0  0  0  0
   18.9332  -14.2270  -16.8891 C   0  0  2  0  0  0  0  0  0  0  0  0
   18.4465  -15.2210  -15.9920 N   0  0  0  0  0  0  0  0  0  0  0  0
   19.6880  -13.1943  -16.0767 C   0  0  0  0  0  0  0  0  0  0  0  0
   19.0219  -12.6809  -15.1690 O   0  0  0  0  0  0  0  0  0  0  0  0
   23.7147  -13.4160  -15.0969 C   0  0  0  0  0  0  0  0  0  0  0  0
   23.3047  -12.1310  -15.7837 C   0  0  2  0  0  0  0  0  0  0  0  0
   24.2252  -11.0478  -15.3598 C   0  0  0  0  0  0  0  0  0  0  0  0
   21.8437  -11.8463  -15.7975 C   0  0  2  0  0  0  0  0  0  0  0  0
   20.9944  -12.8784  -16.3486 N   0  0  0  0  0  0  0  0  0  0  0  0
   21.4296  -10.5125  -16.2478 C   0  0  0  0  0  0  0  0  0  0  0  0
   21.4917  -10.2805  -17.5132 O   0  0  0  0  0  0  0  0  0  0  0  0
   20.9679   -9.4565  -15.4645 N   0  0  0  0  0  0  0  0  0  0  0  0
   20.6542   -8.1309  -15.9586 C   0  0  1  0  0  0  0  0  0  0  0  0
   19.1248   -8.0136  -15.8862 C   0  0  0  0  0  0  0  0  0  0  0  0
   18.6859   -6.6763  -16.3498 C   0  0  0  0  0  0  0  0  0  0  0  0
   18.2790   -5.6094  -15.5773 C   0  0  0  0  0  0  0  0  0  0  0  0
   17.9521   -4.5551  -16.3654 N   0  0  0  0  0  0  0  0  0  0  0  0
   18.1547   -4.9625  -17.6292 C   0  0  0  0  0  0  0  0  0  0  0  0
   18.5939   -6.2327  -17.6160 N   0  0  0  0  0  0  0  0  0  0  0  0
   21.3059   -7.0518  -15.2315 C   0  0  0  0  0  0  0  0  0  0  0  0
   21.6616   -7.2063  -14.0457 O   0  0  0  0  0  0  0  0  0  0  0  0
   21.5474   -5.8316  -15.8313 O   0  0  0  0  0  0  0  0  0  0  0  0
  2  1  1  0
  2  3  1  0
  3  4  1  1
  5  3  1  0
  5  6  2  0
  8  7  1  1
  8 10  1  0
  8  9  1  0
 10 11  1  6
 11  5  1  0
 12 10  1  0
 13 12  2  0
 14 12  1  0
 15 22  1  0
 15 14  1  0
 15 16  1  1
 17 18  2  0
 17 16  1  0
 19 18  1  0
 20 21  2  0
 20 19  1  0
 21 17  1  0
 22 24  1  0
 23 22  2  0
M  END
$$$$
