SVH.pdb
     RDKit          3D

 24 24  0  0  1  0  0  0  0  0999 V2000
   30.3808   -7.8292  -19.1833 O   0  0  0  0  0  0  0  0  0  0  0  0
   29.0616   -8.1950  -18.9934 C   0  0  0  0  0  0  0  0  0  0  0  0
   29.0586   -9.5622  -18.3336 C   0  0  2  0  0  0  0  0  0  0  0  0
   29.5823  -10.5992  -19.1582 N   0  0  0  0  0  0  0  0  0  0  0  0
   27.6200   -9.9080  -18.0059 C   0  0  0  0  0  0  0  0  0  0  0  0
   27.0118  -10.4643  -18.9289 O   0  0  0  0  0  0  0  0  0  0  0  0
   26.3834  -12.0418  -15.1047 C   0  0  0  0  0  0  0  0  0  0  0  0
   25.6663  -10.7105  -15.0380 C   0  0  2  0  0  0  0  0  0  0  0  0
   24.3364  -10.9148  -14.4134 C   0  0  0  0  0  0  0  0  0  0  0  0
   25.7442   -9.8750  -16.2674 C   0  0  2  0  0  0  0  0  0  0  0  0
   27.0695   -9.6167  -16.7842 N   0  0  0  0  0  0  0  0  0  0  0  0
   24.9077   -8.6701  -16.3077 C   0  0  0  0  0  0  0  0  0  0  0  0
   25.3296   -7.6468  -15.6492 O   0  0  0  0  0  0  0  0  0  0  0  0
   23.7014   -8.4954  -16.9830 N   0  0  0  0  0  0  0  0  0  0  0  0
   22.8788   -7.3040  -16.9197 C   0  0  1  0  0  0  0  0  0  0  0  0
   22.3319   -7.1030  -18.3405 C   0  0  0  0  0  0  0  0  0  0  0  0
   21.4506   -5.9127  -18.3920 C   0  0  0  0  0  0  0  0  0  0  0  0
   21.8213   -4.5987  -18.5829 C   0  0  0  0  0  0  0  0  0  0  0  0
   20.7293   -3.7944  -18.5664 N   0  0  0  0  0  0  0  0  0  0  0  0
   19.6772   -4.6049  -18.3654 C   0  0  0  0  0  0  0  0  0  0  0  0
   20.1128   -5.8721  -18.2615 N   0  0  0  0  0  0  0  0  0  0  0  0
   21.8046   -7.3701  -15.9401 C   0  0  0  0  0  0  0  0  0  0  0  0
   21.3092   -8.4667  -15.6107 O   0  0  0  0  0  0  0  0  0  0  0  0
   21.3056   -6.2255  -15.3505 O   0  0  0  0  0  0  0  0  0  0  0  0
  2  1  1  0
  2  3  1  0
  3  4  1  6
  5  3  1  0
  5  6  2  0
  8  7  1  6
  8 10  1  0
  8  9  1  0
 10 11  1  1
 11  5  1  0
 12 10  1  0
 13 12  2  0
 14 12  1  0
 15 22  1  0
 15 14  1  0
 15 16  1  6
 17 18  2  0
 17 16  1  0
 19 18  1  0
 20 21  2  0
 20 19  1  0
 21 17  1  0
 22 24  1  0
 23 22  2  0
M  END
$$$$
