SVH.pdb
     RDKit          3D

 24 24  0  0  1  0  0  0  0  0999 V2000
   29.6201   -7.3419  -19.5298 O   0  0  0  0  0  0  0  0  0  0  0  0
   28.7661   -8.4277  -19.4864 C   0  0  0  0  0  0  0  0  0  0  0  0
   29.0000   -9.1386  -18.1656 C   0  0  2  0  0  0  0  0  0  0  0  0
   30.1367   -9.9975  -18.1689 N   0  0  0  0  0  0  0  0  0  0  0  0
   27.7761   -9.9853  -17.8796 C   0  0  0  0  0  0  0  0  0  0  0  0
   27.8148  -11.1148  -18.3835 O   0  0  0  0  0  0  0  0  0  0  0  0
   24.6108  -12.1722  -15.3260 C   0  0  0  0  0  0  0  0  0  0  0  0
   25.8362  -11.4007  -15.7671 C   0  0  2  0  0  0  0  0  0  0  0  0
   26.7586  -11.2683  -14.6130 C   0  0  0  0  0  0  0  0  0  0  0  0
   25.5725  -10.1941  -16.5979 C   0  0  2  0  0  0  0  0  0  0  0  0
   26.7335   -9.5123  -17.1250 N   0  0  0  0  0  0  0  0  0  0  0  0
   24.5744   -9.2439  -16.0940 C   0  0  0  0  0  0  0  0  0  0  0  0
   24.9908   -8.3441  -15.2720 O   0  0  0  0  0  0  0  0  0  0  0  0
   23.2167   -9.1936  -16.4039 N   0  0  0  0  0  0  0  0  0  0  0  0
   22.2897   -8.1924  -15.9159 C   0  0  1  0  0  0  0  0  0  0  0  0
   21.6095   -7.6145  -17.1654 C   0  0  0  0  0  0  0  0  0  0  0  0
   22.5929   -6.8829  -17.9983 C   0  0  0  0  0  0  0  0  0  0  0  0
   23.3308   -5.7721  -17.6488 C   0  0  0  0  0  0  0  0  0  0  0  0
   24.1224   -5.3889  -18.6813 N   0  0  0  0  0  0  0  0  0  0  0  0
   23.8797   -6.2593  -19.6750 C   0  0  0  0  0  0  0  0  0  0  0  0
   22.9636   -7.1522  -19.2626 N   0  0  0  0  0  0  0  0  0  0  0  0
   21.3124   -8.6961  -14.9625 C   0  0  0  0  0  0  0  0  0  0  0  0
   21.1420   -9.9229  -14.8127 O   0  0  0  0  0  0  0  0  0  0  0  0
   20.5492   -7.8338  -14.2004 O   0  0  0  0  0  0  0  0  0  0  0  0
  2  1  1  0
  2  3  1  0
  3  4  1  6
  5  3  1  0
  5  6  2  0
  8  7  1  1
  8 10  1  0
  8  9  1  0
 10 11  1  1
 11  5  1  0
 12 10  1  0
 13 12  2  0
 14 12  1  0
 15 22  1  0
 15 14  1  0
 15 16  1  6
 17 18  2  0
 17 16  1  0
 19 18  1  0
 20 21  2  0
 20 19  1  0
 21 17  1  0
 22 24  1  0
 23 22  2  0
M  END
$$$$
