SVH.pdb
     RDKit          3D

 24 24  0  0  1  0  0  0  0  0999 V2000
   27.0759  -11.3805  -17.2553 O   0  0  0  0  0  0  0  0  0  0  0  0
   26.9525  -11.6543  -15.9063 C   0  0  0  0  0  0  0  0  0  0  0  0
   25.9638  -12.7973  -15.7621 C   0  0  2  0  0  0  0  0  0  0  0  0
   26.3210  -13.9623  -16.5003 N   0  0  0  0  0  0  0  0  0  0  0  0
   24.6245  -12.3104  -16.2775 C   0  0  0  0  0  0  0  0  0  0  0  0
   24.1465  -13.0095  -17.1797 O   0  0  0  0  0  0  0  0  0  0  0  0
   21.3069  -11.9156  -14.0675 C   0  0  0  0  0  0  0  0  0  0  0  0
   21.5980  -11.7310  -15.5414 C   0  0  2  0  0  0  0  0  0  0  0  0
   21.6725  -13.0655  -16.1847 C   0  0  0  0  0  0  0  0  0  0  0  0
   22.6528  -10.7331  -15.8692 C   0  0  2  0  0  0  0  0  0  0  0  0
   24.0210  -11.1895  -15.7680 N   0  0  0  0  0  0  0  0  0  0  0  0
   22.4928   -9.3866  -15.3084 C   0  0  0  0  0  0  0  0  0  0  0  0
   22.9959   -9.1792  -14.1410 O   0  0  0  0  0  0  0  0  0  0  0  0
   21.8598   -8.2920  -15.8939 N   0  0  0  0  0  0  0  0  0  0  0  0
   21.6765   -7.0016  -15.2604 C   0  0  1  0  0  0  0  0  0  0  0  0
   22.0671   -5.9613  -16.3203 C   0  0  0  0  0  0  0  0  0  0  0  0
   21.9385   -4.5906  -15.7719 C   0  0  0  0  0  0  0  0  0  0  0  0
   22.3632   -4.1325  -14.5430 C   0  0  0  0  0  0  0  0  0  0  0  0
   22.0651   -2.8168  -14.4023 N   0  0  0  0  0  0  0  0  0  0  0  0
   21.4549   -2.4530  -15.5422 C   0  0  0  0  0  0  0  0  0  0  0  0
   21.3808   -3.5173  -16.3596 N   0  0  0  0  0  0  0  0  0  0  0  0
   20.3315   -6.7686  -14.7558 C   0  0  0  0  0  0  0  0  0  0  0  0
   19.3372   -7.2170  -15.3614 O   0  0  0  0  0  0  0  0  0  0  0  0
   20.1193   -6.0472  -13.5976 O   0  0  0  0  0  0  0  0  0  0  0  0
  2  1  1  0
  2  3  1  0
  3  4  1  6
  5  3  1  0
  5  6  2  0
  8  7  1  1
  8 10  1  0
  8  9  1  0
 10 11  1  1
 11  5  1  0
 12 10  1  0
 13 12  2  0
 14 12  1  0
 15 22  1  0
 15 14  1  0
 15 16  1  6
 17 18  2  0
 17 16  1  0
 19 18  1  0
 20 21  2  0
 20 19  1  0
 21 17  1  0
 22 24  1  0
 23 22  2  0
M  END
$$$$
