SVH.pdb
     RDKit          3D

 24 24  0  0  1  0  0  0  0  0999 V2000
   27.9509  -11.2916  -20.1318 O   0  0  0  0  0  0  0  0  0  0  0  0
   26.7189  -11.3309  -19.5068 C   0  0  0  0  0  0  0  0  0  0  0  0
   26.7464  -12.4823  -18.5178 C   0  0  2  0  0  0  0  0  0  0  0  0
   26.9868  -13.7510  -19.1197 N   0  0  0  0  0  0  0  0  0  0  0  0
   25.3915  -12.5358  -17.8412 C   0  0  0  0  0  0  0  0  0  0  0  0
   24.7748  -13.5919  -18.0293 O   0  0  0  0  0  0  0  0  0  0  0  0
   23.5019  -13.8963  -15.9439 C   0  0  0  0  0  0  0  0  0  0  0  0
   23.4919  -12.5152  -15.3245 C   0  0  2  0  0  0  0  0  0  0  0  0
   22.3381  -12.4155  -14.3976 C   0  0  0  0  0  0  0  0  0  0  0  0
   23.7385  -11.3868  -16.2633 C   0  0  2  0  0  0  0  0  0  0  0  0
   24.9184  -11.4888  -17.0927 N   0  0  0  0  0  0  0  0  0  0  0  0
   23.5716  -10.0295  -15.7313 C   0  0  0  0  0  0  0  0  0  0  0  0
   24.3759   -9.6699  -14.7918 O   0  0  0  0  0  0  0  0  0  0  0  0
   22.6413   -9.0703  -16.1268 N   0  0  0  0  0  0  0  0  0  0  0  0
   22.5232   -7.7431  -15.5571 C   0  0  1  0  0  0  0  0  0  0  0  0
   21.6798   -6.9377  -16.5562 C   0  0  0  0  0  0  0  0  0  0  0  0
   21.5134   -5.5423  -16.0861 C   0  0  0  0  0  0  0  0  0  0  0  0
   22.2270   -4.8958  -15.0994 C   0  0  0  0  0  0  0  0  0  0  0  0
   21.7815   -3.6231  -14.9534 N   0  0  0  0  0  0  0  0  0  0  0  0
   20.7907   -3.4741  -15.8480 C   0  0  0  0  0  0  0  0  0  0  0  0
   20.6330   -4.6250  -16.5241 N   0  0  0  0  0  0  0  0  0  0  0  0
   21.9407   -7.7141  -14.2238 C   0  0  0  0  0  0  0  0  0  0  0  0
   20.9251   -8.3881  -13.9573 O   0  0  0  0  0  0  0  0  0  0  0  0
   22.4933   -6.9427  -13.2206 O   0  0  0  0  0  0  0  0  0  0  0  0
  2  1  1  0
  2  3  1  0
  3  4  1  6
  5  3  1  0
  5  6  2  0
  8  7  1  6
  8 10  1  0
  8  9  1  0
 10 11  1  1
 11  5  1  0
 12 10  1  0
 13 12  2  0
 14 12  1  0
 15 22  1  0
 15 14  1  0
 15 16  1  6
 17 18  2  0
 17 16  1  0
 19 18  1  0
 20 21  2  0
 20 19  1  0
 21 17  1  0
 22 24  1  0
 23 22  2  0
M  END
$$$$
