SVH.pdb
     RDKit          3D

 24 24  0  0  1  0  0  0  0  0999 V2000
   19.3277   -2.3294  -15.7520 O   0  0  0  0  0  0  0  0  0  0  0  0
   19.5850   -3.5669  -15.1932 C   0  0  0  0  0  0  0  0  0  0  0  0
   18.2752   -4.3337  -15.1618 C   0  0  2  0  0  0  0  0  0  0  0  0
   17.3775   -3.8961  -14.1458 N   0  0  0  0  0  0  0  0  0  0  0  0
   18.6043   -5.7894  -14.8986 C   0  0  0  0  0  0  0  0  0  0  0  0
   18.5395   -6.1138  -13.7063 O   0  0  0  0  0  0  0  0  0  0  0  0
   16.7172   -8.7335  -15.7723 C   0  0  0  0  0  0  0  0  0  0  0  0
   18.0666   -8.9236  -16.4311 C   0  0  2  0  0  0  0  0  0  0  0  0
   18.3186  -10.3764  -16.5936 C   0  0  0  0  0  0  0  0  0  0  0  0
   19.1677   -8.0746  -15.8998 C   0  0  2  0  0  0  0  0  0  0  0  0
   18.9407   -6.6468  -15.9145 N   0  0  0  0  0  0  0  0  0  0  0  0
   20.5309   -8.4062  -16.3299 C   0  0  0  0  0  0  0  0  0  0  0  0
   20.8474   -8.1073  -17.5421 O   0  0  0  0  0  0  0  0  0  0  0  0
   21.5370   -9.0077  -15.5763 N   0  0  0  0  0  0  0  0  0  0  0  0
   22.8658   -9.3193  -16.0630 C   0  0  1  0  0  0  0  0  0  0  0  0
   23.7257   -9.5344  -14.8090 C   0  0  0  0  0  0  0  0  0  0  0  0
   25.1325   -9.8067  -15.1868 C   0  0  0  0  0  0  0  0  0  0  0  0
   25.6718   -9.8415  -16.4551 C   0  0  0  0  0  0  0  0  0  0  0  0
   26.9967  -10.1255  -16.3956 N   0  0  0  0  0  0  0  0  0  0  0  0
   27.2853  -10.2678  -15.0915 C   0  0  0  0  0  0  0  0  0  0  0  0
   26.1670  -10.0763  -14.3709 N   0  0  0  0  0  0  0  0  0  0  0  0
   22.9228  -10.4705  -16.9515 C   0  0  0  0  0  0  0  0  0  0  0  0
   22.3136  -11.5225  -16.6712 O   0  0  0  0  0  0  0  0  0  0  0  0
   23.6502  -10.4307  -18.1246 O   0  0  0  0  0  0  0  0  0  0  0  0
  2  1  1  0
  2  3  1  0
  3  4  1  1
  5  3  1  0
  5  6  2  0
  8  7  1  1
  8 10  1  0
  8  9  1  0
 10 11  1  6
 11  5  1  0
 12 10  1  0
 13 12  2  0
 14 12  1  0
 15 22  1  0
 15 14  1  0
 15 16  1  1
 17 18  2  0
 17 16  1  0
 19 18  1  0
 20 21  2  0
 20 19  1  0
 21 17  1  0
 22 24  1  0
 23 22  2  0
M  END
$$$$
