SVH.pdb
     RDKit          3D

 24 24  0  0  1  0  0  0  0  0999 V2000
   25.6758  -32.6884  -11.0772 O   0  0  0  0  0  0  0  0  0  0  0  0
   24.3553  -33.0693  -10.9315 C   0  0  0  0  0  0  0  0  0  0  0  0
   23.9559  -33.8186  -12.1900 C   0  0  2  0  0  0  0  0  0  0  0  0
   25.0616  -34.3220  -12.9342 N   0  0  0  0  0  0  0  0  0  0  0  0
   23.1983  -32.8509  -13.0767 C   0  0  0  0  0  0  0  0  0  0  0  0
   23.5891  -32.8301  -14.2505 O   0  0  0  0  0  0  0  0  0  0  0  0
   20.9624  -33.4002  -15.0878 C   0  0  0  0  0  0  0  0  0  0  0  0
   20.1972  -32.7817  -13.9375 C   0  0  2  0  0  0  0  0  0  0  0  0
   18.8044  -32.5202  -14.3758 C   0  0  0  0  0  0  0  0  0  0  0  0
   20.9118  -31.7103  -13.1912 C   0  0  2  0  0  0  0  0  0  0  0  0
   22.1740  -32.0796  -12.5906 N   0  0  0  0  0  0  0  0  0  0  0  0
   20.1087  -30.8802  -12.2861 C   0  0  0  0  0  0  0  0  0  0  0  0
   19.6988  -31.4346  -11.1983 O   0  0  0  0  0  0  0  0  0  0  0  0
   19.7356  -29.5489  -12.4605 N   0  0  0  0  0  0  0  0  0  0  0  0
   19.1052  -28.7237  -11.4499 C   0  0  1  0  0  0  0  0  0  0  0  0
   19.5434  -27.2846  -11.7586 C   0  0  0  0  0  0  0  0  0  0  0  0
   21.0210  -27.1976  -11.8296 C   0  0  0  0  0  0  0  0  0  0  0  0
   21.9393  -27.7505  -10.9627 C   0  0  0  0  0  0  0  0  0  0  0  0
   23.2011  -27.4503  -11.3593 N   0  0  0  0  0  0  0  0  0  0  0  0
   23.0716  -26.7107  -12.4730 C   0  0  0  0  0  0  0  0  0  0  0  0
   21.7653  -26.5614  -12.7515 N   0  0  0  0  0  0  0  0  0  0  0  0
   17.6553  -28.8400  -11.4015 C   0  0  0  0  0  0  0  0  0  0  0  0
   17.0206  -29.3035  -12.3705 O   0  0  0  0  0  0  0  0  0  0  0  0
   16.9446  -28.4418  -10.2865 O   0  0  0  0  0  0  0  0  0  0  0  0
  2  1  1  0
  2  3  1  0
  3  4  1  6
  5  3  1  0
  5  6  2  0
  8  7  1  6
  8 10  1  0
  8  9  1  0
 10 11  1  1
 11  5  1  0
 12 10  1  0
 13 12  2  0
 14 12  1  0
 15 22  1  0
 15 14  1  0
 15 16  1  6
 17 18  2  0
 17 16  1  0
 19 18  1  0
 20 21  2  0
 20 19  1  0
 21 17  1  0
 22 24  1  0
 23 22  2  0
M  END
$$$$
