SVH.pdb
     RDKit          3D

 24 24  0  0  1  0  0  0  0  0999 V2000
   24.9790  -21.4055  -14.7625 O   0  0  0  0  0  0  0  0  0  0  0  0
   25.6543  -20.2309  -15.0352 C   0  0  0  0  0  0  0  0  0  0  0  0
   24.8156  -19.4427  -16.0252 C   0  0  2  0  0  0  0  0  0  0  0  0
   25.4721  -18.2898  -16.5444 N   0  0  0  0  0  0  0  0  0  0  0  0
   23.5667  -18.9822  -15.3009 C   0  0  0  0  0  0  0  0  0  0  0  0
   23.7437  -18.0073  -14.5596 O   0  0  0  0  0  0  0  0  0  0  0  0
   20.6107  -17.1782  -16.1429 C   0  0  0  0  0  0  0  0  0  0  0  0
   20.1205  -18.5451  -15.7157 C   0  0  2  0  0  0  0  0  0  0  0  0
   18.7158  -18.4263  -15.2541 C   0  0  0  0  0  0  0  0  0  0  0  0
   21.0681  -19.3384  -14.8860 C   0  0  2  0  0  0  0  0  0  0  0  0
   22.3607  -19.6117  -15.4731 N   0  0  0  0  0  0  0  0  0  0  0  0
   20.5275  -20.5196  -14.2037 C   0  0  0  0  0  0  0  0  0  0  0  0
   20.2498  -21.5399  -14.9390 O   0  0  0  0  0  0  0  0  0  0  0  0
   20.2796  -20.6747  -12.8412 N   0  0  0  0  0  0  0  0  0  0  0  0
   19.6760  -21.8440  -12.2344 C   0  0  1  0  0  0  0  0  0  0  0  0
   20.1088  -21.8157  -10.7613 C   0  0  0  0  0  0  0  0  0  0  0  0
   19.5124  -22.9550  -10.0249 C   0  0  0  0  0  0  0  0  0  0  0  0
   18.6681  -23.9268  -10.5182 C   0  0  0  0  0  0  0  0  0  0  0  0
   18.3325  -24.8011   -9.5372 N   0  0  0  0  0  0  0  0  0  0  0  0
   18.9664  -24.3763   -8.4318 C   0  0  0  0  0  0  0  0  0  0  0  0
   19.6717  -23.2710   -8.7275 N   0  0  0  0  0  0  0  0  0  0  0  0
   18.2275  -21.9041  -12.3627 C   0  0  0  0  0  0  0  0  0  0  0  0
   17.5291  -20.8862  -12.1826 O   0  0  0  0  0  0  0  0  0  0  0  0
   17.5885  -23.0849  -12.6857 O   0  0  0  0  0  0  0  0  0  0  0  0
  2  1  1  0
  2  3  1  0
  3  4  1  1
  5  3  1  0
  5  6  2  0
  8  7  1  1
  8 10  1  0
  8  9  1  0
 10 11  1  6
 11  5  1  0
 12 10  1  0
 13 12  2  0
 14 12  1  0
 15 22  1  0
 15 14  1  0
 15 16  1  1
 17 18  2  0
 17 16  1  0
 19 18  1  0
 20 21  2  0
 20 19  1  0
 21 17  1  0
 22 24  1  0
 23 22  2  0
M  END
$$$$
