SVH.pdb
     RDKit          3D

 24 24  0  0  1  0  0  0  0  0999 V2000
   16.2939  -10.6576  -18.2055 O   0  0  0  0  0  0  0  0  0  0  0  0
   17.1523  -10.0172  -17.3320 C   0  0  0  0  0  0  0  0  0  0  0  0
   17.9003  -11.0896  -16.5604 C   0  0  2  0  0  0  0  0  0  0  0  0
   17.0673  -11.8712  -15.7090 N   0  0  0  0  0  0  0  0  0  0  0  0
   18.9312  -10.3940  -15.6944 C   0  0  0  0  0  0  0  0  0  0  0  0
   18.4983  -10.0183  -14.5977 O   0  0  0  0  0  0  0  0  0  0  0  0
   22.6975  -11.6887  -15.2229 C   0  0  0  0  0  0  0  0  0  0  0  0
   22.6619  -10.2238  -15.6024 C   0  0  2  0  0  0  0  0  0  0  0  0
   23.8465   -9.5496  -15.0170 C   0  0  0  0  0  0  0  0  0  0  0  0
   21.3377   -9.5568  -15.4712 C   0  0  2  0  0  0  0  0  0  0  0  0
   20.2227  -10.2122  -16.1176 N   0  0  0  0  0  0  0  0  0  0  0  0
   21.3003   -8.1045  -15.6778 C   0  0  0  0  0  0  0  0  0  0  0  0
   21.4482   -7.6849  -16.8865 O   0  0  0  0  0  0  0  0  0  0  0  0
   21.1177   -7.1137  -14.7151 N   0  0  0  0  0  0  0  0  0  0  0  0
   21.2336   -5.6896  -14.9564 C   0  0  1  0  0  0  0  0  0  0  0  0
   19.8210   -5.1204  -14.7594 C   0  0  0  0  0  0  0  0  0  0  0  0
   19.8060   -3.6652  -15.0389 C   0  0  0  0  0  0  0  0  0  0  0  0
   20.6411   -2.9609  -15.8799 C   0  0  0  0  0  0  0  0  0  0  0  0
   20.3171   -1.6439  -15.8704 N   0  0  0  0  0  0  0  0  0  0  0  0
   19.2805   -1.5251  -15.0246 C   0  0  0  0  0  0  0  0  0  0  0  0
   18.9773   -2.7370  -14.5287 N   0  0  0  0  0  0  0  0  0  0  0  0
   22.2027   -5.0155  -14.1052 C   0  0  0  0  0  0  0  0  0  0  0  0
   22.3802   -5.3836  -12.9264 O   0  0  0  0  0  0  0  0  0  0  0  0
   22.9494   -3.9539  -14.5765 O   0  0  0  0  0  0  0  0  0  0  0  0
  2  1  1  0
  2  3  1  0
  3  4  1  1
  5  3  1  0
  5  6  2  0
  8  7  1  1
  8 10  1  0
  8  9  1  0
 10 11  1  6
 11  5  1  0
 12 10  1  0
 13 12  2  0
 14 12  1  0
 15 22  1  0
 15 14  1  0
 15 16  1  1
 17 18  2  0
 17 16  1  0
 19 18  1  0
 20 21  2  0
 20 19  1  0
 21 17  1  0
 22 24  1  0
 23 22  2  0
M  END
$$$$
