SVH.pdb
     RDKit          3D

 24 24  0  0  1  0  0  0  0  0999 V2000
   27.4041  -34.2205   -6.5890 O   0  0  0  0  0  0  0  0  0  0  0  0
   28.2824  -34.8451   -5.7239 C   0  0  0  0  0  0  0  0  0  0  0  0
   29.3422  -35.5307   -6.5673 C   0  0  2  0  0  0  0  0  0  0  0  0
   28.8391  -36.5979   -7.3659 N   0  0  0  0  0  0  0  0  0  0  0  0
   30.3784  -36.1037   -5.6215 C   0  0  0  0  0  0  0  0  0  0  0  0
   30.1528  -37.2690   -5.2716 O   0  0  0  0  0  0  0  0  0  0  0  0
   34.0814  -33.6974   -4.2909 C   0  0  0  0  0  0  0  0  0  0  0  0
   33.8685  -35.1645   -4.5969 C   0  0  2  0  0  0  0  0  0  0  0  0
   34.4415  -35.4621   -5.9324 C   0  0  0  0  0  0  0  0  0  0  0  0
   32.5166  -35.6991   -4.2774 C   0  0  2  0  0  0  0  0  0  0  0  0
   31.4602  -35.3696   -5.2080 N   0  0  0  0  0  0  0  0  0  0  0  0
   32.0643  -35.5779   -2.8867 C   0  0  0  0  0  0  0  0  0  0  0  0
   31.2657  -34.6040   -2.6175 O   0  0  0  0  0  0  0  0  0  0  0  0
   32.3940  -36.4005   -1.8112 N   0  0  0  0  0  0  0  0  0  0  0  0
   31.8684  -36.2622   -0.4680 C   0  0  1  0  0  0  0  0  0  0  0  0
   30.3866  -36.6545   -0.5612 C   0  0  0  0  0  0  0  0  0  0  0  0
   29.7656  -36.6539    0.7843 C   0  0  0  0  0  0  0  0  0  0  0  0
   29.4268  -35.5618    1.5545 C   0  0  0  0  0  0  0  0  0  0  0  0
   28.8807  -35.9651    2.7287 N   0  0  0  0  0  0  0  0  0  0  0  0
   28.8780  -37.3078    2.6924 C   0  0  0  0  0  0  0  0  0  0  0  0
   29.4085  -37.7166    1.5271 N   0  0  0  0  0  0  0  0  0  0  0  0
   32.5671  -37.0553    0.5324 C   0  0  0  0  0  0  0  0  0  0  0  0
   33.2943  -38.0109    0.1939 O   0  0  0  0  0  0  0  0  0  0  0  0
   32.4450  -36.7736    1.8787 O   0  0  0  0  0  0  0  0  0  0  0  0
  2  1  1  0
  2  3  1  0
  3  4  1  1
  5  3  1  0
  5  6  2  0
  8  7  1  6
  8 10  1  0
  8  9  1  0
 10 11  1  6
 11  5  1  0
 12 10  1  0
 13 12  2  0
 14 12  1  0
 15 22  1  0
 15 14  1  0
 15 16  1  6
 17 18  2  0
 17 16  1  0
 19 18  1  0
 20 21  2  0
 20 19  1  0
 21 17  1  0
 22 24  1  0
 23 22  2  0
M  END
$$$$
