SVH.pdb
     RDKit          3D

 24 24  0  0  1  0  0  0  0  0999 V2000
   28.4951  -18.7822  -16.7127 O   0  0  0  0  0  0  0  0  0  0  0  0
   27.4452  -19.4588  -16.1210 C   0  0  0  0  0  0  0  0  0  0  0  0
   28.0408  -20.5355  -15.2318 C   0  0  2  0  0  0  0  0  0  0  0  0
   28.5970  -21.6321  -15.9514 N   0  0  0  0  0  0  0  0  0  0  0  0
   26.9274  -21.0701  -14.3536 C   0  0  0  0  0  0  0  0  0  0  0  0
   26.3338  -22.0460  -14.8293 O   0  0  0  0  0  0  0  0  0  0  0  0
   27.0958  -21.2275  -10.2527 C   0  0  0  0  0  0  0  0  0  0  0  0
   25.8465  -20.5520  -10.7762 C   0  0  2  0  0  0  0  0  0  0  0  0
   24.7495  -20.7519   -9.7980 C   0  0  0  0  0  0  0  0  0  0  0  0
   25.5511  -20.7735  -12.2182 C   0  0  2  0  0  0  0  0  0  0  0  0
   26.6284  -20.4999  -13.1429 N   0  0  0  0  0  0  0  0  0  0  0  0
   24.2696  -20.2654  -12.7210 C   0  0  0  0  0  0  0  0  0  0  0  0
   24.1825  -18.9948  -12.9125 O   0  0  0  0  0  0  0  0  0  0  0  0
   23.1245  -20.9994  -13.0240 N   0  0  0  0  0  0  0  0  0  0  0  0
   21.8757  -20.4343  -13.4940 C   0  0  1  0  0  0  0  0  0  0  0  0
   21.7690  -20.8383  -14.9716 C   0  0  0  0  0  0  0  0  0  0  0  0
   20.5242  -20.2980  -15.5672 C   0  0  0  0  0  0  0  0  0  0  0  0
   19.5506  -19.5464  -14.9445 C   0  0  0  0  0  0  0  0  0  0  0  0
   18.5607  -19.2403  -15.8197 N   0  0  0  0  0  0  0  0  0  0  0  0
   18.9153  -19.7998  -16.9882 C   0  0  0  0  0  0  0  0  0  0  0  0
   20.0911  -20.4322  -16.8332 N   0  0  0  0  0  0  0  0  0  0  0  0
   20.7056  -20.8590  -12.7400 C   0  0  0  0  0  0  0  0  0  0  0  0
   20.6443  -22.0051  -12.2510 O   0  0  0  0  0  0  0  0  0  0  0  0
   19.6349  -20.0089  -12.5461 O   0  0  0  0  0  0  0  0  0  0  0  0
  2  1  1  0
  2  3  1  0
  3  4  1  6
  5  3  1  0
  5  6  2  0
  8  7  1  1
  8 10  1  0
  8  9  1  0
 10 11  1  6
 11  5  1  0
 12 10  1  0
 13 12  2  0
 14 12  1  0
 15 22  1  0
 15 14  1  0
 15 16  1  6
 17 18  2  0
 17 16  1  0
 19 18  1  0
 20 21  2  0
 20 19  1  0
 21 17  1  0
 22 24  1  0
 23 22  2  0
M  END
$$$$
