ALE.pdb
     RDKit          3D

 23 22  0  0  1  0  0  0  0  0999 V2000
   21.1572  -10.8176  -19.7084 C   0  0  0  0  0  0  0  0  0  0  0  0
   22.3225  -11.5941  -19.1248 C   0  0  2  0  0  0  0  0  0  0  0  0
   21.8247  -12.8920  -18.7590 N   0  0  0  0  0  0  0  0  0  0  0  0
   22.7681  -10.8401  -17.8982 C   0  0  0  0  0  0  0  0  0  0  0  0
   22.0667  -10.8592  -16.8556 O   0  0  0  0  0  0  0  0  0  0  0  0
   28.1704  -10.4025  -16.8372 C   0  0  0  0  0  0  0  0  0  0  0  0
   26.7056  -10.4480  -16.6269 C   0  0  1  0  0  0  0  0  0  0  0  0
   26.3969  -11.0232  -15.2339 C   0  0  0  0  0  0  0  0  0  0  0  0
   25.8989   -9.2511  -16.7909 C   0  0  0  0  0  0  0  0  0  0  0  0
   24.4241   -9.3201  -16.7051 C   0  0  2  0  0  0  0  0  0  0  0  0
   23.9581  -10.1115  -17.8943 N   0  0  0  0  0  0  0  0  0  0  0  0
   23.6907   -8.0636  -16.7599 C   0  0  0  0  0  0  0  0  0  0  0  0
   23.3124   -7.5540  -17.8756 O   0  0  0  0  0  0  0  0  0  0  0  0
   23.3320   -7.3293  -15.6216 N   0  0  0  0  0  0  0  0  0  0  0  0
   22.4858   -6.1175  -15.6740 C   0  0  1  0  0  0  0  0  0  0  0  0
   21.2221   -6.6004  -16.3272 C   0  0  0  0  0  0  0  0  0  0  0  0
   20.1509   -5.6101  -16.4993 C   0  0  0  0  0  0  0  0  0  0  0  0
   18.9076   -6.0552  -17.1245 C   0  0  0  0  0  0  0  0  0  0  0  0
   17.9559   -5.2201  -17.2719 O   0  0  0  0  0  0  0  0  0  0  0  0
   22.3249   -5.4000  -14.4520 C   0  0  0  0  0  0  0  0  0  0  0  0
   22.2531   -5.8833  -13.3085 O   0  0  0  0  0  0  0  0  0  0  0  0
   18.7057   -7.3347  -17.5661 O   0  0  0  0  0  0  0  0  0  0  0  0
   22.2429   -3.9823  -14.4895 O   0  0  0  0  0  0  0  0  0  0  0  0
  2  1  1  1
  3  2  1  0
  4  5  2  0
  4  2  1  0
  7  6  1  1
  7  8  1  0
  7  9  1  0
 10  9  1  6
 10 11  1  0
 11  4  1  0
 12 13  2  0
 12 10  1  0
 14 12  1  0
 15 16  1  1
 15 14  1  0
 17 18  1  0
 17 16  1  0
 18 19  2  0
 20 15  1  0
 21 20  2  0
 22 18  1  0
 23 20  1  0
M  END
$$$$
