ALE.pdb
     RDKit          3D

 23 22  0  0  1  0  0  0  0  0999 V2000
   27.1765  -19.6074  -16.5169 C   0  0  0  0  0  0  0  0  0  0  0  0
   27.8722  -20.6458  -15.6570 C   0  0  2  0  0  0  0  0  0  0  0  0
   28.2524  -21.7271  -16.5245 N   0  0  0  0  0  0  0  0  0  0  0  0
   26.8561  -21.1169  -14.6484 C   0  0  0  0  0  0  0  0  0  0  0  0
   26.0536  -22.0380  -14.9433 O   0  0  0  0  0  0  0  0  0  0  0  0
   24.9307  -21.8911   -9.3720 C   0  0  0  0  0  0  0  0  0  0  0  0
   25.4070  -20.5794   -9.8667 C   0  0  1  0  0  0  0  0  0  0  0  0
   26.1237  -19.8244   -8.7340 C   0  0  0  0  0  0  0  0  0  0  0  0
   26.2519  -20.4978  -11.0455 C   0  0  0  0  0  0  0  0  0  0  0  0
   25.7487  -20.9398  -12.3640 C   0  0  2  0  0  0  0  0  0  0  0  0
   26.7857  -20.5456  -13.3773 N   0  0  0  0  0  0  0  0  0  0  0  0
   24.5007  -20.3559  -12.8344 C   0  0  0  0  0  0  0  0  0  0  0  0
   24.4279  -19.1266  -13.1964 O   0  0  0  0  0  0  0  0  0  0  0  0
   23.3039  -21.0768  -12.9423 N   0  0  0  0  0  0  0  0  0  0  0  0
   22.0178  -20.4567  -13.3280 C   0  0  1  0  0  0  0  0  0  0  0  0
   21.8174  -20.9171  -14.7439 C   0  0  0  0  0  0  0  0  0  0  0  0
   21.4921  -19.8805  -15.7325 C   0  0  0  0  0  0  0  0  0  0  0  0
   21.1122  -20.3163  -17.0744 C   0  0  0  0  0  0  0  0  0  0  0  0
   21.0446  -21.5647  -17.3234 O   0  0  0  0  0  0  0  0  0  0  0  0
   20.9204  -20.6626  -12.4409 C   0  0  0  0  0  0  0  0  0  0  0  0
   20.6864  -21.6829  -11.7697 O   0  0  0  0  0  0  0  0  0  0  0  0
   20.8215  -19.4480  -18.0914 O   0  0  0  0  0  0  0  0  0  0  0  0
   19.9722  -19.6199  -12.2621 O   0  0  0  0  0  0  0  0  0  0  0  0
  2  1  1  6
  3  2  1  0
  4  5  2  0
  4  2  1  0
  7  6  1  1
  7  8  1  0
  7  9  1  0
 10  9  1  1
 10 11  1  0
 11  4  1  0
 12 13  2  0
 12 10  1  0
 14 12  1  0
 15 16  1  6
 15 14  1  0
 17 18  1  0
 17 16  1  0
 18 19  2  0
 20 15  1  0
 21 20  2  0
 22 18  1  0
 23 20  1  0
M  END
$$$$
