ALE.pdb
     RDKit          3D

 23 22  0  0  1  0  0  0  0  0999 V2000
   27.4139  -19.7551  -15.2367 C   0  0  0  0  0  0  0  0  0  0  0  0
   27.8881  -20.7226  -14.1686 C   0  0  2  0  0  0  0  0  0  0  0  0
   28.3335  -21.9114  -14.8428 N   0  0  0  0  0  0  0  0  0  0  0  0
   26.6907  -21.0282  -13.3057 C   0  0  0  0  0  0  0  0  0  0  0  0
   25.9314  -21.9867  -13.5955 O   0  0  0  0  0  0  0  0  0  0  0  0
   26.9177  -19.6350   -7.9131 C   0  0  0  0  0  0  0  0  0  0  0  0
   26.4675  -20.4106   -9.0911 C   0  0  1  0  0  0  0  0  0  0  0  0
   25.9570  -21.7906   -8.6422 C   0  0  0  0  0  0  0  0  0  0  0  0
   25.4821  -19.8593  -10.0051 C   0  0  0  0  0  0  0  0  0  0  0  0
   25.2083  -20.5158  -11.3017 C   0  0  2  0  0  0  0  0  0  0  0  0
   26.4027  -20.2603  -12.1768 N   0  0  0  0  0  0  0  0  0  0  0  0
   24.0591  -20.0446  -12.0613 C   0  0  0  0  0  0  0  0  0  0  0  0
   24.1335  -19.0144  -12.8234 O   0  0  0  0  0  0  0  0  0  0  0  0
   22.8066  -20.6723  -12.0348 N   0  0  0  0  0  0  0  0  0  0  0  0
   21.6705  -20.2474  -12.8810 C   0  0  1  0  0  0  0  0  0  0  0  0
   22.1899  -20.4240  -14.2795 C   0  0  0  0  0  0  0  0  0  0  0  0
   22.3393  -21.8055  -14.7558 C   0  0  0  0  0  0  0  0  0  0  0  0
   22.6443  -22.0076  -16.1704 C   0  0  0  0  0  0  0  0  0  0  0  0
   21.6833  -22.1255  -16.9996 O   0  0  0  0  0  0  0  0  0  0  0  0
   20.4081  -20.8486  -12.6007 C   0  0  0  0  0  0  0  0  0  0  0  0
   20.1890  -21.7912  -11.8197 O   0  0  0  0  0  0  0  0  0  0  0  0
   23.9201  -22.0783  -16.6606 O   0  0  0  0  0  0  0  0  0  0  0  0
   19.2465  -20.3488  -13.2479 O   0  0  0  0  0  0  0  0  0  0  0  0
  2  1  1  6
  3  2  1  0
  4  5  2  0
  4  2  1  0
  7  6  1  1
  7  8  1  0
  7  9  1  0
 10  9  1  1
 10 11  1  0
 11  4  1  0
 12 13  2  0
 12 10  1  0
 14 12  1  0
 15 16  1  6
 15 14  1  0
 17 18  1  0
 17 16  1  0
 18 19  2  0
 20 15  1  0
 21 20  2  0
 22 18  1  0
 23 20  1  0
M  END
$$$$
