ALE.pdb
     RDKit          3D

 23 22  0  0  1  0  0  0  0  0999 V2000
   25.7296  -19.9341  -17.9169 C   0  0  0  0  0  0  0  0  0  0  0  0
   26.9124  -20.4258  -17.1039 C   0  0  2  0  0  0  0  0  0  0  0  0
   27.4796  -21.5395  -17.8139 N   0  0  0  0  0  0  0  0  0  0  0  0
   26.3610  -20.8780  -15.7761 C   0  0  0  0  0  0  0  0  0  0  0  0
   25.6211  -21.8917  -15.7117 O   0  0  0  0  0  0  0  0  0  0  0  0
   29.3616  -20.2122  -11.2833 C   0  0  0  0  0  0  0  0  0  0  0  0
   28.2732  -20.8039  -12.0940 C   0  0  1  0  0  0  0  0  0  0  0  0
   27.9748  -22.2310  -11.6032 C   0  0  0  0  0  0  0  0  0  0  0  0
   27.0004  -20.1178  -12.2339 C   0  0  0  0  0  0  0  0  0  0  0  0
   26.0352  -20.5280  -13.2766 C   0  0  2  0  0  0  0  0  0  0  0  0
   26.6579  -20.1869  -14.6008 N   0  0  0  0  0  0  0  0  0  0  0  0
   24.7332  -19.8764  -13.2773 C   0  0  0  0  0  0  0  0  0  0  0  0
   24.5566  -18.7276  -13.8220 O   0  0  0  0  0  0  0  0  0  0  0  0
   23.5857  -20.4445  -12.7080 N   0  0  0  0  0  0  0  0  0  0  0  0
   22.2175  -19.9590  -12.9898 C   0  0  1  0  0  0  0  0  0  0  0  0
   22.1299  -20.0082  -14.4887 C   0  0  0  0  0  0  0  0  0  0  0  0
   20.8587  -19.5802  -15.0875 C   0  0  0  0  0  0  0  0  0  0  0  0
   20.2404  -20.4633  -16.0738 C   0  0  0  0  0  0  0  0  0  0  0  0
   20.9538  -20.9252  -17.0238 O   0  0  0  0  0  0  0  0  0  0  0  0
   21.1573  -20.5949  -12.2789 C   0  0  0  0  0  0  0  0  0  0  0  0
   20.1081  -20.0638  -11.8744 O   0  0  0  0  0  0  0  0  0  0  0  0
   18.9216  -20.8266  -16.0336 O   0  0  0  0  0  0  0  0  0  0  0  0
   21.2566  -21.9814  -11.9860 O   0  0  0  0  0  0  0  0  0  0  0  0
  2  1  1  6
  3  2  1  0
  4  5  2  0
  4  2  1  0
  7  6  1  1
  7  8  1  0
  7  9  1  0
 10  9  1  1
 10 11  1  0
 11  4  1  0
 12 13  2  0
 12 10  1  0
 14 12  1  0
 15 16  1  6
 15 14  1  0
 17 18  1  0
 17 16  1  0
 18 19  2  0
 20 15  1  0
 21 20  2  0
 22 18  1  0
 23 20  1  0
M  END
$$$$
