ALE.pdb
     RDKit          3D

 23 22  0  0  1  0  0  0  0  0999 V2000
   28.5224  -19.2545  -14.5704 C   0  0  0  0  0  0  0  0  0  0  0  0
   27.1248  -18.6823  -14.4262 C   0  0  2  0  0  0  0  0  0  0  0  0
   27.2115  -17.5820  -13.5052 N   0  0  0  0  0  0  0  0  0  0  0  0
   26.2696  -19.7811  -13.8493 C   0  0  0  0  0  0  0  0  0  0  0  0
   26.1058  -20.8533  -14.4840 O   0  0  0  0  0  0  0  0  0  0  0  0
   26.5014  -20.0506   -8.5500 C   0  0  0  0  0  0  0  0  0  0  0  0
   26.3253  -20.4459   -9.9659 C   0  0  1  0  0  0  0  0  0  0  0  0
   27.1072  -21.7407  -10.2465 C   0  0  0  0  0  0  0  0  0  0  0  0
   24.9952  -20.6118  -10.5259 C   0  0  0  0  0  0  0  0  0  0  0  0
   24.8014  -20.7083  -11.9889 C   0  0  2  0  0  0  0  0  0  0  0  0
   25.6472  -19.6325  -12.6093 N   0  0  0  0  0  0  0  0  0  0  0  0
   23.4561  -20.4924  -12.5017 C   0  0  0  0  0  0  0  0  0  0  0  0
   22.8826  -19.3466  -12.4239 O   0  0  0  0  0  0  0  0  0  0  0  0
   22.6972  -21.4934  -13.1229 N   0  0  0  0  0  0  0  0  0  0  0  0
   21.2967  -21.2961  -13.5551 C   0  0  1  0  0  0  0  0  0  0  0  0
   21.2419  -21.9826  -14.8902 C   0  0  0  0  0  0  0  0  0  0  0  0
   19.9415  -21.9889  -15.5735 C   0  0  0  0  0  0  0  0  0  0  0  0
   19.8637  -22.6368  -16.8809 C   0  0  0  0  0  0  0  0  0  0  0  0
   20.8995  -23.2152  -17.3472 O   0  0  0  0  0  0  0  0  0  0  0  0
   20.2842  -21.6626  -12.6200 C   0  0  0  0  0  0  0  0  0  0  0  0
   20.3840  -22.4962  -11.7027 O   0  0  0  0  0  0  0  0  0  0  0  0
   18.7265  -22.6572  -17.6419 O   0  0  0  0  0  0  0  0  0  0  0  0
   19.0138  -21.0313  -12.6952 O   0  0  0  0  0  0  0  0  0  0  0  0
  2  1  1  1
  3  2  1  0
  4  5  2  0
  4  2  1  0
  7  6  1  1
  7  8  1  0
  7  9  1  0
 10  9  1  1
 10 11  1  0
 11  4  1  0
 12 13  2  0
 12 10  1  0
 14 12  1  0
 15 16  1  6
 15 14  1  0
 17 18  1  0
 17 16  1  0
 18 19  2  0
 20 15  1  0
 21 20  2  0
 22 18  1  0
 23 20  1  0
M  END
$$$$
