ALE.pdb
     RDKit          3D

 23 22  0  0  1  0  0  0  0  0999 V2000
   26.4411  -19.9158  -17.3881 C   0  0  0  0  0  0  0  0  0  0  0  0
   27.2445  -20.7666  -16.4226 C   0  0  2  0  0  0  0  0  0  0  0  0
   27.7769  -21.8703  -17.1740 N   0  0  0  0  0  0  0  0  0  0  0  0
   26.2753  -21.2625  -15.3803 C   0  0  0  0  0  0  0  0  0  0  0  0
   25.5212  -22.2360  -15.6314 O   0  0  0  0  0  0  0  0  0  0  0  0
   24.8964  -22.2918  -10.0314 C   0  0  0  0  0  0  0  0  0  0  0  0
   25.1260  -20.9112  -10.5142 C   0  0  1  0  0  0  0  0  0  0  0  0
   25.8302  -20.0877   -9.4222 C   0  0  0  0  0  0  0  0  0  0  0  0
   25.8327  -20.6734  -11.7609 C   0  0  0  0  0  0  0  0  0  0  0  0
   25.2688  -21.1397  -13.0462 C   0  0  2  0  0  0  0  0  0  0  0  0
   26.1956  -20.6568  -14.1258 N   0  0  0  0  0  0  0  0  0  0  0  0
   23.9488  -20.6489  -13.4156 C   0  0  0  0  0  0  0  0  0  0  0  0
   23.7447  -19.4125  -13.6935 O   0  0  0  0  0  0  0  0  0  0  0  0
   22.8184  -21.4716  -13.5104 N   0  0  0  0  0  0  0  0  0  0  0  0
   21.4533  -20.9482  -13.7334 C   0  0  1  0  0  0  0  0  0  0  0  0
   21.1600  -21.3292  -15.1567 C   0  0  0  0  0  0  0  0  0  0  0  0
   21.8815  -20.5861  -16.1982 C   0  0  0  0  0  0  0  0  0  0  0  0
   21.1188  -19.6414  -17.0113 C   0  0  0  0  0  0  0  0  0  0  0  0
   19.8791  -19.4747  -16.7661 O   0  0  0  0  0  0  0  0  0  0  0  0
   20.4663  -21.3133  -12.7709 C   0  0  0  0  0  0  0  0  0  0  0  0
   20.6023  -22.1193  -11.8338 O   0  0  0  0  0  0  0  0  0  0  0  0
   21.6684  -18.9169  -18.0339 O   0  0  0  0  0  0  0  0  0  0  0  0
   19.1800  -20.7146  -12.8399 O   0  0  0  0  0  0  0  0  0  0  0  0
  2  1  1  6
  3  2  1  0
  4  5  2  0
  4  2  1  0
  7  6  1  1
  7  8  1  0
  7  9  1  0
 10  9  1  1
 10 11  1  0
 11  4  1  0
 12 13  2  0
 12 10  1  0
 14 12  1  0
 15 16  1  6
 15 14  1  0
 17 18  1  0
 17 16  1  0
 18 19  2  0
 20 15  1  0
 21 20  2  0
 22 18  1  0
 23 20  1  0
M  END
$$$$
