ALE.pdb
     RDKit          3D

 23 22  0  0  1  0  0  0  0  0999 V2000
   21.0012   -8.7690  -21.1207 C   0  0  0  0  0  0  0  0  0  0  0  0
   21.8767   -9.9581  -20.7730 C   0  0  2  0  0  0  0  0  0  0  0  0
   21.1168  -11.1426  -21.0663 N   0  0  0  0  0  0  0  0  0  0  0  0
   22.1545   -9.8677  -19.2944 C   0  0  0  0  0  0  0  0  0  0  0  0
   21.2084   -9.9266  -18.4693 O   0  0  0  0  0  0  0  0  0  0  0  0
   25.0252  -10.8483  -14.7234 C   0  0  0  0  0  0  0  0  0  0  0  0
   25.7121  -10.1207  -15.8147 C   0  0  1  0  0  0  0  0  0  0  0  0
   27.1544  -10.6363  -15.9574 C   0  0  0  0  0  0  0  0  0  0  0  0
   25.1347  -10.0717  -17.1467 C   0  0  0  0  0  0  0  0  0  0  0  0
   23.7708   -9.5395  -17.3565 C   0  0  2  0  0  0  0  0  0  0  0  0
   23.4562   -9.7180  -18.8148 N   0  0  0  0  0  0  0  0  0  0  0  0
   23.5535   -8.1267  -17.0797 C   0  0  0  0  0  0  0  0  0  0  0  0
   23.7585   -7.2274  -17.9725 O   0  0  0  0  0  0  0  0  0  0  0  0
   23.0981   -7.6432  -15.8458 N   0  0  0  0  0  0  0  0  0  0  0  0
   22.7520   -6.2247  -15.6105 C   0  0  1  0  0  0  0  0  0  0  0  0
   21.6740   -5.9547  -16.6213 C   0  0  0  0  0  0  0  0  0  0  0  0
   21.0128   -4.6453  -16.5435 C   0  0  0  0  0  0  0  0  0  0  0  0
   19.9537   -4.3601  -17.5088 C   0  0  0  0  0  0  0  0  0  0  0  0
   19.6287   -5.2578  -18.3536 O   0  0  0  0  0  0  0  0  0  0  0  0
   22.4559   -5.8564  -14.2650 C   0  0  0  0  0  0  0  0  0  0  0  0
   21.8777   -6.5527  -13.4123 O   0  0  0  0  0  0  0  0  0  0  0  0
   19.2831   -3.1681  -17.5571 O   0  0  0  0  0  0  0  0  0  0  0  0
   22.8506   -4.5744  -13.7973 O   0  0  0  0  0  0  0  0  0  0  0  0
  2  1  1  1
  3  2  1  0
  4  5  2  0
  4  2  1  0
  7  6  1  1
  7  8  1  0
  7  9  1  0
 10  9  1  6
 10 11  1  0
 11  4  1  0
 12 13  2  0
 12 10  1  0
 14 12  1  0
 15 16  1  6
 15 14  1  0
 17 18  1  0
 17 16  1  0
 18 19  2  0
 20 15  1  0
 21 20  2  0
 22 18  1  0
 23 20  1  0
M  END
$$$$
