ALE.pdb
     RDKit          3D

 23 22  0  0  1  0  0  0  0  0999 V2000
   16.3604   -8.6740  -18.2442 C   0  0  0  0  0  0  0  0  0  0  0  0
   17.2861   -9.8668  -18.0962 C   0  0  2  0  0  0  0  0  0  0  0  0
   16.4624  -11.0071  -17.8006 N   0  0  0  0  0  0  0  0  0  0  0  0
   18.1944   -9.5621  -16.9326 C   0  0  0  0  0  0  0  0  0  0  0  0
   17.7101   -9.1979  -15.8318 O   0  0  0  0  0  0  0  0  0  0  0  0
   23.5706  -11.6687  -14.9776 C   0  0  0  0  0  0  0  0  0  0  0  0
   22.4278  -10.7356  -14.8530 C   0  0  1  0  0  0  0  0  0  0  0  0
   22.9105   -9.3953  -14.2723 C   0  0  0  0  0  0  0  0  0  0  0  0
   21.5919  -10.4350  -16.0023 C   0  0  0  0  0  0  0  0  0  0  0  0
   20.5196   -9.4207  -15.9082 C   0  0  2  0  0  0  0  0  0  0  0  0
   19.5799   -9.6771  -17.0522 N   0  0  0  0  0  0  0  0  0  0  0  0
   20.9082   -8.0227  -16.0271 C   0  0  0  0  0  0  0  0  0  0  0  0
   21.4749   -7.5701  -17.0862 O   0  0  0  0  0  0  0  0  0  0  0  0
   20.6870   -7.0721  -15.0215 N   0  0  0  0  0  0  0  0  0  0  0  0
   21.1762   -5.6788  -15.1035 C   0  0  1  0  0  0  0  0  0  0  0  0
   19.9135   -4.8667  -15.1579 C   0  0  0  0  0  0  0  0  0  0  0  0
   20.0712   -3.4064  -15.1737 C   0  0  0  0  0  0  0  0  0  0  0  0
   18.8583   -2.5918  -15.1929 C   0  0  0  0  0  0  0  0  0  0  0  0
   17.7241   -3.1722  -15.2336 O   0  0  0  0  0  0  0  0  0  0  0  0
   22.1348   -5.2820  -14.1250 C   0  0  0  0  0  0  0  0  0  0  0  0
   22.2608   -5.7418  -12.9765 O   0  0  0  0  0  0  0  0  0  0  0  0
   18.8725   -1.2236  -15.1694 O   0  0  0  0  0  0  0  0  0  0  0  0
   23.0731   -4.2661  -14.4500 O   0  0  0  0  0  0  0  0  0  0  0  0
  2  1  1  1
  3  2  1  0
  4  5  2  0
  4  2  1  0
  7  6  1  6
  7  8  1  0
  7  9  1  0
 10  9  1  6
 10 11  1  0
 11  4  1  0
 12 13  2  0
 12 10  1  0
 14 12  1  0
 15 16  1  1
 15 14  1  0
 17 18  1  0
 17 16  1  0
 18 19  2  0
 20 15  1  0
 21 20  2  0
 22 18  1  0
 23 20  1  0
M  END
$$$$
