ALE.pdb
     RDKit          3D

 23 22  0  0  1  0  0  0  0  0999 V2000
   18.3313  -12.3921  -16.3148 C   0  0  0  0  0  0  0  0  0  0  0  0
   18.7948  -11.1632  -17.0742 C   0  0  2  0  0  0  0  0  0  0  0  0
   19.4436  -11.6254  -18.2707 N   0  0  0  0  0  0  0  0  0  0  0  0
   19.7835  -10.4565  -16.1828 C   0  0  0  0  0  0  0  0  0  0  0  0
   19.4068   -9.9578  -15.0925 O   0  0  0  0  0  0  0  0  0  0  0  0
   25.7883  -11.0349  -15.1045 C   0  0  0  0  0  0  0  0  0  0  0  0
   24.5931  -10.1620  -15.0632 C   0  0  1  0  0  0  0  0  0  0  0  0
   24.9639   -8.7479  -15.5422 C   0  0  0  0  0  0  0  0  0  0  0  0
   23.3735  -10.5478  -15.7516 C   0  0  0  0  0  0  0  0  0  0  0  0
   22.1587   -9.7097  -15.6566 C   0  0  2  0  0  0  0  0  0  0  0  0
   21.1259  -10.3423  -16.5459 N   0  0  0  0  0  0  0  0  0  0  0  0
   22.2628   -8.3270  -16.1005 C   0  0  0  0  0  0  0  0  0  0  0  0
   22.8212   -8.0187  -17.2144 O   0  0  0  0  0  0  0  0  0  0  0  0
   21.7594   -7.2421  -15.3702 N   0  0  0  0  0  0  0  0  0  0  0  0
   21.9103   -5.8359  -15.8027 C   0  0  1  0  0  0  0  0  0  0  0  0
   20.5222   -5.4487  -16.2269 C   0  0  0  0  0  0  0  0  0  0  0  0
   19.6400   -4.9145  -15.1809 C   0  0  0  0  0  0  0  0  0  0  0  0
   18.2985   -4.4896  -15.5747 C   0  0  0  0  0  0  0  0  0  0  0  0
   17.9928   -4.4746  -16.8122 O   0  0  0  0  0  0  0  0  0  0  0  0
   22.5544   -4.9536  -14.8859 C   0  0  0  0  0  0  0  0  0  0  0  0
   22.9318   -3.7904  -15.1119 O   0  0  0  0  0  0  0  0  0  0  0  0
   17.3404   -4.1021  -14.6777 O   0  0  0  0  0  0  0  0  0  0  0  0
   22.8051   -5.3982  -13.5602 O   0  0  0  0  0  0  0  0  0  0  0  0
  2  1  1  1
  3  2  1  0
  4  5  2  0
  4  2  1  0
  7  6  1  6
  7  8  1  0
  7  9  1  0
 10  9  1  6
 10 11  1  0
 11  4  1  0
 12 13  2  0
 12 10  1  0
 14 12  1  0
 15 16  1  1
 15 14  1  0
 17 18  1  0
 17 16  1  0
 18 19  2  0
 20 15  1  0
 21 20  2  0
 22 18  1  0
 23 20  1  0
M  END
$$$$
