ALE.pdb
     RDKit          3D

 23 22  0  0  1  0  0  0  0  0999 V2000
   26.2367  -17.4445  -15.8126 C   0  0  0  0  0  0  0  0  0  0  0  0
   27.0597  -18.3882  -14.9560 C   0  0  2  0  0  0  0  0  0  0  0  0
   28.0691  -18.9587  -15.8058 N   0  0  0  0  0  0  0  0  0  0  0  0
   26.1167  -19.4598  -14.4721 C   0  0  0  0  0  0  0  0  0  0  0  0
   25.8630  -20.4531  -15.1988 O   0  0  0  0  0  0  0  0  0  0  0  0
   26.2875  -20.6498   -9.0903 C   0  0  0  0  0  0  0  0  0  0  0  0
   26.1140  -20.7413  -10.5578 C   0  0  1  0  0  0  0  0  0  0  0  0
   26.5113  -22.1461  -11.0427 C   0  0  0  0  0  0  0  0  0  0  0  0
   24.8388  -20.4144  -11.1719 C   0  0  0  0  0  0  0  0  0  0  0  0
   24.6728  -20.4773  -12.6402 C   0  0  2  0  0  0  0  0  0  0  0  0
   25.5110  -19.3723  -13.2181 N   0  0  0  0  0  0  0  0  0  0  0  0
   23.3332  -20.2709  -13.1719 C   0  0  0  0  0  0  0  0  0  0  0  0
   22.7172  -19.1540  -13.0277 O   0  0  0  0  0  0  0  0  0  0  0  0
   22.6261  -21.2497  -13.8830 N   0  0  0  0  0  0  0  0  0  0  0  0
   21.2281  -21.0720  -14.3318 C   0  0  1  0  0  0  0  0  0  0  0  0
   21.2362  -21.6221  -15.7297 C   0  0  0  0  0  0  0  0  0  0  0  0
   22.2174  -21.0446  -16.6579 C   0  0  0  0  0  0  0  0  0  0  0  0
   22.1864  -21.4960  -18.0473 C   0  0  0  0  0  0  0  0  0  0  0  0
   21.3327  -22.3776  -18.3923 O   0  0  0  0  0  0  0  0  0  0  0  0
   20.2128  -21.5754  -13.4661 C   0  0  0  0  0  0  0  0  0  0  0  0
   20.3748  -22.3115  -12.4771 O   0  0  0  0  0  0  0  0  0  0  0  0
   23.0334  -21.0189  -19.0105 O   0  0  0  0  0  0  0  0  0  0  0  0
   18.8591  -21.2199  -13.7099 O   0  0  0  0  0  0  0  0  0  0  0  0
  2  1  1  6
  3  2  1  0
  4  5  2  0
  4  2  1  0
  7  6  1  1
  7  8  1  0
  7  9  1  0
 10  9  1  1
 10 11  1  0
 11  4  1  0
 12 13  2  0
 12 10  1  0
 14 12  1  0
 15 16  1  6
 15 14  1  0
 17 18  1  0
 17 16  1  0
 18 19  2  0
 20 15  1  0
 21 20  2  0
 22 18  1  0
 23 20  1  0
M  END
$$$$
