ALE.pdb
     RDKit          3D

 23 22  0  0  1  0  0  0  0  0999 V2000
   21.9334  -37.2493   -5.2220 C   0  0  0  0  0  0  0  0  0  0  0  0
   22.3225  -36.6317   -6.5519 C   0  0  2  0  0  0  0  0  0  0  0  0
   22.4297  -37.7056   -7.5014 N   0  0  0  0  0  0  0  0  0  0  0  0
   23.6660  -35.9806   -6.3449 C   0  0  0  0  0  0  0  0  0  0  0  0
   24.6843  -36.6864   -6.1350 O   0  0  0  0  0  0  0  0  0  0  0  0
   24.7037  -31.1894   -8.8785 C   0  0  0  0  0  0  0  0  0  0  0  0
   24.9412  -32.4937   -8.2195 C   0  0  1  0  0  0  0  0  0  0  0  0
   26.1988  -33.1544   -8.8099 C   0  0  0  0  0  0  0  0  0  0  0  0
   25.0426  -32.5821   -6.7731 C   0  0  0  0  0  0  0  0  0  0  0  0
   25.1092  -33.8986   -6.1025 C   0  0  2  0  0  0  0  0  0  0  0  0
   23.8062  -34.5928   -6.3817 N   0  0  0  0  0  0  0  0  0  0  0  0
   25.2534  -33.9056   -4.6538 C   0  0  0  0  0  0  0  0  0  0  0  0
   24.2561  -33.6799   -3.8778 O   0  0  0  0  0  0  0  0  0  0  0  0
   26.4647  -34.1682   -4.0001 N   0  0  0  0  0  0  0  0  0  0  0  0
   26.5694  -34.3627   -2.5378 C   0  0  1  0  0  0  0  0  0  0  0  0
   25.4966  -35.3715   -2.2407 C   0  0  0  0  0  0  0  0  0  0  0  0
   25.3736  -35.8084   -0.8437 C   0  0  0  0  0  0  0  0  0  0  0  0
   24.4230  -36.8777   -0.5470 C   0  0  0  0  0  0  0  0  0  0  0  0
   24.8144  -38.0890   -0.6128 O   0  0  0  0  0  0  0  0  0  0  0  0
   27.8672  -34.6591   -2.0263 C   0  0  0  0  0  0  0  0  0  0  0  0
   28.2967  -34.3990   -0.8886 O   0  0  0  0  0  0  0  0  0  0  0  0
   23.1198  -36.6480   -0.1983 O   0  0  0  0  0  0  0  0  0  0  0  0
   28.8014  -35.3298   -2.8603 O   0  0  0  0  0  0  0  0  0  0  0  0
  2  1  1  1
  3  2  1  0
  4  5  2  0
  4  2  1  0
  7  6  1  1
  7  8  1  0
  7  9  1  0
 10  9  1  1
 10 11  1  0
 11  4  1  0
 12 13  2  0
 12 10  1  0
 14 12  1  0
 15 16  1  6
 15 14  1  0
 17 18  1  0
 17 16  1  0
 18 19  2  0
 20 15  1  0
 21 20  2  0
 22 18  1  0
 23 20  1  0
M  END
$$$$
