ALE.pdb
     RDKit          3D

 23 22  0  0  1  0  0  0  0  0999 V2000
   19.8295  -11.5112  -19.6862 C   0  0  0  0  0  0  0  0  0  0  0  0
   20.6014  -10.2075  -19.7646 C   0  0  2  0  0  0  0  0  0  0  0  0
   21.9062  -10.5192  -20.2810 N   0  0  0  0  0  0  0  0  0  0  0  0
   20.7077   -9.6873  -18.3540 C   0  0  0  0  0  0  0  0  0  0  0  0
   19.6701   -9.3890  -17.7110 O   0  0  0  0  0  0  0  0  0  0  0  0
   24.3431  -11.6519  -14.7280 C   0  0  0  0  0  0  0  0  0  0  0  0
   23.1604  -10.9519  -15.2787 C   0  0  1  0  0  0  0  0  0  0  0  0
   22.0022  -11.0118  -14.2680 C   0  0  0  0  0  0  0  0  0  0  0  0
   23.2641   -9.5782  -15.7394 C   0  0  0  0  0  0  0  0  0  0  0  0
   22.1096   -8.9095  -16.3778 C   0  0  2  0  0  0  0  0  0  0  0  0
   21.9494   -9.5275  -17.7379 N   0  0  0  0  0  0  0  0  0  0  0  0
   22.2104   -7.4757  -16.6092 C   0  0  0  0  0  0  0  0  0  0  0  0
   22.6462   -7.0029  -17.7202 O   0  0  0  0  0  0  0  0  0  0  0  0
   21.8340   -6.5130  -15.6631 N   0  0  0  0  0  0  0  0  0  0  0  0
   21.7929   -5.0638  -15.9556 C   0  0  1  0  0  0  0  0  0  0  0  0
   20.8140   -4.9630  -17.0907 C   0  0  0  0  0  0  0  0  0  0  0  0
   20.5030   -3.6106  -17.5725 C   0  0  0  0  0  0  0  0  0  0  0  0
   19.4875   -3.4771  -18.6146 C   0  0  0  0  0  0  0  0  0  0  0  0
   18.9547   -2.3368  -18.8165 O   0  0  0  0  0  0  0  0  0  0  0  0
   21.5590   -4.1971  -14.8475 C   0  0  0  0  0  0  0  0  0  0  0  0
   20.8798   -4.4475  -13.8364 O   0  0  0  0  0  0  0  0  0  0  0  0
   19.0716   -4.5212  -19.3955 O   0  0  0  0  0  0  0  0  0  0  0  0
   22.1494   -2.9050  -14.8451 O   0  0  0  0  0  0  0  0  0  0  0  0
  2  1  1  1
  3  2  1  0
  4  5  2  0
  4  2  1  0
  7  6  1  1
  7  8  1  0
  7  9  1  0
 10  9  1  6
 10 11  1  0
 11  4  1  0
 12 13  2  0
 12 10  1  0
 14 12  1  0
 15 16  1  6
 15 14  1  0
 17 18  1  0
 17 16  1  0
 18 19  2  0
 20 15  1  0
 21 20  2  0
 22 18  1  0
 23 20  1  0
M  END
$$$$
