ALE.pdb
     RDKit          3D

 23 22  0  0  1  0  0  0  0  0999 V2000
   21.5465  -21.0412   -7.0336 C   0  0  0  0  0  0  0  0  0  0  0  0
   21.9857  -21.4829   -8.4169 C   0  0  2  0  0  0  0  0  0  0  0  0
   22.5241  -22.8093   -8.2860 N   0  0  0  0  0  0  0  0  0  0  0  0
   23.0625  -20.5219   -8.8515 C   0  0  0  0  0  0  0  0  0  0  0  0
   22.7984  -19.3022   -8.9993 O   0  0  0  0  0  0  0  0  0  0  0  0
   28.2666  -20.7598   -6.8638 C   0  0  0  0  0  0  0  0  0  0  0  0
   27.0459  -20.2130   -7.4985 C   0  0  1  0  0  0  0  0  0  0  0  0
   27.0477  -18.6781   -7.3949 C   0  0  0  0  0  0  0  0  0  0  0  0
   26.7104  -20.5553   -8.8697 C   0  0  0  0  0  0  0  0  0  0  0  0
   25.4757  -20.0338   -9.4950 C   0  0  2  0  0  0  0  0  0  0  0  0
   24.3636  -20.9624   -9.0967 N   0  0  0  0  0  0  0  0  0  0  0  0
   25.4346  -19.9757  -10.9491 C   0  0  0  0  0  0  0  0  0  0  0  0
   26.4897  -19.7447  -11.6429 O   0  0  0  0  0  0  0  0  0  0  0  0
   24.2667  -20.1773  -11.6967 N   0  0  0  0  0  0  0  0  0  0  0  0
   24.2719  -20.4235  -13.1550 C   0  0  1  0  0  0  0  0  0  0  0  0
   25.1876  -21.6046  -13.3078 C   0  0  0  0  0  0  0  0  0  0  0  0
   25.4367  -22.0705  -14.6784 C   0  0  0  0  0  0  0  0  0  0  0  0
   25.2298  -23.4888  -14.9624 C   0  0  0  0  0  0  0  0  0  0  0  0
   25.2139  -24.3176  -13.9940 O   0  0  0  0  0  0  0  0  0  0  0  0
   22.9981  -20.5324  -13.7869 C   0  0  0  0  0  0  0  0  0  0  0  0
   21.9203  -20.8316  -13.2435 O   0  0  0  0  0  0  0  0  0  0  0  0
   25.0501  -23.9828  -16.2259 O   0  0  0  0  0  0  0  0  0  0  0  0
   22.8937  -20.2720  -15.1795 O   0  0  0  0  0  0  0  0  0  0  0  0
  2  1  1  1
  3  2  1  0
  4  5  2  0
  4  2  1  0
  7  6  1  6
  7  8  1  0
  7  9  1  0
 10  9  1  6
 10 11  1  0
 11  4  1  0
 12 13  2  0
 12 10  1  0
 14 12  1  0
 15 16  1  1
 15 14  1  0
 17 18  1  0
 17 16  1  0
 18 19  2  0
 20 15  1  0
 21 20  2  0
 22 18  1  0
 23 20  1  0
M  END
$$$$
