ALE.pdb
     RDKit          3D

 23 22  0  0  1  0  0  0  0  0999 V2000
   19.7425  -13.6068  -17.0222 C   0  0  0  0  0  0  0  0  0  0  0  0
   20.0164  -12.2317  -17.6016 C   0  0  2  0  0  0  0  0  0  0  0  0
   20.6841  -12.4284  -18.8594 N   0  0  0  0  0  0  0  0  0  0  0  0
   20.9298  -11.5313  -16.6286 C   0  0  0  0  0  0  0  0  0  0  0  0
   20.4869  -11.1308  -15.5228 O   0  0  0  0  0  0  0  0  0  0  0  0
   27.0337  -11.2757  -15.6911 C   0  0  0  0  0  0  0  0  0  0  0  0
   25.6919  -10.6921  -15.4652 C   0  0  1  0  0  0  0  0  0  0  0  0
   25.7823   -9.1565  -15.4807 C   0  0  0  0  0  0  0  0  0  0  0  0
   24.5714  -11.0698  -16.3089 C   0  0  0  0  0  0  0  0  0  0  0  0
   23.2080  -10.5786  -16.0135 C   0  0  2  0  0  0  0  0  0  0  0  0
   22.2744  -11.3147  -16.9323 N   0  0  0  0  0  0  0  0  0  0  0  0
   22.9426   -9.1647  -16.2372 C   0  0  0  0  0  0  0  0  0  0  0  0
   23.2249   -8.5958  -17.3527 O   0  0  0  0  0  0  0  0  0  0  0  0
   22.3558   -8.3285  -15.2779 N   0  0  0  0  0  0  0  0  0  0  0  0
   22.0916   -6.8920  -15.5097 C   0  0  1  0  0  0  0  0  0  0  0  0
   20.6143   -6.8462  -15.7784 C   0  0  0  0  0  0  0  0  0  0  0  0
   20.0360   -5.5234  -16.0497 C   0  0  0  0  0  0  0  0  0  0  0  0
   18.6111   -5.4564  -16.3660 C   0  0  0  0  0  0  0  0  0  0  0  0
   17.9276   -6.5324  -16.3726 O   0  0  0  0  0  0  0  0  0  0  0  0
   22.5768   -5.9875  -14.5196 C   0  0  0  0  0  0  0  0  0  0  0  0
   22.7051   -6.2132  -13.3035 O   0  0  0  0  0  0  0  0  0  0  0  0
   17.9615   -4.2881  -16.6594 O   0  0  0  0  0  0  0  0  0  0  0  0
   22.9782   -4.6830  -14.9136 O   0  0  0  0  0  0  0  0  0  0  0  0
  2  1  1  1
  3  2  1  0
  4  5  2  0
  4  2  1  0
  7  6  1  6
  7  8  1  0
  7  9  1  0
 10  9  1  6
 10 11  1  0
 11  4  1  0
 12 13  2  0
 12 10  1  0
 14 12  1  0
 15 16  1  1
 15 14  1  0
 17 18  1  0
 17 16  1  0
 18 19  2  0
 20 15  1  0
 21 20  2  0
 22 18  1  0
 23 20  1  0
M  END
$$$$
