VWG.pdb
     RDKit          3D

 26 27  0  0  1  0  0  0  0  0999 V2000
   24.6943  -19.4307  -14.6454 C   0  0  0  0  0  0  0  0  0  0  0  0
   24.5613  -20.1524  -13.3281 C   0  0  1  0  0  0  0  0  0  0  0  0
   23.6136  -21.3146  -13.3784 C   0  0  0  0  0  0  0  0  0  0  0  0
   25.9149  -20.5042  -12.7928 C   0  0  2  0  0  0  0  0  0  0  0  0
   26.6370  -21.4605  -13.5787 N   0  0  0  0  0  0  0  0  0  0  0  0
   25.7464  -21.0393  -11.4128 C   0  0  0  0  0  0  0  0  0  0  0  0
   25.8128  -22.2724  -11.1716 O   0  0  0  0  0  0  0  0  0  0  0  0
   25.5052  -20.1756  -10.3249 N   0  0  0  0  0  0  0  0  0  0  0  0
   25.2660  -20.6242   -8.9678 C   0  0  1  0  0  0  0  0  0  0  0  0
   25.9421  -19.6549   -8.0336 C   0  0  0  0  0  0  0  0  0  0  0  0
   27.3249  -20.0816   -7.6954 C   0  0  0  0  0  0  0  0  0  0  0  0
   28.1361  -20.8424   -8.5088 C   0  0  0  0  0  0  0  0  0  0  0  0
   29.3261  -21.0353   -7.8761 N   0  0  0  0  0  0  0  0  0  0  0  0
   29.3200  -20.4301   -6.6842 C   0  0  0  0  0  0  0  0  0  0  0  0
   30.2172  -20.2859   -5.6364 C   0  0  0  0  0  0  0  0  0  0  0  0
   29.9036  -19.5780   -4.5052 C   0  0  0  0  0  0  0  0  0  0  0  0
   28.6646  -18.9790   -4.3762 C   0  0  0  0  0  0  0  0  0  0  0  0
   27.7741  -19.1229   -5.4176 C   0  0  0  0  0  0  0  0  0  0  0  0
   28.0664  -19.8292   -6.5638 C   0  0  0  0  0  0  0  0  0  0  0  0
   23.8089  -20.7010   -8.7759 C   0  0  0  0  0  0  0  0  0  0  0  0
   23.1417  -19.6495   -8.9527 O   0  0  0  0  0  0  0  0  0  0  0  0
   23.1263  -21.8878   -8.4058 N   0  0  0  0  0  0  0  0  0  0  0  0
   22.0517  -21.9512   -7.4692 C   0  0  0  0  0  0  0  0  0  0  0  0
   20.9042  -22.6506   -8.0821 C   0  0  0  0  0  0  0  0  0  0  0  0
   19.7755  -22.8756   -7.3122 O   0  0  0  0  0  0  0  0  0  0  0  0
   20.8903  -23.0530   -9.2589 O   0  0  0  0  0  0  0  0  0  0  0  0
  2  1  1  6
  2  4  1  0
  3  2  1  0
  4  5  1  6
  6  8  1  0
  6  4  1  0
  7  6  2  0
  9  8  1  0
 10 11  1  0
  9 10  1  1
 11 12  2  0
 11 19  1  0
 12 13  1  0
 13 14  1  0
 14 15  2  0
 15 16  1  0
 17 16  2  0
 18 17  1  0
 19 18  2  0
 19 14  1  0
 20  9  1  0
 20 22  1  0
 21 20  2  0
 23 22  1  0
 24 23  1  0
 25 24  1  0
 26 24  2  0
M  END
$$$$
