VWG.pdb
     RDKit          3D

 26 27  0  0  1  0  0  0  0  0999 V2000
   15.3182  -28.0678   -1.0108 C   0  0  0  0  0  0  0  0  0  0  0  0
   15.8926  -26.9208   -0.2181 C   0  0  1  0  0  0  0  0  0  0  0  0
   16.7650  -26.0115   -1.0326 C   0  0  0  0  0  0  0  0  0  0  0  0
   14.8030  -26.2056    0.5193 C   0  0  2  0  0  0  0  0  0  0  0  0
   13.8440  -25.5514   -0.3209 N   0  0  0  0  0  0  0  0  0  0  0  0
   15.4315  -25.1950    1.4154 C   0  0  0  0  0  0  0  0  0  0  0  0
   16.3773  -25.4972    2.1881 O   0  0  0  0  0  0  0  0  0  0  0  0
   14.9836  -23.8583    1.4269 N   0  0  0  0  0  0  0  0  0  0  0  0
   15.4353  -22.8572    2.3725 C   0  0  1  0  0  0  0  0  0  0  0  0
   15.4598  -21.5281    1.6637 C   0  0  0  0  0  0  0  0  0  0  0  0
   15.8629  -20.4221    2.5707 C   0  0  0  0  0  0  0  0  0  0  0  0
   16.9043  -20.4808    3.4709 C   0  0  0  0  0  0  0  0  0  0  0  0
   16.9796  -19.2893    4.1253 N   0  0  0  0  0  0  0  0  0  0  0  0
   16.0285  -18.4591    3.6859 C   0  0  0  0  0  0  0  0  0  0  0  0
   15.6313  -17.1609    3.9701 C   0  0  0  0  0  0  0  0  0  0  0  0
   14.5791  -16.5664    3.3232 C   0  0  0  0  0  0  0  0  0  0  0  0
   13.8740  -17.2558    2.3546 C   0  0  0  0  0  0  0  0  0  0  0  0
   14.2693  -18.5452    2.0731 C   0  0  0  0  0  0  0  0  0  0  0  0
   15.3232  -19.1636    2.7096 C   0  0  0  0  0  0  0  0  0  0  0  0
   14.5192  -22.8889    3.5238 C   0  0  0  0  0  0  0  0  0  0  0  0
   13.2844  -22.9141    3.2854 O   0  0  0  0  0  0  0  0  0  0  0  0
   14.9534  -22.8922    4.8739 N   0  0  0  0  0  0  0  0  0  0  0  0
   14.0876  -22.8917    6.0081 C   0  0  0  0  0  0  0  0  0  0  0  0
   14.3263  -21.6745    6.8101 C   0  0  0  0  0  0  0  0  0  0  0  0
   13.2386  -21.0195    7.3625 O   0  0  0  0  0  0  0  0  0  0  0  0
   15.4557  -21.1982    7.0212 O   0  0  0  0  0  0  0  0  0  0  0  0
  2  1  1  6
  2  4  1  0
  3  2  1  0
  4  5  1  6
  6  8  1  0
  6  4  1  0
  7  6  2  0
  9  8  1  0
 10 11  1  0
  9 10  1  6
 11 12  2  0
 11 19  1  0
 12 13  1  0
 13 14  1  0
 14 15  2  0
 15 16  1  0
 17 16  2  0
 18 17  1  0
 19 18  2  0
 19 14  1  0
 20  9  1  0
 20 22  1  0
 21 20  2  0
 23 22  1  0
 24 23  1  0
 25 24  1  0
 26 24  2  0
M  END
$$$$
