VWG.pdb
     RDKit          3D

 26 27  0  0  1  0  0  0  0  0999 V2000
   14.0828  -19.7972    3.8036 C   0  0  0  0  0  0  0  0  0  0  0  0
   14.2069  -20.9300    2.8160 C   0  0  1  0  0  0  0  0  0  0  0  0
   12.8875  -21.5312    2.4300 C   0  0  0  0  0  0  0  0  0  0  0  0
   15.0389  -20.5059    1.6454 C   0  0  2  0  0  0  0  0  0  0  0  0
   15.1539  -21.4882    0.6083 N   0  0  0  0  0  0  0  0  0  0  0  0
   16.4012  -20.1629    2.1411 C   0  0  0  0  0  0  0  0  0  0  0  0
   17.2492  -21.0535    2.4070 O   0  0  0  0  0  0  0  0  0  0  0  0
   16.7870  -18.8201    2.3297 N   0  0  0  0  0  0  0  0  0  0  0  0
   18.0959  -18.4076    2.7955 C   0  0  1  0  0  0  0  0  0  0  0  0
   18.6345  -17.3910    1.8229 C   0  0  0  0  0  0  0  0  0  0  0  0
   19.4944  -18.0164    0.7848 C   0  0  0  0  0  0  0  0  0  0  0  0
   19.1058  -19.0444   -0.0462 C   0  0  0  0  0  0  0  0  0  0  0  0
   20.1473  -19.3574   -0.8652 N   0  0  0  0  0  0  0  0  0  0  0  0
   21.1970  -18.5736   -0.5993 C   0  0  0  0  0  0  0  0  0  0  0  0
   22.4861  -18.4350   -1.0920 C   0  0  0  0  0  0  0  0  0  0  0  0
   23.3573  -17.5022   -0.5920 C   0  0  0  0  0  0  0  0  0  0  0  0
   22.9682  -16.6608    0.4334 C   0  0  0  0  0  0  0  0  0  0  0  0
   21.6875  -16.7993    0.9221 C   0  0  0  0  0  0  0  0  0  0  0  0
   20.7945  -17.7289    0.4360 C   0  0  0  0  0  0  0  0  0  0  0  0
   17.9360  -17.8825    4.1610 C   0  0  0  0  0  0  0  0  0  0  0  0
   17.2425  -16.8436    4.3083 O   0  0  0  0  0  0  0  0  0  0  0  0
   18.5180  -18.4822    5.3069 N   0  0  0  0  0  0  0  0  0  0  0  0
   18.5710  -17.8842    6.6013 C   0  0  0  0  0  0  0  0  0  0  0  0
   17.2983  -18.1286    7.3098 C   0  0  0  0  0  0  0  0  0  0  0  0
   17.1262  -17.5859    8.5720 O   0  0  0  0  0  0  0  0  0  0  0  0
   16.3632  -18.7984    6.8366 O   0  0  0  0  0  0  0  0  0  0  0  0
  2  1  1  1
  2  4  1  0
  3  2  1  0
  4  5  1  6
  6  8  1  0
  6  4  1  0
  7  6  2  0
  9  8  1  0
 10 11  1  0
  9 10  1  6
 11 12  2  0
 11 19  1  0
 12 13  1  0
 13 14  1  0
 14 15  2  0
 15 16  1  0
 17 16  2  0
 18 17  1  0
 19 18  2  0
 19 14  1  0
 20  9  1  0
 20 22  1  0
 21 20  2  0
 23 22  1  0
 24 23  1  0
 25 24  1  0
 26 24  2  0
M  END
$$$$
