VWG.pdb
     RDKit          3D

 26 27  0  0  1  0  0  0  0  0999 V2000
   20.1348  -20.1511  -12.8676 C   0  0  0  0  0  0  0  0  0  0  0  0
   21.5541  -20.2469  -12.3672 C   0  0  1  0  0  0  0  0  0  0  0  0
   21.6812  -21.0019  -11.0768 C   0  0  0  0  0  0  0  0  0  0  0  0
   22.4511  -20.7572  -13.4523 C   0  0  2  0  0  0  0  0  0  0  0  0
   22.3785  -22.1718  -13.6702 N   0  0  0  0  0  0  0  0  0  0  0  0
   23.8537  -20.3911  -13.1090 C   0  0  0  0  0  0  0  0  0  0  0  0
   24.2035  -19.1920  -12.9581 O   0  0  0  0  0  0  0  0  0  0  0  0
   24.8413  -21.3831  -12.9410 N   0  0  0  0  0  0  0  0  0  0  0  0
   26.2468  -21.1032  -12.7253 C   0  0  1  0  0  0  0  0  0  0  0  0
   26.6933  -21.8800  -11.5142 C   0  0  0  0  0  0  0  0  0  0  0  0
   26.4442  -21.1345  -10.2530 C   0  0  0  0  0  0  0  0  0  0  0  0
   25.2326  -20.5918   -9.8844 C   0  0  0  0  0  0  0  0  0  0  0  0
   25.3787  -19.9877   -8.6730 N   0  0  0  0  0  0  0  0  0  0  0  0
   26.6368  -20.1165   -8.2403 C   0  0  0  0  0  0  0  0  0  0  0  0
   27.3485  -19.7220   -7.1171 C   0  0  0  0  0  0  0  0  0  0  0  0
   28.6775  -20.0186   -6.9594 C   0  0  0  0  0  0  0  0  0  0  0  0
   29.3553  -20.7304   -7.9313 C   0  0  0  0  0  0  0  0  0  0  0  0
   28.6475  -21.1217   -9.0467 C   0  0  0  0  0  0  0  0  0  0  0  0
   27.3119  -20.8355   -9.2274 C   0  0  0  0  0  0  0  0  0  0  0  0
   26.9667  -21.4725  -13.9546 C   0  0  0  0  0  0  0  0  0  0  0  0
   27.2415  -22.6879  -14.1261 O   0  0  0  0  0  0  0  0  0  0  0  0
   27.3620  -20.5375  -14.9450 N   0  0  0  0  0  0  0  0  0  0  0  0
   28.0735  -20.8657  -16.1375 C   0  0  0  0  0  0  0  0  0  0  0  0
   28.1556  -19.6742  -17.0064 C   0  0  0  0  0  0  0  0  0  0  0  0
   27.1125  -19.4161  -17.8797 O   0  0  0  0  0  0  0  0  0  0  0  0
   29.1138  -18.8812  -17.0007 O   0  0  0  0  0  0  0  0  0  0  0  0
  2  1  1  6
  2  4  1  0
  3  2  1  0
  4  5  1  1
  6  8  1  0
  6  4  1  0
  7  6  2  0
  9  8  1  0
 10 11  1  0
  9 10  1  1
 11 12  2  0
 11 19  1  0
 12 13  1  0
 13 14  1  0
 14 15  2  0
 15 16  1  0
 17 16  2  0
 18 17  1  0
 19 18  2  0
 19 14  1  0
 20  9  1  0
 20 22  1  0
 21 20  2  0
 23 22  1  0
 24 23  1  0
 25 24  1  0
 26 24  2  0
M  END
$$$$
