VWG.pdb
     RDKit          3D

 26 27  0  0  1  0  0  0  0  0999 V2000
   28.0236  -17.8501  -15.3564 C   0  0  0  0  0  0  0  0  0  0  0  0
   27.0563  -18.7406  -14.6178 C   0  0  1  0  0  0  0  0  0  0  0  0
   25.8188  -19.0581  -15.4046 C   0  0  0  0  0  0  0  0  0  0  0  0
   27.7645  -19.9530  -14.0973 C   0  0  2  0  0  0  0  0  0  0  0  0
   28.2142  -20.8617  -15.1101 N   0  0  0  0  0  0  0  0  0  0  0  0
   26.8417  -20.6727  -13.1756 C   0  0  0  0  0  0  0  0  0  0  0  0
   26.3766  -21.8063  -13.4615 O   0  0  0  0  0  0  0  0  0  0  0  0
   26.4567  -20.1031  -11.9448 N   0  0  0  0  0  0  0  0  0  0  0  0
   25.5713  -20.7441  -10.9933 C   0  0  1  0  0  0  0  0  0  0  0  0
   25.8422  -20.1504   -9.6356 C   0  0  0  0  0  0  0  0  0  0  0  0
   27.1632  -20.5696   -9.0993 C   0  0  0  0  0  0  0  0  0  0  0  0
   28.0529  -21.3950   -9.7517 C   0  0  0  0  0  0  0  0  0  0  0  0
   29.1511  -21.5580   -8.9637 N   0  0  0  0  0  0  0  0  0  0  0  0
   29.0100  -20.8715   -7.8255 C   0  0  0  0  0  0  0  0  0  0  0  0
   29.7734  -20.6660   -6.6859 C   0  0  0  0  0  0  0  0  0  0  0  0
   29.3369  -19.8774   -5.6530 C   0  0  0  0  0  0  0  0  0  0  0  0
   28.1042  -19.2556   -5.7205 C   0  0  0  0  0  0  0  0  0  0  0  0
   27.3467  -19.4605   -6.8529 C   0  0  0  0  0  0  0  0  0  0  0  0
   27.7640  -20.2483   -7.9034 C   0  0  0  0  0  0  0  0  0  0  0  0
   24.1914  -20.5326  -11.4589 C   0  0  0  0  0  0  0  0  0  0  0  0
   23.8757  -19.3762  -11.8401 O   0  0  0  0  0  0  0  0  0  0  0  0
   23.2098  -21.5556  -11.4992 N   0  0  0  0  0  0  0  0  0  0  0  0
   21.8355  -21.3536  -11.8253 C   0  0  0  0  0  0  0  0  0  0  0  0
   21.6284  -21.6054  -13.2658 C   0  0  0  0  0  0  0  0  0  0  0  0
   21.8574  -20.5732  -14.1600 O   0  0  0  0  0  0  0  0  0  0  0  0
   21.2575  -22.6988  -13.7285 O   0  0  0  0  0  0  0  0  0  0  0  0
  2  1  1  6
  2  4  1  0
  3  2  1  0
  4  5  1  6
  6  8  1  0
  6  4  1  0
  7  6  2  0
  9  8  1  0
 10 11  1  0
  9 10  1  1
 11 12  2  0
 11 19  1  0
 12 13  1  0
 13 14  1  0
 14 15  2  0
 15 16  1  0
 17 16  2  0
 18 17  1  0
 19 18  2  0
 19 14  1  0
 20  9  1  0
 20 22  1  0
 21 20  2  0
 23 22  1  0
 24 23  1  0
 25 24  1  0
 26 24  2  0
M  END
$$$$
