VWG.pdb
     RDKit          3D

 26 27  0  0  1  0  0  0  0  0999 V2000
   29.0508  -19.3301  -16.6432 C   0  0  0  0  0  0  0  0  0  0  0  0
   28.5340  -19.9239  -15.3570 C   0  0  1  0  0  0  0  0  0  0  0  0
   28.9716  -19.1711  -14.1351 C   0  0  0  0  0  0  0  0  0  0  0  0
   27.0524  -20.1252  -15.4396 C   0  0  2  0  0  0  0  0  0  0  0  0
   26.2977  -18.9242  -15.6442 N   0  0  0  0  0  0  0  0  0  0  0  0
   26.5985  -20.7737  -14.1776 C   0  0  0  0  0  0  0  0  0  0  0  0
   26.9899  -21.9236  -13.8500 O   0  0  0  0  0  0  0  0  0  0  0  0
   25.7095  -20.1155  -13.3036 N   0  0  0  0  0  0  0  0  0  0  0  0
   25.1954  -20.6944  -12.0785 C   0  0  1  0  0  0  0  0  0  0  0  0
   25.6708  -19.8443  -10.9292 C   0  0  0  0  0  0  0  0  0  0  0  0
   26.9174  -20.3783  -10.3215 C   0  0  0  0  0  0  0  0  0  0  0  0
   27.9124  -21.0352  -11.0122 C   0  0  0  0  0  0  0  0  0  0  0  0
   28.8962  -21.3767  -10.1352 N   0  0  0  0  0  0  0  0  0  0  0  0
   28.5797  -20.9679   -8.9025 C   0  0  0  0  0  0  0  0  0  0  0  0
   29.1727  -21.0300   -7.6502 C   0  0  0  0  0  0  0  0  0  0  0  0
   28.5753  -20.4970   -6.5375 C   0  0  0  0  0  0  0  0  0  0  0  0
   27.3456  -19.8731   -6.6351 C   0  0  0  0  0  0  0  0  0  0  0  0
   26.7574  -19.8120   -7.8795 C   0  0  0  0  0  0  0  0  0  0  0  0
   27.3383  -20.3402   -9.0117 C   0  0  0  0  0  0  0  0  0  0  0  0
   23.7295  -20.7519  -12.1956 C   0  0  0  0  0  0  0  0  0  0  0  0
   23.1438  -19.7493  -12.6791 O   0  0  0  0  0  0  0  0  0  0  0  0
   22.9522  -21.8685  -11.7953 N   0  0  0  0  0  0  0  0  0  0  0  0
   21.5302  -21.8709  -11.6768 C   0  0  0  0  0  0  0  0  0  0  0  0
   20.9274  -22.2118  -12.9815 C   0  0  0  0  0  0  0  0  0  0  0  0
   19.5489  -22.1730  -13.1063 O   0  0  0  0  0  0  0  0  0  0  0  0
   21.5894  -22.5344  -13.9838 O   0  0  0  0  0  0  0  0  0  0  0  0
  2  1  1  6
  2  4  1  0
  3  2  1  0
  4  5  1  1
  6  8  1  0
  6  4  1  0
  7  6  2  0
  9  8  1  0
 10 11  1  0
  9 10  1  1
 11 12  2  0
 11 19  1  0
 12 13  1  0
 13 14  1  0
 14 15  2  0
 15 16  1  0
 17 16  2  0
 18 17  1  0
 19 18  2  0
 19 14  1  0
 20  9  1  0
 20 22  1  0
 21 20  2  0
 23 22  1  0
 24 23  1  0
 25 24  1  0
 26 24  2  0
M  END
$$$$
