VWG.pdb
     RDKit          3D

 26 27  0  0  1  0  0  0  0  0999 V2000
   24.9532  -21.7751  -18.0402 C   0  0  0  0  0  0  0  0  0  0  0  0
   26.2225  -22.5608  -18.2533 C   0  0  1  0  0  0  0  0  0  0  0  0
   26.7253  -22.5089  -19.6660 C   0  0  0  0  0  0  0  0  0  0  0  0
   27.2492  -22.1695  -17.2358 C   0  0  2  0  0  0  0  0  0  0  0  0
   28.4408  -22.9655  -17.2542 N   0  0  0  0  0  0  0  0  0  0  0  0
   26.6264  -22.2605  -15.8856 C   0  0  0  0  0  0  0  0  0  0  0  0
   26.5796  -23.3474  -15.2536 O   0  0  0  0  0  0  0  0  0  0  0  0
   26.0653  -21.1241  -15.2681 N   0  0  0  0  0  0  0  0  0  0  0  0
   25.5260  -21.1123  -13.9230 C   0  0  1  0  0  0  0  0  0  0  0  0
   26.1377  -19.9477  -13.1889 C   0  0  0  0  0  0  0  0  0  0  0  0
   26.9130  -20.3860  -11.9993 C   0  0  0  0  0  0  0  0  0  0  0  0
   28.2461  -20.7343  -12.0118 C   0  0  0  0  0  0  0  0  0  0  0  0
   28.6161  -21.0788  -10.7477 N   0  0  0  0  0  0  0  0  0  0  0  0
   27.5765  -20.9683   -9.9148 C   0  0  0  0  0  0  0  0  0  0  0  0
   27.3596  -21.1752   -8.5606 C   0  0  0  0  0  0  0  0  0  0  0  0
   26.1347  -20.9654   -7.9819 C   0  0  0  0  0  0  0  0  0  0  0  0
   25.0654  -20.5349   -8.7448 C   0  0  0  0  0  0  0  0  0  0  0  0
   25.2819  -20.3298  -10.0899 C   0  0  0  0  0  0  0  0  0  0  0  0
   26.5034  -20.5337  -10.6937 C   0  0  0  0  0  0  0  0  0  0  0  0
   24.0608  -21.0293  -14.0330 C   0  0  0  0  0  0  0  0  0  0  0  0
   23.5847  -20.2653  -14.9114 O   0  0  0  0  0  0  0  0  0  0  0  0
   23.1680  -21.7593  -13.2075 N   0  0  0  0  0  0  0  0  0  0  0  0
   21.7449  -21.6949  -13.2899 C   0  0  0  0  0  0  0  0  0  0  0  0
   21.2582  -20.5353  -12.5154 C   0  0  0  0  0  0  0  0  0  0  0  0
   19.8944  -20.3043  -12.4521 O   0  0  0  0  0  0  0  0  0  0  0  0
   22.0063  -19.7468  -11.9107 O   0  0  0  0  0  0  0  0  0  0  0  0
  2  1  1  6
  2  4  1  0
  3  2  1  0
  4  5  1  1
  6  8  1  0
  6  4  1  0
  7  6  2  0
  9  8  1  0
 10 11  1  0
  9 10  1  1
 11 12  2  0
 11 19  1  0
 12 13  1  0
 13 14  1  0
 14 15  2  0
 15 16  1  0
 17 16  2  0
 18 17  1  0
 19 18  2  0
 19 14  1  0
 20  9  1  0
 20 22  1  0
 21 20  2  0
 23 22  1  0
 24 23  1  0
 25 24  1  0
 26 24  2  0
M  END
$$$$
