VWG.pdb
     RDKit          3D

 26 27  0  0  1  0  0  0  0  0999 V2000
   20.8367  -22.4164  -13.8244 C   0  0  0  0  0  0  0  0  0  0  0  0
   22.2641  -21.9305  -13.8442 C   0  0  1  0  0  0  0  0  0  0  0  0
   22.7204  -21.4768  -15.1996 C   0  0  0  0  0  0  0  0  0  0  0  0
   22.4783  -20.9128  -12.7667 C   0  0  2  0  0  0  0  0  0  0  0  0
   21.6948  -19.7212  -12.9075 N   0  0  0  0  0  0  0  0  0  0  0  0
   23.9218  -20.5448  -12.7528 C   0  0  0  0  0  0  0  0  0  0  0  0
   24.3179  -19.4166  -13.1442 O   0  0  0  0  0  0  0  0  0  0  0  0
   24.8974  -21.4550  -12.2975 N   0  0  0  0  0  0  0  0  0  0  0  0
   26.3236  -21.1986  -12.3226 C   0  0  1  0  0  0  0  0  0  0  0  0
   26.9321  -21.8463  -11.1062 C   0  0  0  0  0  0  0  0  0  0  0  0
   26.6637  -21.0678   -9.8691 C   0  0  0  0  0  0  0  0  0  0  0  0
   25.4580  -20.4800   -9.5538 C   0  0  0  0  0  0  0  0  0  0  0  0
   25.5815  -19.8561   -8.3500 N   0  0  0  0  0  0  0  0  0  0  0  0
   26.8192  -20.0153   -7.8710 C   0  0  0  0  0  0  0  0  0  0  0  0
   27.5040  -19.6203   -6.7313 C   0  0  0  0  0  0  0  0  0  0  0  0
   28.8166  -19.9550   -6.5214 C   0  0  0  0  0  0  0  0  0  0  0  0
   29.5044  -20.7074   -7.4549 C   0  0  0  0  0  0  0  0  0  0  0  0
   28.8233  -21.0991   -8.5867 C   0  0  0  0  0  0  0  0  0  0  0  0
   27.5046  -20.7751   -8.8196 C   0  0  0  0  0  0  0  0  0  0  0  0
   26.8478  -21.7294  -13.5912 C   0  0  0  0  0  0  0  0  0  0  0  0
   26.8307  -22.9767  -13.7524 O   0  0  0  0  0  0  0  0  0  0  0  0
   27.3658  -20.9145  -14.6299 N   0  0  0  0  0  0  0  0  0  0  0  0
   27.8575  -21.4003  -15.8782 C   0  0  0  0  0  0  0  0  0  0  0  0
   28.2803  -20.2615  -16.7184 C   0  0  0  0  0  0  0  0  0  0  0  0
   29.2190  -20.4821  -17.7122 O   0  0  0  0  0  0  0  0  0  0  0  0
   27.8398  -19.1059  -16.5861 O   0  0  0  0  0  0  0  0  0  0  0  0
  2  1  1  6
  2  4  1  0
  3  2  1  0
  4  5  1  6
  6  8  1  0
  6  4  1  0
  7  6  2  0
  9  8  1  0
 10 11  1  0
  9 10  1  1
 11 12  2  0
 11 19  1  0
 12 13  1  0
 13 14  1  0
 14 15  2  0
 15 16  1  0
 17 16  2  0
 18 17  1  0
 19 18  2  0
 19 14  1  0
 20  9  1  0
 20 22  1  0
 21 20  2  0
 23 22  1  0
 24 23  1  0
 25 24  1  0
 26 24  2  0
M  END
$$$$
