VWG.pdb
     RDKit          3D

 26 27  0  0  1  0  0  0  0  0999 V2000
   22.8877  -13.1774  -19.6151 C   0  0  0  0  0  0  0  0  0  0  0  0
   23.3106  -12.1495  -18.5961 C   0  0  1  0  0  0  0  0  0  0  0  0
   24.7942  -11.9301  -18.5513 C   0  0  0  0  0  0  0  0  0  0  0  0
   22.5224  -10.8890  -18.7761 C   0  0  2  0  0  0  0  0  0  0  0  0
   23.0489   -9.9919  -19.7619 N   0  0  0  0  0  0  0  0  0  0  0  0
   22.4612  -10.1856  -17.4643 C   0  0  0  0  0  0  0  0  0  0  0  0
   21.9807  -10.7391  -16.4417 O   0  0  0  0  0  0  0  0  0  0  0  0
   22.9428   -8.8679  -17.3253 N   0  0  0  0  0  0  0  0  0  0  0  0
   22.9560   -8.1344  -16.0755 C   0  0  1  0  0  0  0  0  0  0  0  0
   24.3866   -7.7841  -15.7590 C   0  0  0  0  0  0  0  0  0  0  0  0
   25.2247   -8.9953  -15.5618 C   0  0  0  0  0  0  0  0  0  0  0  0
   24.9400  -10.0161  -14.6813 C   0  0  0  0  0  0  0  0  0  0  0  0
   25.9229  -10.9538  -14.7719 N   0  0  0  0  0  0  0  0  0  0  0  0
   26.8347  -10.5826  -15.6762 C   0  0  0  0  0  0  0  0  0  0  0  0
   28.0134  -11.1146  -16.1776 C   0  0  0  0  0  0  0  0  0  0  0  0
   28.7497  -10.4695  -17.1372 C   0  0  0  0  0  0  0  0  0  0  0  0
   28.3307   -9.2517  -17.6392 C   0  0  0  0  0  0  0  0  0  0  0  0
   27.1597   -8.7241  -17.1404 C   0  0  0  0  0  0  0  0  0  0  0  0
   26.4029   -9.3536  -16.1764 C   0  0  0  0  0  0  0  0  0  0  0  0
   22.0893   -6.9568  -16.2428 C   0  0  0  0  0  0  0  0  0  0  0  0
   22.6289   -5.8848  -16.6192 O   0  0  0  0  0  0  0  0  0  0  0  0
   20.6914   -6.9694  -16.0036 N   0  0  0  0  0  0  0  0  0  0  0  0
   19.8355   -5.8332  -16.1152 C   0  0  0  0  0  0  0  0  0  0  0  0
   18.8919   -5.8133  -14.9790 C   0  0  0  0  0  0  0  0  0  0  0  0
   18.0510   -4.7229  -14.8334 O   0  0  0  0  0  0  0  0  0  0  0  0
   18.8062   -6.7253  -14.1377 O   0  0  0  0  0  0  0  0  0  0  0  0
  2  1  1  6
  2  4  1  0
  3  2  1  0
  4  5  1  6
  6  8  1  0
  6  4  1  0
  7  6  2  0
  9  8  1  0
 10 11  1  0
  9 10  1  6
 11 12  2  0
 11 19  1  0
 12 13  1  0
 13 14  1  0
 14 15  2  0
 15 16  1  0
 17 16  2  0
 18 17  1  0
 19 18  2  0
 19 14  1  0
 20  9  1  0
 20 22  1  0
 21 20  2  0
 23 22  1  0
 24 23  1  0
 25 24  1  0
 26 24  2  0
M  END
$$$$
