VWG.pdb
     RDKit          3D

 26 27  0  0  1  0  0  0  0  0999 V2000
   27.3697  -18.5537  -15.6184 C   0  0  0  0  0  0  0  0  0  0  0  0
   26.6012  -19.2115  -14.5000 C   0  0  1  0  0  0  0  0  0  0  0  0
   25.1361  -19.3567  -14.7888 C   0  0  0  0  0  0  0  0  0  0  0  0
   27.2647  -20.4935  -14.1016 C   0  0  2  0  0  0  0  0  0  0  0  0
   27.1586  -21.5456  -15.0687 N   0  0  0  0  0  0  0  0  0  0  0  0
   26.6619  -20.9518  -12.8187 C   0  0  0  0  0  0  0  0  0  0  0  0
   25.8014  -21.8691  -12.7858 O   0  0  0  0  0  0  0  0  0  0  0  0
   27.0384  -20.3686  -11.5917 N   0  0  0  0  0  0  0  0  0  0  0  0
   26.5287  -20.7878  -10.3015 C   0  0  1  0  0  0  0  0  0  0  0  0
   27.5661  -20.4516   -9.2621 C   0  0  0  0  0  0  0  0  0  0  0  0
   27.0517  -20.6435   -7.8812 C   0  0  0  0  0  0  0  0  0  0  0  0
   25.9575  -21.4114   -7.5473 C   0  0  0  0  0  0  0  0  0  0  0  0
   25.7843  -21.3559   -6.1980 N   0  0  0  0  0  0  0  0  0  0  0  0
   26.7224  -20.5827   -5.6423 C   0  0  0  0  0  0  0  0  0  0  0  0
   27.0404  -20.1718   -4.3564 C   0  0  0  0  0  0  0  0  0  0  0  0
   28.1048  -19.3466   -4.1010 C   0  0  0  0  0  0  0  0  0  0  0  0
   28.9030  -18.8944   -5.1350 C   0  0  0  0  0  0  0  0  0  0  0  0
   28.5861  -19.3031   -6.4121 C   0  0  0  0  0  0  0  0  0  0  0  0
   27.5219  -20.1317   -6.6933 C   0  0  0  0  0  0  0  0  0  0  0  0
   25.2440  -20.1026  -10.0878 C   0  0  0  0  0  0  0  0  0  0  0  0
   25.2195  -18.8529  -10.2284 O   0  0  0  0  0  0  0  0  0  0  0  0
   24.0448  -20.7728   -9.7352 N   0  0  0  0  0  0  0  0  0  0  0  0
   22.7770  -20.1401   -9.5672 C   0  0  0  0  0  0  0  0  0  0  0  0
   21.9277  -20.4175  -10.7433 C   0  0  0  0  0  0  0  0  0  0  0  0
   20.5667  -20.1798  -10.6505 O   0  0  0  0  0  0  0  0  0  0  0  0
   22.3653  -20.8556  -11.8220 O   0  0  0  0  0  0  0  0  0  0  0  0
  2  1  1  6
  2  4  1  0
  3  2  1  0
  4  5  1  6
  6  8  1  0
  6  4  1  0
  7  6  2  0
  9  8  1  0
 10 11  1  0
  9 10  1  1
 11 12  2  0
 11 19  1  0
 12 13  1  0
 13 14  1  0
 14 15  2  0
 15 16  1  0
 17 16  2  0
 18 17  1  0
 19 18  2  0
 19 14  1  0
 20  9  1  0
 20 22  1  0
 21 20  2  0
 23 22  1  0
 24 23  1  0
 25 24  1  0
 26 24  2  0
M  END
$$$$
