VWG.pdb
     RDKit          3D

 26 27  0  0  1  0  0  0  0  0999 V2000
   11.5954  -16.0492    4.3201 C   0  0  0  0  0  0  0  0  0  0  0  0
   12.3400  -14.7700    4.6083 C   0  0  1  0  0  0  0  0  0  0  0  0
   11.5462  -13.5354    4.2967 C   0  0  0  0  0  0  0  0  0  0  0  0
   12.8897  -14.7947    6.0010 C   0  0  2  0  0  0  0  0  0  0  0  0
   13.4499  -13.5520    6.4433 N   0  0  0  0  0  0  0  0  0  0  0  0
   13.9381  -15.8507    6.0702 C   0  0  0  0  0  0  0  0  0  0  0  0
   13.8410  -16.9196    5.4136 O   0  0  0  0  0  0  0  0  0  0  0  0
   15.0809  -15.6857    6.8792 N   0  0  0  0  0  0  0  0  0  0  0  0
   16.1580  -16.6508    6.9719 C   0  0  1  0  0  0  0  0  0  0  0  0
   17.4581  -15.9136    6.7827 C   0  0  0  0  0  0  0  0  0  0  0  0
   17.6494  -15.4766    5.3753 C   0  0  0  0  0  0  0  0  0  0  0  0
   17.3451  -16.2353    4.2661 C   0  0  0  0  0  0  0  0  0  0  0  0
   17.6492  -15.5152    3.1515 N   0  0  0  0  0  0  0  0  0  0  0  0
   18.1389  -14.3191    3.4925 C   0  0  0  0  0  0  0  0  0  0  0  0
   18.6021  -13.2024    2.8126 C   0  0  0  0  0  0  0  0  0  0  0  0
   19.0550  -12.0886    3.4710 C   0  0  0  0  0  0  0  0  0  0  0  0
   19.0623  -12.0475    4.8526 C   0  0  0  0  0  0  0  0  0  0  0  0
   18.6020  -13.1573    5.5270 C   0  0  0  0  0  0  0  0  0  0  0  0
   18.1421  -14.2877    4.8875 C   0  0  0  0  0  0  0  0  0  0  0  0
   16.0477  -17.3146    8.2807 C   0  0  0  0  0  0  0  0  0  0  0  0
   15.8352  -16.5892    9.2860 O   0  0  0  0  0  0  0  0  0  0  0  0
   16.1676  -18.7159    8.4639 N   0  0  0  0  0  0  0  0  0  0  0  0
   16.0044  -19.3915    9.7101 C   0  0  0  0  0  0  0  0  0  0  0  0
   17.2358  -19.2491   10.5131 C   0  0  0  0  0  0  0  0  0  0  0  0
   17.3034  -19.8818   11.7429 O   0  0  0  0  0  0  0  0  0  0  0  0
   18.2249  -18.5893   10.1478 O   0  0  0  0  0  0  0  0  0  0  0  0
  2  1  1  1
  2  4  1  0
  3  2  1  0
  4  5  1  6
  6  8  1  0
  6  4  1  0
  7  6  2  0
  9  8  1  0
 10 11  1  0
  9 10  1  1
 11 12  2  0
 11 19  1  0
 12 13  1  0
 13 14  1  0
 14 15  2  0
 15 16  1  0
 17 16  2  0
 18 17  1  0
 19 18  2  0
 19 14  1  0
 20  9  1  0
 20 22  1  0
 21 20  2  0
 23 22  1  0
 24 23  1  0
 25 24  1  0
 26 24  2  0
M  END
$$$$
