VWG.pdb
     RDKit          3D

 26 27  0  0  1  0  0  0  0  0999 V2000
   21.1574  -33.8522   -5.6819 C   0  0  0  0  0  0  0  0  0  0  0  0
   21.5706  -33.4592   -4.2859 C   0  0  1  0  0  0  0  0  0  0  0  0
   22.4669  -34.4645   -3.6246 C   0  0  0  0  0  0  0  0  0  0  0  0
   22.1242  -32.0678   -4.2835 C   0  0  2  0  0  0  0  0  0  0  0  0
   23.3772  -31.9232   -4.9638 N   0  0  0  0  0  0  0  0  0  0  0  0
   22.2884  -31.6334   -2.8680 C   0  0  0  0  0  0  0  0  0  0  0  0
   23.4111  -31.3025   -2.4064 O   0  0  0  0  0  0  0  0  0  0  0  0
   21.1838  -31.5788   -1.9938 N   0  0  0  0  0  0  0  0  0  0  0  0
   21.2669  -31.1848   -0.6016 C   0  0  1  0  0  0  0  0  0  0  0  0
   20.0366  -30.3797   -0.2737 C   0  0  0  0  0  0  0  0  0  0  0  0
   20.2329  -28.9311   -0.5409 C   0  0  0  0  0  0  0  0  0  0  0  0
   20.0608  -28.3251   -1.7663 C   0  0  0  0  0  0  0  0  0  0  0  0
   20.3253  -26.9962   -1.6339 N   0  0  0  0  0  0  0  0  0  0  0  0
   20.6625  -26.7149   -0.3714 C   0  0  0  0  0  0  0  0  0  0  0  0
   21.0228  -25.5754    0.3325 C   0  0  0  0  0  0  0  0  0  0  0  0
   21.3200  -25.6128    1.6701 C   0  0  0  0  0  0  0  0  0  0  0  0
   21.2677  -26.8066    2.3650 C   0  0  0  0  0  0  0  0  0  0  0  0
   20.9097  -27.9379    1.6649 C   0  0  0  0  0  0  0  0  0  0  0  0
   20.6067  -27.9251    0.3209 C   0  0  0  0  0  0  0  0  0  0  0  0
   21.3930  -32.4123    0.2003 C   0  0  0  0  0  0  0  0  0  0  0  0
   20.5080  -33.2947    0.0582 O   0  0  0  0  0  0  0  0  0  0  0  0
   22.4505  -32.6482    1.1155 N   0  0  0  0  0  0  0  0  0  0  0  0
   22.6362  -33.8560    1.8522 C   0  0  0  0  0  0  0  0  0  0  0  0
   21.7746  -33.8392    3.0518 C   0  0  0  0  0  0  0  0  0  0  0  0
   21.8934  -34.8697    3.9690 O   0  0  0  0  0  0  0  0  0  0  0  0
   20.9413  -32.9471    3.2900 O   0  0  0  0  0  0  0  0  0  0  0  0
  2  1  1  6
  2  4  1  0
  3  2  1  0
  4  5  1  1
  6  8  1  0
  6  4  1  0
  7  6  2  0
  9  8  1  0
 10 11  1  0
  9 10  1  1
 11 12  2  0
 11 19  1  0
 12 13  1  0
 13 14  1  0
 14 15  2  0
 15 16  1  0
 17 16  2  0
 18 17  1  0
 19 18  2  0
 19 14  1  0
 20  9  1  0
 20 22  1  0
 21 20  2  0
 23 22  1  0
 24 23  1  0
 25 24  1  0
 26 24  2  0
M  END
$$$$
