ACG.pdb
     RDKit          3D

 16 15  0  0  1  0  0  0  0  0999 V2000
   27.1425  -18.3073  -15.1732 C   0  0  0  0  0  0  0  0  0  0  0  0
   27.6696  -19.6636  -14.8081 C   0  0  2  0  0  0  0  0  0  0  0  0
   28.0259  -20.4504  -15.9707 N   0  0  0  0  0  0  0  0  0  0  0  0
   26.6617  -20.3395  -13.9680 C   0  0  0  0  0  0  0  0  0  0  0  0
   25.8561  -21.1147  -14.5362 O   0  0  0  0  0  0  0  0  0  0  0  0
   26.5445  -20.1721  -12.5726 N   0  0  0  0  0  0  0  0  0  0  0  0
   25.5493  -20.8947  -11.8595 C   0  0  1  0  0  0  0  0  0  0  0  0
   25.7175  -20.8815  -10.3646 C   0  0  0  0  0  0  0  0  0  0  0  0
   27.4485  -21.3224  -10.0209 S   0  0  0  0  0  0  0  0  0  0  0  0
   24.2115  -20.2599  -12.1372 C   0  0  0  0  0  0  0  0  0  0  0  0
   24.1158  -19.0094  -12.0635 O   0  0  0  0  0  0  0  0  0  0  0  0
   23.0790  -21.0118  -12.4724 N   0  0  0  0  0  0  0  0  0  0  0  0
   21.8645  -20.3569  -12.8793 C   0  0  0  0  0  0  0  0  0  0  0  0
   20.8458  -21.3579  -13.2353 C   0  0  0  0  0  0  0  0  0  0  0  0
   20.9857  -22.1356  -14.3996 O   0  0  0  0  0  0  0  0  0  0  0  0
   19.8439  -21.5206  -12.4962 O   0  0  0  0  0  0  0  0  0  0  0  0
  2  3  1  0
  2  1  1  6
  4  2  1  0
  5  4  2  0
  6  4  1  0
  7  6  1  0
  7  8  1  1
  9  8  1  0
 10  7  1  0
 10 12  1  0
 11 10  2  0
 13 12  1  0
 14 13  1  0
 15 14  1  0
 16 14  2  0
M  END
$$$$
