ACG.pdb
     RDKit          3D

 16 15  0  0  1  0  0  0  0  0999 V2000
   17.1325   -9.9310  -16.0292 C   0  0  0  0  0  0  0  0  0  0  0  0
   18.3455   -9.3794  -16.7185 C   0  0  2  0  0  0  0  0  0  0  0  0
   18.9459  -10.3322  -17.6292 N   0  0  0  0  0  0  0  0  0  0  0  0
   19.2961   -8.9238  -15.6854 C   0  0  0  0  0  0  0  0  0  0  0  0
   18.8233   -8.3771  -14.6604 O   0  0  0  0  0  0  0  0  0  0  0  0
   20.6967   -9.0618  -15.7738 N   0  0  0  0  0  0  0  0  0  0  0  0
   21.5201   -8.5516  -14.7331 C   0  0  1  0  0  0  0  0  0  0  0  0
   22.8269   -9.2759  -14.5576 C   0  0  0  0  0  0  0  0  0  0  0  0
   22.4299  -10.9586  -13.9920 S   0  0  0  0  0  0  0  0  0  0  0  0
   21.8719   -7.1243  -15.0629 C   0  0  0  0  0  0  0  0  0  0  0  0
   22.1264   -6.8316  -16.2579 O   0  0  0  0  0  0  0  0  0  0  0  0
   21.9244   -6.1200  -14.0889 N   0  0  0  0  0  0  0  0  0  0  0  0
   22.2831   -4.7743  -14.4493 C   0  0  0  0  0  0  0  0  0  0  0  0
   21.1102   -3.8919  -14.3382 C   0  0  0  0  0  0  0  0  0  0  0  0
   21.2648   -2.4934  -14.3592 O   0  0  0  0  0  0  0  0  0  0  0  0
   19.9627   -4.3885  -14.2237 O   0  0  0  0  0  0  0  0  0  0  0  0
  2  3  1  0
  2  1  1  1
  4  2  1  0
  5  4  2  0
  6  4  1  0
  7  6  1  0
  7  8  1  6
  9  8  1  0
 10  7  1  0
 10 12  1  0
 11 10  2  0
 13 12  1  0
 14 13  1  0
 15 14  1  0
 16 14  2  0
M  END
$$$$
