ACG.pdb
     RDKit          3D

 16 15  0  0  1  0  0  0  0  0999 V2000
   20.7768  -11.2669  -18.5271 C   0  0  0  0  0  0  0  0  0  0  0  0
   22.1564  -11.7269  -18.1582 C   0  0  2  0  0  0  0  0  0  0  0  0
   22.1836  -13.1123  -17.7367 N   0  0  0  0  0  0  0  0  0  0  0  0
   22.6829  -10.8200  -17.1196 C   0  0  0  0  0  0  0  0  0  0  0  0
   22.2092  -10.9230  -15.9629 O   0  0  0  0  0  0  0  0  0  0  0  0
   23.6803   -9.8479  -17.3406 N   0  0  0  0  0  0  0  0  0  0  0  0
   24.1653   -9.0779  -16.2482 C   0  0  1  0  0  0  0  0  0  0  0  0
   25.6589   -8.8999  -16.2228 C   0  0  0  0  0  0  0  0  0  0  0  0
   26.3684  -10.4534  -15.5965 S   0  0  0  0  0  0  0  0  0  0  0  0
   23.5789   -7.6936  -16.3460 C   0  0  0  0  0  0  0  0  0  0  0  0
   23.5400   -7.1385  -17.4725 O   0  0  0  0  0  0  0  0  0  0  0  0
   23.0793   -7.0096  -15.2313 N   0  0  0  0  0  0  0  0  0  0  0  0
   22.5156   -5.6941  -15.3767 C   0  0  0  0  0  0  0  0  0  0  0  0
   21.9645   -5.2359  -14.0911 C   0  0  0  0  0  0  0  0  0  0  0  0
   21.4404   -3.9363  -13.9619 O   0  0  0  0  0  0  0  0  0  0  0  0
   21.9609   -6.0084  -13.1013 O   0  0  0  0  0  0  0  0  0  0  0  0
  2  3  1  0
  2  1  1  1
  4  2  1  0
  5  4  2  0
  6  4  1  0
  7  6  1  0
  7  8  1  6
  9  8  1  0
 10  7  1  0
 10 12  1  0
 11 10  2  0
 13 12  1  0
 14 13  1  0
 15 14  1  0
 16 14  2  0
M  END
$$$$
