ACG.pdb
     RDKit          3D

 16 15  0  0  1  0  0  0  0  0999 V2000
   18.8261  -10.4449  -18.0936 C   0  0  0  0  0  0  0  0  0  0  0  0
   20.1096   -9.9096  -17.5306 C   0  0  2  0  0  0  0  0  0  0  0  0
   20.9914  -10.9608  -17.0665 N   0  0  0  0  0  0  0  0  0  0  0  0
   19.7788   -8.9493  -16.4598 C   0  0  0  0  0  0  0  0  0  0  0  0
   18.9748   -8.0265  -16.7340 O   0  0  0  0  0  0  0  0  0  0  0  0
   20.3050   -9.0000  -15.1524 N   0  0  0  0  0  0  0  0  0  0  0  0
   19.9330   -8.0061  -14.2063 C   0  0  1  0  0  0  0  0  0  0  0  0
   19.6045   -8.5372  -12.8377 C   0  0  0  0  0  0  0  0  0  0  0  0
   18.1598   -9.6269  -13.0234 S   0  0  0  0  0  0  0  0  0  0  0  0
   21.0958   -7.0657  -14.0239 C   0  0  0  0  0  0  0  0  0  0  0  0
   22.2591   -7.5175  -14.1687 O   0  0  0  0  0  0  0  0  0  0  0  0
   20.9246   -5.7142  -13.7006 N   0  0  0  0  0  0  0  0  0  0  0  0
   22.0510   -4.8195  -13.6913 C   0  0  0  0  0  0  0  0  0  0  0  0
   21.5889   -3.4248  -13.7795 C   0  0  0  0  0  0  0  0  0  0  0  0
   22.4645   -2.3630  -13.4858 O   0  0  0  0  0  0  0  0  0  0  0  0
   20.4054   -3.1784  -14.1188 O   0  0  0  0  0  0  0  0  0  0  0  0
  2  3  1  0
  2  1  1  1
  4  2  1  0
  5  4  2  0
  6  4  1  0
  7  6  1  0
  7  8  1  1
  9  8  1  0
 10  7  1  0
 10 12  1  0
 11 10  2  0
 13 12  1  0
 14 13  1  0
 15 14  1  0
 16 14  2  0
M  END
$$$$
