ACG.pdb
     RDKit          3D

 16 15  0  0  1  0  0  0  0  0999 V2000
   13.7199  -12.0520  -14.2714 C   0  0  0  0  0  0  0  0  0  0  0  0
   15.1195  -11.7122  -14.6912 C   0  0  2  0  0  0  0  0  0  0  0  0
   16.0281  -12.8308  -14.5454 N   0  0  0  0  0  0  0  0  0  0  0  0
   15.5601  -10.5347  -13.9181 C   0  0  0  0  0  0  0  0  0  0  0  0
   14.8411   -9.5080  -13.9618 O   0  0  0  0  0  0  0  0  0  0  0  0
   16.7325  -10.4872  -13.1359 N   0  0  0  0  0  0  0  0  0  0  0  0
   17.0606   -9.2954  -12.4335 C   0  0  1  0  0  0  0  0  0  0  0  0
   17.3052   -9.4843  -10.9612 C   0  0  0  0  0  0  0  0  0  0  0  0
   17.8106   -7.8688  -10.2950 S   0  0  0  0  0  0  0  0  0  0  0  0
   18.3415   -8.7452  -13.0048 C   0  0  0  0  0  0  0  0  0  0  0  0
   19.3279   -9.5157  -13.1129 O   0  0  0  0  0  0  0  0  0  0  0  0
   18.4685   -7.4131  -13.4165 N   0  0  0  0  0  0  0  0  0  0  0  0
   19.6827   -6.9556  -14.0376 C   0  0  0  0  0  0  0  0  0  0  0  0
   20.5287   -6.2690  -13.0479 C   0  0  0  0  0  0  0  0  0  0  0  0
   21.7790   -5.7419  -13.4210 O   0  0  0  0  0  0  0  0  0  0  0  0
   20.1338   -6.1516  -11.8619 O   0  0  0  0  0  0  0  0  0  0  0  0
  2  3  1  0
  2  1  1  1
  4  2  1  0
  5  4  2  0
  6  4  1  0
  7  6  1  0
  7  8  1  1
  9  8  1  0
 10  7  1  0
 10 12  1  0
 11 10  2  0
 13 12  1  0
 14 13  1  0
 15 14  1  0
 16 14  2  0
M  END
$$$$
