ACG.pdb
     RDKit          3D

 16 15  0  0  1  0  0  0  0  0999 V2000
   20.2503  -10.2645  -19.3637 C   0  0  0  0  0  0  0  0  0  0  0  0
   21.0472  -11.3684  -18.7334 C   0  0  2  0  0  0  0  0  0  0  0  0
   20.2840  -12.5914  -18.5932 N   0  0  0  0  0  0  0  0  0  0  0  0
   21.5624  -10.8838  -17.4380 C   0  0  0  0  0  0  0  0  0  0  0  0
   20.7512  -10.7955  -16.4856 O   0  0  0  0  0  0  0  0  0  0  0  0
   22.9025  -10.5147  -17.2004 N   0  0  0  0  0  0  0  0  0  0  0  0
   23.2999  -10.1127  -15.8958 C   0  0  1  0  0  0  0  0  0  0  0  0
   24.6360  -10.6467  -15.4566 C   0  0  0  0  0  0  0  0  0  0  0  0
   24.4130  -12.4192  -15.1137 S   0  0  0  0  0  0  0  0  0  0  0  0
   23.4212   -8.6112  -15.8782 C   0  0  0  0  0  0  0  0  0  0  0  0
   24.1261   -8.0575  -16.7586 O   0  0  0  0  0  0  0  0  0  0  0  0
   22.7793   -7.8174  -14.9201 N   0  0  0  0  0  0  0  0  0  0  0  0
   22.9322   -6.3871  -14.9387 C   0  0  0  0  0  0  0  0  0  0  0  0
   22.1219   -5.7786  -13.8711 C   0  0  0  0  0  0  0  0  0  0  0  0
   22.2698   -4.4162  -13.5515 O   0  0  0  0  0  0  0  0  0  0  0  0
   21.2923   -6.4783  -13.2398 O   0  0  0  0  0  0  0  0  0  0  0  0
  2  3  1  0
  2  1  1  1
  4  2  1  0
  5  4  2  0
  6  4  1  0
  7  6  1  0
  7  8  1  6
  9  8  1  0
 10  7  1  0
 10 12  1  0
 11 10  2  0
 13 12  1  0
 14 13  1  0
 15 14  1  0
 16 14  2  0
M  END
$$$$
