ACG.pdb
     RDKit          3D

 16 15  0  0  1  0  0  0  0  0999 V2000
   19.4397  -10.3207  -18.6575 C   0  0  0  0  0  0  0  0  0  0  0  0
   20.4363   -9.2396  -18.3595 C   0  0  2  0  0  0  0  0  0  0  0  0
   21.7057   -9.4592  -19.0213 N   0  0  0  0  0  0  0  0  0  0  0  0
   20.5839   -9.1393  -16.8944 C   0  0  0  0  0  0  0  0  0  0  0  0
   19.5373   -9.0525  -16.2088 O   0  0  0  0  0  0  0  0  0  0  0  0
   21.8201   -9.1346  -16.2158 N   0  0  0  0  0  0  0  0  0  0  0  0
   21.8450   -8.9861  -14.8021 C   0  0  1  0  0  0  0  0  0  0  0  0
   22.7714   -9.9336  -14.0898 C   0  0  0  0  0  0  0  0  0  0  0  0
   21.8749  -11.5039  -13.8909 S   0  0  0  0  0  0  0  0  0  0  0  0
   22.3343   -7.5982  -14.4793 C   0  0  0  0  0  0  0  0  0  0  0  0
   23.3287   -7.1537  -15.1054 O   0  0  0  0  0  0  0  0  0  0  0  0
   21.7222   -6.7926  -13.5116 N   0  0  0  0  0  0  0  0  0  0  0  0
   22.2175   -5.4681  -13.2475 C   0  0  0  0  0  0  0  0  0  0  0  0
   21.4354   -4.4764  -14.0032 C   0  0  0  0  0  0  0  0  0  0  0  0
   21.6890   -3.1007  -13.8503 O   0  0  0  0  0  0  0  0  0  0  0  0
   20.5350   -4.8583  -14.7905 O   0  0  0  0  0  0  0  0  0  0  0  0
  2  3  1  0
  2  1  1  1
  4  2  1  0
  5  4  2  0
  6  4  1  0
  7  6  1  0
  7  8  1  1
  9  8  1  0
 10  7  1  0
 10 12  1  0
 11 10  2  0
 13 12  1  0
 14 13  1  0
 15 14  1  0
 16 14  2  0
M  END
$$$$
