ACG.pdb
     RDKit          3D

 16 15  0  0  1  0  0  0  0  0999 V2000
   20.0214   -8.9072  -18.7893 C   0  0  0  0  0  0  0  0  0  0  0  0
   20.1084   -9.6923  -17.5138 C   0  0  2  0  0  0  0  0  0  0  0  0
   19.2421  -10.8530  -17.5181 N   0  0  0  0  0  0  0  0  0  0  0  0
   19.8117   -8.7820  -16.3906 C   0  0  0  0  0  0  0  0  0  0  0  0
   18.8955   -7.9406  -16.5502 O   0  0  0  0  0  0  0  0  0  0  0  0
   20.4880   -8.7953  -15.1532 N   0  0  0  0  0  0  0  0  0  0  0  0
   20.1019   -7.8848  -14.1317 C   0  0  1  0  0  0  0  0  0  0  0  0
   19.8785   -8.5149  -12.7840 C   0  0  0  0  0  0  0  0  0  0  0  0
   18.3918   -9.5538  -12.9232 S   0  0  0  0  0  0  0  0  0  0  0  0
   21.2099   -6.8808  -13.9474 C   0  0  0  0  0  0  0  0  0  0  0  0
   22.3896   -7.3023  -13.8524 O   0  0  0  0  0  0  0  0  0  0  0  0
   20.9706   -5.5030  -13.8791 N   0  0  0  0  0  0  0  0  0  0  0  0
   22.0620   -4.5822  -13.7045 C   0  0  0  0  0  0  0  0  0  0  0  0
   21.5718   -3.1967  -13.7857 C   0  0  0  0  0  0  0  0  0  0  0  0
   20.2500   -2.9298  -14.1880 O   0  0  0  0  0  0  0  0  0  0  0  0
   22.3368   -2.2446  -13.4944 O   0  0  0  0  0  0  0  0  0  0  0  0
  2  3  1  0
  2  1  1  6
  4  2  1  0
  5  4  2  0
  6  4  1  0
  7  6  1  0
  7  8  1  1
  9  8  1  0
 10  7  1  0
 10 12  1  0
 11 10  2  0
 13 12  1  0
 14 13  1  0
 15 14  1  0
 16 14  2  0
M  END
$$$$
