ACG.pdb
     RDKit          3D

 16 15  0  0  1  0  0  0  0  0999 V2000
   22.4737   -9.6554  -19.5947 C   0  0  0  0  0  0  0  0  0  0  0  0
   22.3119  -10.0575  -18.1584 C   0  0  2  0  0  0  0  0  0  0  0  0
   21.4369  -11.2006  -17.9989 N   0  0  0  0  0  0  0  0  0  0  0  0
   21.8353   -8.8835  -17.4015 C   0  0  0  0  0  0  0  0  0  0  0  0
   20.6984   -8.4336  -17.6809 O   0  0  0  0  0  0  0  0  0  0  0  0
   22.5710   -8.2357  -16.3878 N   0  0  0  0  0  0  0  0  0  0  0  0
   21.9853   -7.1522  -15.6776 C   0  0  1  0  0  0  0  0  0  0  0  0
   21.9035   -7.3516  -14.1887 C   0  0  0  0  0  0  0  0  0  0  0  0
   20.4351   -8.3769  -13.8699 S   0  0  0  0  0  0  0  0  0  0  0  0
   22.8377   -5.9286  -15.8913 C   0  0  0  0  0  0  0  0  0  0  0  0
   24.0807   -6.0766  -15.9991 O   0  0  0  0  0  0  0  0  0  0  0  0
   22.2949   -4.6406  -15.9732 N   0  0  0  0  0  0  0  0  0  0  0  0
   23.1436   -3.5079  -16.2304 C   0  0  0  0  0  0  0  0  0  0  0  0
   22.3296   -2.2906  -16.3803 C   0  0  0  0  0  0  0  0  0  0  0  0
   22.9401   -1.0231  -16.4091 O   0  0  0  0  0  0  0  0  0  0  0  0
   21.0816   -2.3817  -16.4832 O   0  0  0  0  0  0  0  0  0  0  0  0
  2  3  1  0
  2  1  1  6
  4  2  1  0
  5  4  2  0
  6  4  1  0
  7  6  1  0
  7  8  1  1
  9  8  1  0
 10  7  1  0
 10 12  1  0
 11 10  2  0
 13 12  1  0
 14 13  1  0
 15 14  1  0
 16 14  2  0
M  END
$$$$
