ACG.pdb
     RDKit          3D

 16 15  0  0  1  0  0  0  0  0999 V2000
   25.5624  -10.6207  -15.1820 C   0  0  0  0  0  0  0  0  0  0  0  0
   24.2443  -11.2544  -15.5165 C   0  0  2  0  0  0  0  0  0  0  0  0
   24.3032  -12.0483  -16.7265 N   0  0  0  0  0  0  0  0  0  0  0  0
   23.2277  -10.1878  -15.6011 C   0  0  0  0  0  0  0  0  0  0  0  0
   23.1014   -9.5902  -16.6965 O   0  0  0  0  0  0  0  0  0  0  0  0
   22.3911   -9.7969  -14.5353 N   0  0  0  0  0  0  0  0  0  0  0  0
   21.3317   -8.8793  -14.7737 C   0  0  1  0  0  0  0  0  0  0  0  0
   19.9750   -9.3642  -14.3408 C   0  0  0  0  0  0  0  0  0  0  0  0
   19.6261  -10.8793  -15.2852 S   0  0  0  0  0  0  0  0  0  0  0  0
   21.6021   -7.6262  -13.9823 C   0  0  0  0  0  0  0  0  0  0  0  0
   21.9472   -7.7409  -12.7797 O   0  0  0  0  0  0  0  0  0  0  0  0
   21.4824   -6.3468  -14.5382 N   0  0  0  0  0  0  0  0  0  0  0  0
   21.7946   -5.1808  -13.7556 C   0  0  0  0  0  0  0  0  0  0  0  0
   21.5618   -3.9630  -14.5489 C   0  0  0  0  0  0  0  0  0  0  0  0
   21.3221   -2.7313  -13.9118 O   0  0  0  0  0  0  0  0  0  0  0  0
   21.5767   -4.0212  -15.8030 O   0  0  0  0  0  0  0  0  0  0  0  0
  2  3  1  0
  2  1  1  6
  4  2  1  0
  5  4  2  0
  6  4  1  0
  7  6  1  0
  7  8  1  1
  9  8  1  0
 10  7  1  0
 10 12  1  0
 11 10  2  0
 13 12  1  0
 14 13  1  0
 15 14  1  0
 16 14  2  0
M  END
$$$$
