ACG.pdb
     RDKit          3D

 16 15  0  0  1  0  0  0  0  0999 V2000
   21.4478  -11.1984  -18.6207 C   0  0  0  0  0  0  0  0  0  0  0  0
   22.2497  -10.5252  -17.5462 C   0  0  2  0  0  0  0  0  0  0  0  0
   22.6413  -11.4393  -16.4931 N   0  0  0  0  0  0  0  0  0  0  0  0
   21.4652   -9.3866  -17.0298 C   0  0  0  0  0  0  0  0  0  0  0  0
   21.1115   -8.5050  -17.8488 O   0  0  0  0  0  0  0  0  0  0  0  0
   21.0880   -9.2244  -15.6808 N   0  0  0  0  0  0  0  0  0  0  0  0
   20.2944   -8.1070  -15.3026 C   0  0  1  0  0  0  0  0  0  0  0  0
   19.0826   -8.4504  -14.4800 C   0  0  0  0  0  0  0  0  0  0  0  0
   17.9656   -9.4051  -15.5524 S   0  0  0  0  0  0  0  0  0  0  0  0
   21.1361   -7.1939  -14.4497 C   0  0  0  0  0  0  0  0  0  0  0  0
   22.0414   -7.7022  -13.7422 O   0  0  0  0  0  0  0  0  0  0  0  0
   20.9446   -5.8074  -14.4193 N   0  0  0  0  0  0  0  0  0  0  0  0
   21.8916   -4.9561  -13.7500 C   0  0  0  0  0  0  0  0  0  0  0  0
   21.5353   -3.5431  -13.9576 C   0  0  0  0  0  0  0  0  0  0  0  0
   22.2091   -2.5267  -13.2554 O   0  0  0  0  0  0  0  0  0  0  0  0
   20.6240   -3.2403  -14.7664 O   0  0  0  0  0  0  0  0  0  0  0  0
  2  3  1  0
  2  1  1  6
  4  2  1  0
  5  4  2  0
  6  4  1  0
  7  6  1  0
  7  8  1  1
  9  8  1  0
 10  7  1  0
 10 12  1  0
 11 10  2  0
 13 12  1  0
 14 13  1  0
 15 14  1  0
 16 14  2  0
M  END
$$$$
