ACG.pdb
     RDKit          3D

 16 15  0  0  1  0  0  0  0  0999 V2000
   19.7926  -10.4544  -18.2496 C   0  0  0  0  0  0  0  0  0  0  0  0
   20.6801  -10.5716  -17.0457 C   0  0  2  0  0  0  0  0  0  0  0  0
   20.6636  -11.9020  -16.4734 N   0  0  0  0  0  0  0  0  0  0  0  0
   20.2722   -9.5422  -16.0698 C   0  0  0  0  0  0  0  0  0  0  0  0
   19.1795   -8.9579  -16.2632 O   0  0  0  0  0  0  0  0  0  0  0  0
   21.0273   -9.1730  -14.9375 N   0  0  0  0  0  0  0  0  0  0  0  0
   20.5470   -8.1488  -14.0762 C   0  0  1  0  0  0  0  0  0  0  0  0
   20.5139   -8.5214  -12.6191 C   0  0  0  0  0  0  0  0  0  0  0  0
   18.9967   -9.4890  -12.3527 S   0  0  0  0  0  0  0  0  0  0  0  0
   21.4715   -6.9643  -14.1859 C   0  0  0  0  0  0  0  0  0  0  0  0
   22.7066   -7.1758  -14.2778 O   0  0  0  0  0  0  0  0  0  0  0  0
   21.0037   -5.6447  -14.1888 N   0  0  0  0  0  0  0  0  0  0  0  0
   21.9130   -4.5503  -14.4009 C   0  0  0  0  0  0  0  0  0  0  0  0
   21.1714   -3.2798  -14.4504 C   0  0  0  0  0  0  0  0  0  0  0  0
   21.8585   -2.0518  -14.4457 O   0  0  0  0  0  0  0  0  0  0  0  0
   19.9167   -3.2895  -14.4972 O   0  0  0  0  0  0  0  0  0  0  0  0
  2  3  1  0
  2  1  1  6
  4  2  1  0
  5  4  2  0
  6  4  1  0
  7  6  1  0
  7  8  1  1
  9  8  1  0
 10  7  1  0
 10 12  1  0
 11 10  2  0
 13 12  1  0
 14 13  1  0
 15 14  1  0
 16 14  2  0
M  END
$$$$
