ACG.pdb
     RDKit          3D

 16 15  0  0  1  0  0  0  0  0999 V2000
   18.7462  -10.7637  -16.6906 C   0  0  0  0  0  0  0  0  0  0  0  0
   19.8369   -9.7392  -16.7977 C   0  0  2  0  0  0  0  0  0  0  0  0
   21.1577  -10.3334  -16.7847 N   0  0  0  0  0  0  0  0  0  0  0  0
   19.6581   -8.7593  -15.7085 C   0  0  0  0  0  0  0  0  0  0  0  0
   18.5376   -8.2060  -15.6020 O   0  0  0  0  0  0  0  0  0  0  0  0
   20.6605   -8.4048  -14.7821 N   0  0  0  0  0  0  0  0  0  0  0  0
   20.3766   -7.4445  -13.7729 C   0  0  1  0  0  0  0  0  0  0  0  0
   20.6881   -7.8978  -12.3727 C   0  0  0  0  0  0  0  0  0  0  0  0
   19.1663   -8.6350  -11.7022 S   0  0  0  0  0  0  0  0  0  0  0  0
   21.2314   -6.2289  -14.0207 C   0  0  0  0  0  0  0  0  0  0  0  0
   22.4317   -6.3987  -14.3507 O   0  0  0  0  0  0  0  0  0  0  0  0
   20.7364   -4.9252  -13.8965 N   0  0  0  0  0  0  0  0  0  0  0  0
   21.5455   -3.7994  -14.2804 C   0  0  0  0  0  0  0  0  0  0  0  0
   20.7615   -2.5575  -14.1837 C   0  0  0  0  0  0  0  0  0  0  0  0
   19.3782   -2.6047  -13.9298 O   0  0  0  0  0  0  0  0  0  0  0  0
   21.3290   -1.4469  -14.3286 O   0  0  0  0  0  0  0  0  0  0  0  0
  2  3  1  0
  2  1  1  1
  4  2  1  0
  5  4  2  0
  6  4  1  0
  7  6  1  0
  7  8  1  1
  9  8  1  0
 10  7  1  0
 10 12  1  0
 11 10  2  0
 13 12  1  0
 14 13  1  0
 15 14  1  0
 16 14  2  0
M  END
$$$$
