FQY.pdb
     RDKit          3D

 33 34  0  0  1  0  0  0  0  0999 V2000
    5.8635  -17.6279   25.7046 N   0  0  0  0  0  0  0  0  0  0  0  0
    6.4170  -16.3451   25.3637 C   0  0  1  0  0  0  0  0  0  0  0  0
    7.0897  -15.6635   26.5359 C   0  0  0  0  0  0  0  0  0  0  0  0
    6.9895  -14.1993   26.4712 C   0  0  0  0  0  0  0  0  0  0  0  0
    5.8540  -13.5643   26.9199 C   0  0  0  0  0  0  0  0  0  0  0  0
    5.7534  -12.1677   26.8605 C   0  0  0  0  0  0  0  0  0  0  0  0
    6.7801  -11.4236   26.3572 C   0  0  0  0  0  0  0  0  0  0  0  0
    7.9176  -12.0500   25.9069 C   0  0  0  0  0  0  0  0  0  0  0  0
    8.0157  -13.4382   25.9669 C   0  0  0  0  0  0  0  0  0  0  0  0
    7.4562  -16.5049   24.3001 C   0  0  0  0  0  0  0  0  0  0  0  0
    8.1471  -17.5471   24.1954 O   0  0  0  0  0  0  0  0  0  0  0  0
    7.2637  -13.1556   19.2858 N   0  0  0  0  0  0  0  0  0  0  0  0
    8.3523  -13.9685   18.8952 C   0  0  0  0  0  0  0  0  0  0  0  0
    8.8329  -13.9699   17.7386 O   0  0  0  0  0  0  0  0  0  0  0  0
    8.9551  -14.8666   19.9121 C   0  0  0  0  0  0  0  0  0  0  0  0
    8.1930  -14.7511   21.1823 C   0  0  0  0  0  0  0  0  0  0  0  0
    8.6075  -15.7177   22.2619 C   0  0  2  0  0  0  0  0  0  0  0  0
    7.6777  -15.4557   23.3762 N   0  0  0  0  0  0  0  0  0  0  0  0
    9.9737  -15.3713   22.7162 C   0  0  0  0  0  0  0  0  0  0  0  0
   10.5010  -14.2351   22.5940 O   0  0  0  0  0  0  0  0  0  0  0  0
    8.8824  -14.8361   29.2338 O   0  0  0  0  0  0  0  0  0  0  0  0
    9.7249  -15.2989   28.2215 C   0  0  0  0  0  0  0  0  0  0  0  0
    9.7310  -16.6334   27.8703 C   0  0  0  0  0  0  0  0  0  0  0  0
   10.5639  -17.1279   26.8601 C   0  0  0  0  0  0  0  0  0  0  0  0
   11.4059  -16.2688   26.1902 C   0  0  0  0  0  0  0  0  0  0  0  0
   12.2997  -16.7685   25.1172 C   0  0  0  0  0  0  0  0  0  0  0  0
   12.1088  -16.0180   23.8222 C   0  0  2  0  0  0  0  0  0  0  0  0
   10.7856  -16.3609   23.3407 N   0  0  0  0  0  0  0  0  0  0  0  0
   13.0913  -16.3221   22.7866 C   0  0  0  0  0  0  0  0  0  0  0  0
   12.7879  -17.0039   21.6128 O   0  0  0  0  0  0  0  0  0  0  0  0
   11.3977  -14.9315   26.5443 C   0  0  0  0  0  0  0  0  0  0  0  0
   10.5719  -14.4459   27.5445 C   0  0  0  0  0  0  0  0  0  0  0  0
   14.2863  -15.9645   22.9284 O   0  0  0  0  0  0  0  0  0  0  0  0
  2  1  1  1
  2  3  1  0
  4  9  1  0
  4  3  1  0
  5  4  2  0
  6  7  2  0
  6  5  1  0
  7  8  1  0
  8  9  2  0
 10  2  1  0
 10 11  2  0
 12 13  1  0
 13 15  1  0
 14 13  2  0
 15 16  1  0
 17 16  1  6
 17 18  1  0
 18 10  1  0
 19 17  1  0
 20 19  2  0
 22 23  2  0
 22 21  1  0
 24 23  1  0
 25 24  2  0
 26 25  1  0
 27 26  1  1
 27 28  1  0
 28 19  1  0
 29 27  1  0
 30 29  1  0
 31 25  1  0
 31 32  2  0
 32 22  1  0
 33 29  2  0
M  END
$$$$
