FQY.pdb
     RDKit          3D

 33 34  0  0  1  0  0  0  0  0999 V2000
    6.0036  -16.5374   24.9868 N   0  0  0  0  0  0  0  0  0  0  0  0
    6.9560  -15.8605   24.1485 C   0  0  1  0  0  0  0  0  0  0  0  0
    7.7408  -14.7980   24.8877 C   0  0  0  0  0  0  0  0  0  0  0  0
    6.9332  -13.6095   25.1932 C   0  0  0  0  0  0  0  0  0  0  0  0
    6.0197  -13.6412   26.2220 C   0  0  0  0  0  0  0  0  0  0  0  0
    5.2468  -12.5101   26.5176 C   0  0  0  0  0  0  0  0  0  0  0  0
    5.3923  -11.3663   25.7885 C   0  0  0  0  0  0  0  0  0  0  0  0
    6.3024  -11.3263   24.7594 C   0  0  0  0  0  0  0  0  0  0  0  0
    7.0697  -12.4517   24.4672 C   0  0  0  0  0  0  0  0  0  0  0  0
    7.9506  -16.8406   23.6130 C   0  0  0  0  0  0  0  0  0  0  0  0
    8.2072  -17.9184   24.2022 O   0  0  0  0  0  0  0  0  0  0  0  0
   10.9861  -18.3922   17.7950 N   0  0  0  0  0  0  0  0  0  0  0  0
   11.5209  -17.4613   18.7146 C   0  0  0  0  0  0  0  0  0  0  0  0
   12.1081  -16.4100   18.3703 O   0  0  0  0  0  0  0  0  0  0  0  0
   11.3773  -17.7482   20.1642 C   0  0  0  0  0  0  0  0  0  0  0  0
   10.1497  -17.0859   20.6762 C   0  0  0  0  0  0  0  0  0  0  0  0
    9.8892  -17.2815   22.1478 C   0  0  2  0  0  0  0  0  0  0  0  0
    8.6310  -16.5565   22.4048 N   0  0  0  0  0  0  0  0  0  0  0  0
   10.9650  -16.6159   22.9173 C   0  0  0  0  0  0  0  0  0  0  0  0
   11.1745  -15.3750   22.9266 O   0  0  0  0  0  0  0  0  0  0  0  0
   11.5873  -15.3787   31.2459 O   0  0  0  0  0  0  0  0  0  0  0  0
   11.4121  -15.7078   29.9006 C   0  0  0  0  0  0  0  0  0  0  0  0
   11.4015  -14.7232   28.9339 C   0  0  0  0  0  0  0  0  0  0  0  0
   11.2280  -15.0212   27.5775 C   0  0  0  0  0  0  0  0  0  0  0  0
   11.0621  -16.3300   27.1835 C   0  0  0  0  0  0  0  0  0  0  0  0
   10.8743  -16.6715   25.7524 C   0  0  0  0  0  0  0  0  0  0  0  0
   12.1831  -16.9642   25.0610 C   0  0  2  0  0  0  0  0  0  0  0  0
   11.8500  -17.3938   23.7176 N   0  0  0  0  0  0  0  0  0  0  0  0
   13.0012  -17.9876   25.7043 C   0  0  0  0  0  0  0  0  0  0  0  0
   14.0021  -17.7060   26.6282 O   0  0  0  0  0  0  0  0  0  0  0  0
   11.0731  -17.3150   28.1548 C   0  0  0  0  0  0  0  0  0  0  0  0
   11.2451  -17.0161   29.4961 C   0  0  0  0  0  0  0  0  0  0  0  0
   12.8203  -19.2000   25.4333 O   0  0  0  0  0  0  0  0  0  0  0  0
  2  1  1  1
  2  3  1  0
  4  9  1  0
  4  3  1  0
  5  4  2  0
  6  7  2  0
  6  5  1  0
  7  8  1  0
  8  9  2  0
 10  2  1  0
 10 11  2  0
 12 13  1  0
 13 15  1  0
 14 13  2  0
 15 16  1  0
 17 16  1  6
 17 18  1  0
 18 10  1  0
 19 17  1  0
 20 19  2  0
 22 23  2  0
 22 21  1  0
 24 23  1  0
 25 24  2  0
 26 25  1  0
 27 26  1  1
 27 28  1  0
 28 19  1  0
 29 27  1  0
 30 29  1  0
 31 25  1  0
 31 32  2  0
 32 22  1  0
 33 29  2  0
M  END
$$$$
