FQY.pdb
     RDKit          3D

 33 34  0  0  1  0  0  0  0  0999 V2000
    7.6508  -16.9626   26.9612 N   0  0  0  0  0  0  0  0  0  0  0  0
    7.1645  -16.5111   25.6853 C   0  0  1  0  0  0  0  0  0  0  0  0
    7.7299  -15.1661   25.2819 C   0  0  0  0  0  0  0  0  0  0  0  0
    7.3530  -14.0932   26.2120 C   0  0  0  0  0  0  0  0  0  0  0  0
    8.3263  -13.3432   26.8318 C   0  0  0  0  0  0  0  0  0  0  0  0
    7.9722  -12.3185   27.7199 C   0  0  0  0  0  0  0  0  0  0  0  0
    6.6590  -12.0542   27.9789 C   0  0  0  0  0  0  0  0  0  0  0  0
    5.6809  -12.7986   27.3640 C   0  0  0  0  0  0  0  0  0  0  0  0
    6.0350  -13.8167   26.4816 C   0  0  0  0  0  0  0  0  0  0  0  0
    7.5547  -17.4834   24.6181 C   0  0  0  0  0  0  0  0  0  0  0  0
    8.2221  -18.5158   24.8696 O   0  0  0  0  0  0  0  0  0  0  0  0
    5.0575  -17.8181   19.1015 N   0  0  0  0  0  0  0  0  0  0  0  0
    6.1950  -18.6041   18.8072 C   0  0  0  0  0  0  0  0  0  0  0  0
    6.3729  -19.1768   17.7076 O   0  0  0  0  0  0  0  0  0  0  0  0
    7.2314  -18.7566   19.8593 C   0  0  0  0  0  0  0  0  0  0  0  0
    6.8326  -17.9745   21.0580 C   0  0  0  0  0  0  0  0  0  0  0  0
    7.7664  -18.0954   22.2348 C   0  0  2  0  0  0  0  0  0  0  0  0
    7.1658  -17.2440   23.2784 N   0  0  0  0  0  0  0  0  0  0  0  0
    9.0771  -17.5121   21.8682 C   0  0  0  0  0  0  0  0  0  0  0  0
    9.8853  -18.0267   21.0520 O   0  0  0  0  0  0  0  0  0  0  0  0
    7.2976  -13.6826   17.0976 O   0  0  0  0  0  0  0  0  0  0  0  0
    8.0940  -13.8272   18.2350 C   0  0  0  0  0  0  0  0  0  0  0  0
    7.5808  -13.5619   19.4881 C   0  0  0  0  0  0  0  0  0  0  0  0
    8.3536  -13.6974   20.6470 C   0  0  0  0  0  0  0  0  0  0  0  0
    9.6646  -14.1062   20.5475 C   0  0  0  0  0  0  0  0  0  0  0  0
   10.5050  -14.2554   21.7605 C   0  0  0  0  0  0  0  0  0  0  0  0
   10.7731  -15.7027   22.0923 C   0  0  2  0  0  0  0  0  0  0  0  0
    9.4958  -16.2836   22.4548 N   0  0  0  0  0  0  0  0  0  0  0  0
   11.7244  -15.9169   23.1784 C   0  0  0  0  0  0  0  0  0  0  0  0
   11.4149  -16.5981   24.3509 O   0  0  0  0  0  0  0  0  0  0  0  0
   10.1765  -14.3715   19.2899 C   0  0  0  0  0  0  0  0  0  0  0  0
    9.4085  -14.2362   18.1454 C   0  0  0  0  0  0  0  0  0  0  0  0
   12.8961  -15.4760   23.0847 O   0  0  0  0  0  0  0  0  0  0  0  0
  2  1  1  1
  2  3  1  0
  4  9  1  0
  4  3  1  0
  5  4  2  0
  6  7  2  0
  6  5  1  0
  7  8  1  0
  8  9  2  0
 10  2  1  0
 10 11  2  0
 12 13  1  0
 13 15  1  0
 14 13  2  0
 15 16  1  0
 17 16  1  6
 17 18  1  0
 18 10  1  0
 19 17  1  0
 20 19  2  0
 22 23  2  0
 22 21  1  0
 24 23  1  0
 25 24  2  0
 26 25  1  0
 27 26  1  1
 27 28  1  0
 28 19  1  0
 29 27  1  0
 30 29  1  0
 31 25  1  0
 31 32  2  0
 32 22  1  0
 33 29  2  0
M  END
$$$$
