FQY.pdb
     RDKit          3D

 33 34  0  0  1  0  0  0  0  0999 V2000
    5.7842  -16.5427   24.9777 N   0  0  0  0  0  0  0  0  0  0  0  0
    6.6335  -16.2288   23.8604 C   0  0  1  0  0  0  0  0  0  0  0  0
    6.8033  -14.7395   23.6498 C   0  0  0  0  0  0  0  0  0  0  0  0
    7.2582  -14.0460   24.8624 C   0  0  0  0  0  0  0  0  0  0  0  0
    6.3700  -13.7774   25.8786 C   0  0  0  0  0  0  0  0  0  0  0  0
    6.7988  -13.1161   27.0375 C   0  0  0  0  0  0  0  0  0  0  0  0
    8.1012  -12.7320   27.1698 C   0  0  0  0  0  0  0  0  0  0  0  0
    8.9947  -12.9965   26.1595 C   0  0  0  0  0  0  0  0  0  0  0  0
    8.5664  -13.6539   25.0084 C   0  0  0  0  0  0  0  0  0  0  0  0
    8.0000  -16.7938   24.0845 C   0  0  0  0  0  0  0  0  0  0  0  0
    8.3945  -17.1517   25.2206 O   0  0  0  0  0  0  0  0  0  0  0  0
   12.4368  -17.8803   19.1726 N   0  0  0  0  0  0  0  0  0  0  0  0
   11.0894  -18.0100   19.5801 C   0  0  0  0  0  0  0  0  0  0  0  0
   10.2505  -18.7172   18.9762 O   0  0  0  0  0  0  0  0  0  0  0  0
   10.6491  -17.2674   20.7878 C   0  0  0  0  0  0  0  0  0  0  0  0
   10.5793  -18.2024   21.9405 C   0  0  0  0  0  0  0  0  0  0  0  0
   10.1926  -17.5668   23.2513 C   0  0  2  0  0  0  0  0  0  0  0  0
    8.8860  -16.9348   22.9899 N   0  0  0  0  0  0  0  0  0  0  0  0
   11.1631  -16.4945   23.5686 C   0  0  0  0  0  0  0  0  0  0  0  0
   11.4558  -15.5442   22.7971 O   0  0  0  0  0  0  0  0  0  0  0  0
   10.5308  -17.8576   30.6401 O   0  0  0  0  0  0  0  0  0  0  0  0
   10.9384  -17.0639   29.5664 C   0  0  0  0  0  0  0  0  0  0  0  0
   10.0426  -16.7059   28.5799 C   0  0  0  0  0  0  0  0  0  0  0  0
   10.4206  -15.9115   27.4913 C   0  0  0  0  0  0  0  0  0  0  0  0
   11.7202  -15.4684   27.3903 C   0  0  0  0  0  0  0  0  0  0  0  0
   12.1462  -14.6272   26.2454 C   0  0  0  0  0  0  0  0  0  0  0  0
   12.7787  -15.4426   25.1446 C   0  0  2  0  0  0  0  0  0  0  0  0
   11.8378  -16.4969   24.8230 N   0  0  0  0  0  0  0  0  0  0  0  0
   14.0682  -16.0360   25.4845 C   0  0  0  0  0  0  0  0  0  0  0  0
   15.2242  -15.2941   25.7035 O   0  0  0  0  0  0  0  0  0  0  0  0
   12.6162  -15.8289   28.3808 C   0  0  0  0  0  0  0  0  0  0  0  0
   12.2383  -16.6151   29.4565 C   0  0  0  0  0  0  0  0  0  0  0  0
   14.1784  -17.2818   25.5936 O   0  0  0  0  0  0  0  0  0  0  0  0
  2  1  1  1
  2  3  1  0
  4  9  1  0
  4  3  1  0
  5  4  2  0
  6  7  2  0
  6  5  1  0
  7  8  1  0
  8  9  2  0
 10  2  1  0
 10 11  2  0
 12 13  1  0
 13 15  1  0
 14 13  2  0
 15 16  1  0
 17 16  1  6
 17 18  1  0
 18 10  1  0
 19 17  1  0
 20 19  2  0
 22 23  2  0
 22 21  1  0
 24 23  1  0
 25 24  2  0
 26 25  1  0
 27 26  1  1
 27 28  1  0
 28 19  1  0
 29 27  1  0
 30 29  1  0
 31 25  1  0
 31 32  2  0
 32 22  1  0
 33 29  2  0
M  END
$$$$
