FQY.pdb
     RDKit          3D

 33 34  0  0  1  0  0  0  0  0999 V2000
    5.9459  -17.5061   25.3643 N   0  0  0  0  0  0  0  0  0  0  0  0
    6.3358  -16.1747   24.9856 C   0  0  1  0  0  0  0  0  0  0  0  0
    6.8096  -15.3437   26.1587 C   0  0  0  0  0  0  0  0  0  0  0  0
    6.2115  -14.0021   26.1786 C   0  0  0  0  0  0  0  0  0  0  0  0
    4.9082  -13.8331   26.5870 C   0  0  0  0  0  0  0  0  0  0  0  0
    4.3328  -12.5554   26.6079 C   0  0  0  0  0  0  0  0  0  0  0  0
    5.0588  -11.4662   26.2235 C   0  0  0  0  0  0  0  0  0  0  0  0
    6.3611  -11.6263   25.8142 C   0  0  0  0  0  0  0  0  0  0  0  0
    6.9312  -12.8972   25.7942 C   0  0  0  0  0  0  0  0  0  0  0  0
    7.4678  -16.2333   24.0101 C   0  0  0  0  0  0  0  0  0  0  0  0
    8.3540  -17.1195   24.0707 O   0  0  0  0  0  0  0  0  0  0  0  0
    7.5641  -12.6536   19.0499 N   0  0  0  0  0  0  0  0  0  0  0  0
    8.5647  -13.5637   18.6390 C   0  0  0  0  0  0  0  0  0  0  0  0
    9.0761  -13.5576   17.4957 O   0  0  0  0  0  0  0  0  0  0  0  0
    9.0315  -14.5787   19.6167 C   0  0  0  0  0  0  0  0  0  0  0  0
    8.2096  -14.4856   20.8510 C   0  0  0  0  0  0  0  0  0  0  0  0
    8.5551  -15.4889   21.9213 C   0  0  2  0  0  0  0  0  0  0  0  0
    7.5546  -15.2651   22.9813 N   0  0  0  0  0  0  0  0  0  0  0  0
    9.8883  -15.1589   22.4749 C   0  0  0  0  0  0  0  0  0  0  0  0
   10.1991  -14.0466   22.9750 O   0  0  0  0  0  0  0  0  0  0  0  0
   12.1526  -14.4288   29.7471 O   0  0  0  0  0  0  0  0  0  0  0  0
   11.7738  -14.9886   28.5256 C   0  0  0  0  0  0  0  0  0  0  0  0
   11.5578  -14.1862   27.4240 C   0  0  0  0  0  0  0  0  0  0  0  0
   11.1774  -14.7172   26.1862 C   0  0  0  0  0  0  0  0  0  0  0  0
   11.0105  -16.0772   26.0508 C   0  0  0  0  0  0  0  0  0  0  0  0
   10.6058  -16.6642   24.7502 C   0  0  0  0  0  0  0  0  0  0  0  0
   11.6464  -16.4467   23.6794 C   0  0  2  0  0  0  0  0  0  0  0  0
   10.9235  -16.1370   22.4621 N   0  0  0  0  0  0  0  0  0  0  0  0
   12.5268  -17.5858   23.4395 C   0  0  0  0  0  0  0  0  0  0  0  0
   12.4619  -18.3839   22.3021 O   0  0  0  0  0  0  0  0  0  0  0  0
   11.2277  -16.8792   27.1569 C   0  0  0  0  0  0  0  0  0  0  0  0
   11.6041  -16.3500   28.3801 C   0  0  0  0  0  0  0  0  0  0  0  0
   13.4033  -17.8926   24.2843 O   0  0  0  0  0  0  0  0  0  0  0  0
  2  1  1  1
  2  3  1  0
  4  9  1  0
  4  3  1  0
  5  4  2  0
  6  7  2  0
  6  5  1  0
  7  8  1  0
  8  9  2  0
 10  2  1  0
 10 11  2  0
 12 13  1  0
 13 15  1  0
 14 13  2  0
 15 16  1  0
 17 16  1  6
 17 18  1  0
 18 10  1  0
 19 17  1  0
 20 19  2  0
 22 23  2  0
 22 21  1  0
 24 23  1  0
 25 24  2  0
 26 25  1  0
 27 26  1  1
 27 28  1  0
 28 19  1  0
 29 27  1  0
 30 29  1  0
 31 25  1  0
 31 32  2  0
 32 22  1  0
 33 29  2  0
M  END
$$$$
