FQY.pdb
     RDKit          3D

 33 34  0  0  1  0  0  0  0  0999 V2000
   -1.7350  -26.6384   21.4514 N   0  0  0  0  0  0  0  0  0  0  0  0
   -0.4777  -27.3174   21.6130 C   0  0  1  0  0  0  0  0  0  0  0  0
    0.6206  -26.7370   20.7480 C   0  0  0  0  0  0  0  0  0  0  0  0
    0.3501  -26.8922   19.3124 C   0  0  0  0  0  0  0  0  0  0  0  0
    0.9534  -27.9044   18.6015 C   0  0  0  0  0  0  0  0  0  0  0  0
    0.6988  -28.0569   17.2318 C   0  0  0  0  0  0  0  0  0  0  0  0
   -0.1497  -27.2034   16.5894 C   0  0  0  0  0  0  0  0  0  0  0  0
   -0.7564  -26.1898   17.2921 C   0  0  0  0  0  0  0  0  0  0  0  0
   -0.5020  -26.0400   18.6535 C   0  0  0  0  0  0  0  0  0  0  0  0
   -0.0171  -27.2061   23.0315 C   0  0  0  0  0  0  0  0  0  0  0  0
   -0.6786  -26.5872   23.8998 O   0  0  0  0  0  0  0  0  0  0  0  0
   -1.3787  -29.8545   26.7972 N   0  0  0  0  0  0  0  0  0  0  0  0
   -0.3594  -29.3760   27.6520 C   0  0  0  0  0  0  0  0  0  0  0  0
   -0.3426  -29.5793   28.8877 O   0  0  0  0  0  0  0  0  0  0  0  0
    0.7478  -28.5915   27.0497 C   0  0  0  0  0  0  0  0  0  0  0  0
    0.5662  -28.5379   25.5760 C   0  0  0  0  0  0  0  0  0  0  0  0
    1.5878  -27.7097   24.8398 C   0  0  2  0  0  0  0  0  0  0  0  0
    1.2010  -27.8129   23.4204 N   0  0  0  0  0  0  0  0  0  0  0  0
    2.9186  -28.3397   24.9972 C   0  0  0  0  0  0  0  0  0  0  0  0
    3.4376  -29.1308   24.1674 O   0  0  0  0  0  0  0  0  0  0  0  0
    6.5918  -26.6938   19.8515 O   0  0  0  0  0  0  0  0  0  0  0  0
    6.1249  -26.5477   21.1590 C   0  0  0  0  0  0  0  0  0  0  0  0
    6.3892  -27.5125   22.1094 C   0  0  0  0  0  0  0  0  0  0  0  0
    5.9350  -27.3949   23.4280 C   0  0  0  0  0  0  0  0  0  0  0  0
    5.2026  -26.2900   23.8001 C   0  0  0  0  0  0  0  0  0  0  0  0
    4.7082  -26.1429   25.1907 C   0  0  0  0  0  0  0  0  0  0  0  0
    4.9726  -27.3743   26.0217 C   0  0  2  0  0  0  0  0  0  0  0  0
    3.7031  -28.0608   26.1529 N   0  0  0  0  0  0  0  0  0  0  0  0
    5.5173  -27.1122   27.3502 C   0  0  0  0  0  0  0  0  0  0  0  0
    4.7420  -26.7258   28.4385 O   0  0  0  0  0  0  0  0  0  0  0  0
    4.9391  -25.3243   22.8452 C   0  0  0  0  0  0  0  0  0  0  0  0
    5.3903  -25.4443   21.5413 C   0  0  0  0  0  0  0  0  0  0  0  0
    6.7492  -27.2316   27.5601 O   0  0  0  0  0  0  0  0  0  0  0  0
  2  1  1  1
  2  3  1  0
  4  9  1  0
  4  3  1  0
  5  4  2  0
  6  7  2  0
  6  5  1  0
  7  8  1  0
  8  9  2  0
 10  2  1  0
 10 11  2  0
 12 13  1  0
 13 15  1  0
 14 13  2  0
 15 16  1  0
 17 16  1  1
 17 18  1  0
 18 10  1  0
 19 17  1  0
 20 19  2  0
 22 23  2  0
 22 21  1  0
 24 23  1  0
 25 24  2  0
 26 25  1  0
 27 26  1  1
 27 28  1  0
 28 19  1  0
 29 27  1  0
 30 29  1  0
 31 25  1  0
 31 32  2  0
 32 22  1  0
 33 29  2  0
M  END
$$$$
