FQY.pdb
     RDKit          3D

 33 34  0  0  1  0  0  0  0  0999 V2000
    5.8600  -18.0597   25.1780 N   0  0  0  0  0  0  0  0  0  0  0  0
    6.3325  -16.7131   25.0004 C   0  0  1  0  0  0  0  0  0  0  0  0
    6.9126  -16.1206   26.2667 C   0  0  0  0  0  0  0  0  0  0  0  0
    6.9144  -14.6516   26.2536 C   0  0  0  0  0  0  0  0  0  0  0  0
    5.9861  -13.9534   26.9917 C   0  0  0  0  0  0  0  0  0  0  0  0
    5.9835  -12.5519   26.9827 C   0  0  0  0  0  0  0  0  0  0  0  0
    6.9011  -11.8658   26.2422 C   0  0  0  0  0  0  0  0  0  0  0  0
    7.8316  -12.5556   25.5023 C   0  0  0  0  0  0  0  0  0  0  0  0
    7.8325  -13.9485   25.5126 C   0  0  0  0  0  0  0  0  0  0  0  0
    7.4177  -16.6853   23.9717 C   0  0  0  0  0  0  0  0  0  0  0  0
    8.2748  -17.5975   23.8831 O   0  0  0  0  0  0  0  0  0  0  0  0
    7.1922  -13.9224   17.9812 N   0  0  0  0  0  0  0  0  0  0  0  0
    8.2539  -13.5337   18.8297 C   0  0  0  0  0  0  0  0  0  0  0  0
    8.7269  -12.3743   18.8570 O   0  0  0  0  0  0  0  0  0  0  0  0
    8.8366  -14.5562   19.7347 C   0  0  0  0  0  0  0  0  0  0  0  0
    8.0105  -14.6493   20.9663 C   0  0  0  0  0  0  0  0  0  0  0  0
    8.4281  -15.7295   21.9309 C   0  0  2  0  0  0  0  0  0  0  0  0
    7.4920  -15.6024   23.0634 N   0  0  0  0  0  0  0  0  0  0  0  0
    9.7898  -15.4275   22.4281 C   0  0  0  0  0  0  0  0  0  0  0  0
   10.4401  -14.3881   22.1443 O   0  0  0  0  0  0  0  0  0  0  0  0
   10.0660  -15.8706   30.0487 O   0  0  0  0  0  0  0  0  0  0  0  0
   10.4211  -15.5878   28.7286 C   0  0  0  0  0  0  0  0  0  0  0  0
   11.2366  -16.4483   28.0225 C   0  0  0  0  0  0  0  0  0  0  0  0
   11.6102  -16.1927   26.6982 C   0  0  0  0  0  0  0  0  0  0  0  0
   11.1577  -15.0537   26.0706 C   0  0  0  0  0  0  0  0  0  0  0  0
   11.5410  -14.7592   24.6684 C   0  0  0  0  0  0  0  0  0  0  0  0
   11.7419  -16.0158   23.8576 C   0  0  2  0  0  0  0  0  0  0  0  0
   10.4504  -16.3486   23.2905 N   0  0  0  0  0  0  0  0  0  0  0  0
   12.2446  -17.1591   24.6129 C   0  0  0  0  0  0  0  0  0  0  0  0
   13.5231  -17.2213   25.1573 O   0  0  0  0  0  0  0  0  0  0  0  0
   10.3402  -14.1929   26.7808 C   0  0  0  0  0  0  0  0  0  0  0  0
    9.9727  -14.4493   28.0913 C   0  0  0  0  0  0  0  0  0  0  0  0
   11.5111  -18.1603   24.8017 O   0  0  0  0  0  0  0  0  0  0  0  0
  2  1  1  1
  2  3  1  0
  4  9  1  0
  4  3  1  0
  5  4  2  0
  6  7  2  0
  6  5  1  0
  7  8  1  0
  8  9  2  0
 10  2  1  0
 10 11  2  0
 12 13  1  0
 13 15  1  0
 14 13  2  0
 15 16  1  0
 17 16  1  6
 17 18  1  0
 18 10  1  0
 19 17  1  0
 20 19  2  0
 22 23  2  0
 22 21  1  0
 24 23  1  0
 25 24  2  0
 26 25  1  0
 27 26  1  1
 27 28  1  0
 28 19  1  0
 29 27  1  0
 30 29  1  0
 31 25  1  0
 31 32  2  0
 32 22  1  0
 33 29  2  0
M  END
$$$$
