FQY.pdb
     RDKit          3D

 33 34  0  0  1  0  0  0  0  0999 V2000
    7.6062  -17.7505   17.8683 N   0  0  0  0  0  0  0  0  0  0  0  0
    7.9904  -16.6973   18.7691 C   0  0  1  0  0  0  0  0  0  0  0  0
    6.8147  -15.8714   19.2453 C   0  0  0  0  0  0  0  0  0  0  0  0
    7.1990  -14.8656   20.2447 C   0  0  0  0  0  0  0  0  0  0  0  0
    7.7550  -13.6720   19.8447 C   0  0  0  0  0  0  0  0  0  0  0  0
    8.1233  -12.7091   20.7940 C   0  0  0  0  0  0  0  0  0  0  0  0
    7.9344  -12.9453   22.1243 C   0  0  0  0  0  0  0  0  0  0  0  0
    7.3796  -14.1349   22.5322 C   0  0  0  0  0  0  0  0  0  0  0  0
    7.0142  -15.0907   21.5869 C   0  0  0  0  0  0  0  0  0  0  0  0
    8.6343  -17.2783   19.9874 C   0  0  0  0  0  0  0  0  0  0  0  0
    8.0943  -18.1946   20.6532 O   0  0  0  0  0  0  0  0  0  0  0  0
   13.2567  -19.9680   21.8553 N   0  0  0  0  0  0  0  0  0  0  0  0
   12.6770  -20.0237   20.5672 C   0  0  0  0  0  0  0  0  0  0  0  0
   12.7608  -21.0215   19.8149 O   0  0  0  0  0  0  0  0  0  0  0  0
   11.9303  -18.8349   20.0840 C   0  0  0  0  0  0  0  0  0  0  0  0
   11.8835  -17.8133   21.1618 C   0  0  0  0  0  0  0  0  0  0  0  0
   10.4974  -17.4180   21.6025 C   0  0  2  0  0  0  0  0  0  0  0  0
    9.8919  -16.7888   20.4141 N   0  0  0  0  0  0  0  0  0  0  0  0
   10.6067  -16.3867   22.6594 C   0  0  0  0  0  0  0  0  0  0  0  0
   10.9996  -15.2064   22.4684 O   0  0  0  0  0  0  0  0  0  0  0  0
    5.7829  -11.0704   27.0211 O   0  0  0  0  0  0  0  0  0  0  0  0
    6.4619  -12.0462   26.2894 C   0  0  0  0  0  0  0  0  0  0  0  0
    7.8027  -11.8980   25.9991 C   0  0  0  0  0  0  0  0  0  0  0  0
    8.5111  -12.8583   25.2678 C   0  0  0  0  0  0  0  0  0  0  0  0
    7.8631  -13.9875   24.8195 C   0  0  0  0  0  0  0  0  0  0  0  0
    8.5910  -15.0188   24.0408 C   0  0  0  0  0  0  0  0  0  0  0  0
    9.6623  -15.6980   24.8580 C   0  0  2  0  0  0  0  0  0  0  0  0
   10.2537  -16.7065   24.0017 N   0  0  0  0  0  0  0  0  0  0  0  0
    9.1894  -16.3276   26.0870 C   0  0  0  0  0  0  0  0  0  0  0  0
    8.8276  -17.6677   26.1766 O   0  0  0  0  0  0  0  0  0  0  0  0
    6.5189  -14.1335   25.1120 C   0  0  0  0  0  0  0  0  0  0  0  0
    5.8214  -13.1809   25.8360 C   0  0  0  0  0  0  0  0  0  0  0  0
    9.0904  -15.6537   27.1415 O   0  0  0  0  0  0  0  0  0  0  0  0
  2  1  1  6
  2  3  1  0
  4  9  1  0
  4  3  1  0
  5  4  2  0
  6  7  2  0
  6  5  1  0
  7  8  1  0
  8  9  2  0
 10  2  1  0
 10 11  2  0
 12 13  1  0
 13 15  1  0
 14 13  2  0
 15 16  1  0
 17 16  1  6
 17 18  1  0
 18 10  1  0
 19 17  1  0
 20 19  2  0
 22 23  2  0
 22 21  1  0
 24 23  1  0
 25 24  2  0
 26 25  1  0
 27 26  1  6
 27 28  1  0
 28 19  1  0
 29 27  1  0
 30 29  1  0
 31 25  1  0
 31 32  2  0
 32 22  1  0
 33 29  2  0
M  END
$$$$
