FQY.pdb
     RDKit          3D

 33 34  0  0  1  0  0  0  0  0999 V2000
    5.7194  -16.9322   24.9364 N   0  0  0  0  0  0  0  0  0  0  0  0
    6.7453  -16.0143   24.5205 C   0  0  1  0  0  0  0  0  0  0  0  0
    7.6185  -15.5486   25.6659 C   0  0  0  0  0  0  0  0  0  0  0  0
    7.2381  -14.2190   26.1615 C   0  0  0  0  0  0  0  0  0  0  0  0
    6.2461  -14.0922   27.1070 C   0  0  0  0  0  0  0  0  0  0  0  0
    5.8795  -12.8262   27.5832 C   0  0  0  0  0  0  0  0  0  0  0  0
    6.5023  -11.7066   27.1143 C   0  0  0  0  0  0  0  0  0  0  0  0
    7.4940  -11.8245   26.1700 C   0  0  0  0  0  0  0  0  0  0  0  0
    7.8569  -13.0839   25.6980 C   0  0  0  0  0  0  0  0  0  0  0  0
    7.6479  -16.6747   23.5276 C   0  0  0  0  0  0  0  0  0  0  0  0
    7.7275  -17.9229   23.4271 O   0  0  0  0  0  0  0  0  0  0  0  0
    9.3198  -14.3169   18.2373 N   0  0  0  0  0  0  0  0  0  0  0  0
    8.6806  -13.6903   19.3315 C   0  0  0  0  0  0  0  0  0  0  0  0
    8.1933  -12.5377   19.2789 O   0  0  0  0  0  0  0  0  0  0  0  0
    8.5836  -14.4409   20.6087 C   0  0  0  0  0  0  0  0  0  0  0  0
    9.2936  -15.7388   20.4703 C   0  0  0  0  0  0  0  0  0  0  0  0
    9.3284  -16.5802   21.7203 C   0  0  2  0  0  0  0  0  0  0  0  0
    8.4428  -15.8790   22.6684 N   0  0  0  0  0  0  0  0  0  0  0  0
   10.7010  -16.5572   22.2752 C   0  0  0  0  0  0  0  0  0  0  0  0
   11.7412  -16.8279   21.6205 O   0  0  0  0  0  0  0  0  0  0  0  0
    9.1621  -13.4252   29.0393 O   0  0  0  0  0  0  0  0  0  0  0  0
    9.8466  -14.3109   28.2052 C   0  0  0  0  0  0  0  0  0  0  0  0
    9.1702  -15.0313   27.2421 C   0  0  0  0  0  0  0  0  0  0  0  0
    9.8280  -15.9267   26.3910 C   0  0  0  0  0  0  0  0  0  0  0  0
   11.1886  -16.1027   26.5078 C   0  0  0  0  0  0  0  0  0  0  0  0
   11.9085  -17.0472   25.6192 C   0  0  0  0  0  0  0  0  0  0  0  0
   12.1947  -16.4477   24.2644 C   0  0  2  0  0  0  0  0  0  0  0  0
   10.9081  -16.2104   23.6410 N   0  0  0  0  0  0  0  0  0  0  0  0
   13.0090  -17.2807   23.3849 C   0  0  0  0  0  0  0  0  0  0  0  0
   12.6402  -18.5570   22.9731 O   0  0  0  0  0  0  0  0  0  0  0  0
   11.8642  -15.3792   27.4741 C   0  0  0  0  0  0  0  0  0  0  0  0
   11.2096  -14.4940   28.3145 C   0  0  0  0  0  0  0  0  0  0  0  0
   14.1097  -16.8550   22.9566 O   0  0  0  0  0  0  0  0  0  0  0  0
  2  1  1  1
  2  3  1  0
  4  9  1  0
  4  3  1  0
  5  4  2  0
  6  7  2  0
  6  5  1  0
  7  8  1  0
  8  9  2  0
 10  2  1  0
 10 11  2  0
 12 13  1  0
 13 15  1  0
 14 13  2  0
 15 16  1  0
 17 16  1  6
 17 18  1  0
 18 10  1  0
 19 17  1  0
 20 19  2  0
 22 23  2  0
 22 21  1  0
 24 23  1  0
 25 24  2  0
 26 25  1  0
 27 26  1  1
 27 28  1  0
 28 19  1  0
 29 27  1  0
 30 29  1  0
 31 25  1  0
 31 32  2  0
 32 22  1  0
 33 29  2  0
M  END
$$$$
