PHS.pdb
     RDKit          3D

 24 25  0  0  1  0  0  0  0  0999 V2000
   28.4161  -20.5862  -17.1545 N   0  0  0  0  0  0  0  0  0  0  0  0
   29.6623  -20.7539  -17.8663 C   0  0  0  0  0  0  0  0  0  0  0  0
   30.0415  -22.1952  -17.7930 C   0  0  0  0  0  0  0  0  0  0  0  0
   28.9933  -22.8047  -16.9186 C   0  0  0  0  0  0  0  0  0  0  0  0
   27.8075  -21.8894  -17.0589 C   0  0  1  0  0  0  0  0  0  0  0  0
   26.9069  -21.9396  -15.8894 C   0  0  0  0  0  0  0  0  0  0  0  0
   26.1767  -22.9637  -15.6993 O   0  0  0  0  0  0  0  0  0  0  0  0
   26.7901  -20.9047  -14.9349 N   0  0  0  0  0  0  0  0  0  0  0  0
   25.9017  -20.9839  -13.7982 C   0  0  1  0  0  0  0  0  0  0  0  0
   26.5737  -20.5306  -12.5221 C   0  0  0  0  0  0  0  0  0  0  0  0
   25.6757  -20.6031  -11.3554 C   0  0  0  0  0  0  0  0  0  0  0  0
   24.3483  -20.9815  -11.2840 C   0  0  0  0  0  0  0  0  0  0  0  0
   23.9167  -20.8999  -10.0132 N   0  0  0  0  0  0  0  0  0  0  0  0
   24.9506  -20.4737   -9.2679 C   0  0  0  0  0  0  0  0  0  0  0  0
   26.0154  -20.2958  -10.0913 N   0  0  0  0  0  0  0  0  0  0  0  0
   24.6744  -20.1546  -14.0174 C   0  0  0  0  0  0  0  0  0  0  0  0
   24.7614  -18.9232  -14.2853 O   0  0  0  0  0  0  0  0  0  0  0  0
   20.5397  -19.7018  -15.9198 O   0  0  0  0  0  0  0  0  0  0  0  0
   21.6320  -20.5462  -15.6144 C   0  0  0  0  0  0  0  0  0  0  0  0
   22.1495  -20.0852  -14.2737 C   0  0  2  0  0  0  0  0  0  0  0  0
   23.3938  -20.7425  -13.9272 N   0  0  0  0  0  0  0  0  0  0  0  0
   21.1241  -20.1731  -13.1970 C   0  0  0  0  0  0  0  0  0  0  0  0
   20.2329  -19.1433  -13.0074 O   0  0  0  0  0  0  0  0  0  0  0  0
   21.1309  -21.2182  -12.5010 O   0  0  0  0  0  0  0  0  0  0  0  0
  1  2  1  0
  1  5  1  0
  2  3  1  0
  3  4  1  0
  5  6  1  1
  5  4  1  0
  6  8  1  0
  7  6  2  0
  8  9  1  0
  9 16  1  0
 10 11  1  0
  9 10  1  1
 11 12  2  0
 13 12  1  0
 14 13  1  0
 15 14  2  0
 15 11  1  0
 16 21  1  0
 16 17  2  0
 18 19  1  0
 20 19  1  6
 20 22  1  0
 21 20  1  0
 22 24  2  0
 22 23  1  0
M  END
$$$$
