PHS.pdb
     RDKit          3D

 24 25  0  0  1  0  0  0  0  0999 V2000
   24.3490  -11.4286  -15.7009 N   0  0  0  0  0  0  0  0  0  0  0  0
   24.7068  -12.8275  -15.6451 C   0  0  0  0  0  0  0  0  0  0  0  0
   24.5386  -13.3983  -17.0134 C   0  0  0  0  0  0  0  0  0  0  0  0
   23.9732  -12.2692  -17.8134 C   0  0  0  0  0  0  0  0  0  0  0  0
   24.4199  -11.0310  -17.0847 C   0  0  1  0  0  0  0  0  0  0  0  0
   23.5298   -9.8768  -17.3228 C   0  0  0  0  0  0  0  0  0  0  0  0
   23.4916   -9.3369  -18.4740 O   0  0  0  0  0  0  0  0  0  0  0  0
   22.6906   -9.3077  -16.3391 N   0  0  0  0  0  0  0  0  0  0  0  0
   21.7747   -8.2265  -16.6210 C   0  0  1  0  0  0  0  0  0  0  0  0
   20.3608   -8.5586  -16.2011 C   0  0  0  0  0  0  0  0  0  0  0  0
   20.2537   -8.8467  -14.7594 C   0  0  0  0  0  0  0  0  0  0  0  0
   21.2492   -9.0262  -13.8176 C   0  0  0  0  0  0  0  0  0  0  0  0
   20.7021   -9.2705  -12.6139 N   0  0  0  0  0  0  0  0  0  0  0  0
   19.3677   -9.2501  -12.7714 C   0  0  0  0  0  0  0  0  0  0  0  0
   19.1038   -8.9919  -14.0780 N   0  0  0  0  0  0  0  0  0  0  0  0
   22.2000   -6.9686  -15.9290 C   0  0  0  0  0  0  0  0  0  0  0  0
   22.9205   -7.0089  -14.8921 O   0  0  0  0  0  0  0  0  0  0  0  0
   22.9582   -3.7233  -17.9924 O   0  0  0  0  0  0  0  0  0  0  0  0
   22.1101   -3.3356  -16.9295 C   0  0  0  0  0  0  0  0  0  0  0  0
   22.2154   -4.4300  -15.8955 C   0  0  2  0  0  0  0  0  0  0  0  0
   21.7986   -5.7110  -16.4301 N   0  0  0  0  0  0  0  0  0  0  0  0
   21.5366   -4.0835  -14.6158 C   0  0  0  0  0  0  0  0  0  0  0  0
   22.1826   -3.3108  -13.6796 O   0  0  0  0  0  0  0  0  0  0  0  0
   20.3736   -4.5304  -14.4598 O   0  0  0  0  0  0  0  0  0  0  0  0
  1  2  1  0
  1  5  1  0
  2  3  1  0
  3  4  1  0
  5  6  1  1
  5  4  1  0
  6  8  1  0
  7  6  2  0
  8  9  1  0
  9 16  1  0
 10 11  1  0
  9 10  1  1
 11 12  2  0
 13 12  1  0
 14 13  1  0
 15 14  2  0
 15 11  1  0
 16 21  1  0
 16 17  2  0
 18 19  1  0
 20 19  1  6
 20 22  1  0
 21 20  1  0
 22 24  2  0
 22 23  1  0
M  END
$$$$
