PHS.pdb
     RDKit          3D

 24 25  0  0  1  0  0  0  0  0999 V2000
   20.8505  -14.7978  -16.9548 N   0  0  0  0  0  0  0  0  0  0  0  0
   20.9570  -16.1990  -17.2914 C   0  0  0  0  0  0  0  0  0  0  0  0
   20.5934  -16.3533  -18.7303 C   0  0  0  0  0  0  0  0  0  0  0  0
   20.1824  -14.9796  -19.1527 C   0  0  0  0  0  0  0  0  0  0  0  0
   20.8926  -14.0629  -18.1941 C   0  0  1  0  0  0  0  0  0  0  0  0
   20.2073  -12.7646  -18.0328 C   0  0  0  0  0  0  0  0  0  0  0  0
   20.3180  -11.8765  -18.9367 O   0  0  0  0  0  0  0  0  0  0  0  0
   19.4127  -12.4220  -16.9161 N   0  0  0  0  0  0  0  0  0  0  0  0
   18.7718  -11.1347  -16.7761 C   0  0  1  0  0  0  0  0  0  0  0  0
   17.4042  -11.2494  -16.1420 C   0  0  0  0  0  0  0  0  0  0  0  0
   16.6738   -9.9689  -16.1411 C   0  0  0  0  0  0  0  0  0  0  0  0
   16.7014   -8.9351  -17.0580 C   0  0  0  0  0  0  0  0  0  0  0  0
   15.8749   -7.9508  -16.6632 N   0  0  0  0  0  0  0  0  0  0  0  0
   15.3171   -8.3400  -15.5041 C   0  0  0  0  0  0  0  0  0  0  0  0
   15.8081   -9.5673  -15.1941 N   0  0  0  0  0  0  0  0  0  0  0  0
   19.6085  -10.2054  -15.9523 C   0  0  0  0  0  0  0  0  0  0  0  0
   20.2628  -10.6287  -14.9580 O   0  0  0  0  0  0  0  0  0  0  0  0
   22.5696   -6.6831  -15.8004 O   0  0  0  0  0  0  0  0  0  0  0  0
   21.7044   -7.4931  -16.5717 C   0  0  0  0  0  0  0  0  0  0  0  0
   20.5671   -7.8733  -15.6554 C   0  0  2  0  0  0  0  0  0  0  0  0
   19.6780   -8.8334  -16.2785 N   0  0  0  0  0  0  0  0  0  0  0  0
   19.8516   -6.6907  -15.1005 C   0  0  0  0  0  0  0  0  0  0  0  0
   20.1129   -6.2650  -13.8193 O   0  0  0  0  0  0  0  0  0  0  0  0
   19.0237   -6.1298  -15.8598 O   0  0  0  0  0  0  0  0  0  0  0  0
  1  2  1  0
  1  5  1  0
  2  3  1  0
  3  4  1  0
  5  6  1  1
  5  4  1  0
  6  8  1  0
  7  6  2  0
  8  9  1  0
  9 16  1  0
 10 11  1  0
  9 10  1  1
 11 12  2  0
 13 12  1  0
 14 13  1  0
 15 14  2  0
 15 11  1  0
 16 21  1  0
 16 17  2  0
 18 19  1  0
 20 19  1  6
 20 22  1  0
 21 20  1  0
 22 24  2  0
 22 23  1  0
M  END
$$$$
