PHS.pdb
     RDKit          3D

 24 25  0  0  1  0  0  0  0  0999 V2000
   23.2852  -10.3191  -14.7681 N   0  0  0  0  0  0  0  0  0  0  0  0
   24.2610  -11.3834  -14.7148 C   0  0  0  0  0  0  0  0  0  0  0  0
   24.1897  -12.1352  -16.0017 C   0  0  0  0  0  0  0  0  0  0  0  0
   23.0547  -11.4966  -16.7355 C   0  0  0  0  0  0  0  0  0  0  0  0
   22.9660  -10.1100  -16.1582 C   0  0  1  0  0  0  0  0  0  0  0  0
   21.6151   -9.5261  -16.2819 C   0  0  0  0  0  0  0  0  0  0  0  0
   21.1523   -9.2459  -17.4332 O   0  0  0  0  0  0  0  0  0  0  0  0
   20.7700   -9.2457  -15.1851 N   0  0  0  0  0  0  0  0  0  0  0  0
   19.4095   -8.7857  -15.3421 C   0  0  1  0  0  0  0  0  0  0  0  0
   18.4232   -9.6821  -14.6285 C   0  0  0  0  0  0  0  0  0  0  0  0
   18.2094  -10.9591  -15.3333 C   0  0  0  0  0  0  0  0  0  0  0  0
   17.9187  -11.1964  -16.6635 C   0  0  0  0  0  0  0  0  0  0  0  0
   17.8052  -12.5189  -16.8784 N   0  0  0  0  0  0  0  0  0  0  0  0
   18.0194  -13.1333  -15.7026 C   0  0  0  0  0  0  0  0  0  0  0  0
   18.2643  -12.1782  -14.7691 N   0  0  0  0  0  0  0  0  0  0  0  0
   19.2522   -7.3890  -14.8257 C   0  0  0  0  0  0  0  0  0  0  0  0
   19.7857   -7.0347  -13.7368 O   0  0  0  0  0  0  0  0  0  0  0  0
   19.4458   -4.1351  -16.8669 O   0  0  0  0  0  0  0  0  0  0  0  0
   18.1552   -4.1333  -16.2892 C   0  0  0  0  0  0  0  0  0  0  0  0
   18.2230   -5.0870  -15.1215 C   0  0  2  0  0  0  0  0  0  0  0  0
   18.5001   -6.4420  -15.5547 N   0  0  0  0  0  0  0  0  0  0  0  0
   17.0352   -4.9920  -14.2278 C   0  0  0  0  0  0  0  0  0  0  0  0
   16.7805   -3.8287  -13.5404 O   0  0  0  0  0  0  0  0  0  0  0  0
   16.3087   -6.0133  -14.1513 O   0  0  0  0  0  0  0  0  0  0  0  0
  1  2  1  0
  1  5  1  0
  2  3  1  0
  3  4  1  0
  5  6  1  1
  5  4  1  0
  6  8  1  0
  7  6  2  0
  8  9  1  0
  9 16  1  0
 10 11  1  0
  9 10  1  1
 11 12  2  0
 13 12  1  0
 14 13  1  0
 15 14  2  0
 15 11  1  0
 16 21  1  0
 16 17  2  0
 18 19  1  0
 20 19  1  6
 20 22  1  0
 21 20  1  0
 22 24  2  0
 22 23  1  0
M  END
$$$$
