PHS.pdb
     RDKit          3D

 24 25  0  0  1  0  0  0  0  0999 V2000
   20.8892  -11.2566  -16.8787 N   0  0  0  0  0  0  0  0  0  0  0  0
   20.8306  -12.6302  -17.3233 C   0  0  0  0  0  0  0  0  0  0  0  0
   19.3982  -12.9741  -17.5609 C   0  0  0  0  0  0  0  0  0  0  0  0
   18.6528  -11.7519  -17.1305 C   0  0  0  0  0  0  0  0  0  0  0  0
   19.6498  -10.6340  -17.2713 C   0  0  1  0  0  0  0  0  0  0  0  0
   19.3561   -9.4925  -16.3813 C   0  0  0  0  0  0  0  0  0  0  0  0
   18.2643   -8.8535  -16.5147 O   0  0  0  0  0  0  0  0  0  0  0  0
   20.2220   -9.0411  -15.3604 N   0  0  0  0  0  0  0  0  0  0  0  0
   19.9334   -7.8856  -14.5425 C   0  0  1  0  0  0  0  0  0  0  0  0
   19.9993   -8.2062  -13.0666 C   0  0  0  0  0  0  0  0  0  0  0  0
   18.7572   -8.8238  -12.5677 C   0  0  0  0  0  0  0  0  0  0  0  0
   17.6263   -9.2167  -13.2583 C   0  0  0  0  0  0  0  0  0  0  0  0
   16.7266   -9.7369  -12.4051 N   0  0  0  0  0  0  0  0  0  0  0  0
   17.2660   -9.6828  -11.1755 C   0  0  0  0  0  0  0  0  0  0  0  0
   18.4999   -9.1266  -11.2833 N   0  0  0  0  0  0  0  0  0  0  0  0
   20.8866   -6.7687  -14.8360 C   0  0  0  0  0  0  0  0  0  0  0  0
   22.1166   -6.9941  -15.0148 O   0  0  0  0  0  0  0  0  0  0  0  0
   21.3139   -2.0199  -15.7660 O   0  0  0  0  0  0  0  0  0  0  0  0
   20.4196   -3.0275  -15.3364 C   0  0  0  0  0  0  0  0  0  0  0  0
   21.2477   -4.2806  -15.1891 C   0  0  2  0  0  0  0  0  0  0  0  0
   20.4196   -5.4386  -14.9177 N   0  0  0  0  0  0  0  0  0  0  0  0
   22.3664   -4.1234  -14.2184 C   0  0  0  0  0  0  0  0  0  0  0  0
   23.6286   -3.8103  -14.6653 O   0  0  0  0  0  0  0  0  0  0  0  0
   22.0839   -4.2899  -13.0063 O   0  0  0  0  0  0  0  0  0  0  0  0
  1  2  1  0
  1  5  1  0
  2  3  1  0
  3  4  1  0
  5  6  1  1
  5  4  1  0
  6  8  1  0
  7  6  2  0
  8  9  1  0
  9 16  1  0
 10 11  1  0
  9 10  1  1
 11 12  2  0
 13 12  1  0
 14 13  1  0
 15 14  2  0
 15 11  1  0
 16 21  1  0
 16 17  2  0
 18 19  1  0
 20 19  1  1
 20 22  1  0
 21 20  1  0
 22 24  2  0
 22 23  1  0
M  END
$$$$
