PHS.pdb
     RDKit          3D

 24 25  0  0  1  0  0  0  0  0999 V2000
   31.0361  -22.6532  -10.9348 N   0  0  0  0  0  0  0  0  0  0  0  0
   32.3377  -22.8387  -10.3353 C   0  0  0  0  0  0  0  0  0  0  0  0
   32.4331  -21.9288   -9.1566 C   0  0  0  0  0  0  0  0  0  0  0  0
   31.1552  -21.1539   -9.1888 C   0  0  0  0  0  0  0  0  0  0  0  0
   30.1964  -22.0403   -9.9362 C   0  0  1  0  0  0  0  0  0  0  0  0
   29.1096  -21.2825  -10.5889 C   0  0  0  0  0  0  0  0  0  0  0  0
   28.2825  -20.6276   -9.8781 O   0  0  0  0  0  0  0  0  0  0  0  0
   28.9114  -21.2270  -11.9865 N   0  0  0  0  0  0  0  0  0  0  0  0
   27.9769  -20.3184  -12.6097 C   0  0  1  0  0  0  0  0  0  0  0  0
   28.4658  -19.8405  -13.9581 C   0  0  0  0  0  0  0  0  0  0  0  0
   27.5467  -18.8700  -14.5798 C   0  0  0  0  0  0  0  0  0  0  0  0
   26.3898  -18.3029  -14.0796 C   0  0  0  0  0  0  0  0  0  0  0  0
   25.8615  -17.4639  -14.9878 N   0  0  0  0  0  0  0  0  0  0  0  0
   26.6650  -17.4854  -16.0648 C   0  0  0  0  0  0  0  0  0  0  0  0
   27.6865  -18.3424  -15.8084 N   0  0  0  0  0  0  0  0  0  0  0  0
   26.6366  -20.9629  -12.7838 C   0  0  0  0  0  0  0  0  0  0  0  0
   26.5159  -22.0523  -13.4119 O   0  0  0  0  0  0  0  0  0  0  0  0
   23.4891  -19.5535  -10.4624 O   0  0  0  0  0  0  0  0  0  0  0  0
   23.5914  -20.9239  -10.7957 C   0  0  0  0  0  0  0  0  0  0  0  0
   24.1683  -20.9689  -12.1896 C   0  0  2  0  0  0  0  0  0  0  0  0
   25.4810  -20.3572  -12.2439 N   0  0  0  0  0  0  0  0  0  0  0  0
   23.2336  -20.4359  -13.2195 C   0  0  0  0  0  0  0  0  0  0  0  0
   22.0163  -21.0414  -13.4257 O   0  0  0  0  0  0  0  0  0  0  0  0
   23.6225  -19.4294  -13.8617 O   0  0  0  0  0  0  0  0  0  0  0  0
  1  2  1  0
  1  5  1  0
  2  3  1  0
  3  4  1  0
  5  6  1  6
  5  4  1  0
  6  8  1  0
  7  6  2  0
  8  9  1  0
  9 16  1  0
 10 11  1  0
  9 10  1  6
 11 12  2  0
 13 12  1  0
 14 13  1  0
 15 14  2  0
 15 11  1  0
 16 21  1  0
 16 17  2  0
 18 19  1  0
 20 19  1  1
 20 22  1  0
 21 20  1  0
 22 24  2  0
 22 23  1  0
M  END
$$$$
