PHS.pdb
     RDKit          3D

 24 25  0  0  1  0  0  0  0  0999 V2000
   26.3323  -32.6327   -8.7356 N   0  0  0  0  0  0  0  0  0  0  0  0
   26.4580  -32.2772  -10.1305 C   0  0  0  0  0  0  0  0  0  0  0  0
   25.5640  -33.1780  -10.9152 C   0  0  0  0  0  0  0  0  0  0  0  0
   25.0087  -34.1200   -9.8960 C   0  0  0  0  0  0  0  0  0  0  0  0
   25.0985  -33.3652   -8.5976 C   0  0  1  0  0  0  0  0  0  0  0  0
   25.1718  -34.2576   -7.4230 C   0  0  0  0  0  0  0  0  0  0  0  0
   24.1651  -34.9682   -7.1072 O   0  0  0  0  0  0  0  0  0  0  0  0
   26.3103  -34.3871   -6.5967 N   0  0  0  0  0  0  0  0  0  0  0  0
   26.3715  -35.3096   -5.4865 C   0  0  1  0  0  0  0  0  0  0  0  0
   27.7502  -35.9082   -5.3236 C   0  0  0  0  0  0  0  0  0  0  0  0
   28.0594  -36.9039   -6.3657 C   0  0  0  0  0  0  0  0  0  0  0  0
   27.2647  -37.3910   -7.3862 C   0  0  0  0  0  0  0  0  0  0  0  0
   27.9510  -38.2924   -8.1104 N   0  0  0  0  0  0  0  0  0  0  0  0
   29.1763  -38.3899   -7.5674 C   0  0  0  0  0  0  0  0  0  0  0  0
   29.2338  -37.5429   -6.5078 N   0  0  0  0  0  0  0  0  0  0  0  0
   25.9845  -34.6356   -4.2066 C   0  0  0  0  0  0  0  0  0  0  0  0
   26.3811  -33.4656   -3.9425 O   0  0  0  0  0  0  0  0  0  0  0  0
   22.5008  -34.2303   -2.9748 O   0  0  0  0  0  0  0  0  0  0  0  0
   23.1256  -34.9858   -1.9558 C   0  0  0  0  0  0  0  0  0  0  0  0
   24.6031  -34.7029   -2.0776 C   0  0  2  0  0  0  0  0  0  0  0  0
   25.1648  -35.3036   -3.2709 N   0  0  0  0  0  0  0  0  0  0  0  0
   25.3607  -35.0438   -0.8413 C   0  0  0  0  0  0  0  0  0  0  0  0
   25.0333  -34.4489    0.3544 O   0  0  0  0  0  0  0  0  0  0  0  0
   26.2855  -35.8841   -0.9649 O   0  0  0  0  0  0  0  0  0  0  0  0
  1  2  1  0
  1  5  1  0
  2  3  1  0
  3  4  1  0
  5  6  1  1
  5  4  1  0
  6  8  1  0
  7  6  2  0
  8  9  1  0
  9 16  1  0
 10 11  1  0
  9 10  1  1
 11 12  2  0
 13 12  1  0
 14 13  1  0
 15 14  2  0
 15 11  1  0
 16 21  1  0
 16 17  2  0
 18 19  1  0
 20 19  1  1
 20 22  1  0
 21 20  1  0
 22 24  2  0
 22 23  1  0
M  END
$$$$
