PHS.pdb
     RDKit          3D

 24 25  0  0  1  0  0  0  0  0999 V2000
   23.2770  -12.3274  -15.1899 N   0  0  0  0  0  0  0  0  0  0  0  0
   23.4014  -13.7669  -15.2071 C   0  0  0  0  0  0  0  0  0  0  0  0
   23.5858  -14.1938  -16.6249 C   0  0  0  0  0  0  0  0  0  0  0  0
   23.4581  -12.9267  -17.4076 C   0  0  0  0  0  0  0  0  0  0  0  0
   23.8262  -11.8427  -16.4314 C   0  0  1  0  0  0  0  0  0  0  0  0
   23.2231  -10.5386  -16.7732 C   0  0  0  0  0  0  0  0  0  0  0  0
   23.6070   -9.9204  -17.8165 O   0  0  0  0  0  0  0  0  0  0  0  0
   22.2205   -9.9043  -16.0062 N   0  0  0  0  0  0  0  0  0  0  0  0
   21.5106   -8.7312  -16.4614 C   0  0  1  0  0  0  0  0  0  0  0  0
   20.0439   -9.0129  -16.6960 C   0  0  0  0  0  0  0  0  0  0  0  0
   19.8141   -9.8524  -17.8857 C   0  0  0  0  0  0  0  0  0  0  0  0
   19.9163   -9.5323  -19.2263 C   0  0  0  0  0  0  0  0  0  0  0  0
   19.6161  -10.6061  -19.9777 N   0  0  0  0  0  0  0  0  0  0  0  0
   19.3223  -11.6117  -19.1359 C   0  0  0  0  0  0  0  0  0  0  0  0
   19.4451  -11.1451  -17.8667 N   0  0  0  0  0  0  0  0  0  0  0  0
   21.6345   -7.6122  -15.4742 C   0  0  0  0  0  0  0  0  0  0  0  0
   21.5847   -7.8333  -14.2315 O   0  0  0  0  0  0  0  0  0  0  0  0
   23.0477   -3.0242  -14.8882 O   0  0  0  0  0  0  0  0  0  0  0  0
   22.7618   -4.0318  -15.8382 C   0  0  0  0  0  0  0  0  0  0  0  0
   22.0994   -5.1492  -15.0699 C   0  0  2  0  0  0  0  0  0  0  0  0
   21.8102   -6.2849  -15.9227 N   0  0  0  0  0  0  0  0  0  0  0  0
   20.9174   -4.6915  -14.2878 C   0  0  0  0  0  0  0  0  0  0  0  0
   21.0622   -4.3232  -12.9709 O   0  0  0  0  0  0  0  0  0  0  0  0
   19.8191   -4.6656  -14.8960 O   0  0  0  0  0  0  0  0  0  0  0  0
  1  2  1  0
  1  5  1  0
  2  3  1  0
  3  4  1  0
  5  6  1  6
  5  4  1  0
  6  8  1  0
  7  6  2  0
  8  9  1  0
  9 16  1  0
 10 11  1  0
  9 10  1  1
 11 12  2  0
 13 12  1  0
 14 13  1  0
 15 14  2  0
 15 11  1  0
 16 21  1  0
 16 17  2  0
 18 19  1  0
 20 19  1  6
 20 22  1  0
 21 20  1  0
 22 24  2  0
 22 23  1  0
M  END
$$$$
