PHS.pdb
     RDKit          3D

 24 25  0  0  1  0  0  0  0  0999 V2000
   24.0033  -12.3521  -15.2207 N   0  0  0  0  0  0  0  0  0  0  0  0
   24.0442  -13.7693  -14.9421 C   0  0  0  0  0  0  0  0  0  0  0  0
   23.6234  -14.4915  -16.1782 C   0  0  0  0  0  0  0  0  0  0  0  0
   23.2500  -13.4006  -17.1295 C   0  0  0  0  0  0  0  0  0  0  0  0
   24.0287  -12.2041  -16.6544 C   0  0  1  0  0  0  0  0  0  0  0  0
   23.3994  -10.9246  -17.0394 C   0  0  0  0  0  0  0  0  0  0  0  0
   23.6070  -10.4435  -18.1986 O   0  0  0  0  0  0  0  0  0  0  0  0
   22.5578  -10.1695  -16.1925 N   0  0  0  0  0  0  0  0  0  0  0  0
   21.9416   -8.9292  -16.6040 C   0  0  1  0  0  0  0  0  0  0  0  0
   20.4330   -9.0261  -16.6239 C   0  0  0  0  0  0  0  0  0  0  0  0
   19.9319   -9.7847  -17.7843 C   0  0  0  0  0  0  0  0  0  0  0  0
   20.3147   -9.7255  -19.1110 C   0  0  0  0  0  0  0  0  0  0  0  0
   19.5913  -10.5970  -19.8356 N   0  0  0  0  0  0  0  0  0  0  0  0
   18.7489  -11.2149  -18.9904 C   0  0  0  0  0  0  0  0  0  0  0  0
   18.9624  -10.7154  -17.7460 N   0  0  0  0  0  0  0  0  0  0  0  0
   22.3404   -7.8055  -15.6983 C   0  0  0  0  0  0  0  0  0  0  0  0
   22.4435   -7.9808  -14.4515 O   0  0  0  0  0  0  0  0  0  0  0  0
   23.8008   -3.1716  -15.4822 O   0  0  0  0  0  0  0  0  0  0  0  0
   23.3088   -4.1827  -16.3395 C   0  0  0  0  0  0  0  0  0  0  0  0
   23.0237   -5.3724  -15.4556 C   0  0  2  0  0  0  0  0  0  0  0  0
   22.6089   -6.5252  -16.2299 N   0  0  0  0  0  0  0  0  0  0  0  0
   22.0904   -5.0529  -14.3397 C   0  0  0  0  0  0  0  0  0  0  0  0
   22.5837   -4.7640  -13.0891 O   0  0  0  0  0  0  0  0  0  0  0  0
   20.8650   -5.0646  -14.6136 O   0  0  0  0  0  0  0  0  0  0  0  0
  1  2  1  0
  1  5  1  0
  2  3  1  0
  3  4  1  0
  5  6  1  1
  5  4  1  0
  6  8  1  0
  7  6  2  0
  8  9  1  0
  9 16  1  0
 10 11  1  0
  9 10  1  1
 11 12  2  0
 13 12  1  0
 14 13  1  0
 15 14  2  0
 15 11  1  0
 16 21  1  0
 16 17  2  0
 18 19  1  0
 20 19  1  6
 20 22  1  0
 21 20  1  0
 22 24  2  0
 22 23  1  0
M  END
$$$$
