PHS.pdb
     RDKit          3D

 24 25  0  0  1  0  0  0  0  0999 V2000
   26.4106  -20.3285  -16.1690 N   0  0  0  0  0  0  0  0  0  0  0  0
   27.8205  -20.0851  -16.3711 C   0  0  0  0  0  0  0  0  0  0  0  0
   28.5719  -21.2363  -15.7911 C   0  0  0  0  0  0  0  0  0  0  0  0
   27.5128  -22.0865  -15.1666 C   0  0  0  0  0  0  0  0  0  0  0  0
   26.2585  -21.7406  -15.9220 C   0  0  1  0  0  0  0  0  0  0  0  0
   25.0330  -21.9846  -15.1348 C   0  0  0  0  0  0  0  0  0  0  0  0
   24.7624  -23.1625  -14.7381 O   0  0  0  0  0  0  0  0  0  0  0  0
   24.1083  -20.9783  -14.7767 N   0  0  0  0  0  0  0  0  0  0  0  0
   22.9590  -21.2328  -13.9390 C   0  0  1  0  0  0  0  0  0  0  0  0
   22.9688  -20.3801  -12.6906 C   0  0  0  0  0  0  0  0  0  0  0  0
   24.0321  -20.7724  -11.7480 C   0  0  0  0  0  0  0  0  0  0  0  0
   24.9448  -21.8073  -11.8263 C   0  0  0  0  0  0  0  0  0  0  0  0
   25.7388  -21.8005  -10.7412 N   0  0  0  0  0  0  0  0  0  0  0  0
   25.3471  -20.7740   -9.9674 C   0  0  0  0  0  0  0  0  0  0  0  0
   24.3095  -20.1546  -10.5866 N   0  0  0  0  0  0  0  0  0  0  0  0
   21.6851  -20.9810  -14.6846 C   0  0  0  0  0  0  0  0  0  0  0  0
   21.5558  -19.9666  -15.4263 O   0  0  0  0  0  0  0  0  0  0  0  0
   17.1517  -22.5526  -15.4937 O   0  0  0  0  0  0  0  0  0  0  0  0
   18.3480  -22.8060  -14.7837 C   0  0  0  0  0  0  0  0  0  0  0  0
   19.2860  -21.6776  -15.1368 C   0  0  2  0  0  0  0  0  0  0  0  0
   20.6034  -21.8809  -14.5679 N   0  0  0  0  0  0  0  0  0  0  0  0
   18.7182  -20.3358  -14.8276 C   0  0  0  0  0  0  0  0  0  0  0  0
   18.1679  -19.5720  -15.8300 O   0  0  0  0  0  0  0  0  0  0  0  0
   18.7748  -19.9662  -13.6289 O   0  0  0  0  0  0  0  0  0  0  0  0
  1  2  1  0
  1  5  1  0
  2  3  1  0
  3  4  1  0
  5  6  1  1
  5  4  1  0
  6  8  1  0
  7  6  2  0
  8  9  1  0
  9 16  1  0
 10 11  1  0
  9 10  1  1
 11 12  2  0
 13 12  1  0
 14 13  1  0
 15 14  2  0
 15 11  1  0
 16 21  1  0
 16 17  2  0
 18 19  1  0
 20 19  1  1
 20 22  1  0
 21 20  1  0
 22 24  2  0
 22 23  1  0
M  END
$$$$
