PHS.pdb
     RDKit          3D

 24 25  0  0  1  0  0  0  0  0999 V2000
   28.0594  -21.8284  -11.3808 N   0  0  0  0  0  0  0  0  0  0  0  0
   29.4240  -22.1801  -11.0613 C   0  0  0  0  0  0  0  0  0  0  0  0
   30.2557  -20.9474  -11.1850 C   0  0  0  0  0  0  0  0  0  0  0  0
   29.3017  -19.9118  -11.6868 C   0  0  0  0  0  0  0  0  0  0  0  0
   27.9496  -20.3980  -11.2405 C   0  0  1  0  0  0  0  0  0  0  0  0
   26.8526  -19.8918  -12.0901 C   0  0  0  0  0  0  0  0  0  0  0  0
   26.6275  -18.6413  -12.1507 O   0  0  0  0  0  0  0  0  0  0  0  0
   26.0068  -20.7158  -12.8656 N   0  0  0  0  0  0  0  0  0  0  0  0
   24.9584  -20.1892  -13.7088 C   0  0  1  0  0  0  0  0  0  0  0  0
   25.2076  -20.4817  -15.1709 C   0  0  0  0  0  0  0  0  0  0  0  0
   26.2967  -19.6622  -15.7324 C   0  0  0  0  0  0  0  0  0  0  0  0
   27.0653  -18.6828  -15.1321 C   0  0  0  0  0  0  0  0  0  0  0  0
   27.9501  -18.1893  -16.0162 N   0  0  0  0  0  0  0  0  0  0  0  0
   27.7589  -18.8397  -17.1765 C   0  0  0  0  0  0  0  0  0  0  0  0
   26.7524  -19.7329  -16.9953 N   0  0  0  0  0  0  0  0  0  0  0  0
   23.6260  -20.7542  -13.3245 C   0  0  0  0  0  0  0  0  0  0  0  0
   23.5391  -21.8562  -12.7132 O   0  0  0  0  0  0  0  0  0  0  0  0
   20.3340  -18.5899  -12.3011 O   0  0  0  0  0  0  0  0  0  0  0  0
   20.0912  -19.4029  -13.4322 C   0  0  0  0  0  0  0  0  0  0  0  0
   21.0977  -20.5250  -13.3592 C   0  0  2  0  0  0  0  0  0  0  0  0
   22.4399  -20.0572  -13.6426 N   0  0  0  0  0  0  0  0  0  0  0  0
   20.7070  -21.7063  -14.1781 C   0  0  0  0  0  0  0  0  0  0  0  0
   19.9307  -22.6997  -13.6292 O   0  0  0  0  0  0  0  0  0  0  0  0
   21.1213  -21.7281  -15.3632 O   0  0  0  0  0  0  0  0  0  0  0  0
  1  2  1  0
  1  5  1  0
  2  3  1  0
  3  4  1  0
  5  6  1  6
  5  4  1  0
  6  8  1  0
  7  6  2  0
  8  9  1  0
  9 16  1  0
 10 11  1  0
  9 10  1  6
 11 12  2  0
 13 12  1  0
 14 13  1  0
 15 14  2  0
 15 11  1  0
 16 21  1  0
 16 17  2  0
 18 19  1  0
 20 19  1  6
 20 22  1  0
 21 20  1  0
 22 24  2  0
 22 23  1  0
M  END
$$$$
