PHS.pdb
     RDKit          3D

 24 25  0  0  1  0  0  0  0  0999 V2000
   16.1534  -11.5627  -14.6689 N   0  0  0  0  0  0  0  0  0  0  0  0
   15.0979  -12.5323  -14.8521 C   0  0  0  0  0  0  0  0  0  0  0  0
   15.6511  -13.6668  -15.6480 C   0  0  0  0  0  0  0  0  0  0  0  0
   17.0417  -13.2334  -15.9840 C   0  0  0  0  0  0  0  0  0  0  0  0
   17.3996  -12.2474  -14.9055 C   0  0  1  0  0  0  0  0  0  0  0  0
   18.4308  -11.2813  -15.3353 C   0  0  0  0  0  0  0  0  0  0  0  0
   19.6117  -11.6864  -15.5794 O   0  0  0  0  0  0  0  0  0  0  0  0
   18.1994   -9.8977  -15.5017 N   0  0  0  0  0  0  0  0  0  0  0  0
   19.1909   -8.9972  -16.0434 C   0  0  1  0  0  0  0  0  0  0  0  0
   18.8225   -8.5170  -17.4288 C   0  0  0  0  0  0  0  0  0  0  0  0
   18.9125   -9.5868  -18.4390 C   0  0  0  0  0  0  0  0  0  0  0  0
   20.0268  -10.2014  -18.9784 C   0  0  0  0  0  0  0  0  0  0  0  0
   19.6487  -11.1307  -19.8736 N   0  0  0  0  0  0  0  0  0  0  0  0
   18.3055  -11.1201  -19.9155 C   0  0  0  0  0  0  0  0  0  0  0  0
   17.8663  -10.1791  -19.0408 N   0  0  0  0  0  0  0  0  0  0  0  0
   19.3776   -7.8068  -15.1545 C   0  0  0  0  0  0  0  0  0  0  0  0
   18.4102   -7.3273  -14.4987 O   0  0  0  0  0  0  0  0  0  0  0  0
   22.6363   -4.8892  -13.0521 O   0  0  0  0  0  0  0  0  0  0  0  0
   22.4602   -5.9305  -13.9925 C   0  0  0  0  0  0  0  0  0  0  0  0
   20.9686   -6.1106  -14.1362 C   0  0  2  0  0  0  0  0  0  0  0  0
   20.6470   -7.1998  -15.0365 N   0  0  0  0  0  0  0  0  0  0  0  0
   20.2637   -4.8439  -14.4784 C   0  0  0  0  0  0  0  0  0  0  0  0
   19.6638   -4.0997  -13.4899 O   0  0  0  0  0  0  0  0  0  0  0  0
   20.2582   -4.5157  -15.6903 O   0  0  0  0  0  0  0  0  0  0  0  0
  1  2  1  0
  1  5  1  0
  2  3  1  0
  3  4  1  0
  5  6  1  6
  5  4  1  0
  6  8  1  0
  7  6  2  0
  8  9  1  0
  9 16  1  0
 10 11  1  0
  9 10  1  6
 11 12  2  0
 13 12  1  0
 14 13  1  0
 15 14  2  0
 15 11  1  0
 16 21  1  0
 16 17  2  0
 18 19  1  0
 20 19  1  6
 20 22  1  0
 21 20  1  0
 22 24  2  0
 22 23  1  0
M  END
$$$$
