PHS.pdb
     RDKit          3D

 24 25  0  0  1  0  0  0  0  0999 V2000
   28.5906  -22.0143  -11.9235 N   0  0  0  0  0  0  0  0  0  0  0  0
   29.9904  -22.2607  -11.6635 C   0  0  0  0  0  0  0  0  0  0  0  0
   30.6096  -20.9737  -11.2315 C   0  0  0  0  0  0  0  0  0  0  0  0
   29.5044  -19.9753  -11.3599 C   0  0  0  0  0  0  0  0  0  0  0  0
   28.2453  -20.7908  -11.2441 C   0  0  1  0  0  0  0  0  0  0  0  0
   27.0905  -20.1544  -11.9094 C   0  0  0  0  0  0  0  0  0  0  0  0
   26.7054  -19.0006  -11.5371 O   0  0  0  0  0  0  0  0  0  0  0  0
   26.3570  -20.7472  -12.9612 N   0  0  0  0  0  0  0  0  0  0  0  0
   25.2725  -20.0730  -13.6371 C   0  0  1  0  0  0  0  0  0  0  0  0
   25.4279  -20.1174  -15.1402 C   0  0  0  0  0  0  0  0  0  0  0  0
   26.5791  -19.3267  -15.6119 C   0  0  0  0  0  0  0  0  0  0  0  0
   27.7953  -19.7495  -16.1142 C   0  0  0  0  0  0  0  0  0  0  0  0
   28.5572  -18.6859  -16.4245 N   0  0  0  0  0  0  0  0  0  0  0  0
   27.8451  -17.5856  -16.1276 C   0  0  0  0  0  0  0  0  0  0  0  0
   26.6444  -17.9840  -15.6343 N   0  0  0  0  0  0  0  0  0  0  0  0
   23.9529  -20.6784  -13.2709 C   0  0  0  0  0  0  0  0  0  0  0  0
   23.7208  -21.9033  -13.4747 O   0  0  0  0  0  0  0  0  0  0  0  0
   19.7886  -19.9891  -10.8867 O   0  0  0  0  0  0  0  0  0  0  0  0
   20.9286  -19.3363  -11.4099 C   0  0  0  0  0  0  0  0  0  0  0  0
   21.6559  -20.3704  -12.2342 C   0  0  2  0  0  0  0  0  0  0  0  0
   22.9427  -19.8822  -12.6883 N   0  0  0  0  0  0  0  0  0  0  0  0
   20.8202  -20.9234  -13.3361 C   0  0  0  0  0  0  0  0  0  0  0  0
   20.0431  -22.0371  -13.1202 O   0  0  0  0  0  0  0  0  0  0  0  0
   20.8734  -20.3204  -14.4362 O   0  0  0  0  0  0  0  0  0  0  0  0
  1  2  1  0
  1  5  1  0
  2  3  1  0
  3  4  1  0
  5  6  1  6
  5  4  1  0
  6  8  1  0
  7  6  2  0
  8  9  1  0
  9 16  1  0
 10 11  1  0
  9 10  1  6
 11 12  2  0
 13 12  1  0
 14 13  1  0
 15 14  2  0
 15 11  1  0
 16 21  1  0
 16 17  2  0
 18 19  1  0
 20 19  1  6
 20 22  1  0
 21 20  1  0
 22 24  2  0
 22 23  1  0
M  END
$$$$
