PHS.pdb
     RDKit          3D

 24 25  0  0  1  0  0  0  0  0999 V2000
   33.0644  -35.5186   -6.7075 N   0  0  0  0  0  0  0  0  0  0  0  0
   34.0155  -36.0493   -7.6571 C   0  0  0  0  0  0  0  0  0  0  0  0
   34.7773  -37.1401   -6.9816 C   0  0  0  0  0  0  0  0  0  0  0  0
   34.2703  -37.1232   -5.5755 C   0  0  0  0  0  0  0  0  0  0  0  0
   32.8987  -36.5132   -5.6773 C   0  0  1  0  0  0  0  0  0  0  0  0
   32.4665  -35.8688   -4.4207 C   0  0  0  0  0  0  0  0  0  0  0  0
   32.7624  -34.6511   -4.2022 O   0  0  0  0  0  0  0  0  0  0  0  0
   31.7259  -36.5214   -3.4100 N   0  0  0  0  0  0  0  0  0  0  0  0
   31.2582  -35.8459   -2.2216 C   0  0  1  0  0  0  0  0  0  0  0  0
   29.7648  -35.9929   -2.0377 C   0  0  0  0  0  0  0  0  0  0  0  0
   28.9957  -35.2249   -3.0336 C   0  0  0  0  0  0  0  0  0  0  0  0
   29.4288  -34.2917   -3.9565 C   0  0  0  0  0  0  0  0  0  0  0  0
   28.3849  -33.8358   -4.6710 N   0  0  0  0  0  0  0  0  0  0  0  0
   27.2872  -34.4648   -4.2181 C   0  0  0  0  0  0  0  0  0  0  0  0
   27.6672  -35.3071   -3.2232 N   0  0  0  0  0  0  0  0  0  0  0  0
   31.9479  -36.3697   -1.0000 C   0  0  0  0  0  0  0  0  0  0  0  0
   32.1303  -37.6091   -0.8377 O   0  0  0  0  0  0  0  0  0  0  0  0
   32.6519  -33.7082    2.0334 O   0  0  0  0  0  0  0  0  0  0  0  0
   33.6602  -34.6956    1.9451 C   0  0  0  0  0  0  0  0  0  0  0  0
   33.0270  -35.8723    1.2436 C   0  0  2  0  0  0  0  0  0  0  0  0
   32.4074  -35.4784   -0.0059 N   0  0  0  0  0  0  0  0  0  0  0  0
   32.1142  -36.6495    2.1275 C   0  0  0  0  0  0  0  0  0  0  0  0
   32.6096  -37.2878    3.2402 O   0  0  0  0  0  0  0  0  0  0  0  0
   30.9034  -36.6776    1.7963 O   0  0  0  0  0  0  0  0  0  0  0  0
  1  2  1  0
  1  5  1  0
  2  3  1  0
  3  4  1  0
  5  6  1  1
  5  4  1  0
  6  8  1  0
  7  6  2  0
  8  9  1  0
  9 16  1  0
 10 11  1  0
  9 10  1  1
 11 12  2  0
 13 12  1  0
 14 13  1  0
 15 14  2  0
 15 11  1  0
 16 21  1  0
 16 17  2  0
 18 19  1  0
 20 19  1  1
 20 22  1  0
 21 20  1  0
 22 24  2  0
 22 23  1  0
M  END
$$$$
