PHS.pdb
     RDKit          3D

 24 25  0  0  1  0  0  0  0  0999 V2000
   20.7057  -11.7571  -16.7592 N   0  0  0  0  0  0  0  0  0  0  0  0
   20.6196  -13.1423  -17.1612 C   0  0  0  0  0  0  0  0  0  0  0  0
   19.1787  -13.4706  -17.3677 C   0  0  0  0  0  0  0  0  0  0  0  0
   18.4585  -12.2246  -16.9636 C   0  0  0  0  0  0  0  0  0  0  0  0
   19.4703  -11.1272  -17.1525 C   0  0  1  0  0  0  0  0  0  0  0  0
   19.2073   -9.9551  -16.2932 C   0  0  0  0  0  0  0  0  0  0  0  0
   18.1653   -9.2518  -16.4875 O   0  0  0  0  0  0  0  0  0  0  0  0
   20.0509   -9.5414  -15.2383 N   0  0  0  0  0  0  0  0  0  0  0  0
   19.7824   -8.3721  -14.4331 C   0  0  1  0  0  0  0  0  0  0  0  0
   19.7592   -8.6951  -12.9564 C   0  0  0  0  0  0  0  0  0  0  0  0
   18.4210   -9.0992  -12.4885 C   0  0  0  0  0  0  0  0  0  0  0  0
   17.2331   -9.1992  -13.1879 C   0  0  0  0  0  0  0  0  0  0  0  0
   16.2506   -9.6071  -12.3656 N   0  0  0  0  0  0  0  0  0  0  0  0
   16.7931   -9.7701  -11.1470 C   0  0  0  0  0  0  0  0  0  0  0  0
   18.1122   -9.4594  -11.2305 N   0  0  0  0  0  0  0  0  0  0  0  0
   20.8052   -7.3060  -14.6773 C   0  0  0  0  0  0  0  0  0  0  0  0
   22.0372   -7.5832  -14.7129 O   0  0  0  0  0  0  0  0  0  0  0  0
   21.5228   -2.6522  -15.8558 O   0  0  0  0  0  0  0  0  0  0  0  0
   20.5444   -3.5981  -15.4717 C   0  0  0  0  0  0  0  0  0  0  0  0
   21.3005   -4.8551  -15.1170 C   0  0  2  0  0  0  0  0  0  0  0  0
   20.4032   -5.9667  -14.8727 N   0  0  0  0  0  0  0  0  0  0  0  0
   22.2840   -4.6474  -14.0179 C   0  0  0  0  0  0  0  0  0  0  0  0
   23.5895   -4.3304  -14.3112 O   0  0  0  0  0  0  0  0  0  0  0  0
   21.8505   -4.7763  -12.8465 O   0  0  0  0  0  0  0  0  0  0  0  0
  1  2  1  0
  1  5  1  0
  2  3  1  0
  3  4  1  0
  5  6  1  1
  5  4  1  0
  6  8  1  0
  7  6  2  0
  8  9  1  0
  9 16  1  0
 10 11  1  0
  9 10  1  1
 11 12  2  0
 13 12  1  0
 14 13  1  0
 15 14  2  0
 15 11  1  0
 16 21  1  0
 16 17  2  0
 18 19  1  0
 20 19  1  1
 20 22  1  0
 21 20  1  0
 22 24  2  0
 22 23  1  0
M  END
$$$$
