PHS.pdb
     RDKit          3D

 24 25  0  0  1  0  0  0  0  0999 V2000
   18.7904  -10.0729  -17.7056 N   0  0  0  0  0  0  0  0  0  0  0  0
   17.9713  -11.0879  -18.3274 C   0  0  0  0  0  0  0  0  0  0  0  0
   17.7799  -12.1903  -17.3402 C   0  0  0  0  0  0  0  0  0  0  0  0
   18.6174  -11.7831  -16.1708 C   0  0  0  0  0  0  0  0  0  0  0  0
   18.7161  -10.2859  -16.2819 C   0  0  1  0  0  0  0  0  0  0  0  0
   19.9245   -9.7440  -15.6282 C   0  0  0  0  0  0  0  0  0  0  0  0
   20.0156   -9.7590  -14.3595 O   0  0  0  0  0  0  0  0  0  0  0  0
   21.0223   -9.1926  -16.3257 N   0  0  0  0  0  0  0  0  0  0  0  0
   22.1803   -8.6453  -15.6570 C   0  0  1  0  0  0  0  0  0  0  0  0
   23.4636   -9.2903  -16.1289 C   0  0  0  0  0  0  0  0  0  0  0  0
   23.5220  -10.7286  -15.8113 C   0  0  0  0  0  0  0  0  0  0  0  0
   23.9015  -11.3608  -14.6423 C   0  0  0  0  0  0  0  0  0  0  0  0
   23.8036  -12.6936  -14.7900 N   0  0  0  0  0  0  0  0  0  0  0  0
   23.3660  -12.9248  -16.0394 C   0  0  0  0  0  0  0  0  0  0  0  0
   23.1974  -11.7254  -16.6530 N   0  0  0  0  0  0  0  0  0  0  0  0
   22.2761   -7.1668  -15.8734 C   0  0  0  0  0  0  0  0  0  0  0  0
   22.7819   -6.6961  -16.9309 O   0  0  0  0  0  0  0  0  0  0  0  0
   19.4380   -4.7787  -14.7818 O   0  0  0  0  0  0  0  0  0  0  0  0
   20.4684   -4.3667  -15.6582 C   0  0  0  0  0  0  0  0  0  0  0  0
   21.7586   -4.8298  -15.0268 C   0  0  2  0  0  0  0  0  0  0  0  0
   21.7985   -6.2722  -14.8908 N   0  0  0  0  0  0  0  0  0  0  0  0
   22.0700   -4.1157  -13.7574 C   0  0  0  0  0  0  0  0  0  0  0  0
   22.1949   -2.7463  -13.7491 O   0  0  0  0  0  0  0  0  0  0  0  0
   22.2040   -4.8281  -12.7322 O   0  0  0  0  0  0  0  0  0  0  0  0
  1  2  1  0
  1  5  1  0
  2  3  1  0
  3  4  1  0
  5  6  1  1
  5  4  1  0
  6  8  1  0
  7  6  2  0
  8  9  1  0
  9 16  1  0
 10 11  1  0
  9 10  1  6
 11 12  2  0
 13 12  1  0
 14 13  1  0
 15 14  2  0
 15 11  1  0
 16 21  1  0
 16 17  2  0
 18 19  1  0
 20 19  1  1
 20 22  1  0
 21 20  1  0
 22 24  2  0
 22 23  1  0
M  END
$$$$
