KNA.pdb
     RDKit          3D

 23 22  0  0  1  0  0  0  0  0999 V2000
    8.5616  -16.0411   21.4231 N   0  0  0  0  0  0  0  0  0  0  0  0
    9.2342  -14.7803   21.5648 C   0  0  1  0  0  0  0  0  0  0  0  0
    9.0990  -13.9220   20.3615 C   0  0  0  0  0  0  0  0  0  0  0  0
    8.5554  -14.6364   19.1865 C   0  0  0  0  0  0  0  0  0  0  0  0
    8.4389  -13.8351   17.9247 C   0  0  0  0  0  0  0  0  0  0  0  0
    7.9724  -14.7860   16.8052 C   0  0  0  0  0  0  0  0  0  0  0  0
    7.7864  -14.0163   15.6211 N   0  0  0  0  0  0  0  0  0  0  0  0
    8.7360  -14.1172   22.7982 C   0  0  0  0  0  0  0  0  0  0  0  0
    8.5677  -12.8638   22.7212 O   0  0  0  0  0  0  0  0  0  0  0  0
    6.6363  -12.4413   27.0279 N   0  0  0  0  0  0  0  0  0  0  0  0
    6.0521  -13.6600   26.5906 C   0  0  0  0  0  0  0  0  0  0  0  0
    5.0030  -14.0111   27.2179 O   0  0  0  0  0  0  0  0  0  0  0  0
    6.6072  -14.4719   25.4916 C   0  0  0  0  0  0  0  0  0  0  0  0
    8.0290  -14.1295   25.1489 C   0  0  2  0  0  0  0  0  0  0  0  0
    8.4737  -14.8472   23.9656 N   0  0  0  0  0  0  0  0  0  0  0  0
    8.8888  -14.3611   26.3056 C   0  0  0  0  0  0  0  0  0  0  0  0
    8.6563  -13.7417   27.3693 O   0  0  0  0  0  0  0  0  0  0  0  0
   10.7843  -14.1274   28.3311 C   0  0  0  0  0  0  0  0  0  0  0  0
   10.8850  -15.3453   27.4303 C   0  0  2  0  0  0  0  0  0  0  0  0
    9.9897  -15.2563   26.3067 N   0  0  0  0  0  0  0  0  0  0  0  0
   10.4863  -16.5431   28.2212 C   0  0  0  0  0  0  0  0  0  0  0  0
    9.3774  -17.3105   27.9449 O   0  0  0  0  0  0  0  0  0  0  0  0
   11.2224  -16.8524   29.1953 O   0  0  0  0  0  0  0  0  0  0  0  0
  2  1  1  6
  2  3  1  0
  4  3  1  0
  5  4  1  0
  6  5  1  0
  6  7  1  0
  8  2  1  0
  9  8  2  0
 10 11  1  0
 11 12  2  0
 13 11  1  0
 14 13  1  1
 14 15  1  0
 15  8  1  0
 16 14  1  0
 16 20  1  0
 17 16  2  0
 19 18  1  1
 19 21  1  0
 19 20  1  0
 21 22  1  0
 23 21  2  0
M  END
$$$$
