KNA.pdb
     RDKit          3D

 23 22  0  0  1  0  0  0  0  0999 V2000
   12.5285  -16.3094   13.8855 N   0  0  0  0  0  0  0  0  0  0  0  0
   12.0476  -15.5123   14.9788 C   0  0  1  0  0  0  0  0  0  0  0  0
   10.6165  -15.7626   15.2824 C   0  0  0  0  0  0  0  0  0  0  0  0
   10.1848  -17.1457   14.9868 C   0  0  0  0  0  0  0  0  0  0  0  0
    8.7548  -17.4700   15.2991 C   0  0  0  0  0  0  0  0  0  0  0  0
    8.5424  -18.9715   15.0246 C   0  0  0  0  0  0  0  0  0  0  0  0
    7.1982  -19.2970   15.3660 N   0  0  0  0  0  0  0  0  0  0  0  0
   12.9292  -15.7430   16.1529 C   0  0  0  0  0  0  0  0  0  0  0  0
   13.4623  -16.8902   16.2256 O   0  0  0  0  0  0  0  0  0  0  0  0
   17.2375  -14.3500   19.3262 N   0  0  0  0  0  0  0  0  0  0  0  0
   15.8841  -14.0107   19.5926 C   0  0  0  0  0  0  0  0  0  0  0  0
   15.5851  -13.9115   20.8247 O   0  0  0  0  0  0  0  0  0  0  0  0
   14.8849  -13.7863   18.5313 C   0  0  0  0  0  0  0  0  0  0  0  0
   14.0814  -15.0093   18.1925 C   0  0  2  0  0  0  0  0  0  0  0  0
   13.1470  -14.7436   17.1112 N   0  0  0  0  0  0  0  0  0  0  0  0
   13.4254  -15.5211   19.3920 C   0  0  0  0  0  0  0  0  0  0  0  0
   12.5242  -14.8376   19.9303 O   0  0  0  0  0  0  0  0  0  0  0  0
   12.6417  -18.6883   21.0383 C   0  0  0  0  0  0  0  0  0  0  0  0
   13.0446  -17.2303   21.1675 C   0  0  2  0  0  0  0  0  0  0  0  0
   13.7452  -16.7625   20.0002 N   0  0  0  0  0  0  0  0  0  0  0  0
   13.9759  -17.1055   22.3234 C   0  0  0  0  0  0  0  0  0  0  0  0
   13.6145  -17.3483   23.6293 O   0  0  0  0  0  0  0  0  0  0  0  0
   15.1583  -16.7561   22.0661 O   0  0  0  0  0  0  0  0  0  0  0  0
  2  1  1  6
  2  3  1  0
  4  3  1  0
  5  4  1  0
  6  5  1  0
  6  7  1  0
  8  2  1  0
  9  8  2  0
 10 11  1  0
 11 12  2  0
 13 11  1  0
 14 13  1  1
 14 15  1  0
 15  8  1  0
 16 14  1  0
 16 20  1  0
 17 16  2  0
 19 18  1  6
 19 21  1  0
 19 20  1  0
 21 22  1  0
 23 21  2  0
M  END
$$$$
