KNA.pdb
     RDKit          3D

 23 22  0  0  1  0  0  0  0  0999 V2000
    8.9439  -15.9679   20.6676 N   0  0  0  0  0  0  0  0  0  0  0  0
    9.1522  -14.5652   20.8935 C   0  0  1  0  0  0  0  0  0  0  0  0
    8.4481  -13.7158   19.9009 C   0  0  0  0  0  0  0  0  0  0  0  0
    8.5873  -14.1969   18.5096 C   0  0  0  0  0  0  0  0  0  0  0  0
    7.9474  -13.3483   17.4522 C   0  0  0  0  0  0  0  0  0  0  0  0
    8.3303  -13.9377   16.0807 C   0  0  0  0  0  0  0  0  0  0  0  0
    7.7324  -13.1303   15.0708 N   0  0  0  0  0  0  0  0  0  0  0  0
    8.7623  -14.2509   22.2930 C   0  0  0  0  0  0  0  0  0  0  0  0
    8.8621  -13.0346   22.6336 O   0  0  0  0  0  0  0  0  0  0  0  0
    5.6241  -13.8096   26.6084 N   0  0  0  0  0  0  0  0  0  0  0  0
    6.1474  -15.0792   26.2451 C   0  0  0  0  0  0  0  0  0  0  0  0
    6.2231  -15.9231   27.1935 O   0  0  0  0  0  0  0  0  0  0  0  0
    6.5766  -15.4123   24.8740 C   0  0  0  0  0  0  0  0  0  0  0  0
    7.9311  -14.8691   24.5184 C   0  0  2  0  0  0  0  0  0  0  0  0
    8.3141  -15.2493   23.1687 N   0  0  0  0  0  0  0  0  0  0  0  0
    8.9103  -15.2806   25.5198 C   0  0  0  0  0  0  0  0  0  0  0  0
    9.6345  -16.2761   25.2883 O   0  0  0  0  0  0  0  0  0  0  0  0
   10.5130  -13.6118   28.4911 C   0  0  0  0  0  0  0  0  0  0  0  0
   10.3278  -14.7476   27.5009 C   0  0  2  0  0  0  0  0  0  0  0  0
    9.1008  -14.6175   26.7596 N   0  0  0  0  0  0  0  0  0  0  0  0
   10.2508  -16.0236   28.2657 C   0  0  0  0  0  0  0  0  0  0  0  0
   11.2996  -16.5519   28.9839 O   0  0  0  0  0  0  0  0  0  0  0  0
    9.1514  -16.6375   28.2388 O   0  0  0  0  0  0  0  0  0  0  0  0
  2  1  1  6
  2  3  1  0
  4  3  1  0
  5  4  1  0
  6  5  1  0
  6  7  1  0
  8  2  1  0
  9  8  2  0
 10 11  1  0
 11 12  2  0
 13 11  1  0
 14 13  1  1
 14 15  1  0
 15  8  1  0
 16 14  1  0
 16 20  1  0
 17 16  2  0
 19 18  1  1
 19 21  1  0
 19 20  1  0
 21 22  1  0
 23 21  2  0
M  END
$$$$
