KNA.pdb
     RDKit          3D

 23 22  0  0  1  0  0  0  0  0999 V2000
    6.7254  -16.2226   21.0944 N   0  0  0  0  0  0  0  0  0  0  0  0
    8.0062  -15.5755   21.0414 C   0  0  1  0  0  0  0  0  0  0  0  0
    7.9623  -14.2797   20.3189 C   0  0  0  0  0  0  0  0  0  0  0  0
    8.1586  -14.4121   18.8593 C   0  0  0  0  0  0  0  0  0  0  0  0
    8.1272  -13.1364   18.0723 C   0  0  0  0  0  0  0  0  0  0  0  0
    8.1891  -13.5046   16.5771 C   0  0  0  0  0  0  0  0  0  0  0  0
    8.0288  -12.3082   15.8207 N   0  0  0  0  0  0  0  0  0  0  0  0
    8.5222  -15.4387   22.4286 C   0  0  0  0  0  0  0  0  0  0  0  0
    9.6945  -14.9707   22.5375 O   0  0  0  0  0  0  0  0  0  0  0  0
    5.8086  -12.9764   25.2805 N   0  0  0  0  0  0  0  0  0  0  0  0
    7.0905  -13.5408   25.5176 C   0  0  0  0  0  0  0  0  0  0  0  0
    8.0579  -12.7162   25.4828 O   0  0  0  0  0  0  0  0  0  0  0  0
    7.3030  -14.9753   25.7861 C   0  0  0  0  0  0  0  0  0  0  0  0
    8.3016  -15.6185   24.8667 C   0  0  2  0  0  0  0  0  0  0  0  0
    7.7475  -15.8089   23.5364 N   0  0  0  0  0  0  0  0  0  0  0  0
    8.7925  -16.8603   25.4565 C   0  0  0  0  0  0  0  0  0  0  0  0
    7.9984  -17.8175   25.6060 O   0  0  0  0  0  0  0  0  0  0  0  0
   11.9822  -18.6667   25.8781 C   0  0  0  0  0  0  0  0  0  0  0  0
   10.5836  -18.3367   26.3678 C   0  0  2  0  0  0  0  0  0  0  0  0
   10.1321  -17.0602   25.8794 N   0  0  0  0  0  0  0  0  0  0  0  0
   10.6185  -18.2555   27.8548 C   0  0  0  0  0  0  0  0  0  0  0  0
   10.9826  -19.3018   28.6719 O   0  0  0  0  0  0  0  0  0  0  0  0
   10.2915  -17.1547   28.3723 O   0  0  0  0  0  0  0  0  0  0  0  0
  2  1  1  1
  2  3  1  0
  4  3  1  0
  5  4  1  0
  6  5  1  0
  6  7  1  0
  8  2  1  0
  9  8  2  0
 10 11  1  0
 11 12  2  0
 13 11  1  0
 14 13  1  1
 14 15  1  0
 15  8  1  0
 16 14  1  0
 16 20  1  0
 17 16  2  0
 19 18  1  6
 19 21  1  0
 19 20  1  0
 21 22  1  0
 23 21  2  0
M  END
$$$$
