KNA.pdb
     RDKit          3D

 23 22  0  0  1  0  0  0  0  0999 V2000
   11.3276  -22.1032   29.6903 N   0  0  0  0  0  0  0  0  0  0  0  0
   12.3789  -21.2057   30.0792 C   0  0  1  0  0  0  0  0  0  0  0  0
   13.6391  -21.9136   30.4162 C   0  0  0  0  0  0  0  0  0  0  0  0
   13.4527  -23.0241   31.3746 C   0  0  0  0  0  0  0  0  0  0  0  0
   14.4637  -23.1185   32.4777 C   0  0  0  0  0  0  0  0  0  0  0  0
   14.1503  -24.3866   33.2955 C   0  0  0  0  0  0  0  0  0  0  0  0
   15.0980  -24.4738   34.3555 N   0  0  0  0  0  0  0  0  0  0  0  0
   12.5604  -20.1984   29.0015 C   0  0  0  0  0  0  0  0  0  0  0  0
   13.3229  -19.2251   29.2787 O   0  0  0  0  0  0  0  0  0  0  0  0
   13.4450  -22.2059   25.0837 N   0  0  0  0  0  0  0  0  0  0  0  0
   13.5652  -20.8318   25.4233 C   0  0  0  0  0  0  0  0  0  0  0  0
   14.7376  -20.4550   25.7408 O   0  0  0  0  0  0  0  0  0  0  0  0
   12.4254  -19.8960   25.4142 C   0  0  0  0  0  0  0  0  0  0  0  0
   12.1261  -19.2984   26.7593 C   0  0  2  0  0  0  0  0  0  0  0  0
   11.9208  -20.3312   27.7614 N   0  0  0  0  0  0  0  0  0  0  0  0
   10.9956  -18.3807   26.6552 C   0  0  0  0  0  0  0  0  0  0  0  0
    9.8527  -18.8464   26.4409 O   0  0  0  0  0  0  0  0  0  0  0  0
   10.1711  -14.7500   27.2228 C   0  0  0  0  0  0  0  0  0  0  0  0
    9.9744  -16.1073   26.5717 C   0  0  2  0  0  0  0  0  0  0  0  0
   11.1058  -16.9718   26.7826 N   0  0  0  0  0  0  0  0  0  0  0  0
    9.8400  -15.9032   25.1022 C   0  0  0  0  0  0  0  0  0  0  0  0
   10.7308  -16.3946   24.1749 O   0  0  0  0  0  0  0  0  0  0  0  0
    8.8449  -15.2389   24.7088 O   0  0  0  0  0  0  0  0  0  0  0  0
  2  1  1  6
  2  3  1  0
  4  3  1  0
  5  4  1  0
  6  5  1  0
  6  7  1  0
  8  2  1  0
  9  8  2  0
 10 11  1  0
 11 12  2  0
 13 11  1  0
 14 13  1  6
 14 15  1  0
 15  8  1  0
 16 14  1  0
 16 20  1  0
 17 16  2  0
 19 18  1  1
 19 21  1  0
 19 20  1  0
 21 22  1  0
 23 21  2  0
M  END
$$$$
