KNA.pdb
     RDKit          3D

 23 22  0  0  1  0  0  0  0  0999 V2000
    7.0194  -17.3581   20.3902 N   0  0  0  0  0  0  0  0  0  0  0  0
    7.9303  -16.3833   20.9212 C   0  0  1  0  0  0  0  0  0  0  0  0
    7.2360  -15.1914   21.4693 C   0  0  0  0  0  0  0  0  0  0  0  0
    6.9244  -14.1694   20.4472 C   0  0  0  0  0  0  0  0  0  0  0  0
    8.0802  -13.3431   19.9684 C   0  0  0  0  0  0  0  0  0  0  0  0
    7.5637  -12.4136   18.8530 C   0  0  0  0  0  0  0  0  0  0  0  0
    8.6845  -11.7483   18.2783 N   0  0  0  0  0  0  0  0  0  0  0  0
    8.7999  -17.0497   21.9256 C   0  0  0  0  0  0  0  0  0  0  0  0
    8.2722  -18.0101   22.5616 O   0  0  0  0  0  0  0  0  0  0  0  0
   13.4798  -16.6775   20.7017 N   0  0  0  0  0  0  0  0  0  0  0  0
   12.9168  -17.5354   21.6841 C   0  0  0  0  0  0  0  0  0  0  0  0
   12.9077  -18.7703   21.3806 O   0  0  0  0  0  0  0  0  0  0  0  0
   12.3777  -17.0478   22.9673 C   0  0  0  0  0  0  0  0  0  0  0  0
   10.9117  -17.3211   23.1472 C   0  0  2  0  0  0  0  0  0  0  0  0
   10.1192  -16.6298   22.1437 N   0  0  0  0  0  0  0  0  0  0  0  0
   10.5081  -16.9907   24.5107 C   0  0  0  0  0  0  0  0  0  0  0  0
   10.7477  -15.8441   24.9543 O   0  0  0  0  0  0  0  0  0  0  0  0
    8.0507  -17.9590   27.0438 C   0  0  0  0  0  0  0  0  0  0  0  0
    9.4632  -17.5107   26.7144 C   0  0  2  0  0  0  0  0  0  0  0  0
    9.8511  -17.8967   25.3830 N   0  0  0  0  0  0  0  0  0  0  0  0
   10.3971  -18.1826   27.6607 C   0  0  0  0  0  0  0  0  0  0  0  0
   10.4617  -17.8986   29.0061 O   0  0  0  0  0  0  0  0  0  0  0  0
   11.1630  -19.0585   27.1785 O   0  0  0  0  0  0  0  0  0  0  0  0
  2  1  1  1
  2  3  1  0
  4  3  1  0
  5  4  1  0
  6  5  1  0
  6  7  1  0
  8  2  1  0
  9  8  2  0
 10 11  1  0
 11 12  2  0
 13 11  1  0
 14 13  1  1
 14 15  1  0
 15  8  1  0
 16 14  1  0
 16 20  1  0
 17 16  2  0
 19 18  1  1
 19 21  1  0
 19 20  1  0
 21 22  1  0
 23 21  2  0
M  END
$$$$
