KNA.pdb
     RDKit          3D

 23 22  0  0  1  0  0  0  0  0999 V2000
    7.9344  -17.3940   19.6188 N   0  0  0  0  0  0  0  0  0  0  0  0
    8.4860  -16.2869   20.3483 C   0  0  1  0  0  0  0  0  0  0  0  0
    8.1943  -14.9795   19.7093 C   0  0  0  0  0  0  0  0  0  0  0  0
    8.3854  -14.9847   18.2431 C   0  0  0  0  0  0  0  0  0  0  0  0
    8.0498  -13.7089   17.5307 C   0  0  0  0  0  0  0  0  0  0  0  0
    8.2775  -13.9377   16.0238 C   0  0  0  0  0  0  0  0  0  0  0  0
    7.8307  -12.7774   15.3285 N   0  0  0  0  0  0  0  0  0  0  0  0
    7.9994  -16.3583   21.7509 C   0  0  0  0  0  0  0  0  0  0  0  0
    6.8444  -16.8543   21.9096 O   0  0  0  0  0  0  0  0  0  0  0  0
   11.3135  -17.0111   24.1945 N   0  0  0  0  0  0  0  0  0  0  0  0
   10.3495  -16.6957   25.1891 C   0  0  0  0  0  0  0  0  0  0  0  0
   10.8194  -16.1753   26.2501 O   0  0  0  0  0  0  0  0  0  0  0  0
    8.9059  -16.9462   25.0214 C   0  0  0  0  0  0  0  0  0  0  0  0
    8.2146  -15.9296   24.1583 C   0  0  2  0  0  0  0  0  0  0  0  0
    8.7817  -15.9010   22.8202 N   0  0  0  0  0  0  0  0  0  0  0  0
    8.2409  -14.6238   24.8102 C   0  0  0  0  0  0  0  0  0  0  0  0
    9.3006  -13.9563   24.7912 O   0  0  0  0  0  0  0  0  0  0  0  0
    5.8455  -12.1856   26.4182 C   0  0  0  0  0  0  0  0  0  0  0  0
    7.2167  -12.7642   26.1185 C   0  0  2  0  0  0  0  0  0  0  0  0
    7.1273  -14.0491   25.4759 N   0  0  0  0  0  0  0  0  0  0  0  0
    7.9303  -12.9633   27.4108 C   0  0  0  0  0  0  0  0  0  0  0  0
    8.3851  -14.1839   27.8558 O   0  0  0  0  0  0  0  0  0  0  0  0
    8.1168  -11.9401   28.1212 O   0  0  0  0  0  0  0  0  0  0  0  0
  2  1  1  6
  2  3  1  0
  4  3  1  0
  5  4  1  0
  6  5  1  0
  6  7  1  0
  8  2  1  0
  9  8  2  0
 10 11  1  0
 11 12  2  0
 13 11  1  0
 14 13  1  1
 14 15  1  0
 15  8  1  0
 16 14  1  0
 16 20  1  0
 17 16  2  0
 19 18  1  1
 19 21  1  0
 19 20  1  0
 21 22  1  0
 23 21  2  0
M  END
$$$$
