KNA.pdb
     RDKit          3D

 23 22  0  0  1  0  0  0  0  0999 V2000
    7.2704  -15.6510   21.0446 N   0  0  0  0  0  0  0  0  0  0  0  0
    8.3431  -14.7006   21.1346 C   0  0  1  0  0  0  0  0  0  0  0  0
    8.2447  -13.6294   20.1120 C   0  0  0  0  0  0  0  0  0  0  0  0
    7.7776  -14.1132   18.7951 C   0  0  0  0  0  0  0  0  0  0  0  0
    8.5749  -13.6635   17.6077 C   0  0  0  0  0  0  0  0  0  0  0  0
    7.9182  -14.2593   16.3473 C   0  0  0  0  0  0  0  0  0  0  0  0
    8.7021  -13.8803   15.2198 N   0  0  0  0  0  0  0  0  0  0  0  0
    8.3824  -14.1652   22.5206 C   0  0  0  0  0  0  0  0  0  0  0  0
    9.3393  -13.3763   22.7803 O   0  0  0  0  0  0  0  0  0  0  0  0
    5.3808  -12.3313   27.4066 N   0  0  0  0  0  0  0  0  0  0  0  0
    6.4950  -12.5741   26.5595 C   0  0  0  0  0  0  0  0  0  0  0  0
    7.6223  -12.2345   27.0400 O   0  0  0  0  0  0  0  0  0  0  0  0
    6.3726  -13.1751   25.2182 C   0  0  0  0  0  0  0  0  0  0  0  0
    7.5526  -14.0177   24.8260 C   0  0  2  0  0  0  0  0  0  0  0  0
    7.4139  -14.5206   23.4693 N   0  0  0  0  0  0  0  0  0  0  0  0
    7.7505  -15.0824   25.8049 C   0  0  0  0  0  0  0  0  0  0  0  0
    7.8185  -14.7858   27.0200 O   0  0  0  0  0  0  0  0  0  0  0  0
    7.5991  -18.8238   26.0308 C   0  0  0  0  0  0  0  0  0  0  0  0
    8.0971  -17.4597   26.4735 C   0  0  2  0  0  0  0  0  0  0  0  0
    7.8731  -16.4551   25.4672 N   0  0  0  0  0  0  0  0  0  0  0  0
    9.5680  -17.5495   26.6909 C   0  0  0  0  0  0  0  0  0  0  0  0
   10.4964  -16.8483   25.9551 O   0  0  0  0  0  0  0  0  0  0  0  0
    9.9618  -18.3186   27.6073 O   0  0  0  0  0  0  0  0  0  0  0  0
  2  1  1  1
  2  3  1  0
  4  3  1  0
  5  4  1  0
  6  5  1  0
  6  7  1  0
  8  2  1  0
  9  8  2  0
 10 11  1  0
 11 12  2  0
 13 11  1  0
 14 13  1  1
 14 15  1  0
 15  8  1  0
 16 14  1  0
 16 20  1  0
 17 16  2  0
 19 18  1  6
 19 21  1  0
 19 20  1  0
 21 22  1  0
 23 21  2  0
M  END
$$$$
