KNA.pdb
     RDKit          3D

 23 22  0  0  1  0  0  0  0  0999 V2000
    7.6902  -15.9465   20.9176 N   0  0  0  0  0  0  0  0  0  0  0  0
    7.8588  -14.7686   21.7214 C   0  0  1  0  0  0  0  0  0  0  0  0
    6.9030  -13.6910   21.3635 C   0  0  0  0  0  0  0  0  0  0  0  0
    6.8291  -13.4277   19.9104 C   0  0  0  0  0  0  0  0  0  0  0  0
    8.1377  -13.2005   19.2149 C   0  0  0  0  0  0  0  0  0  0  0  0
    7.8349  -12.8570   17.7434 C   0  0  0  0  0  0  0  0  0  0  0  0
    9.0756  -12.7331   17.0546 N   0  0  0  0  0  0  0  0  0  0  0  0
    7.7696  -15.1589   23.1528 C   0  0  0  0  0  0  0  0  0  0  0  0
    7.4595  -14.2321   23.9591 O   0  0  0  0  0  0  0  0  0  0  0  0
    7.3462  -17.7254   27.6343 N   0  0  0  0  0  0  0  0  0  0  0  0
    7.4747  -18.6693   26.5805 C   0  0  0  0  0  0  0  0  0  0  0  0
    7.3607  -19.8868   26.9297 O   0  0  0  0  0  0  0  0  0  0  0  0
    7.7223  -18.2842   25.1785 C   0  0  0  0  0  0  0  0  0  0  0  0
    7.8508  -16.8015   24.9751 C   0  0  2  0  0  0  0  0  0  0  0  0
    8.0161  -16.4746   23.5684 N   0  0  0  0  0  0  0  0  0  0  0  0
    8.9300  -16.2774   25.8067 C   0  0  0  0  0  0  0  0  0  0  0  0
   10.1160  -16.5347   25.4964 O   0  0  0  0  0  0  0  0  0  0  0  0
    9.4364  -13.5740   28.3249 C   0  0  0  0  0  0  0  0  0  0  0  0
    9.8246  -14.8905   27.6761 C   0  0  2  0  0  0  0  0  0  0  0  0
    8.7228  -15.4821   26.9634 N   0  0  0  0  0  0  0  0  0  0  0  0
   10.2182  -15.8415   28.7529 C   0  0  0  0  0  0  0  0  0  0  0  0
   11.2660  -15.6280   29.6197 O   0  0  0  0  0  0  0  0  0  0  0  0
    9.5376  -16.8962   28.8571 O   0  0  0  0  0  0  0  0  0  0  0  0
  2  1  1  6
  2  3  1  0
  4  3  1  0
  5  4  1  0
  6  5  1  0
  6  7  1  0
  8  2  1  0
  9  8  2  0
 10 11  1  0
 11 12  2  0
 13 11  1  0
 14 13  1  6
 14 15  1  0
 15  8  1  0
 16 14  1  0
 16 20  1  0
 17 16  2  0
 19 18  1  1
 19 21  1  0
 19 20  1  0
 21 22  1  0
 23 21  2  0
M  END
$$$$
