KNA.pdb
     RDKit          3D

 23 22  0  0  1  0  0  0  0  0999 V2000
    9.3204  -18.3455   18.6410 N   0  0  0  0  0  0  0  0  0  0  0  0
   10.4797  -17.5287   18.4156 C   0  0  1  0  0  0  0  0  0  0  0  0
   10.7092  -17.2472   16.9765 C   0  0  0  0  0  0  0  0  0  0  0  0
   10.6033  -18.4460   16.1175 C   0  0  0  0  0  0  0  0  0  0  0  0
   10.8505  -18.2317   14.6544 C   0  0  0  0  0  0  0  0  0  0  0  0
   10.7134  -19.5953   13.9496 C   0  0  0  0  0  0  0  0  0  0  0  0
   10.9584  -19.4006   12.5598 N   0  0  0  0  0  0  0  0  0  0  0  0
   10.3473  -16.2897   19.2259 C   0  0  0  0  0  0  0  0  0  0  0  0
   11.2880  -15.4494   19.1066 O   0  0  0  0  0  0  0  0  0  0  0  0
    7.6649  -12.4191   18.9648 N   0  0  0  0  0  0  0  0  0  0  0  0
    7.5573  -13.7609   19.4188 C   0  0  0  0  0  0  0  0  0  0  0  0
    7.1405  -14.5922   18.5513 O   0  0  0  0  0  0  0  0  0  0  0  0
    7.8992  -14.1777   20.7915 C   0  0  0  0  0  0  0  0  0  0  0  0
    9.2199  -14.8859   20.8944 C   0  0  2  0  0  0  0  0  0  0  0  0
    9.2444  -16.0793   20.0648 N   0  0  0  0  0  0  0  0  0  0  0  0
    9.5264  -15.1654   22.2940 C   0  0  0  0  0  0  0  0  0  0  0  0
    9.5007  -14.2251   23.1211 O   0  0  0  0  0  0  0  0  0  0  0  0
    9.3888  -17.5811   24.9138 C   0  0  0  0  0  0  0  0  0  0  0  0
   10.3036  -16.6450   24.1447 C   0  0  2  0  0  0  0  0  0  0  0  0
    9.8572  -16.4530   22.7898 N   0  0  0  0  0  0  0  0  0  0  0  0
   11.6570  -17.2643   24.0823 C   0  0  0  0  0  0  0  0  0  0  0  0
   12.4623  -17.4604   25.1813 O   0  0  0  0  0  0  0  0  0  0  0  0
   12.0673  -17.6215   22.9463 O   0  0  0  0  0  0  0  0  0  0  0  0
  2  1  1  6
  2  3  1  0
  4  3  1  0
  5  4  1  0
  6  5  1  0
  6  7  1  0
  8  2  1  0
  9  8  2  0
 10 11  1  0
 11 12  2  0
 13 11  1  0
 14 13  1  1
 14 15  1  0
 15  8  1  0
 16 14  1  0
 16 20  1  0
 17 16  2  0
 19 18  1  1
 19 21  1  0
 19 20  1  0
 21 22  1  0
 23 21  2  0
M  END
$$$$
