KNA.pdb
     RDKit          3D

 23 22  0  0  1  0  0  0  0  0999 V2000
    8.2810  -16.1472   18.0597 N   0  0  0  0  0  0  0  0  0  0  0  0
    9.1317  -15.1631   18.6677 C   0  0  1  0  0  0  0  0  0  0  0  0
    8.7597  -13.7761   18.2927 C   0  0  0  0  0  0  0  0  0  0  0  0
    7.9281  -13.6986   17.0726 C   0  0  0  0  0  0  0  0  0  0  0  0
    8.6142  -14.0436   15.7850 C   0  0  0  0  0  0  0  0  0  0  0  0
    8.3997  -12.8706   14.8088 C   0  0  0  0  0  0  0  0  0  0  0  0
    9.1507  -13.1360   13.6277 N   0  0  0  0  0  0  0  0  0  0  0  0
    9.1243  -15.3786   20.1383 C   0  0  0  0  0  0  0  0  0  0  0  0
    9.8678  -14.6057   20.8129 O   0  0  0  0  0  0  0  0  0  0  0  0
    5.8670  -15.5046   21.9583 N   0  0  0  0  0  0  0  0  0  0  0  0
    6.0277  -16.8151   22.4823 C   0  0  0  0  0  0  0  0  0  0  0  0
    4.9455  -17.4166   22.7726 O   0  0  0  0  0  0  0  0  0  0  0  0
    7.3448  -17.4481   22.6819 C   0  0  0  0  0  0  0  0  0  0  0  0
    8.4903  -16.6355   22.1492 C   0  0  2  0  0  0  0  0  0  0  0  0
    8.3383  -16.3789   20.7265 N   0  0  0  0  0  0  0  0  0  0  0  0
    9.7554  -17.2879   22.4729 C   0  0  0  0  0  0  0  0  0  0  0  0
   10.2380  -18.1131   21.6634 O   0  0  0  0  0  0  0  0  0  0  0  0
   12.9237  -16.8235   23.5093 C   0  0  0  0  0  0  0  0  0  0  0  0
   11.7487  -17.6950   23.9150 C   0  0  2  0  0  0  0  0  0  0  0  0
   10.4885  -17.0464   23.6635 N   0  0  0  0  0  0  0  0  0  0  0  0
   11.8361  -17.9407   25.3816 C   0  0  0  0  0  0  0  0  0  0  0  0
   12.8671  -18.6251   25.9846 O   0  0  0  0  0  0  0  0  0  0  0  0
   10.9002  -17.4860   26.0914 O   0  0  0  0  0  0  0  0  0  0  0  0
  2  1  1  6
  2  3  1  0
  4  3  1  0
  5  4  1  0
  6  5  1  0
  6  7  1  0
  8  2  1  0
  9  8  2  0
 10 11  1  0
 11 12  2  0
 13 11  1  0
 14 13  1  6
 14 15  1  0
 15  8  1  0
 16 14  1  0
 16 20  1  0
 17 16  2  0
 19 18  1  1
 19 21  1  0
 19 20  1  0
 21 22  1  0
 23 21  2  0
M  END
$$$$
