KNA.pdb
     RDKit          3D

 23 22  0  0  1  0  0  0  0  0999 V2000
    5.9844  -15.8325   21.1541 N   0  0  0  0  0  0  0  0  0  0  0  0
    7.2968  -15.3507   21.4820 C   0  0  1  0  0  0  0  0  0  0  0  0
    7.4084  -13.8751   21.3693 C   0  0  0  0  0  0  0  0  0  0  0  0
    7.2840  -13.3790   19.9819 C   0  0  0  0  0  0  0  0  0  0  0  0
    8.5071  -13.5074   19.1245 C   0  0  0  0  0  0  0  0  0  0  0  0
    8.1780  -12.9087   17.7431 C   0  0  0  0  0  0  0  0  0  0  0  0
    9.3171  -13.0799   16.9050 N   0  0  0  0  0  0  0  0  0  0  0  0
    7.6565  -15.8490   22.8353 C   0  0  0  0  0  0  0  0  0  0  0  0
    6.6890  -16.0202   23.6353 O   0  0  0  0  0  0  0  0  0  0  0  0
   11.9048  -18.3734   26.2989 N   0  0  0  0  0  0  0  0  0  0  0  0
   10.5700  -18.2901   25.8201 C   0  0  0  0  0  0  0  0  0  0  0  0
    9.6799  -18.7042   26.6286 O   0  0  0  0  0  0  0  0  0  0  0  0
   10.2228  -17.7650   24.4864 C   0  0  0  0  0  0  0  0  0  0  0  0
    9.2675  -16.6065   24.5254 C   0  0  2  0  0  0  0  0  0  0  0  0
    8.9878  -16.1084   23.1887 N   0  0  0  0  0  0  0  0  0  0  0  0
    9.7786  -15.5706   25.4180 C   0  0  0  0  0  0  0  0  0  0  0  0
   10.9453  -15.1465   25.2515 O   0  0  0  0  0  0  0  0  0  0  0  0
    8.4905  -13.0341   27.8376 C   0  0  0  0  0  0  0  0  0  0  0  0
    9.5735  -13.9568   27.3079 C   0  0  2  0  0  0  0  0  0  0  0  0
    9.0298  -15.0015   26.4804 N   0  0  0  0  0  0  0  0  0  0  0  0
   10.2364  -14.6114   28.4703 C   0  0  0  0  0  0  0  0  0  0  0  0
   11.0179  -13.9420   29.3847 O   0  0  0  0  0  0  0  0  0  0  0  0
   10.0569  -15.8509   28.6037 O   0  0  0  0  0  0  0  0  0  0  0  0
  2  1  1  1
  2  3  1  0
  4  3  1  0
  5  4  1  0
  6  5  1  0
  6  7  1  0
  8  2  1  0
  9  8  2  0
 10 11  1  0
 11 12  2  0
 13 11  1  0
 14 13  1  6
 14 15  1  0
 15  8  1  0
 16 14  1  0
 16 20  1  0
 17 16  2  0
 19 18  1  1
 19 21  1  0
 19 20  1  0
 21 22  1  0
 23 21  2  0
M  END
$$$$
