KNA.pdb
     RDKit          3D

 23 22  0  0  1  0  0  0  0  0999 V2000
    7.9497  -18.1899   19.7878 N   0  0  0  0  0  0  0  0  0  0  0  0
    9.3076  -17.7297   19.7088 C   0  0  1  0  0  0  0  0  0  0  0  0
    9.7750  -17.5660   18.3096 C   0  0  0  0  0  0  0  0  0  0  0  0
    9.3409  -18.6579   17.4120 C   0  0  0  0  0  0  0  0  0  0  0  0
    8.4165  -18.2666   16.2984 C   0  0  0  0  0  0  0  0  0  0  0  0
    8.1638  -19.5180   15.4352 C   0  0  0  0  0  0  0  0  0  0  0  0
    7.3054  -19.1472   14.3606 N   0  0  0  0  0  0  0  0  0  0  0  0
    9.4270  -16.4777   20.5009 C   0  0  0  0  0  0  0  0  0  0  0  0
   10.5839  -15.9631   20.5484 O   0  0  0  0  0  0  0  0  0  0  0  0
    7.8880  -12.3209   19.2219 N   0  0  0  0  0  0  0  0  0  0  0  0
    7.4468  -13.4860   19.9043 C   0  0  0  0  0  0  0  0  0  0  0  0
    7.0002  -14.4127   19.1567 O   0  0  0  0  0  0  0  0  0  0  0  0
    7.4954  -13.6284   21.3715 C   0  0  0  0  0  0  0  0  0  0  0  0
    8.4903  -14.6494   21.8446 C   0  0  2  0  0  0  0  0  0  0  0  0
    8.3193  -15.9143   21.1490 N   0  0  0  0  0  0  0  0  0  0  0  0
    8.4086  -14.7880   23.2955 C   0  0  0  0  0  0  0  0  0  0  0  0
    8.4727  -13.7602   24.0086 O   0  0  0  0  0  0  0  0  0  0  0  0
    7.0100  -16.9546   25.8594 C   0  0  0  0  0  0  0  0  0  0  0  0
    8.1824  -16.1064   25.4001 C   0  0  2  0  0  0  0  0  0  0  0  0
    8.2587  -16.0302   23.9647 N   0  0  0  0  0  0  0  0  0  0  0  0
    9.4379  -16.7506   25.8773 C   0  0  0  0  0  0  0  0  0  0  0  0
    9.7391  -16.9537   27.2051 O   0  0  0  0  0  0  0  0  0  0  0  0
   10.2569  -17.1231   24.9959 O   0  0  0  0  0  0  0  0  0  0  0  0
  2  1  1  6
  2  3  1  0
  4  3  1  0
  5  4  1  0
  6  5  1  0
  6  7  1  0
  8  2  1  0
  9  8  2  0
 10 11  1  0
 11 12  2  0
 13 11  1  0
 14 13  1  6
 14 15  1  0
 15  8  1  0
 16 14  1  0
 16 20  1  0
 17 16  2  0
 19 18  1  6
 19 21  1  0
 19 20  1  0
 21 22  1  0
 23 21  2  0
M  END
$$$$
