KNA.pdb
     RDKit          3D

 23 22  0  0  1  0  0  0  0  0999 V2000
    8.3015  -16.3011   19.3847 N   0  0  0  0  0  0  0  0  0  0  0  0
    9.0122  -15.0634   19.5427 C   0  0  1  0  0  0  0  0  0  0  0  0
    8.5729  -14.0250   18.5776 C   0  0  0  0  0  0  0  0  0  0  0  0
    8.2271  -14.5670   17.2459 C   0  0  0  0  0  0  0  0  0  0  0  0
    8.1422  -13.5688   16.1305 C   0  0  0  0  0  0  0  0  0  0  0  0
    7.6191  -14.3033   14.8808 C   0  0  0  0  0  0  0  0  0  0  0  0
    7.4181  -13.3378   13.8529 N   0  0  0  0  0  0  0  0  0  0  0  0
    8.8803  -14.6221   20.9558 C   0  0  0  0  0  0  0  0  0  0  0  0
    9.4022  -13.5018   21.2349 O   0  0  0  0  0  0  0  0  0  0  0  0
    7.4735  -13.0736   25.3074 N   0  0  0  0  0  0  0  0  0  0  0  0
    6.5427  -14.0712   24.9119 C   0  0  0  0  0  0  0  0  0  0  0  0
    5.4123  -14.0148   25.4919 O   0  0  0  0  0  0  0  0  0  0  0  0
    6.8470  -15.1043   23.9044 C   0  0  0  0  0  0  0  0  0  0  0  0
    8.2119  -14.9652   23.2927 C   0  0  2  0  0  0  0  0  0  0  0  0
    8.2169  -15.4079   21.9082 N   0  0  0  0  0  0  0  0  0  0  0  0
    9.1974  -15.6641   24.1121 C   0  0  0  0  0  0  0  0  0  0  0  0
    9.2811  -15.3866   25.3307 O   0  0  0  0  0  0  0  0  0  0  0  0
   10.7873  -18.7388   24.6904 C   0  0  0  0  0  0  0  0  0  0  0  0
   11.0765  -17.2673   24.4542 C   0  0  2  0  0  0  0  0  0  0  0  0
   10.0826  -16.6542   23.6127 N   0  0  0  0  0  0  0  0  0  0  0  0
   12.3839  -17.1575   23.7487 C   0  0  0  0  0  0  0  0  0  0  0  0
   13.5867  -17.5394   24.2985 O   0  0  0  0  0  0  0  0  0  0  0  0
   12.3625  -16.6846   22.5815 O   0  0  0  0  0  0  0  0  0  0  0  0
  2  1  1  1
  2  3  1  0
  4  3  1  0
  5  4  1  0
  6  5  1  0
  6  7  1  0
  8  2  1  0
  9  8  2  0
 10 11  1  0
 11 12  2  0
 13 11  1  0
 14 13  1  1
 14 15  1  0
 15  8  1  0
 16 14  1  0
 16 20  1  0
 17 16  2  0
 19 18  1  6
 19 21  1  0
 19 20  1  0
 21 22  1  0
 23 21  2  0
M  END
$$$$
