GEP.pdb
     RDKit          3D

 21 21  0  0  1  0  0  0  0  0999 V2000
   22.2304  -21.2083  -10.5694 N   0  0  0  0  0  0  0  0  0  0  0  0
   23.1515  -20.1362  -10.1931 C   0  0  0  0  0  0  0  0  0  0  0  0
   24.3650  -20.7252   -9.5657 C   0  0  0  0  0  0  0  0  0  0  0  0
   24.3633  -21.8662   -9.0252 O   0  0  0  0  0  0  0  0  0  0  0  0
   25.5581  -19.9722   -9.5803 N   0  0  0  0  0  0  0  0  0  0  0  0
   26.8325  -20.4603   -9.0858 C   0  0  1  0  0  0  0  0  0  0  0  0
   27.8465  -20.1383  -10.1447 C   0  0  0  0  0  0  0  0  0  0  0  0
   27.9980  -21.3778  -11.0070 C   0  0  0  0  0  0  0  0  0  0  0  0
   27.3154  -21.2565  -12.2958 C   0  0  0  0  0  0  0  0  0  0  0  0
   27.7097  -20.4644  -13.1818 O   0  0  0  0  0  0  0  0  0  0  0  0
   27.1034  -19.8133   -7.7779 C   0  0  0  0  0  0  0  0  0  0  0  0
   26.7392  -18.6179   -7.7290 O   0  0  0  0  0  0  0  0  0  0  0  0
   26.1973  -22.0305  -12.5670 O   0  0  0  0  0  0  0  0  0  0  0  0
   27.7005  -20.4370   -6.6873 N   0  0  0  0  0  0  0  0  0  0  0  0
   27.9441  -21.8836   -6.4900 C   0  0  0  0  0  0  0  0  0  0  0  0
   29.4124  -21.8644   -6.1267 C   0  0  0  0  0  0  0  0  0  0  0  0
   29.6890  -20.4483   -5.5922 C   0  0  0  0  0  0  0  0  0  0  0  0
   28.2458  -19.9414   -5.4734 C   0  0  1  0  0  0  0  0  0  0  0  0
   28.1356  -18.5895   -5.0576 C   0  0  0  0  0  0  0  0  0  0  0  0
   28.0578  -17.6847   -5.9679 O   0  0  0  0  0  0  0  0  0  0  0  0
   28.1035  -18.1241   -3.7850 O   0  0  0  0  0  0  0  0  0  0  0  0
  2  1  1  0
  3  2  1  0
  4  3  2  0
  5  3  1  0
  6  5  1  0
  6 11  1  0
  6  7  1  6
  8  7  1  0
  9  8  1  0
 10  9  2  0
 11 12  2  0
 13  9  1  0
 14 11  1  0
 14 18  1  0
 15 14  1  0
 16 15  1  0
 16 17  1  0
 17 18  1  0
 18 19  1  6
 19 20  2  0
 19 21  1  0
M  END
$$$$
