GEP.pdb
     RDKit          3D

 21 21  0  0  1  0  0  0  0  0999 V2000
   15.5506  -14.1857  -14.7400 N   0  0  0  0  0  0  0  0  0  0  0  0
   15.6145  -12.7333  -14.5784 C   0  0  0  0  0  0  0  0  0  0  0  0
   16.7737  -12.2016  -15.3444 C   0  0  0  0  0  0  0  0  0  0  0  0
   17.5461  -12.9463  -16.0099 O   0  0  0  0  0  0  0  0  0  0  0  0
   17.0104  -10.8110  -15.3199 N   0  0  0  0  0  0  0  0  0  0  0  0
   18.0138  -10.1437  -16.1291 C   0  0  1  0  0  0  0  0  0  0  0  0
   17.2643   -9.3536  -17.1623 C   0  0  0  0  0  0  0  0  0  0  0  0
   18.2960   -8.7658  -18.1073 C   0  0  0  0  0  0  0  0  0  0  0  0
   17.7502   -7.6981  -18.9462 C   0  0  0  0  0  0  0  0  0  0  0  0
   16.7746   -7.0030  -18.5816 O   0  0  0  0  0  0  0  0  0  0  0  0
   18.8579   -9.3138  -15.2339 C   0  0  0  0  0  0  0  0  0  0  0  0
   18.2119   -8.4515  -14.5991 O   0  0  0  0  0  0  0  0  0  0  0  0
   18.3128   -7.4294  -20.1847 O   0  0  0  0  0  0  0  0  0  0  0  0
   20.2343   -9.4478  -15.0844 N   0  0  0  0  0  0  0  0  0  0  0  0
   21.0795  -10.6049  -15.4553 C   0  0  0  0  0  0  0  0  0  0  0  0
   22.1513   -9.9095  -16.2652 C   0  0  0  0  0  0  0  0  0  0  0  0
   22.1442   -8.4453  -15.7923 C   0  0  0  0  0  0  0  0  0  0  0  0
   21.2355   -8.5855  -14.5641 C   0  0  1  0  0  0  0  0  0  0  0  0
   20.9522   -7.3609  -13.9062 C   0  0  0  0  0  0  0  0  0  0  0  0
   20.1964   -6.5142  -14.5106 O   0  0  0  0  0  0  0  0  0  0  0  0
   21.3944   -6.9643  -12.6879 O   0  0  0  0  0  0  0  0  0  0  0  0
  2  1  1  0
  3  2  1  0
  4  3  2  0
  5  3  1  0
  6  5  1  0
  6 11  1  0
  6  7  1  6
  8  7  1  0
  9  8  1  0
 10  9  2  0
 11 12  2  0
 13  9  1  0
 14 11  1  0
 14 18  1  0
 15 14  1  0
 16 15  1  0
 16 17  1  0
 17 18  1  0
 18 19  1  6
 19 20  2  0
 19 21  1  0
M  END
$$$$
