GEP.pdb
     RDKit          3D

 21 21  0  0  1  0  0  0  0  0999 V2000
   11.5327  -15.9305    2.2330 N   0  0  0  0  0  0  0  0  0  0  0  0
   12.8166  -16.5985    2.0220 C   0  0  0  0  0  0  0  0  0  0  0  0
   12.9842  -17.6772    3.0328 C   0  0  0  0  0  0  0  0  0  0  0  0
   12.1883  -17.8290    4.0011 O   0  0  0  0  0  0  0  0  0  0  0  0
   14.0771  -18.5588    2.8953 N   0  0  0  0  0  0  0  0  0  0  0  0
   14.4064  -19.5993    3.8523 C   0  0  1  0  0  0  0  0  0  0  0  0
   15.2287  -20.6109    3.1081 C   0  0  0  0  0  0  0  0  0  0  0  0
   15.2664  -21.8665    3.9596 C   0  0  0  0  0  0  0  0  0  0  0  0
   16.0143  -22.9548    3.3287 C   0  0  0  0  0  0  0  0  0  0  0  0
   16.5937  -22.8088    2.2283 O   0  0  0  0  0  0  0  0  0  0  0  0
   15.1151  -18.9731    4.9960 C   0  0  0  0  0  0  0  0  0  0  0  0
   16.1553  -18.3637    4.6637 O   0  0  0  0  0  0  0  0  0  0  0  0
   16.0981  -24.1925    3.9482 O   0  0  0  0  0  0  0  0  0  0  0  0
   14.6989  -19.0324    6.3220 N   0  0  0  0  0  0  0  0  0  0  0  0
   13.3533  -19.3719    6.8369 C   0  0  0  0  0  0  0  0  0  0  0  0
   13.7116  -20.4338    7.8529 C   0  0  0  0  0  0  0  0  0  0  0  0
   15.1820  -20.1736    8.2241 C   0  0  0  0  0  0  0  0  0  0  0  0
   15.3692  -18.8066    7.5534 C   0  0  1  0  0  0  0  0  0  0  0  0
   16.6863  -18.2876    7.6464 C   0  0  0  0  0  0  0  0  0  0  0  0
   16.9520  -17.4923    8.6212 O   0  0  0  0  0  0  0  0  0  0  0  0
   17.7243  -18.5333    6.8101 O   0  0  0  0  0  0  0  0  0  0  0  0
  2  1  1  0
  3  2  1  0
  4  3  2  0
  5  3  1  0
  6  5  1  0
  6 11  1  0
  6  7  1  6
  8  7  1  0
  9  8  1  0
 10  9  2  0
 11 12  2  0
 13  9  1  0
 14 11  1  0
 14 18  1  0
 15 14  1  0
 16 15  1  0
 16 17  1  0
 17 18  1  0
 18 19  1  6
 19 20  2  0
 19 21  1  0
M  END
$$$$
