GEP.pdb
     RDKit          3D

 21 21  0  0  1  0  0  0  0  0999 V2000
   12.0974  -14.2979    2.3453 N   0  0  0  0  0  0  0  0  0  0  0  0
   13.4222  -14.8906    2.1641 C   0  0  0  0  0  0  0  0  0  0  0  0
   13.5645  -16.0667    3.0640 C   0  0  0  0  0  0  0  0  0  0  0  0
   12.6496  -16.4307    3.8543 O   0  0  0  0  0  0  0  0  0  0  0  0
   14.7714  -16.7964    3.0253 N   0  0  0  0  0  0  0  0  0  0  0  0
   15.0401  -17.9654    3.8426 C   0  0  1  0  0  0  0  0  0  0  0  0
   15.4664  -19.0510    2.8976 C   0  0  0  0  0  0  0  0  0  0  0  0
   15.5225  -20.3398    3.6969 C   0  0  0  0  0  0  0  0  0  0  0  0
   16.0029  -21.4742    2.9069 C   0  0  0  0  0  0  0  0  0  0  0  0
   16.9313  -21.3558    2.0752 O   0  0  0  0  0  0  0  0  0  0  0  0
   16.0708  -17.6045    4.8475 C   0  0  0  0  0  0  0  0  0  0  0  0
   17.0870  -17.0725    4.3491 O   0  0  0  0  0  0  0  0  0  0  0  0
   15.4290  -22.7263    3.0664 O   0  0  0  0  0  0  0  0  0  0  0  0
   15.9592  -17.8180    6.2175 N   0  0  0  0  0  0  0  0  0  0  0  0
   14.7404  -18.1530    6.9878 C   0  0  0  0  0  0  0  0  0  0  0  0
   15.2304  -19.3576    7.7604 C   0  0  0  0  0  0  0  0  0  0  0  0
   16.7627  -19.2253    7.8073 C   0  0  0  0  0  0  0  0  0  0  0  0
   16.9045  -17.7927    7.2768 C   0  0  1  0  0  0  0  0  0  0  0  0
   18.2465  -17.3594    7.1211 C   0  0  0  0  0  0  0  0  0  0  0  0
   18.9343  -17.8655    6.1598 O   0  0  0  0  0  0  0  0  0  0  0  0
   18.9088  -16.4552    7.8833 O   0  0  0  0  0  0  0  0  0  0  0  0
  2  1  1  0
  3  2  1  0
  4  3  2  0
  5  3  1  0
  6  5  1  0
  6 11  1  0
  6  7  1  6
  8  7  1  0
  9  8  1  0
 10  9  2  0
 11 12  2  0
 13  9  1  0
 14 11  1  0
 14 18  1  0
 15 14  1  0
 16 15  1  0
 16 17  1  0
 17 18  1  0
 18 19  1  6
 19 20  2  0
 19 21  1  0
M  END
$$$$
