GEP.pdb
     RDKit          3D

 21 21  0  0  1  0  0  0  0  0999 V2000
   14.9902  -23.0433   -2.2786 N   0  0  0  0  0  0  0  0  0  0  0  0
   14.2100  -22.5210   -1.1570 C   0  0  0  0  0  0  0  0  0  0  0  0
   15.1286  -21.9149   -0.1560 C   0  0  0  0  0  0  0  0  0  0  0  0
   16.3846  -21.9500   -0.2793 O   0  0  0  0  0  0  0  0  0  0  0  0
   14.5650  -21.2790    0.9703 N   0  0  0  0  0  0  0  0  0  0  0  0
   15.3413  -20.6106    1.9986 C   0  0  1  0  0  0  0  0  0  0  0  0
   14.5254  -19.4314    2.4425 C   0  0  0  0  0  0  0  0  0  0  0  0
   15.4201  -18.5774    3.3219 C   0  0  0  0  0  0  0  0  0  0  0  0
   14.7415  -17.3835    3.8278 C   0  0  0  0  0  0  0  0  0  0  0  0
   15.0735  -16.2310    3.4681 O   0  0  0  0  0  0  0  0  0  0  0  0
   15.6221  -21.5880    3.0795 C   0  0  0  0  0  0  0  0  0  0  0  0
   14.5898  -22.0625    3.6021 O   0  0  0  0  0  0  0  0  0  0  0  0
   13.6979  -17.5067    4.7324 O   0  0  0  0  0  0  0  0  0  0  0  0
   16.8918  -21.9685    3.5015 N   0  0  0  0  0  0  0  0  0  0  0  0
   18.1749  -21.8041    2.7821 C   0  0  0  0  0  0  0  0  0  0  0  0
   19.0074  -21.1449    3.8593 C   0  0  0  0  0  0  0  0  0  0  0  0
   18.3424  -21.5308    5.1921 C   0  0  0  0  0  0  0  0  0  0  0  0
   17.3661  -22.5989    4.6823 C   0  0  1  0  0  0  0  0  0  0  0  0
   16.5144  -23.1345    5.6825 C   0  0  0  0  0  0  0  0  0  0  0  0
   16.6984  -24.3564    6.0381 O   0  0  0  0  0  0  0  0  0  0  0  0
   15.5034  -22.4988    6.3236 O   0  0  0  0  0  0  0  0  0  0  0  0
  2  1  1  0
  3  2  1  0
  4  3  2  0
  5  3  1  0
  6  5  1  0
  6 11  1  0
  6  7  1  1
  8  7  1  0
  9  8  1  0
 10  9  2  0
 11 12  2  0
 13  9  1  0
 14 11  1  0
 14 18  1  0
 15 14  1  0
 16 15  1  0
 16 17  1  0
 17 18  1  0
 18 19  1  1
 19 20  2  0
 19 21  1  0
M  END
$$$$
