GEP.pdb
     RDKit          3D

 21 21  0  0  1  0  0  0  0  0999 V2000
   25.8061  -21.0341   -7.8666 N   0  0  0  0  0  0  0  0  0  0  0  0
   25.2343  -20.1539   -8.8853 C   0  0  0  0  0  0  0  0  0  0  0  0
   25.2434  -20.8493  -10.2004 C   0  0  0  0  0  0  0  0  0  0  0  0
   25.3918  -22.0986  -10.3062 O   0  0  0  0  0  0  0  0  0  0  0  0
   25.0792  -20.0744  -11.3680 N   0  0  0  0  0  0  0  0  0  0  0  0
   24.8445  -20.6329  -12.6870 C   0  0  1  0  0  0  0  0  0  0  0  0
   23.3561  -20.6433  -12.8812 C   0  0  0  0  0  0  0  0  0  0  0  0
   23.0864  -21.3137  -14.2156 C   0  0  0  0  0  0  0  0  0  0  0  0
   21.6576  -21.4700  -14.4909 C   0  0  0  0  0  0  0  0  0  0  0  0
   21.2300  -22.3126  -15.3125 O   0  0  0  0  0  0  0  0  0  0  0  0
   25.5742  -19.8056  -13.6798 C   0  0  0  0  0  0  0  0  0  0  0  0
   25.0287  -18.7033  -13.9063 O   0  0  0  0  0  0  0  0  0  0  0  0
   20.7312  -20.6733  -13.8353 O   0  0  0  0  0  0  0  0  0  0  0  0
   26.7517  -20.1796  -14.3191 N   0  0  0  0  0  0  0  0  0  0  0  0
   27.8230  -21.0622  -13.8051 C   0  0  0  0  0  0  0  0  0  0  0  0
   27.9592  -22.0261  -14.9630 C   0  0  0  0  0  0  0  0  0  0  0  0
   27.4147  -21.2777  -16.1921 C   0  0  0  0  0  0  0  0  0  0  0  0
   27.2965  -19.8700  -15.5934 C   0  0  1  0  0  0  0  0  0  0  0  0
   26.7374  -18.9079  -16.4734 C   0  0  0  0  0  0  0  0  0  0  0  0
   27.5190  -18.0082  -16.9561 O   0  0  0  0  0  0  0  0  0  0  0  0
   25.4461  -18.8186  -16.8758 O   0  0  0  0  0  0  0  0  0  0  0  0
  2  1  1  0
  3  2  1  0
  4  3  2  0
  5  3  1  0
  6  5  1  0
  6 11  1  0
  6  7  1  6
  8  7  1  0
  9  8  1  0
 10  9  2  0
 11 12  2  0
 13  9  1  0
 14 11  1  0
 14 18  1  0
 15 14  1  0
 16 15  1  0
 16 17  1  0
 17 18  1  0
 18 19  1  6
 19 20  2  0
 19 21  1  0
M  END
$$$$
