GEP.pdb
     RDKit          3D

 21 21  0  0  1  0  0  0  0  0999 V2000
   44.8563  -12.0695   -7.1218 N   0  0  0  0  0  0  0  0  0  0  0  0
   44.0617  -10.8726   -6.8470 C   0  0  0  0  0  0  0  0  0  0  0  0
   42.8518  -10.8736   -7.7127 C   0  0  0  0  0  0  0  0  0  0  0  0
   42.7066  -11.6782   -8.6747 O   0  0  0  0  0  0  0  0  0  0  0  0
   41.8336   -9.9357   -7.4401 N   0  0  0  0  0  0  0  0  0  0  0  0
   40.6059   -9.8242   -8.2065 C   0  0  1  0  0  0  0  0  0  0  0  0
   39.4902   -9.7445   -7.2054 C   0  0  0  0  0  0  0  0  0  0  0  0
   39.2181  -11.1594   -6.7290 C   0  0  0  0  0  0  0  0  0  0  0  0
   38.0800  -11.2379   -5.8124 C   0  0  0  0  0  0  0  0  0  0  0  0
   37.1760  -10.3716   -5.8039 O   0  0  0  0  0  0  0  0  0  0  0  0
   40.7115   -8.6325   -9.0847 C   0  0  0  0  0  0  0  0  0  0  0  0
   41.2914   -7.6655   -8.5438 O   0  0  0  0  0  0  0  0  0  0  0  0
   37.9778  -12.2927   -4.9182 O   0  0  0  0  0  0  0  0  0  0  0  0
   40.2280   -8.5552  -10.3867 N   0  0  0  0  0  0  0  0  0  0  0  0
   40.2078   -9.6220  -11.4125 C   0  0  0  0  0  0  0  0  0  0  0  0
   38.7577   -9.5609  -11.8389 C   0  0  0  0  0  0  0  0  0  0  0  0
   38.2768   -8.1460  -11.4725 C   0  0  0  0  0  0  0  0  0  0  0  0
   39.6283   -7.5051  -11.1311 C   0  0  1  0  0  0  0  0  0  0  0  0
   39.5380   -6.1670  -10.6682 C   0  0  0  0  0  0  0  0  0  0  0  0
   38.8629   -5.9455   -9.5965 O   0  0  0  0  0  0  0  0  0  0  0  0
   40.0895   -5.0657  -11.2340 O   0  0  0  0  0  0  0  0  0  0  0  0
  2  1  1  0
  3  2  1  0
  4  3  2  0
  5  3  1  0
  6  5  1  0
  6 11  1  0
  6  7  1  1
  8  7  1  0
  9  8  1  0
 10  9  2  0
 11 12  2  0
 13  9  1  0
 14 11  1  0
 14 18  1  0
 15 14  1  0
 16 15  1  0
 16 17  1  0
 17 18  1  0
 18 19  1  1
 19 20  2  0
 19 21  1  0
M  END
$$$$
