GEP.pdb
     RDKit          3D

 21 21  0  0  1  0  0  0  0  0999 V2000
   22.3417  -21.3739   -9.1746 N   0  0  0  0  0  0  0  0  0  0  0  0
   23.3879  -20.3829   -9.4251 C   0  0  0  0  0  0  0  0  0  0  0  0
   24.6615  -20.8426   -8.8087 C   0  0  0  0  0  0  0  0  0  0  0  0
   24.7122  -21.8071   -7.9955 O   0  0  0  0  0  0  0  0  0  0  0  0
   25.8524  -20.1686   -9.1523 N   0  0  0  0  0  0  0  0  0  0  0  0
   27.1670  -20.5425   -8.6635 C   0  0  1  0  0  0  0  0  0  0  0  0
   28.1390  -20.1767   -9.7473 C   0  0  0  0  0  0  0  0  0  0  0  0
   28.0052  -21.2244  -10.8370 C   0  0  0  0  0  0  0  0  0  0  0  0
   27.6559  -20.6473  -12.1357 C   0  0  0  0  0  0  0  0  0  0  0  0
   27.3084  -21.3600  -13.1048 O   0  0  0  0  0  0  0  0  0  0  0  0
   27.4049  -19.8367   -7.3798 C   0  0  0  0  0  0  0  0  0  0  0  0
   26.9150  -18.6866   -7.3459 O   0  0  0  0  0  0  0  0  0  0  0  0
   27.7036  -19.2743  -12.3229 O   0  0  0  0  0  0  0  0  0  0  0  0
   28.0980  -20.3644   -6.2953 N   0  0  0  0  0  0  0  0  0  0  0  0
   28.5694  -21.7550   -6.1087 C   0  0  0  0  0  0  0  0  0  0  0  0
   30.0174  -21.5048   -5.7496 C   0  0  0  0  0  0  0  0  0  0  0  0
   30.0675  -20.0661   -5.2063 C   0  0  0  0  0  0  0  0  0  0  0  0
   28.5625  -19.7960   -5.0797 C   0  0  1  0  0  0  0  0  0  0  0  0
   28.2405  -18.4814   -4.6543 C   0  0  0  0  0  0  0  0  0  0  0  0
   27.9386  -17.6148   -5.5550 O   0  0  0  0  0  0  0  0  0  0  0  0
   28.2135  -18.0160   -3.3816 O   0  0  0  0  0  0  0  0  0  0  0  0
  2  1  1  0
  3  2  1  0
  4  3  2  0
  5  3  1  0
  6  5  1  0
  6 11  1  0
  6  7  1  6
  8  7  1  0
  9  8  1  0
 10  9  2  0
 11 12  2  0
 13  9  1  0
 14 11  1  0
 14 18  1  0
 15 14  1  0
 16 15  1  0
 16 17  1  0
 17 18  1  0
 18 19  1  6
 19 20  2  0
 19 21  1  0
M  END
$$$$
