GEP.pdb
     RDKit          3D

 21 21  0  0  1  0  0  0  0  0999 V2000
   15.6244  -21.7209    1.0840 N   0  0  0  0  0  0  0  0  0  0  0  0
   15.2271  -21.3685    2.4468 C   0  0  0  0  0  0  0  0  0  0  0  0
   16.3077  -20.5698    3.0853 C   0  0  0  0  0  0  0  0  0  0  0  0
   17.3879  -20.2941    2.4928 O   0  0  0  0  0  0  0  0  0  0  0  0
   16.1080  -20.1074    4.4033 N   0  0  0  0  0  0  0  0  0  0  0  0
   17.0639  -19.2937    5.1320 C   0  0  1  0  0  0  0  0  0  0  0  0
   16.2583  -18.3076    5.9267 C   0  0  0  0  0  0  0  0  0  0  0  0
   15.6372  -17.3399    4.9363 C   0  0  0  0  0  0  0  0  0  0  0  0
   14.9179  -16.2460    5.5904 C   0  0  0  0  0  0  0  0  0  0  0  0
   14.7922  -16.1872    6.8348 O   0  0  0  0  0  0  0  0  0  0  0  0
   17.9030  -20.1925    5.9631 C   0  0  0  0  0  0  0  0  0  0  0  0
   17.2392  -21.0077    6.6405 O   0  0  0  0  0  0  0  0  0  0  0  0
   14.3506  -15.2338    4.8313 O   0  0  0  0  0  0  0  0  0  0  0  0
   19.2928  -20.1662    6.0137 N   0  0  0  0  0  0  0  0  0  0  0  0
   20.2270  -19.5964    5.0169 C   0  0  0  0  0  0  0  0  0  0  0  0
   21.0853  -18.7312    5.9131 C   0  0  0  0  0  0  0  0  0  0  0  0
   20.9480  -19.3305    7.3236 C   0  0  0  0  0  0  0  0  0  0  0  0
   20.2314  -20.6398    6.9684 C   0  0  1  0  0  0  0  0  0  0  0  0
   19.8778  -21.4331    8.0901 C   0  0  0  0  0  0  0  0  0  0  0  0
   20.3763  -22.6155    8.1718 O   0  0  0  0  0  0  0  0  0  0  0  0
   19.0558  -21.0877    9.1110 O   0  0  0  0  0  0  0  0  0  0  0  0
  2  1  1  0
  3  2  1  0
  4  3  2  0
  5  3  1  0
  6  5  1  0
  6 11  1  0
  6  7  1  1
  8  7  1  0
  9  8  1  0
 10  9  2  0
 11 12  2  0
 13  9  1  0
 14 11  1  0
 14 18  1  0
 15 14  1  0
 16 15  1  0
 16 17  1  0
 17 18  1  0
 18 19  1  1
 19 20  2  0
 19 21  1  0
M  END
$$$$
