GEP.pdb
     RDKit          3D

 21 21  0  0  1  0  0  0  0  0999 V2000
   24.5665  -25.2668  -15.7521 N   0  0  0  0  0  0  0  0  0  0  0  0
   24.1174  -23.8848  -15.5850 C   0  0  0  0  0  0  0  0  0  0  0  0
   25.2280  -23.0689  -15.0246 C   0  0  0  0  0  0  0  0  0  0  0  0
   26.3758  -23.5462  -14.8037 O   0  0  0  0  0  0  0  0  0  0  0  0
   24.9791  -21.7113  -14.7322 N   0  0  0  0  0  0  0  0  0  0  0  0
   25.9773  -20.7972  -14.2079 C   0  0  1  0  0  0  0  0  0  0  0  0
   25.7584  -19.4877  -14.9081 C   0  0  0  0  0  0  0  0  0  0  0  0
   26.8372  -18.5376  -14.4219 C   0  0  0  0  0  0  0  0  0  0  0  0
   27.1282  -17.4735  -15.3835 C   0  0  0  0  0  0  0  0  0  0  0  0
   26.7405  -16.2963  -15.2056 O   0  0  0  0  0  0  0  0  0  0  0  0
   25.8150  -20.7253  -12.7345 C   0  0  0  0  0  0  0  0  0  0  0  0
   24.7404  -20.1944  -12.3775 O   0  0  0  0  0  0  0  0  0  0  0  0
   27.8526  -17.7525  -16.5324 O   0  0  0  0  0  0  0  0  0  0  0  0
   26.7404  -21.1902  -11.8058 N   0  0  0  0  0  0  0  0  0  0  0  0
   27.9476  -22.0086  -12.0586 C   0  0  0  0  0  0  0  0  0  0  0  0
   28.9885  -21.1896  -11.3280 C   0  0  0  0  0  0  0  0  0  0  0  0
   28.2118  -20.3650  -10.2867 C   0  0  0  0  0  0  0  0  0  0  0  0
   26.8441  -21.0516  -10.3964 C   0  0  1  0  0  0  0  0  0  0  0  0
   25.8336  -20.4693   -9.5885 C   0  0  0  0  0  0  0  0  0  0  0  0
   25.4935  -19.2538   -9.8336 O   0  0  0  0  0  0  0  0  0  0  0  0
   25.1678  -21.0532   -8.5624 O   0  0  0  0  0  0  0  0  0  0  0  0
  2  1  1  0
  3  2  1  0
  4  3  2  0
  5  3  1  0
  6  5  1  0
  6 11  1  0
  6  7  1  6
  8  7  1  0
  9  8  1  0
 10  9  2  0
 11 12  2  0
 13  9  1  0
 14 11  1  0
 14 18  1  0
 15 14  1  0
 16 15  1  0
 16 17  1  0
 17 18  1  0
 18 19  1  6
 19 20  2  0
 19 21  1  0
M  END
$$$$
