KYL.pdb
     RDKit          3D

 30 30  0  0  1  0  0  0  0  0999 V2000
    8.3277  -20.2359   21.5785 N   0  0  0  0  0  0  0  0  0  0  0  0
    7.5813  -19.1755   22.1660 C   0  0  1  0  0  0  0  0  0  0  0  0
    6.7625  -19.4581   23.3474 C   0  0  0  0  0  0  0  0  0  0  0  0
    6.7770  -20.7664   24.0069 C   0  0  0  0  0  0  0  0  0  0  0  0
    7.9214  -21.3866   24.6479 C   0  0  0  0  0  0  0  0  0  0  0  0
    7.8745  -22.6893   25.3206 C   0  0  0  0  0  0  0  0  0  0  0  0
    8.7317  -23.7079   24.7433 N   0  0  0  0  0  0  0  0  0  0  0  0
    8.4222  -17.9380   22.3329 C   0  0  0  0  0  0  0  0  0  0  0  0
    9.6724  -18.0427   22.2636 O   0  0  0  0  0  0  0  0  0  0  0  0
    6.5050  -11.9207   27.5916 O   0  0  0  0  0  0  0  0  0  0  0  0
    6.8389  -12.4934   26.3509 C   0  0  0  0  0  0  0  0  0  0  0  0
    6.4332  -13.7643   26.0119 C   0  0  0  0  0  0  0  0  0  0  0  0
    6.7617  -14.3357   24.7836 C   0  0  0  0  0  0  0  0  0  0  0  0
    7.5092  -13.6254   23.8764 C   0  0  0  0  0  0  0  0  0  0  0  0
    7.8578  -14.2144   22.5857 C   0  0  0  0  0  0  0  0  0  0  0  0
    8.6905  -15.4514   22.6598 C   0  0  2  0  0  0  0  0  0  0  0  0
    7.8762  -16.6613   22.5641 N   0  0  0  0  0  0  0  0  0  0  0  0
    9.5603  -15.5119   23.8612 C   0  0  0  0  0  0  0  0  0  0  0  0
   10.5395  -14.7011   24.0042 O   0  0  0  0  0  0  0  0  0  0  0  0
    7.9148  -12.3510   24.2187 C   0  0  0  0  0  0  0  0  0  0  0  0
    7.5872  -11.7809   25.4439 C   0  0  0  0  0  0  0  0  0  0  0  0
   11.1680  -14.2420   28.3472 C   0  0  0  0  0  0  0  0  0  0  0  0
    9.7891  -14.8030   28.2368 C   0  0  1  0  0  0  0  0  0  0  0  0
    8.7636  -13.8496   28.8602 C   0  0  0  0  0  0  0  0  0  0  0  0
    9.4084  -15.2468   26.9003 C   0  0  0  0  0  0  0  0  0  0  0  0
   10.1624  -16.3103   26.1733 C   0  0  2  0  0  0  0  0  0  0  0  0
    9.3614  -16.4497   24.9031 N   0  0  0  0  0  0  0  0  0  0  0  0
   10.2529  -17.6073   26.8147 C   0  0  0  0  0  0  0  0  0  0  0  0
   11.1776  -18.0271   27.5421 O   0  0  0  0  0  0  0  0  0  0  0  0
    9.1996  -18.5315   26.6248 O   0  0  0  0  0  0  0  0  0  0  0  0
  2  8  1  0
  2  1  1  1
  3  2  1  0
  4  3  1  0
  5  4  1  0
  6  5  1  0
  6  7  1  0
  8  9  2  0
 10 11  1  0
 11 12  2  0
 12 13  1  0
 14 13  2  0
 14 15  1  0
 16 17  1  0
 16 15  1  1
 17  8  1  0
 18 16  1  0
 19 18  2  0
 20 14  1  0
 21 11  1  0
 21 20  2  0
 23 22  1  6
 23 25  1  0
 24 23  1  0
 26 25  1  1
 26 27  1  0
 27 18  1  0
 28 26  1  0
 28 30  1  0
 29 28  2  0
M  END
$$$$
