KYL.pdb
     RDKit          3D

 30 30  0  0  1  0  0  0  0  0999 V2000
    7.6294  -18.7644   21.4489 N   0  0  0  0  0  0  0  0  0  0  0  0
    9.0293  -18.6726   21.2065 C   0  0  1  0  0  0  0  0  0  0  0  0
    9.5521  -19.1124   19.9107 C   0  0  0  0  0  0  0  0  0  0  0  0
    9.6753  -20.5308   19.5644 C   0  0  0  0  0  0  0  0  0  0  0  0
   10.2504  -21.0646   18.3440 C   0  0  0  0  0  0  0  0  0  0  0  0
   10.2865  -22.4937   18.0148 C   0  0  0  0  0  0  0  0  0  0  0  0
   10.9220  -22.8151   16.7505 N   0  0  0  0  0  0  0  0  0  0  0  0
    9.5717  -17.3302   21.6188 C   0  0  0  0  0  0  0  0  0  0  0  0
   10.8066  -17.1204   21.5185 O   0  0  0  0  0  0  0  0  0  0  0  0
    7.5273  -13.4581   16.5113 O   0  0  0  0  0  0  0  0  0  0  0  0
    7.7470  -13.5587   17.8972 C   0  0  0  0  0  0  0  0  0  0  0  0
    8.8410  -12.9772   18.4969 C   0  0  0  0  0  0  0  0  0  0  0  0
    9.0625  -13.0743   19.8697 C   0  0  0  0  0  0  0  0  0  0  0  0
    8.1755  -13.7647   20.6590 C   0  0  0  0  0  0  0  0  0  0  0  0
    8.3976  -13.8713   22.0990 C   0  0  0  0  0  0  0  0  0  0  0  0
    9.2915  -14.9909   22.5194 C   0  0  2  0  0  0  0  0  0  0  0  0
    8.7614  -16.2912   22.1141 N   0  0  0  0  0  0  0  0  0  0  0  0
    9.6003  -14.9925   23.9713 C   0  0  0  0  0  0  0  0  0  0  0  0
   10.6019  -14.3421   24.4301 O   0  0  0  0  0  0  0  0  0  0  0  0
    7.0791  -14.3470   20.0551 C   0  0  0  0  0  0  0  0  0  0  0  0
    6.8580  -14.2503   18.6857 C   0  0  0  0  0  0  0  0  0  0  0  0
    8.6819  -12.4321   27.4917 C   0  0  0  0  0  0  0  0  0  0  0  0
    7.5073  -13.3517   27.4392 C   0  0  1  0  0  0  0  0  0  0  0  0
    6.2045  -12.5600   27.2808 C   0  0  0  0  0  0  0  0  0  0  0  0
    7.6230  -14.4466   26.4820 C   0  0  0  0  0  0  0  0  0  0  0  0
    8.8630  -15.2690   26.3641 C   0  0  2  0  0  0  0  0  0  0  0  0
    8.8190  -15.6972   24.9188 N   0  0  0  0  0  0  0  0  0  0  0  0
    8.9503  -16.4503   27.2001 C   0  0  0  0  0  0  0  0  0  0  0  0
    9.3984  -16.5203   28.3640 O   0  0  0  0  0  0  0  0  0  0  0  0
    8.4873  -17.6820   26.6821 O   0  0  0  0  0  0  0  0  0  0  0  0
  2  8  1  0
  2  1  1  6
  3  2  1  0
  4  3  1  0
  5  4  1  0
  6  5  1  0
  6  7  1  0
  8  9  2  0
 10 11  1  0
 11 12  2  0
 12 13  1  0
 14 13  2  0
 14 15  1  0
 16 17  1  0
 16 15  1  1
 17  8  1  0
 18 16  1  0
 19 18  2  0
 20 14  1  0
 21 11  1  0
 21 20  2  0
 23 22  1  6
 23 25  1  0
 24 23  1  0
 26 25  1  1
 26 27  1  0
 27 18  1  0
 28 26  1  0
 28 30  1  0
 29 28  2  0
M  END
$$$$
