KYL.pdb
     RDKit          3D

 30 30  0  0  1  0  0  0  0  0999 V2000
    4.6331  -19.9917   21.4521 N   0  0  0  0  0  0  0  0  0  0  0  0
    4.3114  -18.6461   21.7879 C   0  0  1  0  0  0  0  0  0  0  0  0
    2.9187  -18.2048   21.6800 C   0  0  0  0  0  0  0  0  0  0  0  0
    2.0674  -18.5907   20.5517 C   0  0  0  0  0  0  0  0  0  0  0  0
    2.4669  -18.6366   19.1576 C   0  0  0  0  0  0  0  0  0  0  0  0
    1.5793  -19.0537   18.0666 C   0  0  0  0  0  0  0  0  0  0  0  0
    2.1830  -19.0411   16.7472 N   0  0  0  0  0  0  0  0  0  0  0  0
    4.9434  -18.2387   23.0920 C   0  0  0  0  0  0  0  0  0  0  0  0
    4.7025  -17.0932   23.5489 O   0  0  0  0  0  0  0  0  0  0  0  0
   10.0521  -18.2665   30.3826 O   0  0  0  0  0  0  0  0  0  0  0  0
    9.3712  -18.6289   29.2062 C   0  0  0  0  0  0  0  0  0  0  0  0
    8.0095  -18.8298   29.1951 C   0  0  0  0  0  0  0  0  0  0  0  0
    7.3308  -19.1889   28.0317 C   0  0  0  0  0  0  0  0  0  0  0  0
    8.0240  -19.3505   26.8571 C   0  0  0  0  0  0  0  0  0  0  0  0
    7.3221  -19.7252   25.6319 C   0  0  0  0  0  0  0  0  0  0  0  0
    6.6309  -18.6027   24.9310 C   0  0  2  0  0  0  0  0  0  0  0  0
    5.7960  -19.0806   23.8308 N   0  0  0  0  0  0  0  0  0  0  0  0
    7.5531  -17.5425   24.4524 C   0  0  0  0  0  0  0  0  0  0  0  0
    7.4771  -17.0976   23.2553 O   0  0  0  0  0  0  0  0  0  0  0  0
    9.3896  -19.1484   26.8708 C   0  0  0  0  0  0  0  0  0  0  0  0
   10.0668  -18.7902   28.0312 C   0  0  0  0  0  0  0  0  0  0  0  0
    7.7937  -12.6314   24.3200 C   0  0  0  0  0  0  0  0  0  0  0  0
    7.3931  -13.4217   25.5213 C   0  0  1  0  0  0  0  0  0  0  0  0
    5.9943  -13.0145   25.9974 C   0  0  0  0  0  0  0  0  0  0  0  0
    7.5465  -14.8665   25.3889 C   0  0  0  0  0  0  0  0  0  0  0  0
    8.8702  -15.5021   25.1213 C   0  0  2  0  0  0  0  0  0  0  0  0
    8.5512  -16.9678   25.2761 N   0  0  0  0  0  0  0  0  0  0  0  0
    9.9564  -15.1618   26.0194 C   0  0  0  0  0  0  0  0  0  0  0  0
   10.8623  -14.3240   25.8254 O   0  0  0  0  0  0  0  0  0  0  0  0
   10.0382  -15.8261   27.2651 O   0  0  0  0  0  0  0  0  0  0  0  0
  2  8  1  0
  2  1  1  1
  3  2  1  0
  4  3  1  0
  5  4  1  0
  6  5  1  0
  6  7  1  0
  8  9  2  0
 10 11  1  0
 11 12  2  0
 12 13  1  0
 14 13  2  0
 14 15  1  0
 16 17  1  0
 16 15  1  6
 17  8  1  0
 18 16  1  0
 19 18  2  0
 20 14  1  0
 21 11  1  0
 21 20  2  0
 23 22  1  6
 23 25  1  0
 24 23  1  0
 26 25  1  1
 26 27  1  0
 27 18  1  0
 28 26  1  0
 28 30  1  0
 29 28  2  0
M  END
$$$$
