KYL.pdb
     RDKit          3D

 30 30  0  0  1  0  0  0  0  0999 V2000
    9.9392  -17.5931   18.7778 N   0  0  0  0  0  0  0  0  0  0  0  0
   10.9113  -17.5679   19.8177 C   0  0  1  0  0  0  0  0  0  0  0  0
   12.3275  -17.4638   19.4583 C   0  0  0  0  0  0  0  0  0  0  0  0
   13.0761  -18.6004   18.9154 C   0  0  0  0  0  0  0  0  0  0  0  0
   13.7367  -18.6490   17.6245 C   0  0  0  0  0  0  0  0  0  0  0  0
   15.1738  -18.8865   17.4504 C   0  0  0  0  0  0  0  0  0  0  0  0
   15.5159  -20.1673   16.8605 N   0  0  0  0  0  0  0  0  0  0  0  0
   10.5238  -16.6066   20.9094 C   0  0  0  0  0  0  0  0  0  0  0  0
   11.1004  -15.4916   20.9659 O   0  0  0  0  0  0  0  0  0  0  0  0
    5.7337  -11.8508   26.5558 O   0  0  0  0  0  0  0  0  0  0  0  0
    6.2101  -12.7953   25.6286 C   0  0  0  0  0  0  0  0  0  0  0  0
    6.8775  -12.4110   24.4877 C   0  0  0  0  0  0  0  0  0  0  0  0
    7.3513  -13.3435   23.5662 C   0  0  0  0  0  0  0  0  0  0  0  0
    7.1554  -14.6848   23.7873 C   0  0  0  0  0  0  0  0  0  0  0  0
    7.6492  -15.6704   22.8286 C   0  0  0  0  0  0  0  0  0  0  0  0
    9.1176  -15.9330   22.8920 C   0  0  2  0  0  0  0  0  0  0  0  0
    9.5422  -16.8944   21.8764 N   0  0  0  0  0  0  0  0  0  0  0  0
    9.5878  -16.3619   24.2331 C   0  0  0  0  0  0  0  0  0  0  0  0
    9.7513  -17.6010   24.5062 O   0  0  0  0  0  0  0  0  0  0  0  0
    6.4858  -15.0676   24.9323 C   0  0  0  0  0  0  0  0  0  0  0  0
    6.0131  -14.1376   25.8516 C   0  0  0  0  0  0  0  0  0  0  0  0
   10.9220  -13.4559   29.4861 C   0  0  0  0  0  0  0  0  0  0  0  0
   10.8548  -14.7928   28.8255 C   0  0  1  0  0  0  0  0  0  0  0  0
   10.1204  -15.8018   29.7154 C   0  0  0  0  0  0  0  0  0  0  0  0
   10.3550  -14.7796   27.4549 C   0  0  0  0  0  0  0  0  0  0  0  0
   10.4896  -15.9593   26.5505 C   0  0  2  0  0  0  0  0  0  0  0  0
    9.8814  -15.4440   25.2704 N   0  0  0  0  0  0  0  0  0  0  0  0
    9.7973  -17.1712   26.9433 C   0  0  0  0  0  0  0  0  0  0  0  0
   10.2746  -18.1477   27.5589 O   0  0  0  0  0  0  0  0  0  0  0  0
    8.4283  -17.3054   26.6152 O   0  0  0  0  0  0  0  0  0  0  0  0
  2  8  1  0
  2  1  1  6
  3  2  1  0
  4  3  1  0
  5  4  1  0
  6  5  1  0
  6  7  1  0
  8  9  2  0
 10 11  1  0
 11 12  2  0
 12 13  1  0
 14 13  2  0
 14 15  1  0
 16 17  1  0
 16 15  1  1
 17  8  1  0
 18 16  1  0
 19 18  2  0
 20 14  1  0
 21 11  1  0
 21 20  2  0
 23 22  1  1
 23 25  1  0
 24 23  1  0
 26 25  1  1
 26 27  1  0
 27 18  1  0
 28 26  1  0
 28 30  1  0
 29 28  2  0
M  END
$$$$
