KYL.pdb
     RDKit          3D

 30 30  0  0  1  0  0  0  0  0999 V2000
   11.4441  -16.3971   21.3965 N   0  0  0  0  0  0  0  0  0  0  0  0
   10.4487  -17.3284   21.8071 C   0  0  1  0  0  0  0  0  0  0  0  0
   10.3094  -18.5853   21.0677 C   0  0  0  0  0  0  0  0  0  0  0  0
   10.1863  -18.6175   19.6080 C   0  0  0  0  0  0  0  0  0  0  0  0
   10.6482  -17.5936   18.6897 C   0  0  0  0  0  0  0  0  0  0  0  0
   10.5130  -17.6824   17.2317 C   0  0  0  0  0  0  0  0  0  0  0  0
   11.2863  -18.7401   16.6082 N   0  0  0  0  0  0  0  0  0  0  0  0
   10.4741  -17.5389   23.2975 C   0  0  0  0  0  0  0  0  0  0  0  0
    9.8092  -18.4868   23.7857 O   0  0  0  0  0  0  0  0  0  0  0  0
   11.9746  -16.3893   31.9965 O   0  0  0  0  0  0  0  0  0  0  0  0
   12.0357  -16.3319   30.5923 C   0  0  0  0  0  0  0  0  0  0  0  0
   12.8681  -17.1595   29.8733 C   0  0  0  0  0  0  0  0  0  0  0  0
   12.9318  -17.1061   28.4818 C   0  0  0  0  0  0  0  0  0  0  0  0
   12.1501  -16.2098   27.7948 C   0  0  0  0  0  0  0  0  0  0  0  0
   12.2082  -16.1467   26.3364 C   0  0  0  0  0  0  0  0  0  0  0  0
   11.0511  -16.7722   25.6302 C   0  0  2  0  0  0  0  0  0  0  0  0
   11.2093  -16.7230   24.1781 N   0  0  0  0  0  0  0  0  0  0  0  0
    9.7369  -16.2044   26.0228 C   0  0  0  0  0  0  0  0  0  0  0  0
    9.3184  -16.2906   27.2287 O   0  0  0  0  0  0  0  0  0  0  0  0
   11.3162  -15.3809   28.5181 C   0  0  0  0  0  0  0  0  0  0  0  0
   11.2525  -15.4341   29.9062 C   0  0  0  0  0  0  0  0  0  0  0  0
    5.9437  -12.6284   26.8116 C   0  0  0  0  0  0  0  0  0  0  0  0
    6.4378  -12.7280   25.4066 C   0  0  1  0  0  0  0  0  0  0  0  0
    6.6571  -11.3341   24.8081 C   0  0  0  0  0  0  0  0  0  0  0  0
    7.5832  -13.6112   25.2162 C   0  0  0  0  0  0  0  0  0  0  0  0
    7.5379  -15.0580   25.5804 C   0  0  2  0  0  0  0  0  0  0  0  0
    8.8847  -15.5430   25.1058 N   0  0  0  0  0  0  0  0  0  0  0  0
    6.5045  -15.8610   24.9565 C   0  0  0  0  0  0  0  0  0  0  0  0
    6.4975  -16.3097   23.7908 O   0  0  0  0  0  0  0  0  0  0  0  0
    5.3597  -16.1991   25.7148 O   0  0  0  0  0  0  0  0  0  0  0  0
  2  8  1  0
  2  1  1  6
  3  2  1  0
  4  3  1  0
  5  4  1  0
  6  5  1  0
  6  7  1  0
  8  9  2  0
 10 11  1  0
 11 12  2  0
 12 13  1  0
 14 13  2  0
 14 15  1  0
 16 17  1  0
 16 15  1  1
 17  8  1  0
 18 16  1  0
 19 18  2  0
 20 14  1  0
 21 11  1  0
 21 20  2  0
 23 22  1  1
 23 25  1  0
 24 23  1  0
 26 25  1  6
 26 27  1  0
 27 18  1  0
 28 26  1  0
 28 30  1  0
 29 28  2  0
M  END
$$$$
