KYL.pdb
     RDKit          3D

 30 30  0  0  1  0  0  0  0  0999 V2000
    6.8681  -16.3793   19.4719 N   0  0  0  0  0  0  0  0  0  0  0  0
    7.4962  -15.4672   20.3666 C   0  0  1  0  0  0  0  0  0  0  0  0
    7.3194  -14.0294   20.1490 C   0  0  0  0  0  0  0  0  0  0  0  0
    7.7200  -13.3786   18.8988 C   0  0  0  0  0  0  0  0  0  0  0  0
    8.8232  -13.7766   18.0447 C   0  0  0  0  0  0  0  0  0  0  0  0
    9.1658  -13.1050   16.7864 C   0  0  0  0  0  0  0  0  0  0  0  0
   10.1941  -13.7623   16.0015 N   0  0  0  0  0  0  0  0  0  0  0  0
    7.2721  -15.8626   21.8017 C   0  0  0  0  0  0  0  0  0  0  0  0
    6.3049  -15.3566   22.4242 O   0  0  0  0  0  0  0  0  0  0  0  0
    7.8052  -19.9695   29.6675 O   0  0  0  0  0  0  0  0  0  0  0  0
    7.9427  -19.5980   28.3177 C   0  0  0  0  0  0  0  0  0  0  0  0
    6.8458  -19.3543   27.5226 C   0  0  0  0  0  0  0  0  0  0  0  0
    6.9774  -18.9859   26.1847 C   0  0  0  0  0  0  0  0  0  0  0  0
    8.2272  -18.8583   25.6296 C   0  0  0  0  0  0  0  0  0  0  0  0
    8.3762  -18.4713   24.2288 C   0  0  0  0  0  0  0  0  0  0  0  0
    7.9390  -17.0804   23.9075 C   0  0  2  0  0  0  0  0  0  0  0  0
    8.0957  -16.7759   22.4867 N   0  0  0  0  0  0  0  0  0  0  0  0
    8.6065  -16.0417   24.7316 C   0  0  0  0  0  0  0  0  0  0  0  0
    9.8256  -15.7176   24.5183 O   0  0  0  0  0  0  0  0  0  0  0  0
    9.3257  -19.1033   26.4291 C   0  0  0  0  0  0  0  0  0  0  0  0
    9.1946  -19.4708   27.7637 C   0  0  0  0  0  0  0  0  0  0  0  0
    7.2682  -12.3187   24.8559 C   0  0  0  0  0  0  0  0  0  0  0  0
    7.2304  -12.2181   26.3447 C   0  0  1  0  0  0  0  0  0  0  0  0
    5.8858  -11.6535   26.8167 C   0  0  0  0  0  0  0  0  0  0  0  0
    7.6137  -13.4331   27.0554 C   0  0  0  0  0  0  0  0  0  0  0  0
    8.7094  -14.3231   26.5704 C   0  0  2  0  0  0  0  0  0  0  0  0
    7.9469  -15.3574   25.7811 N   0  0  0  0  0  0  0  0  0  0  0  0
    9.5047  -14.9960   27.5788 C   0  0  0  0  0  0  0  0  0  0  0  0
    9.3202  -16.1392   28.0472 O   0  0  0  0  0  0  0  0  0  0  0  0
   10.6241  -14.3217   28.1192 O   0  0  0  0  0  0  0  0  0  0  0  0
  2  8  1  0
  2  1  1  6
  3  2  1  0
  4  3  1  0
  5  4  1  0
  6  5  1  0
  6  7  1  0
  8  9  2  0
 10 11  1  0
 11 12  2  0
 12 13  1  0
 14 13  2  0
 14 15  1  0
 16 17  1  0
 16 15  1  6
 17  8  1  0
 18 16  1  0
 19 18  2  0
 20 14  1  0
 21 11  1  0
 21 20  2  0
 23 22  1  6
 23 25  1  0
 24 23  1  0
 26 25  1  1
 26 27  1  0
 27 18  1  0
 28 26  1  0
 28 30  1  0
 29 28  2  0
M  END
$$$$
