KYL.pdb
     RDKit          3D

 30 30  0  0  1  0  0  0  0  0999 V2000
    8.2699  -16.9640   19.5389 N   0  0  0  0  0  0  0  0  0  0  0  0
    9.1786  -15.8700   19.6034 C   0  0  1  0  0  0  0  0  0  0  0  0
    9.0138  -14.7587   18.6633 C   0  0  0  0  0  0  0  0  0  0  0  0
    8.5800  -14.9701   17.2799 C   0  0  0  0  0  0  0  0  0  0  0  0
    8.4423  -13.9450   16.2624 C   0  0  0  0  0  0  0  0  0  0  0  0
    7.8984  -14.1916   14.9225 C   0  0  0  0  0  0  0  0  0  0  0  0
    7.9105  -13.0432   14.0357 N   0  0  0  0  0  0  0  0  0  0  0  0
    9.3730  -15.3996   21.0201 C   0  0  0  0  0  0  0  0  0  0  0  0
   10.2404  -14.5204   21.2516 O   0  0  0  0  0  0  0  0  0  0  0  0
    6.1143  -11.1658   27.6693 O   0  0  0  0  0  0  0  0  0  0  0  0
    6.4265  -12.2214   26.7934 C   0  0  0  0  0  0  0  0  0  0  0  0
    7.2630  -12.0392   25.7155 C   0  0  0  0  0  0  0  0  0  0  0  0
    7.5751  -13.0823   24.8451 C   0  0  0  0  0  0  0  0  0  0  0  0
    7.0424  -14.3309   25.0543 C   0  0  0  0  0  0  0  0  0  0  0  0
    7.3642  -15.4313   24.1488 C   0  0  0  0  0  0  0  0  0  0  0  0
    8.6730  -15.3054   23.4415 C   0  0  2  0  0  0  0  0  0  0  0  0
    8.6283  -15.8973   22.1060 N   0  0  0  0  0  0  0  0  0  0  0  0
    9.8190  -15.8552   24.2084 C   0  0  0  0  0  0  0  0  0  0  0  0
   11.0006  -15.3928   24.0449 O   0  0  0  0  0  0  0  0  0  0  0  0
    6.2038  -14.5110   26.1360 C   0  0  0  0  0  0  0  0  0  0  0  0
    5.8923  -13.4706   27.0043 C   0  0  0  0  0  0  0  0  0  0  0  0
    9.7969  -13.3194   28.0496 C   0  0  0  0  0  0  0  0  0  0  0  0
   10.5394  -14.5849   27.7749 C   0  0  1  0  0  0  0  0  0  0  0  0
   11.2300  -15.0957   29.0443 C   0  0  0  0  0  0  0  0  0  0  0  0
    9.7660  -15.6197   27.0972 C   0  0  0  0  0  0  0  0  0  0  0  0
   10.4129  -16.8064   26.4640 C   0  0  2  0  0  0  0  0  0  0  0  0
    9.6767  -16.9017   25.1513 N   0  0  0  0  0  0  0  0  0  0  0  0
   10.2920  -18.0715   27.1618 C   0  0  0  0  0  0  0  0  0  0  0  0
    9.2877  -18.8126   27.2132 O   0  0  0  0  0  0  0  0  0  0  0  0
   11.4105  -18.5605   27.8757 O   0  0  0  0  0  0  0  0  0  0  0  0
  2  8  1  0
  2  1  1  1
  3  2  1  0
  4  3  1  0
  5  4  1  0
  6  5  1  0
  6  7  1  0
  8  9  2  0
 10 11  1  0
 11 12  2  0
 12 13  1  0
 14 13  2  0
 14 15  1  0
 16 17  1  0
 16 15  1  1
 17  8  1  0
 18 16  1  0
 19 18  2  0
 20 14  1  0
 21 11  1  0
 21 20  2  0
 23 22  1  1
 23 25  1  0
 24 23  1  0
 26 25  1  1
 26 27  1  0
 27 18  1  0
 28 26  1  0
 28 30  1  0
 29 28  2  0
M  END
$$$$
