KYL.pdb
     RDKit          3D

 30 30  0  0  1  0  0  0  0  0999 V2000
    9.9915  -18.9613   20.3509 N   0  0  0  0  0  0  0  0  0  0  0  0
   10.5781  -17.7159   19.9877 C   0  0  1  0  0  0  0  0  0  0  0  0
   10.4902  -17.2735   18.5940 C   0  0  0  0  0  0  0  0  0  0  0  0
   10.5360  -18.2187   17.4753 C   0  0  0  0  0  0  0  0  0  0  0  0
   10.2878  -17.9036   16.0810 C   0  0  0  0  0  0  0  0  0  0  0  0
   10.2158  -18.9100   15.0161 C   0  0  0  0  0  0  0  0  0  0  0  0
    9.7808  -18.4071   13.7264 N   0  0  0  0  0  0  0  0  0  0  0  0
   10.2057  -16.6285   20.9598 C   0  0  0  0  0  0  0  0  0  0  0  0
   10.5331  -15.4442   20.6968 O   0  0  0  0  0  0  0  0  0  0  0  0
    5.5601  -11.6130   26.4695 O   0  0  0  0  0  0  0  0  0  0  0  0
    6.0666  -12.6597   25.6779 C   0  0  0  0  0  0  0  0  0  0  0  0
    6.8219  -12.4120   24.5541 C   0  0  0  0  0  0  0  0  0  0  0  0
    7.3257  -13.4461   23.7668 C   0  0  0  0  0  0  0  0  0  0  0  0
    7.0711  -14.7521   24.1073 C   0  0  0  0  0  0  0  0  0  0  0  0
    7.5957  -15.8433   23.2898 C   0  0  0  0  0  0  0  0  0  0  0  0
    9.0698  -15.8057   23.0562 C   0  0  2  0  0  0  0  0  0  0  0  0
    9.5050  -16.8718   22.1563 N   0  0  0  0  0  0  0  0  0  0  0  0
    9.8709  -15.8299   24.3058 C   0  0  0  0  0  0  0  0  0  0  0  0
   10.7359  -14.9192   24.5487 O   0  0  0  0  0  0  0  0  0  0  0  0
    6.3133  -14.9979   25.2348 C   0  0  0  0  0  0  0  0  0  0  0  0
    5.8106  -13.9664   26.0203 C   0  0  0  0  0  0  0  0  0  0  0  0
   11.6118  -14.2489   28.3945 C   0  0  0  0  0  0  0  0  0  0  0  0
   10.2298  -14.8131   28.3926 C   0  0  1  0  0  0  0  0  0  0  0  0
    9.2231  -13.7855   28.9214 C   0  0  0  0  0  0  0  0  0  0  0  0
    9.8114  -15.4171   27.1323 C   0  0  0  0  0  0  0  0  0  0  0  0
   10.4257  -16.6745   26.6132 C   0  0  2  0  0  0  0  0  0  0  0  0
    9.7271  -16.8404   25.2870 N   0  0  0  0  0  0  0  0  0  0  0  0
   10.2284  -17.8762   27.4001 C   0  0  0  0  0  0  0  0  0  0  0  0
   11.0559  -18.4286   28.1553 O   0  0  0  0  0  0  0  0  0  0  0  0
    8.9750  -18.5280   27.3377 O   0  0  0  0  0  0  0  0  0  0  0  0
  2  8  1  0
  2  1  1  6
  3  2  1  0
  4  3  1  0
  5  4  1  0
  6  5  1  0
  6  7  1  0
  8  9  2  0
 10 11  1  0
 11 12  2  0
 12 13  1  0
 14 13  2  0
 14 15  1  0
 16 17  1  0
 16 15  1  1
 17  8  1  0
 18 16  1  0
 19 18  2  0
 20 14  1  0
 21 11  1  0
 21 20  2  0
 23 22  1  6
 23 25  1  0
 24 23  1  0
 26 25  1  1
 26 27  1  0
 27 18  1  0
 28 26  1  0
 28 30  1  0
 29 28  2  0
M  END
$$$$
