DWT.pdb
     RDKit          3D

 30 31  0  0  1  0  0  0  0  0999 V2000
   23.1232  -13.2034  -17.6620 N   0  0  0  0  0  0  0  0  0  0  0  0
   22.5796  -11.9001  -17.9535 C   0  0  1  0  0  0  0  0  0  0  0  0
   21.0897  -12.0912  -18.2279 C   0  0  0  0  0  0  0  0  0  0  0  0
   20.9782  -12.8192  -19.5044 C   0  0  0  0  0  0  0  0  0  0  0  0
   21.9821  -12.9420  -20.2327 O   0  0  0  0  0  0  0  0  0  0  0  0
   22.8041  -10.9319  -16.8355 C   0  0  0  0  0  0  0  0  0  0  0  0
   21.8651  -10.7672  -16.0268 O   0  0  0  0  0  0  0  0  0  0  0  0
   19.7772  -13.3627  -19.8973 O   0  0  0  0  0  0  0  0  0  0  0  0
   24.0234  -10.2259  -16.6890 N   0  0  0  0  0  0  0  0  0  0  0  0
   24.3484   -9.2997  -15.6383 C   0  0  1  0  0  0  0  0  0  0  0  0
   25.7714   -9.4313  -15.1115 C   0  0  0  0  0  0  0  0  0  0  0  0
   26.1363  -10.8539  -14.9979 C   0  0  0  0  0  0  0  0  0  0  0  0
   25.7244  -11.7872  -14.1221 C   0  0  0  0  0  0  0  0  0  0  0  0
   26.3288  -12.9795  -14.4020 N   0  0  0  0  0  0  0  0  0  0  0  0
   27.1340  -12.8107  -15.4652 C   0  0  0  0  0  0  0  0  0  0  0  0
   27.9685  -13.6554  -16.1705 C   0  0  0  0  0  0  0  0  0  0  0  0
   28.6935  -13.1932  -17.2551 C   0  0  0  0  0  0  0  0  0  0  0  0
   28.5878  -11.8855  -17.6395 C   0  0  0  0  0  0  0  0  0  0  0  0
   27.7480  -11.0117  -16.9383 C   0  0  0  0  0  0  0  0  0  0  0  0
   27.0325  -11.4831  -15.8612 C   0  0  0  0  0  0  0  0  0  0  0  0
   23.9206   -7.9273  -15.8591 C   0  0  0  0  0  0  0  0  0  0  0  0
   24.4818   -7.1507  -16.7083 O   0  0  0  0  0  0  0  0  0  0  0  0
   21.0081   -6.6617  -17.3536 C   0  0  0  0  0  0  0  0  0  0  0  0
   21.0453   -6.0447  -15.9976 C   0  0  1  0  0  0  0  0  0  0  0  0
   20.1690   -6.7399  -15.1454 O   0  0  0  0  0  0  0  0  0  0  0  0
   22.3963   -5.9931  -15.3480 C   0  0  2  0  0  0  0  0  0  0  0  0
   22.8524   -7.3608  -15.1475 N   0  0  0  0  0  0  0  0  0  0  0  0
   22.4405   -5.2016  -14.1196 C   0  0  0  0  0  0  0  0  0  0  0  0
   22.3009   -3.8258  -14.0647 O   0  0  0  0  0  0  0  0  0  0  0  0
   22.6170   -5.7940  -13.0224 O   0  0  0  0  0  0  0  0  0  0  0  0
  2  1  1  1
  2  3  1  0
  4  3  1  0
  5  4  2  0
  6  9  1  0
  6  2  1  0
  7  6  2  0
  8  4  1  0
 10  9  1  0
 11 12  1  0
 10 11  1  6
 12 13  2  0
 12 20  1  0
 13 14  1  0
 14 15  1  0
 15 16  2  0
 16 17  1  0
 18 17  2  0
 19 18  1  0
 20 19  2  0
 20 15  1  0
 21 22  2  0
 21 10  1  0
 24 23  1  6
 24 25  1  0
 24 26  1  0
 26 27  1  1
 26 28  1  0
 27 21  1  0
 28 29  1  0
 30 28  2  0
M  END
$$$$
