DWT.pdb
     RDKit          3D

 30 31  0  0  1  0  0  0  0  0999 V2000
   29.9535  -35.3029   -5.3529 N   0  0  0  0  0  0  0  0  0  0  0  0
   29.3004  -35.9936   -4.2687 C   0  0  1  0  0  0  0  0  0  0  0  0
   30.3899  -36.7225   -3.4856 C   0  0  0  0  0  0  0  0  0  0  0  0
   29.7088  -37.5797   -2.4990 C   0  0  0  0  0  0  0  0  0  0  0  0
   29.2889  -37.0816   -1.4366 O   0  0  0  0  0  0  0  0  0  0  0  0
   28.5321  -35.0610   -3.3868 C   0  0  0  0  0  0  0  0  0  0  0  0
   29.1763  -34.1518   -2.8200 O   0  0  0  0  0  0  0  0  0  0  0  0
   29.5337  -38.9224   -2.7413 O   0  0  0  0  0  0  0  0  0  0  0  0
   27.1349  -35.1924   -3.1939 N   0  0  0  0  0  0  0  0  0  0  0  0
   26.3091  -34.3573   -2.3643 C   0  0  1  0  0  0  0  0  0  0  0  0
   24.9702  -33.9890   -2.9899 C   0  0  0  0  0  0  0  0  0  0  0  0
   24.2750  -33.0022   -2.1458 C   0  0  0  0  0  0  0  0  0  0  0  0
   23.3629  -33.1817   -1.1745 C   0  0  0  0  0  0  0  0  0  0  0  0
   22.9959  -31.9716   -0.6583 N   0  0  0  0  0  0  0  0  0  0  0  0
   23.6775  -31.0084   -1.3026 C   0  0  0  0  0  0  0  0  0  0  0  0
   23.7083  -29.6317   -1.1973 C   0  0  0  0  0  0  0  0  0  0  0  0
   24.5332  -28.8764   -2.0124 C   0  0  0  0  0  0  0  0  0  0  0  0
   25.3309  -29.4931   -2.9357 C   0  0  0  0  0  0  0  0  0  0  0  0
   25.3152  -30.8878   -3.0595 C   0  0  0  0  0  0  0  0  0  0  0  0
   24.4902  -31.6279   -2.2435 C   0  0  0  0  0  0  0  0  0  0  0  0
   26.2241  -34.7519   -0.9670 C   0  0  0  0  0  0  0  0  0  0  0  0
   26.0487  -35.9643   -0.5948 O   0  0  0  0  0  0  0  0  0  0  0  0
   26.5523  -33.2114    3.7827 C   0  0  0  0  0  0  0  0  0  0  0  0
   26.6637  -33.0295    2.3078 C   0  0  1  0  0  0  0  0  0  0  0  0
   28.0113  -32.8206    1.9648 O   0  0  0  0  0  0  0  0  0  0  0  0
   26.1326  -34.1587    1.4755 C   0  0  2  0  0  0  0  0  0  0  0  0
   26.3308  -33.8177    0.0743 N   0  0  0  0  0  0  0  0  0  0  0  0
   24.7484  -34.5230    1.7735 C   0  0  0  0  0  0  0  0  0  0  0  0
   23.6932  -34.3961    0.8871 O   0  0  0  0  0  0  0  0  0  0  0  0
   24.4751  -34.9874    2.9117 O   0  0  0  0  0  0  0  0  0  0  0  0
  2  1  1  6
  2  3  1  0
  4  3  1  0
  5  4  2  0
  6  9  1  0
  6  2  1  0
  7  6  2  0
  8  4  1  0
 10  9  1  0
 11 12  1  0
 10 11  1  6
 12 13  2  0
 12 20  1  0
 13 14  1  0
 14 15  1  0
 15 16  2  0
 16 17  1  0
 18 17  2  0
 19 18  1  0
 20 19  2  0
 20 15  1  0
 21 22  2  0
 21 10  1  0
 24 23  1  1
 24 25  1  0
 24 26  1  0
 26 27  1  6
 26 28  1  0
 27 21  1  0
 28 29  1  0
 30 28  2  0
M  END
$$$$
