DWT.pdb
     RDKit          3D

 30 31  0  0  1  0  0  0  0  0999 V2000
   27.9758  -20.5265  -14.4254 N   0  0  0  0  0  0  0  0  0  0  0  0
   26.9368  -21.4301  -14.8531 C   0  0  1  0  0  0  0  0  0  0  0  0
   27.6221  -22.7282  -15.2740 C   0  0  0  0  0  0  0  0  0  0  0  0
   28.5426  -22.3903  -16.3743 C   0  0  0  0  0  0  0  0  0  0  0  0
   28.0833  -22.1314  -17.5035 O   0  0  0  0  0  0  0  0  0  0  0  0
   25.9252  -21.6760  -13.7788 C   0  0  0  0  0  0  0  0  0  0  0  0
   25.1754  -22.6667  -13.9177 O   0  0  0  0  0  0  0  0  0  0  0  0
   29.9017  -22.3590  -16.1646 O   0  0  0  0  0  0  0  0  0  0  0  0
   25.8117  -20.8300  -12.6484 N   0  0  0  0  0  0  0  0  0  0  0  0
   24.8029  -20.9070  -11.6268 C   0  0  1  0  0  0  0  0  0  0  0  0
   25.2240  -20.3095  -10.2906 C   0  0  0  0  0  0  0  0  0  0  0  0
   26.5509  -20.8210   -9.9066 C   0  0  0  0  0  0  0  0  0  0  0  0
   27.3820  -21.6517  -10.5600 C   0  0  0  0  0  0  0  0  0  0  0  0
   28.5135  -21.8464   -9.8202 N   0  0  0  0  0  0  0  0  0  0  0  0
   28.4082  -21.1354   -8.6841 C   0  0  0  0  0  0  0  0  0  0  0  0
   29.2355  -20.9580   -7.5925 C   0  0  0  0  0  0  0  0  0  0  0  0
   28.8569  -20.1416   -6.5410 C   0  0  0  0  0  0  0  0  0  0  0  0
   27.6506  -19.4992   -6.5756 C   0  0  0  0  0  0  0  0  0  0  0  0
   26.7962  -19.6653   -7.6725 C   0  0  0  0  0  0  0  0  0  0  0  0
   27.1837  -20.4801   -8.7118 C   0  0  0  0  0  0  0  0  0  0  0  0
   23.4591  -20.5402  -12.0451 C   0  0  0  0  0  0  0  0  0  0  0  0
   23.1010  -19.3290  -12.2548 O   0  0  0  0  0  0  0  0  0  0  0  0
   21.6757  -21.2567  -15.0895 C   0  0  0  0  0  0  0  0  0  0  0  0
   20.8266  -21.7685  -13.9770 C   0  0  1  0  0  0  0  0  0  0  0  0
   20.9795  -23.1629  -13.8779 O   0  0  0  0  0  0  0  0  0  0  0  0
   21.0942  -21.1657  -12.6298 C   0  0  2  0  0  0  0  0  0  0  0  0
   22.4581  -21.5021  -12.2485 N   0  0  0  0  0  0  0  0  0  0  0  0
   20.1187  -21.5331  -11.6046 C   0  0  0  0  0  0  0  0  0  0  0  0
   18.7955  -21.1276  -11.5964 O   0  0  0  0  0  0  0  0  0  0  0  0
   20.4878  -22.2704  -10.6527 O   0  0  0  0  0  0  0  0  0  0  0  0
  2  1  1  1
  2  3  1  0
  4  3  1  0
  5  4  2  0
  6  9  1  0
  6  2  1  0
  7  6  2  0
  8  4  1  0
 10  9  1  0
 11 12  1  0
 10 11  1  1
 12 13  2  0
 12 20  1  0
 13 14  1  0
 14 15  1  0
 15 16  2  0
 16 17  1  0
 18 17  2  0
 19 18  1  0
 20 19  2  0
 20 15  1  0
 21 22  2  0
 21 10  1  0
 24 23  1  6
 24 25  1  0
 24 26  1  0
 26 27  1  1
 26 28  1  0
 27 21  1  0
 28 29  1  0
 30 28  2  0
M  END
$$$$
