DWT.pdb
     RDKit          3D

 30 31  0  0  1  0  0  0  0  0999 V2000
   15.7968  -20.7944    1.1315 N   0  0  0  0  0  0  0  0  0  0  0  0
   15.5886  -20.5108    2.5297 C   0  0  1  0  0  0  0  0  0  0  0  0
   14.9849  -21.7673    3.1530 C   0  0  0  0  0  0  0  0  0  0  0  0
   13.7320  -22.0463    2.4287 C   0  0  0  0  0  0  0  0  0  0  0  0
   12.7702  -21.2613    2.5376 O   0  0  0  0  0  0  0  0  0  0  0  0
   16.8561  -20.1193    3.2211 C   0  0  0  0  0  0  0  0  0  0  0  0
   17.8924  -20.7452    2.9092 O   0  0  0  0  0  0  0  0  0  0  0  0
   13.6166  -23.1642    1.6356 O   0  0  0  0  0  0  0  0  0  0  0  0
   16.8932  -19.0860    4.1893 N   0  0  0  0  0  0  0  0  0  0  0  0
   18.0260  -18.7148    4.9934 C   0  0  1  0  0  0  0  0  0  0  0  0
   18.1269  -17.2213    5.2740 C   0  0  0  0  0  0  0  0  0  0  0  0
   18.2832  -16.4814    4.0099 C   0  0  0  0  0  0  0  0  0  0  0  0
   17.4200  -15.6791    3.3627 C   0  0  0  0  0  0  0  0  0  0  0  0
   18.0010  -15.2029    2.2221 N   0  0  0  0  0  0  0  0  0  0  0  0
   19.2461  -15.7027    2.1366 C   0  0  0  0  0  0  0  0  0  0  0  0
   20.2669  -15.5618    1.2171 C   0  0  0  0  0  0  0  0  0  0  0  0
   21.4762  -16.2111    1.3949 C   0  0  0  0  0  0  0  0  0  0  0  0
   21.6707  -17.0035    2.4918 C   0  0  0  0  0  0  0  0  0  0  0  0
   20.6490  -17.1606    3.4364 C   0  0  0  0  0  0  0  0  0  0  0  0
   19.4508  -16.5101    3.2482 C   0  0  0  0  0  0  0  0  0  0  0  0
   18.2721  -19.5559    6.1542 C   0  0  0  0  0  0  0  0  0  0  0  0
   17.4638  -20.4734    6.5337 O   0  0  0  0  0  0  0  0  0  0  0  0
   20.4349  -22.6914    8.4533 C   0  0  0  0  0  0  0  0  0  0  0  0
   19.7994  -21.6985    7.5417 C   0  0  1  0  0  0  0  0  0  0  0  0
   18.4906  -22.1146    7.2395 O   0  0  0  0  0  0  0  0  0  0  0  0
   19.7418  -20.2914    8.0581 C   0  0  2  0  0  0  0  0  0  0  0  0
   19.4253  -19.4139    6.9407 N   0  0  0  0  0  0  0  0  0  0  0  0
   20.9405  -19.8689    8.7807 C   0  0  0  0  0  0  0  0  0  0  0  0
   21.0767  -19.8880   10.1578 O   0  0  0  0  0  0  0  0  0  0  0  0
   21.9311  -19.4550    8.1224 O   0  0  0  0  0  0  0  0  0  0  0  0
  2  1  1  6
  2  3  1  0
  4  3  1  0
  5  4  2  0
  6  9  1  0
  6  2  1  0
  7  6  2  0
  8  4  1  0
 10  9  1  0
 11 12  1  0
 10 11  1  1
 12 13  2  0
 12 20  1  0
 13 14  1  0
 14 15  1  0
 15 16  2  0
 16 17  1  0
 18 17  2  0
 19 18  1  0
 20 19  2  0
 20 15  1  0
 21 22  2  0
 21 10  1  0
 24 23  1  1
 24 25  1  0
 24 26  1  0
 26 27  1  6
 26 28  1  0
 27 21  1  0
 28 29  1  0
 30 28  2  0
M  END
$$$$
