DWT.pdb
     RDKit          3D

 30 31  0  0  1  0  0  0  0  0999 V2000
   21.8464  -20.2915  -12.1646 N   0  0  0  0  0  0  0  0  0  0  0  0
   22.8642  -21.1724  -12.6812 C   0  0  1  0  0  0  0  0  0  0  0  0
   22.5211  -21.4380  -14.1452 C   0  0  0  0  0  0  0  0  0  0  0  0
   21.4497  -22.4499  -14.1583 C   0  0  0  0  0  0  0  0  0  0  0  0
   21.4988  -23.3878  -14.9776 O   0  0  0  0  0  0  0  0  0  0  0  0
   24.2360  -20.5919  -12.5436 C   0  0  0  0  0  0  0  0  0  0  0  0
   24.3573  -19.3631  -12.7392 O   0  0  0  0  0  0  0  0  0  0  0  0
   20.3983  -22.3669  -13.2753 O   0  0  0  0  0  0  0  0  0  0  0  0
   25.3571  -21.3897  -12.2072 N   0  0  0  0  0  0  0  0  0  0  0  0
   26.7306  -20.9642  -12.1957 C   0  0  1  0  0  0  0  0  0  0  0  0
   27.5204  -21.4448  -10.9854 C   0  0  0  0  0  0  0  0  0  0  0  0
   26.9942  -20.8186   -9.7603 C   0  0  0  0  0  0  0  0  0  0  0  0
   25.7400  -20.4513   -9.4445 C   0  0  0  0  0  0  0  0  0  0  0  0
   25.7207  -19.9111   -8.1903 N   0  0  0  0  0  0  0  0  0  0  0  0
   26.9712  -19.9321   -7.6972 C   0  0  0  0  0  0  0  0  0  0  0  0
   27.5292  -19.5265   -6.5008 C   0  0  0  0  0  0  0  0  0  0  0  0
   28.8839  -19.6794   -6.2621 C   0  0  0  0  0  0  0  0  0  0  0  0
   29.6865  -20.2380   -7.2174 C   0  0  0  0  0  0  0  0  0  0  0  0
   29.1417  -20.6559   -8.4377 C   0  0  0  0  0  0  0  0  0  0  0  0
   27.7931  -20.4981   -8.6634 C   0  0  0  0  0  0  0  0  0  0  0  0
   27.4381  -21.0990  -13.4593 C   0  0  0  0  0  0  0  0  0  0  0  0
   28.6766  -21.4149  -13.5341 O   0  0  0  0  0  0  0  0  0  0  0  0
   27.6954  -23.5869  -15.7279 C   0  0  0  0  0  0  0  0  0  0  0  0
   27.1031  -22.4460  -16.4818 C   0  0  1  0  0  0  0  0  0  0  0  0
   25.7020  -22.5662  -16.4834 O   0  0  0  0  0  0  0  0  0  0  0  0
   27.4609  -21.0807  -15.9743 C   0  0  2  0  0  0  0  0  0  0  0  0
   26.8004  -20.8895  -14.6913 N   0  0  0  0  0  0  0  0  0  0  0  0
   27.1798  -19.9986  -16.9164 C   0  0  0  0  0  0  0  0  0  0  0  0
   27.7931  -19.8486  -18.1479 O   0  0  0  0  0  0  0  0  0  0  0  0
   26.3219  -19.1309  -16.6050 O   0  0  0  0  0  0  0  0  0  0  0  0
  2  1  1  6
  2  3  1  0
  4  3  1  0
  5  4  2  0
  6  9  1  0
  6  2  1  0
  7  6  2  0
  8  4  1  0
 10  9  1  0
 11 12  1  0
 10 11  1  1
 12 13  2  0
 12 20  1  0
 13 14  1  0
 14 15  1  0
 15 16  2  0
 16 17  1  0
 18 17  2  0
 19 18  1  0
 20 19  2  0
 20 15  1  0
 21 22  2  0
 21 10  1  0
 24 23  1  1
 24 25  1  0
 24 26  1  0
 26 27  1  1
 26 28  1  0
 27 21  1  0
 28 29  1  0
 30 28  2  0
M  END
$$$$
