DWT.pdb
     RDKit          3D

 30 31  0  0  1  0  0  0  0  0999 V2000
   28.3050  -21.7320  -14.9633 N   0  0  0  0  0  0  0  0  0  0  0  0
   27.3577  -20.7186  -14.5702 C   0  0  1  0  0  0  0  0  0  0  0  0
   26.6372  -20.2676  -15.8387 C   0  0  0  0  0  0  0  0  0  0  0  0
   27.6443  -19.6179  -16.6964 C   0  0  0  0  0  0  0  0  0  0  0  0
   28.2818  -18.6384  -16.2636 O   0  0  0  0  0  0  0  0  0  0  0  0
   26.3886  -21.2186  -13.5462 C   0  0  0  0  0  0  0  0  0  0  0  0
   25.8074  -22.2981  -13.7905 O   0  0  0  0  0  0  0  0  0  0  0  0
   27.8851  -20.0833  -17.9682 O   0  0  0  0  0  0  0  0  0  0  0  0
   26.1318  -20.5085  -12.3477 N   0  0  0  0  0  0  0  0  0  0  0  0
   25.0842  -20.7864  -11.4028 C   0  0  1  0  0  0  0  0  0  0  0  0
   25.3727  -20.2923   -9.9914 C   0  0  0  0  0  0  0  0  0  0  0  0
   26.7436  -20.6617   -9.5994 C   0  0  0  0  0  0  0  0  0  0  0  0
   27.6612  -21.4005  -10.2474 C   0  0  0  0  0  0  0  0  0  0  0  0
   28.8025  -21.4754   -9.5009 N   0  0  0  0  0  0  0  0  0  0  0  0
   28.6165  -20.7795   -8.3658 C   0  0  0  0  0  0  0  0  0  0  0  0
   29.4141  -20.5162   -7.2696 C   0  0  0  0  0  0  0  0  0  0  0  0
   28.9458  -19.7442   -6.2207 C   0  0  0  0  0  0  0  0  0  0  0  0
   27.6790  -19.2319   -6.2627 C   0  0  0  0  0  0  0  0  0  0  0  0
   26.8532  -19.4867   -7.3644 C   0  0  0  0  0  0  0  0  0  0  0  0
   27.3302  -20.2563   -8.4010 C   0  0  0  0  0  0  0  0  0  0  0  0
   23.7337  -20.5085  -11.8658 C   0  0  0  0  0  0  0  0  0  0  0  0
   23.3005  -19.3228  -12.0792 O   0  0  0  0  0  0  0  0  0  0  0  0
   20.0271  -21.8346  -14.6286 C   0  0  0  0  0  0  0  0  0  0  0  0
   21.3625  -21.9318  -13.9743 C   0  0  1  0  0  0  0  0  0  0  0  0
   22.3345  -21.3567  -14.8122 O   0  0  0  0  0  0  0  0  0  0  0  0
   21.4668  -21.2941  -12.6207 C   0  0  2  0  0  0  0  0  0  0  0  0
   22.8090  -21.5348  -12.1114 N   0  0  0  0  0  0  0  0  0  0  0  0
   20.4275  -21.7107  -11.6806 C   0  0  0  0  0  0  0  0  0  0  0  0
   19.1544  -21.1706  -11.6252 O   0  0  0  0  0  0  0  0  0  0  0  0
   20.6881  -22.6245  -10.8542 O   0  0  0  0  0  0  0  0  0  0  0  0
  2  1  1  6
  2  3  1  0
  4  3  1  0
  5  4  2  0
  6  9  1  0
  6  2  1  0
  7  6  2  0
  8  4  1  0
 10  9  1  0
 11 12  1  0
 10 11  1  1
 12 13  2  0
 12 20  1  0
 13 14  1  0
 14 15  1  0
 15 16  2  0
 16 17  1  0
 18 17  2  0
 19 18  1  0
 20 19  2  0
 20 15  1  0
 21 22  2  0
 21 10  1  0
 24 23  1  6
 24 25  1  0
 24 26  1  0
 26 27  1  1
 26 28  1  0
 27 21  1  0
 28 29  1  0
 30 28  2  0
M  END
$$$$
