DWT.pdb
     RDKit          3D

 30 31  0  0  1  0  0  0  0  0999 V2000
   16.0348  -20.6003    2.1627 N   0  0  0  0  0  0  0  0  0  0  0  0
   15.5185  -19.9431    3.3376 C   0  0  1  0  0  0  0  0  0  0  0  0
   14.7116  -20.9838    4.1107 C   0  0  0  0  0  0  0  0  0  0  0  0
   13.3910  -21.0712    3.4624 C   0  0  0  0  0  0  0  0  0  0  0  0
   12.9498  -20.0923    2.8298 O   0  0  0  0  0  0  0  0  0  0  0  0
   16.6071  -19.3640    4.1846 C   0  0  0  0  0  0  0  0  0  0  0  0
   17.4428  -20.1615    4.6628 O   0  0  0  0  0  0  0  0  0  0  0  0
   12.6432  -22.2224    3.5506 O   0  0  0  0  0  0  0  0  0  0  0  0
   16.6975  -17.9739    4.4415 N   0  0  0  0  0  0  0  0  0  0  0  0
   17.7061  -17.3190    5.2298 C   0  0  1  0  0  0  0  0  0  0  0  0
   18.1417  -15.9660    4.6827 C   0  0  0  0  0  0  0  0  0  0  0  0
   19.2012  -15.3969    5.5331 C   0  0  0  0  0  0  0  0  0  0  0  0
   20.0136  -15.9945    6.4223 C   0  0  0  0  0  0  0  0  0  0  0  0
   20.8496  -15.0679    6.9771 N   0  0  0  0  0  0  0  0  0  0  0  0
   20.5723  -13.8671    6.4401 C   0  0  0  0  0  0  0  0  0  0  0  0
   21.0930  -12.6007    6.6208 C   0  0  0  0  0  0  0  0  0  0  0  0
   20.5990  -11.5223    5.9077 C   0  0  0  0  0  0  0  0  0  0  0  0
   19.5831  -11.7045    5.0112 C   0  0  0  0  0  0  0  0  0  0  0  0
   19.0402  -12.9798    4.8126 C   0  0  0  0  0  0  0  0  0  0  0  0
   19.5397  -14.0442    5.5281 C   0  0  0  0  0  0  0  0  0  0  0  0
   17.4860  -17.3362    6.6674 C   0  0  0  0  0  0  0  0  0  0  0  0
   16.6099  -16.6042    7.2469 O   0  0  0  0  0  0  0  0  0  0  0  0
   15.7060  -19.2589    8.6998 C   0  0  0  0  0  0  0  0  0  0  0  0
   17.0924  -19.3965    9.2287 C   0  0  1  0  0  0  0  0  0  0  0  0
   17.6800  -20.5587    8.6984 O   0  0  0  0  0  0  0  0  0  0  0  0
   18.0056  -18.2378    8.9572 C   0  0  2  0  0  0  0  0  0  0  0  0
   18.2283  -18.1667    7.5204 N   0  0  0  0  0  0  0  0  0  0  0  0
   19.2541  -18.2681    9.7173 C   0  0  0  0  0  0  0  0  0  0  0  0
   20.4981  -18.5418    9.1762 O   0  0  0  0  0  0  0  0  0  0  0  0
   19.2174  -18.0309   10.9535 O   0  0  0  0  0  0  0  0  0  0  0  0
  2  1  1  6
  2  3  1  0
  4  3  1  0
  5  4  2  0
  6  9  1  0
  6  2  1  0
  7  6  2  0
  8  4  1  0
 10  9  1  0
 11 12  1  0
 10 11  1  6
 12 13  2  0
 12 20  1  0
 13 14  1  0
 14 15  1  0
 15 16  2  0
 16 17  1  0
 18 17  2  0
 19 18  1  0
 20 19  2  0
 20 15  1  0
 21 22  2  0
 21 10  1  0
 24 23  1  6
 24 25  1  0
 24 26  1  0
 26 27  1  6
 26 28  1  0
 27 21  1  0
 28 29  1  0
 30 28  2  0
M  END
$$$$
