DWT.pdb
     RDKit          3D

 30 31  0  0  1  0  0  0  0  0999 V2000
   27.3533  -26.1500  -17.5236 N   0  0  0  0  0  0  0  0  0  0  0  0
   26.2067  -26.9756  -17.2362 C   0  0  1  0  0  0  0  0  0  0  0  0
   26.6060  -27.9095  -16.0960 C   0  0  0  0  0  0  0  0  0  0  0  0
   27.5590  -28.8853  -16.6541 C   0  0  0  0  0  0  0  0  0  0  0  0
   27.8949  -28.8021  -17.8514 O   0  0  0  0  0  0  0  0  0  0  0  0
   25.0032  -26.1640  -16.8747 C   0  0  0  0  0  0  0  0  0  0  0  0
   24.8197  -25.9258  -15.6612 O   0  0  0  0  0  0  0  0  0  0  0  0
   28.0791  -29.8850  -15.8654 O   0  0  0  0  0  0  0  0  0  0  0  0
   24.1027  -25.6811  -17.8557 N   0  0  0  0  0  0  0  0  0  0  0  0
   22.9786  -24.8146  -17.6248 C   0  0  1  0  0  0  0  0  0  0  0  0
   22.6140  -23.9383  -18.8159 C   0  0  0  0  0  0  0  0  0  0  0  0
   23.6554  -22.9183  -19.0275 C   0  0  0  0  0  0  0  0  0  0  0  0
   24.9813  -23.0564  -19.2024 C   0  0  0  0  0  0  0  0  0  0  0  0
   25.5543  -21.8277  -19.3675 N   0  0  0  0  0  0  0  0  0  0  0  0
   24.5894  -20.8941  -19.2985 C   0  0  0  0  0  0  0  0  0  0  0  0
   24.5895  -19.5166  -19.3970 C   0  0  0  0  0  0  0  0  0  0  0  0
   23.4120  -18.7976  -19.2869 C   0  0  0  0  0  0  0  0  0  0  0  0
   22.2298  -19.4516  -19.0782 C   0  0  0  0  0  0  0  0  0  0  0  0
   22.2069  -20.8479  -18.9749 C   0  0  0  0  0  0  0  0  0  0  0  0
   23.3845  -21.5517  -19.0856 C   0  0  0  0  0  0  0  0  0  0  0  0
   21.8367  -25.4322  -16.9692 C   0  0  0  0  0  0  0  0  0  0  0  0
   21.1447  -26.3652  -17.5076 O   0  0  0  0  0  0  0  0  0  0  0  0
   21.8308  -27.4558  -14.1165 C   0  0  0  0  0  0  0  0  0  0  0  0
   20.8269  -26.3979  -13.8104 C   0  0  1  0  0  0  0  0  0  0  0  0
   21.3880  -25.4677  -12.9175 O   0  0  0  0  0  0  0  0  0  0  0  0
   20.2916  -25.6523  -14.9968 C   0  0  2  0  0  0  0  0  0  0  0  0
   21.4162  -25.0403  -15.6892 N   0  0  0  0  0  0  0  0  0  0  0  0
   19.2402  -24.6890  -14.6744 C   0  0  0  0  0  0  0  0  0  0  0  0
   19.3847  -23.3143  -14.7428 O   0  0  0  0  0  0  0  0  0  0  0  0
   18.1154  -25.1194  -14.3062 O   0  0  0  0  0  0  0  0  0  0  0  0
  2  1  1  1
  2  3  1  0
  4  3  1  0
  5  4  2  0
  6  9  1  0
  6  2  1  0
  7  6  2  0
  8  4  1  0
 10  9  1  0
 11 12  1  0
 10 11  1  6
 12 13  2  0
 12 20  1  0
 13 14  1  0
 14 15  1  0
 15 16  2  0
 16 17  1  0
 18 17  2  0
 19 18  1  0
 20 19  2  0
 20 15  1  0
 21 22  2  0
 21 10  1  0
 24 23  1  6
 24 25  1  0
 24 26  1  0
 26 27  1  1
 26 28  1  0
 27 21  1  0
 28 29  1  0
 30 28  2  0
M  END
$$$$
