DWT.pdb
     RDKit          3D

 30 31  0  0  1  0  0  0  0  0999 V2000
   27.6216  -22.3709  -15.4851 N   0  0  0  0  0  0  0  0  0  0  0  0
   27.6703  -21.2067  -14.6357 C   0  0  1  0  0  0  0  0  0  0  0  0
   27.0453  -20.0565  -15.4218 C   0  0  0  0  0  0  0  0  0  0  0  0
   27.9835  -19.7186  -16.5070 C   0  0  0  0  0  0  0  0  0  0  0  0
   27.5753  -19.6803  -17.6840 O   0  0  0  0  0  0  0  0  0  0  0  0
   26.9589  -21.4247  -13.3380 C   0  0  0  0  0  0  0  0  0  0  0  0
   25.8810  -22.0568  -13.3779 O   0  0  0  0  0  0  0  0  0  0  0  0
   29.3033  -19.4460  -16.2313 O   0  0  0  0  0  0  0  0  0  0  0  0
   27.4738  -20.9404  -12.1105 N   0  0  0  0  0  0  0  0  0  0  0  0
   26.7986  -20.9536  -10.8410 C   0  0  1  0  0  0  0  0  0  0  0  0
   27.7092  -20.6877   -9.6496 C   0  0  0  0  0  0  0  0  0  0  0  0
   26.9165  -20.6522   -8.4086 C   0  0  0  0  0  0  0  0  0  0  0  0
   25.6347  -20.9929   -8.1887 C   0  0  0  0  0  0  0  0  0  0  0  0
   25.3260  -20.7986   -6.8726 N   0  0  0  0  0  0  0  0  0  0  0  0
   26.4175  -20.3302   -6.2429 C   0  0  0  0  0  0  0  0  0  0  0  0
   26.6801  -19.9676   -4.9364 C   0  0  0  0  0  0  0  0  0  0  0  0
   27.9327  -19.5105   -4.5653 C   0  0  0  0  0  0  0  0  0  0  0  0
   28.9279  -19.4139   -5.4976 C   0  0  0  0  0  0  0  0  0  0  0  0
   28.6833  -19.7759   -6.8280 C   0  0  0  0  0  0  0  0  0  0  0  0
   27.4334  -20.2286   -7.1847 C   0  0  0  0  0  0  0  0  0  0  0  0
   25.5355  -20.2341  -10.7964 C   0  0  0  0  0  0  0  0  0  0  0  0
   25.4626  -18.9603  -10.6906 O   0  0  0  0  0  0  0  0  0  0  0  0
   23.6292  -19.4374  -13.3635 C   0  0  0  0  0  0  0  0  0  0  0  0
   22.6901  -20.1964  -12.4900 C   0  0  1  0  0  0  0  0  0  0  0  0
   22.6113  -21.5274  -12.9367 O   0  0  0  0  0  0  0  0  0  0  0  0
   23.0313  -20.2064  -11.0294 C   0  0  2  0  0  0  0  0  0  0  0  0
   24.3017  -20.8984  -10.8681 N   0  0  0  0  0  0  0  0  0  0  0  0
   21.9813  -20.7551  -10.1727 C   0  0  0  0  0  0  0  0  0  0  0  0
   20.7422  -20.1712   -9.9748 O   0  0  0  0  0  0  0  0  0  0  0  0
   22.1990  -21.8349   -9.5624 O   0  0  0  0  0  0  0  0  0  0  0  0
  2  1  1  6
  2  3  1  0
  4  3  1  0
  5  4  2  0
  6  9  1  0
  6  2  1  0
  7  6  2  0
  8  4  1  0
 10  9  1  0
 11 12  1  0
 10 11  1  1
 12 13  2  0
 12 20  1  0
 13 14  1  0
 14 15  1  0
 15 16  2  0
 16 17  1  0
 18 17  2  0
 19 18  1  0
 20 19  2  0
 20 15  1  0
 21 22  2  0
 21 10  1  0
 24 23  1  6
 24 25  1  0
 24 26  1  0
 26 27  1  6
 26 28  1  0
 27 21  1  0
 28 29  1  0
 30 28  2  0
M  END
$$$$
