DWT.pdb
     RDKit          3D

 30 31  0  0  1  0  0  0  0  0999 V2000
   30.1348  -30.5944  -22.0866 N   0  0  0  0  0  0  0  0  0  0  0  0
   28.7705  -30.4688  -21.6373 C   0  0  1  0  0  0  0  0  0  0  0  0
   27.8926  -31.1461  -22.6872 C   0  0  0  0  0  0  0  0  0  0  0  0
   27.2415  -30.0730  -23.4594 C   0  0  0  0  0  0  0  0  0  0  0  0
   27.5178  -28.8829  -23.2134 O   0  0  0  0  0  0  0  0  0  0  0  0
   28.5632  -31.0753  -20.2857 C   0  0  0  0  0  0  0  0  0  0  0  0
   29.0212  -32.2236  -20.0998 O   0  0  0  0  0  0  0  0  0  0  0  0
   26.3330  -30.3744  -24.4473 O   0  0  0  0  0  0  0  0  0  0  0  0
   27.8789  -30.3884  -19.2530 N   0  0  0  0  0  0  0  0  0  0  0  0
   27.6393  -30.8757  -17.9216 C   0  0  1  0  0  0  0  0  0  0  0  0
   28.3145  -30.0573  -16.8290 C   0  0  0  0  0  0  0  0  0  0  0  0
   29.7609  -29.9638  -17.0916 C   0  0  0  0  0  0  0  0  0  0  0  0
   30.4566  -29.0564  -17.7990 C   0  0  0  0  0  0  0  0  0  0  0  0
   31.7859  -29.3683  -17.7665 N   0  0  0  0  0  0  0  0  0  0  0  0
   31.9448  -30.4835  -17.0327 C   0  0  0  0  0  0  0  0  0  0  0  0
   33.0453  -31.2345  -16.6691 C   0  0  0  0  0  0  0  0  0  0  0  0
   32.9045  -32.3639  -15.8815 C   0  0  0  0  0  0  0  0  0  0  0  0
   31.6640  -32.7474  -15.4539 C   0  0  0  0  0  0  0  0  0  0  0  0
   30.5345  -32.0008  -15.8111 C   0  0  0  0  0  0  0  0  0  0  0  0
   30.6875  -30.8800  -16.5951 C   0  0  0  0  0  0  0  0  0  0  0  0
   26.2625  -31.2400  -17.6268 C   0  0  0  0  0  0  0  0  0  0  0  0
   25.2805  -30.4325  -17.7775 O   0  0  0  0  0  0  0  0  0  0  0  0
   24.5721  -34.4946  -18.8514 C   0  0  0  0  0  0  0  0  0  0  0  0
   24.3625  -34.3164  -17.3868 C   0  0  1  0  0  0  0  0  0  0  0  0
   25.2335  -35.1682  -16.6846 O   0  0  0  0  0  0  0  0  0  0  0  0
   24.5490  -32.9197  -16.8725 C   0  0  2  0  0  0  0  0  0  0  0  0
   25.9189  -32.5153  -17.1534 N   0  0  0  0  0  0  0  0  0  0  0  0
   24.1906  -32.7464  -15.4658 C   0  0  0  0  0  0  0  0  0  0  0  0
   22.8939  -32.6716  -14.9878 O   0  0  0  0  0  0  0  0  0  0  0  0
   25.1117  -32.6569  -14.6117 O   0  0  0  0  0  0  0  0  0  0  0  0
  2  1  1  6
  2  3  1  0
  4  3  1  0
  5  4  2  0
  6  9  1  0
  6  2  1  0
  7  6  2  0
  8  4  1  0
 10  9  1  0
 11 12  1  0
 10 11  1  1
 12 13  2  0
 12 20  1  0
 13 14  1  0
 14 15  1  0
 15 16  2  0
 16 17  1  0
 18 17  2  0
 19 18  1  0
 20 19  2  0
 20 15  1  0
 21 22  2  0
 21 10  1  0
 24 23  1  6
 24 25  1  0
 24 26  1  0
 26 27  1  1
 26 28  1  0
 27 21  1  0
 28 29  1  0
 30 28  2  0
M  END
$$$$
