DWT.pdb
     RDKit          3D

 30 31  0  0  1  0  0  0  0  0999 V2000
   28.5009  -23.1994  -16.0579 N   0  0  0  0  0  0  0  0  0  0  0  0
   27.5570  -22.1180  -16.1936 C   0  0  1  0  0  0  0  0  0  0  0  0
   26.7986  -22.3510  -17.4983 C   0  0  0  0  0  0  0  0  0  0  0  0
   27.6573  -21.8550  -18.5885 C   0  0  0  0  0  0  0  0  0  0  0  0
   27.7628  -22.5174  -19.6389 O   0  0  0  0  0  0  0  0  0  0  0  0
   26.6202  -22.0371  -15.0302 C   0  0  0  0  0  0  0  0  0  0  0  0
   25.7726  -22.9490  -14.9162 O   0  0  0  0  0  0  0  0  0  0  0  0
   28.3420  -20.6694  -18.4554 O   0  0  0  0  0  0  0  0  0  0  0  0
   26.6805  -20.9778  -14.0916 N   0  0  0  0  0  0  0  0  0  0  0  0
   25.7411  -20.7258  -13.0327 C   0  0  1  0  0  0  0  0  0  0  0  0
   26.2544  -19.7752  -11.9591 C   0  0  0  0  0  0  0  0  0  0  0  0
   27.3686  -20.3995  -11.2254 C   0  0  0  0  0  0  0  0  0  0  0  0
   28.4880  -20.9862  -11.6842 C   0  0  0  0  0  0  0  0  0  0  0  0
   29.2429  -21.4226  -10.6330 N   0  0  0  0  0  0  0  0  0  0  0  0
   28.6039  -21.1136   -9.4913 C   0  0  0  0  0  0  0  0  0  0  0  0
   28.8956  -21.3069   -8.1553 C   0  0  0  0  0  0  0  0  0  0  0  0
   28.0293  -20.8676   -7.1694 C   0  0  0  0  0  0  0  0  0  0  0  0
   26.8684  -20.2332   -7.5140 C   0  0  0  0  0  0  0  0  0  0  0  0
   26.5527  -20.0270   -8.8625 C   0  0  0  0  0  0  0  0  0  0  0  0
   27.4221  -20.4689   -9.8337 C   0  0  0  0  0  0  0  0  0  0  0  0
   24.3753  -20.4615  -13.4573 C   0  0  0  0  0  0  0  0  0  0  0  0
   24.0882  -19.9068  -14.5749 O   0  0  0  0  0  0  0  0  0  0  0  0
   22.7636  -21.0702  -15.4363 C   0  0  0  0  0  0  0  0  0  0  0  0
   21.7377  -21.3798  -14.4008 C   0  0  1  0  0  0  0  0  0  0  0  0
   21.7419  -22.7615  -14.1395 O   0  0  0  0  0  0  0  0  0  0  0  0
   21.8931  -20.6510  -13.0990 C   0  0  2  0  0  0  0  0  0  0  0  0
   23.2726  -20.8024  -12.6597 N   0  0  0  0  0  0  0  0  0  0  0  0
   20.9309  -21.0473  -12.0720 C   0  0  0  0  0  0  0  0  0  0  0  0
   19.5673  -20.8216  -12.1424 O   0  0  0  0  0  0  0  0  0  0  0  0
   21.3517  -21.6374  -11.0421 O   0  0  0  0  0  0  0  0  0  0  0  0
  2  1  1  1
  2  3  1  0
  4  3  1  0
  5  4  2  0
  6  9  1  0
  6  2  1  0
  7  6  2  0
  8  4  1  0
 10  9  1  0
 11 12  1  0
 10 11  1  6
 12 13  2  0
 12 20  1  0
 13 14  1  0
 14 15  1  0
 15 16  2  0
 16 17  1  0
 18 17  2  0
 19 18  1  0
 20 19  2  0
 20 15  1  0
 21 22  2  0
 21 10  1  0
 24 23  1  6
 24 25  1  0
 24 26  1  0
 26 27  1  1
 26 28  1  0
 27 21  1  0
 28 29  1  0
 30 28  2  0
M  END
$$$$
