DWT.pdb
     RDKit          3D

 30 31  0  0  1  0  0  0  0  0999 V2000
   27.7802  -22.8933  -16.7238 N   0  0  0  0  0  0  0  0  0  0  0  0
   27.7382  -21.6608  -15.9767 C   0  0  1  0  0  0  0  0  0  0  0  0
   27.1075  -20.6101  -16.8878 C   0  0  0  0  0  0  0  0  0  0  0  0
   28.1095  -20.2760  -17.9156 C   0  0  0  0  0  0  0  0  0  0  0  0
   27.7775  -20.2599  -19.1167 O   0  0  0  0  0  0  0  0  0  0  0  0
   26.9713  -21.8005  -14.7000 C   0  0  0  0  0  0  0  0  0  0  0  0
   25.8310  -22.3079  -14.7724 O   0  0  0  0  0  0  0  0  0  0  0  0
   29.4056  -19.9829  -17.5599 O   0  0  0  0  0  0  0  0  0  0  0  0
   27.5030  -21.3793  -13.4565 N   0  0  0  0  0  0  0  0  0  0  0  0
   26.7694  -21.2116  -12.2312 C   0  0  1  0  0  0  0  0  0  0  0  0
   27.6299  -20.8065  -11.0417 C   0  0  0  0  0  0  0  0  0  0  0  0
   26.7763  -20.5361   -9.8721 C   0  0  0  0  0  0  0  0  0  0  0  0
   25.4364  -20.5219   -9.7616 C   0  0  0  0  0  0  0  0  0  0  0  0
   25.0837  -20.2243   -8.4762 N   0  0  0  0  0  0  0  0  0  0  0  0
   26.2050  -20.0466   -7.7562 C   0  0  0  0  0  0  0  0  0  0  0  0
   26.4467  -19.7376   -6.4320 C   0  0  0  0  0  0  0  0  0  0  0  0
   27.7409  -19.6189   -5.9561 C   0  0  0  0  0  0  0  0  0  0  0  0
   28.7988  -19.8086   -6.8009 C   0  0  0  0  0  0  0  0  0  0  0  0
   28.5767  -20.1223   -8.1474 C   0  0  0  0  0  0  0  0  0  0  0  0
   27.2850  -20.2371   -8.6087 C   0  0  0  0  0  0  0  0  0  0  0  0
   25.5236  -20.4697  -12.3441 C   0  0  0  0  0  0  0  0  0  0  0  0
   25.4775  -19.1922  -12.4155 O   0  0  0  0  0  0  0  0  0  0  0  0
   23.5223  -19.6743  -14.8365 C   0  0  0  0  0  0  0  0  0  0  0  0
   22.5906  -20.3740  -13.9074 C   0  0  1  0  0  0  0  0  0  0  0  0
   22.4079  -21.6990  -14.3416 O   0  0  0  0  0  0  0  0  0  0  0  0
   23.0125  -20.4011  -12.4682 C   0  0  2  0  0  0  0  0  0  0  0  0
   24.2782  -21.1148  -12.3831 N   0  0  0  0  0  0  0  0  0  0  0  0
   22.0029  -20.9395  -11.5581 C   0  0  0  0  0  0  0  0  0  0  0  0
   20.8184  -20.3026  -11.2314 O   0  0  0  0  0  0  0  0  0  0  0  0
   22.2056  -22.0611  -11.0226 O   0  0  0  0  0  0  0  0  0  0  0  0
  2  1  1  6
  2  3  1  0
  4  3  1  0
  5  4  2  0
  6  9  1  0
  6  2  1  0
  7  6  2  0
  8  4  1  0
 10  9  1  0
 11 12  1  0
 10 11  1  1
 12 13  2  0
 12 20  1  0
 13 14  1  0
 14 15  1  0
 15 16  2  0
 16 17  1  0
 18 17  2  0
 19 18  1  0
 20 19  2  0
 20 15  1  0
 21 22  2  0
 21 10  1  0
 24 23  1  6
 24 25  1  0
 24 26  1  0
 26 27  1  6
 26 28  1  0
 27 21  1  0
 28 29  1  0
 30 28  2  0
M  END
$$$$
