NAL.pdb
     RDKit          3D

 22 21  0  0  1  0  0  0  0  0999 V2000
    5.3822  -21.3118   24.1128 N   0  0  0  0  0  0  0  0  0  0  0  0
    6.1516  -20.4167   24.9053 C   0  0  0  0  0  0  0  0  0  0  0  0
    6.1403  -20.6098   26.1432 O   0  0  0  0  0  0  0  0  0  0  0  0
    6.9147  -19.3261   24.2850 C   0  0  0  0  0  0  0  0  0  0  0  0
    6.6337  -19.0965   22.8227 C   0  0  2  0  0  0  0  0  0  0  0  0
    7.1918  -20.2859   22.1345 N   0  0  0  0  0  0  0  0  0  0  0  0
    7.3948  -17.8987   22.3766 C   0  0  0  0  0  0  0  0  0  0  0  0
    8.6317  -17.8829   22.2419 O   0  0  0  0  0  0  0  0  0  0  0  0
    6.4142  -14.4962   21.1233 C   0  0  0  0  0  0  0  0  0  0  0  0
    7.4340  -15.4806   21.6207 C   0  0  2  0  0  0  0  0  0  0  0  0
    6.7291  -16.6650   22.0694 N   0  0  0  0  0  0  0  0  0  0  0  0
    8.3072  -14.9244   22.6702 C   0  0  0  0  0  0  0  0  0  0  0  0
    9.1747  -14.0693   22.3385 O   0  0  0  0  0  0  0  0  0  0  0  0
    7.3466  -12.8308   27.4612 C   0  0  0  0  0  0  0  0  0  0  0  0
    7.3486  -13.1077   25.9957 C   0  0  1  0  0  0  0  0  0  0  0  0
    6.4813  -12.1306   25.2049 C   0  0  0  0  0  0  0  0  0  0  0  0
    8.6841  -13.2539   25.3753 C   0  0  0  0  0  0  0  0  0  0  0  0
    9.0874  -14.6373   24.9977 C   0  0  2  0  0  0  0  0  0  0  0  0
    8.2456  -15.2831   24.0475 N   0  0  0  0  0  0  0  0  0  0  0  0
    9.1267  -15.4429   26.2432 C   0  0  0  0  0  0  0  0  0  0  0  0
    8.3167  -16.3934   26.3633 O   0  0  0  0  0  0  0  0  0  0  0  0
   10.0062  -15.2015   27.2743 O   0  0  0  0  0  0  0  0  0  0  0  0
  2  1  1  0
  3  2  2  0
  4  2  1  0
  4  5  1  0
  5  6  1  6
  7  5  1  0
  7 11  1  0
  8  7  2  0
 10  9  1  1
 10 11  1  0
 10 12  1  0
 12 19  1  0
 13 12  2  0
 15 14  1  1
 16 15  1  0
 17 15  1  0
 18 17  1  1
 19 18  1  0
 20 22  1  0
 20 18  1  0
 21 20  2  0
M  END
$$$$
