NAL.pdb
     RDKit          3D

 22 21  0  0  1  0  0  0  0  0999 V2000
    9.4948  -20.5125   17.9282 N   0  0  0  0  0  0  0  0  0  0  0  0
    9.9313  -20.1203   19.2230 C   0  0  0  0  0  0  0  0  0  0  0  0
   10.2835  -21.0382   19.9998 O   0  0  0  0  0  0  0  0  0  0  0  0
    9.9607  -18.7046   19.6120 C   0  0  0  0  0  0  0  0  0  0  0  0
    9.2887  -18.3844   20.9219 C   0  0  2  0  0  0  0  0  0  0  0  0
    7.8509  -18.6679   20.6936 N   0  0  0  0  0  0  0  0  0  0  0  0
    9.4412  -16.9289   21.1891 C   0  0  0  0  0  0  0  0  0  0  0  0
   10.5418  -16.3755   21.3649 O   0  0  0  0  0  0  0  0  0  0  0  0
    7.1577  -13.9811   21.0054 C   0  0  0  0  0  0  0  0  0  0  0  0
    8.4084  -14.6382   21.5153 C   0  0  2  0  0  0  0  0  0  0  0  0
    8.3005  -16.0611   21.2608 N   0  0  0  0  0  0  0  0  0  0  0  0
    8.6735  -14.3479   22.9360 C   0  0  0  0  0  0  0  0  0  0  0  0
    9.3448  -13.3180   23.2233 O   0  0  0  0  0  0  0  0  0  0  0  0
    5.2981  -12.5810   26.0782 C   0  0  0  0  0  0  0  0  0  0  0  0
    6.6996  -12.8947   25.6762 C   0  0  1  0  0  0  0  0  0  0  0  0
    7.6927  -11.8089   26.0849 C   0  0  0  0  0  0  0  0  0  0  0  0
    7.1902  -14.2359   26.0643 C   0  0  0  0  0  0  0  0  0  0  0  0
    8.4149  -14.7171   25.3661 C   0  0  2  0  0  0  0  0  0  0  0  0
    8.2239  -15.1514   24.0232 N   0  0  0  0  0  0  0  0  0  0  0  0
    8.9709  -15.8356   26.1671 C   0  0  0  0  0  0  0  0  0  0  0  0
    9.1980  -15.6402   27.3854 O   0  0  0  0  0  0  0  0  0  0  0  0
    9.2506  -17.0773   25.6428 O   0  0  0  0  0  0  0  0  0  0  0  0
  2  1  1  0
  3  2  2  0
  4  2  1  0
  4  5  1  0
  5  6  1  6
  7  5  1  0
  7 11  1  0
  8  7  2  0
 10  9  1  1
 10 11  1  0
 10 12  1  0
 12 19  1  0
 13 12  2  0
 15 14  1  1
 16 15  1  0
 17 15  1  0
 18 17  1  1
 19 18  1  0
 20 22  1  0
 20 18  1  0
 21 20  2  0
M  END
$$$$
