NAL.pdb
     RDKit          3D

 22 21  0  0  1  0  0  0  0  0999 V2000
   12.7842  -19.9509   19.0830 N   0  0  0  0  0  0  0  0  0  0  0  0
   11.4125  -19.5819   19.0257 C   0  0  0  0  0  0  0  0  0  0  0  0
   10.6097  -20.4603   18.6335 O   0  0  0  0  0  0  0  0  0  0  0  0
   10.9779  -18.2332   19.4111 C   0  0  0  0  0  0  0  0  0  0  0  0
   10.2619  -18.1427   20.7337 C   0  0  2  0  0  0  0  0  0  0  0  0
    8.9472  -18.7888   20.5021 N   0  0  0  0  0  0  0  0  0  0  0  0
   10.0283  -16.7076   21.0485 C   0  0  0  0  0  0  0  0  0  0  0  0
   10.9455  -15.8798   21.1965 O   0  0  0  0  0  0  0  0  0  0  0  0
    6.9957  -14.5216   21.3548 C   0  0  0  0  0  0  0  0  0  0  0  0
    8.4335  -14.8347   21.6561 C   0  0  2  0  0  0  0  0  0  0  0  0
    8.7005  -16.1854   21.2028 N   0  0  0  0  0  0  0  0  0  0  0  0
    8.7777  -14.6490   23.0774 C   0  0  0  0  0  0  0  0  0  0  0  0
    9.9183  -14.1897   23.3639 O   0  0  0  0  0  0  0  0  0  0  0  0
    5.5734  -12.1729   26.5245 C   0  0  0  0  0  0  0  0  0  0  0  0
    6.8713  -12.6473   25.9638 C   0  0  1  0  0  0  0  0  0  0  0  0
    8.0123  -11.6568   26.1855 C   0  0  0  0  0  0  0  0  0  0  0  0
    7.2736  -14.0166   26.3551 C   0  0  0  0  0  0  0  0  0  0  0  0
    8.3078  -14.6683   25.5038 C   0  0  2  0  0  0  0  0  0  0  0  0
    7.9101  -14.9522   24.1660 N   0  0  0  0  0  0  0  0  0  0  0  0
    8.7024  -15.9314   26.1749 C   0  0  0  0  0  0  0  0  0  0  0  0
    9.1317  -15.8713   27.3523 O   0  0  0  0  0  0  0  0  0  0  0  0
    8.6219  -17.1667   25.5727 O   0  0  0  0  0  0  0  0  0  0  0  0
  2  1  1  0
  3  2  2  0
  4  2  1  0
  4  5  1  0
  5  6  1  6
  7  5  1  0
  7 11  1  0
  8  7  2  0
 10  9  1  1
 10 11  1  0
 10 12  1  0
 12 19  1  0
 13 12  2  0
 15 14  1  1
 16 15  1  0
 17 15  1  0
 18 17  1  1
 19 18  1  0
 20 22  1  0
 20 18  1  0
 21 20  2  0
M  END
$$$$
