NAL.pdb
     RDKit          3D

 22 21  0  0  1  0  0  0  0  0999 V2000
    8.5269  -12.1127   17.6438 N   0  0  0  0  0  0  0  0  0  0  0  0
    8.7032  -13.4960   17.9204 C   0  0  0  0  0  0  0  0  0  0  0  0
    9.3539  -14.1591   17.0796 O   0  0  0  0  0  0  0  0  0  0  0  0
    8.1428  -14.0991   19.1364 C   0  0  0  0  0  0  0  0  0  0  0  0
    8.4700  -15.5556   19.3402 C   0  0  2  0  0  0  0  0  0  0  0  0
    7.6354  -16.2775   18.3493 N   0  0  0  0  0  0  0  0  0  0  0  0
    8.0268  -15.9542   20.7032 C   0  0  0  0  0  0  0  0  0  0  0  0
    6.8317  -16.0792   21.0267 O   0  0  0  0  0  0  0  0  0  0  0  0
    9.2650  -18.0604   23.2422 C   0  0  0  0  0  0  0  0  0  0  0  0
    8.5911  -16.7321   23.0477 C   0  0  2  0  0  0  0  0  0  0  0  0
    8.9754  -16.2231   21.7460 N   0  0  0  0  0  0  0  0  0  0  0  0
    8.8868  -15.7728   24.1273 C   0  0  0  0  0  0  0  0  0  0  0  0
    9.9556  -15.1042   24.0603 O   0  0  0  0  0  0  0  0  0  0  0  0
    7.3586  -12.2393   25.2241 C   0  0  0  0  0  0  0  0  0  0  0  0
    7.1959  -12.5554   26.6725 C   0  0  1  0  0  0  0  0  0  0  0  0
    5.8881  -12.0228   27.2541 C   0  0  0  0  0  0  0  0  0  0  0  0
    7.4037  -13.9727   27.0440 C   0  0  0  0  0  0  0  0  0  0  0  0
    8.4836  -14.6938   26.3139 C   0  0  2  0  0  0  0  0  0  0  0  0
    8.0474  -15.5399   25.2545 N   0  0  0  0  0  0  0  0  0  0  0  0
    9.2284  -15.5025   27.3104 C   0  0  0  0  0  0  0  0  0  0  0  0
    9.1431  -16.7525   27.2464 O   0  0  0  0  0  0  0  0  0  0  0  0
   10.0088  -14.9522   28.3020 O   0  0  0  0  0  0  0  0  0  0  0  0
  2  1  1  0
  3  2  2  0
  4  2  1  0
  4  5  1  0
  5  6  1  6
  7  5  1  0
  7 11  1  0
  8  7  2  0
 10  9  1  1
 10 11  1  0
 10 12  1  0
 12 19  1  0
 13 12  2  0
 15 14  1  6
 16 15  1  0
 17 15  1  0
 18 17  1  1
 19 18  1  0
 20 22  1  0
 20 18  1  0
 21 20  2  0
M  END
$$$$
