NAL.pdb
     RDKit          3D

 22 21  0  0  1  0  0  0  0  0999 V2000
   10.4859  -20.7592   20.0168 N   0  0  0  0  0  0  0  0  0  0  0  0
   10.5986  -19.7421   19.0299 C   0  0  0  0  0  0  0  0  0  0  0  0
   11.1307  -20.0691   17.9437 O   0  0  0  0  0  0  0  0  0  0  0  0
   10.1099  -18.3820   19.2899 C   0  0  0  0  0  0  0  0  0  0  0  0
    9.6302  -18.1297   20.6957 C   0  0  2  0  0  0  0  0  0  0  0  0
    8.2292  -18.6158   20.7150 N   0  0  0  0  0  0  0  0  0  0  0  0
    9.6189  -16.6617   20.9358 C   0  0  0  0  0  0  0  0  0  0  0  0
   10.6511  -15.9706   21.0090 O   0  0  0  0  0  0  0  0  0  0  0  0
    6.9767  -14.0186   21.1578 C   0  0  0  0  0  0  0  0  0  0  0  0
    8.3353  -14.5538   21.5100 C   0  0  2  0  0  0  0  0  0  0  0  0
    8.3875  -15.9433   21.1005 N   0  0  0  0  0  0  0  0  0  0  0  0
    8.6696  -14.3833   22.9356 C   0  0  0  0  0  0  0  0  0  0  0  0
    9.5573  -13.5415   23.2476 O   0  0  0  0  0  0  0  0  0  0  0  0
    5.6641  -12.4270   26.5771 C   0  0  0  0  0  0  0  0  0  0  0  0
    6.9696  -12.8619   26.0020 C   0  0  1  0  0  0  0  0  0  0  0  0
    8.1300  -11.9566   26.4098 C   0  0  0  0  0  0  0  0  0  0  0  0
    7.3126  -14.2874   26.2028 C   0  0  0  0  0  0  0  0  0  0  0  0
    8.4109  -14.8269   25.3532 C   0  0  2  0  0  0  0  0  0  0  0  0
    8.0594  -15.1053   24.0013 N   0  0  0  0  0  0  0  0  0  0  0  0
    8.8990  -16.0712   25.9975 C   0  0  0  0  0  0  0  0  0  0  0  0
    8.8352  -17.1427   25.3481 O   0  0  0  0  0  0  0  0  0  0  0  0
    9.4187  -16.1110   27.2716 O   0  0  0  0  0  0  0  0  0  0  0  0
  2  1  1  0
  3  2  2  0
  4  2  1  0
  4  5  1  0
  5  6  1  6
  7  5  1  0
  7 11  1  0
  8  7  2  0
 10  9  1  1
 10 11  1  0
 10 12  1  0
 12 19  1  0
 13 12  2  0
 15 14  1  1
 16 15  1  0
 17 15  1  0
 18 17  1  1
 19 18  1  0
 20 22  1  0
 20 18  1  0
 21 20  2  0
M  END
$$$$
