NAL.pdb
     RDKit          3D

 22 21  0  0  1  0  0  0  0  0999 V2000
    7.1626  -21.5351   19.7623 N   0  0  0  0  0  0  0  0  0  0  0  0
    6.7209  -20.2310   19.4079 C   0  0  0  0  0  0  0  0  0  0  0  0
    5.6224  -20.1523   18.8105 O   0  0  0  0  0  0  0  0  0  0  0  0
    7.5266  -19.0476   19.7347 C   0  0  0  0  0  0  0  0  0  0  0  0
    7.2913  -18.4692   21.1059 C   0  0  2  0  0  0  0  0  0  0  0  0
    5.8756  -18.0275   21.0971 N   0  0  0  0  0  0  0  0  0  0  0  0
    8.1545  -17.2684   21.2678 C   0  0  0  0  0  0  0  0  0  0  0  0
    9.3929  -17.3234   21.3752 O   0  0  0  0  0  0  0  0  0  0  0  0
    7.6145  -13.5753   21.0514 C   0  0  0  0  0  0  0  0  0  0  0  0
    8.3910  -14.7613   21.5480 C   0  0  2  0  0  0  0  0  0  0  0  0
    7.5936  -15.9481   21.3101 N   0  0  0  0  0  0  0  0  0  0  0  0
    8.7914  -14.6367   22.9612 C   0  0  0  0  0  0  0  0  0  0  0  0
    9.8873  -14.0691   23.2269 O   0  0  0  0  0  0  0  0  0  0  0  0
    5.7883  -12.4383   26.6607 C   0  0  0  0  0  0  0  0  0  0  0  0
    7.0795  -12.8828   26.0611 C   0  0  1  0  0  0  0  0  0  0  0  0
    8.2402  -11.9454   26.3869 C   0  0  0  0  0  0  0  0  0  0  0  0
    7.4491  -14.2932   26.3145 C   0  0  0  0  0  0  0  0  0  0  0  0
    8.4652  -14.8829   25.3987 C   0  0  2  0  0  0  0  0  0  0  0  0
    8.0260  -15.1142   24.0638 N   0  0  0  0  0  0  0  0  0  0  0  0
    8.9087  -16.1665   25.9967 C   0  0  0  0  0  0  0  0  0  0  0  0
    9.3494  -16.1554   27.1713 O   0  0  0  0  0  0  0  0  0  0  0  0
    8.8616  -17.3696   25.3294 O   0  0  0  0  0  0  0  0  0  0  0  0
  2  1  1  0
  3  2  2  0
  4  2  1  0
  4  5  1  0
  5  6  1  6
  7  5  1  0
  7 11  1  0
  8  7  2  0
 10  9  1  1
 10 11  1  0
 10 12  1  0
 12 19  1  0
 13 12  2  0
 15 14  1  1
 16 15  1  0
 17 15  1  0
 18 17  1  1
 19 18  1  0
 20 22  1  0
 20 18  1  0
 21 20  2  0
M  END
$$$$
