NAL.pdb
     RDKit          3D

 22 21  0  0  1  0  0  0  0  0999 V2000
    6.3721  -20.4372   19.8147 N   0  0  0  0  0  0  0  0  0  0  0  0
    6.9995  -19.6701   18.7954 C   0  0  0  0  0  0  0  0  0  0  0  0
    6.9292  -20.1209   17.6284 O   0  0  0  0  0  0  0  0  0  0  0  0
    7.6908  -18.4144   19.1145 C   0  0  0  0  0  0  0  0  0  0  0  0
    7.6927  -18.0351   20.5726 C   0  0  2  0  0  0  0  0  0  0  0  0
    6.2765  -17.7304   20.8906 N   0  0  0  0  0  0  0  0  0  0  0  0
    8.4871  -16.7880   20.7364 C   0  0  0  0  0  0  0  0  0  0  0  0
    9.7273  -16.7474   20.6425 O   0  0  0  0  0  0  0  0  0  0  0  0
    7.8403  -13.1546   20.8068 C   0  0  0  0  0  0  0  0  0  0  0  0
    8.5944  -14.3329   21.3538 C   0  0  2  0  0  0  0  0  0  0  0  0
    7.8525  -15.5322   21.0186 N   0  0  0  0  0  0  0  0  0  0  0  0
    8.8547  -14.2286   22.8011 C   0  0  0  0  0  0  0  0  0  0  0  0
    9.7235  -13.4025   23.1968 O   0  0  0  0  0  0  0  0  0  0  0  0
    5.5634  -12.5916   26.3351 C   0  0  0  0  0  0  0  0  0  0  0  0
    6.9240  -12.9282   25.8257 C   0  0  1  0  0  0  0  0  0  0  0  0
    7.9987  -11.9601   26.3158 C   0  0  0  0  0  0  0  0  0  0  0  0
    7.3480  -14.3330   26.0171 C   0  0  0  0  0  0  0  0  0  0  0  0
    8.4879  -14.7975   25.1781 C   0  0  2  0  0  0  0  0  0  0  0  0
    8.1919  -14.9988   23.7996 N   0  0  0  0  0  0  0  0  0  0  0  0
    8.9794  -16.0694   25.7633 C   0  0  0  0  0  0  0  0  0  0  0  0
    8.9809  -17.0956   25.0416 O   0  0  0  0  0  0  0  0  0  0  0  0
    9.4341  -16.1821   27.0578 O   0  0  0  0  0  0  0  0  0  0  0  0
  2  1  1  0
  3  2  2  0
  4  2  1  0
  4  5  1  0
  5  6  1  6
  7  5  1  0
  7 11  1  0
  8  7  2  0
 10  9  1  1
 10 11  1  0
 10 12  1  0
 12 19  1  0
 13 12  2  0
 15 14  1  1
 16 15  1  0
 17 15  1  0
 18 17  1  1
 19 18  1  0
 20 22  1  0
 20 18  1  0
 21 20  2  0
M  END
$$$$
