NAL.pdb
     RDKit          3D

 22 21  0  0  1  0  0  0  0  0999 V2000
    6.9619  -21.0059   20.6135 N   0  0  0  0  0  0  0  0  0  0  0  0
    7.5054  -20.2163   19.5637 C   0  0  0  0  0  0  0  0  0  0  0  0
    7.6034  -20.7639   18.4409 O   0  0  0  0  0  0  0  0  0  0  0  0
    7.9253  -18.8297   19.8031 C   0  0  0  0  0  0  0  0  0  0  0  0
    7.8429  -18.3722   21.2363 C   0  0  2  0  0  0  0  0  0  0  0  0
    6.3912  -18.2854   21.5274 N   0  0  0  0  0  0  0  0  0  0  0  0
    8.4209  -17.0047   21.3308 C   0  0  0  0  0  0  0  0  0  0  0  0
    9.6390  -16.7672   21.2408 O   0  0  0  0  0  0  0  0  0  0  0  0
    7.0070  -13.5514   21.3057 C   0  0  0  0  0  0  0  0  0  0  0  0
    8.1124  -14.5096   21.6465 C   0  0  2  0  0  0  0  0  0  0  0  0
    7.5860  -15.8556   21.5361 N   0  0  0  0  0  0  0  0  0  0  0  0
    8.7080  -14.2543   22.9706 C   0  0  0  0  0  0  0  0  0  0  0  0
    9.5544  -13.3239   23.0789 O   0  0  0  0  0  0  0  0  0  0  0  0
    5.8665  -13.1576   26.5316 C   0  0  0  0  0  0  0  0  0  0  0  0
    7.0961  -13.0948   25.6899 C   0  0  1  0  0  0  0  0  0  0  0  0
    7.4063  -11.6837   25.1949 C   0  0  0  0  0  0  0  0  0  0  0  0
    8.3001  -13.7305   26.2698 C   0  0  0  0  0  0  0  0  0  0  0  0
    9.0393  -14.6726   25.3838 C   0  0  2  0  0  0  0  0  0  0  0  0
    8.3970  -14.9870   24.1521 N   0  0  0  0  0  0  0  0  0  0  0  0
    9.2607  -15.9223   26.1526 C   0  0  0  0  0  0  0  0  0  0  0  0
    8.8222  -16.9982   25.6792 O   0  0  0  0  0  0  0  0  0  0  0  0
    9.9228  -15.9626   27.3589 O   0  0  0  0  0  0  0  0  0  0  0  0
  2  1  1  0
  3  2  2  0
  4  2  1  0
  4  5  1  0
  5  6  1  6
  7  5  1  0
  7 11  1  0
  8  7  2  0
 10  9  1  1
 10 11  1  0
 10 12  1  0
 12 19  1  0
 13 12  2  0
 15 14  1  1
 16 15  1  0
 17 15  1  0
 18 17  1  1
 19 18  1  0
 20 22  1  0
 20 18  1  0
 21 20  2  0
M  END
$$$$
