NAL.pdb
     RDKit          3D

 22 21  0  0  1  0  0  0  0  0999 V2000
    9.6108  -21.1581   19.8551 N   0  0  0  0  0  0  0  0  0  0  0  0
    9.9163  -20.1199   18.9332 C   0  0  0  0  0  0  0  0  0  0  0  0
   10.4124  -20.4692   17.8369 O   0  0  0  0  0  0  0  0  0  0  0  0
    9.6559  -18.7139   19.2677 C   0  0  0  0  0  0  0  0  0  0  0  0
    9.1117  -18.4733   20.6519 C   0  0  2  0  0  0  0  0  0  0  0  0
    7.6701  -18.8091   20.5599 N   0  0  0  0  0  0  0  0  0  0  0  0
    9.2349  -17.0239   20.9638 C   0  0  0  0  0  0  0  0  0  0  0  0
   10.3252  -16.4293   21.0414 O   0  0  0  0  0  0  0  0  0  0  0  0
    6.7802  -14.2219   21.4478 C   0  0  0  0  0  0  0  0  0  0  0  0
    8.1565  -14.8116   21.5663 C   0  0  2  0  0  0  0  0  0  0  0  0
    8.0755  -16.2113   21.1981 N   0  0  0  0  0  0  0  0  0  0  0  0
    8.7506  -14.6234   22.9022 C   0  0  0  0  0  0  0  0  0  0  0  0
    9.7994  -13.9276   23.0003 O   0  0  0  0  0  0  0  0  0  0  0  0
    6.0498  -13.8209   26.3420 C   0  0  0  0  0  0  0  0  0  0  0  0
    7.1643  -13.0628   25.7038 C   0  0  1  0  0  0  0  0  0  0  0  0
    7.0928  -11.5613   25.9735 C   0  0  0  0  0  0  0  0  0  0  0  0
    8.5239  -13.5850   25.9657 C   0  0  0  0  0  0  0  0  0  0  0  0
    8.8522  -14.9037   25.3557 C   0  0  2  0  0  0  0  0  0  0  0  0
    8.2244  -15.1741   24.1062 N   0  0  0  0  0  0  0  0  0  0  0  0
    8.4674  -15.9519   26.3330 C   0  0  0  0  0  0  0  0  0  0  0  0
    7.6953  -16.8651   25.9536 O   0  0  0  0  0  0  0  0  0  0  0  0
    8.9139  -15.9746   27.6349 O   0  0  0  0  0  0  0  0  0  0  0  0
  2  1  1  0
  3  2  2  0
  4  2  1  0
  4  5  1  0
  5  6  1  6
  7  5  1  0
  7 11  1  0
  8  7  2  0
 10  9  1  1
 10 11  1  0
 10 12  1  0
 12 19  1  0
 13 12  2  0
 15 14  1  1
 16 15  1  0
 17 15  1  0
 18 17  1  1
 19 18  1  0
 20 22  1  0
 20 18  1  0
 21 20  2  0
M  END
$$$$
