NAL.pdb
     RDKit          3D

 22 21  0  0  1  0  0  0  0  0999 V2000
    8.4511  -20.9395   20.0611 N   0  0  0  0  0  0  0  0  0  0  0  0
    8.9271  -19.9907   19.1154 C   0  0  0  0  0  0  0  0  0  0  0  0
    9.1984  -20.4243   17.9716 O   0  0  0  0  0  0  0  0  0  0  0  0
    9.0861  -18.5772   19.4803 C   0  0  0  0  0  0  0  0  0  0  0  0
    8.8918  -18.2654   20.9415 C   0  0  2  0  0  0  0  0  0  0  0  0
    7.4568  -18.5339   21.2024 N   0  0  0  0  0  0  0  0  0  0  0  0
    9.1417  -16.8143   21.1533 C   0  0  0  0  0  0  0  0  0  0  0  0
   10.2803  -16.3196   21.2388 O   0  0  0  0  0  0  0  0  0  0  0  0
    7.0259  -13.7335   21.1351 C   0  0  0  0  0  0  0  0  0  0  0  0
    8.2572  -14.4765   21.5689 C   0  0  2  0  0  0  0  0  0  0  0  0
    8.0577  -15.8815   21.2737 N   0  0  0  0  0  0  0  0  0  0  0  0
    8.5970  -14.2506   22.9854 C   0  0  0  0  0  0  0  0  0  0  0  0
    8.8806  -13.0772   23.3551 O   0  0  0  0  0  0  0  0  0  0  0  0
    5.8773  -12.4372   26.3869 C   0  0  0  0  0  0  0  0  0  0  0  0
    7.1941  -12.9353   25.8948 C   0  0  1  0  0  0  0  0  0  0  0  0
    8.3794  -12.2339   26.5548 C   0  0  0  0  0  0  0  0  0  0  0  0
    7.3688  -14.4047   25.9143 C   0  0  0  0  0  0  0  0  0  0  0  0
    8.6519  -14.9231   25.3631 C   0  0  2  0  0  0  0  0  0  0  0  0
    8.6301  -15.2685   23.9815 N   0  0  0  0  0  0  0  0  0  0  0  0
    9.0258  -16.1178   26.1598 C   0  0  0  0  0  0  0  0  0  0  0  0
    8.9630  -17.2437   25.6099 O   0  0  0  0  0  0  0  0  0  0  0  0
    9.4384  -16.0550   27.4716 O   0  0  0  0  0  0  0  0  0  0  0  0
  2  1  1  0
  3  2  2  0
  4  2  1  0
  4  5  1  0
  5  6  1  6
  7  5  1  0
  7 11  1  0
  8  7  2  0
 10  9  1  1
 10 11  1  0
 10 12  1  0
 12 19  1  0
 13 12  2  0
 15 14  1  1
 16 15  1  0
 17 15  1  0
 18 17  1  1
 19 18  1  0
 20 22  1  0
 20 18  1  0
 21 20  2  0
M  END
$$$$
