NAL.pdb
     RDKit          3D

 22 21  0  0  1  0  0  0  0  0999 V2000
    8.2996  -21.0749   20.1246 N   0  0  0  0  0  0  0  0  0  0  0  0
    8.6072  -20.6300   21.4393 C   0  0  0  0  0  0  0  0  0  0  0  0
    8.7185  -21.5139   22.3205 O   0  0  0  0  0  0  0  0  0  0  0  0
    8.7820  -19.2013   21.7302 C   0  0  0  0  0  0  0  0  0  0  0  0
    8.4697  -18.2705   20.5873 C   0  0  2  0  0  0  0  0  0  0  0  0
    9.3725  -18.6955   19.4901 N   0  0  0  0  0  0  0  0  0  0  0  0
    8.8411  -16.8869   20.9885 C   0  0  0  0  0  0  0  0  0  0  0  0
    9.9773  -16.5691   21.3840 O   0  0  0  0  0  0  0  0  0  0  0  0
    6.9490  -13.6395   21.2253 C   0  0  0  0  0  0  0  0  0  0  0  0
    8.1793  -14.4792   21.4189 C   0  0  2  0  0  0  0  0  0  0  0  0
    7.8870  -15.8160   20.9407 N   0  0  0  0  0  0  0  0  0  0  0  0
    8.6614  -14.4820   22.8119 C   0  0  0  0  0  0  0  0  0  0  0  0
    9.8561  -14.1397   23.0345 O   0  0  0  0  0  0  0  0  0  0  0  0
    5.9820  -11.9595   26.6356 C   0  0  0  0  0  0  0  0  0  0  0  0
    7.1680  -12.5334   25.9369 C   0  0  1  0  0  0  0  0  0  0  0  0
    8.4324  -11.6985   26.1284 C   0  0  0  0  0  0  0  0  0  0  0  0
    7.4328  -13.9655   26.1997 C   0  0  0  0  0  0  0  0  0  0  0  0
    8.3674  -14.6460   25.2604 C   0  0  2  0  0  0  0  0  0  0  0  0
    7.8716  -14.8460   23.9403 N   0  0  0  0  0  0  0  0  0  0  0  0
    8.7155  -15.9598   25.8561 C   0  0  0  0  0  0  0  0  0  0  0  0
    8.4081  -16.9998   25.2253 O   0  0  0  0  0  0  0  0  0  0  0  0
    9.3588  -16.0968   27.0654 O   0  0  0  0  0  0  0  0  0  0  0  0
  2  1  1  0
  3  2  2  0
  4  2  1  0
  4  5  1  0
  5  6  1  6
  7  5  1  0
  7 11  1  0
  8  7  2  0
 10  9  1  1
 10 11  1  0
 10 12  1  0
 12 19  1  0
 13 12  2  0
 15 14  1  1
 16 15  1  0
 17 15  1  0
 18 17  1  1
 19 18  1  0
 20 22  1  0
 20 18  1  0
 21 20  2  0
M  END
$$$$
