NAL.pdb
     RDKit          3D

 22 21  0  0  1  0  0  0  0  0999 V2000
   15.7122  -17.7510   19.6238 N   0  0  0  0  0  0  0  0  0  0  0  0
   14.6633  -17.1680   18.8614 C   0  0  0  0  0  0  0  0  0  0  0  0
   14.9694  -16.7259   17.7297 O   0  0  0  0  0  0  0  0  0  0  0  0
   13.2957  -17.0969   19.3915 C   0  0  0  0  0  0  0  0  0  0  0  0
   13.1037  -17.7052   20.7565 C   0  0  2  0  0  0  0  0  0  0  0  0
   12.7007  -19.1087   20.4968 N   0  0  0  0  0  0  0  0  0  0  0  0
   11.9727  -17.0113   21.4293 C   0  0  0  0  0  0  0  0  0  0  0  0
   11.9699  -15.7935   21.6852 O   0  0  0  0  0  0  0  0  0  0  0  0
    8.5342  -18.0240   22.5390 C   0  0  0  0  0  0  0  0  0  0  0  0
    9.7276  -17.1139   22.5994 C   0  0  2  0  0  0  0  0  0  0  0  0
   10.7938  -17.7245   21.8303 N   0  0  0  0  0  0  0  0  0  0  0  0
   10.1464  -16.8042   23.9784 C   0  0  0  0  0  0  0  0  0  0  0  0
   11.1395  -17.4196   24.4569 O   0  0  0  0  0  0  0  0  0  0  0  0
   11.2763  -13.9120   28.3657 C   0  0  0  0  0  0  0  0  0  0  0  0
    9.8325  -14.2704   28.2609 C   0  0  1  0  0  0  0  0  0  0  0  0
    8.9223  -13.2956   29.0048 C   0  0  0  0  0  0  0  0  0  0  0  0
    9.3346  -14.5206   26.8899 C   0  0  0  0  0  0  0  0  0  0  0  0
    9.9520  -15.6649   26.1631 C   0  0  2  0  0  0  0  0  0  0  0  0
    9.5076  -15.8511   24.8228 N   0  0  0  0  0  0  0  0  0  0  0  0
    9.6684  -16.8925   26.9470 C   0  0  0  0  0  0  0  0  0  0  0  0
   10.4586  -17.2055   27.8698 O   0  0  0  0  0  0  0  0  0  0  0  0
    8.5826  -17.7061   26.7144 O   0  0  0  0  0  0  0  0  0  0  0  0
  2  1  1  0
  3  2  2  0
  4  2  1  0
  4  5  1  0
  5  6  1  6
  7  5  1  0
  7 11  1  0
  8  7  2  0
 10  9  1  1
 10 11  1  0
 10 12  1  0
 12 19  1  0
 13 12  2  0
 15 14  1  6
 16 15  1  0
 17 15  1  0
 18 17  1  1
 19 18  1  0
 20 22  1  0
 20 18  1  0
 21 20  2  0
M  END
$$$$
