NAL.pdb
     RDKit          3D

 22 21  0  0  1  0  0  0  0  0999 V2000
   11.2895  -16.5222   18.5590 N   0  0  0  0  0  0  0  0  0  0  0  0
   11.3026  -16.0975   19.9157 C   0  0  0  0  0  0  0  0  0  0  0  0
   12.4265  -15.8881   20.4285 O   0  0  0  0  0  0  0  0  0  0  0  0
   10.0506  -15.9191   20.6619 C   0  0  0  0  0  0  0  0  0  0  0  0
   10.1927  -15.9101   22.1619 C   0  0  2  0  0  0  0  0  0  0  0  0
   11.0083  -17.1083   22.4761 N   0  0  0  0  0  0  0  0  0  0  0  0
    8.8454  -16.0904   22.7663 C   0  0  0  0  0  0  0  0  0  0  0  0
    7.8679  -15.3718   22.4897 O   0  0  0  0  0  0  0  0  0  0  0  0
    7.2450  -18.7624   24.8259 C   0  0  0  0  0  0  0  0  0  0  0  0
    7.2883  -17.3491   24.3191 C   0  0  2  0  0  0  0  0  0  0  0  0
    8.5917  -17.1278   23.7249 N   0  0  0  0  0  0  0  0  0  0  0  0
    6.9782  -16.3538   25.3614 C   0  0  0  0  0  0  0  0  0  0  0  0
    5.8813  -16.4526   25.9786 O   0  0  0  0  0  0  0  0  0  0  0  0
   10.2799  -13.6172   28.9720 C   0  0  0  0  0  0  0  0  0  0  0  0
    9.1437  -14.3125   28.3013 C   0  0  1  0  0  0  0  0  0  0  0  0
    8.2192  -15.0262   29.2853 C   0  0  0  0  0  0  0  0  0  0  0  0
    8.3684  -13.4921   27.3442 C   0  0  0  0  0  0  0  0  0  0  0  0
    7.3418  -14.2119   26.5399 C   0  0  2  0  0  0  0  0  0  0  0  0
    7.8331  -15.2754   25.7297 N   0  0  0  0  0  0  0  0  0  0  0  0
    6.6723  -13.2084   25.6759 C   0  0  0  0  0  0  0  0  0  0  0  0
    6.0291  -12.2827   26.2268 O   0  0  0  0  0  0  0  0  0  0  0  0
    6.7204  -13.2400   24.3005 O   0  0  0  0  0  0  0  0  0  0  0  0
  2  1  1  0
  3  2  2  0
  4  2  1  0
  4  5  1  0
  5  6  1  6
  7  5  1  0
  7 11  1  0
  8  7  2  0
 10  9  1  1
 10 11  1  0
 10 12  1  0
 12 19  1  0
 13 12  2  0
 15 14  1  1
 16 15  1  0
 17 15  1  0
 18 17  1  6
 19 18  1  0
 20 22  1  0
 20 18  1  0
 21 20  2  0
M  END
$$$$
