NAL.pdb
     RDKit          3D

 22 21  0  0  1  0  0  0  0  0999 V2000
    7.6243  -13.2806   16.2475 N   0  0  0  0  0  0  0  0  0  0  0  0
    8.5683  -13.6335   17.2502 C   0  0  0  0  0  0  0  0  0  0  0  0
    9.7756  -13.4333   16.9814 O   0  0  0  0  0  0  0  0  0  0  0  0
    8.1304  -14.2031   18.5309 C   0  0  0  0  0  0  0  0  0  0  0  0
    8.5296  -15.6368   18.7661 C   0  0  2  0  0  0  0  0  0  0  0  0
    7.6780  -16.4272   17.8443 N   0  0  0  0  0  0  0  0  0  0  0  0
    8.1730  -16.0046   20.1627 C   0  0  0  0  0  0  0  0  0  0  0  0
    7.0479  -15.8099   20.6573 O   0  0  0  0  0  0  0  0  0  0  0  0
    9.6827  -18.2214   22.7192 C   0  0  0  0  0  0  0  0  0  0  0  0
    8.8018  -17.0522   22.3825 C   0  0  2  0  0  0  0  0  0  0  0  0
    9.1294  -16.6191   21.0386 N   0  0  0  0  0  0  0  0  0  0  0  0
    8.9049  -15.9533   23.3595 C   0  0  0  0  0  0  0  0  0  0  0  0
    9.8899  -15.1678   23.2780 O   0  0  0  0  0  0  0  0  0  0  0  0
    8.0522  -11.6548   26.2251 C   0  0  0  0  0  0  0  0  0  0  0  0
    7.1307  -12.7524   26.6376 C   0  0  1  0  0  0  0  0  0  0  0  0
    5.7823  -12.2398   27.1390 C   0  0  0  0  0  0  0  0  0  0  0  0
    6.9512  -13.8403   25.6505 C   0  0  0  0  0  0  0  0  0  0  0  0
    8.1675  -14.6314   25.3134 C   0  0  2  0  0  0  0  0  0  0  0  0
    7.9656  -15.7071   24.4019 N   0  0  0  0  0  0  0  0  0  0  0  0
    8.7157  -15.1646   26.5850 C   0  0  0  0  0  0  0  0  0  0  0  0
    9.6148  -14.5107   27.1664 O   0  0  0  0  0  0  0  0  0  0  0  0
    8.2888  -16.3401   27.1603 O   0  0  0  0  0  0  0  0  0  0  0  0
  2  1  1  0
  3  2  2  0
  4  2  1  0
  4  5  1  0
  5  6  1  6
  7  5  1  0
  7 11  1  0
  8  7  2  0
 10  9  1  1
 10 11  1  0
 10 12  1  0
 12 19  1  0
 13 12  2  0
 15 14  1  6
 16 15  1  0
 17 15  1  0
 18 17  1  1
 19 18  1  0
 20 22  1  0
 20 18  1  0
 21 20  2  0
M  END
$$$$
