CYP.pdb
     RDKit          3D

 26 27  0  0  1  0  0  0  0  0999 V2000
   23.3048  -20.0510  -21.0071 N   0  0  0  0  0  0  0  0  0  0  0  0
   23.8364  -20.9722  -20.0153 C   0  0  1  0  0  0  0  0  0  0  0  0
   24.9448  -21.7494  -20.7253 C   0  0  0  0  0  0  0  0  0  0  0  0
   25.9351  -22.6829  -19.5070 S   0  0  0  0  0  0  0  0  0  0  0  0
   24.3982  -20.2301  -18.8453 C   0  0  0  0  0  0  0  0  0  0  0  0
   24.9740  -19.1408  -19.1287 O   0  0  0  0  0  0  0  0  0  0  0  0
   18.8242  -20.5607  -13.9307 O   0  0  0  0  0  0  0  0  0  0  0  0
   20.0656  -20.1801  -14.4588 C   0  0  0  0  0  0  0  0  0  0  0  0
   21.2279  -20.8350  -14.1205 C   0  0  0  0  0  0  0  0  0  0  0  0
   22.4348  -20.4289  -14.6632 C   0  0  0  0  0  0  0  0  0  0  0  0
   22.5522  -19.3784  -15.5482 C   0  0  0  0  0  0  0  0  0  0  0  0
   23.8049  -18.8984  -16.1073 C   0  0  0  0  0  0  0  0  0  0  0  0
   24.8707  -19.9143  -16.4231 C   0  0  2  0  0  0  0  0  0  0  0  0
   24.2994  -20.6973  -17.5277 N   0  0  0  0  0  0  0  0  0  0  0  0
   25.2239  -20.8176  -15.3096 C   0  0  0  0  0  0  0  0  0  0  0  0
   24.8574  -22.0451  -15.4811 O   0  0  0  0  0  0  0  0  0  0  0  0
   21.3524  -18.7295  -15.8756 C   0  0  0  0  0  0  0  0  0  0  0  0
   20.1544  -19.1268  -15.3413 C   0  0  0  0  0  0  0  0  0  0  0  0
   25.9048  -20.4349  -14.1442 N   0  0  0  0  0  0  0  0  0  0  0  0
   26.3587  -19.0956  -13.8318 C   0  0  0  0  0  0  0  0  0  0  0  0
   27.7565  -19.3061  -13.2432 C   0  0  0  0  0  0  0  0  0  0  0  0
   27.8107  -20.7796  -12.9407 C   0  0  0  0  0  0  0  0  0  0  0  0
   26.3561  -21.1888  -13.0022 C   0  0  1  0  0  0  0  0  0  0  0  0
   25.6623  -20.9787  -11.7544 C   0  0  0  0  0  0  0  0  0  0  0  0
   24.6992  -19.9451  -11.7559 O   0  0  0  0  0  0  0  0  0  0  0  0
   25.7788  -21.5663  -10.6743 O   0  0  0  0  0  0  0  0  0  0  0  0
  2  5  1  0
  2  1  1  6
  3  2  1  0
  4  3  1  0
  5  6  2  0
  7  8  1  0
  8  9  2  0
  8 18  1  0
  9 10  1  0
 10 11  2  0
 11 12  1  0
 13 12  1  1
 14 13  1  0
 14  5  1  0
 15 16  2  0
 15 13  1  0
 17 11  1  0
 18 17  2  0
 19 15  1  0
 20 19  1  0
 21 22  1  0
 21 20  1  0
 22 23  1  0
 23 19  1  0
 23 24  1  1
 24 25  1  0
 26 24  2  0
M  END
$$$$
