CYP.pdb
     RDKit          3D

 26 27  0  0  1  0  0  0  0  0999 V2000
   24.9228  -16.7964  -16.4113 N   0  0  0  0  0  0  0  0  0  0  0  0
   24.6823  -15.4837  -15.8336 C   0  0  1  0  0  0  0  0  0  0  0  0
   25.8911  -14.6331  -16.2232 C   0  0  0  0  0  0  0  0  0  0  0  0
   27.1805  -14.7489  -14.9346 S   0  0  0  0  0  0  0  0  0  0  0  0
   23.4305  -14.8799  -16.3846 C   0  0  0  0  0  0  0  0  0  0  0  0
   23.2398  -15.0761  -17.6189 O   0  0  0  0  0  0  0  0  0  0  0  0
   18.3879  -19.3916  -16.0620 O   0  0  0  0  0  0  0  0  0  0  0  0
   18.8565  -18.0853  -15.8649 C   0  0  0  0  0  0  0  0  0  0  0  0
   19.6006  -17.7420  -14.7591 C   0  0  0  0  0  0  0  0  0  0  0  0
   20.0451  -16.4408  -14.6001 C   0  0  0  0  0  0  0  0  0  0  0  0
   19.7829  -15.4348  -15.5055 C   0  0  0  0  0  0  0  0  0  0  0  0
   20.1981  -14.0503  -15.3533 C   0  0  0  0  0  0  0  0  0  0  0  0
   21.3311  -13.5559  -16.2133 C   0  0  2  0  0  0  0  0  0  0  0  0
   22.5278  -14.1490  -15.6004 N   0  0  0  0  0  0  0  0  0  0  0  0
   21.4810  -12.0878  -16.2677 C   0  0  0  0  0  0  0  0  0  0  0  0
   22.3387  -11.6074  -15.4285 O   0  0  0  0  0  0  0  0  0  0  0  0
   19.0232  -15.8125  -16.6226 C   0  0  0  0  0  0  0  0  0  0  0  0
   18.5801  -17.0992  -16.7854 C   0  0  0  0  0  0  0  0  0  0  0  0
   20.7851  -11.2367  -17.1391 N   0  0  0  0  0  0  0  0  0  0  0  0
   19.9111  -11.6588  -18.2140 C   0  0  0  0  0  0  0  0  0  0  0  0
   20.2684  -10.7222  -19.3714 C   0  0  0  0  0  0  0  0  0  0  0  0
   21.0564   -9.6169  -18.7211 C   0  0  0  0  0  0  0  0  0  0  0  0
   20.7441   -9.8009  -17.2528 C   0  0  1  0  0  0  0  0  0  0  0  0
   19.5253   -9.1399  -16.8527 C   0  0  0  0  0  0  0  0  0  0  0  0
   19.5577   -7.7278  -16.8788 O   0  0  0  0  0  0  0  0  0  0  0  0
   18.4472   -9.6191  -16.4873 O   0  0  0  0  0  0  0  0  0  0  0  0
  2  5  1  0
  2  1  1  6
  3  2  1  0
  4  3  1  0
  5  6  2  0
  7  8  1  0
  8  9  2  0
  8 18  1  0
  9 10  1  0
 10 11  2  0
 11 12  1  0
 13 12  1  1
 14 13  1  0
 14  5  1  0
 15 16  2  0
 15 13  1  0
 17 11  1  0
 18 17  2  0
 19 15  1  0
 20 19  1  0
 21 22  1  0
 21 20  1  0
 22 23  1  0
 23 19  1  0
 23 24  1  6
 24 25  1  0
 26 24  2  0
M  END
$$$$
