CYP.pdb
     RDKit          3D

 26 27  0  0  1  0  0  0  0  0999 V2000
   20.0416  -19.8578  -13.7400 N   0  0  0  0  0  0  0  0  0  0  0  0
   20.9444  -20.1717  -14.8360 C   0  0  1  0  0  0  0  0  0  0  0  0
   20.5785  -19.2055  -15.9625 C   0  0  0  0  0  0  0  0  0  0  0  0
   21.5782  -19.5672  -17.4479 S   0  0  0  0  0  0  0  0  0  0  0  0
   22.3686  -19.9693  -14.4282 C   0  0  0  0  0  0  0  0  0  0  0  0
   22.6429  -18.8126  -13.9979 O   0  0  0  0  0  0  0  0  0  0  0  0
   22.9726  -20.4348   -7.9383 O   0  0  0  0  0  0  0  0  0  0  0  0
   23.5187  -20.7382   -9.1932 C   0  0  0  0  0  0  0  0  0  0  0  0
   24.8582  -20.5687   -9.4602 C   0  0  0  0  0  0  0  0  0  0  0  0
   25.3596  -20.8796  -10.7124 C   0  0  0  0  0  0  0  0  0  0  0  0
   24.5803  -21.3630  -11.7417 C   0  0  0  0  0  0  0  0  0  0  0  0
   25.0626  -21.6625  -13.0796 C   0  0  0  0  0  0  0  0  0  0  0  0
   24.7376  -20.6875  -14.1804 C   0  0  2  0  0  0  0  0  0  0  0  0
   23.3361  -20.9797  -14.5119 N   0  0  0  0  0  0  0  0  0  0  0  0
   25.5685  -20.8147  -15.3946 C   0  0  0  0  0  0  0  0  0  0  0  0
   24.9561  -21.3319  -16.4086 O   0  0  0  0  0  0  0  0  0  0  0  0
   23.2196  -21.5263  -11.4419 C   0  0  0  0  0  0  0  0  0  0  0  0
   22.7174  -21.2200  -10.2041 C   0  0  0  0  0  0  0  0  0  0  0  0
   26.9101  -20.4187  -15.5002 N   0  0  0  0  0  0  0  0  0  0  0  0
   27.7284  -19.9090  -14.4195 C   0  0  0  0  0  0  0  0  0  0  0  0
   28.4957  -18.7451  -15.0530 C   0  0  0  0  0  0  0  0  0  0  0  0
   28.3072  -18.9420  -16.5333 C   0  0  0  0  0  0  0  0  0  0  0  0
   27.8129  -20.3685  -16.6220 C   0  0  1  0  0  0  0  0  0  0  0  0
   28.8867  -21.3322  -16.6511 C   0  0  0  0  0  0  0  0  0  0  0  0
   29.6968  -21.3115  -17.8082 O   0  0  0  0  0  0  0  0  0  0  0  0
   29.2124  -22.1809  -15.8150 O   0  0  0  0  0  0  0  0  0  0  0  0
  2  5  1  0
  2  1  1  1
  3  2  1  0
  4  3  1  0
  5  6  2  0
  7  8  1  0
  8  9  2  0
  8 18  1  0
  9 10  1  0
 10 11  2  0
 11 12  1  0
 13 12  1  1
 14 13  1  0
 14  5  1  0
 15 16  2  0
 15 13  1  0
 17 11  1  0
 18 17  2  0
 19 15  1  0
 20 19  1  0
 21 22  1  0
 21 20  1  0
 22 23  1  0
 23 19  1  0
 23 24  1  1
 24 25  1  0
 26 24  2  0
M  END
$$$$
