CYP.pdb
     RDKit          3D

 26 27  0  0  1  0  0  0  0  0999 V2000
   17.3248  -12.2318    4.3861 N   0  0  0  0  0  0  0  0  0  0  0  0
   18.5049  -12.8801    4.9354 C   0  0  1  0  0  0  0  0  0  0  0  0
   18.9664  -11.9896    6.0889 C   0  0  0  0  0  0  0  0  0  0  0  0
   20.7663  -11.6995    5.9754 S   0  0  0  0  0  0  0  0  0  0  0  0
   18.1748  -14.2473    5.4426 C   0  0  0  0  0  0  0  0  0  0  0  0
   17.0332  -14.3598    5.9742 O   0  0  0  0  0  0  0  0  0  0  0  0
   15.2650  -18.2898    0.6363 O   0  0  0  0  0  0  0  0  0  0  0  0
   16.1930  -18.1554    1.6783 C   0  0  0  0  0  0  0  0  0  0  0  0
   16.2136  -19.0237    2.7460 C   0  0  0  0  0  0  0  0  0  0  0  0
   17.1456  -18.8577    3.7559 C   0  0  0  0  0  0  0  0  0  0  0  0
   18.0840  -17.8477    3.7621 C   0  0  0  0  0  0  0  0  0  0  0  0
   19.0511  -17.6179    4.8223 C   0  0  0  0  0  0  0  0  0  0  0  0
   18.6887  -16.6370    5.9060 C   0  0  2  0  0  0  0  0  0  0  0  0
   19.0572  -15.3313    5.3414 N   0  0  0  0  0  0  0  0  0  0  0  0
   19.3911  -16.8350    7.1898 C   0  0  0  0  0  0  0  0  0  0  0  0
   20.4432  -16.0996    7.3417 O   0  0  0  0  0  0  0  0  0  0  0  0
   18.0404  -16.9780    2.6622 C   0  0  0  0  0  0  0  0  0  0  0  0
   17.1198  -17.1372    1.6595 C   0  0  0  0  0  0  0  0  0  0  0  0
   18.9936  -17.7247    8.1990 N   0  0  0  0  0  0  0  0  0  0  0  0
   17.7834  -18.5202    8.1958 C   0  0  0  0  0  0  0  0  0  0  0  0
   17.2633  -18.4092    9.6317 C   0  0  0  0  0  0  0  0  0  0  0  0
   18.4312  -17.8580   10.4049 C   0  0  0  0  0  0  0  0  0  0  0  0
   19.5924  -18.0776    9.4612 C   0  0  1  0  0  0  0  0  0  0  0  0
   20.1652  -19.3972    9.5759 C   0  0  0  0  0  0  0  0  0  0  0  0
   20.8592  -19.6608   10.7778 O   0  0  0  0  0  0  0  0  0  0  0  0
   20.1438  -20.3421    8.7809 O   0  0  0  0  0  0  0  0  0  0  0  0
  2  5  1  0
  2  1  1  1
  3  2  1  0
  4  3  1  0
  5  6  2  0
  7  8  1  0
  8  9  2  0
  8 18  1  0
  9 10  1  0
 10 11  2  0
 11 12  1  0
 13 12  1  6
 14 13  1  0
 14  5  1  0
 15 16  2  0
 15 13  1  0
 17 11  1  0
 18 17  2  0
 19 15  1  0
 20 19  1  0
 21 22  1  0
 21 20  1  0
 22 23  1  0
 23 19  1  0
 23 24  1  6
 24 25  1  0
 26 24  2  0
M  END
$$$$
