CYP.pdb
     RDKit          3D

 26 27  0  0  1  0  0  0  0  0999 V2000
   19.3696  -19.4922  -15.2831 N   0  0  0  0  0  0  0  0  0  0  0  0
   20.3726  -20.4839  -15.6370 C   0  0  1  0  0  0  0  0  0  0  0  0
   20.5358  -20.3836  -17.1535 C   0  0  0  0  0  0  0  0  0  0  0  0
   21.7141  -21.6492  -17.7423 S   0  0  0  0  0  0  0  0  0  0  0  0
   21.6733  -20.1919  -14.9601 C   0  0  0  0  0  0  0  0  0  0  0  0
   22.0422  -18.9836  -15.0081 O   0  0  0  0  0  0  0  0  0  0  0  0
   27.2015  -20.2262   -8.2061 O   0  0  0  0  0  0  0  0  0  0  0  0
   26.3533  -20.5800   -9.2646 C   0  0  0  0  0  0  0  0  0  0  0  0
   25.0123  -20.2702   -9.2525 C   0  0  0  0  0  0  0  0  0  0  0  0
   24.2071  -20.6370  -10.3170 C   0  0  0  0  0  0  0  0  0  0  0  0
   24.6754  -21.3136  -11.4231 C   0  0  0  0  0  0  0  0  0  0  0  0
   23.8543  -21.7499  -12.5401 C   0  0  0  0  0  0  0  0  0  0  0  0
   23.7381  -20.8334  -13.7294 C   0  0  2  0  0  0  0  0  0  0  0  0
   22.4354  -21.1763  -14.3166 N   0  0  0  0  0  0  0  0  0  0  0  0
   24.7954  -20.9927  -14.7480 C   0  0  0  0  0  0  0  0  0  0  0  0
   24.4621  -21.7361  -15.7516 O   0  0  0  0  0  0  0  0  0  0  0  0
   26.0452  -21.6160  -11.4092 C   0  0  0  0  0  0  0  0  0  0  0  0
   26.8474  -21.2556  -10.3580 C   0  0  0  0  0  0  0  0  0  0  0  0
   26.0684  -20.4061  -14.6893 N   0  0  0  0  0  0  0  0  0  0  0  0
   26.6149  -19.6842  -13.5590 C   0  0  0  0  0  0  0  0  0  0  0  0
   27.3106  -18.4761  -14.1923 C   0  0  0  0  0  0  0  0  0  0  0  0
   27.4033  -18.8283  -15.6528 C   0  0  0  0  0  0  0  0  0  0  0  0
   27.1318  -20.3161  -15.6573 C   0  0  1  0  0  0  0  0  0  0  0  0
   28.3171  -21.1022  -15.4133 C   0  0  0  0  0  0  0  0  0  0  0  0
   29.2408  -21.1645  -16.4804 O   0  0  0  0  0  0  0  0  0  0  0  0
   28.6548  -21.7355  -14.4081 O   0  0  0  0  0  0  0  0  0  0  0  0
  2  5  1  0
  2  1  1  1
  3  2  1  0
  4  3  1  0
  5  6  2  0
  7  8  1  0
  8  9  2  0
  8 18  1  0
  9 10  1  0
 10 11  2  0
 11 12  1  0
 13 12  1  1
 14 13  1  0
 14  5  1  0
 15 16  2  0
 15 13  1  0
 17 11  1  0
 18 17  2  0
 19 15  1  0
 20 19  1  0
 21 22  1  0
 21 20  1  0
 22 23  1  0
 23 19  1  0
 23 24  1  1
 24 25  1  0
 26 24  2  0
M  END
$$$$
