CYP.pdb
     RDKit          3D

 26 27  0  0  1  0  0  0  0  0999 V2000
   26.9660  -28.4212  -16.9152 N   0  0  0  0  0  0  0  0  0  0  0  0
   27.3854  -27.1851  -16.2741 C   0  0  1  0  0  0  0  0  0  0  0  0
   28.8702  -27.0320  -16.6035 C   0  0  0  0  0  0  0  0  0  0  0  0
   29.0767  -26.5313  -18.3480 S   0  0  0  0  0  0  0  0  0  0  0  0
   26.6177  -26.0194  -16.8098 C   0  0  0  0  0  0  0  0  0  0  0  0
   25.6497  -26.3181  -17.5663 O   0  0  0  0  0  0  0  0  0  0  0  0
   24.3567  -21.0558  -11.3336 O   0  0  0  0  0  0  0  0  0  0  0  0
   24.4660  -21.7426  -12.5507 C   0  0  0  0  0  0  0  0  0  0  0  0
   24.7983  -23.0772  -12.6018 C   0  0  0  0  0  0  0  0  0  0  0  0
   24.8966  -23.7202  -13.8236 C   0  0  0  0  0  0  0  0  0  0  0  0
   24.6764  -23.0913  -15.0305 C   0  0  0  0  0  0  0  0  0  0  0  0
   24.8089  -23.7221  -16.3331 C   0  0  0  0  0  0  0  0  0  0  0  0
   26.1279  -23.5919  -17.0481 C   0  0  2  0  0  0  0  0  0  0  0  0
   26.9379  -24.6901  -16.5027 N   0  0  0  0  0  0  0  0  0  0  0  0
   26.8299  -22.3098  -16.8378 C   0  0  0  0  0  0  0  0  0  0  0  0
   27.5950  -22.2848  -15.7964 O   0  0  0  0  0  0  0  0  0  0  0  0
   24.3392  -21.7320  -14.9489 C   0  0  0  0  0  0  0  0  0  0  0  0
   24.2406  -21.0899  -13.7421 C   0  0  0  0  0  0  0  0  0  0  0  0
   26.7208  -21.1838  -17.6674 N   0  0  0  0  0  0  0  0  0  0  0  0
   25.8003  -21.0367  -18.7757 C   0  0  0  0  0  0  0  0  0  0  0  0
   26.6432  -20.3803  -19.8727 C   0  0  0  0  0  0  0  0  0  0  0  0
   27.8667  -19.8841  -19.1499 C   0  0  0  0  0  0  0  0  0  0  0  0
   27.4443  -19.9382  -17.6987 C   0  0  1  0  0  0  0  0  0  0  0  0
   26.7387  -18.7523  -17.2765 C   0  0  0  0  0  0  0  0  0  0  0  0
   25.3370  -18.8830  -17.1594 O   0  0  0  0  0  0  0  0  0  0  0  0
   27.1717  -17.6295  -16.9984 O   0  0  0  0  0  0  0  0  0  0  0  0
  2  5  1  0
  2  1  1  6
  3  2  1  0
  4  3  1  0
  5  6  2  0
  7  8  1  0
  8  9  2  0
  8 18  1  0
  9 10  1  0
 10 11  2  0
 11 12  1  0
 13 12  1  1
 14 13  1  0
 14  5  1  0
 15 16  2  0
 15 13  1  0
 17 11  1  0
 18 17  2  0
 19 15  1  0
 20 19  1  0
 21 22  1  0
 21 20  1  0
 22 23  1  0
 23 19  1  0
 23 24  1  6
 24 25  1  0
 26 24  2  0
M  END
$$$$
