CYP.pdb
     RDKit          3D

 26 27  0  0  1  0  0  0  0  0999 V2000
   25.9609  -15.4441  -16.6080 N   0  0  0  0  0  0  0  0  0  0  0  0
   25.8873  -14.2075  -15.8465 C   0  0  1  0  0  0  0  0  0  0  0  0
   27.1453  -13.4206  -16.2135 C   0  0  0  0  0  0  0  0  0  0  0  0
   28.6340  -14.3320  -15.6751 S   0  0  0  0  0  0  0  0  0  0  0  0
   24.6671  -13.4261  -16.2152 C   0  0  0  0  0  0  0  0  0  0  0  0
   24.3670  -13.4500  -17.4431 O   0  0  0  0  0  0  0  0  0  0  0  0
   16.3608  -10.8795  -16.4916 O   0  0  0  0  0  0  0  0  0  0  0  0
   17.6369  -11.3594  -16.1656 C   0  0  0  0  0  0  0  0  0  0  0  0
   18.1799  -11.1802  -14.9137 C   0  0  0  0  0  0  0  0  0  0  0  0
   19.4437  -11.6689  -14.6304 C   0  0  0  0  0  0  0  0  0  0  0  0
   20.2180  -12.3445  -15.5494 C   0  0  0  0  0  0  0  0  0  0  0  0
   21.5629  -12.8367  -15.3015 C   0  0  0  0  0  0  0  0  0  0  0  0
   22.7194  -11.9629  -15.7102 C   0  0  2  0  0  0  0  0  0  0  0  0
   23.9045  -12.7164  -15.2777 N   0  0  0  0  0  0  0  0  0  0  0  0
   22.7372  -10.6203  -15.0955 C   0  0  0  0  0  0  0  0  0  0  0  0
   23.3694  -10.5570  -13.9698 O   0  0  0  0  0  0  0  0  0  0  0  0
   19.6401  -12.5131  -16.8164 C   0  0  0  0  0  0  0  0  0  0  0  0
   18.3894  -12.0313  -17.1028 C   0  0  0  0  0  0  0  0  0  0  0  0
   22.1432   -9.4735  -15.6430 N   0  0  0  0  0  0  0  0  0  0  0  0
   21.5169   -9.3861  -16.9459 C   0  0  0  0  0  0  0  0  0  0  0  0
   21.9997   -8.0427  -17.4997 C   0  0  0  0  0  0  0  0  0  0  0  0
   22.5623   -7.3302  -16.2991 C   0  0  0  0  0  0  0  0  0  0  0  0
   22.0049   -8.1294  -15.1425 C   0  0  1  0  0  0  0  0  0  0  0  0
   20.6832   -7.7014  -14.7519 C   0  0  0  0  0  0  0  0  0  0  0  0
   20.1882   -8.2605  -13.5527 O   0  0  0  0  0  0  0  0  0  0  0  0
   19.9088   -6.9152  -15.3065 O   0  0  0  0  0  0  0  0  0  0  0  0
  2  5  1  0
  2  1  1  6
  3  2  1  0
  4  3  1  0
  5  6  2  0
  7  8  1  0
  8  9  2  0
  8 18  1  0
  9 10  1  0
 10 11  2  0
 11 12  1  0
 13 12  1  1
 14 13  1  0
 14  5  1  0
 15 16  2  0
 15 13  1  0
 17 11  1  0
 18 17  2  0
 19 15  1  0
 20 19  1  0
 21 22  1  0
 21 20  1  0
 22 23  1  0
 23 19  1  0
 23 24  1  6
 24 25  1  0
 26 24  2  0
M  END
$$$$
