CYP.pdb
     RDKit          3D

 26 27  0  0  1  0  0  0  0  0999 V2000
   29.5731  -22.3289  -17.5202 N   0  0  0  0  0  0  0  0  0  0  0  0
   28.9057  -21.1507  -16.9896 C   0  0  1  0  0  0  0  0  0  0  0  0
   28.2243  -20.4877  -18.1865 C   0  0  0  0  0  0  0  0  0  0  0  0
   27.2425  -19.0506  -17.6319 S   0  0  0  0  0  0  0  0  0  0  0  0
   27.8863  -21.5317  -15.9644 C   0  0  0  0  0  0  0  0  0  0  0  0
   27.1979  -22.5535  -16.2481 O   0  0  0  0  0  0  0  0  0  0  0  0
   23.2552  -20.6900   -8.2987 O   0  0  0  0  0  0  0  0  0  0  0  0
   24.2125  -20.6983   -9.3227 C   0  0  0  0  0  0  0  0  0  0  0  0
   25.5205  -21.0569   -9.0883 C   0  0  0  0  0  0  0  0  0  0  0  0
   26.4365  -21.0523  -10.1260 C   0  0  0  0  0  0  0  0  0  0  0  0
   26.1140  -20.7009  -11.4195 C   0  0  0  0  0  0  0  0  0  0  0  0
   27.0555  -20.6457  -12.5253 C   0  0  0  0  0  0  0  0  0  0  0  0
   26.6069  -21.1799  -13.8600 C   0  0  2  0  0  0  0  0  0  0  0  0
   27.6991  -20.8170  -14.7736 N   0  0  0  0  0  0  0  0  0  0  0  0
   25.3365  -20.6199  -14.3632 C   0  0  0  0  0  0  0  0  0  0  0  0
   25.4356  -19.4281  -14.8537 O   0  0  0  0  0  0  0  0  0  0  0  0
   24.7747  -20.3404  -11.6299 C   0  0  0  0  0  0  0  0  0  0  0  0
   23.8633  -20.3428  -10.6064 C   0  0  0  0  0  0  0  0  0  0  0  0
   24.0990  -21.2803  -14.3439 N   0  0  0  0  0  0  0  0  0  0  0  0
   23.8350  -22.5628  -13.7252 C   0  0  0  0  0  0  0  0  0  0  0  0
   22.9483  -23.2886  -14.7408 C   0  0  0  0  0  0  0  0  0  0  0  0
   22.4942  -22.2010  -15.6770 C   0  0  0  0  0  0  0  0  0  0  0  0
   22.8177  -20.9395  -14.9081 C   0  0  1  0  0  0  0  0  0  0  0  0
   21.7707  -20.5591  -13.9907 C   0  0  0  0  0  0  0  0  0  0  0  0
   22.0312  -20.8122  -12.6255 O   0  0  0  0  0  0  0  0  0  0  0  0
   20.6715  -20.0417  -14.2133 O   0  0  0  0  0  0  0  0  0  0  0  0
  2  5  1  0
  2  1  1  6
  3  2  1  0
  4  3  1  0
  5  6  2  0
  7  8  1  0
  8  9  2  0
  8 18  1  0
  9 10  1  0
 10 11  2  0
 11 12  1  0
 13 12  1  1
 14 13  1  0
 14  5  1  0
 15 16  2  0
 15 13  1  0
 17 11  1  0
 18 17  2  0
 19 15  1  0
 20 19  1  0
 21 22  1  0
 21 20  1  0
 22 23  1  0
 23 19  1  0
 23 24  1  1
 24 25  1  0
 26 24  2  0
M  END
$$$$
