CYP.pdb
     RDKit          3D

 26 27  0  0  1  0  0  0  0  0999 V2000
   29.2282  -22.5211  -17.8891 N   0  0  0  0  0  0  0  0  0  0  0  0
   27.9807  -22.9359  -17.2675 C   0  0  1  0  0  0  0  0  0  0  0  0
   28.1934  -24.3889  -16.8434 C   0  0  0  0  0  0  0  0  0  0  0  0
   26.7927  -24.9535  -15.8158 S   0  0  0  0  0  0  0  0  0  0  0  0
   27.6740  -22.0917  -16.0722 C   0  0  0  0  0  0  0  0  0  0  0  0
   28.6536  -21.8786  -15.3019 O   0  0  0  0  0  0  0  0  0  0  0  0
   20.4669  -18.8947  -17.1786 O   0  0  0  0  0  0  0  0  0  0  0  0
   21.7787  -19.0373  -16.7056 C   0  0  0  0  0  0  0  0  0  0  0  0
   22.6831  -19.8734  -17.3198 C   0  0  0  0  0  0  0  0  0  0  0  0
   23.9698  -19.9874  -16.8223 C   0  0  0  0  0  0  0  0  0  0  0  0
   24.4185  -19.2963  -15.7171 C   0  0  0  0  0  0  0  0  0  0  0  0
   25.7477  -19.4198  -15.1425 C   0  0  0  0  0  0  0  0  0  0  0  0
   26.1620  -20.7654  -14.6080 C   0  0  2  0  0  0  0  0  0  0  0  0
   26.3992  -21.5697  -15.8147 N   0  0  0  0  0  0  0  0  0  0  0  0
   25.1588  -21.4367  -13.7573 C   0  0  0  0  0  0  0  0  0  0  0  0
   24.6661  -22.5183  -14.2653 O   0  0  0  0  0  0  0  0  0  0  0  0
   23.4765  -18.4516  -15.1112 C   0  0  0  0  0  0  0  0  0  0  0  0
   22.2010  -18.3348  -15.5991 C   0  0  0  0  0  0  0  0  0  0  0  0
   24.7420  -20.9901  -12.4944 N   0  0  0  0  0  0  0  0  0  0  0  0
   25.2714  -19.8429  -11.7866 C   0  0  0  0  0  0  0  0  0  0  0  0
   25.4000  -20.3274  -10.3397 C   0  0  0  0  0  0  0  0  0  0  0  0
   24.5833  -21.5911  -10.3005 C   0  0  0  0  0  0  0  0  0  0  0  0
   23.7635  -21.5006  -11.5681 C   0  0  1  0  0  0  0  0  0  0  0  0
   22.5515  -20.7361  -11.3975 C   0  0  0  0  0  0  0  0  0  0  0  0
   22.5435  -19.4587  -12.0009 O   0  0  0  0  0  0  0  0  0  0  0  0
   21.5095  -21.0255  -10.8011 O   0  0  0  0  0  0  0  0  0  0  0  0
  2  5  1  0
  2  1  1  1
  3  2  1  0
  4  3  1  0
  5  6  2  0
  7  8  1  0
  8  9  2  0
  8 18  1  0
  9 10  1  0
 10 11  2  0
 11 12  1  0
 13 12  1  6
 14 13  1  0
 14  5  1  0
 15 16  2  0
 15 13  1  0
 17 11  1  0
 18 17  2  0
 19 15  1  0
 20 19  1  0
 21 22  1  0
 21 20  1  0
 22 23  1  0
 23 19  1  0
 23 24  1  1
 24 25  1  0
 26 24  2  0
M  END
$$$$
