CYP.pdb
     RDKit          3D

 26 27  0  0  1  0  0  0  0  0999 V2000
   14.5820  -22.7615    0.1537 N   0  0  0  0  0  0  0  0  0  0  0  0
   14.6909  -22.5899    1.5936 C   0  0  1  0  0  0  0  0  0  0  0  0
   15.0516  -23.9679    2.1479 C   0  0  0  0  0  0  0  0  0  0  0  0
   15.6103  -23.8200    3.8807 S   0  0  0  0  0  0  0  0  0  0  0  0
   15.7616  -21.6033    1.9335 C   0  0  0  0  0  0  0  0  0  0  0  0
   16.6189  -21.4094    1.0247 O   0  0  0  0  0  0  0  0  0  0  0  0
   18.4841  -13.5868    3.4047 O   0  0  0  0  0  0  0  0  0  0  0  0
   17.9300  -14.8544    3.1784 C   0  0  0  0  0  0  0  0  0  0  0  0
   16.7281  -15.2291    3.7344 C   0  0  0  0  0  0  0  0  0  0  0  0
   16.2138  -16.4902    3.4872 C   0  0  0  0  0  0  0  0  0  0  0  0
   16.8469  -17.4247    2.6957 C   0  0  0  0  0  0  0  0  0  0  0  0
   16.3584  -18.7705    2.4458 C   0  0  0  0  0  0  0  0  0  0  0  0
   16.8049  -19.8664    3.3773 C   0  0  2  0  0  0  0  0  0  0  0  0
   15.8205  -20.9366    3.1648 N   0  0  0  0  0  0  0  0  0  0  0  0
   16.8333  -19.4993    4.8074 C   0  0  0  0  0  0  0  0  0  0  0  0
   15.7159  -19.6880    5.4292 O   0  0  0  0  0  0  0  0  0  0  0  0
   18.0693  -17.0163    2.1419 C   0  0  0  0  0  0  0  0  0  0  0  0
   18.5837  -15.7690    2.3831 C   0  0  0  0  0  0  0  0  0  0  0  0
   17.9495  -18.9919    5.4889 N   0  0  0  0  0  0  0  0  0  0  0  0
   19.2192  -18.6406    4.8873 C   0  0  0  0  0  0  0  0  0  0  0  0
   20.2585  -19.1819    5.8729 C   0  0  0  0  0  0  0  0  0  0  0  0
   19.4685  -19.4657    7.1223 C   0  0  0  0  0  0  0  0  0  0  0  0
   18.1797  -18.7113    6.8833 C   0  0  1  0  0  0  0  0  0  0  0  0
   18.2620  -17.3247    7.2746 C   0  0  0  0  0  0  0  0  0  0  0  0
   18.1967  -16.3863    6.2206 O   0  0  0  0  0  0  0  0  0  0  0  0
   18.3815  -16.8240    8.3973 O   0  0  0  0  0  0  0  0  0  0  0  0
  2  5  1  0
  2  1  1  6
  3  2  1  0
  4  3  1  0
  5  6  2  0
  7  8  1  0
  8  9  2  0
  8 18  1  0
  9 10  1  0
 10 11  2  0
 11 12  1  0
 13 12  1  6
 14 13  1  0
 14  5  1  0
 15 16  2  0
 15 13  1  0
 17 11  1  0
 18 17  2  0
 19 15  1  0
 20 19  1  0
 21 22  1  0
 21 20  1  0
 22 23  1  0
 23 19  1  0
 23 24  1  6
 24 25  1  0
 26 24  2  0
M  END
$$$$
