CYP.pdb
     RDKit          3D

 26 27  0  0  1  0  0  0  0  0999 V2000
   19.8969  -18.6543  -14.2761 N   0  0  0  0  0  0  0  0  0  0  0  0
   20.7462  -19.7609  -14.6870 C   0  0  1  0  0  0  0  0  0  0  0  0
   20.7982  -19.6973  -16.2133 C   0  0  0  0  0  0  0  0  0  0  0  0
   21.7818  -21.0915  -16.8656 S   0  0  0  0  0  0  0  0  0  0  0  0
   22.1219  -19.6164  -14.1198 C   0  0  0  0  0  0  0  0  0  0  0  0
   22.6722  -18.4975  -14.3288 O   0  0  0  0  0  0  0  0  0  0  0  0
   28.1678  -19.9624   -7.8617 O   0  0  0  0  0  0  0  0  0  0  0  0
   27.2245  -20.3276   -8.8322 C   0  0  0  0  0  0  0  0  0  0  0  0
   27.5814  -21.0293   -9.9610 C   0  0  0  0  0  0  0  0  0  0  0  0
   26.6204  -21.3713  -10.8967 C   0  0  0  0  0  0  0  0  0  0  0  0
   25.2873  -21.0446  -10.7675 C   0  0  0  0  0  0  0  0  0  0  0  0
   24.2576  -21.3511  -11.7463 C   0  0  0  0  0  0  0  0  0  0  0  0
   24.1525  -20.4648  -12.9594 C   0  0  2  0  0  0  0  0  0  0  0  0
   22.7636  -20.6383  -13.4072 N   0  0  0  0  0  0  0  0  0  0  0  0
   25.0726  -20.8036  -14.0636 C   0  0  0  0  0  0  0  0  0  0  0  0
   24.5786  -21.6150  -14.9401 O   0  0  0  0  0  0  0  0  0  0  0  0
   24.9517  -20.3301   -9.6079 C   0  0  0  0  0  0  0  0  0  0  0  0
   25.8988  -19.9884   -8.6781 C   0  0  0  0  0  0  0  0  0  0  0  0
   26.3788  -20.3122  -14.2059 N   0  0  0  0  0  0  0  0  0  0  0  0
   27.0901  -19.5086  -13.2335 C   0  0  0  0  0  0  0  0  0  0  0  0
   27.7873  -18.4374  -14.0768 C   0  0  0  0  0  0  0  0  0  0  0  0
   27.6973  -18.9612  -15.4851 C   0  0  0  0  0  0  0  0  0  0  0  0
   27.3336  -20.4148  -15.2802 C   0  0  1  0  0  0  0  0  0  0  0  0
   28.4865  -21.2550  -15.0629 C   0  0  0  0  0  0  0  0  0  0  0  0
   29.2528  -21.5522  -16.2119 O   0  0  0  0  0  0  0  0  0  0  0  0
   28.9134  -21.7604  -14.0199 O   0  0  0  0  0  0  0  0  0  0  0  0
  2  5  1  0
  2  1  1  1
  3  2  1  0
  4  3  1  0
  5  6  2  0
  7  8  1  0
  8  9  2  0
  8 18  1  0
  9 10  1  0
 10 11  2  0
 11 12  1  0
 13 12  1  1
 14 13  1  0
 14  5  1  0
 15 16  2  0
 15 13  1  0
 17 11  1  0
 18 17  2  0
 19 15  1  0
 20 19  1  0
 21 22  1  0
 21 20  1  0
 22 23  1  0
 23 19  1  0
 23 24  1  1
 24 25  1  0
 26 24  2  0
M  END
$$$$
