CKG.pdb
     RDKit          3D

 20 19  0  0  1  0  0  0  0  0999 V2000
    7.8325  -13.2813   18.5704 N   0  0  0  0  0  0  0  0  0  0  0  0
    8.8079  -13.9815   19.3492 C   0  0  1  0  0  0  0  0  0  0  0  0
    9.9503  -13.0558   19.7650 C   0  0  0  0  0  0  0  0  0  0  0  0
   11.2180  -13.0183   18.4889 S   0  0  0  0  0  0  0  0  0  0  0  0
    8.2109  -14.5815   20.5816 C   0  0  0  0  0  0  0  0  0  0  0  0
    7.3248  -13.9283   21.1871 O   0  0  0  0  0  0  0  0  0  0  0  0
    8.6071  -15.8470   21.0825 N   0  0  0  0  0  0  0  0  0  0  0  0
    7.9244  -16.3825   22.2647 C   0  0  1  0  0  0  0  0  0  0  0  0
    7.5553  -17.8175   22.0333 C   0  0  0  0  0  0  0  0  0  0  0  0
    6.9660  -18.4600   23.2430 C   0  0  0  0  0  0  0  0  0  0  0  0
    6.5839  -19.9160   22.9574 C   0  0  0  0  0  0  0  0  0  0  0  0
    5.7910  -20.4000   24.1519 C   0  0  0  0  0  0  0  0  0  0  0  0
    5.2315  -21.7116   23.9177 N   0  0  0  0  0  0  0  0  0  0  0  0
    8.7586  -16.2477   23.4595 C   0  0  0  0  0  0  0  0  0  0  0  0
    9.9818  -16.4584   23.4089 O   0  0  0  0  0  0  0  0  0  0  0  0
    8.2415  -15.8727   24.7430 N   0  0  0  0  0  0  0  0  0  0  0  0
    9.1371  -15.6249   25.8456 C   0  0  0  0  0  0  0  0  0  0  0  0
    9.4117  -16.8127   26.6580 C   0  0  0  0  0  0  0  0  0  0  0  0
    8.9161  -18.0321   26.2151 O   0  0  0  0  0  0  0  0  0  0  0  0
   10.0666  -16.7985   27.7292 O   0  0  0  0  0  0  0  0  0  0  0  0
  2  3  1  0
  2  1  1  1
  4  3  1  0
  5  2  1  0
  6  5  2  0
  7  5  1  0
  8  9  1  6
  8  7  1  0
 10  9  1  0
 11 12  1  0
 11 10  1  0
 13 12  1  0
 14  8  1  0
 14 15  2  0
 16 14  1  0
 17 18  1  0
 17 16  1  0
 18 19  1  0
 20 18  2  0
M  END
$$$$
