CKG.pdb
     RDKit          3D

 20 19  0  0  1  0  0  0  0  0999 V2000
    7.5551  -13.2115   18.6747 N   0  0  0  0  0  0  0  0  0  0  0  0
    8.5601  -13.9741   19.3504 C   0  0  1  0  0  0  0  0  0  0  0  0
    9.8549  -13.1757   19.4946 C   0  0  0  0  0  0  0  0  0  0  0  0
   10.8784  -13.3780   18.0288 S   0  0  0  0  0  0  0  0  0  0  0  0
    8.1133  -14.4033   20.7109 C   0  0  0  0  0  0  0  0  0  0  0  0
    7.5605  -13.5492   21.4481 O   0  0  0  0  0  0  0  0  0  0  0  0
    8.2907  -15.7256   21.1900 N   0  0  0  0  0  0  0  0  0  0  0  0
    7.8051  -16.0602   22.5326 C   0  0  1  0  0  0  0  0  0  0  0  0
    6.9210  -17.2698   22.4677 C   0  0  0  0  0  0  0  0  0  0  0  0
    5.6830  -17.0331   21.6710 C   0  0  0  0  0  0  0  0  0  0  0  0
    4.9097  -18.3389   21.4613 C   0  0  0  0  0  0  0  0  0  0  0  0
    3.6535  -17.9827   20.6967 C   0  0  0  0  0  0  0  0  0  0  0  0
    2.8305  -19.1470   20.4615 N   0  0  0  0  0  0  0  0  0  0  0  0
    8.9196  -16.2812   23.4548 C   0  0  0  0  0  0  0  0  0  0  0  0
    9.9685  -16.8226   23.0675 O   0  0  0  0  0  0  0  0  0  0  0  0
    8.8861  -15.9002   24.8365 N   0  0  0  0  0  0  0  0  0  0  0  0
   10.0495  -16.0773   25.6699 C   0  0  0  0  0  0  0  0  0  0  0  0
   10.1500  -17.4133   26.2626 C   0  0  0  0  0  0  0  0  0  0  0  0
   11.1741  -17.6460   27.1714 O   0  0  0  0  0  0  0  0  0  0  0  0
    9.3693  -18.3613   26.0012 O   0  0  0  0  0  0  0  0  0  0  0  0
  2  3  1  0
  2  1  1  1
  4  3  1  0
  5  2  1  0
  6  5  2  0
  7  5  1  0
  8  9  1  6
  8  7  1  0
 10  9  1  0
 11 12  1  0
 11 10  1  0
 13 12  1  0
 14  8  1  0
 14 15  2  0
 16 14  1  0
 17 18  1  0
 17 16  1  0
 18 19  1  0
 20 18  2  0
M  END
$$$$
