CKG.pdb
     RDKit          3D

 20 19  0  0  1  0  0  0  0  0999 V2000
    8.8170  -13.2276   18.3708 N   0  0  0  0  0  0  0  0  0  0  0  0
    9.3516  -14.1002   19.3713 C   0  0  1  0  0  0  0  0  0  0  0  0
   10.4246  -13.3969   20.2010 C   0  0  0  0  0  0  0  0  0  0  0  0
   11.9909  -13.3881   19.3157 S   0  0  0  0  0  0  0  0  0  0  0  0
    8.2905  -14.6035   20.2964 C   0  0  0  0  0  0  0  0  0  0  0  0
    7.3235  -13.8443   20.5552 O   0  0  0  0  0  0  0  0  0  0  0  0
    8.3394  -15.8929   20.8835 N   0  0  0  0  0  0  0  0  0  0  0  0
    7.2706  -16.2883   21.8063 C   0  0  1  0  0  0  0  0  0  0  0  0
    6.8684  -17.7086   21.5413 C   0  0  0  0  0  0  0  0  0  0  0  0
    5.8452  -18.2042   22.5060 C   0  0  0  0  0  0  0  0  0  0  0  0
    5.4703  -19.6591   22.2060 C   0  0  0  0  0  0  0  0  0  0  0  0
    4.4216  -20.0565   23.2217 C   0  0  0  0  0  0  0  0  0  0  0  0
    3.9781  -21.4167   23.0181 N   0  0  0  0  0  0  0  0  0  0  0  0
    7.6887  -16.1189   23.1985 C   0  0  0  0  0  0  0  0  0  0  0  0
    6.8842  -16.2878   24.1298 O   0  0  0  0  0  0  0  0  0  0  0  0
    9.0215  -15.7551   23.5819 N   0  0  0  0  0  0  0  0  0  0  0  0
    9.3955  -15.7202   24.9741 C   0  0  0  0  0  0  0  0  0  0  0  0
    9.9144  -16.9952   25.4754 C   0  0  0  0  0  0  0  0  0  0  0  0
   11.2578  -17.0592   25.8221 O   0  0  0  0  0  0  0  0  0  0  0  0
    9.2221  -18.0338   25.6115 O   0  0  0  0  0  0  0  0  0  0  0  0
  2  3  1  0
  2  1  1  6
  4  3  1  0
  5  2  1  0
  6  5  2  0
  7  5  1  0
  8  9  1  1
  8  7  1  0
 10  9  1  0
 11 12  1  0
 11 10  1  0
 13 12  1  0
 14  8  1  0
 14 15  2  0
 16 14  1  0
 17 18  1  0
 17 16  1  0
 18 19  1  0
 20 18  2  0
M  END
$$$$
