CKG.pdb
     RDKit          3D

 20 19  0  0  1  0  0  0  0  0999 V2000
    9.4925  -16.6870   19.3117 N   0  0  0  0  0  0  0  0  0  0  0  0
    9.3610  -17.3334   20.5818 C   0  0  1  0  0  0  0  0  0  0  0  0
    9.8969  -18.7634   20.5314 C   0  0  0  0  0  0  0  0  0  0  0  0
    9.1593  -19.7520   21.8412 S   0  0  0  0  0  0  0  0  0  0  0  0
   10.0840  -16.5936   21.6611 C   0  0  0  0  0  0  0  0  0  0  0  0
   11.1130  -15.9453   21.3459 O   0  0  0  0  0  0  0  0  0  0  0  0
    9.6517  -16.5996   23.0112 N   0  0  0  0  0  0  0  0  0  0  0  0
   10.4624  -15.9018   24.0142 C   0  0  1  0  0  0  0  0  0  0  0  0
    9.6254  -15.5909   25.2191 C   0  0  0  0  0  0  0  0  0  0  0  0
   10.4191  -14.9887   26.3286 C   0  0  0  0  0  0  0  0  0  0  0  0
    9.5322  -14.7094   27.5462 C   0  0  0  0  0  0  0  0  0  0  0  0
   10.4516  -14.2566   28.6594 C   0  0  0  0  0  0  0  0  0  0  0  0
    9.7088  -13.9110   29.8498 N   0  0  0  0  0  0  0  0  0  0  0  0
   11.6342  -16.6951   24.3874 C   0  0  0  0  0  0  0  0  0  0  0  0
   11.5050  -17.8020   24.9362 O   0  0  0  0  0  0  0  0  0  0  0  0
   12.9823  -16.2666   24.1541 N   0  0  0  0  0  0  0  0  0  0  0  0
   14.0912  -17.0767   24.5940 C   0  0  0  0  0  0  0  0  0  0  0  0
   15.3999  -16.5339   24.2211 C   0  0  0  0  0  0  0  0  0  0  0  0
   15.4293  -15.4141   23.4002 O   0  0  0  0  0  0  0  0  0  0  0  0
   16.4965  -17.0167   24.5965 O   0  0  0  0  0  0  0  0  0  0  0  0
  2  3  1  0
  2  1  1  6
  4  3  1  0
  5  2  1  0
  6  5  2  0
  7  5  1  0
  8  9  1  1
  8  7  1  0
 10  9  1  0
 11 12  1  0
 11 10  1  0
 13 12  1  0
 14  8  1  0
 14 15  2  0
 16 14  1  0
 17 18  1  0
 17 16  1  0
 18 19  1  0
 20 18  2  0
M  END
$$$$
