CKG.pdb
     RDKit          3D

 20 19  0  0  1  0  0  0  0  0999 V2000
   -4.9766  -19.7570   24.2178 N   0  0  0  0  0  0  0  0  0  0  0  0
   -3.6795  -20.3028   23.9574 C   0  0  1  0  0  0  0  0  0  0  0  0
   -2.7212  -19.2285   23.4454 C   0  0  0  0  0  0  0  0  0  0  0  0
   -3.2434  -18.6488   21.8242 S   0  0  0  0  0  0  0  0  0  0  0  0
   -3.0830  -20.9285   25.1771 C   0  0  0  0  0  0  0  0  0  0  0  0
   -3.0789  -20.2611   26.2416 O   0  0  0  0  0  0  0  0  0  0  0  0
   -2.5290  -22.2333   25.1717 N   0  0  0  0  0  0  0  0  0  0  0  0
   -1.9863  -22.7741   26.4220 C   0  0  1  0  0  0  0  0  0  0  0  0
   -2.6616  -24.0721   26.7510 C   0  0  0  0  0  0  0  0  0  0  0  0
   -3.4340  -24.0097   28.0250 C   0  0  0  0  0  0  0  0  0  0  0  0
   -4.6501  -23.0888   27.8824 C   0  0  0  0  0  0  0  0  0  0  0  0
   -5.3162  -23.0346   29.2399 C   0  0  0  0  0  0  0  0  0  0  0  0
   -6.4149  -22.0960   29.2517 N   0  0  0  0  0  0  0  0  0  0  0  0
   -0.5365  -22.9518   26.3323 C   0  0  0  0  0  0  0  0  0  0  0  0
    0.1024  -23.4547   27.2715 O   0  0  0  0  0  0  0  0  0  0  0  0
    0.2345  -22.5694   25.1856 N   0  0  0  0  0  0  0  0  0  0  0  0
    1.6492  -22.8437   25.1340 C   0  0  0  0  0  0  0  0  0  0  0  0
    1.9769  -24.1239   24.5015 C   0  0  0  0  0  0  0  0  0  0  0  0
    2.5262  -24.0972   23.2261 O   0  0  0  0  0  0  0  0  0  0  0  0
    1.7928  -25.2437   25.0389 O   0  0  0  0  0  0  0  0  0  0  0  0
  2  3  1  0
  2  1  1  1
  4  3  1  0
  5  2  1  0
  6  5  2  0
  7  5  1  0
  8  9  1  6
  8  7  1  0
 10  9  1  0
 11 12  1  0
 11 10  1  0
 13 12  1  0
 14  8  1  0
 14 15  2  0
 16 14  1  0
 17 18  1  0
 17 16  1  0
 18 19  1  0
 20 18  2  0
M  END
$$$$
