CKG.pdb
     RDKit          3D

 20 19  0  0  1  0  0  0  0  0999 V2000
    7.7290  -23.1251   24.0241 N   0  0  0  0  0  0  0  0  0  0  0  0
    6.8123  -22.1003   24.4212 C   0  0  1  0  0  0  0  0  0  0  0  0
    7.0407  -21.6883   25.8747 C   0  0  0  0  0  0  0  0  0  0  0  0
    8.5255  -20.6815   26.0112 S   0  0  0  0  0  0  0  0  0  0  0  0
    6.9286  -20.8841   23.5595 C   0  0  0  0  0  0  0  0  0  0  0  0
    7.9997  -20.7086   22.9266 O   0  0  0  0  0  0  0  0  0  0  0  0
    5.8832  -19.9349   23.4349 N   0  0  0  0  0  0  0  0  0  0  0  0
    6.0985  -18.7558   22.5902 C   0  0  1  0  0  0  0  0  0  0  0  0
    4.7789  -18.2071   22.1354 C   0  0  0  0  0  0  0  0  0  0  0  0
    4.0259  -19.1643   21.2751 C   0  0  0  0  0  0  0  0  0  0  0  0
    2.5695  -18.7194   21.1072 C   0  0  0  0  0  0  0  0  0  0  0  0
    1.8914  -19.7648   20.2489 C   0  0  0  0  0  0  0  0  0  0  0  0
    0.4872  -19.4728   20.0719 N   0  0  0  0  0  0  0  0  0  0  0  0
    6.8680  -17.7337   23.3006 C   0  0  0  0  0  0  0  0  0  0  0  0
    6.3528  -17.0708   24.2162 O   0  0  0  0  0  0  0  0  0  0  0  0
    8.2367  -17.4287   23.0018 N   0  0  0  0  0  0  0  0  0  0  0  0
    8.9187  -16.3719   23.7070 C   0  0  0  0  0  0  0  0  0  0  0  0
   10.3453  -16.2774   23.3873 C   0  0  0  0  0  0  0  0  0  0  0  0
   11.0859  -15.2795   24.0075 O   0  0  0  0  0  0  0  0  0  0  0  0
   10.9411  -17.0411   22.5883 O   0  0  0  0  0  0  0  0  0  0  0  0
  2  3  1  0
  2  1  1  6
  4  3  1  0
  5  2  1  0
  6  5  2  0
  7  5  1  0
  8  9  1  1
  8  7  1  0
 10  9  1  0
 11 12  1  0
 11 10  1  0
 13 12  1  0
 14  8  1  0
 14 15  2  0
 16 14  1  0
 17 18  1  0
 17 16  1  0
 18 19  1  0
 20 18  2  0
M  END
$$$$
