CKG.pdb
     RDKit          3D

 20 19  0  0  1  0  0  0  0  0999 V2000
    8.7996  -16.9933   18.5621 N   0  0  0  0  0  0  0  0  0  0  0  0
    8.1006  -17.2844   19.7765 C   0  0  1  0  0  0  0  0  0  0  0  0
    8.2645  -18.7517   20.1697 C   0  0  0  0  0  0  0  0  0  0  0  0
    6.6802  -19.6004   20.0850 S   0  0  0  0  0  0  0  0  0  0  0  0
    8.5754  -16.4335   20.9104 C   0  0  0  0  0  0  0  0  0  0  0  0
    9.7928  -16.1255   20.9486 O   0  0  0  0  0  0  0  0  0  0  0  0
    7.7077  -15.9689   21.9306 N   0  0  0  0  0  0  0  0  0  0  0  0
    8.2658  -15.1517   23.0127 C   0  0  1  0  0  0  0  0  0  0  0  0
    7.1556  -14.5202   23.7986 C   0  0  0  0  0  0  0  0  0  0  0  0
    7.6561  -13.6091   24.8677 C   0  0  0  0  0  0  0  0  0  0  0  0
    6.4926  -12.9201   25.5879 C   0  0  0  0  0  0  0  0  0  0  0  0
    7.1050  -11.9604   26.5845 C   0  0  0  0  0  0  0  0  0  0  0  0
    6.0966  -11.3602   27.4278 N   0  0  0  0  0  0  0  0  0  0  0  0
    9.1283  -15.9510   23.8838 C   0  0  0  0  0  0  0  0  0  0  0  0
    8.6531  -16.8456   24.6028 O   0  0  0  0  0  0  0  0  0  0  0  0
   10.5475  -15.7670   23.9707 N   0  0  0  0  0  0  0  0  0  0  0  0
   11.3251  -16.5307   24.9148 C   0  0  0  0  0  0  0  0  0  0  0  0
   12.7385  -16.1474   24.9583 C   0  0  0  0  0  0  0  0  0  0  0  0
   13.5509  -16.7650   25.9004 O   0  0  0  0  0  0  0  0  0  0  0  0
   13.2620  -15.2962   24.1982 O   0  0  0  0  0  0  0  0  0  0  0  0
  2  3  1  0
  2  1  1  6
  4  3  1  0
  5  2  1  0
  6  5  2  0
  7  5  1  0
  8  9  1  1
  8  7  1  0
 10  9  1  0
 11 12  1  0
 11 10  1  0
 13 12  1  0
 14  8  1  0
 14 15  2  0
 16 14  1  0
 17 18  1  0
 17 16  1  0
 18 19  1  0
 20 18  2  0
M  END
$$$$
