CKG.pdb
     RDKit          3D

 20 19  0  0  1  0  0  0  0  0999 V2000
    5.9601  -14.0168   19.9061 N   0  0  0  0  0  0  0  0  0  0  0  0
    7.2597  -14.3263   20.4195 C   0  0  1  0  0  0  0  0  0  0  0  0
    8.1708  -13.1000   20.3911 C   0  0  0  0  0  0  0  0  0  0  0  0
    8.3894  -12.5248   18.7004 S   0  0  0  0  0  0  0  0  0  0  0  0
    7.1971  -14.8385   21.8226 C   0  0  0  0  0  0  0  0  0  0  0  0
    6.4864  -14.2134   22.6487 O   0  0  0  0  0  0  0  0  0  0  0  0
    7.9045  -15.9919   22.2456 N   0  0  0  0  0  0  0  0  0  0  0  0
    7.7287  -16.4607   23.6238 C   0  0  1  0  0  0  0  0  0  0  0  0
    7.2817  -17.8923   23.6218 C   0  0  0  0  0  0  0  0  0  0  0  0
    5.9990  -18.0912   22.8881 C   0  0  0  0  0  0  0  0  0  0  0  0
    5.6245  -19.5759   22.8343 C   0  0  0  0  0  0  0  0  0  0  0  0
    4.3188  -19.6680   22.0754 C   0  0  0  0  0  0  0  0  0  0  0  0
    3.8582  -21.0345   21.9812 N   0  0  0  0  0  0  0  0  0  0  0  0
    8.9632  -16.3039   24.3939 C   0  0  0  0  0  0  0  0  0  0  0  0
    9.0136  -16.6349   25.5902 O   0  0  0  0  0  0  0  0  0  0  0  0
   10.1741  -15.7713   23.8411 N   0  0  0  0  0  0  0  0  0  0  0  0
   11.3280  -15.5617   24.6801 C   0  0  0  0  0  0  0  0  0  0  0  0
   12.2115  -16.7272   24.7661 C   0  0  0  0  0  0  0  0  0  0  0  0
   13.5682  -16.5017   24.9603 O   0  0  0  0  0  0  0  0  0  0  0  0
   11.8204  -17.9169   24.6755 O   0  0  0  0  0  0  0  0  0  0  0  0
  2  3  1  0
  2  1  1  1
  4  3  1  0
  5  2  1  0
  6  5  2  0
  7  5  1  0
  8  9  1  6
  8  7  1  0
 10  9  1  0
 11 12  1  0
 11 10  1  0
 13 12  1  0
 14  8  1  0
 14 15  2  0
 16 14  1  0
 17 18  1  0
 17 16  1  0
 18 19  1  0
 20 18  2  0
M  END
$$$$
