CKG.pdb
     RDKit          3D

 20 19  0  0  1  0  0  0  0  0999 V2000
    6.1018  -14.4960   20.1286 N   0  0  0  0  0  0  0  0  0  0  0  0
    7.5238  -14.6312   20.0391 C   0  0  1  0  0  0  0  0  0  0  0  0
    8.2074  -13.2650   20.0108 C   0  0  0  0  0  0  0  0  0  0  0  0
    7.6946  -12.3415   18.5544 S   0  0  0  0  0  0  0  0  0  0  0  0
    8.0818  -15.4175   21.1816 C   0  0  0  0  0  0  0  0  0  0  0  0
    7.5647  -15.2601   22.3157 O   0  0  0  0  0  0  0  0  0  0  0  0
    9.1616  -16.3233   21.0288 N   0  0  0  0  0  0  0  0  0  0  0  0
    9.6138  -17.0848   22.1975 C   0  0  1  0  0  0  0  0  0  0  0  0
    9.8410  -18.5171   21.8153 C   0  0  0  0  0  0  0  0  0  0  0  0
    8.5764  -19.2238   21.4623 C   0  0  0  0  0  0  0  0  0  0  0  0
    7.8509  -19.7082   22.7218 C   0  0  0  0  0  0  0  0  0  0  0  0
    6.5615  -20.3520   22.2606 C   0  0  0  0  0  0  0  0  0  0  0  0
    5.7351  -20.7400   23.3808 N   0  0  0  0  0  0  0  0  0  0  0  0
   10.8287  -16.5010   22.7674 C   0  0  0  0  0  0  0  0  0  0  0  0
   11.5848  -15.8013   22.0732 O   0  0  0  0  0  0  0  0  0  0  0  0
   11.2268  -16.6874   24.1320 N   0  0  0  0  0  0  0  0  0  0  0  0
   12.4151  -16.0465   24.6386 C   0  0  0  0  0  0  0  0  0  0  0  0
   12.6267  -16.2511   26.0738 C   0  0  0  0  0  0  0  0  0  0  0  0
   13.7813  -15.7284   26.6417 O   0  0  0  0  0  0  0  0  0  0  0  0
   11.8308  -16.8688   26.8230 O   0  0  0  0  0  0  0  0  0  0  0  0
  2  3  1  0
  2  1  1  1
  4  3  1  0
  5  2  1  0
  6  5  2  0
  7  5  1  0
  8  9  1  6
  8  7  1  0
 10  9  1  0
 11 12  1  0
 11 10  1  0
 13 12  1  0
 14  8  1  0
 14 15  2  0
 16 14  1  0
 17 18  1  0
 17 16  1  0
 18 19  1  0
 20 18  2  0
M  END
$$$$
