CKG.pdb
     RDKit          3D

 20 19  0  0  1  0  0  0  0  0999 V2000
    5.8754  -16.1440   21.4973 N   0  0  0  0  0  0  0  0  0  0  0  0
    6.9123  -16.4441   22.4369 C   0  0  1  0  0  0  0  0  0  0  0  0
    7.4342  -15.1741   23.1073 C   0  0  0  0  0  0  0  0  0  0  0  0
    8.1380  -14.0646   21.8781 S   0  0  0  0  0  0  0  0  0  0  0  0
    6.4451  -17.3846   23.5009 C   0  0  0  0  0  0  0  0  0  0  0  0
    5.3268  -17.1684   24.0312 O   0  0  0  0  0  0  0  0  0  0  0  0
    7.2130  -18.4980   23.9255 N   0  0  0  0  0  0  0  0  0  0  0  0
    6.7083  -19.3235   25.0273 C   0  0  1  0  0  0  0  0  0  0  0  0
    6.8079  -20.7750   24.6633 C   0  0  0  0  0  0  0  0  0  0  0  0
    5.5334  -21.3160   24.1099 C   0  0  0  0  0  0  0  0  0  0  0  0
    5.3542  -20.9026   22.6455 C   0  0  0  0  0  0  0  0  0  0  0  0
    4.0576  -21.5237   22.1737 C   0  0  0  0  0  0  0  0  0  0  0  0
    3.8247  -21.2589   20.7723 N   0  0  0  0  0  0  0  0  0  0  0  0
    7.4364  -19.0484   26.2666 C   0  0  0  0  0  0  0  0  0  0  0  0
    7.2648  -19.7526   27.2754 O   0  0  0  0  0  0  0  0  0  0  0  0
    8.3768  -17.9752   26.4059 N   0  0  0  0  0  0  0  0  0  0  0  0
    9.1106  -17.8040   27.6354 C   0  0  0  0  0  0  0  0  0  0  0  0
   10.2754  -18.6849   27.7522 C   0  0  0  0  0  0  0  0  0  0  0  0
   11.0466  -18.5938   28.9036 O   0  0  0  0  0  0  0  0  0  0  0  0
   10.6208  -19.5170   26.8776 O   0  0  0  0  0  0  0  0  0  0  0  0
  2  3  1  0
  2  1  1  6
  4  3  1  0
  5  2  1  0
  6  5  2  0
  7  5  1  0
  8  9  1  6
  8  7  1  0
 10  9  1  0
 11 12  1  0
 11 10  1  0
 13 12  1  0
 14  8  1  0
 14 15  2  0
 16 14  1  0
 17 18  1  0
 17 16  1  0
 18 19  1  0
 20 18  2  0
M  END
$$$$
