CKG.pdb
     RDKit          3D

 20 19  0  0  1  0  0  0  0  0999 V2000
    3.2044  -18.7188   20.3402 N   0  0  0  0  0  0  0  0  0  0  0  0
    4.4963  -18.4939   20.9136 C   0  0  1  0  0  0  0  0  0  0  0  0
    4.9246  -17.0359   20.7543 C   0  0  0  0  0  0  0  0  0  0  0  0
    5.4564  -16.7236   19.0641 S   0  0  0  0  0  0  0  0  0  0  0  0
    4.5291  -18.8419   22.3672 C   0  0  0  0  0  0  0  0  0  0  0  0
    3.5197  -18.5679   23.0633 O   0  0  0  0  0  0  0  0  0  0  0  0
    5.6476  -19.4631   22.9776 N   0  0  0  0  0  0  0  0  0  0  0  0
    5.5764  -19.7994   24.4031 C   0  0  1  0  0  0  0  0  0  0  0  0
    5.5791  -21.2891   24.5757 C   0  0  0  0  0  0  0  0  0  0  0  0
    4.2621  -21.9066   24.2476 C   0  0  0  0  0  0  0  0  0  0  0  0
    4.3413  -23.4349   24.3213 C   0  0  0  0  0  0  0  0  0  0  0  0
    2.9507  -23.9570   24.0327 C   0  0  0  0  0  0  0  0  0  0  0  0
    2.9444  -25.3958   23.8985 N   0  0  0  0  0  0  0  0  0  0  0  0
    6.6820  -19.1896   25.1429 C   0  0  0  0  0  0  0  0  0  0  0  0
    7.8242  -19.1429   24.6566 O   0  0  0  0  0  0  0  0  0  0  0  0
    6.5345  -18.6159   26.4485 N   0  0  0  0  0  0  0  0  0  0  0  0
    7.6477  -17.9561   27.0848 C   0  0  0  0  0  0  0  0  0  0  0  0
    8.5004  -18.8595   27.8615 C   0  0  0  0  0  0  0  0  0  0  0  0
    9.4634  -18.2946   28.6876 O   0  0  0  0  0  0  0  0  0  0  0  0
    8.4160  -20.1118   27.8279 O   0  0  0  0  0  0  0  0  0  0  0  0
  2  3  1  0
  2  1  1  1
  4  3  1  0
  5  2  1  0
  6  5  2  0
  7  5  1  0
  8  9  1  6
  8  7  1  0
 10  9  1  0
 11 12  1  0
 11 10  1  0
 13 12  1  0
 14  8  1  0
 14 15  2  0
 16 14  1  0
 17 18  1  0
 17 16  1  0
 18 19  1  0
 20 18  2  0
M  END
$$$$
