CKG.pdb
     RDKit          3D

 20 19  0  0  1  0  0  0  0  0999 V2000
    6.9764  -12.4481   18.7292 N   0  0  0  0  0  0  0  0  0  0  0  0
    7.5578  -13.7558   18.7177 C   0  0  1  0  0  0  0  0  0  0  0  0
    8.7962  -13.8015   17.8239 C   0  0  0  0  0  0  0  0  0  0  0  0
    9.5464  -15.4358   17.8812 S   0  0  0  0  0  0  0  0  0  0  0  0
    7.9461  -14.2051   20.0898 C   0  0  0  0  0  0  0  0  0  0  0  0
    8.5174  -13.3776   20.8429 O   0  0  0  0  0  0  0  0  0  0  0  0
    7.6938  -15.5176   20.5624 N   0  0  0  0  0  0  0  0  0  0  0  0
    8.0561  -15.8514   21.9435 C   0  0  1  0  0  0  0  0  0  0  0  0
    7.3567  -17.1098   22.3636 C   0  0  0  0  0  0  0  0  0  0  0  0
    7.8121  -17.6013   23.6957 C   0  0  0  0  0  0  0  0  0  0  0  0
    7.1949  -18.9668   24.0148 C   0  0  0  0  0  0  0  0  0  0  0  0
    7.7111  -19.3695   25.3789 C   0  0  0  0  0  0  0  0  0  0  0  0
    7.1322  -20.6199   25.8145 N   0  0  0  0  0  0  0  0  0  0  0  0
    9.5057  -15.9909   22.0875 C   0  0  0  0  0  0  0  0  0  0  0  0
   10.1560  -16.7120   21.3127 O   0  0  0  0  0  0  0  0  0  0  0  0
   10.2638  -15.3243   23.1056 N   0  0  0  0  0  0  0  0  0  0  0  0
   11.7050  -15.3718   23.0900 C   0  0  0  0  0  0  0  0  0  0  0  0
   12.2639  -16.5006   23.8381 C   0  0  0  0  0  0  0  0  0  0  0  0
   13.6435  -16.5637   23.9853 O   0  0  0  0  0  0  0  0  0  0  0  0
   11.5752  -17.4147   24.3545 O   0  0  0  0  0  0  0  0  0  0  0  0
  2  3  1  0
  2  1  1  1
  4  3  1  0
  5  2  1  0
  6  5  2  0
  7  5  1  0
  8  9  1  6
  8  7  1  0
 10  9  1  0
 11 12  1  0
 11 10  1  0
 13 12  1  0
 14  8  1  0
 14 15  2  0
 16 14  1  0
 17 18  1  0
 17 16  1  0
 18 19  1  0
 20 18  2  0
M  END
$$$$
