CKG.pdb
     RDKit          3D

 20 19  0  0  1  0  0  0  0  0999 V2000
    6.5710  -14.3271   20.5048 N   0  0  0  0  0  0  0  0  0  0  0  0
    7.9046  -14.8169   20.3323 C   0  0  1  0  0  0  0  0  0  0  0  0
    8.8772  -13.6767   20.0344 C   0  0  0  0  0  0  0  0  0  0  0  0
    8.4901  -12.9264   18.4456 S   0  0  0  0  0  0  0  0  0  0  0  0
    8.3896  -15.5504   21.5414 C   0  0  0  0  0  0  0  0  0  0  0  0
    8.1649  -15.0444   22.6691 O   0  0  0  0  0  0  0  0  0  0  0  0
    9.0857  -16.7825   21.4577 N   0  0  0  0  0  0  0  0  0  0  0  0
    9.5692  -17.4045   22.6944 C   0  0  1  0  0  0  0  0  0  0  0  0
    8.8442  -18.6955   22.9326 C   0  0  0  0  0  0  0  0  0  0  0  0
    7.3630  -18.5252   22.9562 C   0  0  0  0  0  0  0  0  0  0  0  0
    6.6620  -19.8675   23.1885 C   0  0  0  0  0  0  0  0  0  0  0  0
    5.1743  -19.5952   23.1422 C   0  0  0  0  0  0  0  0  0  0  0  0
    4.4103  -20.8171   23.2496 N   0  0  0  0  0  0  0  0  0  0  0  0
   11.0152  -17.6238   22.6420 C   0  0  0  0  0  0  0  0  0  0  0  0
   11.4809  -18.7661   22.4961 O   0  0  0  0  0  0  0  0  0  0  0  0
   11.9768  -16.5660   22.7522 N   0  0  0  0  0  0  0  0  0  0  0  0
   13.2822  -16.8227   23.3084 C   0  0  0  0  0  0  0  0  0  0  0  0
   14.2180  -15.7066   23.1504 C   0  0  0  0  0  0  0  0  0  0  0  0
   13.8118  -14.6208   22.3856 O   0  0  0  0  0  0  0  0  0  0  0  0
   15.3639  -15.6693   23.6623 O   0  0  0  0  0  0  0  0  0  0  0  0
  2  3  1  0
  2  1  1  1
  4  3  1  0
  5  2  1  0
  6  5  2  0
  7  5  1  0
  8  9  1  6
  8  7  1  0
 10  9  1  0
 11 12  1  0
 11 10  1  0
 13 12  1  0
 14  8  1  0
 14 15  2  0
 16 14  1  0
 17 18  1  0
 17 16  1  0
 18 19  1  0
 20 18  2  0
M  END
$$$$
