CKG.pdb
     RDKit          3D

 20 19  0  0  1  0  0  0  0  0999 V2000
    5.6238  -18.4456   23.5944 N   0  0  0  0  0  0  0  0  0  0  0  0
    6.1835  -17.2027   24.0304 C   0  0  1  0  0  0  0  0  0  0  0  0
    6.7886  -17.3297   25.4277 C   0  0  0  0  0  0  0  0  0  0  0  0
    6.8423  -15.7214   26.2323 S   0  0  0  0  0  0  0  0  0  0  0  0
    7.2431  -16.7109   23.0975 C   0  0  0  0  0  0  0  0  0  0  0  0
    7.9813  -17.5615   22.5406 O   0  0  0  0  0  0  0  0  0  0  0  0
    7.4394  -15.3338   22.8242 N   0  0  0  0  0  0  0  0  0  0  0  0
    8.5719  -14.9367   21.9816 C   0  0  1  0  0  0  0  0  0  0  0  0
    8.3778  -13.5308   21.4970 C   0  0  0  0  0  0  0  0  0  0  0  0
    7.5916  -13.4639   20.2318 C   0  0  0  0  0  0  0  0  0  0  0  0
    8.4922  -13.7012   19.0152 C   0  0  0  0  0  0  0  0  0  0  0  0
    7.6238  -13.5213   17.7893 C   0  0  0  0  0  0  0  0  0  0  0  0
    8.3342  -13.8771   16.5823 N   0  0  0  0  0  0  0  0  0  0  0  0
    9.8368  -15.0656   22.7061 C   0  0  0  0  0  0  0  0  0  0  0  0
    9.9553  -14.6281   23.8627 O   0  0  0  0  0  0  0  0  0  0  0  0
   11.0024  -15.6892   22.1512 N   0  0  0  0  0  0  0  0  0  0  0  0
   12.2267  -15.7523   22.9104 C   0  0  0  0  0  0  0  0  0  0  0  0
   13.3614  -16.2856   22.1524 C   0  0  0  0  0  0  0  0  0  0  0  0
   14.6241  -16.1973   22.7240 O   0  0  0  0  0  0  0  0  0  0  0  0
   13.2650  -16.8172   21.0191 O   0  0  0  0  0  0  0  0  0  0  0  0
  2  3  1  0
  2  1  1  6
  4  3  1  0
  5  2  1  0
  6  5  2  0
  7  5  1  0
  8  9  1  1
  8  7  1  0
 10  9  1  0
 11 12  1  0
 11 10  1  0
 13 12  1  0
 14  8  1  0
 14 15  2  0
 16 14  1  0
 17 18  1  0
 17 16  1  0
 18 19  1  0
 20 18  2  0
M  END
$$$$
