CKG.pdb
     RDKit          3D

 20 19  0  0  1  0  0  0  0  0999 V2000
    5.9595  -14.2547   19.8415 N   0  0  0  0  0  0  0  0  0  0  0  0
    7.2595  -14.4192   20.4169 C   0  0  1  0  0  0  0  0  0  0  0  0
    8.0179  -13.0933   20.4556 C   0  0  0  0  0  0  0  0  0  0  0  0
    9.6743  -13.3415   21.1127 S   0  0  0  0  0  0  0  0  0  0  0  0
    7.1887  -14.9660   21.8065 C   0  0  0  0  0  0  0  0  0  0  0  0
    6.3928  -14.4254   22.6144 O   0  0  0  0  0  0  0  0  0  0  0  0
    7.9803  -16.0605   22.2367 N   0  0  0  0  0  0  0  0  0  0  0  0
    7.7490  -16.6153   23.5742 C   0  0  1  0  0  0  0  0  0  0  0  0
    7.3056  -18.0437   23.4635 C   0  0  0  0  0  0  0  0  0  0  0  0
    5.9047  -18.1723   22.9693 C   0  0  0  0  0  0  0  0  0  0  0  0
    5.5211  -19.6448   22.7905 C   0  0  0  0  0  0  0  0  0  0  0  0
    4.0671  -19.6679   22.3722 C   0  0  0  0  0  0  0  0  0  0  0  0
    3.5984  -21.0193   22.1664 N   0  0  0  0  0  0  0  0  0  0  0  0
    8.9505  -16.5079   24.4027 C   0  0  0  0  0  0  0  0  0  0  0  0
   10.0757  -16.7264   23.9237 O   0  0  0  0  0  0  0  0  0  0  0  0
    8.9205  -16.1524   25.7913 N   0  0  0  0  0  0  0  0  0  0  0  0
    8.6744  -17.1572   26.7959 C   0  0  0  0  0  0  0  0  0  0  0  0
    9.8926  -17.7996   27.2954 C   0  0  0  0  0  0  0  0  0  0  0  0
   10.3800  -17.3966   28.5319 O   0  0  0  0  0  0  0  0  0  0  0  0
   10.5240  -18.6914   26.6769 O   0  0  0  0  0  0  0  0  0  0  0  0
  2  3  1  0
  2  1  1  1
  4  3  1  0
  5  2  1  0
  6  5  2  0
  7  5  1  0
  8  9  1  6
  8  7  1  0
 10  9  1  0
 11 12  1  0
 11 10  1  0
 13 12  1  0
 14  8  1  0
 14 15  2  0
 16 14  1  0
 17 18  1  0
 17 16  1  0
 18 19  1  0
 20 18  2  0
M  END
$$$$
