CKG.pdb
     RDKit          3D

 20 19  0  0  1  0  0  0  0  0999 V2000
    5.2771  -17.8026   20.0012 N   0  0  0  0  0  0  0  0  0  0  0  0
    5.4951  -19.2150   20.0770 C   0  0  1  0  0  0  0  0  0  0  0  0
    6.6840  -19.6371   19.2150 C   0  0  0  0  0  0  0  0  0  0  0  0
    6.4650  -19.0595   17.5252 S   0  0  0  0  0  0  0  0  0  0  0  0
    5.7427  -19.6662   21.4806 C   0  0  0  0  0  0  0  0  0  0  0  0
    6.1970  -18.8282   22.2991 O   0  0  0  0  0  0  0  0  0  0  0  0
    5.4851  -20.9916   21.9124 N   0  0  0  0  0  0  0  0  0  0  0  0
    5.7474  -21.3407   23.3122 C   0  0  1  0  0  0  0  0  0  0  0  0
    4.9118  -22.5214   23.7080 C   0  0  0  0  0  0  0  0  0  0  0  0
    5.1614  -22.9554   25.1125 C   0  0  0  0  0  0  0  0  0  0  0  0
    4.2539  -24.1303   25.4912 C   0  0  0  0  0  0  0  0  0  0  0  0
    4.6021  -24.5078   26.9145 C   0  0  0  0  0  0  0  0  0  0  0  0
    3.7954  -25.6127   27.3800 N   0  0  0  0  0  0  0  0  0  0  0  0
    7.1686  -21.6154   23.5279 C   0  0  0  0  0  0  0  0  0  0  0  0
    7.7882  -22.3891   22.7792 O   0  0  0  0  0  0  0  0  0  0  0  0
    7.9318  -21.0285   24.5902 N   0  0  0  0  0  0  0  0  0  0  0  0
    9.3506  -21.2674   24.6866 C   0  0  0  0  0  0  0  0  0  0  0  0
    9.9777  -20.6238   25.8437 C   0  0  0  0  0  0  0  0  0  0  0  0
   11.3385  -20.8210   26.0391 O   0  0  0  0  0  0  0  0  0  0  0  0
    9.3632  -19.9053   26.6700 O   0  0  0  0  0  0  0  0  0  0  0  0
  2  3  1  0
  2  1  1  1
  4  3  1  0
  5  2  1  0
  6  5  2  0
  7  5  1  0
  8  9  1  6
  8  7  1  0
 10  9  1  0
 11 12  1  0
 11 10  1  0
 13 12  1  0
 14  8  1  0
 14 15  2  0
 16 14  1  0
 17 18  1  0
 17 16  1  0
 18 19  1  0
 20 18  2  0
M  END
$$$$
