YMW.pdb
     RDKit          3D

 35 37  0  0  1  0  0  0  0  0999 V2000
    8.1659  -12.8940   14.4858 O   0  0  0  0  0  0  0  0  0  0  0  0
    7.8384  -13.4417   15.7157 C   0  0  0  0  0  0  0  0  0  0  0  0
    7.9231  -12.6551   16.8367 C   0  0  0  0  0  0  0  0  0  0  0  0
    7.6137  -13.1408   18.0776 C   0  0  0  0  0  0  0  0  0  0  0  0
    7.2015  -14.4583   18.2380 C   0  0  0  0  0  0  0  0  0  0  0  0
    6.8743  -14.9747   19.6016 C   0  0  0  0  0  0  0  0  0  0  0  0
    8.1738  -15.4771   20.1879 C   0  0  2  0  0  0  0  0  0  0  0  0
    8.6475  -16.5033   19.2733 N   0  0  0  0  0  0  0  0  0  0  0  0
    8.0430  -15.9757   21.5654 C   0  0  0  0  0  0  0  0  0  0  0  0
    7.6414  -15.2530   22.5364 O   0  0  0  0  0  0  0  0  0  0  0  0
    7.1192  -15.2332   17.1163 C   0  0  0  0  0  0  0  0  0  0  0  0
    7.4319  -14.7327   15.8792 C   0  0  0  0  0  0  0  0  0  0  0  0
    5.4592  -20.6190   23.8227 C   0  0  0  0  0  0  0  0  0  0  0  0
    6.5719  -20.3032   25.2403 S   0  0  0  0  0  0  0  0  0  0  0  0
    8.2491  -19.9337   24.5873 C   0  0  0  0  0  0  0  0  0  0  0  0
    8.1700  -19.3651   23.2106 C   0  0  0  0  0  0  0  0  0  0  0  0
    8.3990  -17.8975   23.1796 C   0  0  2  0  0  0  0  0  0  0  0  0
    8.3869  -17.3487   21.8176 N   0  0  0  0  0  0  0  0  0  0  0  0
    9.4938  -17.3669   24.0012 C   0  0  0  0  0  0  0  0  0  0  0  0
   10.6753  -17.5807   23.7169 O   0  0  0  0  0  0  0  0  0  0  0  0
    9.2128  -16.5943   25.1431 N   0  0  0  0  0  0  0  0  0  0  0  0
   10.1937  -16.1386   26.1149 C   0  0  1  0  0  0  0  0  0  0  0  0
    9.8728  -14.6959   26.4214 C   0  0  0  0  0  0  0  0  0  0  0  0
    8.4229  -14.4012   26.2489 C   0  0  0  0  0  0  0  0  0  0  0  0
    7.3383  -15.2504   26.2938 C   0  0  0  0  0  0  0  0  0  0  0  0
    6.2119  -14.5483   26.0893 N   0  0  0  0  0  0  0  0  0  0  0  0
    6.5074  -13.2479   25.9050 C   0  0  0  0  0  0  0  0  0  0  0  0
    5.7002  -12.1596   25.6529 C   0  0  0  0  0  0  0  0  0  0  0  0
    6.3225  -10.9424   25.4993 C   0  0  0  0  0  0  0  0  0  0  0  0
    7.7037  -10.7984   25.5912 C   0  0  0  0  0  0  0  0  0  0  0  0
    8.4723  -11.9085   25.8431 C   0  0  0  0  0  0  0  0  0  0  0  0
    7.8808  -13.1424   26.0020 C   0  0  0  0  0  0  0  0  0  0  0  0
   10.1736  -16.9832   27.3326 C   0  0  0  0  0  0  0  0  0  0  0  0
    9.1639  -17.9536   27.4417 O   0  0  0  0  0  0  0  0  0  0  0  0
   10.9913  -16.8881   28.2696 O   0  0  0  0  0  0  0  0  0  0  0  0
  2  1  1  0
  3  2  2  0
  4  3  1  0
  5  4  2  0
  5 11  1  0
  6  7  1  0
  6  5  1  0
  7  8  1  6
  9  7  1  0
 10  9  2  0
 11 12  2  0
 12  2  1  0
 14 13  1  0
 14 15  1  0
 15 16  1  0
 17 16  1  6
 17 19  1  0
 17 18  1  0
 18  9  1  0
 19 21  1  0
 20 19  2  0
 21 22  1  0
 22 23  1  1
 22 33  1  0
 24 23  1  0
 25 24  2  0
 26 25  1  0
 27 26  1  0
 27 32  2  0
 28 27  1  0
 29 28  2  0
 29 30  1  0
 30 31  2  0
 31 32  1  0
 32 24  1  0
 33 35  2  0
 33 34  1  0
M  END
$$$$
