YMW.pdb
     RDKit          3D

 35 37  0  0  1  0  0  0  0  0999 V2000
    8.3065  -25.6089   22.2788 O   0  0  0  0  0  0  0  0  0  0  0  0
    8.7342  -24.2936   22.1965 C   0  0  0  0  0  0  0  0  0  0  0  0
    8.0251  -23.3221   22.8567 C   0  0  0  0  0  0  0  0  0  0  0  0
    8.3986  -22.0068   22.8112 C   0  0  0  0  0  0  0  0  0  0  0  0
    9.5181  -21.6150   22.0867 C   0  0  0  0  0  0  0  0  0  0  0  0
    9.9078  -20.1731   22.0417 C   0  0  0  0  0  0  0  0  0  0  0  0
    9.0666  -19.5400   20.9571 C   0  0  2  0  0  0  0  0  0  0  0  0
    9.5067  -20.1485   19.7121 N   0  0  0  0  0  0  0  0  0  0  0  0
    9.1587  -18.0725   20.9232 C   0  0  0  0  0  0  0  0  0  0  0  0
   10.1261  -17.4440   20.3793 O   0  0  0  0  0  0  0  0  0  0  0  0
   10.2181  -22.5892   21.4338 C   0  0  0  0  0  0  0  0  0  0  0  0
    9.8323  -23.9032   21.4888 C   0  0  0  0  0  0  0  0  0  0  0  0
    9.1217  -12.6278   19.7474 C   0  0  0  0  0  0  0  0  0  0  0  0
    7.3653  -13.1249   19.6236 S   0  0  0  0  0  0  0  0  0  0  0  0
    6.8270  -13.7579   21.2623 C   0  0  0  0  0  0  0  0  0  0  0  0
    6.7956  -15.2492   21.2718 C   0  0  0  0  0  0  0  0  0  0  0  0
    8.1211  -15.8513   21.5677 C   0  0  2  0  0  0  0  0  0  0  0  0
    8.0986  -17.3192   21.5363 N   0  0  0  0  0  0  0  0  0  0  0  0
    8.8670  -15.3141   22.7123 C   0  0  0  0  0  0  0  0  0  0  0  0
    9.0883  -14.1058   22.8279 O   0  0  0  0  0  0  0  0  0  0  0  0
    9.3496  -16.1783   23.7123 N   0  0  0  0  0  0  0  0  0  0  0  0
   10.1420  -15.7762   24.8634 C   0  0  1  0  0  0  0  0  0  0  0  0
    9.2572  -15.9174   26.0781 C   0  0  0  0  0  0  0  0  0  0  0  0
    8.0030  -15.1246   25.9464 C   0  0  0  0  0  0  0  0  0  0  0  0
    6.7202  -15.5426   25.6653 C   0  0  0  0  0  0  0  0  0  0  0  0
    5.8973  -14.4814   25.6497 N   0  0  0  0  0  0  0  0  0  0  0  0
    6.5912  -13.3575   25.9104 C   0  0  0  0  0  0  0  0  0  0  0  0
    6.1916  -12.0408   25.9892 C   0  0  0  0  0  0  0  0  0  0  0  0
    7.1643  -11.1083   26.2664 C   0  0  0  0  0  0  0  0  0  0  0  0
    8.4964  -11.4611   26.4611 C   0  0  0  0  0  0  0  0  0  0  0  0
    8.8531  -12.7846   26.3733 C   0  0  0  0  0  0  0  0  0  0  0  0
    7.9036  -13.7437   26.0971 C   0  0  0  0  0  0  0  0  0  0  0  0
   11.3747  -16.5912   24.9761 C   0  0  0  0  0  0  0  0  0  0  0  0
   11.5442  -17.6534   24.0727 O   0  0  0  0  0  0  0  0  0  0  0  0
   12.2712  -16.3994   25.8218 O   0  0  0  0  0  0  0  0  0  0  0  0
  2  1  1  0
  3  2  2  0
  4  3  1  0
  5  4  2  0
  5 11  1  0
  6  7  1  0
  6  5  1  0
  7  8  1  6
  9  7  1  0
 10  9  2  0
 11 12  2  0
 12  2  1  0
 14 13  1  0
 14 15  1  0
 15 16  1  0
 17 16  1  1
 17 19  1  0
 17 18  1  0
 18  9  1  0
 19 21  1  0
 20 19  2  0
 21 22  1  0
 22 23  1  1
 22 33  1  0
 24 23  1  0
 25 24  2  0
 26 25  1  0
 27 26  1  0
 27 32  2  0
 28 27  1  0
 29 28  2  0
 29 30  1  0
 30 31  2  0
 31 32  1  0
 32 24  1  0
 33 35  2  0
 33 34  1  0
M  END
$$$$
