YMW.pdb
     RDKit          3D

 35 37  0  0  1  0  0  0  0  0999 V2000
   11.1716  -25.4725   19.1247 O   0  0  0  0  0  0  0  0  0  0  0  0
   11.2364  -24.2148   19.7024 C   0  0  0  0  0  0  0  0  0  0  0  0
   10.0690  -23.5783   20.0407 C   0  0  0  0  0  0  0  0  0  0  0  0
   10.0704  -22.3355   20.6127 C   0  0  0  0  0  0  0  0  0  0  0  0
   11.2672  -21.6770   20.8687 C   0  0  0  0  0  0  0  0  0  0  0  0
   11.2503  -20.3169   21.4874 C   0  0  0  0  0  0  0  0  0  0  0  0
   10.7123  -19.3776   20.4323 C   0  0  2  0  0  0  0  0  0  0  0  0
   11.5969  -19.5234   19.2877 N   0  0  0  0  0  0  0  0  0  0  0  0
   10.6115  -17.9817   20.8846 C   0  0  0  0  0  0  0  0  0  0  0  0
   11.5726  -17.1476   20.8011 O   0  0  0  0  0  0  0  0  0  0  0  0
   12.4240  -22.3190   20.5294 C   0  0  0  0  0  0  0  0  0  0  0  0
   12.4073  -23.5643   19.9574 C   0  0  0  0  0  0  0  0  0  0  0  0
    6.8909  -11.3958   20.3090 C   0  0  0  0  0  0  0  0  0  0  0  0
    7.1575  -13.1322   19.7979 S   0  0  0  0  0  0  0  0  0  0  0  0
    8.1034  -13.9855   21.1219 C   0  0  0  0  0  0  0  0  0  0  0  0
    8.4060  -15.3941   20.7354 C   0  0  0  0  0  0  0  0  0  0  0  0
    9.1278  -16.1405   21.7979 C   0  0  2  0  0  0  0  0  0  0  0  0
    9.3615  -17.5469   21.4462 N   0  0  0  0  0  0  0  0  0  0  0  0
    8.6656  -15.9648   23.1801 C   0  0  0  0  0  0  0  0  0  0  0  0
    7.9680  -15.0017   23.5092 O   0  0  0  0  0  0  0  0  0  0  0  0
    9.0137  -16.9037   24.1686 N   0  0  0  0  0  0  0  0  0  0  0  0
    9.9400  -16.6696   25.2647 C   0  0  1  0  0  0  0  0  0  0  0  0
    9.8156  -15.2137   25.6431 C   0  0  0  0  0  0  0  0  0  0  0  0
    8.3946  -14.7680   25.6745 C   0  0  0  0  0  0  0  0  0  0  0  0
    7.2370  -15.4974   25.5092 C   0  0  0  0  0  0  0  0  0  0  0  0
    6.1752  -14.6831   25.6232 N   0  0  0  0  0  0  0  0  0  0  0  0
    6.5853  -13.4227   25.8586 C   0  0  0  0  0  0  0  0  0  0  0  0
    5.8757  -12.2542   26.0337 C   0  0  0  0  0  0  0  0  0  0  0  0
    6.6042  -11.1071   26.2488 C   0  0  0  0  0  0  0  0  0  0  0  0
    7.9953  -11.1086   26.2906 C   0  0  0  0  0  0  0  0  0  0  0  0
    8.6644  -12.2946   26.1107 C   0  0  0  0  0  0  0  0  0  0  0  0
    7.9651  -13.4614   25.8931 C   0  0  0  0  0  0  0  0  0  0  0  0
    9.6541  -17.5675   26.4086 C   0  0  0  0  0  0  0  0  0  0  0  0
   10.5377  -17.5414   27.5003 O   0  0  0  0  0  0  0  0  0  0  0  0
    8.6829  -18.3479   26.4660 O   0  0  0  0  0  0  0  0  0  0  0  0
  2  1  1  0
  3  2  2  0
  4  3  1  0
  5  4  2  0
  5 11  1  0
  6  7  1  0
  6  5  1  0
  7  8  1  6
  9  7  1  0
 10  9  2  0
 11 12  2  0
 12  2  1  0
 14 13  1  0
 14 15  1  0
 15 16  1  0
 17 16  1  6
 17 19  1  0
 17 18  1  0
 18  9  1  0
 19 21  1  0
 20 19  2  0
 21 22  1  0
 22 23  1  1
 22 33  1  0
 24 23  1  0
 25 24  2  0
 26 25  1  0
 27 26  1  0
 27 32  2  0
 28 27  1  0
 29 28  2  0
 29 30  1  0
 30 31  2  0
 31 32  1  0
 32 24  1  0
 33 35  2  0
 33 34  1  0
M  END
$$$$
