YMW.pdb
     RDKit          3D

 35 37  0  0  1  0  0  0  0  0999 V2000
    6.0862  -13.0620   16.2487 O   0  0  0  0  0  0  0  0  0  0  0  0
    7.1468  -13.8027   16.7451 C   0  0  0  0  0  0  0  0  0  0  0  0
    7.5369  -14.9351   16.0759 C   0  0  0  0  0  0  0  0  0  0  0  0
    8.5761  -15.7068   16.5189 C   0  0  0  0  0  0  0  0  0  0  0  0
    9.2717  -15.3610   17.6713 C   0  0  0  0  0  0  0  0  0  0  0  0
   10.3996  -16.2191   18.1451 C   0  0  0  0  0  0  0  0  0  0  0  0
    9.8544  -17.0426   19.2894 C   0  0  2  0  0  0  0  0  0  0  0  0
    8.4564  -17.2826   18.9705 N   0  0  0  0  0  0  0  0  0  0  0  0
   10.0247  -16.4064   20.6045 C   0  0  0  0  0  0  0  0  0  0  0  0
   11.1578  -16.0484   21.0677 O   0  0  0  0  0  0  0  0  0  0  0  0
    8.8767  -14.2316   18.3300 C   0  0  0  0  0  0  0  0  0  0  0  0
    7.8340  -13.4678   17.8741 C   0  0  0  0  0  0  0  0  0  0  0  0
    6.5344  -12.4997   26.5069 C   0  0  0  0  0  0  0  0  0  0  0  0
    6.2233  -13.5668   25.0537 S   0  0  0  0  0  0  0  0  0  0  0  0
    7.8212  -14.3040   24.5254 C   0  0  0  0  0  0  0  0  0  0  0  0
    7.6845  -14.9753   23.2004 C   0  0  0  0  0  0  0  0  0  0  0  0
    8.9350  -15.6483   22.7640 C   0  0  2  0  0  0  0  0  0  0  0  0
    8.8474  -16.1807   21.3983 N   0  0  0  0  0  0  0  0  0  0  0  0
    9.5622  -16.5847   23.7047 C   0  0  0  0  0  0  0  0  0  0  0  0
    9.0422  -17.6699   23.9773 O   0  0  0  0  0  0  0  0  0  0  0  0
   10.7841  -16.2581   24.3211 N   0  0  0  0  0  0  0  0  0  0  0  0
   11.4209  -17.0174   25.3853 C   0  0  1  0  0  0  0  0  0  0  0  0
   10.3158  -17.6211   26.2175 C   0  0  0  0  0  0  0  0  0  0  0  0
    9.4241  -16.5780   26.7968 C   0  0  0  0  0  0  0  0  0  0  0  0
    8.0487  -16.4904   26.7911 C   0  0  0  0  0  0  0  0  0  0  0  0
    7.6688  -15.3777   27.4401 N   0  0  0  0  0  0  0  0  0  0  0  0
    8.7514  -14.7104   27.8817 C   0  0  0  0  0  0  0  0  0  0  0  0
    8.8674  -13.5273   28.5791 C   0  0  0  0  0  0  0  0  0  0  0  0
   10.1408  -13.0988   28.8750 C   0  0  0  0  0  0  0  0  0  0  0  0
   11.2717  -13.8153   28.4950 C   0  0  0  0  0  0  0  0  0  0  0  0
   11.1123  -14.9896   27.8005 C   0  0  0  0  0  0  0  0  0  0  0  0
    9.8510  -15.4469   27.4880 C   0  0  0  0  0  0  0  0  0  0  0  0
   12.3305  -18.0504   24.8359 C   0  0  0  0  0  0  0  0  0  0  0  0
   12.3705  -18.2152   23.4415 O   0  0  0  0  0  0  0  0  0  0  0  0
   13.0611  -18.7863   25.5288 O   0  0  0  0  0  0  0  0  0  0  0  0
  2  1  1  0
  3  2  2  0
  4  3  1  0
  5  4  2  0
  5 11  1  0
  6  7  1  0
  6  5  1  0
  7  8  1  6
  9  7  1  0
 10  9  2  0
 11 12  2  0
 12  2  1  0
 14 13  1  0
 14 15  1  0
 15 16  1  0
 17 16  1  1
 17 19  1  0
 17 18  1  0
 18  9  1  0
 19 21  1  0
 20 19  2  0
 21 22  1  0
 22 23  1  6
 22 33  1  0
 24 23  1  0
 25 24  2  0
 26 25  1  0
 27 26  1  0
 27 32  2  0
 28 27  1  0
 29 28  2  0
 29 30  1  0
 30 31  2  0
 31 32  1  0
 32 24  1  0
 33 35  2  0
 33 34  1  0
M  END
$$$$
