YMW.pdb
     RDKit          3D

 35 37  0  0  1  0  0  0  0  0999 V2000
    9.4261  -24.3109   18.3267 O   0  0  0  0  0  0  0  0  0  0  0  0
    9.7667  -23.1704   19.0362 C   0  0  0  0  0  0  0  0  0  0  0  0
    8.9902  -22.7957   20.1035 C   0  0  0  0  0  0  0  0  0  0  0  0
    9.2764  -21.6793   20.8406 C   0  0  0  0  0  0  0  0  0  0  0  0
   10.3727  -20.8858   20.5243 C   0  0  0  0  0  0  0  0  0  0  0  0
   10.6667  -19.6657   21.3354 C   0  0  0  0  0  0  0  0  0  0  0  0
    9.7615  -18.5767   20.8068 C   0  0  2  0  0  0  0  0  0  0  0  0
   10.1499  -18.3810   19.4195 N   0  0  0  0  0  0  0  0  0  0  0  0
    9.8258  -17.3301   21.5847 C   0  0  0  0  0  0  0  0  0  0  0  0
   10.6749  -16.4060   21.3574 O   0  0  0  0  0  0  0  0  0  0  0  0
   11.1402  -21.2674   19.4609 C   0  0  0  0  0  0  0  0  0  0  0  0
   10.8416  -22.3889   18.7318 C   0  0  0  0  0  0  0  0  0  0  0  0
    7.4602  -11.4369   24.8065 C   0  0  0  0  0  0  0  0  0  0  0  0
    7.6383  -12.9160   23.7444 S   0  0  0  0  0  0  0  0  0  0  0  0
    7.3651  -14.4081   24.7812 C   0  0  0  0  0  0  0  0  0  0  0  0
    7.4351  -15.6487   23.9560 C   0  0  0  0  0  0  0  0  0  0  0  0
    8.7903  -15.8943   23.3991 C   0  0  2  0  0  0  0  0  0  0  0  0
    8.8781  -17.1552   22.6516 N   0  0  0  0  0  0  0  0  0  0  0  0
    9.9367  -15.6754   24.2896 C   0  0  0  0  0  0  0  0  0  0  0  0
   10.3232  -14.5390   24.5755 O   0  0  0  0  0  0  0  0  0  0  0  0
   10.6251  -16.7715   24.8413 N   0  0  0  0  0  0  0  0  0  0  0  0
   12.0554  -16.8263   25.0976 C   0  0  1  0  0  0  0  0  0  0  0  0
   12.3478  -15.8160   26.1802 C   0  0  0  0  0  0  0  0  0  0  0  0
   11.3562  -15.8885   27.2894 C   0  0  0  0  0  0  0  0  0  0  0  0
   11.0321  -16.9426   28.1159 C   0  0  0  0  0  0  0  0  0  0  0  0
   10.0822  -16.5556   28.9828 N   0  0  0  0  0  0  0  0  0  0  0  0
    9.7546  -15.2687   28.7618 C   0  0  0  0  0  0  0  0  0  0  0  0
    8.8370  -14.4460   29.3788 C   0  0  0  0  0  0  0  0  0  0  0  0
    8.7306  -13.1601   28.9016 C   0  0  0  0  0  0  0  0  0  0  0  0
    9.5066  -12.6946   27.8442 C   0  0  0  0  0  0  0  0  0  0  0  0
   10.4090  -13.5470   27.2564 C   0  0  0  0  0  0  0  0  0  0  0  0
   10.5405  -14.8411   27.7101 C   0  0  0  0  0  0  0  0  0  0  0  0
   12.4783  -18.1931   25.4842 C   0  0  0  0  0  0  0  0  0  0  0  0
   13.8502  -18.4262   25.6755 O   0  0  0  0  0  0  0  0  0  0  0  0
   11.6978  -19.1521   25.6479 O   0  0  0  0  0  0  0  0  0  0  0  0
  2  1  1  0
  3  2  2  0
  4  3  1  0
  5  4  2  0
  5 11  1  0
  6  7  1  0
  6  5  1  0
  7  8  1  6
  9  7  1  0
 10  9  2  0
 11 12  2  0
 12  2  1  0
 14 13  1  0
 14 15  1  0
 15 16  1  0
 17 16  1  1
 17 19  1  0
 17 18  1  0
 18  9  1  0
 19 21  1  0
 20 19  2  0
 21 22  1  0
 22 23  1  1
 22 33  1  0
 24 23  1  0
 25 24  2  0
 26 25  1  0
 27 26  1  0
 27 32  2  0
 28 27  1  0
 29 28  2  0
 29 30  1  0
 30 31  2  0
 31 32  1  0
 32 24  1  0
 33 35  2  0
 33 34  1  0
M  END
$$$$
