YMW.pdb
     RDKit          3D

 35 37  0  0  1  0  0  0  0  0999 V2000
    8.8946  -14.0853   15.0014 O   0  0  0  0  0  0  0  0  0  0  0  0
    8.2849  -14.6468   16.1117 C   0  0  0  0  0  0  0  0  0  0  0  0
    8.6587  -14.2207   17.3612 C   0  0  0  0  0  0  0  0  0  0  0  0
    8.0928  -14.7391   18.4938 C   0  0  0  0  0  0  0  0  0  0  0  0
    7.1142  -15.7222   18.4083 C   0  0  0  0  0  0  0  0  0  0  0  0
    6.5118  -16.2826   19.6557 C   0  0  0  0  0  0  0  0  0  0  0  0
    7.4381  -17.3848   20.1160 C   0  0  2  0  0  0  0  0  0  0  0  0
    7.3915  -18.3985   19.0748 N   0  0  0  0  0  0  0  0  0  0  0  0
    7.0934  -17.9281   21.4386 C   0  0  0  0  0  0  0  0  0  0  0  0
    5.9070  -17.9317   21.9064 O   0  0  0  0  0  0  0  0  0  0  0  0
    6.7481  -16.1391   17.1603 C   0  0  0  0  0  0  0  0  0  0  0  0
    7.3233  -15.6103   16.0343 C   0  0  0  0  0  0  0  0  0  0  0  0
   10.5977  -18.1288   28.4884 C   0  0  0  0  0  0  0  0  0  0  0  0
   10.1567  -19.0945   26.9983 S   0  0  0  0  0  0  0  0  0  0  0  0
    9.6005  -17.9247   25.6953 C   0  0  0  0  0  0  0  0  0  0  0  0
    9.0741  -18.6610   24.5096 C   0  0  0  0  0  0  0  0  0  0  0  0
    8.7032  -17.7585   23.3894 C   0  0  2  0  0  0  0  0  0  0  0  0
    8.1553  -18.4812   22.2344 N   0  0  0  0  0  0  0  0  0  0  0  0
    9.6691  -16.7202   23.0097 C   0  0  0  0  0  0  0  0  0  0  0  0
   10.8463  -16.9945   22.7621 O   0  0  0  0  0  0  0  0  0  0  0  0
    9.2654  -15.3754   22.9197 N   0  0  0  0  0  0  0  0  0  0  0  0
    9.1250  -14.4605   24.0413 C   0  0  1  0  0  0  0  0  0  0  0  0
    8.1562  -15.0955   25.0090 C   0  0  0  0  0  0  0  0  0  0  0  0
    7.2298  -14.0928   25.6051 C   0  0  0  0  0  0  0  0  0  0  0  0
    5.9100  -13.8263   25.3109 C   0  0  0  0  0  0  0  0  0  0  0  0
    5.4655  -12.8386   26.1048 N   0  0  0  0  0  0  0  0  0  0  0  0
    6.4511  -12.4293   26.9256 C   0  0  0  0  0  0  0  0  0  0  0  0
    6.4787  -11.4488   27.8937 C   0  0  0  0  0  0  0  0  0  0  0  0
    7.6666  -11.2646   28.5627 C   0  0  0  0  0  0  0  0  0  0  0  0
    8.7991  -12.0251   28.2868 C   0  0  0  0  0  0  0  0  0  0  0  0
    8.7295  -12.9920   27.3138 C   0  0  0  0  0  0  0  0  0  0  0  0
    7.5552  -13.2022   26.6250 C   0  0  0  0  0  0  0  0  0  0  0  0
   10.4368  -14.1805   24.6715 C   0  0  0  0  0  0  0  0  0  0  0  0
   11.1512  -15.2638   25.2093 O   0  0  0  0  0  0  0  0  0  0  0  0
   10.9483  -13.0464   24.7596 O   0  0  0  0  0  0  0  0  0  0  0  0
  2  1  1  0
  3  2  2  0
  4  3  1  0
  5  4  2  0
  5 11  1  0
  6  7  1  0
  6  5  1  0
  7  8  1  6
  9  7  1  0
 10  9  2  0
 11 12  2  0
 12  2  1  0
 14 13  1  0
 14 15  1  0
 15 16  1  0
 17 16  1  1
 17 19  1  0
 17 18  1  0
 18  9  1  0
 19 21  1  0
 20 19  2  0
 21 22  1  0
 22 23  1  1
 22 33  1  0
 24 23  1  0
 25 24  2  0
 26 25  1  0
 27 26  1  0
 27 32  2  0
 28 27  1  0
 29 28  2  0
 29 30  1  0
 30 31  2  0
 31 32  1  0
 32 24  1  0
 33 35  2  0
 33 34  1  0
M  END
$$$$
