YMW.pdb
     RDKit          3D

 35 37  0  0  1  0  0  0  0  0999 V2000
   15.4156  -20.6025   14.8539 O   0  0  0  0  0  0  0  0  0  0  0  0
   14.4292  -19.8983   15.5255 C   0  0  0  0  0  0  0  0  0  0  0  0
   14.7852  -18.8000   16.2667 C   0  0  0  0  0  0  0  0  0  0  0  0
   13.8557  -18.0663   16.9519 C   0  0  0  0  0  0  0  0  0  0  0  0
   12.5116  -18.4179   16.9156 C   0  0  0  0  0  0  0  0  0  0  0  0
   11.5105  -17.6097   17.6756 C   0  0  0  0  0  0  0  0  0  0  0  0
   11.8298  -17.8070   19.1398 C   0  0  2  0  0  0  0  0  0  0  0  0
   11.3461  -19.1371   19.4724 N   0  0  0  0  0  0  0  0  0  0  0  0
   11.2550  -16.7710   20.0114 C   0  0  0  0  0  0  0  0  0  0  0  0
   10.9659  -15.5967   19.6064 O   0  0  0  0  0  0  0  0  0  0  0  0
   12.1669  -19.5119   16.1742 C   0  0  0  0  0  0  0  0  0  0  0  0
   13.1090  -20.2372   15.4925 C   0  0  0  0  0  0  0  0  0  0  0  0
    6.9657  -13.7134   19.8605 C   0  0  0  0  0  0  0  0  0  0  0  0
    6.5064  -14.5041   21.4452 S   0  0  0  0  0  0  0  0  0  0  0  0
    8.0497  -14.9446   22.3398 C   0  0  0  0  0  0  0  0  0  0  0  0
    8.9015  -15.8503   21.5158 C   0  0  0  0  0  0  0  0  0  0  0  0
   10.1241  -16.2992   22.2304 C   0  0  2  0  0  0  0  0  0  0  0  0
   11.0102  -17.1111   21.3867 N   0  0  0  0  0  0  0  0  0  0  0  0
    9.9537  -16.8515   23.5799 C   0  0  0  0  0  0  0  0  0  0  0  0
    9.7911  -18.0604   23.7658 O   0  0  0  0  0  0  0  0  0  0  0  0
    9.9731  -16.0018   24.7012 N   0  0  0  0  0  0  0  0  0  0  0  0
    9.9290  -16.4355   26.0884 C   0  0  1  0  0  0  0  0  0  0  0  0
    9.4973  -15.2443   26.9087 C   0  0  0  0  0  0  0  0  0  0  0  0
    8.1107  -14.8140   26.5755 C   0  0  0  0  0  0  0  0  0  0  0  0
    7.0198  -15.5669   26.1981 C   0  0  0  0  0  0  0  0  0  0  0  0
    5.9651  -14.7590   26.0020 N   0  0  0  0  0  0  0  0  0  0  0  0
    6.3158  -13.4802   26.2346 C   0  0  0  0  0  0  0  0  0  0  0  0
    5.5913  -12.3105   26.1542 C   0  0  0  0  0  0  0  0  0  0  0  0
    6.2556  -11.1426   26.4496 C   0  0  0  0  0  0  0  0  0  0  0  0
    7.5985  -11.1248   26.8147 C   0  0  0  0  0  0  0  0  0  0  0  0
    8.2846  -12.3128   26.8822 C   0  0  0  0  0  0  0  0  0  0  0  0
    7.6492  -13.5002   26.5926 C   0  0  0  0  0  0  0  0  0  0  0  0
    9.0146  -17.5892   26.2600 C   0  0  0  0  0  0  0  0  0  0  0  0
    9.1389  -18.3570   27.4297 O   0  0  0  0  0  0  0  0  0  0  0  0
    8.1435  -17.9267   25.4336 O   0  0  0  0  0  0  0  0  0  0  0  0
  2  1  1  0
  3  2  2  0
  4  3  1  0
  5  4  2  0
  5 11  1  0
  6  7  1  0
  6  5  1  0
  7  8  1  1
  9  7  1  0
 10  9  2  0
 11 12  2  0
 12  2  1  0
 14 13  1  0
 14 15  1  0
 15 16  1  0
 17 16  1  6
 17 19  1  0
 17 18  1  0
 18  9  1  0
 19 21  1  0
 20 19  2  0
 21 22  1  0
 22 23  1  1
 22 33  1  0
 24 23  1  0
 25 24  2  0
 26 25  1  0
 27 26  1  0
 27 32  2  0
 28 27  1  0
 29 28  2  0
 29 30  1  0
 30 31  2  0
 31 32  1  0
 32 24  1  0
 33 35  2  0
 33 34  1  0
M  END
$$$$
