YMW.pdb
     RDKit          3D

 35 37  0  0  1  0  0  0  0  0999 V2000
    7.3126  -24.7886   19.7335 O   0  0  0  0  0  0  0  0  0  0  0  0
    7.8133  -23.6103   20.2635 C   0  0  0  0  0  0  0  0  0  0  0  0
    9.1413  -23.3142   20.0869 C   0  0  0  0  0  0  0  0  0  0  0  0
    9.6921  -22.1666   20.5881 C   0  0  0  0  0  0  0  0  0  0  0  0
    8.9131  -21.2604   21.2977 C   0  0  0  0  0  0  0  0  0  0  0  0
    9.5324  -20.0152   21.8445 C   0  0  0  0  0  0  0  0  0  0  0  0
    9.1201  -18.8943   20.9180 C   0  0  2  0  0  0  0  0  0  0  0  0
    9.4658  -19.3431   19.5790 N   0  0  0  0  0  0  0  0  0  0  0  0
    9.7376  -17.6011   21.2490 C   0  0  0  0  0  0  0  0  0  0  0  0
   10.8059  -17.1740   20.6987 O   0  0  0  0  0  0  0  0  0  0  0  0
    7.5921  -21.5633   21.4673 C   0  0  0  0  0  0  0  0  0  0  0  0
    7.0539  -22.7167   20.9591 C   0  0  0  0  0  0  0  0  0  0  0  0
    7.5973  -12.0461   20.0077 C   0  0  0  0  0  0  0  0  0  0  0  0
    6.6113  -13.4062   20.7325 S   0  0  0  0  0  0  0  0  0  0  0  0
    7.7493  -14.7878   21.1469 C   0  0  0  0  0  0  0  0  0  0  0  0
    8.7848  -14.3478   22.1263 C   0  0  0  0  0  0  0  0  0  0  0  0
    9.6280  -15.4688   22.6155 C   0  0  2  0  0  0  0  0  0  0  0  0
    9.0951  -16.7857   22.2437 N   0  0  0  0  0  0  0  0  0  0  0  0
   10.0891  -15.4099   24.0080 C   0  0  0  0  0  0  0  0  0  0  0  0
   10.7429  -14.4527   24.4307 O   0  0  0  0  0  0  0  0  0  0  0  0
    9.7900  -16.4574   24.8986 N   0  0  0  0  0  0  0  0  0  0  0  0
   10.4474  -16.6931   26.1740 C   0  0  1  0  0  0  0  0  0  0  0  0
    9.7070  -15.8801   27.2080 C   0  0  0  0  0  0  0  0  0  0  0  0
    8.3565  -15.4718   26.7300 C   0  0  0  0  0  0  0  0  0  0  0  0
    7.3026  -16.2465   26.2957 C   0  0  0  0  0  0  0  0  0  0  0  0
    6.2711  -15.4530   25.9644 N   0  0  0  0  0  0  0  0  0  0  0  0
    6.6015  -14.1628   26.1611 C   0  0  0  0  0  0  0  0  0  0  0  0
    5.8889  -13.0011   25.9559 C   0  0  0  0  0  0  0  0  0  0  0  0
    6.5259  -11.8174   26.2490 C   0  0  0  0  0  0  0  0  0  0  0  0
    7.8306  -11.7768   26.7316 C   0  0  0  0  0  0  0  0  0  0  0  0
    8.5061  -12.9576   26.9215 C   0  0  0  0  0  0  0  0  0  0  0  0
    7.8974  -14.1603   26.6378 C   0  0  0  0  0  0  0  0  0  0  0  0
   10.4638  -18.1366   26.5094 C   0  0  0  0  0  0  0  0  0  0  0  0
    9.8269  -19.0231   25.6254 O   0  0  0  0  0  0  0  0  0  0  0  0
   11.0026  -18.6175   27.5263 O   0  0  0  0  0  0  0  0  0  0  0  0
  2  1  1  0
  3  2  2  0
  4  3  1  0
  5  4  2  0
  5 11  1  0
  6  7  1  0
  6  5  1  0
  7  8  1  6
  9  7  1  0
 10  9  2  0
 11 12  2  0
 12  2  1  0
 14 13  1  0
 14 15  1  0
 15 16  1  0
 17 16  1  1
 17 19  1  0
 17 18  1  0
 18  9  1  0
 19 21  1  0
 20 19  2  0
 21 22  1  0
 22 23  1  1
 22 33  1  0
 24 23  1  0
 25 24  2  0
 26 25  1  0
 27 26  1  0
 27 32  2  0
 28 27  1  0
 29 28  2  0
 29 30  1  0
 30 31  2  0
 31 32  1  0
 32 24  1  0
 33 35  2  0
 33 34  1  0
M  END
$$$$
