YMW.pdb
     RDKit          3D

 35 37  0  0  1  0  0  0  0  0999 V2000
    8.3929  -12.0958   17.1506 O   0  0  0  0  0  0  0  0  0  0  0  0
    8.0955  -12.8227   18.2921 C   0  0  0  0  0  0  0  0  0  0  0  0
    9.1170  -13.1869   19.1325 C   0  0  0  0  0  0  0  0  0  0  0  0
    8.8845  -13.9056   20.2732 C   0  0  0  0  0  0  0  0  0  0  0  0
    7.5935  -14.2908   20.6146 C   0  0  0  0  0  0  0  0  0  0  0  0
    7.3582  -15.0818   21.8604 C   0  0  0  0  0  0  0  0  0  0  0  0
    7.8678  -16.4769   21.5797 C   0  0  2  0  0  0  0  0  0  0  0  0
    6.8262  -17.1270   20.8010 N   0  0  0  0  0  0  0  0  0  0  0  0
    8.2098  -17.2330   22.7940 C   0  0  0  0  0  0  0  0  0  0  0  0
    7.3359  -17.7298   23.5788 O   0  0  0  0  0  0  0  0  0  0  0  0
    6.5832  -13.9228   19.7724 C   0  0  0  0  0  0  0  0  0  0  0  0
    6.8311  -13.2022   18.6332 C   0  0  0  0  0  0  0  0  0  0  0  0
   11.3290  -22.7353   24.3935 C   0  0  0  0  0  0  0  0  0  0  0  0
   12.3889  -21.3738   25.0021 S   0  0  0  0  0  0  0  0  0  0  0  0
   11.3178  -19.9259   25.3655 C   0  0  0  0  0  0  0  0  0  0  0  0
   10.8214  -19.3024   24.1046 C   0  0  0  0  0  0  0  0  0  0  0  0
   10.0339  -18.0658   24.3448 C   0  0  2  0  0  0  0  0  0  0  0  0
    9.6025  -17.4156   23.1008 N   0  0  0  0  0  0  0  0  0  0  0  0
   10.5524  -17.1164   25.3372 C   0  0  0  0  0  0  0  0  0  0  0  0
   11.6353  -16.5462   25.1796 O   0  0  0  0  0  0  0  0  0  0  0  0
    9.8149  -16.8350   26.5019 N   0  0  0  0  0  0  0  0  0  0  0  0
   10.3591  -16.2801   27.7309 C   0  0  1  0  0  0  0  0  0  0  0  0
    9.2198  -15.5980   28.4485 C   0  0  0  0  0  0  0  0  0  0  0  0
    8.1707  -15.1265   27.5019 C   0  0  0  0  0  0  0  0  0  0  0  0
    7.2396  -15.8476   26.7859 C   0  0  0  0  0  0  0  0  0  0  0  0
    6.4855  -15.0070   26.0592 N   0  0  0  0  0  0  0  0  0  0  0  0
    6.8843  -13.7375   26.2637 C   0  0  0  0  0  0  0  0  0  0  0  0
    6.4300  -12.5468   25.7389 C   0  0  0  0  0  0  0  0  0  0  0  0
    7.0695  -11.3994   26.1479 C   0  0  0  0  0  0  0  0  0  0  0  0
    8.1290  -11.4219   27.0500 C   0  0  0  0  0  0  0  0  0  0  0  0
    8.5515  -12.6299   27.5490 C   0  0  0  0  0  0  0  0  0  0  0  0
    7.9329  -13.7976   27.1600 C   0  0  0  0  0  0  0  0  0  0  0  0
   10.9878  -17.3339   28.5620 C   0  0  0  0  0  0  0  0  0  0  0  0
   11.7143  -16.9304   29.6945 O   0  0  0  0  0  0  0  0  0  0  0  0
   10.9182  -18.5558   28.3216 O   0  0  0  0  0  0  0  0  0  0  0  0
  2  1  1  0
  3  2  2  0
  4  3  1  0
  5  4  2  0
  5 11  1  0
  6  7  1  0
  6  5  1  0
  7  8  1  1
  9  7  1  0
 10  9  2  0
 11 12  2  0
 12  2  1  0
 14 13  1  0
 14 15  1  0
 15 16  1  0
 17 16  1  6
 17 19  1  0
 17 18  1  0
 18  9  1  0
 19 21  1  0
 20 19  2  0
 21 22  1  0
 22 23  1  1
 22 33  1  0
 24 23  1  0
 25 24  2  0
 26 25  1  0
 27 26  1  0
 27 32  2  0
 28 27  1  0
 29 28  2  0
 29 30  1  0
 30 31  2  0
 31 32  1  0
 32 24  1  0
 33 35  2  0
 33 34  1  0
M  END
$$$$
