YMW.pdb
     RDKit          3D

 35 37  0  0  1  0  0  0  0  0999 V2000
   13.7416  -17.9988   13.2970 O   0  0  0  0  0  0  0  0  0  0  0  0
   12.9654  -17.4138   14.2846 C   0  0  0  0  0  0  0  0  0  0  0  0
   13.5656  -17.0161   15.4525 C   0  0  0  0  0  0  0  0  0  0  0  0
   12.8507  -16.4339   16.4632 C   0  0  0  0  0  0  0  0  0  0  0  0
   11.4824  -16.2280   16.3330 C   0  0  0  0  0  0  0  0  0  0  0  0
   10.7154  -15.5973   17.4497 C   0  0  0  0  0  0  0  0  0  0  0  0
   11.0461  -16.3912   18.6927 C   0  0  2  0  0  0  0  0  0  0  0  0
   10.4300  -17.6944   18.5029 N   0  0  0  0  0  0  0  0  0  0  0  0
   10.6069  -15.7432   19.9379 C   0  0  0  0  0  0  0  0  0  0  0  0
   10.9481  -14.5600   20.2695 O   0  0  0  0  0  0  0  0  0  0  0  0
   10.8941  -16.6262   15.1664 C   0  0  0  0  0  0  0  0  0  0  0  0
   11.6232  -17.2078   14.1621 C   0  0  0  0  0  0  0  0  0  0  0  0
    6.7783  -11.9545   20.5301 C   0  0  0  0  0  0  0  0  0  0  0  0
    7.5267  -13.0767   21.7662 S   0  0  0  0  0  0  0  0  0  0  0  0
    7.3077  -14.8057   21.1843 C   0  0  0  0  0  0  0  0  0  0  0  0
    7.8355  -15.7750   22.1877 C   0  0  0  0  0  0  0  0  0  0  0  0
    9.3094  -15.9427   22.1064 C   0  0  2  0  0  0  0  0  0  0  0  0
    9.7491  -16.4907   20.8170 N   0  0  0  0  0  0  0  0  0  0  0  0
    9.9830  -16.5650   23.2528 C   0  0  0  0  0  0  0  0  0  0  0  0
   10.8551  -17.4243   23.0996 O   0  0  0  0  0  0  0  0  0  0  0  0
    9.6426  -16.1882   24.5650 N   0  0  0  0  0  0  0  0  0  0  0  0
   10.2767  -16.6842   25.7759 C   0  0  1  0  0  0  0  0  0  0  0  0
    9.6259  -15.9726   26.9371 C   0  0  0  0  0  0  0  0  0  0  0  0
    8.3003  -15.4030   26.5665 C   0  0  0  0  0  0  0  0  0  0  0  0
    7.1245  -16.0437   26.2406 C   0  0  0  0  0  0  0  0  0  0  0  0
    6.1748  -15.1305   25.9804 N   0  0  0  0  0  0  0  0  0  0  0  0
    6.6791  -13.8900   26.1195 C   0  0  0  0  0  0  0  0  0  0  0  0
    6.1016  -12.6502   25.9496 C   0  0  0  0  0  0  0  0  0  0  0  0
    6.9041  -11.5530   26.1611 C   0  0  0  0  0  0  0  0  0  0  0  0
    8.2407  -11.6714   26.5301 C   0  0  0  0  0  0  0  0  0  0  0  0
    8.7779  -12.9256   26.6884 C   0  0  0  0  0  0  0  0  0  0  0  0
    8.0018  -14.0453   26.4843 C   0  0  0  0  0  0  0  0  0  0  0  0
   10.1477  -18.1567   25.8835 C   0  0  0  0  0  0  0  0  0  0  0  0
   10.9225  -18.8144   26.8532 O   0  0  0  0  0  0  0  0  0  0  0  0
    9.3993  -18.8524   25.1683 O   0  0  0  0  0  0  0  0  0  0  0  0
  2  1  1  0
  3  2  2  0
  4  3  1  0
  5  4  2  0
  5 11  1  0
  6  7  1  0
  6  5  1  0
  7  8  1  6
  9  7  1  0
 10  9  2  0
 11 12  2  0
 12  2  1  0
 14 13  1  0
 14 15  1  0
 15 16  1  0
 17 16  1  1
 17 19  1  0
 17 18  1  0
 18  9  1  0
 19 21  1  0
 20 19  2  0
 21 22  1  0
 22 23  1  1
 22 33  1  0
 24 23  1  0
 25 24  2  0
 26 25  1  0
 27 26  1  0
 27 32  2  0
 28 27  1  0
 29 28  2  0
 29 30  1  0
 30 31  2  0
 31 32  1  0
 32 24  1  0
 33 35  2  0
 33 34  1  0
M  END
$$$$
