YMW.pdb
     RDKit          3D

 35 37  0  0  1  0  0  0  0  0999 V2000
    8.0235  -20.3918   28.8548 O   0  0  0  0  0  0  0  0  0  0  0  0
    7.4791  -20.1587   27.6022 C   0  0  0  0  0  0  0  0  0  0  0  0
    7.6070  -18.9119   27.0441 C   0  0  0  0  0  0  0  0  0  0  0  0
    7.0893  -18.6223   25.8112 C   0  0  0  0  0  0  0  0  0  0  0  0
    6.4122  -19.5937   25.0835 C   0  0  0  0  0  0  0  0  0  0  0  0
    5.8468  -19.2584   23.7415 C   0  0  0  0  0  0  0  0  0  0  0  0
    6.9396  -19.5448   22.7372 C   0  0  2  0  0  0  0  0  0  0  0  0
    7.6140  -20.7392   23.2194 N   0  0  0  0  0  0  0  0  0  0  0  0
    7.8680  -18.4208   22.5425 C   0  0  0  0  0  0  0  0  0  0  0  0
    9.1345  -18.5603   22.4872 O   0  0  0  0  0  0  0  0  0  0  0  0
    6.2910  -20.8319   25.6468 C   0  0  0  0  0  0  0  0  0  0  0  0
    6.8152  -21.1077   26.8828 C   0  0  0  0  0  0  0  0  0  0  0  0
    5.8572  -13.1775   19.1623 C   0  0  0  0  0  0  0  0  0  0  0  0
    7.1185  -12.3842   20.2239 S   0  0  0  0  0  0  0  0  0  0  0  0
    8.1617  -13.7025   20.9655 C   0  0  0  0  0  0  0  0  0  0  0  0
    7.3248  -14.8524   21.4151 C   0  0  0  0  0  0  0  0  0  0  0  0
    8.1301  -15.9609   21.9895 C   0  0  2  0  0  0  0  0  0  0  0  0
    7.3080  -17.1035   22.4079 N   0  0  0  0  0  0  0  0  0  0  0  0
    9.1623  -15.6077   22.9718 C   0  0  0  0  0  0  0  0  0  0  0  0
   10.0464  -14.7873   22.7113 O   0  0  0  0  0  0  0  0  0  0  0  0
    9.1628  -16.2056   24.2455 N   0  0  0  0  0  0  0  0  0  0  0  0
   10.1095  -15.9183   25.3112 C   0  0  1  0  0  0  0  0  0  0  0  0
    9.3215  -15.8641   26.5974 C   0  0  0  0  0  0  0  0  0  0  0  0
    8.0565  -15.0931   26.4412 C   0  0  0  0  0  0  0  0  0  0  0  0
    6.7911  -15.5305   26.1144 C   0  0  0  0  0  0  0  0  0  0  0  0
    5.9485  -14.4851   26.0919 N   0  0  0  0  0  0  0  0  0  0  0  0
    6.6120  -13.3529   26.3924 C   0  0  0  0  0  0  0  0  0  0  0  0
    6.1845  -12.0457   26.4814 C   0  0  0  0  0  0  0  0  0  0  0  0
    7.1300  -11.0997   26.8037 C   0  0  0  0  0  0  0  0  0  0  0  0
    8.4623  -11.4304   27.0327 C   0  0  0  0  0  0  0  0  0  0  0  0
    8.8474  -12.7451   26.9333 C   0  0  0  0  0  0  0  0  0  0  0  0
    7.9256  -13.7173   26.6123 C   0  0  0  0  0  0  0  0  0  0  0  0
   11.1851  -16.9366   25.3610 C   0  0  0  0  0  0  0  0  0  0  0  0
   10.8672  -18.2023   25.8808 O   0  0  0  0  0  0  0  0  0  0  0  0
   12.3555  -16.7445   24.9752 O   0  0  0  0  0  0  0  0  0  0  0  0
  2  1  1  0
  3  2  2  0
  4  3  1  0
  5  4  2  0
  5 11  1  0
  6  7  1  0
  6  5  1  0
  7  8  1  1
  9  7  1  0
 10  9  2  0
 11 12  2  0
 12  2  1  0
 14 13  1  0
 14 15  1  0
 15 16  1  0
 17 16  1  1
 17 19  1  0
 17 18  1  0
 18  9  1  0
 19 21  1  0
 20 19  2  0
 21 22  1  0
 22 23  1  1
 22 33  1  0
 24 23  1  0
 25 24  2  0
 26 25  1  0
 27 26  1  0
 27 32  2  0
 28 27  1  0
 29 28  2  0
 29 30  1  0
 30 31  2  0
 31 32  1  0
 32 24  1  0
 33 35  2  0
 33 34  1  0
M  END
$$$$
