YMW.pdb
     RDKit          3D

 35 37  0  0  1  0  0  0  0  0999 V2000
    8.3790  -13.7755   15.0105 O   0  0  0  0  0  0  0  0  0  0  0  0
    8.0744  -14.0775   16.3280 C   0  0  0  0  0  0  0  0  0  0  0  0
    7.2481  -15.1405   16.5918 C   0  0  0  0  0  0  0  0  0  0  0  0
    6.9113  -15.4856   17.8721 C   0  0  0  0  0  0  0  0  0  0  0  0
    7.4020  -14.7605   18.9515 C   0  0  0  0  0  0  0  0  0  0  0  0
    7.0183  -15.1468   20.3431 C   0  0  0  0  0  0  0  0  0  0  0  0
    8.2847  -15.6265   21.0146 C   0  0  2  0  0  0  0  0  0  0  0  0
    8.8167  -16.6691   20.1521 N   0  0  0  0  0  0  0  0  0  0  0  0
    8.0775  -16.0956   22.3931 C   0  0  0  0  0  0  0  0  0  0  0  0
    7.4142  -15.4404   23.2633 O   0  0  0  0  0  0  0  0  0  0  0  0
    8.2246  -13.7049   18.6790 C   0  0  0  0  0  0  0  0  0  0  0  0
    8.5538  -13.3711   17.3911 C   0  0  0  0  0  0  0  0  0  0  0  0
    6.6108  -19.7698   28.1784 C   0  0  0  0  0  0  0  0  0  0  0  0
    6.6389  -19.1336   26.4632 S   0  0  0  0  0  0  0  0  0  0  0  0
    8.1371  -19.7916   25.6274 C   0  0  0  0  0  0  0  0  0  0  0  0
    8.2254  -19.2923   24.2246 C   0  0  0  0  0  0  0  0  0  0  0  0
    8.5867  -17.8534   24.1471 C   0  0  2  0  0  0  0  0  0  0  0  0
    8.6555  -17.3579   22.7665 N   0  0  0  0  0  0  0  0  0  0  0  0
    9.7057  -17.3919   24.9777 C   0  0  0  0  0  0  0  0  0  0  0  0
   10.8301  -17.8904   24.8793 O   0  0  0  0  0  0  0  0  0  0  0  0
    9.5148  -16.3587   25.9136 N   0  0  0  0  0  0  0  0  0  0  0  0
   10.5386  -15.8187   26.7937 C   0  0  1  0  0  0  0  0  0  0  0  0
   10.0051  -14.5186   27.3443 C   0  0  0  0  0  0  0  0  0  0  0  0
    8.5204  -14.4437   27.2502 C   0  0  0  0  0  0  0  0  0  0  0  0
    7.5944  -15.4516   27.0884 C   0  0  0  0  0  0  0  0  0  0  0  0
    6.3596  -14.9245   27.0620 N   0  0  0  0  0  0  0  0  0  0  0  0
    6.4274  -13.5869   27.1991 C   0  0  0  0  0  0  0  0  0  0  0  0
    5.4409  -12.6247   27.2200 C   0  0  0  0  0  0  0  0  0  0  0  0
    5.8458  -11.3180   27.3663 C   0  0  0  0  0  0  0  0  0  0  0  0
    7.1866  -10.9661   27.4889 C   0  0  0  0  0  0  0  0  0  0  0  0
    8.1387  -11.9558   27.4625 C   0  0  0  0  0  0  0  0  0  0  0  0
    7.7671  -13.2743   27.3173 C   0  0  0  0  0  0  0  0  0  0  0  0
   10.8809  -16.7790   27.8695 C   0  0  0  0  0  0  0  0  0  0  0  0
   12.0127  -16.5075   28.6560 O   0  0  0  0  0  0  0  0  0  0  0  0
   10.2332  -17.8146   28.1217 O   0  0  0  0  0  0  0  0  0  0  0  0
  2  1  1  0
  3  2  2  0
  4  3  1  0
  5  4  2  0
  5 11  1  0
  6  7  1  0
  6  5  1  0
  7  8  1  6
  9  7  1  0
 10  9  2  0
 11 12  2  0
 12  2  1  0
 14 13  1  0
 14 15  1  0
 15 16  1  0
 17 16  1  6
 17 19  1  0
 17 18  1  0
 18  9  1  0
 19 21  1  0
 20 19  2  0
 21 22  1  0
 22 23  1  1
 22 33  1  0
 24 23  1  0
 25 24  2  0
 26 25  1  0
 27 26  1  0
 27 32  2  0
 28 27  1  0
 29 28  2  0
 29 30  1  0
 30 31  2  0
 31 32  1  0
 32 24  1  0
 33 35  2  0
 33 34  1  0
M  END
$$$$
