YMW.pdb
     RDKit          3D

 35 37  0  0  1  0  0  0  0  0999 V2000
-550331.00001244873.0000395715.5312 O   0  0  0  0  0  0  0  0  0  0  0  0
-550331.18751244871.5000395715.5312 C   0  0  0  0  0  0  0  0  0  0  0  0
-550331.43751244870.5000395716.5625 C   0  0  0  0  0  0  0  0  0  0  0  0
-550332.25001244869.6250395716.2812 C   0  0  0  0  0  0  0  0  0  0  0  0
-550332.56251244868.8750395715.3750 C   0  0  0  0  0  0  0  0  0  0  0  0
-550333.56251244867.5000395715.7500 C   0  0  0  0  0  0  0  0  0  0  0  0
-550333.43751244867.3750395714.3125 C   0  0  2  0  0  0  0  0  0  0  0  0
-550334.62501244867.1250395713.4062 N   0  0  0  0  0  0  0  0  0  0  0  0
-550333.25001244865.7500395714.2812 C   0  0  0  0  0  0  0  0  0  0  0  0
-550332.62501244864.7500395713.4688 O   0  0  0  0  0  0  0  0  0  0  0  0
-550332.37501244869.7500395714.2812 C   0  0  0  0  0  0  0  0  0  0  0  0
-550331.68751244870.2500395713.9688 C   0  0  0  0  0  0  0  0  0  0  0  0
-550330.62501244866.8750395720.5000 C   0  0  0  0  0  0  0  0  0  0  0  0
-550330.06251244868.5000395719.3125 S   0  0  0  0  0  0  0  0  0  0  0  0
-550330.37501244867.7500395717.9375 C   0  0  0  0  0  0  0  0  0  0  0  0
-550331.62501244867.0000395717.3438 C   0  0  0  0  0  0  0  0  0  0  0  0
-550331.62501244865.8750395716.5312 C   0  0  2  0  0  0  0  0  0  0  0  0
-550332.62501244865.5000395715.7188 N   0  0  0  0  0  0  0  0  0  0  0  0
-550330.43751244864.8750395716.5938 C   0  0  0  0  0  0  0  0  0  0  0  0
-550329.43751244864.8750395715.8750 O   0  0  0  0  0  0  0  0  0  0  0  0
-550330.62501244863.7500395717.1562 N   0  0  0  0  0  0  0  0  0  0  0  0
-550330.12501244862.0000395717.0000 C   0  0  1  0  0  0  0  0  0  0  0  0
-550331.56251244861.1250395717.0312 C   0  0  0  0  0  0  0  0  0  0  0  0
-550332.00001244861.3750395718.2812 C   0  0  0  0  0  0  0  0  0  0  0  0
-550332.81251244862.1250395718.6875 C   0  0  0  0  0  0  0  0  0  0  0  0
-550333.56251244862.1250395719.8125 N   0  0  0  0  0  0  0  0  0  0  0  0
-550333.81251244861.0000395719.6250 C   0  0  0  0  0  0  0  0  0  0  0  0
-550334.56251244860.1250395720.4688 C   0  0  0  0  0  0  0  0  0  0  0  0
-550334.56251244859.2500395720.1875 C   0  0  0  0  0  0  0  0  0  0  0  0
-550333.56251244858.2500395719.5312 C   0  0  0  0  0  0  0  0  0  0  0  0
-550333.06251244858.7500395718.5938 C   0  0  0  0  0  0  0  0  0  0  0  0
-550332.68751244860.2500395718.8438 C   0  0  0  0  0  0  0  0  0  0  0  0
-550329.62501244861.6250395715.7188 C   0  0  0  0  0  0  0  0  0  0  0  0
-550329.81251244863.7500395714.9688 O   0  0  0  0  0  0  0  0  0  0  0  0
-550329.37501244861.2500395714.7500 O   0  0  0  0  0  0  0  0  0  0  0  0
  2  1  1  0
  3  2  2  0
  4  3  1  0
  5  4  2  0
  5 11  1  0
  6  7  1  0
  6  5  1  0
  7  8  1  6
  9  7  1  0
 10  9  2  0
 11 12  2  0
 12  2  1  0
 14 13  1  0
 14 15  1  0
 15 16  1  0
 17 16  1  1
 17 19  1  0
 17 18  1  0
 18  9  1  0
 19 21  1  0
 20 19  2  0
 21 22  1  0
 22 23  1  6
 22 33  1  0
 24 23  1  0
 25 24  2  0
 26 25  1  0
 27 26  1  0
 27 32  2  0
 28 27  1  0
 29 28  2  0
 29 30  1  0
 30 31  2  0
 31 32  1  0
 32 24  1  0
 33 35  2  0
 33 34  1  0
M  END
$$$$
