YMW.pdb
     RDKit          3D

 35 37  0  0  1  0  0  0  0  0999 V2000
   12.0038  -25.0743   19.0568 O   0  0  0  0  0  0  0  0  0  0  0  0
   11.9359  -23.7491   19.4555 C   0  0  0  0  0  0  0  0  0  0  0  0
   12.5903  -22.7981   18.7140 C   0  0  0  0  0  0  0  0  0  0  0  0
   12.5601  -21.4746   19.0592 C   0  0  0  0  0  0  0  0  0  0  0  0
   11.8586  -21.0534   20.1826 C   0  0  0  0  0  0  0  0  0  0  0  0
   11.8419  -19.6049   20.5493 C   0  0  0  0  0  0  0  0  0  0  0  0
   10.6200  -19.0132   19.8849 C   0  0  2  0  0  0  0  0  0  0  0  0
   10.7516  -19.3240   18.4707 N   0  0  0  0  0  0  0  0  0  0  0  0
   10.4603  -17.5710   20.1260 C   0  0  0  0  0  0  0  0  0  0  0  0
   10.8450  -16.6767   19.3022 O   0  0  0  0  0  0  0  0  0  0  0  0
   11.2095  -22.0071   20.9137 C   0  0  0  0  0  0  0  0  0  0  0  0
   11.2482  -23.3295   20.5555 C   0  0  0  0  0  0  0  0  0  0  0  0
    5.4714  -14.7440   24.5848 C   0  0  0  0  0  0  0  0  0  0  0  0
    6.8635  -14.0823   23.5991 S   0  0  0  0  0  0  0  0  0  0  0  0
    7.7144  -15.4912   22.7826 C   0  0  0  0  0  0  0  0  0  0  0  0
    8.7514  -15.0043   21.8273 C   0  0  0  0  0  0  0  0  0  0  0  0
   10.0043  -15.8008   21.8821 C   0  0  2  0  0  0  0  0  0  0  0  0
    9.8369  -17.1611   21.3549 N   0  0  0  0  0  0  0  0  0  0  0  0
   10.7763  -15.7612   23.1301 C   0  0  0  0  0  0  0  0  0  0  0  0
   11.7817  -15.0550   23.2441 O   0  0  0  0  0  0  0  0  0  0  0  0
   10.3790  -16.5375   24.2343 N   0  0  0  0  0  0  0  0  0  0  0  0
   11.0908  -16.6312   25.4988 C   0  0  1  0  0  0  0  0  0  0  0  0
   10.7462  -15.3934   26.2908 C   0  0  0  0  0  0  0  0  0  0  0  0
    9.2749  -15.1728   26.3636 C   0  0  0  0  0  0  0  0  0  0  0  0
    8.2427  -16.0850   26.3224 C   0  0  0  0  0  0  0  0  0  0  0  0
    7.0701  -15.4387   26.4274 N   0  0  0  0  0  0  0  0  0  0  0  0
    7.2833  -14.1139   26.5359 C   0  0  0  0  0  0  0  0  0  0  0  0
    6.4042  -13.0589   26.6535 C   0  0  0  0  0  0  0  0  0  0  0  0
    6.9486  -11.7980   26.7337 C   0  0  0  0  0  0  0  0  0  0  0  0
    8.3227  -11.5796   26.6991 C   0  0  0  0  0  0  0  0  0  0  0  0
    9.1644  -12.6585   26.5804 C   0  0  0  0  0  0  0  0  0  0  0  0
    8.6519  -13.9345   26.4977 C   0  0  0  0  0  0  0  0  0  0  0  0
   10.7326  -17.8728   26.2244 C   0  0  0  0  0  0  0  0  0  0  0  0
   11.4168  -19.0518   25.8852 O   0  0  0  0  0  0  0  0  0  0  0  0
    9.8615  -17.9424   27.1143 O   0  0  0  0  0  0  0  0  0  0  0  0
  2  1  1  0
  3  2  2  0
  4  3  1  0
  5  4  2  0
  5 11  1  0
  6  7  1  0
  6  5  1  0
  7  8  1  6
  9  7  1  0
 10  9  2  0
 11 12  2  0
 12  2  1  0
 14 13  1  0
 14 15  1  0
 15 16  1  0
 17 16  1  1
 17 19  1  0
 17 18  1  0
 18  9  1  0
 19 21  1  0
 20 19  2  0
 21 22  1  0
 22 23  1  1
 22 33  1  0
 24 23  1  0
 25 24  2  0
 26 25  1  0
 27 26  1  0
 27 32  2  0
 28 27  1  0
 29 28  2  0
 29 30  1  0
 30 31  2  0
 31 32  1  0
 32 24  1  0
 33 35  2  0
 33 34  1  0
M  END
$$$$
