YMW.pdb
     RDKit          3D

 35 37  0  0  1  0  0  0  0  0999 V2000
   10.0730  -15.1391   13.8469 O   0  0  0  0  0  0  0  0  0  0  0  0
    9.7319  -16.0739   14.8110 C   0  0  0  0  0  0  0  0  0  0  0  0
    8.4951  -15.9994   15.4002 C   0  0  0  0  0  0  0  0  0  0  0  0
    8.1031  -16.8935   16.3586 C   0  0  0  0  0  0  0  0  0  0  0  0
    8.9565  -17.9120   16.7660 C   0  0  0  0  0  0  0  0  0  0  0  0
    8.5151  -18.8757   17.8192 C   0  0  0  0  0  0  0  0  0  0  0  0
    9.4635  -18.6965   18.9825 C   0  0  2  0  0  0  0  0  0  0  0  0
    9.1754  -19.7893   19.8971 N   0  0  0  0  0  0  0  0  0  0  0  0
    9.3538  -17.3818   19.6329 C   0  0  0  0  0  0  0  0  0  0  0  0
    9.3799  -16.2794   18.9922 O   0  0  0  0  0  0  0  0  0  0  0  0
   10.1851  -17.9787   16.1730 C   0  0  0  0  0  0  0  0  0  0  0  0
   10.5641  -17.0761   15.2137 C   0  0  0  0  0  0  0  0  0  0  0  0
    7.5320  -12.4109   19.3588 C   0  0  0  0  0  0  0  0  0  0  0  0
    6.9773  -12.6498   21.0858 S   0  0  0  0  0  0  0  0  0  0  0  0
    8.1362  -13.8138   21.9092 C   0  0  0  0  0  0  0  0  0  0  0  0
    8.2250  -15.0976   21.1550 C   0  0  0  0  0  0  0  0  0  0  0  0
    9.1339  -16.0814   21.7976 C   0  0  2  0  0  0  0  0  0  0  0  0
    9.2091  -17.3506   21.0630 N   0  0  0  0  0  0  0  0  0  0  0  0
    9.0125  -16.2660   23.2490 C   0  0  0  0  0  0  0  0  0  0  0  0
    8.1088  -16.9487   23.7386 O   0  0  0  0  0  0  0  0  0  0  0  0
    9.9364  -15.6604   24.1203 N   0  0  0  0  0  0  0  0  0  0  0  0
   10.1576  -16.0354   25.5077 C   0  0  1  0  0  0  0  0  0  0  0  0
    8.8403  -16.5424   26.0422 C   0  0  0  0  0  0  0  0  0  0  0  0
    7.7518  -15.5387   25.8790 C   0  0  0  0  0  0  0  0  0  0  0  0
    6.4760  -15.6935   25.3813 C   0  0  0  0  0  0  0  0  0  0  0  0
    5.8325  -14.5156   25.4261 N   0  0  0  0  0  0  0  0  0  0  0  0
    6.6409  -13.5690   25.9387 C   0  0  0  0  0  0  0  0  0  0  0  0
    6.4356  -12.2255   26.1674 C   0  0  0  0  0  0  0  0  0  0  0  0
    7.4857  -11.5151   26.7015 C   0  0  0  0  0  0  0  0  0  0  0  0
    8.7070  -12.1103   27.0032 C   0  0  0  0  0  0  0  0  0  0  0  0
    8.8706  -13.4521   26.7594 C   0  0  0  0  0  0  0  0  0  0  0  0
    7.8392  -14.1926   26.2251 C   0  0  0  0  0  0  0  0  0  0  0  0
   11.2319  -17.0498   25.6236 C   0  0  0  0  0  0  0  0  0  0  0  0
   11.8863  -17.4501   24.4469 O   0  0  0  0  0  0  0  0  0  0  0  0
   11.5921  -17.5750   26.6960 O   0  0  0  0  0  0  0  0  0  0  0  0
  2  1  1  0
  3  2  2  0
  4  3  1  0
  5  4  2  0
  5 11  1  0
  6  7  1  0
  6  5  1  0
  7  8  1  1
  9  7  1  0
 10  9  2  0
 11 12  2  0
 12  2  1  0
 14 13  1  0
 14 15  1  0
 15 16  1  0
 17 16  1  6
 17 19  1  0
 17 18  1  0
 18  9  1  0
 19 21  1  0
 20 19  2  0
 21 22  1  0
 22 23  1  6
 22 33  1  0
 24 23  1  0
 25 24  2  0
 26 25  1  0
 27 26  1  0
 27 32  2  0
 28 27  1  0
 29 28  2  0
 29 30  1  0
 30 31  2  0
 31 32  1  0
 32 24  1  0
 33 35  2  0
 33 34  1  0
M  END
$$$$
