HQC.pdb
     RDKit          3D

 26 26  0  0  1  0  0  0  0  0999 V2000
   14.8255  -12.4050  -14.2600 N   0  0  0  0  0  0  0  0  0  0  0  0
   15.6918  -12.1842  -13.1528 C   0  0  1  0  0  0  0  0  0  0  0  0
   16.9268  -13.0458  -13.2549 C   0  0  0  0  0  0  0  0  0  0  0  0
   16.6456  -14.4762  -13.1932 C   0  0  0  0  0  0  0  0  0  0  0  0
   16.4901  -15.2106  -12.0416 C   0  0  0  0  0  0  0  0  0  0  0  0
   16.2432  -16.4847  -12.3573 N   0  0  0  0  0  0  0  0  0  0  0  0
   16.2427  -16.5548  -13.6943 C   0  0  0  0  0  0  0  0  0  0  0  0
   16.4887  -15.3274  -14.2155 N   0  0  0  0  0  0  0  0  0  0  0  0
   16.1342  -10.7584  -13.0477 C   0  0  0  0  0  0  0  0  0  0  0  0
   16.3777  -10.1065  -14.0949 O   0  0  0  0  0  0  0  0  0  0  0  0
   15.0404   -7.4302   -7.9383 N   0  0  0  0  0  0  0  0  0  0  0  0
   15.6537   -6.4550   -8.7542 C   0  0  0  0  0  0  0  0  0  0  0  0
   15.7174   -5.2763   -8.2841 O   0  0  0  0  0  0  0  0  0  0  0  0
   16.1950   -6.8005  -10.0955 C   0  0  0  0  0  0  0  0  0  0  0  0
   16.0250   -8.2623  -10.3027 C   0  0  0  0  0  0  0  0  0  0  0  0
   16.5696   -8.7728  -11.6045 C   0  0  2  0  0  0  0  0  0  0  0  0
   16.2677  -10.1773  -11.7628 N   0  0  0  0  0  0  0  0  0  0  0  0
   17.9979   -8.5557  -11.7907 C   0  0  0  0  0  0  0  0  0  0  0  0
   18.9008   -9.3463  -11.3979 O   0  0  0  0  0  0  0  0  0  0  0  0
   18.4358   -7.3811  -12.4575 N   0  0  0  0  0  0  0  0  0  0  0  0
   19.8176   -7.2152  -12.8446 C   0  0  1  0  0  0  0  0  0  0  0  0
   20.2615   -8.3196  -13.7795 C   0  0  0  0  0  0  0  0  0  0  0  0
   21.9633   -7.9533  -14.2792 S   0  0  0  0  0  0  0  0  0  0  0  0
   19.9701   -5.9006  -13.5103 C   0  0  0  0  0  0  0  0  0  0  0  0
   18.9744   -5.3265  -13.9964 O   0  0  0  0  0  0  0  0  0  0  0  0
   21.2040   -5.2654  -13.6186 O   0  0  0  0  0  0  0  0  0  0  0  0
  2  1  1  6
  3  4  1  0
  3  2  1  0
  4  8  1  0
  5  6  1  0
  5  4  2  0
  6  7  1  0
  7  8  2  0
  9  2  1  0
  9 17  1  0
 10  9  2  0
 11 12  1  0
 12 14  1  0
 13 12  2  0
 15 14  1  0
 16 15  1  1
 16 18  1  0
 17 16  1  0
 18 19  2  0
 18 20  1  0
 20 21  1  0
 21 24  1  0
 22 23  1  0
 21 22  1  6
 24 25  2  0
 24 26  1  0
M  END
$$$$
