HQC.pdb
     RDKit          3D

 26 26  0  0  1  0  0  0  0  0999 V2000
   28.7741  -19.9421  -17.5706 N   0  0  0  0  0  0  0  0  0  0  0  0
   27.8276  -20.7937  -16.9349 C   0  0  1  0  0  0  0  0  0  0  0  0
   28.5213  -21.8989  -16.1764 C   0  0  0  0  0  0  0  0  0  0  0  0
   29.2746  -22.8089  -17.0328 C   0  0  0  0  0  0  0  0  0  0  0  0
   29.3418  -22.7431  -18.4042 C   0  0  0  0  0  0  0  0  0  0  0  0
   30.1186  -23.7302  -18.8586 N   0  0  0  0  0  0  0  0  0  0  0  0
   30.5378  -24.4125  -17.7856 C   0  0  0  0  0  0  0  0  0  0  0  0
   30.0250  -23.8544  -16.6612 N   0  0  0  0  0  0  0  0  0  0  0  0
   26.9506  -20.0564  -15.9721 C   0  0  0  0  0  0  0  0  0  0  0  0
   27.4436  -19.1485  -15.2553 O   0  0  0  0  0  0  0  0  0  0  0  0
   21.1951  -18.6907  -17.1197 N   0  0  0  0  0  0  0  0  0  0  0  0
   21.2179  -18.3463  -15.7509 C   0  0  0  0  0  0  0  0  0  0  0  0
   20.1733  -17.7934  -15.2846 O   0  0  0  0  0  0  0  0  0  0  0  0
   22.4100  -18.6214  -14.9056 C   0  0  0  0  0  0  0  0  0  0  0  0
   23.4269  -19.3066  -15.7454 C   0  0  0  0  0  0  0  0  0  0  0  0
   24.6780  -19.6948  -15.0133 C   0  0  2  0  0  0  0  0  0  0  0  0
   25.5795  -20.4032  -15.8933 N   0  0  0  0  0  0  0  0  0  0  0  0
   24.4552  -20.4799  -13.8066 C   0  0  0  0  0  0  0  0  0  0  0  0
   23.9432  -21.6340  -13.7861 O   0  0  0  0  0  0  0  0  0  0  0  0
   24.8301  -19.9348  -12.5503 N   0  0  0  0  0  0  0  0  0  0  0  0
   24.5892  -20.6573  -11.3228 C   0  0  1  0  0  0  0  0  0  0  0  0
   25.3605  -20.0520  -10.1699 C   0  0  0  0  0  0  0  0  0  0  0  0
   24.8974  -20.9608   -8.6733 S   0  0  0  0  0  0  0  0  0  0  0  0
   23.1374  -20.6248  -11.0293 C   0  0  0  0  0  0  0  0  0  0  0  0
   22.6585  -21.3792  -10.1582 O   0  0  0  0  0  0  0  0  0  0  0  0
   22.2667  -19.7698  -11.6989 O   0  0  0  0  0  0  0  0  0  0  0  0
  2  1  1  1
  3  4  1  0
  3  2  1  0
  4  8  1  0
  5  6  1  0
  5  4  2  0
  6  7  1  0
  7  8  2  0
  9  2  1  0
  9 17  1  0
 10  9  2  0
 11 12  1  0
 12 14  1  0
 13 12  2  0
 15 14  1  0
 16 15  1  6
 16 18  1  0
 17 16  1  0
 18 19  2  0
 18 20  1  0
 20 21  1  0
 21 24  1  0
 22 23  1  0
 21 22  1  1
 24 25  2  0
 24 26  1  0
M  END
$$$$
