HQC.pdb
     RDKit          3D

 26 26  0  0  1  0  0  0  0  0999 V2000
   23.3286  -13.8206  -17.6442 N   0  0  0  0  0  0  0  0  0  0  0  0
   23.4514  -12.9081  -16.5591 C   0  0  1  0  0  0  0  0  0  0  0  0
   24.8940  -12.5215  -16.3409 C   0  0  0  0  0  0  0  0  0  0  0  0
   25.7678  -13.6593  -16.0753 C   0  0  0  0  0  0  0  0  0  0  0  0
   25.7990  -14.3874  -14.9097 C   0  0  0  0  0  0  0  0  0  0  0  0
   26.7156  -15.3533  -15.0137 N   0  0  0  0  0  0  0  0  0  0  0  0
   27.2580  -15.2368  -16.2323 C   0  0  0  0  0  0  0  0  0  0  0  0
   26.6827  -14.2003  -16.8905 N   0  0  0  0  0  0  0  0  0  0  0  0
   22.6673  -11.6520  -16.7762 C   0  0  0  0  0  0  0  0  0  0  0  0
   22.7171  -11.0757  -17.8926 O   0  0  0  0  0  0  0  0  0  0  0  0
   17.0381  -11.2226  -15.2902 N   0  0  0  0  0  0  0  0  0  0  0  0
   17.2377   -9.8508  -15.5569 C   0  0  0  0  0  0  0  0  0  0  0  0
   16.1979   -9.1224  -15.6069 O   0  0  0  0  0  0  0  0  0  0  0  0
   18.6013   -9.2959  -15.7673 C   0  0  0  0  0  0  0  0  0  0  0  0
   19.5773  -10.4125  -15.6703 C   0  0  0  0  0  0  0  0  0  0  0  0
   21.0046  -10.0122  -15.9036 C   0  0  2  0  0  0  0  0  0  0  0  0
   21.8846  -11.1425  -15.7112 N   0  0  0  0  0  0  0  0  0  0  0  0
   21.4609   -8.8932  -15.0902 C   0  0  0  0  0  0  0  0  0  0  0  0
   22.1072   -9.0073  -14.0114 O   0  0  0  0  0  0  0  0  0  0  0  0
   21.1734   -7.5693  -15.5152 N   0  0  0  0  0  0  0  0  0  0  0  0
   21.5295   -6.4312  -14.7000 C   0  0  1  0  0  0  0  0  0  0  0  0
   22.8386   -5.8209  -15.1523 C   0  0  0  0  0  0  0  0  0  0  0  0
   23.1577   -4.3833  -14.0980 S   0  0  0  0  0  0  0  0  0  0  0  0
   20.4468   -5.4241  -14.7909 C   0  0  0  0  0  0  0  0  0  0  0  0
   19.7595   -5.3367  -15.8288 O   0  0  0  0  0  0  0  0  0  0  0  0
   20.1579   -4.5527  -13.7446 O   0  0  0  0  0  0  0  0  0  0  0  0
  2  1  1  6
  3  4  1  0
  3  2  1  0
  4  8  1  0
  5  6  1  0
  5  4  2  0
  6  7  1  0
  7  8  2  0
  9  2  1  0
  9 17  1  0
 10  9  2  0
 11 12  1  0
 12 14  1  0
 13 12  2  0
 15 14  1  0
 16 15  1  1
 16 18  1  0
 17 16  1  0
 18 19  2  0
 18 20  1  0
 20 21  1  0
 21 24  1  0
 22 23  1  0
 21 22  1  6
 24 25  2  0
 24 26  1  0
M  END
$$$$
