HQC.pdb
     RDKit          3D

 26 26  0  0  1  0  0  0  0  0999 V2000
   24.2492  -16.0812  -17.9065 N   0  0  0  0  0  0  0  0  0  0  0  0
   24.1004  -15.4821  -16.6242 C   0  0  1  0  0  0  0  0  0  0  0  0
   25.4053  -14.8884  -16.1523 C   0  0  0  0  0  0  0  0  0  0  0  0
   26.4977  -15.8540  -16.0959 C   0  0  0  0  0  0  0  0  0  0  0  0
   26.5975  -16.8958  -15.2046 C   0  0  0  0  0  0  0  0  0  0  0  0
   27.7232  -17.5751  -15.4398 N   0  0  0  0  0  0  0  0  0  0  0  0
   28.3284  -16.9690  -16.4689 C   0  0  0  0  0  0  0  0  0  0  0  0
   27.5837  -15.9121  -16.8778 N   0  0  0  0  0  0  0  0  0  0  0  0
   23.0719  -14.3950  -16.6164 C   0  0  0  0  0  0  0  0  0  0  0  0
   23.2473  -13.3711  -17.3248 O   0  0  0  0  0  0  0  0  0  0  0  0
   17.3206  -15.4167  -14.4816 N   0  0  0  0  0  0  0  0  0  0  0  0
   17.1875  -14.1046  -14.9852 C   0  0  0  0  0  0  0  0  0  0  0  0
   16.0195  -13.6046  -14.9723 O   0  0  0  0  0  0  0  0  0  0  0  0
   18.3622  -13.3537  -15.5025 C   0  0  0  0  0  0  0  0  0  0  0  0
   19.5620  -14.2210  -15.3727 C   0  0  0  0  0  0  0  0  0  0  0  0
   20.8372  -13.5941  -15.8553 C   0  0  2  0  0  0  0  0  0  0  0  0
   21.9205  -14.5495  -15.8059 N   0  0  0  0  0  0  0  0  0  0  0  0
   21.2223  -12.3812  -15.1465 C   0  0  0  0  0  0  0  0  0  0  0  0
   21.7647  -12.3582  -14.0064 O   0  0  0  0  0  0  0  0  0  0  0  0
   20.9832  -11.1211  -15.7557 N   0  0  0  0  0  0  0  0  0  0  0  0
   21.2801   -9.8896  -15.0615 C   0  0  1  0  0  0  0  0  0  0  0  0
   22.3081   -9.0710  -15.8123 C   0  0  0  0  0  0  0  0  0  0  0  0
   22.4225   -7.4612  -14.9904 S   0  0  0  0  0  0  0  0  0  0  0  0
   20.0272   -9.1125  -14.9152 C   0  0  0  0  0  0  0  0  0  0  0  0
   19.8302   -8.4313  -13.8884 O   0  0  0  0  0  0  0  0  0  0  0  0
   19.0397   -9.1106  -15.8962 O   0  0  0  0  0  0  0  0  0  0  0  0
  2  1  1  6
  3  4  1  0
  3  2  1  0
  4  8  1  0
  5  6  1  0
  5  4  2  0
  6  7  1  0
  7  8  2  0
  9  2  1  0
  9 17  1  0
 10  9  2  0
 11 12  1  0
 12 14  1  0
 13 12  2  0
 15 14  1  0
 16 15  1  1
 16 18  1  0
 17 16  1  0
 18 19  2  0
 18 20  1  0
 20 21  1  0
 21 24  1  0
 22 23  1  0
 21 22  1  6
 24 25  2  0
 24 26  1  0
M  END
$$$$
