HQC.pdb
     RDKit          3D

 26 26  0  0  1  0  0  0  0  0999 V2000
   24.7470  -18.1087  -18.2395 N   0  0  0  0  0  0  0  0  0  0  0  0
   23.7194  -18.2899  -17.2719 C   0  0  1  0  0  0  0  0  0  0  0  0
   22.3921  -17.7998  -17.7974 C   0  0  0  0  0  0  0  0  0  0  0  0
   22.4049  -16.3951  -18.1916 C   0  0  0  0  0  0  0  0  0  0  0  0
   22.3108  -15.9264  -19.4805 C   0  0  0  0  0  0  0  0  0  0  0  0
   22.3555  -14.5915  -19.4721 N   0  0  0  0  0  0  0  0  0  0  0  0
   22.4766  -14.2205  -18.1913 C   0  0  0  0  0  0  0  0  0  0  0  0
   22.5077  -15.3203  -17.3988 N   0  0  0  0  0  0  0  0  0  0  0  0
   23.5546  -19.7231  -16.8738 C   0  0  0  0  0  0  0  0  0  0  0  0
   23.9359  -20.6311  -17.6556 O   0  0  0  0  0  0  0  0  0  0  0  0
   24.8959  -22.5494  -12.1877 N   0  0  0  0  0  0  0  0  0  0  0  0
   24.8335  -23.5679  -13.1632 C   0  0  0  0  0  0  0  0  0  0  0  0
   25.0378  -24.7557  -12.7611 O   0  0  0  0  0  0  0  0  0  0  0  0
   24.5426  -23.2555  -14.5877 C   0  0  0  0  0  0  0  0  0  0  0  0
   24.3547  -21.7865  -14.7122 C   0  0  0  0  0  0  0  0  0  0  0  0
   22.9655  -21.3680  -15.0955 C   0  0  2  0  0  0  0  0  0  0  0  0
   22.9696  -20.0207  -15.6185 N   0  0  0  0  0  0  0  0  0  0  0  0
   21.9836  -21.4739  -14.0248 C   0  0  0  0  0  0  0  0  0  0  0  0
   21.8695  -20.6526  -13.0724 O   0  0  0  0  0  0  0  0  0  0  0  0
   21.0775  -22.5671  -14.0257 N   0  0  0  0  0  0  0  0  0  0  0  0
   19.9241  -22.5796  -13.1560 C   0  0  1  0  0  0  0  0  0  0  0  0
   19.0526  -21.3634  -13.3836 C   0  0  0  0  0  0  0  0  0  0  0  0
   17.6527  -21.4800  -12.2405 S   0  0  0  0  0  0  0  0  0  0  0  0
   19.1456  -23.8127  -13.4169 C   0  0  0  0  0  0  0  0  0  0  0  0
   19.0521  -24.2593  -14.5785 O   0  0  0  0  0  0  0  0  0  0  0  0
   18.5002  -24.5089  -12.3989 O   0  0  0  0  0  0  0  0  0  0  0  0
  2  1  1  6
  3  4  1  0
  3  2  1  0
  4  8  1  0
  5  6  1  0
  5  4  2  0
  6  7  1  0
  7  8  2  0
  9  2  1  0
  9 17  1  0
 10  9  2  0
 11 12  1  0
 12 14  1  0
 13 12  2  0
 15 14  1  0
 16 15  1  1
 16 18  1  0
 17 16  1  0
 18 19  2  0
 18 20  1  0
 20 21  1  0
 21 24  1  0
 22 23  1  0
 21 22  1  6
 24 25  2  0
 24 26  1  0
M  END
$$$$
