HQC.pdb
     RDKit          3D

 26 26  0  0  1  0  0  0  0  0999 V2000
   24.1715  -17.6090  -17.9939 N   0  0  0  0  0  0  0  0  0  0  0  0
   24.6220  -18.1658  -16.7642 C   0  0  1  0  0  0  0  0  0  0  0  0
   25.7788  -17.3735  -16.2058 C   0  0  0  0  0  0  0  0  0  0  0  0
   26.9808  -17.4380  -17.0304 C   0  0  0  0  0  0  0  0  0  0  0  0
   27.0889  -18.0920  -18.2347 C   0  0  0  0  0  0  0  0  0  0  0  0
   28.3281  -17.9440  -18.7107 N   0  0  0  0  0  0  0  0  0  0  0  0
   28.9960  -17.2043  -17.8166 C   0  0  0  0  0  0  0  0  0  0  0  0
   28.1774  -16.8893  -16.7825 N   0  0  0  0  0  0  0  0  0  0  0  0
   23.5462  -18.2026  -15.7246 C   0  0  0  0  0  0  0  0  0  0  0  0
   22.9680  -17.1363  -15.3934 O   0  0  0  0  0  0  0  0  0  0  0  0
   18.9799  -21.8441  -14.0482 N   0  0  0  0  0  0  0  0  0  0  0  0
   19.9816  -22.3519  -14.9035 C   0  0  0  0  0  0  0  0  0  0  0  0
   19.8832  -23.5748  -15.2337 O   0  0  0  0  0  0  0  0  0  0  0  0
   21.0923  -21.4901  -15.3881 C   0  0  0  0  0  0  0  0  0  0  0  0
   20.9052  -20.1288  -14.8219 C   0  0  0  0  0  0  0  0  0  0  0  0
   22.1304  -19.5501  -14.1771 C   0  0  2  0  0  0  0  0  0  0  0  0
   23.2056  -19.4457  -15.1373 N   0  0  0  0  0  0  0  0  0  0  0  0
   22.5943  -20.2723  -13.0002 C   0  0  0  0  0  0  0  0  0  0  0  0
   23.6229  -21.0041  -12.9668 O   0  0  0  0  0  0  0  0  0  0  0  0
   21.8584  -20.1648  -11.7907 N   0  0  0  0  0  0  0  0  0  0  0  0
   22.2822  -20.8583  -10.5964 C   0  0  1  0  0  0  0  0  0  0  0  0
   23.4451  -20.1507   -9.9350 C   0  0  0  0  0  0  0  0  0  0  0  0
   23.8671  -21.0841   -8.4415 S   0  0  0  0  0  0  0  0  0  0  0  0
   21.1381  -20.9317   -9.6581 C   0  0  0  0  0  0  0  0  0  0  0  0
   20.1281  -20.2235   -9.8469 O   0  0  0  0  0  0  0  0  0  0  0  0
   21.1428  -21.7756   -8.5512 O   0  0  0  0  0  0  0  0  0  0  0  0
  2  1  1  6
  3  4  1  0
  3  2  1  0
  4  8  1  0
  5  6  1  0
  5  4  2  0
  6  7  1  0
  7  8  2  0
  9  2  1  0
  9 17  1  0
 10  9  2  0
 11 12  1  0
 12 14  1  0
 13 12  2  0
 15 14  1  0
 16 15  1  6
 16 18  1  0
 17 16  1  0
 18 19  2  0
 18 20  1  0
 20 21  1  0
 21 24  1  0
 22 23  1  0
 21 22  1  1
 24 25  2  0
 24 26  1  0
M  END
$$$$
