HQC.pdb
     RDKit          3D

 26 26  0  0  1  0  0  0  0  0999 V2000
   28.9446  -10.8762  -17.9977 N   0  0  0  0  0  0  0  0  0  0  0  0
   29.7454   -9.8332  -18.5419 C   0  0  1  0  0  0  0  0  0  0  0  0
   28.9083   -8.8851  -19.3655 C   0  0  0  0  0  0  0  0  0  0  0  0
   28.3525   -9.4945  -20.5691 C   0  0  0  0  0  0  0  0  0  0  0  0
   27.0900   -9.2736  -21.0662 C   0  0  0  0  0  0  0  0  0  0  0  0
   26.9185   -9.9931  -22.1783 N   0  0  0  0  0  0  0  0  0  0  0  0
   28.0605  -10.6618  -22.3818 C   0  0  0  0  0  0  0  0  0  0  0  0
   28.9458  -10.3620  -21.3996 N   0  0  0  0  0  0  0  0  0  0  0  0
   30.4389   -9.0330  -17.4843 C   0  0  0  0  0  0  0  0  0  0  0  0
   29.8617   -8.8245  -16.3869 O   0  0  0  0  0  0  0  0  0  0  0  0
   35.9869   -9.8997  -15.8243 N   0  0  0  0  0  0  0  0  0  0  0  0
   35.7507   -8.7231  -15.0810 C   0  0  0  0  0  0  0  0  0  0  0  0
   36.6203   -8.4167  -14.2068 O   0  0  0  0  0  0  0  0  0  0  0  0
   34.5413   -7.8907  -15.3172 C   0  0  0  0  0  0  0  0  0  0  0  0
   33.7443   -8.5256  -16.3990 C   0  0  0  0  0  0  0  0  0  0  0  0
   32.4758   -7.8015  -16.7431 C   0  0  2  0  0  0  0  0  0  0  0  0
   31.7356   -8.5285  -17.7494 N   0  0  0  0  0  0  0  0  0  0  0  0
   32.6630   -6.4229  -17.1746 C   0  0  0  0  0  0  0  0  0  0  0  0
   32.8898   -6.0684  -18.3652 O   0  0  0  0  0  0  0  0  0  0  0  0
   32.5907   -5.3828  -16.2108 N   0  0  0  0  0  0  0  0  0  0  0  0
   32.7654   -4.0004  -16.5918 C   0  0  1  0  0  0  0  0  0  0  0  0
   31.8558   -3.0923  -15.7927 C   0  0  0  0  0  0  0  0  0  0  0  0
   32.1492   -1.3977  -16.3607 S   0  0  0  0  0  0  0  0  0  0  0  0
   34.1796   -3.6205  -16.3670 C   0  0  0  0  0  0  0  0  0  0  0  0
   34.7478   -3.9285  -15.2994 O   0  0  0  0  0  0  0  0  0  0  0  0
   34.9168   -2.9194  -17.3170 O   0  0  0  0  0  0  0  0  0  0  0  0
  2  1  1  1
  3  4  1  0
  3  2  1  0
  4  8  1  0
  5  6  1  0
  5  4  2  0
  6  7  1  0
  7  8  2  0
  9  2  1  0
  9 17  1  0
 10  9  2  0
 11 12  1  0
 12 14  1  0
 13 12  2  0
 15 14  1  0
 16 15  1  6
 16 18  1  0
 17 16  1  0
 18 19  2  0
 18 20  1  0
 20 21  1  0
 21 24  1  0
 22 23  1  0
 21 22  1  1
 24 25  2  0
 24 26  1  0
M  END
$$$$
