HQC.pdb
     RDKit          3D

 26 26  0  0  1  0  0  0  0  0999 V2000
   25.5369  -22.5994  -12.8613 N   0  0  0  0  0  0  0  0  0  0  0  0
   25.0601  -21.2670  -12.7109 C   0  0  1  0  0  0  0  0  0  0  0  0
   25.9437  -20.4812  -11.7730 C   0  0  0  0  0  0  0  0  0  0  0  0
   25.5511  -20.5934  -10.3723 C   0  0  0  0  0  0  0  0  0  0  0  0
   24.4620  -21.2875   -9.9012 C   0  0  0  0  0  0  0  0  0  0  0  0
   24.4061  -21.1767   -8.5713 N   0  0  0  0  0  0  0  0  0  0  0  0
   25.4489  -20.4206   -8.2058 C   0  0  0  0  0  0  0  0  0  0  0  0
   26.1568  -20.0582   -9.3041 N   0  0  0  0  0  0  0  0  0  0  0  0
   25.0015  -20.5300  -14.0121 C   0  0  0  0  0  0  0  0  0  0  0  0
   25.7891  -20.8468  -14.9396 O   0  0  0  0  0  0  0  0  0  0  0  0
   20.2406  -19.4642  -17.4649 N   0  0  0  0  0  0  0  0  0  0  0  0
   20.1512  -18.7586  -16.2455 C   0  0  0  0  0  0  0  0  0  0  0  0
   19.0174  -18.2647  -15.9543 O   0  0  0  0  0  0  0  0  0  0  0  0
   21.3313  -18.6068  -15.3533 C   0  0  0  0  0  0  0  0  0  0  0  0
   22.4921  -19.2712  -16.0013 C   0  0  0  0  0  0  0  0  0  0  0  0
   23.8275  -18.8658  -15.4498 C   0  0  2  0  0  0  0  0  0  0  0  0
   24.0542  -19.4881  -14.1652 N   0  0  0  0  0  0  0  0  0  0  0  0
   24.0254  -17.4269  -15.3377 C   0  0  0  0  0  0  0  0  0  0  0  0
   23.2886  -16.6518  -14.6664 O   0  0  0  0  0  0  0  0  0  0  0  0
   25.1153  -16.8255  -16.0206 N   0  0  0  0  0  0  0  0  0  0  0  0
   25.3406  -15.4001  -15.9548 C   0  0  1  0  0  0  0  0  0  0  0  0
   26.6896  -15.0858  -15.3449 C   0  0  0  0  0  0  0  0  0  0  0  0
   26.8869  -13.2856  -15.3677 S   0  0  0  0  0  0  0  0  0  0  0  0
   25.2661  -14.8434  -17.3257 C   0  0  0  0  0  0  0  0  0  0  0  0
   25.1693  -13.6109  -17.4958 O   0  0  0  0  0  0  0  0  0  0  0  0
   25.3002  -15.6550  -18.4561 O   0  0  0  0  0  0  0  0  0  0  0  0
  2  1  1  6
  3  4  1  0
  3  2  1  0
  4  8  1  0
  5  6  1  0
  5  4  2  0
  6  7  1  0
  7  8  2  0
  9  2  1  0
  9 17  1  0
 10  9  2  0
 11 12  1  0
 12 14  1  0
 13 12  2  0
 15 14  1  0
 16 15  1  1
 16 18  1  0
 17 16  1  0
 18 19  2  0
 18 20  1  0
 20 21  1  0
 21 24  1  0
 22 23  1  0
 21 22  1  6
 24 25  2  0
 24 26  1  0
M  END
$$$$
