HQC.pdb
     RDKit          3D

 26 26  0  0  1  0  0  0  0  0999 V2000
   21.7512  -12.2321  -18.5047 N   0  0  0  0  0  0  0  0  0  0  0  0
   22.4668  -11.1420  -17.9349 C   0  0  1  0  0  0  0  0  0  0  0  0
   23.4864  -10.6001  -18.9069 C   0  0  0  0  0  0  0  0  0  0  0  0
   24.4936  -11.5796  -19.3006 C   0  0  0  0  0  0  0  0  0  0  0  0
   24.6293  -12.8418  -18.7731 C   0  0  0  0  0  0  0  0  0  0  0  0
   25.6527  -13.4629  -19.3654 N   0  0  0  0  0  0  0  0  0  0  0  0
   26.1584  -12.6024  -20.2578 C   0  0  0  0  0  0  0  0  0  0  0  0
   25.4536  -11.4445  -20.2250 N   0  0  0  0  0  0  0  0  0  0  0  0
   21.5683  -10.0138  -17.5356 C   0  0  0  0  0  0  0  0  0  0  0  0
   20.5903   -9.7123  -18.2661 O   0  0  0  0  0  0  0  0  0  0  0  0
   18.8176   -9.5834  -12.5269 N   0  0  0  0  0  0  0  0  0  0  0  0
   18.4084   -8.3546  -13.0886 C   0  0  0  0  0  0  0  0  0  0  0  0
   17.3958   -7.7962  -12.5622 O   0  0  0  0  0  0  0  0  0  0  0  0
   19.1332   -7.7524  -14.2390 C   0  0  0  0  0  0  0  0  0  0  0  0
   20.1399   -8.7345  -14.7194 C   0  0  0  0  0  0  0  0  0  0  0  0
   20.9748   -8.2557  -15.8708 C   0  0  2  0  0  0  0  0  0  0  0  0
   21.8452   -9.3110  -16.3374 N   0  0  0  0  0  0  0  0  0  0  0  0
   21.7603   -7.0606  -15.5940 C   0  0  0  0  0  0  0  0  0  0  0  0
   22.8314   -7.0452  -14.9254 O   0  0  0  0  0  0  0  0  0  0  0  0
   21.3149   -5.8104  -16.0987 N   0  0  0  0  0  0  0  0  0  0  0  0
   22.0813   -4.6047  -15.8848 C   0  0  1  0  0  0  0  0  0  0  0  0
   21.7589   -3.5577  -16.9290 C   0  0  0  0  0  0  0  0  0  0  0  0
   22.2240   -4.2404  -18.5407 S   0  0  0  0  0  0  0  0  0  0  0  0
   21.7742   -4.0797  -14.5340 C   0  0  0  0  0  0  0  0  0  0  0  0
   20.6466   -4.2650  -14.0325 O   0  0  0  0  0  0  0  0  0  0  0  0
   22.7108   -3.3733  -13.7848 O   0  0  0  0  0  0  0  0  0  0  0  0
  2  1  1  6
  3  4  1  0
  3  2  1  0
  4  8  1  0
  5  6  1  0
  5  4  2  0
  6  7  1  0
  7  8  2  0
  9  2  1  0
  9 17  1  0
 10  9  2  0
 11 12  1  0
 12 14  1  0
 13 12  2  0
 15 14  1  0
 16 15  1  1
 16 18  1  0
 17 16  1  0
 18 19  2  0
 18 20  1  0
 20 21  1  0
 21 24  1  0
 22 23  1  0
 21 22  1  6
 24 25  2  0
 24 26  1  0
M  END
$$$$
