HQC.pdb
     RDKit          3D

 26 26  0  0  1  0  0  0  0  0999 V2000
   20.0283  -19.9912  -13.8742 N   0  0  0  0  0  0  0  0  0  0  0  0
   20.9217  -19.9055  -14.9786 C   0  0  1  0  0  0  0  0  0  0  0  0
   20.3584  -19.0151  -16.0594 C   0  0  0  0  0  0  0  0  0  0  0  0
   19.1648  -19.5589  -16.6984 C   0  0  0  0  0  0  0  0  0  0  0  0
   17.8720  -19.1717  -16.4366 C   0  0  0  0  0  0  0  0  0  0  0  0
   17.0339  -19.8767  -17.2011 N   0  0  0  0  0  0  0  0  0  0  0  0
   17.7890  -20.7007  -17.9383 C   0  0  0  0  0  0  0  0  0  0  0  0
   19.0975  -20.5127  -17.6365 N   0  0  0  0  0  0  0  0  0  0  0  0
   22.2617  -19.3643  -14.5899 C   0  0  0  0  0  0  0  0  0  0  0  0
   22.3420  -18.2204  -14.0739 O   0  0  0  0  0  0  0  0  0  0  0  0
   26.2385  -22.1800  -11.3107 N   0  0  0  0  0  0  0  0  0  0  0  0
   25.2149  -21.2822  -10.9378 C   0  0  0  0  0  0  0  0  0  0  0  0
   24.8884  -21.2678   -9.7100 O   0  0  0  0  0  0  0  0  0  0  0  0
   24.5580  -20.4014  -11.9398 C   0  0  0  0  0  0  0  0  0  0  0  0
   25.2027  -20.6360  -13.2582 C   0  0  0  0  0  0  0  0  0  0  0  0
   24.7155  -19.7374  -14.3569 C   0  0  2  0  0  0  0  0  0  0  0  0
   23.4116  -20.1601  -14.8150 N   0  0  0  0  0  0  0  0  0  0  0  0
   25.6200  -19.6243  -15.4931 C   0  0  0  0  0  0  0  0  0  0  0  0
   25.6801  -20.4495  -16.4470 O   0  0  0  0  0  0  0  0  0  0  0  0
   26.5083  -18.5186  -15.5600 N   0  0  0  0  0  0  0  0  0  0  0  0
   27.4302  -18.3690  -16.6620 C   0  0  1  0  0  0  0  0  0  0  0  0
   28.2984  -17.1416  -16.4878 C   0  0  0  0  0  0  0  0  0  0  0  0
   29.4572  -17.0974  -17.8790 S   0  0  0  0  0  0  0  0  0  0  0  0
   28.2801  -19.5800  -16.7384 C   0  0  0  0  0  0  0  0  0  0  0  0
   28.6924  -20.1216  -15.6925 O   0  0  0  0  0  0  0  0  0  0  0  0
   28.6457  -20.1512  -17.9540 O   0  0  0  0  0  0  0  0  0  0  0  0
  2  1  1  1
  3  4  1  0
  3  2  1  0
  4  8  1  0
  5  6  1  0
  5  4  2  0
  6  7  1  0
  7  8  2  0
  9  2  1  0
  9 17  1  0
 10  9  2  0
 11 12  1  0
 12 14  1  0
 13 12  2  0
 15 14  1  0
 16 15  1  1
 16 18  1  0
 17 16  1  0
 18 19  2  0
 18 20  1  0
 20 21  1  0
 21 24  1  0
 22 23  1  0
 21 22  1  1
 24 25  2  0
 24 26  1  0
M  END
$$$$
