HQC.pdb
     RDKit          3D

 26 26  0  0  1  0  0  0  0  0999 V2000
   24.7094  -18.6792  -18.5889 N   0  0  0  0  0  0  0  0  0  0  0  0
   24.2253  -18.1683  -17.3521 C   0  0  1  0  0  0  0  0  0  0  0  0
   23.1254  -17.1600  -17.5792 C   0  0  0  0  0  0  0  0  0  0  0  0
   23.5744  -15.9532  -18.2654 C   0  0  0  0  0  0  0  0  0  0  0  0
   24.4584  -15.0294  -17.7606 C   0  0  0  0  0  0  0  0  0  0  0  0
   24.6421  -14.0552  -18.6556 N   0  0  0  0  0  0  0  0  0  0  0  0
   23.8821  -14.3601  -19.7149 C   0  0  0  0  0  0  0  0  0  0  0  0
   23.2236  -15.5228  -19.4844 N   0  0  0  0  0  0  0  0  0  0  0  0
   23.6861  -19.2429  -16.4609 C   0  0  0  0  0  0  0  0  0  0  0  0
   22.9929  -20.1681  -16.9554 O   0  0  0  0  0  0  0  0  0  0  0  0
   25.9911  -21.5289  -11.1688 N   0  0  0  0  0  0  0  0  0  0  0  0
   24.6398  -21.3378  -10.8077 C   0  0  0  0  0  0  0  0  0  0  0  0
   24.2759  -21.8152   -9.6879 O   0  0  0  0  0  0  0  0  0  0  0  0
   23.6975  -20.6126  -11.7007 C   0  0  0  0  0  0  0  0  0  0  0  0
   24.4045  -20.3058  -12.9714 C   0  0  0  0  0  0  0  0  0  0  0  0
   23.5116  -20.2211  -14.1745 C   0  0  2  0  0  0  0  0  0  0  0  0
   23.9730  -19.1889  -15.0748 N   0  0  0  0  0  0  0  0  0  0  0  0
   22.1028  -20.0105  -13.8700 C   0  0  0  0  0  0  0  0  0  0  0  0
   21.6281  -18.9549  -13.3650 O   0  0  0  0  0  0  0  0  0  0  0  0
   21.1743  -21.0476  -14.1499 N   0  0  0  0  0  0  0  0  0  0  0  0
   19.7585  -20.8583  -13.9343 C   0  0  1  0  0  0  0  0  0  0  0  0
   18.9498  -21.4055  -15.0907 C   0  0  0  0  0  0  0  0  0  0  0  0
   19.5247  -23.0948  -15.4007 S   0  0  0  0  0  0  0  0  0  0  0  0
   19.3726  -21.5461  -12.6802 C   0  0  0  0  0  0  0  0  0  0  0  0
   18.2373  -21.3683  -12.1933 O   0  0  0  0  0  0  0  0  0  0  0  0
   20.2418  -22.4004  -12.0079 O   0  0  0  0  0  0  0  0  0  0  0  0
  2  1  1  6
  3  4  1  0
  3  2  1  0
  4  8  1  0
  5  6  1  0
  5  4  2  0
  6  7  1  0
  7  8  2  0
  9  2  1  0
  9 17  1  0
 10  9  2  0
 11 12  1  0
 12 14  1  0
 13 12  2  0
 15 14  1  0
 16 15  1  1
 16 18  1  0
 17 16  1  0
 18 19  2  0
 18 20  1  0
 20 21  1  0
 21 24  1  0
 22 23  1  0
 21 22  1  6
 24 25  2  0
 24 26  1  0
M  END
$$$$
