HQC.pdb
     RDKit          3D

 26 26  0  0  1  0  0  0  0  0999 V2000
   27.6345  -20.2780  -16.8511 N   0  0  0  0  0  0  0  0  0  0  0  0
   26.9570  -19.4675  -15.8976 C   0  0  1  0  0  0  0  0  0  0  0  0
   26.2540  -18.3151  -16.5728 C   0  0  0  0  0  0  0  0  0  0  0  0
   27.1662  -17.3529  -17.1817 C   0  0  0  0  0  0  0  0  0  0  0  0
   27.6237  -17.3954  -18.4773 C   0  0  0  0  0  0  0  0  0  0  0  0
   28.4399  -16.3606  -18.6943 N   0  0  0  0  0  0  0  0  0  0  0  0
   28.4976  -15.6714  -17.5479 C   0  0  0  0  0  0  0  0  0  0  0  0
   27.7193  -16.2728  -16.6144 N   0  0  0  0  0  0  0  0  0  0  0  0
   25.9360  -20.2344  -15.1172 C   0  0  0  0  0  0  0  0  0  0  0  0
   25.2303  -21.0968  -15.6997 O   0  0  0  0  0  0  0  0  0  0  0  0
   25.9032  -20.3800   -8.8901 N   0  0  0  0  0  0  0  0  0  0  0  0
   24.7501  -21.1438   -9.1727 C   0  0  0  0  0  0  0  0  0  0  0  0
   24.1671  -21.6840   -8.1815 O   0  0  0  0  0  0  0  0  0  0  0  0
   24.2511  -21.3018  -10.5645 C   0  0  0  0  0  0  0  0  0  0  0  0
   25.1633  -20.5586  -11.4724 C   0  0  0  0  0  0  0  0  0  0  0  0
   24.8284  -20.6851  -12.9297 C   0  0  2  0  0  0  0  0  0  0  0  0
   25.7907  -19.9666  -13.7339 N   0  0  0  0  0  0  0  0  0  0  0  0
   23.4810  -20.2574  -13.2812 C   0  0  0  0  0  0  0  0  0  0  0  0
   23.1112  -19.0534  -13.3711 O   0  0  0  0  0  0  0  0  0  0  0  0
   22.4924  -21.2414  -13.5469 N   0  0  0  0  0  0  0  0  0  0  0  0
   21.1362  -20.8659  -13.8730 C   0  0  1  0  0  0  0  0  0  0  0  0
   20.5470  -21.7908  -14.9161 C   0  0  0  0  0  0  0  0  0  0  0  0
   18.8100  -21.3256  -15.1317 S   0  0  0  0  0  0  0  0  0  0  0  0
   20.3194  -20.9149  -12.6380 C   0  0  0  0  0  0  0  0  0  0  0  0
   20.5114  -21.8163  -11.7966 O   0  0  0  0  0  0  0  0  0  0  0  0
   19.3257  -19.9774  -12.3711 O   0  0  0  0  0  0  0  0  0  0  0  0
  2  1  1  6
  3  4  1  0
  3  2  1  0
  4  8  1  0
  5  6  1  0
  5  4  2  0
  6  7  1  0
  7  8  2  0
  9  2  1  0
  9 17  1  0
 10  9  2  0
 11 12  1  0
 12 14  1  0
 13 12  2  0
 15 14  1  0
 16 15  1  1
 16 18  1  0
 17 16  1  0
 18 19  2  0
 18 20  1  0
 20 21  1  0
 21 24  1  0
 22 23  1  0
 21 22  1  6
 24 25  2  0
 24 26  1  0
M  END
$$$$
