HQC.pdb
     RDKit          3D

 26 26  0  0  1  0  0  0  0  0999 V2000
   28.1796  -21.1645  -17.0905 N   0  0  0  0  0  0  0  0  0  0  0  0
   27.5769  -20.1935  -16.2426 C   0  0  1  0  0  0  0  0  0  0  0  0
   27.0611  -19.0237  -17.0448 C   0  0  0  0  0  0  0  0  0  0  0  0
   28.1160  -18.2515  -17.6925 C   0  0  0  0  0  0  0  0  0  0  0  0
   28.7686  -17.1734  -17.1433 C   0  0  0  0  0  0  0  0  0  0  0  0
   29.6716  -16.7111  -18.0122 N   0  0  0  0  0  0  0  0  0  0  0  0
   29.5906  -17.4889  -19.0990 C   0  0  0  0  0  0  0  0  0  0  0  0
   28.6389  -18.4365  -18.9118 N   0  0  0  0  0  0  0  0  0  0  0  0
   26.4322  -20.7517  -15.4567 C   0  0  0  0  0  0  0  0  0  0  0  0
   25.5960  -21.4989  -16.0254 O   0  0  0  0  0  0  0  0  0  0  0  0
   26.1074  -20.3310   -9.2243 N   0  0  0  0  0  0  0  0  0  0  0  0
   24.9102  -21.0231   -9.5083 C   0  0  0  0  0  0  0  0  0  0  0  0
   24.2187  -21.3992   -8.5110 O   0  0  0  0  0  0  0  0  0  0  0  0
   24.4886  -21.2934  -10.9085 C   0  0  0  0  0  0  0  0  0  0  0  0
   25.5412  -20.7729  -11.8194 C   0  0  0  0  0  0  0  0  0  0  0  0
   25.2300  -20.9246  -13.2795 C   0  0  2  0  0  0  0  0  0  0  0  0
   26.3203  -20.4213  -14.0838 N   0  0  0  0  0  0  0  0  0  0  0  0
   23.9829  -20.3012  -13.7013 C   0  0  0  0  0  0  0  0  0  0  0  0
   23.8681  -19.0947  -14.0560 O   0  0  0  0  0  0  0  0  0  0  0  0
   22.7961  -21.0803  -13.7255 N   0  0  0  0  0  0  0  0  0  0  0  0
   21.5325  -20.5012  -14.1187 C   0  0  1  0  0  0  0  0  0  0  0  0
   21.3010  -20.6491  -15.6070 C   0  0  0  0  0  0  0  0  0  0  0  0
   20.1987  -22.0664  -15.8444 S   0  0  0  0  0  0  0  0  0  0  0  0
   20.4468  -21.1771  -13.3709 C   0  0  0  0  0  0  0  0  0  0  0  0
   19.3483  -20.6068  -13.2114 O   0  0  0  0  0  0  0  0  0  0  0  0
   20.6041  -22.4487  -12.8271 O   0  0  0  0  0  0  0  0  0  0  0  0
  2  1  1  6
  3  4  1  0
  3  2  1  0
  4  8  1  0
  5  6  1  0
  5  4  2  0
  6  7  1  0
  7  8  2  0
  9  2  1  0
  9 17  1  0
 10  9  2  0
 11 12  1  0
 12 14  1  0
 13 12  2  0
 15 14  1  0
 16 15  1  1
 16 18  1  0
 17 16  1  0
 18 19  2  0
 18 20  1  0
 20 21  1  0
 21 24  1  0
 22 23  1  0
 21 22  1  6
 24 25  2  0
 24 26  1  0
M  END
$$$$
