MGH.pdb
     RDKit          3D

 23 23  0  0  1  0  0  0  0  0999 V2000
   18.2291  -16.3282  -14.5541 C   0  0  0  0  0  0  0  0  0  0  0  0
   17.1739  -15.6325  -15.8803 S   0  0  0  0  0  0  0  0  0  0  0  0
   18.1772  -14.5521  -16.9312 C   0  0  0  0  0  0  0  0  0  0  0  0
   18.0518  -13.0945  -16.4688 C   0  0  0  0  0  0  0  0  0  0  0  0
   19.1108  -12.2437  -17.1129 C   0  0  2  0  0  0  0  0  0  0  0  0
   20.4374  -12.6233  -16.6711 N   0  0  0  0  0  0  0  0  0  0  0  0
   18.8524  -10.8012  -16.8615 C   0  0  0  0  0  0  0  0  0  0  0  0
   17.7851  -10.2509  -17.2352 O   0  0  0  0  0  0  0  0  0  0  0  0
   19.7937   -9.9946  -16.1944 N   0  0  0  0  0  0  0  0  0  0  0  0
   19.5769   -8.6034  -15.8798 C   0  0  0  0  0  0  0  0  0  0  0  0
   20.7540   -8.0334  -15.2034 C   0  0  0  0  0  0  0  0  0  0  0  0
   21.5465   -8.7966  -14.5981 O   0  0  0  0  0  0  0  0  0  0  0  0
   21.0674   -6.6510  -15.1845 N   0  0  0  0  0  0  0  0  0  0  0  0
   22.2715   -6.1095  -14.5783 C   0  0  1  0  0  0  0  0  0  0  0  0
   23.0716   -5.2803  -15.5144 C   0  0  0  0  0  0  0  0  0  0  0  0
   23.4230   -6.0734  -16.7084 C   0  0  0  0  0  0  0  0  0  0  0  0
   24.5750   -6.8567  -16.7898 C   0  0  0  0  0  0  0  0  0  0  0  0
   24.6340   -7.4603  -17.9850 N   0  0  0  0  0  0  0  0  0  0  0  0
   23.5472   -7.0814  -18.6692 C   0  0  0  0  0  0  0  0  0  0  0  0
   22.8167   -6.2368  -17.8821 N   0  0  0  0  0  0  0  0  0  0  0  0
   21.8324   -5.2677  -13.4385 C   0  0  0  0  0  0  0  0  0  0  0  0
   22.6453   -4.8333  -12.4133 O   0  0  0  0  0  0  0  0  0  0  0  0
   20.6126   -4.8854  -13.3461 O   0  0  0  0  0  0  0  0  0  0  0  0
  2  1  1  0
  3  4  1  0
  3  2  1  0
  5  7  1  0
  5  4  1  0
  5  6  1  1
  7  9  1  0
  8  7  2  0
  9 10  1  0
 11 10  1  0
 11 12  2  0
 13 11  1  0
 14 13  1  0
 14 15  1  6
 15 16  1  0
 16 20  1  0
 16 17  2  0
 17 18  1  0
 19 18  1  0
 20 19  2  0
 21 14  1  0
 22 21  1  0
 23 21  2  0
M  END
$$$$
