MGH.pdb
     RDKit          3D

 23 23  0  0  1  0  0  0  0  0999 V2000
   26.0315  -19.7494  -10.7292 C   0  0  0  0  0  0  0  0  0  0  0  0
   27.1987  -21.1338  -11.0079 S   0  0  0  0  0  0  0  0  0  0  0  0
   28.4773  -20.6055  -12.1760 C   0  0  0  0  0  0  0  0  0  0  0  0
   28.2727  -21.2898  -13.5339 C   0  0  0  0  0  0  0  0  0  0  0  0
   28.1625  -20.2660  -14.6294 C   0  0  2  0  0  0  0  0  0  0  0  0
   28.2970  -18.9193  -14.1122 N   0  0  0  0  0  0  0  0  0  0  0  0
   26.8879  -20.4302  -15.3772 C   0  0  0  0  0  0  0  0  0  0  0  0
   26.6001  -21.5098  -15.9544 O   0  0  0  0  0  0  0  0  0  0  0  0
   25.9526  -19.3820  -15.4680 N   0  0  0  0  0  0  0  0  0  0  0  0
   24.6467  -19.5229  -16.0647 C   0  0  0  0  0  0  0  0  0  0  0  0
   23.7106  -20.1597  -15.1233 C   0  0  0  0  0  0  0  0  0  0  0  0
   23.7649  -21.4016  -14.9455 O   0  0  0  0  0  0  0  0  0  0  0  0
   22.7270  -19.4565  -14.3832 N   0  0  0  0  0  0  0  0  0  0  0  0
   21.9464  -20.0557  -13.3145 C   0  0  1  0  0  0  0  0  0  0  0  0
   22.0512  -19.3150  -12.0321 C   0  0  0  0  0  0  0  0  0  0  0  0
   21.1941  -19.9543  -11.0148 C   0  0  0  0  0  0  0  0  0  0  0  0
   21.6779  -20.8667  -10.0764 C   0  0  0  0  0  0  0  0  0  0  0  0
   20.6790  -21.2815   -9.2848 N   0  0  0  0  0  0  0  0  0  0  0  0
   19.5686  -20.6557   -9.6949 C   0  0  0  0  0  0  0  0  0  0  0  0
   19.8939  -19.8499  -10.7491 N   0  0  0  0  0  0  0  0  0  0  0  0
   20.5329  -20.0486  -13.7647 C   0  0  0  0  0  0  0  0  0  0  0  0
   19.9758  -19.1182  -14.6159 O   0  0  0  0  0  0  0  0  0  0  0  0
   19.7189  -20.9530  -13.3619 O   0  0  0  0  0  0  0  0  0  0  0  0
  2  1  1  0
  3  4  1  0
  3  2  1  0
  5  7  1  0
  5  4  1  0
  5  6  1  1
  7  9  1  0
  8  7  2  0
  9 10  1  0
 11 10  1  0
 11 12  2  0
 13 11  1  0
 14 13  1  0
 14 15  1  1
 15 16  1  0
 16 20  1  0
 16 17  2  0
 17 18  1  0
 19 18  1  0
 20 19  2  0
 21 14  1  0
 22 21  1  0
 23 21  2  0
M  END
$$$$
