MGH.pdb
     RDKit          3D

 23 23  0  0  1  0  0  0  0  0999 V2000
   29.8428  -19.8597   -6.6638 C   0  0  0  0  0  0  0  0  0  0  0  0
   28.4032  -19.4145   -5.6217 S   0  0  0  0  0  0  0  0  0  0  0  0
   26.8901  -19.5662   -6.6045 C   0  0  0  0  0  0  0  0  0  0  0  0
   27.2181  -20.0906   -8.0085 C   0  0  0  0  0  0  0  0  0  0  0  0
   25.9928  -20.0688   -8.8794 C   0  0  2  0  0  0  0  0  0  0  0  0
   24.9418  -20.9059   -8.3373 N   0  0  0  0  0  0  0  0  0  0  0  0
   26.3300  -20.4636  -10.2727 C   0  0  0  0  0  0  0  0  0  0  0  0
   27.0422  -19.7328  -11.0077 O   0  0  0  0  0  0  0  0  0  0  0  0
   25.8645  -21.6725  -10.8236 N   0  0  0  0  0  0  0  0  0  0  0  0
   26.1196  -22.0844  -12.1826 C   0  0  0  0  0  0  0  0  0  0  0  0
   24.9908  -21.7231  -13.0562 C   0  0  0  0  0  0  0  0  0  0  0  0
   24.9989  -22.0902  -14.2570 O   0  0  0  0  0  0  0  0  0  0  0  0
   23.8662  -20.9720  -12.6313 N   0  0  0  0  0  0  0  0  0  0  0  0
   22.7222  -20.6897  -13.4811 C   0  0  1  0  0  0  0  0  0  0  0  0
   21.5536  -20.1676  -12.7289 C   0  0  0  0  0  0  0  0  0  0  0  0
   20.9719  -21.2423  -11.9014 C   0  0  0  0  0  0  0  0  0  0  0  0
   20.8074  -22.5504  -12.3586 C   0  0  0  0  0  0  0  0  0  0  0  0
   20.2568  -23.3049  -11.3974 N   0  0  0  0  0  0  0  0  0  0  0  0
   20.0656  -22.5102  -10.3369 C   0  0  0  0  0  0  0  0  0  0  0  0
   20.5047  -21.2562  -10.6550 N   0  0  0  0  0  0  0  0  0  0  0  0
   23.1631  -19.6684  -14.4626 C   0  0  0  0  0  0  0  0  0  0  0  0
   22.5461  -19.4072  -15.6674 O   0  0  0  0  0  0  0  0  0  0  0  0
   24.1931  -18.9433  -14.2263 O   0  0  0  0  0  0  0  0  0  0  0  0
  2  1  1  0
  3  4  1  0
  3  2  1  0
  5  7  1  0
  5  4  1  0
  5  6  1  1
  7  9  1  0
  8  7  2  0
  9 10  1  0
 11 10  1  0
 11 12  2  0
 13 11  1  0
 14 13  1  0
 14 15  1  1
 15 16  1  0
 16 20  1  0
 16 17  2  0
 17 18  1  0
 19 18  1  0
 20 19  2  0
 21 14  1  0
 22 21  1  0
 23 21  2  0
M  END
$$$$
