MGH.pdb
     RDKit          3D

 23 23  0  0  1  0  0  0  0  0999 V2000
   41.0372  -35.2623   -6.3789 C   0  0  0  0  0  0  0  0  0  0  0  0
   40.7049  -37.0539   -6.5694 S   0  0  0  0  0  0  0  0  0  0  0  0
   39.8965  -37.6698   -5.0708 C   0  0  0  0  0  0  0  0  0  0  0  0
   38.4849  -37.0811   -4.9478 C   0  0  0  0  0  0  0  0  0  0  0  0
   37.7696  -37.6691   -3.7633 C   0  0  2  0  0  0  0  0  0  0  0  0
   37.6875  -39.1126   -3.8563 N   0  0  0  0  0  0  0  0  0  0  0  0
   36.4210  -37.0625   -3.6084 C   0  0  0  0  0  0  0  0  0  0  0  0
   35.4130  -37.5483   -4.1825 O   0  0  0  0  0  0  0  0  0  0  0  0
   36.2200  -35.9193   -2.8119 N   0  0  0  0  0  0  0  0  0  0  0  0
   34.9337  -35.2965   -2.6142 C   0  0  0  0  0  0  0  0  0  0  0  0
   34.2817  -35.8226   -1.4033 C   0  0  0  0  0  0  0  0  0  0  0  0
   34.8084  -36.7815   -0.7870 O   0  0  0  0  0  0  0  0  0  0  0  0
   33.0719  -35.3135   -0.8677 N   0  0  0  0  0  0  0  0  0  0  0  0
   32.4769  -35.7932    0.3678 C   0  0  1  0  0  0  0  0  0  0  0  0
   31.5993  -34.7884    1.0192 C   0  0  0  0  0  0  0  0  0  0  0  0
   31.1162  -35.3109    2.3121 C   0  0  0  0  0  0  0  0  0  0  0  0
   31.7887  -36.2984    3.0330 C   0  0  0  0  0  0  0  0  0  0  0  0
   31.1215  -36.5747    4.1622 N   0  0  0  0  0  0  0  0  0  0  0  0
   30.0388  -35.7871    4.1800 C   0  0  0  0  0  0  0  0  0  0  0  0
   30.0456  -35.0216    3.0484 N   0  0  0  0  0  0  0  0  0  0  0  0
   31.6697  -36.9870    0.0158 C   0  0  0  0  0  0  0  0  0  0  0  0
   31.4392  -37.4393   -1.2660 O   0  0  0  0  0  0  0  0  0  0  0  0
   31.1177  -37.6910    0.9336 O   0  0  0  0  0  0  0  0  0  0  0  0
  2  1  1  0
  3  4  1  0
  3  2  1  0
  5  7  1  0
  5  4  1  0
  5  6  1  6
  7  9  1  0
  8  7  2  0
  9 10  1  0
 11 10  1  0
 11 12  2  0
 13 11  1  0
 14 13  1  0
 14 15  1  6
 15 16  1  0
 16 20  1  0
 16 17  2  0
 17 18  1  0
 19 18  1  0
 20 19  2  0
 21 14  1  0
 22 21  1  0
 23 21  2  0
M  END
$$$$
