MGH.pdb
     RDKit          3D

 23 23  0  0  1  0  0  0  0  0999 V2000
   22.7958  -11.0170    5.9753 C   0  0  0  0  0  0  0  0  0  0  0  0
   22.3798  -10.4386    7.6632 S   0  0  0  0  0  0  0  0  0  0  0  0
   20.6002  -10.6326    7.9348 C   0  0  0  0  0  0  0  0  0  0  0  0
   20.0383  -11.7267    7.0176 C   0  0  0  0  0  0  0  0  0  0  0  0
   18.5942  -11.9944    7.3390 C   0  0  2  0  0  0  0  0  0  0  0  0
   18.4165  -12.3381    8.7352 N   0  0  0  0  0  0  0  0  0  0  0  0
   18.0444  -13.0521    6.4504 C   0  0  0  0  0  0  0  0  0  0  0  0
   18.0565  -12.9295    5.1988 O   0  0  0  0  0  0  0  0  0  0  0  0
   17.4882  -14.2334    6.9765 N   0  0  0  0  0  0  0  0  0  0  0  0
   16.9182  -15.2813    6.1649 C   0  0  0  0  0  0  0  0  0  0  0  0
   16.4745  -16.4065    7.0046 C   0  0  0  0  0  0  0  0  0  0  0  0
   16.7913  -16.4313    8.2194 O   0  0  0  0  0  0  0  0  0  0  0  0
   15.6958  -17.4923    6.5311 N   0  0  0  0  0  0  0  0  0  0  0  0
   15.4739  -18.7114    7.2894 C   0  0  1  0  0  0  0  0  0  0  0  0
   16.7349  -19.3863    7.6877 C   0  0  0  0  0  0  0  0  0  0  0  0
   16.9027  -20.6297    6.9105 C   0  0  0  0  0  0  0  0  0  0  0  0
   16.9927  -20.6506    5.5182 C   0  0  0  0  0  0  0  0  0  0  0  0
   17.1393  -21.9117    5.0884 N   0  0  0  0  0  0  0  0  0  0  0  0
   17.1452  -22.6969    6.1729 C   0  0  0  0  0  0  0  0  0  0  0  0
   17.0005  -21.9056    7.2772 N   0  0  0  0  0  0  0  0  0  0  0  0
   14.7251  -18.3231    8.5097 C   0  0  0  0  0  0  0  0  0  0  0  0
   13.5752  -18.9336    8.9630 O   0  0  0  0  0  0  0  0  0  0  0  0
   15.1311  -17.3498    9.2381 O   0  0  0  0  0  0  0  0  0  0  0  0
  2  1  1  0
  3  4  1  0
  3  2  1  0
  5  7  1  0
  5  4  1  0
  5  6  1  1
  7  9  1  0
  8  7  2  0
  9 10  1  0
 11 10  1  0
 11 12  2  0
 13 11  1  0
 14 13  1  0
 14 15  1  1
 15 16  1  0
 16 20  1  0
 16 17  2  0
 17 18  1  0
 19 18  1  0
 20 19  2  0
 21 14  1  0
 22 21  1  0
 23 21  2  0
M  END
$$$$
