MGH.pdb
     RDKit          3D

 23 23  0  0  1  0  0  0  0  0999 V2000
   20.4226  -26.2438    1.4964 C   0  0  0  0  0  0  0  0  0  0  0  0
   21.0320  -24.7710    2.3998 S   0  0  0  0  0  0  0  0  0  0  0  0
   19.6228  -23.7289    2.8542 C   0  0  0  0  0  0  0  0  0  0  0  0
   19.1118  -24.1050    4.2512 C   0  0  0  0  0  0  0  0  0  0  0  0
   17.9395  -23.2448    4.6333 C   0  0  2  0  0  0  0  0  0  0  0  0
   18.1578  -21.8592    4.2706 N   0  0  0  0  0  0  0  0  0  0  0  0
   17.6374  -23.3802    6.0829 C   0  0  0  0  0  0  0  0  0  0  0  0
   17.2318  -24.4664    6.5700 O   0  0  0  0  0  0  0  0  0  0  0  0
   17.7940  -22.2962    6.9673 N   0  0  0  0  0  0  0  0  0  0  0  0
   17.6704  -22.4071    8.4004 C   0  0  0  0  0  0  0  0  0  0  0  0
   18.6428  -21.5316    9.0757 C   0  0  0  0  0  0  0  0  0  0  0  0
   19.4754  -20.8901    8.3887 O   0  0  0  0  0  0  0  0  0  0  0  0
   18.7105  -21.3545   10.4806 N   0  0  0  0  0  0  0  0  0  0  0  0
   19.6797  -20.4924   11.1348 C   0  0  1  0  0  0  0  0  0  0  0  0
   19.0600  -19.5436   12.0939 C   0  0  0  0  0  0  0  0  0  0  0  0
   18.2890  -18.5224   11.3584 C   0  0  0  0  0  0  0  0  0  0  0  0
   17.0763  -18.7949   10.7241 C   0  0  0  0  0  0  0  0  0  0  0  0
   16.6066  -17.6843   10.1390 N   0  0  0  0  0  0  0  0  0  0  0  0
   17.4902  -16.7087   10.3844 C   0  0  0  0  0  0  0  0  0  0  0  0
   18.5108  -17.2303   11.1278 N   0  0  0  0  0  0  0  0  0  0  0  0
   20.6141  -21.3817   11.8672 C   0  0  0  0  0  0  0  0  0  0  0  0
   20.4190  -22.7285   12.0880 O   0  0  0  0  0  0  0  0  0  0  0  0
   21.7034  -20.9166   12.3569 O   0  0  0  0  0  0  0  0  0  0  0  0
  2  1  1  0
  3  4  1  0
  3  2  1  0
  5  7  1  0
  5  4  1  0
  5  6  1  1
  7  9  1  0
  8  7  2  0
  9 10  1  0
 11 10  1  0
 11 12  2  0
 13 11  1  0
 14 13  1  0
 14 15  1  1
 15 16  1  0
 16 20  1  0
 16 17  2  0
 17 18  1  0
 19 18  1  0
 20 19  2  0
 21 14  1  0
 22 21  1  0
 23 21  2  0
M  END
$$$$
