VLH.pdb
     RDKit          3D

 26 26  0  0  1  0  0  0  0  0999 V2000
    6.1221  -19.6349   24.2876 C   0  0  0  0  0  0  0  0  0  0  0  0
    6.0113  -19.1230   22.8785 C   0  0  1  0  0  0  0  0  0  0  0  0
    4.9794  -19.8484   22.0873 C   0  0  0  0  0  0  0  0  0  0  0  0
    5.9176  -17.6291   22.7806 C   0  0  2  0  0  0  0  0  0  0  0  0
    5.9752  -17.3391   21.3289 N   0  0  0  0  0  0  0  0  0  0  0  0
    6.9988  -16.9024   23.4628 C   0  0  0  0  0  0  0  0  0  0  0  0
    8.1811  -16.8299   22.9684 O   0  0  0  0  0  0  0  0  0  0  0  0
    5.9055  -12.6348   26.8216 C   0  0  0  0  0  0  0  0  0  0  0  0
    6.5975  -13.5178   25.8420 C   0  0  1  0  0  0  0  0  0  0  0  0
    7.6389  -12.6416   25.1257 C   0  0  0  0  0  0  0  0  0  0  0  0
    7.3415  -14.6728   26.4143 C   0  0  0  0  0  0  0  0  0  0  0  0
    7.8989  -15.6557   25.4620 C   0  0  2  0  0  0  0  0  0  0  0  0
    6.7980  -16.2467   24.6918 N   0  0  0  0  0  0  0  0  0  0  0  0
    8.7888  -16.6810   25.9801 C   0  0  0  0  0  0  0  0  0  0  0  0
    8.2895  -17.5860   26.7354 O   0  0  0  0  0  0  0  0  0  0  0  0
   10.1639  -16.7940   25.7393 N   0  0  0  0  0  0  0  0  0  0  0  0
   11.0130  -17.8652   26.3262 C   0  0  1  0  0  0  0  0  0  0  0  0
   12.2529  -17.8418   25.4703 C   0  0  0  0  0  0  0  0  0  0  0  0
   12.0834  -18.2707   24.0836 C   0  0  0  0  0  0  0  0  0  0  0  0
   11.1548  -18.9905   23.4062 C   0  0  0  0  0  0  0  0  0  0  0  0
   11.4899  -19.0380   22.0991 N   0  0  0  0  0  0  0  0  0  0  0  0
   12.6186  -18.3519   21.9617 C   0  0  0  0  0  0  0  0  0  0  0  0
   13.0025  -17.8759   23.1415 N   0  0  0  0  0  0  0  0  0  0  0  0
   11.4237  -17.3615   27.6759 C   0  0  0  0  0  0  0  0  0  0  0  0
   11.0858  -16.1792   28.2484 O   0  0  0  0  0  0  0  0  0  0  0  0
   12.1761  -18.1318   28.3654 O   0  0  0  0  0  0  0  0  0  0  0  0
  2  1  1  1
  2  3  1  0
  4  6  1  0
  4  2  1  0
  4  5  1  6
  6 13  1  0
  7  6  2  0
  9 10  1  1
  9  8  1  0
 11  9  1  0
 12 11  1  1
 13 12  1  0
 14 15  2  0
 14 12  1  0
 16 14  1  0
 17 24  1  0
 17 16  1  0
 17 18  1  6
 19 18  1  0
 19 23  1  0
 20 19  2  0
 21 20  1  0
 21 22  1  0
 22 23  2  0
 24 25  1  0
 26 24  2  0
M  END
$$$$
