VLH.pdb
     RDKit          3D

 26 26  0  0  1  0  0  0  0  0999 V2000
    6.6118  -14.4490   19.0357 C   0  0  0  0  0  0  0  0  0  0  0  0
    7.1932  -14.8056   20.3754 C   0  0  1  0  0  0  0  0  0  0  0  0
    8.0499  -16.0222   20.3201 C   0  0  0  0  0  0  0  0  0  0  0  0
    7.8220  -13.6478   21.0923 C   0  0  2  0  0  0  0  0  0  0  0  0
    8.9986  -13.2845   20.2687 N   0  0  0  0  0  0  0  0  0  0  0  0
    8.2635  -13.9440   22.4634 C   0  0  0  0  0  0  0  0  0  0  0  0
    9.4912  -14.1990   22.7377 O   0  0  0  0  0  0  0  0  0  0  0  0
    5.5266  -11.7521   26.7885 C   0  0  0  0  0  0  0  0  0  0  0  0
    6.6374  -12.2571   25.9346 C   0  0  1  0  0  0  0  0  0  0  0  0
    7.9398  -11.7196   26.5515 C   0  0  0  0  0  0  0  0  0  0  0  0
    6.7855  -13.7362   25.8614 C   0  0  0  0  0  0  0  0  0  0  0  0
    7.7927  -14.2682   24.9200 C   0  0  2  0  0  0  0  0  0  0  0  0
    7.3675  -13.9632   23.5485 N   0  0  0  0  0  0  0  0  0  0  0  0
    8.1839  -15.6613   25.0524 C   0  0  0  0  0  0  0  0  0  0  0  0
    7.2803  -16.5567   24.9088 O   0  0  0  0  0  0  0  0  0  0  0  0
    9.4693  -16.1464   25.3247 N   0  0  0  0  0  0  0  0  0  0  0  0
    9.7598  -17.5748   25.6220 C   0  0  1  0  0  0  0  0  0  0  0  0
   11.1013  -17.8043   24.9751 C   0  0  0  0  0  0  0  0  0  0  0  0
   11.1082  -17.8599   23.5148 C   0  0  0  0  0  0  0  0  0  0  0  0
   10.1567  -17.8959   22.5492 C   0  0  0  0  0  0  0  0  0  0  0  0
   10.7486  -17.8935   21.3356 N   0  0  0  0  0  0  0  0  0  0  0  0
   12.0599  -17.8552   21.5425 C   0  0  0  0  0  0  0  0  0  0  0  0
   12.3092  -17.8339   22.8476 N   0  0  0  0  0  0  0  0  0  0  0  0
    9.9887  -17.6415   27.1009 C   0  0  0  0  0  0  0  0  0  0  0  0
    9.9521  -16.6128   27.9843 O   0  0  0  0  0  0  0  0  0  0  0  0
   10.2470  -18.7964   27.5847 O   0  0  0  0  0  0  0  0  0  0  0  0
  2  1  1  6
  2  3  1  0
  4  6  1  0
  4  2  1  0
  4  5  1  6
  6 13  1  0
  7  6  2  0
  9 10  1  1
  9  8  1  0
 11  9  1  0
 12 11  1  1
 13 12  1  0
 14 15  2  0
 14 12  1  0
 16 14  1  0
 17 24  1  0
 17 16  1  0
 17 18  1  6
 19 18  1  0
 19 23  1  0
 20 19  2  0
 21 20  1  0
 21 22  1  0
 22 23  2  0
 24 25  1  0
 26 24  2  0
M  END
$$$$
