VLH.pdb
     RDKit          3D

 26 26  0  0  1  0  0  0  0  0999 V2000
    8.3025  -19.0123   22.8870 C   0  0  0  0  0  0  0  0  0  0  0  0
    8.2704  -18.3426   21.5414 C   0  0  1  0  0  0  0  0  0  0  0  0
    7.6984  -19.2184   20.4817 C   0  0  0  0  0  0  0  0  0  0  0  0
    7.6949  -16.9576   21.5659 C   0  0  2  0  0  0  0  0  0  0  0  0
    7.8158  -16.4712   20.1718 N   0  0  0  0  0  0  0  0  0  0  0  0
    8.3869  -16.0234   22.4664 C   0  0  0  0  0  0  0  0  0  0  0  0
    9.5323  -15.5246   22.1720 O   0  0  0  0  0  0  0  0  0  0  0  0
    5.3506  -12.9814   26.0160 C   0  0  0  0  0  0  0  0  0  0  0  0
    6.3619  -13.4423   25.0246 C   0  0  1  0  0  0  0  0  0  0  0  0
    6.9153  -12.1773   24.3470 C   0  0  0  0  0  0  0  0  0  0  0  0
    7.5357  -14.1709   25.5782 C   0  0  0  0  0  0  0  0  0  0  0  0
    8.5183  -14.7023   24.6108 C   0  0  2  0  0  0  0  0  0  0  0  0
    7.8331  -15.6244   23.6971 N   0  0  0  0  0  0  0  0  0  0  0  0
    9.7417  -15.2888   25.1311 C   0  0  0  0  0  0  0  0  0  0  0  0
   10.7777  -14.5419   25.2183 O   0  0  0  0  0  0  0  0  0  0  0  0
    9.9188  -16.6105   25.5593 N   0  0  0  0  0  0  0  0  0  0  0  0
   11.1283  -17.0808   26.2866 C   0  0  1  0  0  0  0  0  0  0  0  0
   10.6181  -17.3604   27.6766 C   0  0  0  0  0  0  0  0  0  0  0  0
   10.3736  -16.1905   28.5177 C   0  0  0  0  0  0  0  0  0  0  0  0
   10.4299  -14.8476   28.3372 C   0  0  0  0  0  0  0  0  0  0  0  0
   10.0465  -14.2258   29.4728 N   0  0  0  0  0  0  0  0  0  0  0  0
    9.7522  -15.1739   30.3550 C   0  0  0  0  0  0  0  0  0  0  0  0
    9.9391  -16.3708   29.8087 N   0  0  0  0  0  0  0  0  0  0  0  0
   11.4686  -18.4109   25.6876 C   0  0  0  0  0  0  0  0  0  0  0  0
   12.5276  -19.2017   25.9927 O   0  0  0  0  0  0  0  0  0  0  0  0
   10.6724  -18.8501   24.7888 O   0  0  0  0  0  0  0  0  0  0  0  0
  2  1  1  1
  2  3  1  0
  4  6  1  0
  4  2  1  0
  4  5  1  6
  6 13  1  0
  7  6  2  0
  9 10  1  1
  9  8  1  0
 11  9  1  0
 12 11  1  1
 13 12  1  0
 14 15  2  0
 14 12  1  0
 16 14  1  0
 17 24  1  0
 17 16  1  0
 17 18  1  1
 19 18  1  0
 19 23  1  0
 20 19  2  0
 21 20  1  0
 21 22  1  0
 22 23  2  0
 24 25  1  0
 26 24  2  0
M  END
$$$$
