VLH.pdb
     RDKit          3D

 26 26  0  0  1  0  0  0  0  0999 V2000
    6.8594  -17.8984   21.8797 C   0  0  0  0  0  0  0  0  0  0  0  0
    7.9433  -17.4585   20.9355 C   0  0  1  0  0  0  0  0  0  0  0  0
    7.6979  -17.9061   19.5367 C   0  0  0  0  0  0  0  0  0  0  0  0
    8.3039  -16.0077   21.0582 C   0  0  2  0  0  0  0  0  0  0  0  0
    9.3898  -15.8012   20.0719 N   0  0  0  0  0  0  0  0  0  0  0  0
    8.7776  -15.6057   22.3911 C   0  0  0  0  0  0  0  0  0  0  0  0
   10.0282  -15.5424   22.6730 O   0  0  0  0  0  0  0  0  0  0  0  0
    6.3226  -12.2039   26.8520 C   0  0  0  0  0  0  0  0  0  0  0  0
    7.4973  -12.5181   25.9921 C   0  0  1  0  0  0  0  0  0  0  0  0
    8.5374  -13.1900   26.9043 C   0  0  0  0  0  0  0  0  0  0  0  0
    7.2512  -13.4619   24.8680 C   0  0  0  0  0  0  0  0  0  0  0  0
    8.2967  -14.4687   24.5905 C   0  0  2  0  0  0  0  0  0  0  0  0
    7.8889  -15.2679   23.4287 N   0  0  0  0  0  0  0  0  0  0  0  0
    8.7365  -15.3173   25.6850 C   0  0  0  0  0  0  0  0  0  0  0  0
    9.2531  -14.7551   26.7125 O   0  0  0  0  0  0  0  0  0  0  0  0
    8.6556  -16.7143   25.7443 N   0  0  0  0  0  0  0  0  0  0  0  0
    9.6416  -17.5619   26.4671 C   0  0  1  0  0  0  0  0  0  0  0  0
   10.9074  -17.3910   25.6677 C   0  0  0  0  0  0  0  0  0  0  0  0
   11.0708  -18.2878   24.5254 C   0  0  0  0  0  0  0  0  0  0  0  0
   10.3392  -19.2890   23.9764 C   0  0  0  0  0  0  0  0  0  0  0  0
   10.9667  -19.7504   22.8734 N   0  0  0  0  0  0  0  0  0  0  0  0
   12.0811  -19.0415   22.7346 C   0  0  0  0  0  0  0  0  0  0  0  0
   12.1726  -18.1501   23.7160 N   0  0  0  0  0  0  0  0  0  0  0  0
    9.8769  -16.8788   27.7793 C   0  0  0  0  0  0  0  0  0  0  0  0
    9.6331  -17.3747   29.0181 O   0  0  0  0  0  0  0  0  0  0  0  0
   10.3616  -15.6969   27.7261 O   0  0  0  0  0  0  0  0  0  0  0  0
  2  1  1  1
  2  3  1  0
  4  6  1  0
  4  2  1  0
  4  5  1  6
  6 13  1  0
  7  6  2  0
  9 10  1  1
  9  8  1  0
 11  9  1  0
 12 11  1  1
 13 12  1  0
 14 15  2  0
 14 12  1  0
 16 14  1  0
 17 24  1  0
 17 16  1  0
 17 18  1  6
 19 18  1  0
 19 23  1  0
 20 19  2  0
 21 20  1  0
 21 22  1  0
 22 23  2  0
 24 25  1  0
 26 24  2  0
M  END
$$$$
