VLH.pdb
     RDKit          3D

 26 26  0  0  1  0  0  0  0  0999 V2000
    7.5388  -17.9109   22.3211 C   0  0  0  0  0  0  0  0  0  0  0  0
    7.8688  -16.9353   21.2261 C   0  0  1  0  0  0  0  0  0  0  0  0
    7.3927  -17.3928   19.8916 C   0  0  0  0  0  0  0  0  0  0  0  0
    7.5093  -15.5153   21.5491 C   0  0  2  0  0  0  0  0  0  0  0  0
    7.9626  -14.7322   20.3761 N   0  0  0  0  0  0  0  0  0  0  0  0
    8.1476  -14.9834   22.7625 C   0  0  0  0  0  0  0  0  0  0  0  0
    9.3751  -14.6081   22.7710 O   0  0  0  0  0  0  0  0  0  0  0  0
    5.3214  -11.8469   26.2867 C   0  0  0  0  0  0  0  0  0  0  0  0
    6.3850  -12.4702   25.4510 C   0  0  1  0  0  0  0  0  0  0  0  0
    7.4866  -11.4097   25.2858 C   0  0  0  0  0  0  0  0  0  0  0  0
    7.0440  -13.6758   26.0233 C   0  0  0  0  0  0  0  0  0  0  0  0
    8.0778  -14.3356   25.1990 C   0  0  2  0  0  0  0  0  0  0  0  0
    7.4503  -14.8556   23.9781 N   0  0  0  0  0  0  0  0  0  0  0  0
    8.9161  -15.3413   25.8294 C   0  0  0  0  0  0  0  0  0  0  0  0
    9.5694  -15.0088   26.8789 O   0  0  0  0  0  0  0  0  0  0  0  0
    9.0930  -16.6654   25.4088 N   0  0  0  0  0  0  0  0  0  0  0  0
    9.9860  -17.6327   26.1016 C   0  0  1  0  0  0  0  0  0  0  0  0
    9.3463  -18.9677   25.8204 C   0  0  0  0  0  0  0  0  0  0  0  0
    8.4144  -19.4588   26.8333 C   0  0  0  0  0  0  0  0  0  0  0  0
    8.3441  -19.3966   28.1862 C   0  0  0  0  0  0  0  0  0  0  0  0
    7.2108  -19.9996   28.6047 N   0  0  0  0  0  0  0  0  0  0  0  0
    6.5781  -20.4338   27.5208 C   0  0  0  0  0  0  0  0  0  0  0  0
    7.2790  -20.1226   26.4356 N   0  0  0  0  0  0  0  0  0  0  0  0
   11.2738  -17.6134   25.3368 C   0  0  0  0  0  0  0  0  0  0  0  0
   12.4188  -18.2740   25.6407 O   0  0  0  0  0  0  0  0  0  0  0  0
   11.2965  -16.8945   24.2797 O   0  0  0  0  0  0  0  0  0  0  0  0
  2  1  1  1
  2  3  1  0
  4  6  1  0
  4  2  1  0
  4  5  1  6
  6 13  1  0
  7  6  2  0
  9 10  1  1
  9  8  1  0
 11  9  1  0
 12 11  1  1
 13 12  1  0
 14 15  2  0
 14 12  1  0
 16 14  1  0
 17 24  1  0
 17 16  1  0
 17 18  1  6
 19 18  1  0
 19 23  1  0
 20 19  2  0
 21 20  1  0
 21 22  1  0
 22 23  2  0
 24 25  1  0
 26 24  2  0
M  END
$$$$
