VLH.pdb
     RDKit          3D

 26 26  0  0  1  0  0  0  0  0999 V2000
    8.8784  -20.0032   18.7035 C   0  0  0  0  0  0  0  0  0  0  0  0
    9.2396  -19.5146   17.3284 C   0  0  1  0  0  0  0  0  0  0  0  0
    8.7695  -20.4329   16.2548 C   0  0  0  0  0  0  0  0  0  0  0  0
    8.9044  -18.0723   17.0888 C   0  0  2  0  0  0  0  0  0  0  0  0
    9.4772  -17.7652   15.7576 N   0  0  0  0  0  0  0  0  0  0  0  0
    9.4612  -17.1417   18.0820 C   0  0  0  0  0  0  0  0  0  0  0  0
   10.7172  -16.8827   18.1355 O   0  0  0  0  0  0  0  0  0  0  0  0
    6.4588  -12.8626   19.9679 C   0  0  0  0  0  0  0  0  0  0  0  0
    7.6007  -13.7045   19.5147 C   0  0  1  0  0  0  0  0  0  0  0  0
    8.7529  -12.7382   19.1916 C   0  0  0  0  0  0  0  0  0  0  0  0
    8.1325  -14.6757   20.5093 C   0  0  0  0  0  0  0  0  0  0  0  0
    9.1987  -15.5923   20.0547 C   0  0  2  0  0  0  0  0  0  0  0  0
    8.6504  -16.4842   19.0258 N   0  0  0  0  0  0  0  0  0  0  0  0
    9.9336  -16.3391   21.0615 C   0  0  0  0  0  0  0  0  0  0  0  0
    9.3667  -17.3593   21.5875 O   0  0  0  0  0  0  0  0  0  0  0  0
   11.2236  -16.0625   21.5315 N   0  0  0  0  0  0  0  0  0  0  0  0
   11.9666  -16.9568   22.4596 C   0  0  1  0  0  0  0  0  0  0  0  0
   13.3780  -16.4322   22.4012 C   0  0  0  0  0  0  0  0  0  0  0  0
   14.3452  -17.0946   23.2738 C   0  0  0  0  0  0  0  0  0  0  0  0
   14.2757  -18.0388   24.2448 C   0  0  0  0  0  0  0  0  0  0  0  0
   15.5192  -18.3131   24.6938 N   0  0  0  0  0  0  0  0  0  0  0  0
   16.3586  -17.5465   24.0071 C   0  0  0  0  0  0  0  0  0  0  0  0
   15.6807  -16.7996   23.1419 N   0  0  0  0  0  0  0  0  0  0  0  0
   11.4537  -16.6338   23.8295 C   0  0  0  0  0  0  0  0  0  0  0  0
   11.5792  -17.3860   24.9513 O   0  0  0  0  0  0  0  0  0  0  0  0
   10.8283  -15.5259   23.9558 O   0  0  0  0  0  0  0  0  0  0  0  0
  2  1  1  1
  2  3  1  0
  4  6  1  0
  4  2  1  0
  4  5  1  6
  6 13  1  0
  7  6  2  0
  9 10  1  1
  9  8  1  0
 11  9  1  0
 12 11  1  1
 13 12  1  0
 14 15  2  0
 14 12  1  0
 16 14  1  0
 17 24  1  0
 17 16  1  0
 17 18  1  1
 19 18  1  0
 19 23  1  0
 20 19  2  0
 21 20  1  0
 21 22  1  0
 22 23  2  0
 24 25  1  0
 26 24  2  0
M  END
$$$$
