VLH.pdb
     RDKit          3D

 26 26  0  0  1  0  0  0  0  0999 V2000
   11.1453  -19.1852   18.0182 C   0  0  0  0  0  0  0  0  0  0  0  0
   11.4177  -18.3141   16.8237 C   0  0  1  0  0  0  0  0  0  0  0  0
   11.3533  -19.0680   15.5412 C   0  0  0  0  0  0  0  0  0  0  0  0
   10.6407  -17.0310   16.8177 C   0  0  2  0  0  0  0  0  0  0  0  0
   11.1133  -16.3062   15.6152 N   0  0  0  0  0  0  0  0  0  0  0  0
   10.8456  -16.1864   18.0040 C   0  0  0  0  0  0  0  0  0  0  0  0
   11.9580  -15.5837   18.2203 O   0  0  0  0  0  0  0  0  0  0  0  0
    6.5154  -13.4395   19.7623 C   0  0  0  0  0  0  0  0  0  0  0  0
    7.9171  -13.8120   19.4240 C   0  0  1  0  0  0  0  0  0  0  0  0
    8.6723  -12.4938   19.1841 C   0  0  0  0  0  0  0  0  0  0  0  0
    8.6719  -14.5436   20.4778 C   0  0  0  0  0  0  0  0  0  0  0  0
    9.9965  -15.0840   20.1075 C   0  0  2  0  0  0  0  0  0  0  0  0
    9.8360  -15.9912   18.9648 N   0  0  0  0  0  0  0  0  0  0  0  0
   10.8037  -15.6909   21.1523 C   0  0  0  0  0  0  0  0  0  0  0  0
   10.9853  -15.0299   22.2334 O   0  0  0  0  0  0  0  0  0  0  0  0
   11.4190  -16.9483   21.1090 N   0  0  0  0  0  0  0  0  0  0  0  0
   12.0902  -17.5726   22.2808 C   0  0  1  0  0  0  0  0  0  0  0  0
   12.1091  -19.0396   21.9367 C   0  0  0  0  0  0  0  0  0  0  0  0
   10.8345  -19.7438   22.0596 C   0  0  0  0  0  0  0  0  0  0  0  0
    9.6515  -19.7142   21.3971 C   0  0  0  0  0  0  0  0  0  0  0  0
    8.8187  -20.6368   21.9246 N   0  0  0  0  0  0  0  0  0  0  0  0
    9.4775  -21.2385   22.9083 C   0  0  0  0  0  0  0  0  0  0  0  0
   10.6973  -20.7221   23.0148 N   0  0  0  0  0  0  0  0  0  0  0  0
   13.5135  -17.1089   22.2258 C   0  0  0  0  0  0  0  0  0  0  0  0
   14.5028  -17.3894   23.1104 O   0  0  0  0  0  0  0  0  0  0  0  0
   13.8317  -16.3664   21.2347 O   0  0  0  0  0  0  0  0  0  0  0  0
  2  1  1  1
  2  3  1  0
  4  6  1  0
  4  2  1  0
  4  5  1  6
  6 13  1  0
  7  6  2  0
  9 10  1  1
  9  8  1  0
 11  9  1  0
 12 11  1  1
 13 12  1  0
 14 15  2  0
 14 12  1  0
 16 14  1  0
 17 24  1  0
 17 16  1  0
 17 18  1  6
 19 18  1  0
 19 23  1  0
 20 19  2  0
 21 20  1  0
 21 22  1  0
 22 23  2  0
 24 25  1  0
 26 24  2  0
M  END
$$$$
