VLH.pdb
     RDKit          3D

 26 26  0  0  1  0  0  0  0  0999 V2000
    7.7338  -18.5413   20.1674 C   0  0  0  0  0  0  0  0  0  0  0  0
    8.3098  -17.7041   21.2752 C   0  0  1  0  0  0  0  0  0  0  0  0
    9.6778  -18.1409   21.6684 C   0  0  0  0  0  0  0  0  0  0  0  0
    8.1814  -16.2267   21.0496 C   0  0  2  0  0  0  0  0  0  0  0  0
    9.0780  -15.9376   19.9062 N   0  0  0  0  0  0  0  0  0  0  0  0
    8.5767  -15.3960   22.1969 C   0  0  0  0  0  0  0  0  0  0  0  0
    9.7870  -15.0010   22.3600 O   0  0  0  0  0  0  0  0  0  0  0  0
    7.6636  -11.5636   26.1344 C   0  0  0  0  0  0  0  0  0  0  0  0
    7.0009  -12.8921   26.2528 C   0  0  1  0  0  0  0  0  0  0  0  0
    5.5881  -12.6269   26.7997 C   0  0  0  0  0  0  0  0  0  0  0  0
    6.8255  -13.6509   24.9844 C   0  0  0  0  0  0  0  0  0  0  0  0
    8.0427  -14.2020   24.3534 C   0  0  2  0  0  0  0  0  0  0  0  0
    7.6525  -14.9880   23.1767 N   0  0  0  0  0  0  0  0  0  0  0  0
    8.9748  -14.9367   25.1919 C   0  0  0  0  0  0  0  0  0  0  0  0
    9.7354  -14.2686   25.9752 O   0  0  0  0  0  0  0  0  0  0  0  0
    9.1375  -16.3269   25.2414 N   0  0  0  0  0  0  0  0  0  0  0  0
   10.1191  -17.0056   26.1297 C   0  0  1  0  0  0  0  0  0  0  0  0
    9.4363  -18.3007   26.4861 C   0  0  0  0  0  0  0  0  0  0  0  0
    9.7138  -18.8260   27.8214 C   0  0  0  0  0  0  0  0  0  0  0  0
   10.4689  -18.4260   28.8744 C   0  0  0  0  0  0  0  0  0  0  0  0
   10.3106  -19.2948   29.8958 N   0  0  0  0  0  0  0  0  0  0  0  0
    9.4620  -20.2295   29.4834 C   0  0  0  0  0  0  0  0  0  0  0  0
    9.0834  -19.9746   28.2354 N   0  0  0  0  0  0  0  0  0  0  0  0
   11.2767  -17.3679   25.2507 C   0  0  0  0  0  0  0  0  0  0  0  0
   11.3386  -17.2830   23.8984 O   0  0  0  0  0  0  0  0  0  0  0  0
   12.3232  -17.8058   25.8406 O   0  0  0  0  0  0  0  0  0  0  0  0
  2  1  1  6
  2  3  1  0
  4  6  1  0
  4  2  1  0
  4  5  1  6
  6 13  1  0
  7  6  2  0
  9 10  1  6
  9  8  1  0
 11  9  1  0
 12 11  1  1
 13 12  1  0
 14 15  2  0
 14 12  1  0
 16 14  1  0
 17 24  1  0
 17 16  1  0
 17 18  1  6
 19 18  1  0
 19 23  1  0
 20 19  2  0
 21 20  1  0
 21 22  1  0
 22 23  2  0
 24 25  1  0
 26 24  2  0
M  END
$$$$
