VLH.pdb
     RDKit          3D

 26 26  0  0  1  0  0  0  0  0999 V2000
    7.5562  -19.9547   25.7368 C   0  0  0  0  0  0  0  0  0  0  0  0
    6.4308  -20.2007   24.7710 C   0  0  1  0  0  0  0  0  0  0  0  0
    5.7769  -21.5218   24.9813 C   0  0  0  0  0  0  0  0  0  0  0  0
    5.4696  -19.0551   24.6538 C   0  0  2  0  0  0  0  0  0  0  0  0
    4.5532  -19.4388   23.5549 N   0  0  0  0  0  0  0  0  0  0  0  0
    6.0943  -17.7627   24.3343 C   0  0  0  0  0  0  0  0  0  0  0  0
    6.5436  -17.5012   23.1607 O   0  0  0  0  0  0  0  0  0  0  0  0
    6.8193  -12.2673   24.9500 C   0  0  0  0  0  0  0  0  0  0  0  0
    7.2765  -13.1863   26.0291 C   0  0  1  0  0  0  0  0  0  0  0  0
    6.9656  -12.4827   27.3610 C   0  0  0  0  0  0  0  0  0  0  0  0
    6.6040  -14.5128   26.0870 C   0  0  0  0  0  0  0  0  0  0  0  0
    6.9114  -15.4733   25.0069 C   0  0  2  0  0  0  0  0  0  0  0  0
    6.2330  -16.7430   25.2942 N   0  0  0  0  0  0  0  0  0  0  0  0
    8.3059  -15.6883   24.6595 C   0  0  0  0  0  0  0  0  0  0  0  0
    8.6953  -15.3422   23.4902 O   0  0  0  0  0  0  0  0  0  0  0  0
    9.2957  -16.2437   25.4800 N   0  0  0  0  0  0  0  0  0  0  0  0
   10.5493  -16.8495   24.9559 C   0  0  1  0  0  0  0  0  0  0  0  0
   11.2285  -15.7029   24.2528 C   0  0  0  0  0  0  0  0  0  0  0  0
   10.9729  -15.5878   22.8186 C   0  0  0  0  0  0  0  0  0  0  0  0
   10.2227  -16.2696   21.9177 C   0  0  0  0  0  0  0  0  0  0  0  0
   10.3289  -15.6800   20.7076 N   0  0  0  0  0  0  0  0  0  0  0  0
   11.1385  -14.6373   20.8527 C   0  0  0  0  0  0  0  0  0  0  0  0
   11.5439  -14.5544   22.1155 N   0  0  0  0  0  0  0  0  0  0  0  0
   11.3838  -17.1581   26.1611 C   0  0  0  0  0  0  0  0  0  0  0  0
   11.0403  -16.9892   27.4624 O   0  0  0  0  0  0  0  0  0  0  0  0
   12.5496  -17.6339   25.9387 O   0  0  0  0  0  0  0  0  0  0  0  0
  2  1  1  1
  2  3  1  0
  4  6  1  0
  4  2  1  0
  4  5  1  6
  6 13  1  0
  7  6  2  0
  9 10  1  1
  9  8  1  0
 11  9  1  0
 12 11  1  1
 13 12  1  0
 14 15  2  0
 14 12  1  0
 16 14  1  0
 17 24  1  0
 17 16  1  0
 17 18  1  6
 19 18  1  0
 19 23  1  0
 20 19  2  0
 21 20  1  0
 21 22  1  0
 22 23  2  0
 24 25  1  0
 26 24  2  0
M  END
$$$$
