VLH.pdb
     RDKit          3D

 26 26  0  0  1  0  0  0  0  0999 V2000
   11.1301  -14.2087   29.9749 C   0  0  0  0  0  0  0  0  0  0  0  0
   10.5554  -14.6760   28.6667 C   0  0  1  0  0  0  0  0  0  0  0  0
   11.5987  -14.8721   27.6227 C   0  0  0  0  0  0  0  0  0  0  0  0
    9.5998  -15.8247   28.7989 C   0  0  2  0  0  0  0  0  0  0  0  0
   10.4606  -17.0146   28.9933 N   0  0  0  0  0  0  0  0  0  0  0  0
    8.7349  -16.0386   27.6290 C   0  0  0  0  0  0  0  0  0  0  0  0
    8.5554  -17.2056   27.1258 O   0  0  0  0  0  0  0  0  0  0  0  0
    7.1825  -11.7585   24.9204 C   0  0  0  0  0  0  0  0  0  0  0  0
    6.9318  -12.6707   26.0706 C   0  0  1  0  0  0  0  0  0  0  0  0
    5.9714  -11.9276   27.0145 C   0  0  0  0  0  0  0  0  0  0  0  0
    6.2814  -13.9695   25.7457 C   0  0  0  0  0  0  0  0  0  0  0  0
    7.0953  -15.1919   25.9096 C   0  0  2  0  0  0  0  0  0  0  0  0
    8.0567  -14.9789   26.9983 N   0  0  0  0  0  0  0  0  0  0  0  0
    7.7460  -15.7431   24.7330 C   0  0  0  0  0  0  0  0  0  0  0  0
    7.0069  -16.1296   23.7619 O   0  0  0  0  0  0  0  0  0  0  0  0
    9.1236  -15.9016   24.5368 N   0  0  0  0  0  0  0  0  0  0  0  0
    9.7116  -16.5202   23.3183 C   0  0  1  0  0  0  0  0  0  0  0  0
   10.4902  -15.3931   22.6906 C   0  0  0  0  0  0  0  0  0  0  0  0
   11.2399  -15.7266   21.4813 C   0  0  0  0  0  0  0  0  0  0  0  0
   12.1399  -16.6821   21.1406 C   0  0  0  0  0  0  0  0  0  0  0  0
   12.4776  -16.5375   19.8413 N   0  0  0  0  0  0  0  0  0  0  0  0
   11.7924  -15.5001   19.3744 C   0  0  0  0  0  0  0  0  0  0  0  0
   11.0359  -14.9891   20.3400 N   0  0  0  0  0  0  0  0  0  0  0  0
   10.7242  -17.5065   23.8140 C   0  0  0  0  0  0  0  0  0  0  0  0
   11.3314  -18.4879   23.1013 O   0  0  0  0  0  0  0  0  0  0  0  0
   11.0531  -17.4130   25.0460 O   0  0  0  0  0  0  0  0  0  0  0  0
  2  1  1  1
  2  3  1  0
  4  6  1  0
  4  2  1  0
  4  5  1  6
  6 13  1  0
  7  6  2  0
  9 10  1  1
  9  8  1  0
 11  9  1  0
 12 11  1  6
 13 12  1  0
 14 15  2  0
 14 12  1  0
 16 14  1  0
 17 24  1  0
 17 16  1  0
 17 18  1  6
 19 18  1  0
 19 23  1  0
 20 19  2  0
 21 20  1  0
 21 22  1  0
 22 23  2  0
 24 25  1  0
 26 24  2  0
M  END
$$$$
