VLH.pdb
     RDKit          3D

 26 26  0  0  1  0  0  0  0  0999 V2000
    7.8243  -16.2693   18.8844 C   0  0  0  0  0  0  0  0  0  0  0  0
    7.1728  -17.1431   19.9197 C   0  0  1  0  0  0  0  0  0  0  0  0
    6.5687  -18.3706   19.3321 C   0  0  0  0  0  0  0  0  0  0  0  0
    8.0297  -17.4002   21.1238 C   0  0  2  0  0  0  0  0  0  0  0  0
    7.1818  -18.2125   22.0271 N   0  0  0  0  0  0  0  0  0  0  0  0
    8.4692  -16.1885   21.8318 C   0  0  0  0  0  0  0  0  0  0  0  0
    9.3201  -15.3767   21.3175 O   0  0  0  0  0  0  0  0  0  0  0  0
    7.7025  -11.6838   24.8765 C   0  0  0  0  0  0  0  0  0  0  0  0
    7.6182  -13.0020   25.5644 C   0  0  1  0  0  0  0  0  0  0  0  0
    6.4452  -12.9025   26.5543 C   0  0  0  0  0  0  0  0  0  0  0  0
    7.3364  -14.1767   24.6950 C   0  0  0  0  0  0  0  0  0  0  0  0
    8.4396  -14.6653   23.8418 C   0  0  2  0  0  0  0  0  0  0  0  0
    7.9821  -15.8518   23.1084 N   0  0  0  0  0  0  0  0  0  0  0  0
    9.7331  -14.8962   24.4623 C   0  0  0  0  0  0  0  0  0  0  0  0
   10.5722  -13.9297   24.4827 O   0  0  0  0  0  0  0  0  0  0  0  0
   10.1752  -16.0853   25.0558 N   0  0  0  0  0  0  0  0  0  0  0  0
   11.5037  -16.2300   25.7094 C   0  0  1  0  0  0  0  0  0  0  0  0
   11.1667  -16.7512   27.0826 C   0  0  0  0  0  0  0  0  0  0  0  0
   10.6520  -15.7681   28.0335 C   0  0  0  0  0  0  0  0  0  0  0  0
   10.3686  -14.4426   27.9877 C   0  0  0  0  0  0  0  0  0  0  0  0
    9.8610  -14.0511   29.1761 N   0  0  0  0  0  0  0  0  0  0  0  0
    9.8269  -15.1246   29.9572 C   0  0  0  0  0  0  0  0  0  0  0  0
   10.2976  -16.1771   29.2964 N   0  0  0  0  0  0  0  0  0  0  0  0
   12.1884  -17.3513   24.9898 C   0  0  0  0  0  0  0  0  0  0  0  0
   13.4494  -17.8080   25.1928 O   0  0  0  0  0  0  0  0  0  0  0  0
   11.5087  -17.9443   24.0837 O   0  0  0  0  0  0  0  0  0  0  0  0
  2  1  1  6
  2  3  1  0
  4  6  1  0
  4  2  1  0
  4  5  1  1
  6 13  1  0
  7  6  2  0
  9 10  1  1
  9  8  1  0
 11  9  1  0
 12 11  1  1
 13 12  1  0
 14 15  2  0
 14 12  1  0
 16 14  1  0
 17 24  1  0
 17 16  1  0
 17 18  1  1
 19 18  1  0
 19 23  1  0
 20 19  2  0
 21 20  1  0
 21 22  1  0
 22 23  2  0
 24 25  1  0
 26 24  2  0
M  END
$$$$
