WCY.pdb
     RDKit          3D

 33 35  0  0  1  0  0  0  0  0999 V2000
    6.2355  -17.8611   24.0749 N   0  0  0  0  0  0  0  0  0  0  0  0
    6.9028  -16.7263   23.4910 C   0  0  1  0  0  0  0  0  0  0  0  0
    7.7105  -15.9998   24.5020 C   0  0  0  0  0  0  0  0  0  0  0  0
    6.9333  -15.1687   25.4406 C   0  0  0  0  0  0  0  0  0  0  0  0
    5.9671  -15.6251   26.3465 C   0  0  0  0  0  0  0  0  0  0  0  0
    5.5042  -14.5845   27.0435 N   0  0  0  0  0  0  0  0  0  0  0  0
    6.1040  -13.4524   26.6579 C   0  0  0  0  0  0  0  0  0  0  0  0
    5.9843  -12.1423   27.0453 C   0  0  0  0  0  0  0  0  0  0  0  0
    6.7313  -11.1250   26.4709 C   0  0  0  0  0  0  0  0  0  0  0  0
    7.6028  -11.5101   25.4852 C   0  0  0  0  0  0  0  0  0  0  0  0
    7.7580  -12.8069   25.0638 C   0  0  0  0  0  0  0  0  0  0  0  0
    7.0035  -13.8124   25.6499 C   0  0  0  0  0  0  0  0  0  0  0  0
    7.7112  -17.2338   22.3510 C   0  0  0  0  0  0  0  0  0  0  0  0
    8.0071  -18.4586   22.2244 O   0  0  0  0  0  0  0  0  0  0  0  0
    8.2094  -16.3812   21.3235 N   0  0  0  0  0  0  0  0  0  0  0  0
    9.2096  -16.7797   20.3521 C   0  0  1  0  0  0  0  0  0  0  0  0
    8.9755  -15.9463   19.1087 C   0  0  0  0  0  0  0  0  0  0  0  0
    8.7752  -14.2215   19.6772 S   0  0  0  0  0  0  0  0  0  0  0  0
   10.5891  -16.5688   20.8591 C   0  0  0  0  0  0  0  0  0  0  0  0
   11.3922  -15.9456   20.1223 O   0  0  0  0  0  0  0  0  0  0  0  0
   17.3317  -16.0850   26.5790 O   0  0  0  0  0  0  0  0  0  0  0  0
   16.1093  -16.0555   25.8846 C   0  0  0  0  0  0  0  0  0  0  0  0
   16.0219  -15.5347   24.6095 C   0  0  0  0  0  0  0  0  0  0  0  0
   14.8237  -15.5189   23.9599 C   0  0  0  0  0  0  0  0  0  0  0  0
   13.6631  -16.0134   24.5357 C   0  0  0  0  0  0  0  0  0  0  0  0
   12.4216  -15.9474   23.7525 C   0  0  0  0  0  0  0  0  0  0  0  0
   12.3896  -16.9266   22.5905 C   0  0  2  0  0  0  0  0  0  0  0  0
   11.0260  -17.0290   22.1065 N   0  0  0  0  0  0  0  0  0  0  0  0
   12.8441  -18.2389   23.1533 C   0  0  0  0  0  0  0  0  0  0  0  0
   12.0371  -18.9512   23.8002 O   0  0  0  0  0  0  0  0  0  0  0  0
   13.7687  -16.5294   25.8087 C   0  0  0  0  0  0  0  0  0  0  0  0
   14.9731  -16.5522   26.4777 C   0  0  0  0  0  0  0  0  0  0  0  0
   14.1377  -18.7106   22.9893 O   0  0  0  0  0  0  0  0  0  0  0  0
  2  1  1  1
  3  2  1  0
  4  5  2  0
  4  3  1  0
  6  5  1  0
  7 12  2  0
  7  6  1  0
  8  7  1  0
  9 10  1  0
  9  8  2  0
 10 11  2  0
 11 12  1  0
 12  4  1  0
 13  2  1  0
 14 13  2  0
 15 13  1  0
 16 17  1  6
 16 15  1  0
 17 18  1  0
 19 16  1  0
 20 19  2  0
 22 23  2  0
 22 21  1  0
 24 23  1  0
 25 24  2  0
 27 26  1  1
 26 25  1  0
 27 28  1  0
 28 19  1  0
 29 27  1  0
 29 33  1  0
 30 29  2  0
 31 25  1  0
 31 32  2  0
 32 22  1  0
M  END
$$$$
