WCY.pdb
     RDKit          3D

 33 35  0  0  1  0  0  0  0  0999 V2000
    6.3823  -17.8059   24.4164 N   0  0  0  0  0  0  0  0  0  0  0  0
    7.3110  -16.7657   24.0566 C   0  0  1  0  0  0  0  0  0  0  0  0
    7.9623  -16.1883   25.2586 C   0  0  0  0  0  0  0  0  0  0  0  0
    7.1818  -15.1450   25.9500 C   0  0  0  0  0  0  0  0  0  0  0  0
    6.0433  -15.3493   26.7403 C   0  0  0  0  0  0  0  0  0  0  0  0
    5.6340  -14.1718   27.2190 N   0  0  0  0  0  0  0  0  0  0  0  0
    6.4324  -13.1855   26.7951 C   0  0  0  0  0  0  0  0  0  0  0  0
    6.4405  -11.8282   26.9914 C   0  0  0  0  0  0  0  0  0  0  0  0
    7.3944  -10.9992   26.4205 C   0  0  0  0  0  0  0  0  0  0  0  0
    8.3354  -11.6222   25.6423 C   0  0  0  0  0  0  0  0  0  0  0  0
    8.3688  -12.9755   25.4166 C   0  0  0  0  0  0  0  0  0  0  0  0
    7.4076  -13.7904   25.9963 C   0  0  0  0  0  0  0  0  0  0  0  0
    8.2779  -17.3569   23.0943 C   0  0  0  0  0  0  0  0  0  0  0  0
    8.6517  -18.5646   23.1674 O   0  0  0  0  0  0  0  0  0  0  0  0
    8.8515  -16.6092   22.0253 N   0  0  0  0  0  0  0  0  0  0  0  0
   10.0566  -16.9976   21.3183 C   0  0  1  0  0  0  0  0  0  0  0  0
    9.9005  -16.5275   19.8865 C   0  0  0  0  0  0  0  0  0  0  0  0
    8.4929  -15.3627   19.8794 S   0  0  0  0  0  0  0  0  0  0  0  0
   11.2722  -16.3991   21.9253 C   0  0  0  0  0  0  0  0  0  0  0  0
   11.6462  -15.2792   21.4983 O   0  0  0  0  0  0  0  0  0  0  0  0
    9.4739  -16.0271   28.8928 O   0  0  0  0  0  0  0  0  0  0  0  0
   10.2850  -15.8288   27.7615 C   0  0  0  0  0  0  0  0  0  0  0  0
   10.5479  -14.5618   27.2815 C   0  0  0  0  0  0  0  0  0  0  0  0
   11.3377  -14.3991   26.1825 C   0  0  0  0  0  0  0  0  0  0  0  0
   11.9012  -15.4733   25.5104 C   0  0  0  0  0  0  0  0  0  0  0  0
   12.7357  -15.1910   24.3344 C   0  0  0  0  0  0  0  0  0  0  0  0
   13.1691  -16.4426   23.5889 C   0  0  2  0  0  0  0  0  0  0  0  0
   12.0086  -17.0219   22.9394 N   0  0  0  0  0  0  0  0  0  0  0  0
   13.7016  -17.3739   24.6349 C   0  0  0  0  0  0  0  0  0  0  0  0
   14.7544  -17.0787   25.2527 O   0  0  0  0  0  0  0  0  0  0  0  0
   11.6283  -16.7305   26.0033 C   0  0  0  0  0  0  0  0  0  0  0  0
   10.8318  -16.9105   27.1131 C   0  0  0  0  0  0  0  0  0  0  0  0
   13.0738  -18.5675   24.9574 O   0  0  0  0  0  0  0  0  0  0  0  0
  2  1  1  1
  3  2  1  0
  4  5  2  0
  4  3  1  0
  6  5  1  0
  7 12  2  0
  7  6  1  0
  8  7  1  0
  9 10  1  0
  9  8  2  0
 10 11  2  0
 11 12  1  0
 12  4  1  0
 13  2  1  0
 14 13  2  0
 15 13  1  0
 16 17  1  6
 16 15  1  0
 17 18  1  0
 19 16  1  0
 20 19  2  0
 22 23  2  0
 22 21  1  0
 24 23  1  0
 25 24  2  0
 27 26  1  1
 26 25  1  0
 27 28  1  0
 28 19  1  0
 29 27  1  0
 29 33  1  0
 30 29  2  0
 31 25  1  0
 31 32  2  0
 32 22  1  0
M  END
$$$$
