WCY.pdb
     RDKit          3D

 33 35  0  0  1  0  0  0  0  0999 V2000
    7.0168  -17.6140   24.8951 N   0  0  0  0  0  0  0  0  0  0  0  0
    7.6878  -16.5514   24.1919 C   0  0  1  0  0  0  0  0  0  0  0  0
    8.1027  -15.4711   25.1210 C   0  0  0  0  0  0  0  0  0  0  0  0
    6.9999  -14.6465   25.6502 C   0  0  0  0  0  0  0  0  0  0  0  0
    5.9054  -15.1059   26.3942 C   0  0  0  0  0  0  0  0  0  0  0  0
    5.1364  -14.0633   26.7180 N   0  0  0  0  0  0  0  0  0  0  0  0
    5.6511  -12.9273   26.2335 C   0  0  0  0  0  0  0  0  0  0  0  0
    5.2527  -11.6159   26.2805 C   0  0  0  0  0  0  0  0  0  0  0  0
    5.9732  -10.5969   25.6759 C   0  0  0  0  0  0  0  0  0  0  0  0
    7.1157  -10.9819   25.0234 C   0  0  0  0  0  0  0  0  0  0  0  0
    7.5550  -12.2799   24.9491 C   0  0  0  0  0  0  0  0  0  0  0  0
    6.8227  -13.2868   25.5606 C   0  0  0  0  0  0  0  0  0  0  0  0
    8.8281  -17.1637   23.4602 C   0  0  0  0  0  0  0  0  0  0  0  0
    9.4612  -18.1640   23.9101 O   0  0  0  0  0  0  0  0  0  0  0  0
    9.2889  -16.6699   22.2053 N   0  0  0  0  0  0  0  0  0  0  0  0
   10.5978  -16.9575   21.6511 C   0  0  1  0  0  0  0  0  0  0  0  0
   10.6875  -16.2273   20.3266 C   0  0  0  0  0  0  0  0  0  0  0  0
    9.4120  -16.9651   19.2464 S   0  0  0  0  0  0  0  0  0  0  0  0
   11.6907  -16.5177   22.5546 C   0  0  0  0  0  0  0  0  0  0  0  0
   11.8105  -15.2864   22.7687 O   0  0  0  0  0  0  0  0  0  0  0  0
    9.8525  -15.4495   28.8772 O   0  0  0  0  0  0  0  0  0  0  0  0
   10.7800  -16.0370   27.9986 C   0  0  0  0  0  0  0  0  0  0  0  0
   11.6351  -15.2654   27.2382 C   0  0  0  0  0  0  0  0  0  0  0  0
   12.5242  -15.8620   26.3947 C   0  0  0  0  0  0  0  0  0  0  0  0
   12.6098  -17.2399   26.2635 C   0  0  0  0  0  0  0  0  0  0  0  0
   13.6006  -17.7837   25.3245 C   0  0  0  0  0  0  0  0  0  0  0  0
   13.6852  -17.0065   24.0211 C   0  0  2  0  0  0  0  0  0  0  0  0
   12.5808  -17.4056   23.1696 N   0  0  0  0  0  0  0  0  0  0  0  0
   14.9916  -17.3975   23.3999 C   0  0  0  0  0  0  0  0  0  0  0  0
   14.9998  -18.0985   22.3581 O   0  0  0  0  0  0  0  0  0  0  0  0
   11.7490  -17.9945   27.0301 C   0  0  0  0  0  0  0  0  0  0  0  0
   10.8450  -17.4055   27.8871 C   0  0  0  0  0  0  0  0  0  0  0  0
   16.2130  -17.0135   23.9326 O   0  0  0  0  0  0  0  0  0  0  0  0
  2  1  1  1
  3  2  1  0
  4  5  2  0
  4  3  1  0
  6  5  1  0
  7 12  2  0
  7  6  1  0
  8  7  1  0
  9 10  1  0
  9  8  2  0
 10 11  2  0
 11 12  1  0
 12  4  1  0
 13  2  1  0
 14 13  2  0
 15 13  1  0
 16 17  1  6
 16 15  1  0
 17 18  1  0
 19 16  1  0
 20 19  2  0
 22 23  2  0
 22 21  1  0
 24 23  1  0
 25 24  2  0
 27 26  1  1
 26 25  1  0
 27 28  1  0
 28 19  1  0
 29 27  1  0
 29 33  1  0
 30 29  2  0
 31 25  1  0
 31 32  2  0
 32 22  1  0
M  END
$$$$
