WCY.pdb
     RDKit          3D

 33 35  0  0  1  0  0  0  0  0999 V2000
    6.4693  -17.6474   23.2656 N   0  0  0  0  0  0  0  0  0  0  0  0
    7.5556  -16.7178   23.4374 C   0  0  1  0  0  0  0  0  0  0  0  0
    7.8255  -16.4673   24.8750 C   0  0  0  0  0  0  0  0  0  0  0  0
    6.9653  -15.4461   25.5020 C   0  0  0  0  0  0  0  0  0  0  0  0
    5.8431  -15.6879   26.3050 C   0  0  0  0  0  0  0  0  0  0  0  0
    5.3436  -14.5179   26.7108 N   0  0  0  0  0  0  0  0  0  0  0  0
    6.0659  -13.5013   26.2259 C   0  0  0  0  0  0  0  0  0  0  0  0
    5.9697  -12.1379   26.3384 C   0  0  0  0  0  0  0  0  0  0  0  0
    6.8594  -11.2752   25.7162 C   0  0  0  0  0  0  0  0  0  0  0  0
    7.8478  -11.8711   24.9764 C   0  0  0  0  0  0  0  0  0  0  0  0
    7.9850  -13.2292   24.8344 C   0  0  0  0  0  0  0  0  0  0  0  0
    7.0870  -14.0779   25.4645 C   0  0  0  0  0  0  0  0  0  0  0  0
    8.7268  -17.2753   22.7107 C   0  0  0  0  0  0  0  0  0  0  0  0
    8.6074  -18.1657   21.8182 O   0  0  0  0  0  0  0  0  0  0  0  0
   10.0626  -16.8495   22.9663 N   0  0  0  0  0  0  0  0  0  0  0  0
   11.2137  -17.2835   22.1985 C   0  0  1  0  0  0  0  0  0  0  0  0
   11.0057  -16.7999   20.7779 C   0  0  0  0  0  0  0  0  0  0  0  0
   10.7737  -14.9906   20.8804 S   0  0  0  0  0  0  0  0  0  0  0  0
   12.4819  -16.7385   22.7456 C   0  0  0  0  0  0  0  0  0  0  0  0
   13.1329  -15.9421   22.0258 O   0  0  0  0  0  0  0  0  0  0  0  0
    9.2209  -14.6698   28.5781 O   0  0  0  0  0  0  0  0  0  0  0  0
   10.3968  -15.1473   27.9727 C   0  0  0  0  0  0  0  0  0  0  0  0
   11.1105  -16.1941   28.5201 C   0  0  0  0  0  0  0  0  0  0  0  0
   12.2473  -16.6365   27.9118 C   0  0  0  0  0  0  0  0  0  0  0  0
   12.7293  -16.0691   26.7418 C   0  0  0  0  0  0  0  0  0  0  0  0
   13.9654  -16.6177   26.1669 C   0  0  0  0  0  0  0  0  0  0  0  0
   14.0814  -16.3983   24.6674 C   0  0  2  0  0  0  0  0  0  0  0  0
   12.9754  -17.0706   24.0125 N   0  0  0  0  0  0  0  0  0  0  0  0
   15.3834  -17.0220   24.2659 C   0  0  0  0  0  0  0  0  0  0  0  0
   15.3840  -18.0599   23.5589 O   0  0  0  0  0  0  0  0  0  0  0  0
   12.0045  -15.0256   26.2094 C   0  0  0  0  0  0  0  0  0  0  0  0
   10.8536  -14.5678   26.8131 C   0  0  0  0  0  0  0  0  0  0  0  0
   16.6088  -16.4958   24.6460 O   0  0  0  0  0  0  0  0  0  0  0  0
  2  1  1  1
  3  2  1  0
  4  5  2  0
  4  3  1  0
  6  5  1  0
  7 12  2  0
  7  6  1  0
  8  7  1  0
  9 10  1  0
  9  8  2  0
 10 11  2  0
 11 12  1  0
 12  4  1  0
 13  2  1  0
 14 13  2  0
 15 13  1  0
 16 17  1  6
 16 15  1  0
 17 18  1  0
 19 16  1  0
 20 19  2  0
 22 23  2  0
 22 21  1  0
 24 23  1  0
 25 24  2  0
 27 26  1  1
 26 25  1  0
 27 28  1  0
 28 19  1  0
 29 27  1  0
 29 33  1  0
 30 29  2  0
 31 25  1  0
 31 32  2  0
 32 22  1  0
M  END
$$$$
