WCY.pdb
     RDKit          3D

 33 35  0  0  1  0  0  0  0  0999 V2000
    6.9656  -17.9123   24.8408 N   0  0  0  0  0  0  0  0  0  0  0  0
    7.6886  -16.7944   24.2918 C   0  0  1  0  0  0  0  0  0  0  0  0
    8.0756  -15.8320   25.3531 C   0  0  0  0  0  0  0  0  0  0  0  0
    6.9773  -14.9871   25.8589 C   0  0  0  0  0  0  0  0  0  0  0  0
    5.8091  -15.4362   26.4883 C   0  0  0  0  0  0  0  0  0  0  0  0
    5.0692  -14.3781   26.8291 N   0  0  0  0  0  0  0  0  0  0  0  0
    5.6730  -13.2413   26.4641 C   0  0  0  0  0  0  0  0  0  0  0  0
    5.3359  -11.9166   26.5750 C   0  0  0  0  0  0  0  0  0  0  0  0
    6.1481  -10.8993   26.0970 C   0  0  0  0  0  0  0  0  0  0  0  0
    7.3165  -11.3001   25.5024 C   0  0  0  0  0  0  0  0  0  0  0  0
    7.6970  -12.6119   25.3683 C   0  0  0  0  0  0  0  0  0  0  0  0
    6.8731  -13.6169   25.8531 C   0  0  0  0  0  0  0  0  0  0  0  0
    8.8530  -17.3482   23.5515 C   0  0  0  0  0  0  0  0  0  0  0  0
    9.4548  -18.3978   23.9255 O   0  0  0  0  0  0  0  0  0  0  0  0
    9.3734  -16.7393   22.3728 N   0  0  0  0  0  0  0  0  0  0  0  0
   10.7329  -16.9164   21.9003 C   0  0  1  0  0  0  0  0  0  0  0  0
   10.8416  -16.1816   20.5798 C   0  0  0  0  0  0  0  0  0  0  0  0
   12.5039  -16.5551   19.9199 S   0  0  0  0  0  0  0  0  0  0  0  0
   11.7284  -16.3863   22.8659 C   0  0  0  0  0  0  0  0  0  0  0  0
   11.9754  -15.1558   22.8325 O   0  0  0  0  0  0  0  0  0  0  0  0
    9.6575  -14.0558   28.9403 O   0  0  0  0  0  0  0  0  0  0  0  0
   10.5797  -14.8247   28.2085 C   0  0  0  0  0  0  0  0  0  0  0  0
   10.6481  -16.1951   28.3575 C   0  0  0  0  0  0  0  0  0  0  0  0
   11.5521  -16.9155   27.6352 C   0  0  0  0  0  0  0  0  0  0  0  0
   12.4255  -16.3198   26.7376 C   0  0  0  0  0  0  0  0  0  0  0  0
   13.3638  -17.1852   26.0097 C   0  0  0  0  0  0  0  0  0  0  0  0
   13.5586  -16.7764   24.5588 C   0  0  2  0  0  0  0  0  0  0  0  0
   12.3938  -17.1894   23.7993 N   0  0  0  0  0  0  0  0  0  0  0  0
   14.7762  -17.5132   24.0899 C   0  0  0  0  0  0  0  0  0  0  0  0
   15.9011  -17.2225   24.5664 O   0  0  0  0  0  0  0  0  0  0  0  0
   12.3433  -14.9514   26.6015 C   0  0  0  0  0  0  0  0  0  0  0  0
   11.4346  -14.2101   27.3249 C   0  0  0  0  0  0  0  0  0  0  0  0
   14.7160  -18.5190   23.1371 O   0  0  0  0  0  0  0  0  0  0  0  0
  2  1  1  1
  3  2  1  0
  4  5  2  0
  4  3  1  0
  6  5  1  0
  7 12  2  0
  7  6  1  0
  8  7  1  0
  9 10  1  0
  9  8  2  0
 10 11  2  0
 11 12  1  0
 12  4  1  0
 13  2  1  0
 14 13  2  0
 15 13  1  0
 16 17  1  6
 16 15  1  0
 17 18  1  0
 19 16  1  0
 20 19  2  0
 22 23  2  0
 22 21  1  0
 24 23  1  0
 25 24  2  0
 27 26  1  1
 26 25  1  0
 27 28  1  0
 28 19  1  0
 29 27  1  0
 29 33  1  0
 30 29  2  0
 31 25  1  0
 31 32  2  0
 32 22  1  0
M  END
$$$$
