WCY.pdb
     RDKit          3D

 33 35  0  0  1  0  0  0  0  0999 V2000
    6.0671  -18.4359   23.3196 N   0  0  0  0  0  0  0  0  0  0  0  0
    6.5241  -17.4254   22.4009 C   0  0  1  0  0  0  0  0  0  0  0  0
    5.9946  -16.0883   22.7669 C   0  0  0  0  0  0  0  0  0  0  0  0
    6.2379  -15.6825   24.1641 C   0  0  0  0  0  0  0  0  0  0  0  0
    6.2110  -16.5203   25.2866 C   0  0  0  0  0  0  0  0  0  0  0  0
    6.5077  -15.7984   26.3701 N   0  0  0  0  0  0  0  0  0  0  0  0
    6.7325  -14.5213   26.0408 C   0  0  0  0  0  0  0  0  0  0  0  0
    7.0576  -13.4035   26.7658 C   0  0  0  0  0  0  0  0  0  0  0  0
    7.2323  -12.1597   26.1778 C   0  0  0  0  0  0  0  0  0  0  0  0
    7.0590  -12.1142   24.8187 C   0  0  0  0  0  0  0  0  0  0  0  0
    6.7341  -13.2044   24.0510 C   0  0  0  0  0  0  0  0  0  0  0  0
    6.5641  -14.4413   24.6551 C   0  0  0  0  0  0  0  0  0  0  0  0
    8.0097  -17.4837   22.3910 C   0  0  0  0  0  0  0  0  0  0  0  0
    8.6655  -18.1586   23.2384 O   0  0  0  0  0  0  0  0  0  0  0  0
    8.7989  -16.7862   21.4310 N   0  0  0  0  0  0  0  0  0  0  0  0
   10.2476  -16.7292   21.4585 C   0  0  1  0  0  0  0  0  0  0  0  0
   10.6903  -16.0955   20.1555 C   0  0  0  0  0  0  0  0  0  0  0  0
   12.5169  -16.1401   20.1576 S   0  0  0  0  0  0  0  0  0  0  0  0
   10.7490  -15.9379   22.6104 C   0  0  0  0  0  0  0  0  0  0  0  0
   10.1787  -14.8479   22.8615 O   0  0  0  0  0  0  0  0  0  0  0  0
   11.1271  -14.8186   31.0697 O   0  0  0  0  0  0  0  0  0  0  0  0
   11.0573  -15.1991   29.7178 C   0  0  0  0  0  0  0  0  0  0  0  0
   11.1816  -16.5200   29.3378 C   0  0  0  0  0  0  0  0  0  0  0  0
   11.1100  -16.8602   28.0197 C   0  0  0  0  0  0  0  0  0  0  0  0
   10.9137  -15.9175   27.0217 C   0  0  0  0  0  0  0  0  0  0  0  0
   10.8539  -16.3872   25.6307 C   0  0  0  0  0  0  0  0  0  0  0  0
   12.0275  -15.9191   24.7859 C   0  0  2  0  0  0  0  0  0  0  0  0
   11.8159  -16.3500   23.4171 N   0  0  0  0  0  0  0  0  0  0  0  0
   13.2363  -16.5900   25.3638 C   0  0  0  0  0  0  0  0  0  0  0  0
   13.4488  -17.8040   25.1228 O   0  0  0  0  0  0  0  0  0  0  0  0
   10.7916  -14.6041   27.4191 C   0  0  0  0  0  0  0  0  0  0  0  0
   10.8619  -14.2452   28.7475 C   0  0  0  0  0  0  0  0  0  0  0  0
   14.1468  -15.9194   26.1666 O   0  0  0  0  0  0  0  0  0  0  0  0
  2  1  1  1
  3  2  1  0
  4  5  2  0
  4  3  1  0
  6  5  1  0
  7 12  2  0
  7  6  1  0
  8  7  1  0
  9 10  1  0
  9  8  2  0
 10 11  2  0
 11 12  1  0
 12  4  1  0
 13  2  1  0
 14 13  2  0
 15 13  1  0
 16 17  1  6
 16 15  1  0
 17 18  1  0
 19 16  1  0
 20 19  2  0
 22 23  2  0
 22 21  1  0
 24 23  1  0
 25 24  2  0
 27 26  1  1
 26 25  1  0
 27 28  1  0
 28 19  1  0
 29 27  1  0
 29 33  1  0
 30 29  2  0
 31 25  1  0
 31 32  2  0
 32 22  1  0
M  END
$$$$
