WCY.pdb
     RDKit          3D

 33 35  0  0  1  0  0  0  0  0999 V2000
    6.4751  -18.3065   23.7647 N   0  0  0  0  0  0  0  0  0  0  0  0
    7.1272  -17.0225   23.7631 C   0  0  1  0  0  0  0  0  0  0  0  0
    7.7580  -16.7392   25.0762 C   0  0  0  0  0  0  0  0  0  0  0  0
    7.1773  -15.6017   25.8142 C   0  0  0  0  0  0  0  0  0  0  0  0
    6.0786  -15.6514   26.6819 C   0  0  0  0  0  0  0  0  0  0  0  0
    5.8685  -14.4310   27.1815 N   0  0  0  0  0  0  0  0  0  0  0  0
    6.7636  -13.5616   26.6986 C   0  0  0  0  0  0  0  0  0  0  0  0
    6.9711  -12.2192   26.8870 C   0  0  0  0  0  0  0  0  0  0  0  0
    7.9881  -11.5263   26.2476 C   0  0  0  0  0  0  0  0  0  0  0  0
    8.7790  -12.2691   25.4097 C   0  0  0  0  0  0  0  0  0  0  0  0
    8.6110  -13.6132   25.1893 C   0  0  0  0  0  0  0  0  0  0  0  0
    7.5893  -14.2910   25.8379 C   0  0  0  0  0  0  0  0  0  0  0  0
    8.0976  -17.0267   22.6367 C   0  0  0  0  0  0  0  0  0  0  0  0
    8.6599  -18.0871   22.2327 O   0  0  0  0  0  0  0  0  0  0  0  0
    8.4635  -15.8420   21.9341 N   0  0  0  0  0  0  0  0  0  0  0  0
    9.4932  -15.7883   20.9145 C   0  0  1  0  0  0  0  0  0  0  0  0
    9.1115  -14.6767   19.9584 C   0  0  0  0  0  0  0  0  0  0  0  0
    7.5443  -15.1911   19.1727 S   0  0  0  0  0  0  0  0  0  0  0  0
   10.8346  -15.5279   21.4951 C   0  0  0  0  0  0  0  0  0  0  0  0
   11.4602  -14.5183   21.0880 O   0  0  0  0  0  0  0  0  0  0  0  0
   10.0636  -15.1979   30.0653 O   0  0  0  0  0  0  0  0  0  0  0  0
   10.0726  -15.4009   28.6739 C   0  0  0  0  0  0  0  0  0  0  0  0
   10.3514  -14.3690   27.8009 C   0  0  0  0  0  0  0  0  0  0  0  0
   10.3531  -14.5945   26.4566 C   0  0  0  0  0  0  0  0  0  0  0  0
   10.0810  -15.8419   25.9152 C   0  0  0  0  0  0  0  0  0  0  0  0
   10.1055  -15.9797   24.4524 C   0  0  0  0  0  0  0  0  0  0  0  0
   11.5107  -16.0246   23.8750 C   0  0  2  0  0  0  0  0  0  0  0  0
   11.4230  -16.3489   22.4639 N   0  0  0  0  0  0  0  0  0  0  0  0
   12.2200  -17.1152   24.6185 C   0  0  0  0  0  0  0  0  0  0  0  0
   11.9960  -18.3155   24.3252 O   0  0  0  0  0  0  0  0  0  0  0  0
    9.8050  -16.8601   26.8010 C   0  0  0  0  0  0  0  0  0  0  0  0
    9.7997  -16.6472   28.1624 C   0  0  0  0  0  0  0  0  0  0  0  0
   13.1283  -16.8545   25.6334 O   0  0  0  0  0  0  0  0  0  0  0  0
  2  1  1  1
  3  2  1  0
  4  5  2  0
  4  3  1  0
  6  5  1  0
  7 12  2  0
  7  6  1  0
  8  7  1  0
  9 10  1  0
  9  8  2  0
 10 11  2  0
 11 12  1  0
 12  4  1  0
 13  2  1  0
 14 13  2  0
 15 13  1  0
 16 17  1  6
 16 15  1  0
 17 18  1  0
 19 16  1  0
 20 19  2  0
 22 23  2  0
 22 21  1  0
 24 23  1  0
 25 24  2  0
 27 26  1  1
 26 25  1  0
 27 28  1  0
 28 19  1  0
 29 27  1  0
 29 33  1  0
 30 29  2  0
 31 25  1  0
 31 32  2  0
 32 22  1  0
M  END
$$$$
