WCY.pdb
     RDKit          3D

 33 35  0  0  1  0  0  0  0  0999 V2000
    7.0205  -16.6912   22.6717 N   0  0  0  0  0  0  0  0  0  0  0  0
    8.2872  -16.1812   23.1291 C   0  0  1  0  0  0  0  0  0  0  0  0
    8.3683  -16.1959   24.6109 C   0  0  0  0  0  0  0  0  0  0  0  0
    7.3715  -15.3533   25.2981 C   0  0  0  0  0  0  0  0  0  0  0  0
    6.2386  -15.8052   25.9870 C   0  0  0  0  0  0  0  0  0  0  0  0
    5.5963  -14.7519   26.4980 N   0  0  0  0  0  0  0  0  0  0  0  0
    6.2326  -13.6155   26.1917 C   0  0  0  0  0  0  0  0  0  0  0  0
    5.9866  -12.2940   26.4634 C   0  0  0  0  0  0  0  0  0  0  0  0
    6.8131  -11.2753   26.0137 C   0  0  0  0  0  0  0  0  0  0  0  0
    7.8983  -11.6712   25.2757 C   0  0  0  0  0  0  0  0  0  0  0  0
    8.1862  -12.9796   24.9782 C   0  0  0  0  0  0  0  0  0  0  0  0
    7.3496  -13.9864   25.4368 C   0  0  0  0  0  0  0  0  0  0  0  0
    9.3470  -16.9951   22.4771 C   0  0  0  0  0  0  0  0  0  0  0  0
    9.0811  -18.0205   21.7832 O   0  0  0  0  0  0  0  0  0  0  0  0
   10.7327  -16.6808   22.5867 N   0  0  0  0  0  0  0  0  0  0  0  0
   11.8025  -17.6058   22.2663 C   0  0  1  0  0  0  0  0  0  0  0  0
   11.5942  -18.0430   20.8307 C   0  0  0  0  0  0  0  0  0  0  0  0
   11.4839  -16.5125   19.8390 S   0  0  0  0  0  0  0  0  0  0  0  0
   13.1404  -16.9815   22.4237 C   0  0  0  0  0  0  0  0  0  0  0  0
   14.0240  -17.2759   21.5818 O   0  0  0  0  0  0  0  0  0  0  0  0
   11.1367  -17.3986   30.7643 O   0  0  0  0  0  0  0  0  0  0  0  0
   11.3073  -17.1103   29.3987 C   0  0  0  0  0  0  0  0  0  0  0  0
   12.5610  -17.0895   28.8219 C   0  0  0  0  0  0  0  0  0  0  0  0
   12.6967  -16.8068   27.4954 C   0  0  0  0  0  0  0  0  0  0  0  0
   11.6076  -16.5331   26.6817 C   0  0  0  0  0  0  0  0  0  0  0  0
   11.8614  -16.2377   25.2648 C   0  0  0  0  0  0  0  0  0  0  0  0
   13.3212  -16.3893   24.8700 C   0  0  2  0  0  0  0  0  0  0  0  0
   13.4538  -16.0907   23.4567 N   0  0  0  0  0  0  0  0  0  0  0  0
   13.6665  -17.8230   25.1356 C   0  0  0  0  0  0  0  0  0  0  0  0
   13.0921  -18.7317   24.4864 O   0  0  0  0  0  0  0  0  0  0  0  0
   10.3641  -16.5583   27.2740 C   0  0  0  0  0  0  0  0  0  0  0  0
   10.2113  -16.8425   28.6136 C   0  0  0  0  0  0  0  0  0  0  0  0
   14.6078  -18.1983   26.0822 O   0  0  0  0  0  0  0  0  0  0  0  0
  2  1  1  1
  3  2  1  0
  4  5  2  0
  4  3  1  0
  6  5  1  0
  7 12  2  0
  7  6  1  0
  8  7  1  0
  9 10  1  0
  9  8  2  0
 10 11  2  0
 11 12  1  0
 12  4  1  0
 13  2  1  0
 14 13  2  0
 15 13  1  0
 16 17  1  6
 16 15  1  0
 17 18  1  0
 19 16  1  0
 20 19  2  0
 22 23  2  0
 22 21  1  0
 24 23  1  0
 25 24  2  0
 27 26  1  6
 26 25  1  0
 27 28  1  0
 28 19  1  0
 29 27  1  0
 29 33  1  0
 30 29  2  0
 31 25  1  0
 31 32  2  0
 32 22  1  0
M  END
$$$$
