WCY.pdb
     RDKit          3D

 33 35  0  0  1  0  0  0  0  0999 V2000
    7.8866  -18.2139   21.3264 N   0  0  0  0  0  0  0  0  0  0  0  0
    8.5423  -17.1400   22.0267 C   0  0  1  0  0  0  0  0  0  0  0  0
    7.5887  -16.0508   22.3531 C   0  0  0  0  0  0  0  0  0  0  0  0
    7.1372  -15.2508   21.1989 C   0  0  0  0  0  0  0  0  0  0  0  0
    6.1128  -15.5903   20.3057 C   0  0  0  0  0  0  0  0  0  0  0  0
    5.9761  -14.6068   19.4129 N   0  0  0  0  0  0  0  0  0  0  0  0
    6.8513  -13.6239   19.6540 C   0  0  0  0  0  0  0  0  0  0  0  0
    7.1177  -12.4267   19.0405 C   0  0  0  0  0  0  0  0  0  0  0  0
    8.1079  -11.5651   19.4880 C   0  0  0  0  0  0  0  0  0  0  0  0
    8.8098  -11.9851   20.5881 C   0  0  0  0  0  0  0  0  0  0  0  0
    8.5800  -13.1730   21.2357 C   0  0  0  0  0  0  0  0  0  0  0  0
    7.5848  -14.0226   20.7755 C   0  0  0  0  0  0  0  0  0  0  0  0
    9.1880  -17.7318   23.2281 C   0  0  0  0  0  0  0  0  0  0  0  0
    8.5935  -18.5649   23.9739 O   0  0  0  0  0  0  0  0  0  0  0  0
   10.5170  -17.4044   23.6252 N   0  0  0  0  0  0  0  0  0  0  0  0
   11.0995  -17.7806   24.8988 C   0  0  1  0  0  0  0  0  0  0  0  0
   12.5316  -18.1927   24.6257 C   0  0  0  0  0  0  0  0  0  0  0  0
   13.2293  -18.7182   26.2305 S   0  0  0  0  0  0  0  0  0  0  0  0
   11.0644  -16.6631   25.8756 C   0  0  0  0  0  0  0  0  0  0  0  0
   11.6097  -15.5817   25.5444 O   0  0  0  0  0  0  0  0  0  0  0  0
    6.4110  -12.6721   24.4326 O   0  0  0  0  0  0  0  0  0  0  0  0
    7.0971  -13.3367   25.4645 C   0  0  0  0  0  0  0  0  0  0  0  0
    7.9762  -12.6646   26.2894 C   0  0  0  0  0  0  0  0  0  0  0  0
    8.6277  -13.3344   27.2818 C   0  0  0  0  0  0  0  0  0  0  0  0
    8.4428  -14.6906   27.5045 C   0  0  0  0  0  0  0  0  0  0  0  0
    9.1951  -15.3193   28.5990 C   0  0  0  0  0  0  0  0  0  0  0  0
   10.5853  -15.7771   28.1893 C   0  0  2  0  0  0  0  0  0  0  0  0
   10.4574  -16.7627   27.1327 N   0  0  0  0  0  0  0  0  0  0  0  0
   11.1849  -16.3986   29.4138 C   0  0  0  0  0  0  0  0  0  0  0  0
   11.4019  -17.6353   29.4409 O   0  0  0  0  0  0  0  0  0  0  0  0
    7.5619  -15.3454   26.6720 C   0  0  0  0  0  0  0  0  0  0  0  0
    6.8961  -14.6816   25.6646 C   0  0  0  0  0  0  0  0  0  0  0  0
   11.5169  -15.6574   30.5378 O   0  0  0  0  0  0  0  0  0  0  0  0
  2  1  1  1
  3  2  1  0
  4  5  2  0
  4  3  1  0
  6  5  1  0
  7 12  2  0
  7  6  1  0
  8  7  1  0
  9 10  1  0
  9  8  2  0
 10 11  2  0
 11 12  1  0
 12  4  1  0
 13  2  1  0
 14 13  2  0
 15 13  1  0
 16 17  1  6
 16 15  1  0
 17 18  1  0
 19 16  1  0
 20 19  2  0
 22 23  2  0
 22 21  1  0
 24 23  1  0
 25 24  2  0
 27 26  1  1
 26 25  1  0
 27 28  1  0
 28 19  1  0
 29 27  1  0
 29 33  1  0
 30 29  2  0
 31 25  1  0
 31 32  2  0
 32 22  1  0
M  END
$$$$
