WCY.pdb
     RDKit          3D

 33 35  0  0  1  0  0  0  0  0999 V2000
    7.0788  -18.2325   24.9513 N   0  0  0  0  0  0  0  0  0  0  0  0
    7.7188  -17.1593   24.2355 C   0  0  1  0  0  0  0  0  0  0  0  0
    8.3496  -16.1929   25.1685 C   0  0  0  0  0  0  0  0  0  0  0  0
    7.4448  -15.1537   25.6953 C   0  0  0  0  0  0  0  0  0  0  0  0
    6.1553  -15.3581   26.2032 C   0  0  0  0  0  0  0  0  0  0  0  0
    5.6617  -14.1859   26.6101 N   0  0  0  0  0  0  0  0  0  0  0  0
    6.5460  -13.2032   26.4043 C   0  0  0  0  0  0  0  0  0  0  0  0
    6.5246  -11.8515   26.6352 C   0  0  0  0  0  0  0  0  0  0  0  0
    7.5916  -11.0250   26.3168 C   0  0  0  0  0  0  0  0  0  0  0  0
    8.6769  -11.6446   25.7533 C   0  0  0  0  0  0  0  0  0  0  0  0
    8.7454  -12.9922   25.5033 C   0  0  0  0  0  0  0  0  0  0  0  0
    7.6694  -13.8047   25.8289 C   0  0  0  0  0  0  0  0  0  0  0  0
    8.6868  -17.7792   23.2926 C   0  0  0  0  0  0  0  0  0  0  0  0
    9.2776  -18.8694   23.5498 O   0  0  0  0  0  0  0  0  0  0  0  0
    9.0184  -17.1926   22.0368 N   0  0  0  0  0  0  0  0  0  0  0  0
   10.2542  -17.4483   21.3225 C   0  0  1  0  0  0  0  0  0  0  0  0
   10.0892  -16.8702   19.9319 C   0  0  0  0  0  0  0  0  0  0  0  0
   11.5790  -17.3578   18.9933 S   0  0  0  0  0  0  0  0  0  0  0  0
   11.4229  -16.8316   21.9993 C   0  0  0  0  0  0  0  0  0  0  0  0
   11.9935  -15.8743   21.4211 O   0  0  0  0  0  0  0  0  0  0  0  0
    8.5478  -15.5147   28.5077 O   0  0  0  0  0  0  0  0  0  0  0  0
    9.5393  -15.4632   27.5119 C   0  0  0  0  0  0  0  0  0  0  0  0
    9.3843  -14.6801   26.3861 C   0  0  0  0  0  0  0  0  0  0  0  0
   10.3618  -14.6494   25.4367 C   0  0  0  0  0  0  0  0  0  0  0  0
   11.5309  -15.3861   25.5540 C   0  0  0  0  0  0  0  0  0  0  0  0
   12.5217  -15.2854   24.4736 C   0  0  0  0  0  0  0  0  0  0  0  0
   12.9956  -16.6362   23.9631 C   0  0  2  0  0  0  0  0  0  0  0  0
   11.9088  -17.2663   23.2378 N   0  0  0  0  0  0  0  0  0  0  0  0
   13.3400  -17.4333   25.1843 C   0  0  0  0  0  0  0  0  0  0  0  0
   14.2813  -17.0588   25.9265 O   0  0  0  0  0  0  0  0  0  0  0  0
   11.6689  -16.1619   26.6840 C   0  0  0  0  0  0  0  0  0  0  0  0
   10.6893  -16.2030   27.6521 C   0  0  0  0  0  0  0  0  0  0  0  0
   12.6546  -18.5856   25.5382 O   0  0  0  0  0  0  0  0  0  0  0  0
  2  1  1  1
  3  2  1  0
  4  5  2  0
  4  3  1  0
  6  5  1  0
  7 12  2  0
  7  6  1  0
  8  7  1  0
  9 10  1  0
  9  8  2  0
 10 11  2  0
 11 12  1  0
 12  4  1  0
 13  2  1  0
 14 13  2  0
 15 13  1  0
 16 17  1  6
 16 15  1  0
 17 18  1  0
 19 16  1  0
 20 19  2  0
 22 23  2  0
 22 21  1  0
 24 23  1  0
 25 24  2  0
 27 26  1  1
 26 25  1  0
 27 28  1  0
 28 19  1  0
 29 27  1  0
 29 33  1  0
 30 29  2  0
 31 25  1  0
 31 32  2  0
 32 22  1  0
M  END
$$$$
