WCY.pdb
     RDKit          3D

 33 35  0  0  1  0  0  0  0  0999 V2000
    8.4064  -17.8985   20.9057 N   0  0  0  0  0  0  0  0  0  0  0  0
    8.9780  -16.9381   21.8138 C   0  0  1  0  0  0  0  0  0  0  0  0
    7.9843  -15.9051   22.1981 C   0  0  0  0  0  0  0  0  0  0  0  0
    7.4336  -15.1219   21.0759 C   0  0  0  0  0  0  0  0  0  0  0  0
    6.1602  -15.2675   20.5104 C   0  0  0  0  0  0  0  0  0  0  0  0
    6.0150  -14.3644   19.5375 N   0  0  0  0  0  0  0  0  0  0  0  0
    7.1193  -13.6188   19.4154 C   0  0  0  0  0  0  0  0  0  0  0  0
    7.4739  -12.5877   18.5837 C   0  0  0  0  0  0  0  0  0  0  0  0
    8.7137  -11.9700   18.6508 C   0  0  0  0  0  0  0  0  0  0  0  0
    9.5698  -12.4557   19.6051 C   0  0  0  0  0  0  0  0  0  0  0  0
    9.2606  -13.4842   20.4595 C   0  0  0  0  0  0  0  0  0  0  0  0
    8.0155  -14.0902   20.3795 C   0  0  0  0  0  0  0  0  0  0  0  0
    9.5107  -17.6982   22.9753 C   0  0  0  0  0  0  0  0  0  0  0  0
    9.5649  -18.9634   22.9878 O   0  0  0  0  0  0  0  0  0  0  0  0
    9.9958  -17.0597   24.1534 N   0  0  0  0  0  0  0  0  0  0  0  0
   11.1188  -17.5419   24.9341 C   0  0  1  0  0  0  0  0  0  0  0  0
   12.3086  -17.6150   23.9990 C   0  0  0  0  0  0  0  0  0  0  0  0
   13.6105  -18.5311   24.8958 S   0  0  0  0  0  0  0  0  0  0  0  0
   11.4210  -16.6480   26.0803 C   0  0  0  0  0  0  0  0  0  0  0  0
   11.8375  -15.4916   25.8241 O   0  0  0  0  0  0  0  0  0  0  0  0
    6.9515  -11.6926   25.5063 O   0  0  0  0  0  0  0  0  0  0  0  0
    7.4612  -12.8615   26.0989 C   0  0  0  0  0  0  0  0  0  0  0  0
    6.8189  -14.0750   25.9583 C   0  0  0  0  0  0  0  0  0  0  0  0
    7.3356  -15.1921   26.5439 C   0  0  0  0  0  0  0  0  0  0  0  0
    8.5035  -15.1632   27.2912 C   0  0  0  0  0  0  0  0  0  0  0  0
    8.9755  -16.4224   27.8833 C   0  0  0  0  0  0  0  0  0  0  0  0
   10.4122  -16.3557   28.3748 C   0  0  2  0  0  0  0  0  0  0  0  0
   11.2633  -17.0345   27.4162 N   0  0  0  0  0  0  0  0  0  0  0  0
   10.4255  -17.0772   29.6880 C   0  0  0  0  0  0  0  0  0  0  0  0
   10.2032  -16.4426   30.7486 O   0  0  0  0  0  0  0  0  0  0  0  0
    9.1313  -13.9438   27.4210 C   0  0  0  0  0  0  0  0  0  0  0  0
    8.6208  -12.8062   26.8348 C   0  0  0  0  0  0  0  0  0  0  0  0
   10.6764  -18.4375   29.7869 O   0  0  0  0  0  0  0  0  0  0  0  0
  2  1  1  6
  3  2  1  0
  4  5  2  0
  4  3  1  0
  6  5  1  0
  7 12  2  0
  7  6  1  0
  8  7  1  0
  9 10  1  0
  9  8  2  0
 10 11  2  0
 11 12  1  0
 12  4  1  0
 13  2  1  0
 14 13  2  0
 15 13  1  0
 16 17  1  6
 16 15  1  0
 17 18  1  0
 19 16  1  0
 20 19  2  0
 22 23  2  0
 22 21  1  0
 24 23  1  0
 25 24  2  0
 27 26  1  6
 26 25  1  0
 27 28  1  0
 28 19  1  0
 29 27  1  0
 29 33  1  0
 30 29  2  0
 31 25  1  0
 31 32  2  0
 32 22  1  0
M  END
$$$$
