WCY.pdb
     RDKit          3D

 33 35  0  0  1  0  0  0  0  0999 V2000
    7.3420  -18.3396   22.9710 N   0  0  0  0  0  0  0  0  0  0  0  0
    8.2093  -18.3805   21.8221 C   0  0  1  0  0  0  0  0  0  0  0  0
    7.5908  -17.6989   20.6580 C   0  0  0  0  0  0  0  0  0  0  0  0
    7.0768  -16.3433   20.9302 C   0  0  0  0  0  0  0  0  0  0  0  0
    6.0272  -16.0141   21.7977 C   0  0  0  0  0  0  0  0  0  0  0  0
    5.8717  -14.6879   21.8021 N   0  0  0  0  0  0  0  0  0  0  0  0
    6.7573  -14.1050   20.9859 C   0  0  0  0  0  0  0  0  0  0  0  0
    7.0041  -12.8015   20.6385 C   0  0  0  0  0  0  0  0  0  0  0  0
    7.9988  -12.4463   19.7399 C   0  0  0  0  0  0  0  0  0  0  0  0
    8.7257  -13.4837   19.2158 C   0  0  0  0  0  0  0  0  0  0  0  0
    8.5165  -14.8025   19.5325 C   0  0  0  0  0  0  0  0  0  0  0  0
    7.5179  -15.1402   20.4341 C   0  0  0  0  0  0  0  0  0  0  0  0
    9.5056  -17.7784   22.2316 C   0  0  0  0  0  0  0  0  0  0  0  0
   10.5101  -17.7476   21.4611 O   0  0  0  0  0  0  0  0  0  0  0  0
    9.7097  -17.1958   23.5161 N   0  0  0  0  0  0  0  0  0  0  0  0
   10.9171  -16.4937   23.9063 C   0  0  1  0  0  0  0  0  0  0  0  0
   10.9834  -15.2306   23.0723 C   0  0  0  0  0  0  0  0  0  0  0  0
    9.4428  -14.3094   23.4127 S   0  0  0  0  0  0  0  0  0  0  0  0
   10.9183  -16.1550   25.3518 C   0  0  0  0  0  0  0  0  0  0  0  0
   10.7202  -14.9567   25.6701 O   0  0  0  0  0  0  0  0  0  0  0  0
    7.1360  -11.8192   26.6755 O   0  0  0  0  0  0  0  0  0  0  0  0
    7.6936  -13.0667   27.0072 C   0  0  0  0  0  0  0  0  0  0  0  0
    8.7238  -13.1714   27.9196 C   0  0  0  0  0  0  0  0  0  0  0  0
    9.2454  -14.3939   28.2221 C   0  0  0  0  0  0  0  0  0  0  0  0
    8.7768  -15.5627   27.6412 C   0  0  0  0  0  0  0  0  0  0  0  0
    9.4088  -16.8300   28.0335 C   0  0  0  0  0  0  0  0  0  0  0  0
   10.9060  -16.8621   27.7741 C   0  0  2  0  0  0  0  0  0  0  0  0
   11.1278  -17.1019   26.3608 N   0  0  0  0  0  0  0  0  0  0  0  0
   11.4341  -18.0046   28.5871 C   0  0  0  0  0  0  0  0  0  0  0  0
   11.8411  -19.0430   28.0098 O   0  0  0  0  0  0  0  0  0  0  0  0
    7.7482  -15.4396   26.7331 C   0  0  0  0  0  0  0  0  0  0  0  0
    7.2110  -14.2107   26.4174 C   0  0  0  0  0  0  0  0  0  0  0  0
   11.4949  -17.9667   29.9720 O   0  0  0  0  0  0  0  0  0  0  0  0
  2  1  1  1
  3  2  1  0
  4  5  2  0
  4  3  1  0
  6  5  1  0
  7 12  2  0
  7  6  1  0
  8  7  1  0
  9 10  1  0
  9  8  2  0
 10 11  2  0
 11 12  1  0
 12  4  1  0
 13  2  1  0
 14 13  2  0
 15 13  1  0
 16 17  1  6
 16 15  1  0
 17 18  1  0
 19 16  1  0
 20 19  2  0
 22 23  2  0
 22 21  1  0
 24 23  1  0
 25 24  2  0
 27 26  1  6
 26 25  1  0
 27 28  1  0
 28 19  1  0
 29 27  1  0
 29 33  1  0
 30 29  2  0
 31 25  1  0
 31 32  2  0
 32 22  1  0
M  END
$$$$
