WCY.pdb
     RDKit          3D

 33 35  0  0  1  0  0  0  0  0999 V2000
    5.4795  -17.8308   24.0743 N   0  0  0  0  0  0  0  0  0  0  0  0
    6.7700  -17.6768   23.4541 C   0  0  1  0  0  0  0  0  0  0  0  0
    7.6403  -16.7702   24.2434 C   0  0  0  0  0  0  0  0  0  0  0  0
    6.9404  -15.6503   24.9007 C   0  0  0  0  0  0  0  0  0  0  0  0
    5.6219  -15.6611   25.3741 C   0  0  0  0  0  0  0  0  0  0  0  0
    5.3544  -14.4773   25.9310 N   0  0  0  0  0  0  0  0  0  0  0  0
    6.4184  -13.6693   25.8590 C   0  0  0  0  0  0  0  0  0  0  0  0
    6.6538  -12.3811   26.2662 C   0  0  0  0  0  0  0  0  0  0  0  0
    7.8698  -11.7464   26.0623 C   0  0  0  0  0  0  0  0  0  0  0  0
    8.8293  -12.4891   25.4244 C   0  0  0  0  0  0  0  0  0  0  0  0
    8.6413  -13.7802   24.9989 C   0  0  0  0  0  0  0  0  0  0  0  0
    7.4191  -14.4005   25.2118 C   0  0  0  0  0  0  0  0  0  0  0  0
    7.3412  -19.0396   23.2898 C   0  0  0  0  0  0  0  0  0  0  0  0
    6.7225  -20.0810   23.6593 O   0  0  0  0  0  0  0  0  0  0  0  0
    8.6213  -19.2705   22.7076 N   0  0  0  0  0  0  0  0  0  0  0  0
    8.9687  -18.9171   21.3447 C   0  0  1  0  0  0  0  0  0  0  0  0
    7.7048  -18.4049   20.6846 C   0  0  0  0  0  0  0  0  0  0  0  0
    8.0828  -18.2492   18.9039 S   0  0  0  0  0  0  0  0  0  0  0  0
   10.0302  -17.8803   21.2947 C   0  0  0  0  0  0  0  0  0  0  0  0
   10.9477  -18.0253   20.4500 O   0  0  0  0  0  0  0  0  0  0  0  0
    6.3736  -13.1461   18.5437 O   0  0  0  0  0  0  0  0  0  0  0  0
    7.3785  -13.4509   19.4788 C   0  0  0  0  0  0  0  0  0  0  0  0
    7.0684  -13.9589   20.7241 C   0  0  0  0  0  0  0  0  0  0  0  0
    8.0632  -14.2453   21.6109 C   0  0  0  0  0  0  0  0  0  0  0  0
    9.4022  -14.0445   21.3113 C   0  0  0  0  0  0  0  0  0  0  0  0
   10.3976  -14.3829   22.3379 C   0  0  0  0  0  0  0  0  0  0  0  0
   11.0666  -15.7281   22.1081 C   0  0  2  0  0  0  0  0  0  0  0  0
   10.0510  -16.7633   22.1377 N   0  0  0  0  0  0  0  0  0  0  0  0
   12.0252  -15.9040   23.2462 C   0  0  0  0  0  0  0  0  0  0  0  0
   13.0280  -15.1533   23.3365 O   0  0  0  0  0  0  0  0  0  0  0  0
    9.6934  -13.5370   20.0641 C   0  0  0  0  0  0  0  0  0  0  0  0
    8.6986  -13.2428   19.1572 C   0  0  0  0  0  0  0  0  0  0  0  0
   11.8523  -16.8748   24.2212 O   0  0  0  0  0  0  0  0  0  0  0  0
  2  1  1  1
  3  2  1  0
  4  5  2  0
  4  3  1  0
  6  5  1  0
  7 12  2  0
  7  6  1  0
  8  7  1  0
  9 10  1  0
  9  8  2  0
 10 11  2  0
 11 12  1  0
 12  4  1  0
 13  2  1  0
 14 13  2  0
 15 13  1  0
 16 17  1  1
 16 15  1  0
 17 18  1  0
 19 16  1  0
 20 19  2  0
 22 23  2  0
 22 21  1  0
 24 23  1  0
 25 24  2  0
 27 26  1  1
 26 25  1  0
 27 28  1  0
 28 19  1  0
 29 27  1  0
 29 33  1  0
 30 29  2  0
 31 25  1  0
 31 32  2  0
 32 22  1  0
M  END
$$$$
