WCY.pdb
     RDKit          3D

 33 35  0  0  1  0  0  0  0  0999 V2000
    6.9285  -17.8208   26.1853 N   0  0  0  0  0  0  0  0  0  0  0  0
    7.1119  -16.8879   25.1037 C   0  0  1  0  0  0  0  0  0  0  0  0
    8.2998  -16.0281   25.3320 C   0  0  0  0  0  0  0  0  0  0  0  0
    8.1680  -15.0647   26.4412 C   0  0  0  0  0  0  0  0  0  0  0  0
    8.7786  -15.1603   27.6984 C   0  0  0  0  0  0  0  0  0  0  0  0
    8.4459  -14.0882   28.4217 N   0  0  0  0  0  0  0  0  0  0  0  0
    7.6449  -13.2759   27.7226 C   0  0  0  0  0  0  0  0  0  0  0  0
    7.0349  -12.0806   28.0054 C   0  0  0  0  0  0  0  0  0  0  0  0
    6.2239  -11.4244   27.0917 C   0  0  0  0  0  0  0  0  0  0  0  0
    6.0672  -12.0467   25.8803 C   0  0  0  0  0  0  0  0  0  0  0  0
    6.6566  -13.2416   25.5511 C   0  0  0  0  0  0  0  0  0  0  0  0
    7.4657  -13.8841   26.4765 C   0  0  0  0  0  0  0  0  0  0  0  0
    7.1976  -17.6832   23.8505 C   0  0  0  0  0  0  0  0  0  0  0  0
    7.5057  -18.9116   23.8490 O   0  0  0  0  0  0  0  0  0  0  0  0
    6.9406  -17.1220   22.5659 N   0  0  0  0  0  0  0  0  0  0  0  0
    7.3367  -17.7411   21.3158 C   0  0  1  0  0  0  0  0  0  0  0  0
    6.3834  -17.2376   20.2513 C   0  0  0  0  0  0  0  0  0  0  0  0
    4.7731  -16.9924   21.0790 S   0  0  0  0  0  0  0  0  0  0  0  0
    8.7364  -17.4063   20.9510 C   0  0  0  0  0  0  0  0  0  0  0  0
    9.2146  -17.9419   19.9210 O   0  0  0  0  0  0  0  0  0  0  0  0
    7.0296  -12.9800   17.1233 O   0  0  0  0  0  0  0  0  0  0  0  0
    7.9474  -13.3621   18.1177 C   0  0  0  0  0  0  0  0  0  0  0  0
    9.1922  -13.8605   17.7907 C   0  0  0  0  0  0  0  0  0  0  0  0
   10.0619  -14.2232   18.7756 C   0  0  0  0  0  0  0  0  0  0  0  0
    9.7449  -14.1114   20.1210 C   0  0  0  0  0  0  0  0  0  0  0  0
   10.7519  -14.5324   21.1048 C   0  0  0  0  0  0  0  0  0  0  0  0
   10.8332  -16.0404   21.2761 C   0  0  2  0  0  0  0  0  0  0  0  0
    9.5344  -16.5310   21.6965 N   0  0  0  0  0  0  0  0  0  0  0  0
   11.8519  -16.2722   22.3502 C   0  0  0  0  0  0  0  0  0  0  0  0
   11.4989  -16.7804   23.4430 O   0  0  0  0  0  0  0  0  0  0  0  0
    8.4985  -13.6120   20.4291 C   0  0  0  0  0  0  0  0  0  0  0  0
    7.6088  -13.2413   19.4444 C   0  0  0  0  0  0  0  0  0  0  0  0
   13.1900  -15.9455   22.1894 O   0  0  0  0  0  0  0  0  0  0  0  0
  2  1  1  1
  3  2  1  0
  4  5  2  0
  4  3  1  0
  6  5  1  0
  7 12  2  0
  7  6  1  0
  8  7  1  0
  9 10  1  0
  9  8  2  0
 10 11  2  0
 11 12  1  0
 12  4  1  0
 13  2  1  0
 14 13  2  0
 15 13  1  0
 16 17  1  6
 16 15  1  0
 17 18  1  0
 19 16  1  0
 20 19  2  0
 22 23  2  0
 22 21  1  0
 24 23  1  0
 25 24  2  0
 27 26  1  1
 26 25  1  0
 27 28  1  0
 28 19  1  0
 29 27  1  0
 29 33  1  0
 30 29  2  0
 31 25  1  0
 31 32  2  0
 32 22  1  0
M  END
$$$$
