WCY.pdb
     RDKit          3D

 33 35  0  0  1  0  0  0  0  0999 V2000
    6.4654  -18.7128   24.2598 N   0  0  0  0  0  0  0  0  0  0  0  0
    6.5941  -17.2918   24.0643 C   0  0  1  0  0  0  0  0  0  0  0  0
    7.0817  -16.6226   25.2959 C   0  0  0  0  0  0  0  0  0  0  0  0
    6.2450  -15.5042   25.7705 C   0  0  0  0  0  0  0  0  0  0  0  0
    5.0745  -15.6109   26.5327 C   0  0  0  0  0  0  0  0  0  0  0  0
    4.6158  -14.3839   26.7919 N   0  0  0  0  0  0  0  0  0  0  0  0
    5.4113  -13.4565   26.2467 C   0  0  0  0  0  0  0  0  0  0  0  0
    5.3790  -12.0858   26.2165 C   0  0  0  0  0  0  0  0  0  0  0  0
    6.3403  -11.3329   25.5592 C   0  0  0  0  0  0  0  0  0  0  0  0
    7.3319  -12.0460   24.9367 C   0  0  0  0  0  0  0  0  0  0  0  0
    7.4069  -13.4163   24.9392 C   0  0  0  0  0  0  0  0  0  0  0  0
    6.4375  -14.1541   25.6025 C   0  0  0  0  0  0  0  0  0  0  0  0
    7.4906  -17.0911   22.8953 C   0  0  0  0  0  0  0  0  0  0  0  0
    8.5335  -17.7867   22.7158 O   0  0  0  0  0  0  0  0  0  0  0  0
    7.2416  -16.1046   21.8974 N   0  0  0  0  0  0  0  0  0  0  0  0
    8.2626  -15.5560   21.0259 C   0  0  1  0  0  0  0  0  0  0  0  0
    7.6422  -14.3762   20.3057 C   0  0  0  0  0  0  0  0  0  0  0  0
    8.9471  -13.6897   19.2267 S   0  0  0  0  0  0  0  0  0  0  0  0
    9.4628  -15.1211   21.7841 C   0  0  0  0  0  0  0  0  0  0  0  0
    9.5936  -13.8940   22.0151 O   0  0  0  0  0  0  0  0  0  0  0  0
   12.3536  -15.6805   29.8299 O   0  0  0  0  0  0  0  0  0  0  0  0
   11.8029  -15.7913   28.5408 C   0  0  0  0  0  0  0  0  0  0  0  0
   11.5836  -17.0233   27.9588 C   0  0  0  0  0  0  0  0  0  0  0  0
   11.0484  -17.1009   26.7075 C   0  0  0  0  0  0  0  0  0  0  0  0
   10.7071  -15.9725   25.9773 C   0  0  0  0  0  0  0  0  0  0  0  0
   10.1389  -16.1641   24.6358 C   0  0  0  0  0  0  0  0  0  0  0  0
   11.1296  -15.8874   23.5168 C   0  0  2  0  0  0  0  0  0  0  0  0
   10.4410  -16.0092   22.2459 N   0  0  0  0  0  0  0  0  0  0  0  0
   12.1869  -16.9418   23.6412 C   0  0  0  0  0  0  0  0  0  0  0  0
   12.0360  -18.0455   23.0614 O   0  0  0  0  0  0  0  0  0  0  0  0
   10.9328  -14.7513   26.5736 C   0  0  0  0  0  0  0  0  0  0  0  0
   11.4730  -14.6573   27.8377 C   0  0  0  0  0  0  0  0  0  0  0  0
   13.3446  -16.7508   24.3803 O   0  0  0  0  0  0  0  0  0  0  0  0
  2  1  1  1
  3  2  1  0
  4  5  2  0
  4  3  1  0
  6  5  1  0
  7 12  2  0
  7  6  1  0
  8  7  1  0
  9 10  1  0
  9  8  2  0
 10 11  2  0
 11 12  1  0
 12  4  1  0
 13  2  1  0
 14 13  2  0
 15 13  1  0
 16 17  1  1
 16 15  1  0
 17 18  1  0
 19 16  1  0
 20 19  2  0
 22 23  2  0
 22 21  1  0
 24 23  1  0
 25 24  2  0
 27 26  1  1
 26 25  1  0
 27 28  1  0
 28 19  1  0
 29 27  1  0
 29 33  1  0
 30 29  2  0
 31 25  1  0
 31 32  2  0
 32 22  1  0
M  END
$$$$
