WRI.pdb
     RDKit          3D

 34 35  0  0  1  0  0  0  0  0999 V2000
   25.4695  -19.0039   -8.7196 N   0  0  0  0  0  0  0  0  0  0  0  0
   26.5494  -19.8568   -9.1415 C   0  0  1  0  0  0  0  0  0  0  0  0
   26.7326  -20.9752   -8.1758 C   0  0  0  0  0  0  0  0  0  0  0  0
   27.2049  -20.5970   -6.8387 C   0  0  0  0  0  0  0  0  0  0  0  0
   26.3770  -20.3343   -5.7327 C   0  0  0  0  0  0  0  0  0  0  0  0
   27.1329  -20.0551   -4.6890 N   0  0  0  0  0  0  0  0  0  0  0  0
   28.4427  -20.1038   -4.9895 C   0  0  0  0  0  0  0  0  0  0  0  0
   29.5830  -19.8878   -4.2534 C   0  0  0  0  0  0  0  0  0  0  0  0
   30.8048  -20.0091   -4.8657 C   0  0  0  0  0  0  0  0  0  0  0  0
   30.8857  -20.3447   -6.2084 C   0  0  0  0  0  0  0  0  0  0  0  0
   29.7215  -20.5549   -6.9178 C   0  0  0  0  0  0  0  0  0  0  0  0
   28.4827  -20.4462   -6.3494 C   0  0  0  0  0  0  0  0  0  0  0  0
   26.2419  -20.3566  -10.5230 C   0  0  0  0  0  0  0  0  0  0  0  0
   25.0304  -20.6291  -10.8359 O   0  0  0  0  0  0  0  0  0  0  0  0
   30.0685  -22.8317  -17.6247 N   0  0  0  0  0  0  0  0  0  0  0  0
   28.9098  -22.1670  -18.1039 C   0  0  0  0  0  0  0  0  0  0  0  0
   28.3808  -22.4875  -19.2340 N   0  0  0  0  0  0  0  0  0  0  0  0
   28.2708  -21.1185  -17.3715 N   0  0  0  0  0  0  0  0  0  0  0  0
   28.6489  -20.8665  -16.0017 C   0  0  0  0  0  0  0  0  0  0  0  0
   27.8330  -21.6738  -15.0233 C   0  0  0  0  0  0  0  0  0  0  0  0
   28.2319  -21.2352  -13.6233 C   0  0  0  0  0  0  0  0  0  0  0  0
   26.9878  -20.8585  -12.8976 C   0  0  2  0  0  0  0  0  0  0  0  0
   27.2319  -20.5505  -11.5245 N   0  0  0  0  0  0  0  0  0  0  0  0
   25.8782  -21.8411  -13.0294 C   0  0  0  0  0  0  0  0  0  0  0  0
   25.9200  -22.8815  -12.3351 O   0  0  0  0  0  0  0  0  0  0  0  0
   27.5029  -22.0383  -19.5283 C   0  0  0  0  0  0  0  0  0  0  0  0
   20.6841  -20.4941  -15.1153 C   0  0  0  0  0  0  0  0  0  0  0  0
   22.0927  -21.0179  -15.1774 C   0  0  2  0  0  0  0  0  0  0  0  0
   22.3447  -21.9623  -14.0560 C   0  0  0  0  0  0  0  0  0  0  0  0
   22.2373  -21.1459  -12.7585 C   0  0  1  0  0  0  0  0  0  0  0  0
   23.6837  -22.6138  -14.0326 N   0  0  0  0  0  0  0  0  0  0  0  0
   24.7783  -21.6746  -13.8900 C   0  0  0  0  0  0  0  0  0  0  0  0
   23.9284  -23.6001  -15.1007 O   0  0  0  0  0  0  0  0  0  0  0  0
   23.3024  -24.8502  -15.1379 O   0  0  0  0  0  0  0  0  0  0  0  0
  2  1  1  1
  3  2  1  0
  4  3  1  0
  5  4  2  0
  6  5  1  0
  7  6  1  0
  7 12  2  0
  8  7  1  0
  9  8  2  0
  9 10  1  0
 10 11  2  0
 11 12  1  0
 12  4  1  0
 13 14  2  0
 13  2  1  0
 16 17  2  0
 16 15  1  0
 18 16  1  0
 18 19  1  0
 19 20  1  0
 20 21  1  0
 22 21  1  1
 22 23  1  0
 22 24  1  0
 23 13  1  0
 24 31  1  0
 24 25  2  0
 27 26  1  0
 28 27  1  0
 28 29  1  6
 30 28  1  0
 30 31  1  1
 32 33  1  0
 32 30  1  0
 34 32  2  0
M  END
$$$$
