WRI.pdb
     RDKit          3D

 34 35  0  0  1  0  0  0  0  0999 V2000
   26.2365  -23.0042  -12.3171 N   0  0  0  0  0  0  0  0  0  0  0  0
   25.5676  -21.8312  -11.8188 C   0  0  1  0  0  0  0  0  0  0  0  0
   26.5079  -20.6772  -11.7795 C   0  0  0  0  0  0  0  0  0  0  0  0
   27.5662  -20.7467  -10.7651 C   0  0  0  0  0  0  0  0  0  0  0  0
   28.9258  -20.9892  -11.0299 C   0  0  0  0  0  0  0  0  0  0  0  0
   29.5959  -20.9536   -9.8948 N   0  0  0  0  0  0  0  0  0  0  0  0
   28.7939  -20.7015   -8.8453 C   0  0  0  0  0  0  0  0  0  0  0  0
   29.0247  -20.5784   -7.4962 C   0  0  0  0  0  0  0  0  0  0  0  0
   27.9681  -20.3211   -6.6596 C   0  0  0  0  0  0  0  0  0  0  0  0
   26.6862  -20.1878   -7.1704 C   0  0  0  0  0  0  0  0  0  0  0  0
   26.4896  -20.3170   -8.5296 C   0  0  0  0  0  0  0  0  0  0  0  0
   27.5121  -20.5721   -9.4008 C   0  0  0  0  0  0  0  0  0  0  0  0
   24.3826  -21.5563  -12.6979 C   0  0  0  0  0  0  0  0  0  0  0  0
   24.5370  -21.5320  -13.9689 O   0  0  0  0  0  0  0  0  0  0  0  0
   19.3209  -25.0164  -14.2495 N   0  0  0  0  0  0  0  0  0  0  0  0
   19.0532  -25.1125  -12.8591 C   0  0  0  0  0  0  0  0  0  0  0  0
   19.2384  -26.2170  -12.2226 N   0  0  0  0  0  0  0  0  0  0  0  0
   18.5695  -24.0055  -12.0944 N   0  0  0  0  0  0  0  0  0  0  0  0
   18.5220  -22.6903  -12.6867 C   0  0  0  0  0  0  0  0  0  0  0  0
   19.8250  -22.3094  -13.3437 C   0  0  0  0  0  0  0  0  0  0  0  0
   20.6685  -21.5891  -12.3038 C   0  0  0  0  0  0  0  0  0  0  0  0
   21.9007  -21.1017  -12.9822 C   0  0  2  0  0  0  0  0  0  0  0  0
   23.0742  -21.3158  -12.1968 N   0  0  0  0  0  0  0  0  0  0  0  0
   21.8277  -19.6908  -13.4492 C   0  0  0  0  0  0  0  0  0  0  0  0
   21.7645  -18.7829  -12.5902 O   0  0  0  0  0  0  0  0  0  0  0  0
   19.0181  -26.2667  -11.2186 C   0  0  0  0  0  0  0  0  0  0  0  0
   24.4589  -17.8242  -17.8639 C   0  0  0  0  0  0  0  0  0  0  0  0
   23.8709  -17.8375  -16.4795 C   0  0  2  0  0  0  0  0  0  0  0  0
   22.3940  -17.6707  -16.5418 C   0  0  0  0  0  0  0  0  0  0  0  0
   22.1302  -16.1948  -16.8790 C   0  0  2  0  0  0  0  0  0  0  0  0
   21.6461  -17.9547  -15.2857 N   0  0  0  0  0  0  0  0  0  0  0  0
   21.8251  -19.3095  -14.8030 C   0  0  0  0  0  0  0  0  0  0  0  0
   20.2308  -17.5421  -15.2825 O   0  0  0  0  0  0  0  0  0  0  0  0
   19.1746  -18.4508  -15.4043 O   0  0  0  0  0  0  0  0  0  0  0  0
  2  1  1  6
  3  2  1  0
  4  3  1  0
  5  4  2  0
  6  5  1  0
  7  6  1  0
  7 12  2  0
  8  7  1  0
  9  8  2  0
  9 10  1  0
 10 11  2  0
 11 12  1  0
 12  4  1  0
 13 14  2  0
 13  2  1  0
 16 17  2  0
 16 15  1  0
 18 16  1  0
 18 19  1  0
 19 20  1  0
 20 21  1  0
 22 21  1  1
 22 23  1  0
 22 24  1  0
 23 13  1  0
 24 31  1  0
 24 25  2  0
 27 26  1  0
 28 27  1  0
 28 29  1  6
 30 28  1  0
 30 31  1  1
 32 33  1  0
 32 30  1  0
 34 32  2  0
M  END
$$$$
