WRI.pdb
     RDKit          3D

 34 35  0  0  1  0  0  0  0  0999 V2000
   17.7458  -13.2698    3.9534 N   0  0  0  0  0  0  0  0  0  0  0  0
   18.2379  -13.3988    5.2998 C   0  0  1  0  0  0  0  0  0  0  0  0
   17.3566  -12.6599    6.2455 C   0  0  0  0  0  0  0  0  0  0  0  0
   17.9978  -11.5862    7.0136 C   0  0  0  0  0  0  0  0  0  0  0  0
   17.3451  -10.7531    7.9396 C   0  0  0  0  0  0  0  0  0  0  0  0
   18.2259   -9.9239    8.4644 N   0  0  0  0  0  0  0  0  0  0  0  0
   19.4595  -10.1195    7.9662 C   0  0  0  0  0  0  0  0  0  0  0  0
   20.6709   -9.5122    8.1947 C   0  0  0  0  0  0  0  0  0  0  0  0
   21.7746   -9.9450    7.5040 C   0  0  0  0  0  0  0  0  0  0  0  0
   21.6668  -10.9804    6.5885 C   0  0  0  0  0  0  0  0  0  0  0  0
   20.4358  -11.5681    6.3834 C   0  0  0  0  0  0  0  0  0  0  0  0
   19.3097  -11.1708    7.0493 C   0  0  0  0  0  0  0  0  0  0  0  0
   18.3153  -14.8599    5.6343 C   0  0  0  0  0  0  0  0  0  0  0  0
   17.9030  -15.7212    4.7811 O   0  0  0  0  0  0  0  0  0  0  0  0
   22.4067  -20.2280   11.0160 N   0  0  0  0  0  0  0  0  0  0  0  0
   21.3436  -20.8282   10.2925 C   0  0  0  0  0  0  0  0  0  0  0  0
   20.7781  -21.9055   10.7159 N   0  0  0  0  0  0  0  0  0  0  0  0
   20.8449  -20.2807    9.0695 N   0  0  0  0  0  0  0  0  0  0  0  0
   20.6872  -18.8524    8.9343 C   0  0  0  0  0  0  0  0  0  0  0  0
   19.2383  -18.4341    8.9183 C   0  0  0  0  0  0  0  0  0  0  0  0
   19.1974  -16.9356    8.6647 C   0  0  0  0  0  0  0  0  0  0  0  0
   19.0155  -16.7311    7.2013 C   0  0  2  0  0  0  0  0  0  0  0  0
   18.8274  -15.3561    6.8642 N   0  0  0  0  0  0  0  0  0  0  0  0
   17.9532  -17.5750    6.5905 C   0  0  0  0  0  0  0  0  0  0  0  0
   16.7577  -17.2726    6.8040 O   0  0  0  0  0  0  0  0  0  0  0  0
   19.9470  -22.2670   10.2284 C   0  0  0  0  0  0  0  0  0  0  0  0
   14.6817  -19.1730    2.6463 C   0  0  0  0  0  0  0  0  0  0  0  0
   15.8787  -19.9852    3.0586 C   0  0  2  0  0  0  0  0  0  0  0  0
   16.8644  -19.1302    3.7729 C   0  0  0  0  0  0  0  0  0  0  0  0
   18.1778  -19.2132    2.9794 C   0  0  2  0  0  0  0  0  0  0  0  0
   17.1918  -19.5298    5.1698 N   0  0  0  0  0  0  0  0  0  0  0  0
   18.2079  -18.6982    5.7832 C   0  0  0  0  0  0  0  0  0  0  0  0
   17.4461  -20.9673    5.3756 O   0  0  0  0  0  0  0  0  0  0  0  0
   16.4859  -21.9523    5.1228 O   0  0  0  0  0  0  0  0  0  0  0  0
  2  1  1  6
  3  2  1  0
  4  3  1  0
  5  4  2  0
  6  5  1  0
  7  6  1  0
  7 12  2  0
  8  7  1  0
  9  8  2  0
  9 10  1  0
 10 11  2  0
 11 12  1  0
 12  4  1  0
 13 14  2  0
 13  2  1  0
 16 17  2  0
 16 15  1  0
 18 16  1  0
 18 19  1  0
 19 20  1  0
 20 21  1  0
 22 21  1  1
 22 23  1  0
 22 24  1  0
 23 13  1  0
 24 31  1  0
 24 25  2  0
 27 26  1  0
 28 27  1  0
 28 29  1  1
 30 28  1  0
 30 31  1  1
 32 33  1  0
 32 30  1  0
 34 32  2  0
M  END
$$$$
