WRI.pdb
     RDKit          3D

 34 35  0  0  1  0  0  0  0  0999 V2000
   27.3690  -18.5306   -9.5363 N   0  0  0  0  0  0  0  0  0  0  0  0
   27.3732  -19.9532   -9.7552 C   0  0  1  0  0  0  0  0  0  0  0  0
   26.8794  -20.6642   -8.5436 C   0  0  0  0  0  0  0  0  0  0  0  0
   27.4279  -20.2047   -7.2623 C   0  0  0  0  0  0  0  0  0  0  0  0
   26.7466  -19.3981   -6.3334 C   0  0  0  0  0  0  0  0  0  0  0  0
   27.5227  -19.2036   -5.2852 N   0  0  0  0  0  0  0  0  0  0  0  0
   28.7094  -19.8222   -5.4166 C   0  0  0  0  0  0  0  0  0  0  0  0
   29.8198  -19.9029   -4.6110 C   0  0  0  0  0  0  0  0  0  0  0  0
   30.9052  -20.6232   -5.0417 C   0  0  0  0  0  0  0  0  0  0  0  0
   30.8800  -21.2598   -6.2729 C   0  0  0  0  0  0  0  0  0  0  0  0
   29.7493  -21.1587   -7.0566 C   0  0  0  0  0  0  0  0  0  0  0  0
   28.6445  -20.4530   -6.6681 C   0  0  0  0  0  0  0  0  0  0  0  0
   26.5260  -20.2464  -10.9589 C   0  0  0  0  0  0  0  0  0  0  0  0
   25.3541  -19.7366  -11.0401 O   0  0  0  0  0  0  0  0  0  0  0  0
   31.7992  -23.4761  -14.9930 N   0  0  0  0  0  0  0  0  0  0  0  0
   30.4766  -23.9292  -15.2367 C   0  0  0  0  0  0  0  0  0  0  0  0
   30.2139  -25.1864  -15.3369 N   0  0  0  0  0  0  0  0  0  0  0  0
   29.3743  -23.0305  -15.3830 N   0  0  0  0  0  0  0  0  0  0  0  0
   29.5710  -21.6149  -15.1821 C   0  0  0  0  0  0  0  0  0  0  0  0
   28.6328  -21.0464  -14.1471 C   0  0  0  0  0  0  0  0  0  0  0  0
   27.2744  -21.6971  -14.3541 C   0  0  0  0  0  0  0  0  0  0  0  0
   26.3490  -21.1445  -13.3273 C   0  0  2  0  0  0  0  0  0  0  0  0
   26.9524  -21.0719  -12.0349 N   0  0  0  0  0  0  0  0  0  0  0  0
   25.0299  -21.8294  -13.2568 C   0  0  0  0  0  0  0  0  0  0  0  0
   24.9295  -22.8539  -12.5451 O   0  0  0  0  0  0  0  0  0  0  0  0
   29.2443  -25.4903  -15.5000 C   0  0  0  0  0  0  0  0  0  0  0  0
   19.2380  -20.5081  -12.6175 C   0  0  0  0  0  0  0  0  0  0  0  0
   20.1568  -21.5671  -13.1623 C   0  0  2  0  0  0  0  0  0  0  0  0
   21.5360  -21.0301  -13.3116 C   0  0  0  0  0  0  0  0  0  0  0  0
   21.4585  -19.8947  -14.3442 C   0  0  2  0  0  0  0  0  0  0  0  0
   22.5630  -21.9848  -13.8134 N   0  0  0  0  0  0  0  0  0  0  0  0
   23.8812  -21.3965  -13.9432 C   0  0  0  0  0  0  0  0  0  0  0  0
   22.1780  -22.7629  -15.0049 O   0  0  0  0  0  0  0  0  0  0  0  0
   21.1374  -23.6974  -14.9981 O   0  0  0  0  0  0  0  0  0  0  0  0
  2  1  1  1
  3  2  1  0
  4  3  1  0
  5  4  2  0
  6  5  1  0
  7  6  1  0
  7 12  2  0
  8  7  1  0
  9  8  2  0
  9 10  1  0
 10 11  2  0
 11 12  1  0
 12  4  1  0
 13 14  2  0
 13  2  1  0
 16 17  2  0
 16 15  1  0
 18 16  1  0
 18 19  1  0
 19 20  1  0
 20 21  1  0
 22 21  1  6
 22 23  1  0
 22 24  1  0
 23 13  1  0
 24 31  1  0
 24 25  2  0
 27 26  1  0
 28 27  1  0
 28 29  1  1
 30 28  1  0
 30 31  1  6
 32 33  1  0
 32 30  1  0
 34 32  2  0
M  END
$$$$
