WRI.pdb
     RDKit          3D

 34 35  0  0  1  0  0  0  0  0999 V2000
   27.8481  -19.3467   -9.8904 N   0  0  0  0  0  0  0  0  0  0  0  0
   27.1388  -20.5924  -10.0201 C   0  0  1  0  0  0  0  0  0  0  0  0
   26.5152  -20.9700   -8.7218 C   0  0  0  0  0  0  0  0  0  0  0  0
   27.2277  -20.5304   -7.5164 C   0  0  0  0  0  0  0  0  0  0  0  0
   26.6936  -19.6926   -6.5213 C   0  0  0  0  0  0  0  0  0  0  0  0
   27.5936  -19.5282   -5.5717 N   0  0  0  0  0  0  0  0  0  0  0  0
   28.7299  -20.1974   -5.8348 C   0  0  0  0  0  0  0  0  0  0  0  0
   29.9220  -20.3230   -5.1627 C   0  0  0  0  0  0  0  0  0  0  0  0
   30.9187  -21.0905   -5.7106 C   0  0  0  0  0  0  0  0  0  0  0  0
   30.7239  -21.7292   -6.9254 C   0  0  0  0  0  0  0  0  0  0  0  0
   29.5151  -21.5822   -7.5735 C   0  0  0  0  0  0  0  0  0  0  0  0
   28.4936  -20.8287   -7.0652 C   0  0  0  0  0  0  0  0  0  0  0  0
   26.1157  -20.4402  -11.1077 C   0  0  0  0  0  0  0  0  0  0  0  0
   25.2055  -19.5469  -10.9916 O   0  0  0  0  0  0  0  0  0  0  0  0
   29.8554  -22.9794  -15.3383 N   0  0  0  0  0  0  0  0  0  0  0  0
   28.7057  -23.6665  -15.8074 C   0  0  0  0  0  0  0  0  0  0  0  0
   28.6414  -24.9527  -15.7731 N   0  0  0  0  0  0  0  0  0  0  0  0
   27.5679  -22.9819  -16.3374 N   0  0  0  0  0  0  0  0  0  0  0  0
   27.5349  -21.5390  -16.3385 C   0  0  0  0  0  0  0  0  0  0  0  0
   27.0676  -20.9747  -15.0203 C   0  0  0  0  0  0  0  0  0  0  0  0
   25.7856  -21.6987  -14.6411 C   0  0  0  0  0  0  0  0  0  0  0  0
   25.2471  -21.0491  -13.4147 C   0  0  2  0  0  0  0  0  0  0  0  0
   26.0940  -21.2426  -12.2810 N   0  0  0  0  0  0  0  0  0  0  0  0
   23.8413  -21.4148  -13.0925 C   0  0  0  0  0  0  0  0  0  0  0  0
   23.6359  -22.4475  -12.4160 O   0  0  0  0  0  0  0  0  0  0  0  0
   27.7809  -25.4256  -16.0810 C   0  0  0  0  0  0  0  0  0  0  0  0
   19.1924  -19.9437  -10.6303 C   0  0  0  0  0  0  0  0  0  0  0  0
   19.2661  -19.8403  -12.1291 C   0  0  2  0  0  0  0  0  0  0  0  0
   20.6778  -19.6762  -12.5687 C   0  0  0  0  0  0  0  0  0  0  0  0
   20.6622  -18.6859  -13.7436 C   0  0  2  0  0  0  0  0  0  0  0  0
   21.3598  -20.9042  -13.0636 N   0  0  0  0  0  0  0  0  0  0  0  0
   22.7211  -20.6695  -13.5021 C   0  0  0  0  0  0  0  0  0  0  0  0
   20.5922  -21.7110  -14.0296 O   0  0  0  0  0  0  0  0  0  0  0  0
   21.0218  -21.9370  -15.3413 O   0  0  0  0  0  0  0  0  0  0  0  0
  2  1  1  1
  3  2  1  0
  4  3  1  0
  5  4  2  0
  6  5  1  0
  7  6  1  0
  7 12  2  0
  8  7  1  0
  9  8  2  0
  9 10  1  0
 10 11  2  0
 11 12  1  0
 12  4  1  0
 13 14  2  0
 13  2  1  0
 16 17  2  0
 16 15  1  0
 18 16  1  0
 18 19  1  0
 19 20  1  0
 20 21  1  0
 22 21  1  6
 22 23  1  0
 22 24  1  0
 23 13  1  0
 24 31  1  0
 24 25  2  0
 27 26  1  0
 28 27  1  0
 28 29  1  6
 30 28  1  0
 30 31  1  6
 32 33  1  0
 32 30  1  0
 34 32  2  0
M  END
$$$$
