WRI.pdb
     RDKit          3D

 34 35  0  0  1  0  0  0  0  0999 V2000
   22.9306  -19.6826  -16.5287 N   0  0  0  0  0  0  0  0  0  0  0  0
   23.9168  -18.9087  -15.8215 C   0  0  1  0  0  0  0  0  0  0  0  0
   23.2541  -17.9126  -14.9350 C   0  0  0  0  0  0  0  0  0  0  0  0
   22.4461  -16.8905  -15.6106 C   0  0  0  0  0  0  0  0  0  0  0  0
   21.0469  -16.7785  -15.5251 C   0  0  0  0  0  0  0  0  0  0  0  0
   20.6573  -15.7341  -16.2295 N   0  0  0  0  0  0  0  0  0  0  0  0
   21.6943  -15.1022  -16.8073 C   0  0  0  0  0  0  0  0  0  0  0  0
   21.7854  -13.9978  -17.6199 C   0  0  0  0  0  0  0  0  0  0  0  0
   23.0199  -13.5971  -18.0646 C   0  0  0  0  0  0  0  0  0  0  0  0
   24.1583  -14.2983  -17.6982 C   0  0  0  0  0  0  0  0  0  0  0  0
   24.0313  -15.4024  -16.8811 C   0  0  0  0  0  0  0  0  0  0  0  0
   22.8224  -15.8374  -16.4133 C   0  0  0  0  0  0  0  0  0  0  0  0
   24.7887  -19.8531  -15.0464 C   0  0  0  0  0  0  0  0  0  0  0  0
   24.2545  -20.8506  -14.4469 O   0  0  0  0  0  0  0  0  0  0  0  0
   31.2788  -24.5181  -16.2668 N   0  0  0  0  0  0  0  0  0  0  0  0
   30.1060  -23.8258  -16.6661 C   0  0  0  0  0  0  0  0  0  0  0  0
   29.5561  -24.0561  -17.8080 N   0  0  0  0  0  0  0  0  0  0  0  0
   29.4752  -22.8469  -15.8366 N   0  0  0  0  0  0  0  0  0  0  0  0
   30.1004  -22.4438  -14.5999 C   0  0  0  0  0  0  0  0  0  0  0  0
   29.2018  -21.5706  -13.7606 C   0  0  0  0  0  0  0  0  0  0  0  0
   28.3988  -20.6948  -14.7091 C   0  0  0  0  0  0  0  0  0  0  0  0
   27.0592  -20.4779  -14.0970 C   0  0  2  0  0  0  0  0  0  0  0  0
   26.1981  -19.7050  -14.9342 N   0  0  0  0  0  0  0  0  0  0  0  0
   27.0968  -19.9192  -12.7185 C   0  0  0  0  0  0  0  0  0  0  0  0
   28.1373  -19.3342  -12.3425 O   0  0  0  0  0  0  0  0  0  0  0  0
   28.6918  -23.5594  -18.0638 C   0  0  0  0  0  0  0  0  0  0  0  0
   27.0916  -18.3080   -7.9814 C   0  0  0  0  0  0  0  0  0  0  0  0
   27.2722  -19.2041   -9.1759 C   0  0  2  0  0  0  0  0  0  0  0  0
   26.0836  -20.0814   -9.3504 C   0  0  0  0  0  0  0  0  0  0  0  0
   26.1332  -21.1221   -8.2208 C   0  0  2  0  0  0  0  0  0  0  0  0
   26.0134  -20.8484  -10.6251 N   0  0  0  0  0  0  0  0  0  0  0  0
   26.0310  -20.0068  -11.8049 C   0  0  0  0  0  0  0  0  0  0  0  0
   24.9610  -21.8787  -10.6887 O   0  0  0  0  0  0  0  0  0  0  0  0
   23.8360  -21.7655  -11.5121 O   0  0  0  0  0  0  0  0  0  0  0  0
  2  1  1  1
  3  2  1  0
  4  3  1  0
  5  4  2  0
  6  5  1  0
  7  6  1  0
  7 12  2  0
  8  7  1  0
  9  8  2  0
  9 10  1  0
 10 11  2  0
 11 12  1  0
 12  4  1  0
 13 14  2  0
 13  2  1  0
 16 17  2  0
 16 15  1  0
 18 16  1  0
 18 19  1  0
 19 20  1  0
 20 21  1  0
 22 21  1  6
 22 23  1  0
 22 24  1  0
 23 13  1  0
 24 31  1  0
 24 25  2  0
 27 26  1  0
 28 27  1  0
 28 29  1  6
 30 28  1  0
 30 31  1  6
 32 33  1  0
 32 30  1  0
 34 32  2  0
M  END
$$$$
