WRI.pdb
     RDKit          3D

 34 35  0  0  1  0  0  0  0  0999 V2000
   26.7896  -19.6225  -11.5369 N   0  0  0  0  0  0  0  0  0  0  0  0
   26.5290  -21.0376  -11.5043 C   0  0  1  0  0  0  0  0  0  0  0  0
   25.9538  -21.4273  -10.1873 C   0  0  0  0  0  0  0  0  0  0  0  0
   26.4839  -20.7135   -9.0196 C   0  0  0  0  0  0  0  0  0  0  0  0
   25.7352  -19.8730   -8.1767 C   0  0  0  0  0  0  0  0  0  0  0  0
   26.5178  -19.4241   -7.2151 N   0  0  0  0  0  0  0  0  0  0  0  0
   27.7725  -19.8950   -7.3270 C   0  0  0  0  0  0  0  0  0  0  0  0
   28.9144  -19.7084   -6.5856 C   0  0  0  0  0  0  0  0  0  0  0  0
   30.0709  -20.3370   -6.9727 C   0  0  0  0  0  0  0  0  0  0  0  0
   30.0851  -21.1485   -8.0967 C   0  0  0  0  0  0  0  0  0  0  0  0
   28.9211  -21.3143   -8.8181 C   0  0  0  0  0  0  0  0  0  0  0  0
   27.7458  -20.7090   -8.4694 C   0  0  0  0  0  0  0  0  0  0  0  0
   25.6045  -21.3720  -12.6384 C   0  0  0  0  0  0  0  0  0  0  0  0
   24.8221  -20.4679  -13.0969 O   0  0  0  0  0  0  0  0  0  0  0  0
   21.2093  -27.4668  -14.6347 N   0  0  0  0  0  0  0  0  0  0  0  0
   21.3943  -27.2965  -16.0314 C   0  0  0  0  0  0  0  0  0  0  0  0
   20.4290  -27.5048  -16.8587 N   0  0  0  0  0  0  0  0  0  0  0  0
   22.6440  -26.8894  -16.5940 N   0  0  0  0  0  0  0  0  0  0  0  0
   23.6959  -26.4068  -15.7318 C   0  0  0  0  0  0  0  0  0  0  0  0
   23.4965  -24.9655  -15.3350 C   0  0  0  0  0  0  0  0  0  0  0  0
   24.6626  -24.5709  -14.4427 C   0  0  0  0  0  0  0  0  0  0  0  0
   24.4962  -23.1334  -14.0932 C   0  0  2  0  0  0  0  0  0  0  0  0
   25.5421  -22.6557  -13.2460 N   0  0  0  0  0  0  0  0  0  0  0  0
   23.1622  -22.7881  -13.5317 C   0  0  0  0  0  0  0  0  0  0  0  0
   22.9178  -23.1011  -12.3449 O   0  0  0  0  0  0  0  0  0  0  0  0
   20.5790  -27.3426  -17.8638 C   0  0  0  0  0  0  0  0  0  0  0  0
   21.1464  -17.9065  -13.6060 C   0  0  0  0  0  0  0  0  0  0  0  0
   21.5127  -19.3226  -13.2552 C   0  0  2  0  0  0  0  0  0  0  0  0
   20.5754  -20.2771  -13.9057 C   0  0  0  0  0  0  0  0  0  0  0  0
   19.1916  -20.0295  -13.2849 C   0  0  2  0  0  0  0  0  0  0  0  0
   20.8699  -21.7240  -13.7117 N   0  0  0  0  0  0  0  0  0  0  0  0
   22.1517  -22.1282  -14.2540 C   0  0  0  0  0  0  0  0  0  0  0  0
   19.7858  -22.6487  -14.0901 O   0  0  0  0  0  0  0  0  0  0  0  0
   18.7727  -23.0335  -13.2060 O   0  0  0  0  0  0  0  0  0  0  0  0
  2  1  1  1
  3  2  1  0
  4  3  1  0
  5  4  2  0
  6  5  1  0
  7  6  1  0
  7 12  2  0
  8  7  1  0
  9  8  2  0
  9 10  1  0
 10 11  2  0
 11 12  1  0
 12  4  1  0
 13 14  2  0
 13  2  1  0
 16 17  2  0
 16 15  1  0
 18 16  1  0
 18 19  1  0
 19 20  1  0
 20 21  1  0
 22 21  1  1
 22 23  1  0
 22 24  1  0
 23 13  1  0
 24 31  1  0
 24 25  2  0
 27 26  1  0
 28 27  1  0
 28 29  1  6
 30 28  1  0
 30 31  1  1
 32 33  1  0
 32 30  1  0
 34 32  2  0
M  END
$$$$
