WRI.pdb
     RDKit          3D

 34 35  0  0  1  0  0  0  0  0999 V2000
   27.8790  -22.0984  -14.1235 N   0  0  0  0  0  0  0  0  0  0  0  0
   26.7532  -21.5705  -13.3984 C   0  0  1  0  0  0  0  0  0  0  0  0
   27.1336  -20.3138  -12.6961 C   0  0  0  0  0  0  0  0  0  0  0  0
   27.9531  -20.4765  -11.4895 C   0  0  0  0  0  0  0  0  0  0  0  0
   29.3590  -20.4942  -11.4629 C   0  0  0  0  0  0  0  0  0  0  0  0
   29.7617  -20.6268  -10.2143 N   0  0  0  0  0  0  0  0  0  0  0  0
   28.7277  -20.7043   -9.3580 C   0  0  0  0  0  0  0  0  0  0  0  0
   28.6479  -20.8501   -7.9939 C   0  0  0  0  0  0  0  0  0  0  0  0
   27.4121  -20.9062   -7.4005 C   0  0  0  0  0  0  0  0  0  0  0  0
   26.2612  -20.8171   -8.1683 C   0  0  0  0  0  0  0  0  0  0  0  0
   26.3772  -20.6709   -9.5350 C   0  0  0  0  0  0  0  0  0  0  0  0
   27.5870  -20.6092  -10.1692 C   0  0  0  0  0  0  0  0  0  0  0  0
   25.6301  -21.3496  -14.3693 C   0  0  0  0  0  0  0  0  0  0  0  0
   25.8478  -20.6779  -15.4376 O   0  0  0  0  0  0  0  0  0  0  0  0
   22.4614  -27.1945  -13.8198 N   0  0  0  0  0  0  0  0  0  0  0  0
   21.3136  -26.7459  -14.5235 C   0  0  0  0  0  0  0  0  0  0  0  0
   20.1286  -27.0668  -14.1330 N   0  0  0  0  0  0  0  0  0  0  0  0
   21.4034  -25.9234  -15.6895 N   0  0  0  0  0  0  0  0  0  0  0  0
   22.6342  -25.2304  -15.9857 C   0  0  0  0  0  0  0  0  0  0  0  0
   22.8642  -24.0530  -15.0718 C   0  0  0  0  0  0  0  0  0  0  0  0
   22.9677  -22.8110  -15.9426 C   0  0  0  0  0  0  0  0  0  0  0  0
   23.2001  -21.6480  -15.0429 C   0  0  2  0  0  0  0  0  0  0  0  0
   24.3139  -21.8492  -14.1717 N   0  0  0  0  0  0  0  0  0  0  0  0
   22.0008  -21.2153  -14.2758 C   0  0  0  0  0  0  0  0  0  0  0  0
   21.8345  -21.6749  -13.1237 O   0  0  0  0  0  0  0  0  0  0  0  0
   19.3125  -26.7366  -14.6659 C   0  0  0  0  0  0  0  0  0  0  0  0
   19.6378  -16.0647  -12.7483 C   0  0  0  0  0  0  0  0  0  0  0  0
   19.2372  -17.5025  -12.9345 C   0  0  2  0  0  0  0  0  0  0  0  0
   20.2618  -18.2271  -13.7333 C   0  0  0  0  0  0  0  0  0  0  0  0
   20.2891  -17.5659  -15.1203 C   0  0  2  0  0  0  0  0  0  0  0  0
   20.0119  -19.6770  -13.9641 N   0  0  0  0  0  0  0  0  0  0  0  0
   21.0357  -20.3171  -14.7657 C   0  0  0  0  0  0  0  0  0  0  0  0
   18.6514  -20.0227  -14.4145 O   0  0  0  0  0  0  0  0  0  0  0  0
   17.5209  -19.8659  -13.6060 O   0  0  0  0  0  0  0  0  0  0  0  0
  2  1  1  6
  3  2  1  0
  4  3  1  0
  5  4  2  0
  6  5  1  0
  7  6  1  0
  7 12  2  0
  8  7  1  0
  9  8  2  0
  9 10  1  0
 10 11  2  0
 11 12  1  0
 12  4  1  0
 13 14  2  0
 13  2  1  0
 16 17  2  0
 16 15  1  0
 18 16  1  0
 18 19  1  0
 19 20  1  0
 20 21  1  0
 22 21  1  1
 22 23  1  0
 22 24  1  0
 23 13  1  0
 24 31  1  0
 24 25  2  0
 27 26  1  0
 28 27  1  0
 28 29  1  1
 30 28  1  0
 30 31  1  6
 32 33  1  0
 32 30  1  0
 34 32  2  0
M  END
$$$$
