WRI.pdb
     RDKit          3D

 34 35  0  0  1  0  0  0  0  0999 V2000
   28.8260  -21.3695  -15.4827 N   0  0  0  0  0  0  0  0  0  0  0  0
   27.7266  -21.4082  -14.5545 C   0  0  1  0  0  0  0  0  0  0  0  0
   27.8347  -20.2892  -13.5781 C   0  0  0  0  0  0  0  0  0  0  0  0
   29.0821  -20.2292  -12.8072 C   0  0  0  0  0  0  0  0  0  0  0  0
   29.9413  -19.1177  -12.7441 C   0  0  0  0  0  0  0  0  0  0  0  0
   30.9470  -19.3994  -11.9391 N   0  0  0  0  0  0  0  0  0  0  0  0
   30.8515  -20.6406  -11.4305 C   0  0  0  0  0  0  0  0  0  0  0  0
   31.6425  -21.3667  -10.5728 C   0  0  0  0  0  0  0  0  0  0  0  0
   31.2697  -22.6452  -10.2430 C   0  0  0  0  0  0  0  0  0  0  0  0
   30.1109  -23.1952  -10.7691 C   0  0  0  0  0  0  0  0  0  0  0  0
   29.3398  -22.4388  -11.6270 C   0  0  0  0  0  0  0  0  0  0  0  0
   29.6713  -21.1608  -11.9827 C   0  0  0  0  0  0  0  0  0  0  0  0
   26.4476  -21.3446  -15.3374 C   0  0  0  0  0  0  0  0  0  0  0  0
   26.4690  -20.9010  -16.5385 O   0  0  0  0  0  0  0  0  0  0  0  0
   26.8291  -25.6608  -16.4467 N   0  0  0  0  0  0  0  0  0  0  0  0
   25.7824  -26.5280  -16.8547 C   0  0  0  0  0  0  0  0  0  0  0  0
   25.8044  -27.7808  -16.5557 N   0  0  0  0  0  0  0  0  0  0  0  0
   24.6586  -26.0689  -17.6100 N   0  0  0  0  0  0  0  0  0  0  0  0
   24.4482  -24.6531  -17.7948 C   0  0  0  0  0  0  0  0  0  0  0  0
   24.3468  -23.9124  -16.4850 C   0  0  0  0  0  0  0  0  0  0  0  0
   23.9963  -22.4673  -16.8023 C   0  0  0  0  0  0  0  0  0  0  0  0
   23.9430  -21.7233  -15.5140 C   0  0  2  0  0  0  0  0  0  0  0  0
   25.1894  -21.7537  -14.8172 N   0  0  0  0  0  0  0  0  0  0  0  0
   22.8264  -22.1268  -14.6172 C   0  0  0  0  0  0  0  0  0  0  0  0
   22.8453  -23.2775  -14.1253 O   0  0  0  0  0  0  0  0  0  0  0  0
   25.0407  -28.3919  -16.8759 C   0  0  0  0  0  0  0  0  0  0  0  0
   23.0506  -20.2621   -9.6669 C   0  0  0  0  0  0  0  0  0  0  0  0
   21.8662  -20.5278  -10.5553 C   0  0  2  0  0  0  0  0  0  0  0  0
   22.3076  -20.7284  -11.9616 C   0  0  0  0  0  0  0  0  0  0  0  0
   22.9096  -19.3944  -12.4302 C   0  0  2  0  0  0  0  0  0  0  0  0
   21.2421  -21.0758  -12.9425 N   0  0  0  0  0  0  0  0  0  0  0  0
   21.7439  -21.2927  -14.2847 C   0  0  0  0  0  0  0  0  0  0  0  0
   20.0535  -20.2040  -12.9237 O   0  0  0  0  0  0  0  0  0  0  0  0
   19.5544  -19.5755  -14.0693 O   0  0  0  0  0  0  0  0  0  0  0  0
  2  1  1  6
  3  2  1  0
  4  3  1  0
  5  4  2  0
  6  5  1  0
  7  6  1  0
  7 12  2  0
  8  7  1  0
  9  8  2  0
  9 10  1  0
 10 11  2  0
 11 12  1  0
 12  4  1  0
 13 14  2  0
 13  2  1  0
 16 17  2  0
 16 15  1  0
 18 16  1  0
 18 19  1  0
 19 20  1  0
 20 21  1  0
 22 21  1  6
 22 23  1  0
 22 24  1  0
 23 13  1  0
 24 31  1  0
 24 25  2  0
 27 26  1  0
 28 27  1  0
 28 29  1  6
 30 28  1  0
 30 31  1  6
 32 33  1  0
 32 30  1  0
 34 32  2  0
M  END
$$$$
