FYV.pdb
     RDKit          3D

 31 32  0  0  1  0  0  0  0  0999 V2000
    7.7097  -16.3496   20.5012 N   0  0  0  0  0  0  0  0  0  0  0  0
    7.8455  -15.5789   21.7081 C   0  0  1  0  0  0  0  0  0  0  0  0
    6.4958  -15.2547   22.3222 C   0  0  0  0  0  0  0  0  0  0  0  0
    6.6628  -14.2804   23.4332 C   0  0  0  0  0  0  0  0  0  0  0  0
    6.3806  -14.6555   24.7472 C   0  0  0  0  0  0  0  0  0  0  0  0
    6.5333  -13.7597   25.7737 C   0  0  0  0  0  0  0  0  0  0  0  0
    6.9656  -12.4727   25.5487 C   0  0  0  0  0  0  0  0  0  0  0  0
    7.2495  -12.0757   24.2766 C   0  0  0  0  0  0  0  0  0  0  0  0
    7.0924  -12.9842   23.2525 C   0  0  0  0  0  0  0  0  0  0  0  0
    8.6905  -16.2459   22.7082 C   0  0  0  0  0  0  0  0  0  0  0  0
    8.3251  -17.3206   23.2203 O   0  0  0  0  0  0  0  0  0  0  0  0
   15.3632  -20.4763   25.8813 O   0  0  0  0  0  0  0  0  0  0  0  0
   14.5477  -19.5508   25.2125 C   0  0  0  0  0  0  0  0  0  0  0  0
   13.3759  -19.9332   24.6001 C   0  0  0  0  0  0  0  0  0  0  0  0
   12.5909  -19.0146   23.9506 C   0  0  0  0  0  0  0  0  0  0  0  0
   12.9255  -17.6690   23.8736 C   0  0  0  0  0  0  0  0  0  0  0  0
   12.0334  -16.7239   23.1556 C   0  0  0  0  0  0  0  0  0  0  0  0
   10.7940  -16.3869   23.9778 C   0  0  2  0  0  0  0  0  0  0  0  0
    9.9202  -15.6650   23.0863 N   0  0  0  0  0  0  0  0  0  0  0  0
   11.1300  -15.6785   25.2151 C   0  0  0  0  0  0  0  0  0  0  0  0
   11.8946  -14.6836   25.2567 O   0  0  0  0  0  0  0  0  0  0  0  0
   14.0964  -17.2831   24.4847 C   0  0  0  0  0  0  0  0  0  0  0  0
   14.8971  -18.2189   25.1470 C   0  0  0  0  0  0  0  0  0  0  0  0
   10.3396  -13.4519   27.4485 C   0  0  0  0  0  0  0  0  0  0  0  0
   10.1557  -14.6809   28.2831 C   0  0  1  0  0  0  0  0  0  0  0  0
    8.7156  -15.1088   28.2177 C   0  0  0  0  0  0  0  0  0  0  0  0
   11.0909  -15.7633   27.7319 C   0  0  2  0  0  0  0  0  0  0  0  0
   10.5693  -16.1269   26.4368 N   0  0  0  0  0  0  0  0  0  0  0  0
   10.9330  -16.9195   28.6441 C   0  0  0  0  0  0  0  0  0  0  0  0
   10.2567  -18.0599   28.2483 O   0  0  0  0  0  0  0  0  0  0  0  0
   11.4083  -16.9128   29.8207 O   0  0  0  0  0  0  0  0  0  0  0  0
  2  1  1  6
  2  3  1  0
  2 10  1  0
  3  4  1  0
  4  9  1  0
  4  5  2  0
  5  6  1  0
  6  7  2  0
  8  7  1  0
  9  8  2  0
 10 11  2  0
 13 12  1  0
 13 14  2  0
 15 14  1  0
 16 15  2  0
 17 16  1  0
 18 17  1  6
 19 18  1  0
 19 10  1  0
 20 28  1  0
 20 18  1  0
 21 20  2  0
 22 23  2  0
 22 16  1  0
 23 13  1  0
 25 24  1  6
 26 25  1  0
 27 28  1  6
 27 25  1  0
 29 27  1  0
 30 29  1  0
 31 29  2  0
M  END
$$$$
