FYV.pdb
     RDKit          3D

 31 32  0  0  1  0  0  0  0  0999 V2000
    7.8941  -16.5835   20.3201 N   0  0  0  0  0  0  0  0  0  0  0  0
    8.0643  -15.8043   21.5172 C   0  0  1  0  0  0  0  0  0  0  0  0
    6.7314  -15.3658   22.0961 C   0  0  0  0  0  0  0  0  0  0  0  0
    6.9525  -14.4379   23.2370 C   0  0  0  0  0  0  0  0  0  0  0  0
    6.6942  -14.8542   24.5436 C   0  0  0  0  0  0  0  0  0  0  0  0
    6.8968  -14.0014   25.5976 C   0  0  0  0  0  0  0  0  0  0  0  0
    7.3570  -12.7183   25.4083 C   0  0  0  0  0  0  0  0  0  0  0  0
    7.6186  -12.2817   24.1444 C   0  0  0  0  0  0  0  0  0  0  0  0
    7.4114  -13.1472   23.0923 C   0  0  0  0  0  0  0  0  0  0  0  0
    8.8339  -16.5169   22.5463 C   0  0  0  0  0  0  0  0  0  0  0  0
    8.3793  -17.5556   23.0612 O   0  0  0  0  0  0  0  0  0  0  0  0
   10.5695  -21.4182   19.5097 O   0  0  0  0  0  0  0  0  0  0  0  0
   10.9366  -20.4112   20.4153 C   0  0  0  0  0  0  0  0  0  0  0  0
   11.0799  -19.1014   20.0173 C   0  0  0  0  0  0  0  0  0  0  0  0
   11.4395  -18.1298   20.9165 C   0  0  0  0  0  0  0  0  0  0  0  0
   11.6761  -18.4045   22.2571 C   0  0  0  0  0  0  0  0  0  0  0  0
   12.0625  -17.3083   23.1808 C   0  0  0  0  0  0  0  0  0  0  0  0
   10.8556  -16.7531   23.9296 C   0  0  2  0  0  0  0  0  0  0  0  0
   10.0925  -16.0210   22.9491 N   0  0  0  0  0  0  0  0  0  0  0  0
   11.2483  -15.9757   25.1074 C   0  0  0  0  0  0  0  0  0  0  0  0
   12.2203  -15.1813   25.1193 O   0  0  0  0  0  0  0  0  0  0  0  0
   11.5337  -19.7130   22.6585 C   0  0  0  0  0  0  0  0  0  0  0  0
   11.1672  -20.7040   21.7424 C   0  0  0  0  0  0  0  0  0  0  0  0
   10.2317  -13.9196   29.2577 C   0  0  0  0  0  0  0  0  0  0  0  0
    9.8349  -14.5292   27.9493 C   0  0  1  0  0  0  0  0  0  0  0  0
    9.7148  -13.4426   26.9168 C   0  0  0  0  0  0  0  0  0  0  0  0
   10.9094  -15.5536   27.5671 C   0  0  2  0  0  0  0  0  0  0  0  0
   10.5005  -16.1158   26.3029 N   0  0  0  0  0  0  0  0  0  0  0  0
   10.8281  -16.6114   28.6007 C   0  0  0  0  0  0  0  0  0  0  0  0
   11.6458  -16.5900   29.7166 O   0  0  0  0  0  0  0  0  0  0  0  0
   10.0098  -17.5768   28.5066 O   0  0  0  0  0  0  0  0  0  0  0  0
  2  1  1  6
  2  3  1  0
  2 10  1  0
  3  4  1  0
  4  9  1  0
  4  5  2  0
  5  6  1  0
  6  7  2  0
  8  7  1  0
  9  8  2  0
 10 11  2  0
 13 12  1  0
 13 14  2  0
 15 14  1  0
 16 15  2  0
 17 16  1  0
 18 17  1  6
 19 18  1  0
 19 10  1  0
 20 28  1  0
 20 18  1  0
 21 20  2  0
 22 23  2  0
 22 16  1  0
 23 13  1  0
 25 24  1  1
 26 25  1  0
 27 28  1  6
 27 25  1  0
 29 27  1  0
 30 29  1  0
 31 29  2  0
M  END
$$$$
