FYV.pdb
     RDKit          3D

 31 32  0  0  1  0  0  0  0  0999 V2000
    5.2684  -18.9695   25.2655 N   0  0  0  0  0  0  0  0  0  0  0  0
    5.7677  -17.6364   25.4719 C   0  0  1  0  0  0  0  0  0  0  0  0
    6.4182  -17.4852   26.8350 C   0  0  0  0  0  0  0  0  0  0  0  0
    6.8176  -16.0696   27.0542 C   0  0  0  0  0  0  0  0  0  0  0  0
    6.0123  -15.0302   26.5871 C   0  0  0  0  0  0  0  0  0  0  0  0
    6.3776  -13.7241   26.7874 C   0  0  0  0  0  0  0  0  0  0  0  0
    7.5384  -13.3938   27.4487 C   0  0  0  0  0  0  0  0  0  0  0  0
    8.3464  -14.3860   27.9169 C   0  0  0  0  0  0  0  0  0  0  0  0
    7.9696  -15.6952   27.7101 C   0  0  0  0  0  0  0  0  0  0  0  0
    6.7169  -17.2246   24.4285 C   0  0  0  0  0  0  0  0  0  0  0  0
    7.5997  -18.0117   24.0390 O   0  0  0  0  0  0  0  0  0  0  0  0
    9.9766  -13.1722   17.4323 O   0  0  0  0  0  0  0  0  0  0  0  0
    9.2471  -13.4536   18.5974 C   0  0  0  0  0  0  0  0  0  0  0  0
    8.6606  -14.6819   18.8014 C   0  0  0  0  0  0  0  0  0  0  0  0
    7.9508  -14.9394   19.9468 C   0  0  0  0  0  0  0  0  0  0  0  0
    7.7847  -13.9938   20.9502 C   0  0  0  0  0  0  0  0  0  0  0  0
    7.0048  -14.3340   22.1668 C   0  0  0  0  0  0  0  0  0  0  0  0
    7.6267  -15.5025   22.9241 C   0  0  2  0  0  0  0  0  0  0  0  0
    6.6242  -15.9328   23.8671 N   0  0  0  0  0  0  0  0  0  0  0  0
    8.9175  -15.1483   23.5192 C   0  0  0  0  0  0  0  0  0  0  0  0
    9.9553  -14.9370   22.8451 O   0  0  0  0  0  0  0  0  0  0  0  0
    8.3698  -12.7646   20.7495 C   0  0  0  0  0  0  0  0  0  0  0  0
    9.0935  -12.5013   19.5823 C   0  0  0  0  0  0  0  0  0  0  0  0
   10.9830  -13.7044   27.7516 C   0  0  0  0  0  0  0  0  0  0  0  0
    9.7565  -14.0389   26.9614 C   0  0  1  0  0  0  0  0  0  0  0  0
    8.9262  -12.7965   26.7926 C   0  0  0  0  0  0  0  0  0  0  0  0
   10.2113  -14.6007   25.6095 C   0  0  2  0  0  0  0  0  0  0  0  0
    9.0152  -15.0328   24.9282 N   0  0  0  0  0  0  0  0  0  0  0  0
   11.0247  -15.7950   25.9350 C   0  0  0  0  0  0  0  0  0  0  0  0
   12.3287  -15.6762   26.3823 O   0  0  0  0  0  0  0  0  0  0  0  0
   10.5627  -16.9711   25.8174 O   0  0  0  0  0  0  0  0  0  0  0  0
  2  1  1  6
  2  3  1  0
  2 10  1  0
  3  4  1  0
  4  9  1  0
  4  5  2  0
  5  6  1  0
  6  7  2  0
  8  7  1  0
  9  8  2  0
 10 11  2  0
 13 12  1  0
 13 14  2  0
 15 14  1  0
 16 15  2  0
 17 16  1  0
 18 17  1  1
 19 18  1  0
 19 10  1  0
 20 28  1  0
 20 18  1  0
 21 20  2  0
 22 23  2  0
 22 16  1  0
 23 13  1  0
 25 24  1  1
 26 25  1  0
 27 28  1  6
 27 25  1  0
 29 27  1  0
 30 29  1  0
 31 29  2  0
M  END
$$$$
