FYV.pdb
     RDKit          3D

 31 32  0  0  1  0  0  0  0  0999 V2000
    5.7870  -19.2657   25.1434 N   0  0  0  0  0  0  0  0  0  0  0  0
    5.9859  -17.8528   25.3261 C   0  0  1  0  0  0  0  0  0  0  0  0
    6.4087  -17.5243   26.7464 C   0  0  0  0  0  0  0  0  0  0  0  0
    6.2176  -16.0735   27.0117 C   0  0  0  0  0  0  0  0  0  0  0  0
    7.1213  -15.3800   27.8175 C   0  0  0  0  0  0  0  0  0  0  0  0
    6.9480  -14.0426   28.0643 C   0  0  0  0  0  0  0  0  0  0  0  0
    5.8888  -13.3430   27.5326 C   0  0  0  0  0  0  0  0  0  0  0  0
    4.9889  -13.9918   26.7416 C   0  0  0  0  0  0  0  0  0  0  0  0
    5.1727  -15.3360   26.5002 C   0  0  0  0  0  0  0  0  0  0  0  0
    6.9662  -17.2972   24.3829 C   0  0  0  0  0  0  0  0  0  0  0  0
    8.0066  -17.9277   24.1172 O   0  0  0  0  0  0  0  0  0  0  0  0
    9.4130  -12.8138   17.2169 O   0  0  0  0  0  0  0  0  0  0  0  0
    8.8068  -13.1993   18.4223 C   0  0  0  0  0  0  0  0  0  0  0  0
    8.6674  -12.3203   19.4722 C   0  0  0  0  0  0  0  0  0  0  0  0
    8.0720  -12.7146   20.6436 C   0  0  0  0  0  0  0  0  0  0  0  0
    7.5835  -14.0002   20.8364 C   0  0  0  0  0  0  0  0  0  0  0  0
    6.9492  -14.3655   22.1281 C   0  0  0  0  0  0  0  0  0  0  0  0
    7.6414  -15.5601   22.7757 C   0  0  2  0  0  0  0  0  0  0  0  0
    6.7242  -16.0455   23.7770 N   0  0  0  0  0  0  0  0  0  0  0  0
    8.9742  -15.2182   23.2782 C   0  0  0  0  0  0  0  0  0  0  0  0
    9.9456  -14.9439   22.5317 O   0  0  0  0  0  0  0  0  0  0  0  0
    7.7212  -14.8817   19.7887 C   0  0  0  0  0  0  0  0  0  0  0  0
    8.3280  -14.4805   18.5944 C   0  0  0  0  0  0  0  0  0  0  0  0
   11.5573  -14.4938   27.4236 C   0  0  0  0  0  0  0  0  0  0  0  0
   10.2303  -14.6011   26.7394 C   0  0  1  0  0  0  0  0  0  0  0  0
    9.5095  -13.2865   26.8552 C   0  0  0  0  0  0  0  0  0  0  0  0
   10.4892  -14.9748   25.2754 C   0  0  2  0  0  0  0  0  0  0  0  0
    9.1937  -15.1900   24.6779 N   0  0  0  0  0  0  0  0  0  0  0  0
   11.2065  -16.2699   25.3223 C   0  0  0  0  0  0  0  0  0  0  0  0
   10.5758  -17.4533   24.9814 O   0  0  0  0  0  0  0  0  0  0  0  0
   12.4228  -16.3483   25.6756 O   0  0  0  0  0  0  0  0  0  0  0  0
  2  1  1  1
  2  3  1  0
  2 10  1  0
  3  4  1  0
  4  9  1  0
  4  5  2  0
  5  6  1  0
  6  7  2  0
  8  7  1  0
  9  8  2  0
 10 11  2  0
 13 12  1  0
 13 14  2  0
 15 14  1  0
 16 15  2  0
 17 16  1  0
 18 17  1  1
 19 18  1  0
 19 10  1  0
 20 28  1  0
 20 18  1  0
 21 20  2  0
 22 23  2  0
 22 16  1  0
 23 13  1  0
 25 24  1  1
 26 25  1  0
 27 28  1  6
 27 25  1  0
 29 27  1  0
 30 29  1  0
 31 29  2  0
M  END
$$$$
