FYV.pdb
     RDKit          3D

 31 32  0  0  1  0  0  0  0  0999 V2000
    8.0313  -16.5465   20.4140 N   0  0  0  0  0  0  0  0  0  0  0  0
    7.6380  -15.4540   21.2630 C   0  0  1  0  0  0  0  0  0  0  0  0
    6.5319  -14.6253   20.6354 C   0  0  0  0  0  0  0  0  0  0  0  0
    7.0482  -13.9108   19.4377 C   0  0  0  0  0  0  0  0  0  0  0  0
    6.7376  -14.3683   18.1565 C   0  0  0  0  0  0  0  0  0  0  0  0
    7.2119  -13.7121   17.0503 C   0  0  0  0  0  0  0  0  0  0  0  0
    8.0027  -12.5911   17.1612 C   0  0  0  0  0  0  0  0  0  0  0  0
    8.3238  -12.1194   18.3984 C   0  0  0  0  0  0  0  0  0  0  0  0
    7.8416  -12.7867   19.5035 C   0  0  0  0  0  0  0  0  0  0  0  0
    7.2161  -15.9031   22.5969 C   0  0  0  0  0  0  0  0  0  0  0  0
    6.4684  -15.1888   23.2907 O   0  0  0  0  0  0  0  0  0  0  0  0
    8.3129  -20.3980   30.1630 O   0  0  0  0  0  0  0  0  0  0  0  0
    8.2097  -20.0271   28.8137 C   0  0  0  0  0  0  0  0  0  0  0  0
    9.3248  -19.8664   28.0231 C   0  0  0  0  0  0  0  0  0  0  0  0
    9.2050  -19.5033   26.7056 C   0  0  0  0  0  0  0  0  0  0  0  0
    7.9743  -19.2802   26.1021 C   0  0  0  0  0  0  0  0  0  0  0  0
    7.9111  -18.8890   24.6713 C   0  0  0  0  0  0  0  0  0  0  0  0
    7.6049  -17.4041   24.5080 C   0  0  2  0  0  0  0  0  0  0  0  0
    7.6601  -17.1490   23.0898 N   0  0  0  0  0  0  0  0  0  0  0  0
    8.4932  -16.5665   25.3174 C   0  0  0  0  0  0  0  0  0  0  0  0
    9.7228  -16.4457   25.0948 O   0  0  0  0  0  0  0  0  0  0  0  0
    6.8572  -19.4399   26.8896 C   0  0  0  0  0  0  0  0  0  0  0  0
    6.9786  -19.8101   28.2327 C   0  0  0  0  0  0  0  0  0  0  0  0
    8.2997  -12.7357   28.3654 C   0  0  0  0  0  0  0  0  0  0  0  0
    7.5989  -13.8135   27.5986 C   0  0  1  0  0  0  0  0  0  0  0  0
    6.8493  -13.1934   26.4519 C   0  0  0  0  0  0  0  0  0  0  0  0
    8.6617  -14.8031   27.1078 C   0  0  2  0  0  0  0  0  0  0  0  0
    7.9507  -15.8477   26.4115 N   0  0  0  0  0  0  0  0  0  0  0  0
    9.2588  -15.3781   28.3353 C   0  0  0  0  0  0  0  0  0  0  0  0
    8.9021  -16.6366   28.7863 O   0  0  0  0  0  0  0  0  0  0  0  0
   10.1175  -14.7441   29.0215 O   0  0  0  0  0  0  0  0  0  0  0  0
  2  1  1  6
  2  3  1  0
  2 10  1  0
  3  4  1  0
  4  9  1  0
  4  5  2  0
  5  6  1  0
  6  7  2  0
  8  7  1  0
  9  8  2  0
 10 11  2  0
 13 12  1  0
 13 14  2  0
 15 14  1  0
 16 15  2  0
 17 16  1  0
 18 17  1  6
 19 18  1  0
 19 10  1  0
 20 28  1  0
 20 18  1  0
 21 20  2  0
 22 23  2  0
 22 16  1  0
 23 13  1  0
 25 24  1  6
 26 25  1  0
 27 28  1  6
 27 25  1  0
 29 27  1  0
 30 29  1  0
 31 29  2  0
M  END
$$$$
