FYV.pdb
     RDKit          3D

 31 32  0  0  1  0  0  0  0  0999 V2000
    7.7496  -18.6251   20.1261 N   0  0  0  0  0  0  0  0  0  0  0  0
    7.9468  -17.2547   20.5162 C   0  0  1  0  0  0  0  0  0  0  0  0
    6.8516  -16.3536   19.9753 C   0  0  0  0  0  0  0  0  0  0  0  0
    7.2300  -14.9270   20.1572 C   0  0  0  0  0  0  0  0  0  0  0  0
    6.6644  -14.1742   21.1869 C   0  0  0  0  0  0  0  0  0  0  0  0
    7.0109  -12.8588   21.3573 C   0  0  0  0  0  0  0  0  0  0  0  0
    7.9187  -12.2395   20.5288 C   0  0  0  0  0  0  0  0  0  0  0  0
    8.4887  -12.9476   19.5138 C   0  0  0  0  0  0  0  0  0  0  0  0
    8.1332  -14.2690   19.3517 C   0  0  0  0  0  0  0  0  0  0  0  0
    8.0376  -17.0933   21.9739 C   0  0  0  0  0  0  0  0  0  0  0  0
    7.0446  -17.3158   22.6917 O   0  0  0  0  0  0  0  0  0  0  0  0
   11.0344  -17.2185   30.1367 O   0  0  0  0  0  0  0  0  0  0  0  0
   10.9224  -17.2213   28.7380 C   0  0  0  0  0  0  0  0  0  0  0  0
   10.1140  -18.1212   28.0815 C   0  0  0  0  0  0  0  0  0  0  0  0
   10.0167  -18.1094   26.7132 C   0  0  0  0  0  0  0  0  0  0  0  0
   10.7151  -17.2055   25.9233 C   0  0  0  0  0  0  0  0  0  0  0  0
   10.5671  -17.2438   24.4465 C   0  0  0  0  0  0  0  0  0  0  0  0
    9.3202  -16.4955   23.9874 C   0  0  2  0  0  0  0  0  0  0  0  0
    9.2557  -16.6862   22.5594 N   0  0  0  0  0  0  0  0  0  0  0  0
    9.3274  -15.0961   24.4202 C   0  0  0  0  0  0  0  0  0  0  0  0
   10.1233  -14.2365   23.9687 O   0  0  0  0  0  0  0  0  0  0  0  0
   11.5243  -16.3043   26.5763 C   0  0  0  0  0  0  0  0  0  0  0  0
   11.6240  -16.3157   27.9711 C   0  0  0  0  0  0  0  0  0  0  0  0
    6.7523  -12.4123   24.7009 C   0  0  0  0  0  0  0  0  0  0  0  0
    7.0771  -12.8195   26.1043 C   0  0  1  0  0  0  0  0  0  0  0  0
    6.0542  -13.8154   26.5766 C   0  0  0  0  0  0  0  0  0  0  0  0
    8.4879  -13.4191   26.1013 C   0  0  2  0  0  0  0  0  0  0  0  0
    8.3920  -14.6751   25.3978 N   0  0  0  0  0  0  0  0  0  0  0  0
    8.7982  -13.6985   27.5224 C   0  0  0  0  0  0  0  0  0  0  0  0
    9.2240  -12.6958   28.3755 O   0  0  0  0  0  0  0  0  0  0  0  0
    8.6877  -14.8630   28.0147 O   0  0  0  0  0  0  0  0  0  0  0  0
  2  1  1  1
  2  3  1  0
  2 10  1  0
  3  4  1  0
  4  9  1  0
  4  5  2  0
  5  6  1  0
  6  7  2  0
  8  7  1  0
  9  8  2  0
 10 11  2  0
 13 12  1  0
 13 14  2  0
 15 14  1  0
 16 15  2  0
 17 16  1  0
 18 17  1  6
 19 18  1  0
 19 10  1  0
 20 28  1  0
 20 18  1  0
 21 20  2  0
 22 23  2  0
 22 16  1  0
 23 13  1  0
 25 24  1  6
 26 25  1  0
 27 28  1  6
 27 25  1  0
 29 27  1  0
 30 29  1  0
 31 29  2  0
M  END
$$$$
