FYV.pdb
     RDKit          3D

 31 32  0  0  1  0  0  0  0  0999 V2000
    5.5879  -17.8910   24.3436 N   0  0  0  0  0  0  0  0  0  0  0  0
    6.1421  -16.5667   24.4328 C   0  0  1  0  0  0  0  0  0  0  0  0
    5.6818  -15.8487   25.6884 C   0  0  0  0  0  0  0  0  0  0  0  0
    5.9977  -14.3988   25.5905 C   0  0  0  0  0  0  0  0  0  0  0  0
    5.4292  -13.4921   26.4859 C   0  0  0  0  0  0  0  0  0  0  0  0
    5.7182  -12.1549   26.3984 C   0  0  0  0  0  0  0  0  0  0  0  0
    6.5697  -11.6631   25.4355 C   0  0  0  0  0  0  0  0  0  0  0  0
    7.1410  -12.5230   24.5462 C   0  0  0  0  0  0  0  0  0  0  0  0
    6.8435  -13.8650   24.6433 C   0  0  0  0  0  0  0  0  0  0  0  0
    7.6106  -16.5679   24.3805 C   0  0  0  0  0  0  0  0  0  0  0  0
    8.2501  -17.5646   24.7657 O   0  0  0  0  0  0  0  0  0  0  0  0
    7.3201  -14.4882   17.5354 O   0  0  0  0  0  0  0  0  0  0  0  0
    7.9674  -14.4565   18.7799 C   0  0  0  0  0  0  0  0  0  0  0  0
    7.9885  -13.3176   19.5525 C   0  0  0  0  0  0  0  0  0  0  0  0
    8.6264  -13.3049   20.7670 C   0  0  0  0  0  0  0  0  0  0  0  0
    9.2768  -14.4195   21.2799 C   0  0  0  0  0  0  0  0  0  0  0  0
    9.9491  -14.3418   22.6014 C   0  0  0  0  0  0  0  0  0  0  0  0
    9.6617  -15.5751   23.4511 C   0  0  2  0  0  0  0  0  0  0  0  0
    8.2953  -15.4351   23.8904 N   0  0  0  0  0  0  0  0  0  0  0  0
   10.6393  -15.7408   24.5293 C   0  0  0  0  0  0  0  0  0  0  0  0
   11.8606  -15.9521   24.3293 O   0  0  0  0  0  0  0  0  0  0  0  0
    9.2577  -15.5600   20.5102 C   0  0  0  0  0  0  0  0  0  0  0  0
    8.6077  -15.5737   19.2721 C   0  0  0  0  0  0  0  0  0  0  0  0
   10.2169  -13.5201   27.6494 C   0  0  0  0  0  0  0  0  0  0  0  0
   10.4060  -14.9252   28.1296 C   0  0  1  0  0  0  0  0  0  0  0  0
    9.0654  -15.5102   28.4785 C   0  0  0  0  0  0  0  0  0  0  0  0
   11.0902  -15.7137   27.0071 C   0  0  2  0  0  0  0  0  0  0  0  0
   10.1990  -15.6595   25.8737 N   0  0  0  0  0  0  0  0  0  0  0  0
   11.1510  -17.1122   27.4911 C   0  0  0  0  0  0  0  0  0  0  0  0
   12.0445  -17.4933   28.4765 O   0  0  0  0  0  0  0  0  0  0  0  0
   10.3908  -18.0150   27.0247 O   0  0  0  0  0  0  0  0  0  0  0  0
  2  1  1  1
  2  3  1  0
  2 10  1  0
  3  4  1  0
  4  9  1  0
  4  5  2  0
  5  6  1  0
  6  7  2  0
  8  7  1  0
  9  8  2  0
 10 11  2  0
 13 12  1  0
 13 14  2  0
 15 14  1  0
 16 15  2  0
 17 16  1  0
 18 17  1  1
 19 18  1  0
 19 10  1  0
 20 28  1  0
 20 18  1  0
 21 20  2  0
 22 23  2  0
 22 16  1  0
 23 13  1  0
 25 24  1  6
 26 25  1  0
 27 28  1  6
 27 25  1  0
 29 27  1  0
 30 29  1  0
 31 29  2  0
M  END
$$$$
