FYV.pdb
     RDKit          3D

 31 32  0  0  1  0  0  0  0  0999 V2000
    6.1521  -18.4763   20.3091 N   0  0  0  0  0  0  0  0  0  0  0  0
    6.7756  -17.2139   20.6035 C   0  0  1  0  0  0  0  0  0  0  0  0
    5.9504  -16.0472   20.0918 C   0  0  0  0  0  0  0  0  0  0  0  0
    6.7000  -14.7755   20.2725 C   0  0  0  0  0  0  0  0  0  0  0  0
    7.6731  -14.3942   19.3479 C   0  0  0  0  0  0  0  0  0  0  0  0
    8.3660  -13.2226   19.5115 C   0  0  0  0  0  0  0  0  0  0  0  0
    8.1303  -12.3893   20.5811 C   0  0  0  0  0  0  0  0  0  0  0  0
    7.1864  -12.7336   21.5014 C   0  0  0  0  0  0  0  0  0  0  0  0
    6.4959  -13.9133   21.3271 C   0  0  0  0  0  0  0  0  0  0  0  0
    7.0354  -17.0371   22.0389 C   0  0  0  0  0  0  0  0  0  0  0  0
    6.0907  -17.0306   22.8502 O   0  0  0  0  0  0  0  0  0  0  0  0
   10.4125  -18.8173   29.7475 O   0  0  0  0  0  0  0  0  0  0  0  0
   10.2517  -18.5705   28.3756 C   0  0  0  0  0  0  0  0  0  0  0  0
    9.1756  -19.0666   27.6754 C   0  0  0  0  0  0  0  0  0  0  0  0
    9.0345  -18.8153   26.3342 C   0  0  0  0  0  0  0  0  0  0  0  0
    9.9520  -18.0595   25.6161 C   0  0  0  0  0  0  0  0  0  0  0  0
    9.7428  -17.8230   24.1654 C   0  0  0  0  0  0  0  0  0  0  0  0
    8.6140  -16.8287   23.9154 C   0  0  2  0  0  0  0  0  0  0  0  0
    8.3609  -16.8759   22.4965 N   0  0  0  0  0  0  0  0  0  0  0  0
    8.9273  -15.4970   24.4392 C   0  0  0  0  0  0  0  0  0  0  0  0
    9.9234  -14.8264   24.0730 O   0  0  0  0  0  0  0  0  0  0  0  0
   11.0291  -17.5619   26.3130 C   0  0  0  0  0  0  0  0  0  0  0  0
   11.1736  -17.8176   27.6802 C   0  0  0  0  0  0  0  0  0  0  0  0
    7.2028  -11.8459   27.2545 C   0  0  0  0  0  0  0  0  0  0  0  0
    6.9638  -13.1174   26.5017 C   0  0  1  0  0  0  0  0  0  0  0  0
    6.0603  -12.8349   25.3334 C   0  0  0  0  0  0  0  0  0  0  0  0
    8.3259  -13.6518   26.0444 C   0  0  2  0  0  0  0  0  0  0  0  0
    8.0696  -14.9217   25.4094 N   0  0  0  0  0  0  0  0  0  0  0  0
    9.0901  -13.8945   27.2898 C   0  0  0  0  0  0  0  0  0  0  0  0
    9.2365  -15.1698   27.8061 O   0  0  0  0  0  0  0  0  0  0  0  0
    9.6394  -12.9481   27.9325 O   0  0  0  0  0  0  0  0  0  0  0  0
  2  1  1  1
  2  3  1  0
  2 10  1  0
  3  4  1  0
  4  9  1  0
  4  5  2  0
  5  6  1  0
  6  7  2  0
  8  7  1  0
  9  8  2  0
 10 11  2  0
 13 12  1  0
 13 14  2  0
 15 14  1  0
 16 15  2  0
 17 16  1  0
 18 17  1  6
 19 18  1  0
 19 10  1  0
 20 28  1  0
 20 18  1  0
 21 20  2  0
 22 23  2  0
 22 16  1  0
 23 13  1  0
 25 24  1  6
 26 25  1  0
 27 28  1  1
 27 25  1  0
 29 27  1  0
 30 29  1  0
 31 29  2  0
M  END
$$$$
