FYV.pdb
     RDKit          3D

 31 32  0  0  1  0  0  0  0  0999 V2000
    5.3044  -17.8083   23.7776 N   0  0  0  0  0  0  0  0  0  0  0  0
    5.9725  -16.6362   24.2766 C   0  0  1  0  0  0  0  0  0  0  0  0
    5.7891  -16.4805   25.7753 C   0  0  0  0  0  0  0  0  0  0  0  0
    6.3454  -15.1761   26.2234 C   0  0  0  0  0  0  0  0  0  0  0  0
    5.6226  -13.9984   26.0296 C   0  0  0  0  0  0  0  0  0  0  0  0
    6.1325  -12.7943   26.4414 C   0  0  0  0  0  0  0  0  0  0  0  0
    7.3617  -12.7037   27.0538 C   0  0  0  0  0  0  0  0  0  0  0  0
    8.0920  -13.8358   27.2573 C   0  0  0  0  0  0  0  0  0  0  0  0
    7.5699  -15.0407   26.8395 C   0  0  0  0  0  0  0  0  0  0  0  0
    7.4064  -16.6279   23.9557 C   0  0  0  0  0  0  0  0  0  0  0  0
    8.0549  -17.6910   23.9580 O   0  0  0  0  0  0  0  0  0  0  0  0
    7.5527  -14.6473   17.1411 O   0  0  0  0  0  0  0  0  0  0  0  0
    8.0702  -14.5337   18.4404 C   0  0  0  0  0  0  0  0  0  0  0  0
    7.9385  -13.3739   19.1697 C   0  0  0  0  0  0  0  0  0  0  0  0
    8.4508  -13.2807   20.4389 C   0  0  0  0  0  0  0  0  0  0  0  0
    9.1205  -14.3313   21.0522 C   0  0  0  0  0  0  0  0  0  0  0  0
    9.6522  -14.1678   22.4288 C   0  0  0  0  0  0  0  0  0  0  0  0
    9.4393  -15.4245   23.2660 C   0  0  2  0  0  0  0  0  0  0  0  0
    8.0474  -15.4099   23.6429 N   0  0  0  0  0  0  0  0  0  0  0  0
   10.3782  -15.5044   24.3876 C   0  0  0  0  0  0  0  0  0  0  0  0
   11.6255  -15.4707   24.2492 O   0  0  0  0  0  0  0  0  0  0  0  0
    9.2541  -15.4924   20.3259 C   0  0  0  0  0  0  0  0  0  0  0  0
    8.7321  -15.5883   19.0321 C   0  0  0  0  0  0  0  0  0  0  0  0
   10.7453  -14.2984   29.0325 C   0  0  0  0  0  0  0  0  0  0  0  0
    9.9974  -14.3962   27.7395 C   0  0  1  0  0  0  0  0  0  0  0  0
   10.0197  -13.0571   27.0558 C   0  0  0  0  0  0  0  0  0  0  0  0
   10.6767  -15.4750   26.8882 C   0  0  2  0  0  0  0  0  0  0  0  0
    9.8668  -15.6248   25.7036 N   0  0  0  0  0  0  0  0  0  0  0  0
   10.5809  -16.7206   27.6841 C   0  0  0  0  0  0  0  0  0  0  0  0
   11.4278  -16.9576   28.7523 O   0  0  0  0  0  0  0  0  0  0  0  0
    9.7232  -17.6180   27.4209 O   0  0  0  0  0  0  0  0  0  0  0  0
  2  1  1  1
  2  3  1  0
  2 10  1  0
  3  4  1  0
  4  9  1  0
  4  5  2  0
  5  6  1  0
  6  7  2  0
  8  7  1  0
  9  8  2  0
 10 11  2  0
 13 12  1  0
 13 14  2  0
 15 14  1  0
 16 15  2  0
 17 16  1  0
 18 17  1  1
 19 18  1  0
 19 10  1  0
 20 28  1  0
 20 18  1  0
 21 20  2  0
 22 23  2  0
 22 16  1  0
 23 13  1  0
 25 24  1  1
 26 25  1  0
 27 28  1  6
 27 25  1  0
 29 27  1  0
 30 29  1  0
 31 29  2  0
M  END
$$$$
