FYV.pdb
     RDKit          3D

 31 32  0  0  1  0  0  0  0  0999 V2000
    5.1526  -18.6140   21.5230 N   0  0  0  0  0  0  0  0  0  0  0  0
    6.0308  -17.5027   21.7734 C   0  0  1  0  0  0  0  0  0  0  0  0
    5.4109  -16.1877   21.3372 C   0  0  0  0  0  0  0  0  0  0  0  0
    6.4324  -15.1074   21.3708 C   0  0  0  0  0  0  0  0  0  0  0  0
    6.5967  -14.3290   22.5172 C   0  0  0  0  0  0  0  0  0  0  0  0
    7.5373  -13.3323   22.5516 C   0  0  0  0  0  0  0  0  0  0  0  0
    8.3447  -13.0658   21.4694 C   0  0  0  0  0  0  0  0  0  0  0  0
    8.2087  -13.8082   20.3351 C   0  0  0  0  0  0  0  0  0  0  0  0
    7.2602  -14.8075   20.3115 C   0  0  0  0  0  0  0  0  0  0  0  0
    6.4315  -17.4105   23.1841 C   0  0  0  0  0  0  0  0  0  0  0  0
    5.5841  -17.1569   24.0606 O   0  0  0  0  0  0  0  0  0  0  0  0
    4.6439  -22.6838   26.7374 O   0  0  0  0  0  0  0  0  0  0  0  0
    5.6460  -21.7727   26.3705 C   0  0  0  0  0  0  0  0  0  0  0  0
    6.0595  -21.6438   25.0641 C   0  0  0  0  0  0  0  0  0  0  0  0
    7.0409  -20.7478   24.7235 C   0  0  0  0  0  0  0  0  0  0  0  0
    7.6641  -19.9324   25.6591 C   0  0  0  0  0  0  0  0  0  0  0  0
    8.7200  -18.9823   25.2270 C   0  0  0  0  0  0  0  0  0  0  0  0
    8.1469  -17.5988   24.9387 C   0  0  2  0  0  0  0  0  0  0  0  0
    7.7815  -17.6120   23.5438 N   0  0  0  0  0  0  0  0  0  0  0  0
    9.0717  -16.5291   25.3210 C   0  0  0  0  0  0  0  0  0  0  0  0
   10.1161  -16.2558   24.6802 O   0  0  0  0  0  0  0  0  0  0  0  0
    7.2532  -20.0586   26.9663 C   0  0  0  0  0  0  0  0  0  0  0  0
    6.2529  -20.9718   27.3142 C   0  0  0  0  0  0  0  0  0  0  0  0
    9.7522  -12.8560   28.5399 C   0  0  0  0  0  0  0  0  0  0  0  0
    8.8292  -13.8108   27.8492 C   0  0  1  0  0  0  0  0  0  0  0  0
    7.8651  -13.0331   26.9967 C   0  0  0  0  0  0  0  0  0  0  0  0
    9.6869  -14.7614   27.0062 C   0  0  2  0  0  0  0  0  0  0  0  0
    8.7853  -15.7525   26.4712 N   0  0  0  0  0  0  0  0  0  0  0  0
   10.5980  -15.4243   27.9676 C   0  0  0  0  0  0  0  0  0  0  0  0
   11.8657  -14.9284   28.2152 O   0  0  0  0  0  0  0  0  0  0  0  0
   10.2563  -16.4696   28.6008 O   0  0  0  0  0  0  0  0  0  0  0  0
  2  1  1  1
  2  3  1  0
  2 10  1  0
  3  4  1  0
  4  9  1  0
  4  5  2  0
  5  6  1  0
  6  7  2  0
  8  7  1  0
  9  8  2  0
 10 11  2  0
 13 12  1  0
 13 14  2  0
 15 14  1  0
 16 15  2  0
 17 16  1  0
 18 17  1  6
 19 18  1  0
 19 10  1  0
 20 28  1  0
 20 18  1  0
 21 20  2  0
 22 23  2  0
 22 16  1  0
 23 13  1  0
 25 24  1  6
 26 25  1  0
 27 28  1  1
 27 25  1  0
 29 27  1  0
 30 29  1  0
 31 29  2  0
M  END
$$$$
