FYV.pdb
     RDKit          3D

 31 32  0  0  1  0  0  0  0  0999 V2000
    6.3176  -16.6001   25.8070 N   0  0  0  0  0  0  0  0  0  0  0  0
    6.3332  -16.5692   24.3690 C   0  0  1  0  0  0  0  0  0  0  0  0
    5.6543  -15.3246   23.8267 C   0  0  0  0  0  0  0  0  0  0  0  0
    6.0837  -14.1312   24.6033 C   0  0  0  0  0  0  0  0  0  0  0  0
    5.5003  -13.8478   25.8389 C   0  0  0  0  0  0  0  0  0  0  0  0
    5.8937  -12.7485   26.5573 C   0  0  0  0  0  0  0  0  0  0  0  0
    6.8669  -11.8939   26.0920 C   0  0  0  0  0  0  0  0  0  0  0  0
    7.4557  -12.1432   24.8888 C   0  0  0  0  0  0  0  0  0  0  0  0
    7.0528  -13.2509   24.1751 C   0  0  0  0  0  0  0  0  0  0  0  0
    7.6930  -16.6632   23.8201 C   0  0  0  0  0  0  0  0  0  0  0  0
    8.0203  -17.6410   23.1218 O   0  0  0  0  0  0  0  0  0  0  0  0
    7.4958  -14.2641   18.0100 O   0  0  0  0  0  0  0  0  0  0  0  0
    8.2133  -14.3568   19.2123 C   0  0  0  0  0  0  0  0  0  0  0  0
    8.1962  -13.3418   20.1417 C   0  0  0  0  0  0  0  0  0  0  0  0
    8.9039  -13.4496   21.3120 C   0  0  0  0  0  0  0  0  0  0  0  0
    9.6655  -14.5684   21.6230 C   0  0  0  0  0  0  0  0  0  0  0  0
   10.4091  -14.6246   22.9069 C   0  0  0  0  0  0  0  0  0  0  0  0
   10.0117  -15.8431   23.7332 C   0  0  2  0  0  0  0  0  0  0  0  0
    8.6282  -15.6399   24.0856 N   0  0  0  0  0  0  0  0  0  0  0  0
   10.9104  -16.0539   24.8706 C   0  0  0  0  0  0  0  0  0  0  0  0
   12.0909  -16.4646   24.7527 O   0  0  0  0  0  0  0  0  0  0  0  0
    9.6848  -15.5852   20.6960 C   0  0  0  0  0  0  0  0  0  0  0  0
    8.9638  -15.4760   19.5028 C   0  0  0  0  0  0  0  0  0  0  0  0
   10.3851  -13.6839   27.9924 C   0  0  0  0  0  0  0  0  0  0  0  0
   10.5319  -15.0990   28.4578 C   0  0  1  0  0  0  0  0  0  0  0  0
    9.1681  -15.6718   28.7280 C   0  0  0  0  0  0  0  0  0  0  0  0
   11.2627  -15.8782   27.3582 C   0  0  2  0  0  0  0  0  0  0  0  0
   10.4374  -15.7831   26.1787 N   0  0  0  0  0  0  0  0  0  0  0  0
   11.2698  -17.2872   27.8149 C   0  0  0  0  0  0  0  0  0  0  0  0
   12.1309  -17.7158   28.8095 O   0  0  0  0  0  0  0  0  0  0  0  0
   10.4912  -18.1560   27.3155 O   0  0  0  0  0  0  0  0  0  0  0  0
  2  1  1  1
  2  3  1  0
  2 10  1  0
  3  4  1  0
  4  9  1  0
  4  5  2  0
  5  6  1  0
  6  7  2  0
  8  7  1  0
  9  8  2  0
 10 11  2  0
 13 12  1  0
 13 14  2  0
 15 14  1  0
 16 15  2  0
 17 16  1  0
 18 17  1  1
 19 18  1  0
 19 10  1  0
 20 28  1  0
 20 18  1  0
 21 20  2  0
 22 23  2  0
 22 16  1  0
 23 13  1  0
 25 24  1  6
 26 25  1  0
 27 28  1  6
 27 25  1  0
 29 27  1  0
 30 29  1  0
 31 29  2  0
M  END
$$$$
