FYV.pdb
     RDKit          3D

 31 32  0  0  1  0  0  0  0  0999 V2000
    5.6242  -17.8539   23.8882 N   0  0  0  0  0  0  0  0  0  0  0  0
    6.2237  -16.5862   24.2086 C   0  0  1  0  0  0  0  0  0  0  0  0
    5.8530  -16.1272   25.6071 C   0  0  0  0  0  0  0  0  0  0  0  0
    6.2427  -14.7045   25.7959 C   0  0  0  0  0  0  0  0  0  0  0  0
    6.5338  -14.2172   27.0706 C   0  0  0  0  0  0  0  0  0  0  0  0
    6.8932  -12.9062   27.2482 C   0  0  0  0  0  0  0  0  0  0  0  0
    6.9791  -12.0326   26.1882 C   0  0  0  0  0  0  0  0  0  0  0  0
    6.7010  -12.4778   24.9309 C   0  0  0  0  0  0  0  0  0  0  0  0
    6.3408  -13.7974   24.7639 C   0  0  0  0  0  0  0  0  0  0  0  0
    7.6866  -16.6064   24.0720 C   0  0  0  0  0  0  0  0  0  0  0  0
    8.3192  -17.6614   24.2656 O   0  0  0  0  0  0  0  0  0  0  0  0
    7.4388  -14.1839   17.4301 O   0  0  0  0  0  0  0  0  0  0  0  0
    8.0762  -14.2008   18.6800 C   0  0  0  0  0  0  0  0  0  0  0  0
    8.0945  -13.0915   19.4946 C   0  0  0  0  0  0  0  0  0  0  0  0
    8.7226  -13.1260   20.7137 C   0  0  0  0  0  0  0  0  0  0  0  0
    9.3656  -14.2611   21.1899 C   0  0  0  0  0  0  0  0  0  0  0  0
   10.0275  -14.2348   22.5186 C   0  0  0  0  0  0  0  0  0  0  0  0
    9.7535  -15.5105   23.3079 C   0  0  2  0  0  0  0  0  0  0  0  0
    8.3738  -15.4251   23.7187 N   0  0  0  0  0  0  0  0  0  0  0  0
   10.7093  -15.6971   24.4021 C   0  0  0  0  0  0  0  0  0  0  0  0
   11.9106  -16.0157   24.2244 O   0  0  0  0  0  0  0  0  0  0  0  0
    9.3493  -15.3720   20.3781 C   0  0  0  0  0  0  0  0  0  0  0  0
    8.7092  -15.3376   19.1352 C   0  0  0  0  0  0  0  0  0  0  0  0
   10.6180  -13.3292   27.3942 C   0  0  0  0  0  0  0  0  0  0  0  0
   10.5889  -14.7154   27.9586 C   0  0  1  0  0  0  0  0  0  0  0  0
    9.1768  -15.0601   28.3436 C   0  0  0  0  0  0  0  0  0  0  0  0
   11.1289  -15.6675   26.8853 C   0  0  2  0  0  0  0  0  0  0  0  0
   10.2704  -15.5101   25.7364 N   0  0  0  0  0  0  0  0  0  0  0  0
   10.9341  -17.0290   27.4350 C   0  0  0  0  0  0  0  0  0  0  0  0
   11.7375  -17.5153   28.4511 O   0  0  0  0  0  0  0  0  0  0  0  0
   10.0274  -17.8027   26.9994 O   0  0  0  0  0  0  0  0  0  0  0  0
  2  1  1  1
  2  3  1  0
  2 10  1  0
  3  4  1  0
  4  9  1  0
  4  5  2  0
  5  6  1  0
  6  7  2  0
  8  7  1  0
  9  8  2  0
 10 11  2  0
 13 12  1  0
 13 14  2  0
 15 14  1  0
 16 15  2  0
 17 16  1  0
 18 17  1  1
 19 18  1  0
 19 10  1  0
 20 28  1  0
 20 18  1  0
 21 20  2  0
 22 23  2  0
 22 16  1  0
 23 13  1  0
 25 24  1  6
 26 25  1  0
 27 28  1  6
 27 25  1  0
 29 27  1  0
 30 29  1  0
 31 29  2  0
M  END
$$$$
