HQN.pdb
     RDKit          3D

 28 28  0  0  1  0  0  0  0  0999 V2000
   25.6774  -19.6536  -18.2392 N   0  0  0  0  0  0  0  0  0  0  0  0
   25.0450  -18.7430  -17.3659 C   0  0  1  0  0  0  0  0  0  0  0  0
   24.9888  -17.3850  -18.0667 C   0  0  0  0  0  0  0  0  0  0  0  0
   26.3913  -16.9195  -18.2265 C   0  0  0  0  0  0  0  0  0  0  0  0
   27.5344  -17.6126  -17.8177 C   0  0  0  0  0  0  0  0  0  0  0  0
   28.5969  -16.8602  -18.1387 N   0  0  0  0  0  0  0  0  0  0  0  0
   28.1519  -15.7299  -18.7298 C   0  0  0  0  0  0  0  0  0  0  0  0
   26.8245  -15.7759  -18.7776 N   0  0  0  0  0  0  0  0  0  0  0  0
   23.6837  -19.2243  -17.0129 C   0  0  0  0  0  0  0  0  0  0  0  0
   22.9958  -19.9203  -17.8077 O   0  0  0  0  0  0  0  0  0  0  0  0
   19.9295  -21.4902  -13.4413 N   0  0  0  0  0  0  0  0  0  0  0  0
   21.1050  -22.2005  -13.7430 C   0  0  0  0  0  0  0  0  0  0  0  0
   21.1175  -23.4378  -13.7412 O   0  0  0  0  0  0  0  0  0  0  0  0
   22.3354  -21.4427  -14.0650 C   0  0  0  0  0  0  0  0  0  0  0  0
   22.0077  -19.9999  -14.0387 C   0  0  0  0  0  0  0  0  0  0  0  0
   21.7702  -19.3131  -15.3432 C   0  0  2  0  0  0  0  0  0  0  0  0
   23.1340  -18.9052  -15.7670 N   0  0  0  0  0  0  0  0  0  0  0  0
   20.9805  -18.0727  -15.2748 C   0  0  0  0  0  0  0  0  0  0  0  0
   21.4281  -17.0669  -14.6208 O   0  0  0  0  0  0  0  0  0  0  0  0
   17.5375  -14.3709  -15.8574 N   0  0  0  0  0  0  0  0  0  0  0  0
   17.7018  -15.0415  -17.0982 C   0  0  0  0  0  0  0  0  0  0  0  0
   17.1869  -14.5585  -18.1401 O   0  0  0  0  0  0  0  0  0  0  0  0
   18.4729  -16.3045  -17.1851 C   0  0  0  0  0  0  0  0  0  0  0  0
   18.9756  -16.6446  -15.8015 C   0  0  2  0  0  0  0  0  0  0  0  0
   19.7179  -17.9056  -15.9050 N   0  0  0  0  0  0  0  0  0  0  0  0
   17.8007  -16.8571  -14.9206 C   0  0  0  0  0  0  0  0  0  0  0  0
   17.3506  -15.8815  -14.0576 O   0  0  0  0  0  0  0  0  0  0  0  0
   17.1583  -17.9448  -14.9226 O   0  0  0  0  0  0  0  0  0  0  0  0
  2  1  1  6
  2  9  1  0
  3  4  1  0
  3  2  1  0
  4  8  1  0
  5  4  2  0
  5  6  1  0
  6  7  1  0
  8  7  2  0
  9 10  2  0
 12 11  1  0
 13 12  2  0
 14 12  1  0
 15 14  1  0
 16 15  1  1
 17  9  1  0
 17 16  1  0
 18 16  1  0
 18 19  2  0
 20 21  1  0
 21 22  2  0
 23 21  1  0
 24 23  1  6
 24 25  1  0
 25 18  1  0
 26 27  1  0
 26 24  1  0
 28 26  2  0
M  END
$$$$
