HQN.pdb
     RDKit          3D

 28 28  0  0  1  0  0  0  0  0999 V2000
   22.7006  -10.7418  -15.2000 N   0  0  0  0  0  0  0  0  0  0  0  0
   23.1619   -9.4167  -15.0486 C   0  0  1  0  0  0  0  0  0  0  0  0
   24.2389   -9.1725  -16.1064 C   0  0  0  0  0  0  0  0  0  0  0  0
   25.3827  -10.0625  -15.7762 C   0  0  0  0  0  0  0  0  0  0  0  0
   26.6001   -9.6576  -15.2214 C   0  0  0  0  0  0  0  0  0  0  0  0
   27.3607  -10.7526  -15.0786 N   0  0  0  0  0  0  0  0  0  0  0  0
   26.6581  -11.8169  -15.5243 C   0  0  0  0  0  0  0  0  0  0  0  0
   25.4703  -11.3908  -15.9414 N   0  0  0  0  0  0  0  0  0  0  0  0
   22.0363   -8.4568  -15.1936 C   0  0  0  0  0  0  0  0  0  0  0  0
   22.2233   -7.2106  -15.2294 O   0  0  0  0  0  0  0  0  0  0  0  0
   17.2788  -10.1310  -18.0978 N   0  0  0  0  0  0  0  0  0  0  0  0
   16.5741   -9.0699  -17.5020 C   0  0  0  0  0  0  0  0  0  0  0  0
   15.4090   -8.8164  -17.8326 O   0  0  0  0  0  0  0  0  0  0  0  0
   17.2498   -8.2549  -16.4670 C   0  0  0  0  0  0  0  0  0  0  0  0
   18.6382   -8.7473  -16.3271 C   0  0  0  0  0  0  0  0  0  0  0  0
   19.5339   -8.0471  -15.3588 C   0  0  2  0  0  0  0  0  0  0  0  0
   20.7248   -8.9323  -15.2946 N   0  0  0  0  0  0  0  0  0  0  0  0
   19.0280   -7.9499  -13.9799 C   0  0  0  0  0  0  0  0  0  0  0  0
   18.8792   -9.0110  -13.2786 O   0  0  0  0  0  0  0  0  0  0  0  0
   16.8850   -6.7524   -9.6079 N   0  0  0  0  0  0  0  0  0  0  0  0
   18.1923   -6.2094   -9.7196 C   0  0  0  0  0  0  0  0  0  0  0  0
   18.7614   -5.7413   -8.6994 O   0  0  0  0  0  0  0  0  0  0  0  0
   18.8985   -6.1858  -11.0227 C   0  0  0  0  0  0  0  0  0  0  0  0
   17.9495   -6.6976  -12.0811 C   0  0  2  0  0  0  0  0  0  0  0  0
   18.6845   -6.7231  -13.3503 N   0  0  0  0  0  0  0  0  0  0  0  0
   16.8273   -5.7346  -12.2024 C   0  0  0  0  0  0  0  0  0  0  0  0
   15.6603   -5.8807  -11.4842 O   0  0  0  0  0  0  0  0  0  0  0  0
   16.8918   -4.7345  -12.9714 O   0  0  0  0  0  0  0  0  0  0  0  0
  2  1  1  6
  2  9  1  0
  3  4  1  0
  3  2  1  0
  4  8  1  0
  5  4  2  0
  5  6  1  0
  6  7  1  0
  8  7  2  0
  9 10  2  0
 12 11  1  0
 13 12  2  0
 14 12  1  0
 15 14  1  0
 16 15  1  6
 17  9  1  0
 17 16  1  0
 18 16  1  0
 18 19  2  0
 20 21  1  0
 21 22  2  0
 23 21  1  0
 24 23  1  1
 24 25  1  0
 25 18  1  0
 26 27  1  0
 26 24  1  0
 28 26  2  0
M  END
$$$$
