HQN.pdb
     RDKit          3D

 28 28  0  0  1  0  0  0  0  0999 V2000
   27.8331  -20.7093  -16.2918 N   0  0  0  0  0  0  0  0  0  0  0  0
   27.0435  -19.9015  -15.4458 C   0  0  1  0  0  0  0  0  0  0  0  0
   26.3463  -18.8547  -16.3155 C   0  0  0  0  0  0  0  0  0  0  0  0
   27.4069  -17.9729  -16.8694 C   0  0  0  0  0  0  0  0  0  0  0  0
   28.6075  -17.6404  -16.2353 C   0  0  0  0  0  0  0  0  0  0  0  0
   29.2854  -16.8279  -17.0588 N   0  0  0  0  0  0  0  0  0  0  0  0
   28.5481  -16.6471  -18.1762 C   0  0  0  0  0  0  0  0  0  0  0  0
   27.4208  -17.3400  -18.0520 N   0  0  0  0  0  0  0  0  0  0  0  0
   26.0570  -20.7335  -14.7083 C   0  0  0  0  0  0  0  0  0  0  0  0
   25.7050  -21.8719  -15.1199 O   0  0  0  0  0  0  0  0  0  0  0  0
   25.5892  -20.4717   -8.7796 N   0  0  0  0  0  0  0  0  0  0  0  0
   26.6204  -21.0138   -9.5672 C   0  0  0  0  0  0  0  0  0  0  0  0
   27.7472  -21.2059   -9.0935 O   0  0  0  0  0  0  0  0  0  0  0  0
   26.3374  -21.3537  -10.9801 C   0  0  0  0  0  0  0  0  0  0  0  0
   24.9911  -20.8398  -11.3165 C   0  0  0  0  0  0  0  0  0  0  0  0
   24.5045  -21.0188  -12.7169 C   0  0  2  0  0  0  0  0  0  0  0  0
   25.4924  -20.2553  -13.5213 N   0  0  0  0  0  0  0  0  0  0  0  0
   23.1925  -20.4218  -13.0158 C   0  0  0  0  0  0  0  0  0  0  0  0
   23.1275  -19.2738  -13.5794 O   0  0  0  0  0  0  0  0  0  0  0  0
   18.8033  -20.2182  -16.3299 N   0  0  0  0  0  0  0  0  0  0  0  0
   19.4928  -19.7833  -15.1673 C   0  0  0  0  0  0  0  0  0  0  0  0
   19.0770  -18.7767  -14.5366 O   0  0  0  0  0  0  0  0  0  0  0  0
   20.6977  -20.4989  -14.6841 C   0  0  0  0  0  0  0  0  0  0  0  0
   20.6809  -20.4810  -13.1734 C   0  0  2  0  0  0  0  0  0  0  0  0
   21.9535  -21.0498  -12.7164 N   0  0  0  0  0  0  0  0  0  0  0  0
   19.5766  -21.3579  -12.7116 C   0  0  0  0  0  0  0  0  0  0  0  0
   18.4899  -20.8614  -12.0250 O   0  0  0  0  0  0  0  0  0  0  0  0
   19.5833  -22.6024  -12.9281 O   0  0  0  0  0  0  0  0  0  0  0  0
  2  1  1  6
  2  9  1  0
  3  4  1  0
  3  2  1  0
  4  8  1  0
  5  4  2  0
  5  6  1  0
  6  7  1  0
  8  7  2  0
  9 10  2  0
 12 11  1  0
 13 12  2  0
 14 12  1  0
 15 14  1  0
 16 15  1  1
 17  9  1  0
 17 16  1  0
 18 16  1  0
 18 19  2  0
 20 21  1  0
 21 22  2  0
 23 21  1  0
 24 23  1  6
 24 25  1  0
 25 18  1  0
 26 27  1  0
 26 24  1  0
 28 26  2  0
M  END
$$$$
