HQN.pdb
     RDKit          3D

 28 28  0  0  1  0  0  0  0  0999 V2000
   28.3385  -19.9371  -18.2421 N   0  0  0  0  0  0  0  0  0  0  0  0
   28.1417  -19.2724  -17.0128 C   0  0  1  0  0  0  0  0  0  0  0  0
   27.5881  -17.8799  -17.3172 C   0  0  0  0  0  0  0  0  0  0  0  0
   28.6929  -17.0970  -17.9304 C   0  0  0  0  0  0  0  0  0  0  0  0
   29.9971  -17.5526  -18.1442 C   0  0  0  0  0  0  0  0  0  0  0  0
   30.6839  -16.5520  -18.7144 N   0  0  0  0  0  0  0  0  0  0  0  0
   29.8525  -15.4973  -18.8601 C   0  0  0  0  0  0  0  0  0  0  0  0
   28.6580  -15.8357  -18.3856 N   0  0  0  0  0  0  0  0  0  0  0  0
   27.2112  -20.0456  -16.1492 C   0  0  0  0  0  0  0  0  0  0  0  0
   26.3607  -20.8418  -16.6310 O   0  0  0  0  0  0  0  0  0  0  0  0
   25.6226  -22.6176  -11.6660 N   0  0  0  0  0  0  0  0  0  0  0  0
   25.7749  -21.4828  -10.8495 C   0  0  0  0  0  0  0  0  0  0  0  0
   25.1732  -21.3903   -9.7722 O   0  0  0  0  0  0  0  0  0  0  0  0
   26.6709  -20.3935  -11.2994 C   0  0  0  0  0  0  0  0  0  0  0  0
   27.2571  -20.7869  -12.5998 C   0  0  0  0  0  0  0  0  0  0  0  0
   26.4041  -20.6576  -13.8188 C   0  0  2  0  0  0  0  0  0  0  0  0
   27.2666  -19.8980  -14.7595 N   0  0  0  0  0  0  0  0  0  0  0  0
   25.1798  -19.8565  -13.6565 C   0  0  0  0  0  0  0  0  0  0  0  0
   25.2175  -18.5897  -13.8393 O   0  0  0  0  0  0  0  0  0  0  0  0
   20.3568  -18.5353  -14.3273 N   0  0  0  0  0  0  0  0  0  0  0  0
   21.2627  -18.8683  -15.3687 C   0  0  0  0  0  0  0  0  0  0  0  0
   20.9629  -18.6062  -16.5625 O   0  0  0  0  0  0  0  0  0  0  0  0
   22.5596  -19.5213  -15.0701 C   0  0  0  0  0  0  0  0  0  0  0  0
   22.6698  -19.6849  -13.5722 C   0  0  2  0  0  0  0  0  0  0  0  0
   23.9182  -20.4066  -13.3030 N   0  0  0  0  0  0  0  0  0  0  0  0
   21.5317  -20.5181  -13.1117 C   0  0  0  0  0  0  0  0  0  0  0  0
   21.5680  -21.8947  -13.1640 O   0  0  0  0  0  0  0  0  0  0  0  0
   20.4757  -20.0014  -12.6495 O   0  0  0  0  0  0  0  0  0  0  0  0
  2  1  1  6
  2  9  1  0
  3  4  1  0
  3  2  1  0
  4  8  1  0
  5  4  2  0
  5  6  1  0
  6  7  1  0
  8  7  2  0
  9 10  2  0
 12 11  1  0
 13 12  2  0
 14 12  1  0
 15 14  1  0
 16 15  1  1
 17  9  1  0
 17 16  1  0
 18 16  1  0
 18 19  2  0
 20 21  1  0
 21 22  2  0
 23 21  1  0
 24 23  1  6
 24 25  1  0
 25 18  1  0
 26 27  1  0
 26 24  1  0
 28 26  2  0
M  END
$$$$
