HQN.pdb
     RDKit          3D

 28 28  0  0  1  0  0  0  0  0999 V2000
   16.6578  -15.4585    3.7311 N   0  0  0  0  0  0  0  0  0  0  0  0
   16.7519  -14.8141    4.9832 C   0  0  1  0  0  0  0  0  0  0  0  0
   16.0020  -15.6679    6.0064 C   0  0  0  0  0  0  0  0  0  0  0  0
   14.5570  -15.5831    5.6684 C   0  0  0  0  0  0  0  0  0  0  0  0
   13.6988  -14.5325    6.0056 C   0  0  0  0  0  0  0  0  0  0  0  0
   12.4850  -14.8342    5.5222 N   0  0  0  0  0  0  0  0  0  0  0  0
   12.5627  -16.0307    4.8999 C   0  0  0  0  0  0  0  0  0  0  0  0
   13.8129  -16.4720    4.9936 N   0  0  0  0  0  0  0  0  0  0  0  0
   18.1765  -14.6374    5.3688 C   0  0  0  0  0  0  0  0  0  0  0  0
   19.0779  -15.4223    4.9679 O   0  0  0  0  0  0  0  0  0  0  0  0
   19.6782   -9.2816    7.3899 N   0  0  0  0  0  0  0  0  0  0  0  0
   21.0018   -9.7562    7.4110 C   0  0  0  0  0  0  0  0  0  0  0  0
   21.9482   -8.9889    7.6269 O   0  0  0  0  0  0  0  0  0  0  0  0
   21.2489  -11.1959    7.1698 C   0  0  0  0  0  0  0  0  0  0  0  0
   19.9451  -11.8526    6.9280 C   0  0  0  0  0  0  0  0  0  0  0  0
   19.9444  -13.3153    6.6272 C   0  0  2  0  0  0  0  0  0  0  0  0
   18.5458  -13.5749    6.2001 N   0  0  0  0  0  0  0  0  0  0  0  0
   20.1865  -14.2015    7.7774 C   0  0  0  0  0  0  0  0  0  0  0  0
   19.2071  -14.5726    8.5141 O   0  0  0  0  0  0  0  0  0  0  0  0
   23.4495  -18.8184    9.9227 N   0  0  0  0  0  0  0  0  0  0  0  0
   22.5809  -17.6971    9.9888 C   0  0  0  0  0  0  0  0  0  0  0  0
   21.9026  -17.4952   11.0295 O   0  0  0  0  0  0  0  0  0  0  0  0
   22.4610  -16.7583    8.8478 C   0  0  0  0  0  0  0  0  0  0  0  0
   21.6521  -15.5661    9.3029 C   0  0  2  0  0  0  0  0  0  0  0  0
   21.4702  -14.6925    8.1385 N   0  0  0  0  0  0  0  0  0  0  0  0
   22.4396  -14.8347   10.3259 C   0  0  0  0  0  0  0  0  0  0  0  0
   23.0390  -13.6236   10.0560 O   0  0  0  0  0  0  0  0  0  0  0  0
   22.5957  -15.2907   11.4936 O   0  0  0  0  0  0  0  0  0  0  0  0
  2  1  1  6
  2  9  1  0
  3  4  1  0
  3  2  1  0
  4  8  1  0
  5  4  2  0
  5  6  1  0
  6  7  1  0
  8  7  2  0
  9 10  2  0
 12 11  1  0
 13 12  2  0
 14 12  1  0
 15 14  1  0
 16 15  1  1
 17  9  1  0
 17 16  1  0
 18 16  1  0
 18 19  2  0
 20 21  1  0
 21 22  2  0
 23 21  1  0
 24 23  1  6
 24 25  1  0
 25 18  1  0
 26 27  1  0
 26 24  1  0
 28 26  2  0
M  END
$$$$
