HQN.pdb
     RDKit          3D

 28 28  0  0  1  0  0  0  0  0999 V2000
   17.3970  -12.0670  -15.6998 N   0  0  0  0  0  0  0  0  0  0  0  0
   18.0131  -10.8822  -16.1565 C   0  0  1  0  0  0  0  0  0  0  0  0
   16.9232   -9.8229  -16.3246 C   0  0  0  0  0  0  0  0  0  0  0  0
   16.0232  -10.2932  -17.4101 C   0  0  0  0  0  0  0  0  0  0  0  0
   16.4292  -10.8809  -18.6117 C   0  0  0  0  0  0  0  0  0  0  0  0
   15.3231  -11.1602  -19.3163 N   0  0  0  0  0  0  0  0  0  0  0  0
   14.2510  -10.7669  -18.5946 C   0  0  0  0  0  0  0  0  0  0  0  0
   14.6832  -10.2471  -17.4503 N   0  0  0  0  0  0  0  0  0  0  0  0
   19.0546  -10.4362  -15.1944 C   0  0  0  0  0  0  0  0  0  0  0  0
   18.8675  -10.4660  -13.9481 O   0  0  0  0  0  0  0  0  0  0  0  0
   24.4728  -11.5796  -16.6571 N   0  0  0  0  0  0  0  0  0  0  0  0
   24.9105  -10.8127  -15.5626 C   0  0  0  0  0  0  0  0  0  0  0  0
   26.1066  -10.7810  -15.2473 O   0  0  0  0  0  0  0  0  0  0  0  0
   23.9140  -10.0389  -14.7879 C   0  0  0  0  0  0  0  0  0  0  0  0
   22.5799  -10.2837  -15.3794 C   0  0  0  0  0  0  0  0  0  0  0  0
   21.4094   -9.5752  -14.7811 C   0  0  2  0  0  0  0  0  0  0  0  0
   20.2842   -9.9668  -15.6679 N   0  0  0  0  0  0  0  0  0  0  0  0
   21.4653   -8.1049  -14.8247 C   0  0  0  0  0  0  0  0  0  0  0  0
   22.3759   -7.4816  -14.1750 O   0  0  0  0  0  0  0  0  0  0  0  0
   20.9931   -3.1855  -15.8877 N   0  0  0  0  0  0  0  0  0  0  0  0
   22.0485   -4.0122  -16.3556 C   0  0  0  0  0  0  0  0  0  0  0  0
   23.0866   -3.4857  -16.8341 O   0  0  0  0  0  0  0  0  0  0  0  0
   21.9458   -5.4895  -16.2882 C   0  0  0  0  0  0  0  0  0  0  0  0
   20.6621   -5.8394  -15.5726 C   0  0  2  0  0  0  0  0  0  0  0  0
   20.5535   -7.3023  -15.5621 N   0  0  0  0  0  0  0  0  0  0  0  0
   19.5294   -5.2856  -16.3548 C   0  0  0  0  0  0  0  0  0  0  0  0
   18.8679   -4.1400  -15.9687 O   0  0  0  0  0  0  0  0  0  0  0  0
   19.1199   -5.8409  -17.4129 O   0  0  0  0  0  0  0  0  0  0  0  0
  2  1  1  1
  2  9  1  0
  3  4  1  0
  3  2  1  0
  4  8  1  0
  5  4  2  0
  5  6  1  0
  6  7  1  0
  8  7  2  0
  9 10  2  0
 12 11  1  0
 13 12  2  0
 14 12  1  0
 15 14  1  0
 16 15  1  6
 17  9  1  0
 17 16  1  0
 18 16  1  0
 18 19  2  0
 20 21  1  0
 21 22  2  0
 23 21  1  0
 24 23  1  6
 24 25  1  0
 25 18  1  0
 26 27  1  0
 26 24  1  0
 28 26  2  0
M  END
$$$$
