HQN.pdb
     RDKit          3D

 28 28  0  0  1  0  0  0  0  0999 V2000
   18.6739  -11.0292  -16.0277 N   0  0  0  0  0  0  0  0  0  0  0  0
   17.7021  -10.4216  -15.2042 C   0  0  1  0  0  0  0  0  0  0  0  0
   16.6198  -11.4617  -14.9123 C   0  0  0  0  0  0  0  0  0  0  0  0
   15.8623  -11.6674  -16.1746 C   0  0  0  0  0  0  0  0  0  0  0  0
   16.0575  -12.7106  -17.0844 C   0  0  0  0  0  0  0  0  0  0  0  0
   15.1818  -12.5399  -18.0854 N   0  0  0  0  0  0  0  0  0  0  0  0
   14.4545  -11.4312  -17.8269 C   0  0  0  0  0  0  0  0  0  0  0  0
   14.8717  -10.9145  -16.6757 N   0  0  0  0  0  0  0  0  0  0  0  0
   18.3244   -9.9244  -13.9493 C   0  0  0  0  0  0  0  0  0  0  0  0
   19.4439  -10.3435  -13.5487 O   0  0  0  0  0  0  0  0  0  0  0  0
   21.3608   -6.3470  -13.9393 N   0  0  0  0  0  0  0  0  0  0  0  0
   21.2694   -6.0084  -12.5774 C   0  0  0  0  0  0  0  0  0  0  0  0
   22.0481   -5.1896  -12.0730 O   0  0  0  0  0  0  0  0  0  0  0  0
   20.2221   -6.6492  -11.7502 C   0  0  0  0  0  0  0  0  0  0  0  0
   19.4473   -7.5650  -12.6166 C   0  0  0  0  0  0  0  0  0  0  0  0
   18.2814   -8.2777  -12.0144 C   0  0  2  0  0  0  0  0  0  0  0  0
   17.6629   -8.9634  -13.1777 N   0  0  0  0  0  0  0  0  0  0  0  0
   17.2312   -7.4150  -11.4489 C   0  0  0  0  0  0  0  0  0  0  0  0
   16.5423   -6.6596  -12.2200 O   0  0  0  0  0  0  0  0  0  0  0  0
   14.0516   -4.8790   -8.3650 N   0  0  0  0  0  0  0  0  0  0  0  0
   14.4229   -6.0552   -7.6615 C   0  0  0  0  0  0  0  0  0  0  0  0
   13.8797   -6.3179   -6.5571 O   0  0  0  0  0  0  0  0  0  0  0  0
   15.4429   -6.9805   -8.2099 C   0  0  0  0  0  0  0  0  0  0  0  0
   15.8867   -6.4488   -9.5527 C   0  0  2  0  0  0  0  0  0  0  0  0
   16.9153   -7.3609  -10.0645 N   0  0  0  0  0  0  0  0  0  0  0  0
   16.4988   -5.1135   -9.3433 C   0  0  0  0  0  0  0  0  0  0  0  0
   15.7587   -3.9532   -9.4136 O   0  0  0  0  0  0  0  0  0  0  0  0
   17.7292   -4.9803   -9.0902 O   0  0  0  0  0  0  0  0  0  0  0  0
  2  1  1  6
  2  9  1  0
  3  4  1  0
  3  2  1  0
  4  8  1  0
  5  4  2  0
  5  6  1  0
  6  7  1  0
  8  7  2  0
  9 10  2  0
 12 11  1  0
 13 12  2  0
 14 12  1  0
 15 14  1  0
 16 15  1  6
 17  9  1  0
 17 16  1  0
 18 16  1  0
 18 19  2  0
 20 21  1  0
 21 22  2  0
 23 21  1  0
 24 23  1  1
 24 25  1  0
 25 18  1  0
 26 27  1  0
 26 24  1  0
 28 26  2  0
M  END
$$$$
