HQN.pdb
     RDKit          3D

 28 28  0  0  1  0  0  0  0  0999 V2000
   19.8098  -13.7386  -17.4079 N   0  0  0  0  0  0  0  0  0  0  0  0
   20.0954  -12.3910  -17.7148 C   0  0  1  0  0  0  0  0  0  0  0  0
   18.7655  -11.6706  -17.9404 C   0  0  0  0  0  0  0  0  0  0  0  0
   18.1407  -12.2776  -19.1448 C   0  0  0  0  0  0  0  0  0  0  0  0
   18.5020  -12.0209  -20.4705 C   0  0  0  0  0  0  0  0  0  0  0  0
   17.7039  -12.7599  -21.2548 N   0  0  0  0  0  0  0  0  0  0  0  0
   16.8647  -13.4621  -20.4626 C   0  0  0  0  0  0  0  0  0  0  0  0
   17.1359  -13.1647  -19.1960 N   0  0  0  0  0  0  0  0  0  0  0  0
   20.8693  -11.7617  -16.6129 C   0  0  0  0  0  0  0  0  0  0  0  0
   20.6217  -12.0047  -15.4009 O   0  0  0  0  0  0  0  0  0  0  0  0
   26.3558  -12.0260  -16.7959 N   0  0  0  0  0  0  0  0  0  0  0  0
   26.4803  -11.0142  -15.8273 C   0  0  0  0  0  0  0  0  0  0  0  0
   27.5813  -10.7395  -15.3338 O   0  0  0  0  0  0  0  0  0  0  0  0
   25.2681  -10.2775  -15.4032 C   0  0  0  0  0  0  0  0  0  0  0  0
   24.1119  -10.8277  -16.1449 C   0  0  0  0  0  0  0  0  0  0  0  0
   22.7659  -10.2384  -15.8783 C   0  0  2  0  0  0  0  0  0  0  0  0
   21.9061  -10.8713  -16.9108 N   0  0  0  0  0  0  0  0  0  0  0  0
   22.6532   -8.7865  -16.0934 C   0  0  0  0  0  0  0  0  0  0  0  0
   22.6426   -8.3170  -17.2846 O   0  0  0  0  0  0  0  0  0  0  0  0
   21.4865   -3.8905  -15.7734 N   0  0  0  0  0  0  0  0  0  0  0  0
   20.6681   -4.9178  -16.3130 C   0  0  0  0  0  0  0  0  0  0  0  0
   19.6700   -4.6139  -17.0167 O   0  0  0  0  0  0  0  0  0  0  0  0
   20.9729   -6.3462  -16.0597 C   0  0  0  0  0  0  0  0  0  0  0  0
   22.2839   -6.4220  -15.3126 C   0  0  2  0  0  0  0  0  0  0  0  0
   22.5490   -7.8388  -15.0397 N   0  0  0  0  0  0  0  0  0  0  0  0
   22.1223   -5.7124  -14.0196 C   0  0  0  0  0  0  0  0  0  0  0  0
   22.0726   -6.3869  -12.8190 O   0  0  0  0  0  0  0  0  0  0  0  0
   22.0233   -4.4544  -13.9614 O   0  0  0  0  0  0  0  0  0  0  0  0
  2  1  1  1
  2  9  1  0
  3  4  1  0
  3  2  1  0
  4  8  1  0
  5  4  2  0
  5  6  1  0
  6  7  1  0
  8  7  2  0
  9 10  2  0
 12 11  1  0
 13 12  2  0
 14 12  1  0
 15 14  1  0
 16 15  1  6
 17  9  1  0
 17 16  1  0
 18 16  1  0
 18 19  2  0
 20 21  1  0
 21 22  2  0
 23 21  1  0
 24 23  1  6
 24 25  1  0
 25 18  1  0
 26 27  1  0
 26 24  1  0
 28 26  2  0
M  END
$$$$
