HQN.pdb
     RDKit          3D

 28 28  0  0  1  0  0  0  0  0999 V2000
   26.4317  -22.0688  -16.5662 N   0  0  0  0  0  0  0  0  0  0  0  0
   27.1256  -21.0304  -15.9090 C   0  0  1  0  0  0  0  0  0  0  0  0
   28.1209  -20.4305  -16.9030 C   0  0  0  0  0  0  0  0  0  0  0  0
   29.0127  -21.5343  -17.3454 C   0  0  0  0  0  0  0  0  0  0  0  0
   29.3466  -22.6660  -16.5959 C   0  0  0  0  0  0  0  0  0  0  0  0
   30.1693  -23.4153  -17.3442 N   0  0  0  0  0  0  0  0  0  0  0  0
   30.3549  -22.7882  -18.5263 C   0  0  0  0  0  0  0  0  0  0  0  0
   29.6550  -21.6584  -18.5165 N   0  0  0  0  0  0  0  0  0  0  0  0
   26.1724  -20.0030  -15.4138 C   0  0  0  0  0  0  0  0  0  0  0  0
   26.5657  -18.9152  -14.9126 O   0  0  0  0  0  0  0  0  0  0  0  0
   23.1722  -17.4078  -18.3707 N   0  0  0  0  0  0  0  0  0  0  0  0
   22.6990  -16.6089  -17.3146 C   0  0  0  0  0  0  0  0  0  0  0  0
   21.9256  -15.6669  -17.5282 O   0  0  0  0  0  0  0  0  0  0  0  0
   23.1417  -16.9123  -15.9348 C   0  0  0  0  0  0  0  0  0  0  0  0
   24.0594  -18.0718  -15.9902 C   0  0  0  0  0  0  0  0  0  0  0  0
   23.7709  -19.2347  -15.0988 C   0  0  2  0  0  0  0  0  0  0  0  0
   24.7954  -20.2330  -15.4985 N   0  0  0  0  0  0  0  0  0  0  0  0
   22.4680  -19.8877  -15.3065 C   0  0  0  0  0  0  0  0  0  0  0  0
   22.4184  -21.0755  -15.7821 O   0  0  0  0  0  0  0  0  0  0  0  0
   19.2767  -22.8612  -12.9986 N   0  0  0  0  0  0  0  0  0  0  0  0
   19.3599  -21.4784  -12.6869 C   0  0  0  0  0  0  0  0  0  0  0  0
   18.4667  -20.9448  -11.9789 O   0  0  0  0  0  0  0  0  0  0  0  0
   20.4858  -20.6521  -13.1838 C   0  0  0  0  0  0  0  0  0  0  0  0
   20.0845  -20.0626  -14.5157 C   0  0  2  0  0  0  0  0  0  0  0  0
   21.2217  -19.2753  -15.0046 N   0  0  0  0  0  0  0  0  0  0  0  0
   18.9370  -19.1491  -14.2916 C   0  0  0  0  0  0  0  0  0  0  0  0
   19.0944  -17.9099  -13.7096 O   0  0  0  0  0  0  0  0  0  0  0  0
   17.7610  -19.4673  -14.6255 O   0  0  0  0  0  0  0  0  0  0  0  0
  2  1  1  6
  2  9  1  0
  3  4  1  0
  3  2  1  0
  4  8  1  0
  5  4  2  0
  5  6  1  0
  6  7  1  0
  8  7  2  0
  9 10  2  0
 12 11  1  0
 13 12  2  0
 14 12  1  0
 15 14  1  0
 16 15  1  6
 17  9  1  0
 17 16  1  0
 18 16  1  0
 18 19  2  0
 20 21  1  0
 21 22  2  0
 23 21  1  0
 24 23  1  1
 24 25  1  0
 25 18  1  0
 26 27  1  0
 26 24  1  0
 28 26  2  0
M  END
$$$$
