HQN.pdb
     RDKit          3D

 28 28  0  0  1  0  0  0  0  0999 V2000
   25.3697  -14.5696  -18.5638 N   0  0  0  0  0  0  0  0  0  0  0  0
   25.3211  -13.1861  -18.8382 C   0  0  1  0  0  0  0  0  0  0  0  0
   23.8578  -12.7470  -18.7720 C   0  0  0  0  0  0  0  0  0  0  0  0
   23.1505  -13.4201  -19.8928 C   0  0  0  0  0  0  0  0  0  0  0  0
   23.3973  -13.2185  -21.2539 C   0  0  0  0  0  0  0  0  0  0  0  0
   22.5543  -14.0071  -21.9362 N   0  0  0  0  0  0  0  0  0  0  0  0
   21.7975  -14.6867  -21.0473 C   0  0  0  0  0  0  0  0  0  0  0  0
   22.1642  -14.3264  -19.8217 N   0  0  0  0  0  0  0  0  0  0  0  0
   26.1540  -12.4352  -17.8627 C   0  0  0  0  0  0  0  0  0  0  0  0
   26.1089  -12.6729  -16.6254 O   0  0  0  0  0  0  0  0  0  0  0  0
   31.4656  -11.6448  -18.8775 N   0  0  0  0  0  0  0  0  0  0  0  0
   31.5564  -10.4601  -18.1253 C   0  0  0  0  0  0  0  0  0  0  0  0
   32.6561  -10.0081  -17.7827 O   0  0  0  0  0  0  0  0  0  0  0  0
   30.3100   -9.7566  -17.7464 C   0  0  0  0  0  0  0  0  0  0  0  0
   29.1666  -10.5151  -18.3003 C   0  0  0  0  0  0  0  0  0  0  0  0
   27.9702  -10.7118  -17.4285 C   0  0  2  0  0  0  0  0  0  0  0  0
   27.0187  -11.4321  -18.3127 N   0  0  0  0  0  0  0  0  0  0  0  0
   27.2794   -9.4814  -17.0090 C   0  0  0  0  0  0  0  0  0  0  0  0
   27.8661   -8.6560  -16.2253 O   0  0  0  0  0  0  0  0  0  0  0  0
   24.0596   -5.6231  -16.2854 N   0  0  0  0  0  0  0  0  0  0  0  0
   24.1295   -5.9293  -17.6702 C   0  0  0  0  0  0  0  0  0  0  0  0
   23.6054   -5.1497  -18.5076 O   0  0  0  0  0  0  0  0  0  0  0  0
   24.8125   -7.1561  -18.1454 C   0  0  0  0  0  0  0  0  0  0  0  0
   25.3101   -7.9151  -16.9375 C   0  0  2  0  0  0  0  0  0  0  0  0
   25.9671   -9.1318  -17.4272 N   0  0  0  0  0  0  0  0  0  0  0  0
   24.1355   -8.3069  -16.1199 C   0  0  0  0  0  0  0  0  0  0  0  0
   23.8185   -9.6273  -15.8849 O   0  0  0  0  0  0  0  0  0  0  0  0
   23.3716   -7.4451  -15.6008 O   0  0  0  0  0  0  0  0  0  0  0  0
  2  1  1  1
  2  9  1  0
  3  4  1  0
  3  2  1  0
  4  8  1  0
  5  4  2  0
  5  6  1  0
  6  7  1  0
  8  7  2  0
  9 10  2  0
 12 11  1  0
 13 12  2  0
 14 12  1  0
 15 14  1  0
 16 15  1  6
 17  9  1  0
 17 16  1  0
 18 16  1  0
 18 19  2  0
 20 21  1  0
 21 22  2  0
 23 21  1  0
 24 23  1  6
 24 25  1  0
 25 18  1  0
 26 27  1  0
 26 24  1  0
 28 26  2  0
M  END
$$$$
