HQN.pdb
     RDKit          3D

 28 28  0  0  1  0  0  0  0  0999 V2000
   19.0503  -14.1109  -17.8059 N   0  0  0  0  0  0  0  0  0  0  0  0
   20.0861  -13.1632  -17.9498 C   0  0  1  0  0  0  0  0  0  0  0  0
   20.9211  -13.5639  -19.1666 C   0  0  0  0  0  0  0  0  0  0  0  0
   21.4891  -14.9075  -18.8811 C   0  0  0  0  0  0  0  0  0  0  0  0
   21.5302  -15.5286  -17.6295 C   0  0  0  0  0  0  0  0  0  0  0  0
   22.1183  -16.7226  -17.7924 N   0  0  0  0  0  0  0  0  0  0  0  0
   22.4411  -16.8607  -19.0969 C   0  0  0  0  0  0  0  0  0  0  0  0
   22.0583  -15.7639  -19.7424 N   0  0  0  0  0  0  0  0  0  0  0  0
   19.5203  -11.7980  -18.1101 C   0  0  0  0  0  0  0  0  0  0  0  0
   18.6689  -11.5295  -19.0001 O   0  0  0  0  0  0  0  0  0  0  0  0
   15.6119   -8.4256  -16.6744 N   0  0  0  0  0  0  0  0  0  0  0  0
   16.1478   -9.1259  -15.5790 C   0  0  0  0  0  0  0  0  0  0  0  0
   15.5468   -9.1704  -14.4983 O   0  0  0  0  0  0  0  0  0  0  0  0
   17.4492   -9.8136  -15.7377 C   0  0  0  0  0  0  0  0  0  0  0  0
   17.9304   -9.5759  -17.1167 C   0  0  0  0  0  0  0  0  0  0  0  0
   19.3973   -9.3854  -17.3220 C   0  0  2  0  0  0  0  0  0  0  0  0
   19.9332  -10.7691  -17.2573 N   0  0  0  0  0  0  0  0  0  0  0  0
   20.0949   -8.6324  -16.2668 C   0  0  0  0  0  0  0  0  0  0  0  0
   20.4128   -9.2145  -15.1715 O   0  0  0  0  0  0  0  0  0  0  0  0
   22.7111   -3.1865  -14.9348 N   0  0  0  0  0  0  0  0  0  0  0  0
   22.3986   -4.5615  -14.7673 C   0  0  0  0  0  0  0  0  0  0  0  0
   22.6236   -5.1213  -13.6629 O   0  0  0  0  0  0  0  0  0  0  0  0
   21.8096   -5.3491  -15.8764 C   0  0  0  0  0  0  0  0  0  0  0  0
   21.1184   -6.5540  -15.2821 C   0  0  2  0  0  0  0  0  0  0  0  0
   20.4546   -7.2625  -16.3818 N   0  0  0  0  0  0  0  0  0  0  0  0
   20.0830   -6.0738  -14.3341 C   0  0  0  0  0  0  0  0  0  0  0  0
   18.8329   -5.6786  -14.7585 O   0  0  0  0  0  0  0  0  0  0  0  0
   20.3016   -6.0059  -13.0917 O   0  0  0  0  0  0  0  0  0  0  0  0
  2  1  1  6
  2  9  1  0
  3  4  1  0
  3  2  1  0
  4  8  1  0
  5  4  2  0
  5  6  1  0
  6  7  1  0
  8  7  2  0
  9 10  2  0
 12 11  1  0
 13 12  2  0
 14 12  1  0
 15 14  1  0
 16 15  1  1
 17  9  1  0
 17 16  1  0
 18 16  1  0
 18 19  2  0
 20 21  1  0
 21 22  2  0
 23 21  1  0
 24 23  1  6
 24 25  1  0
 25 18  1  0
 26 27  1  0
 26 24  1  0
 28 26  2  0
M  END
$$$$
