HQN.pdb
     RDKit          3D

 28 28  0  0  1  0  0  0  0  0999 V2000
   27.3765  -21.3445  -16.8973 N   0  0  0  0  0  0  0  0  0  0  0  0
   26.1572  -21.7068  -16.2860 C   0  0  1  0  0  0  0  0  0  0  0  0
   26.4782  -22.6440  -15.1211 C   0  0  0  0  0  0  0  0  0  0  0  0
   27.0659  -23.8782  -15.7049 C   0  0  0  0  0  0  0  0  0  0  0  0
   26.3481  -24.9748  -16.1909 C   0  0  0  0  0  0  0  0  0  0  0  0
   27.2391  -25.8763  -16.6286 N   0  0  0  0  0  0  0  0  0  0  0  0
   28.4785  -25.3768  -16.4306 C   0  0  0  0  0  0  0  0  0  0  0  0
   28.3629  -24.1751  -15.8749 N   0  0  0  0  0  0  0  0  0  0  0  0
   25.4318  -20.4961  -15.8197 C   0  0  0  0  0  0  0  0  0  0  0  0
   25.9654  -19.6558  -15.0461 O   0  0  0  0  0  0  0  0  0  0  0  0
   23.6498  -16.8420  -19.2693 N   0  0  0  0  0  0  0  0  0  0  0  0
   22.8542  -16.2241  -18.2880 C   0  0  0  0  0  0  0  0  0  0  0  0
   22.3284  -15.1237  -18.4972 O   0  0  0  0  0  0  0  0  0  0  0  0
   22.6531  -16.9127  -16.9929 C   0  0  0  0  0  0  0  0  0  0  0  0
   23.4181  -18.1791  -17.0212 C   0  0  0  0  0  0  0  0  0  0  0  0
   23.3215  -19.0806  -15.8347 C   0  0  2  0  0  0  0  0  0  0  0  0
   24.1182  -20.2663  -16.2415 N   0  0  0  0  0  0  0  0  0  0  0  0
   21.9734  -19.5859  -15.5276 C   0  0  0  0  0  0  0  0  0  0  0  0
   21.4470  -20.4893  -16.2668 O   0  0  0  0  0  0  0  0  0  0  0  0
   20.1853  -22.0776  -13.3521 N   0  0  0  0  0  0  0  0  0  0  0  0
   19.8509  -21.1016  -12.3764 C   0  0  0  0  0  0  0  0  0  0  0  0
   19.7992  -21.4275  -11.1619 O   0  0  0  0  0  0  0  0  0  0  0  0
   19.5616  -19.7015  -12.7678 C   0  0  0  0  0  0  0  0  0  0  0  0
   19.8024  -19.5692  -14.2534 C   0  0  2  0  0  0  0  0  0  0  0  0
   21.1905  -19.1300  -14.4328 N   0  0  0  0  0  0  0  0  0  0  0  0
   18.9000  -18.5142  -14.7773 C   0  0  0  0  0  0  0  0  0  0  0  0
   19.1900  -17.1738  -14.6425 O   0  0  0  0  0  0  0  0  0  0  0  0
   17.8226  -18.7986  -15.3723 O   0  0  0  0  0  0  0  0  0  0  0  0
  2  1  1  1
  2  9  1  0
  3  4  1  0
  3  2  1  0
  4  8  1  0
  5  4  2  0
  5  6  1  0
  6  7  1  0
  8  7  2  0
  9 10  2  0
 12 11  1  0
 13 12  2  0
 14 12  1  0
 15 14  1  0
 16 15  1  6
 17  9  1  0
 17 16  1  0
 18 16  1  0
 18 19  2  0
 20 21  1  0
 21 22  2  0
 23 21  1  0
 24 23  1  1
 24 25  1  0
 25 18  1  0
 26 27  1  0
 26 24  1  0
 28 26  2  0
M  END
$$$$
