HQN.pdb
     RDKit          3D

 28 28  0  0  1  0  0  0  0  0999 V2000
   24.5034  -11.3394  -17.9241 N   0  0  0  0  0  0  0  0  0  0  0  0
   24.1032  -10.4341  -16.9181 C   0  0  1  0  0  0  0  0  0  0  0  0
   25.2582   -9.4611  -16.6781 C   0  0  0  0  0  0  0  0  0  0  0  0
   26.3890  -10.2549  -16.1299 C   0  0  0  0  0  0  0  0  0  0  0  0
   26.3895  -11.6360  -15.9139 C   0  0  0  0  0  0  0  0  0  0  0  0
   27.5889  -11.9639  -15.4119 N   0  0  0  0  0  0  0  0  0  0  0  0
   28.3274  -10.8373  -15.3103 C   0  0  0  0  0  0  0  0  0  0  0  0
   27.5966   -9.8158  -15.7448 N   0  0  0  0  0  0  0  0  0  0  0  0
   22.8692   -9.7150  -17.3297 C   0  0  0  0  0  0  0  0  0  0  0  0
   22.7392   -9.2194  -18.4816 O   0  0  0  0  0  0  0  0  0  0  0  0
   17.9921  -11.7466  -15.0624 N   0  0  0  0  0  0  0  0  0  0  0  0
   17.3077  -10.6248  -15.5631 C   0  0  0  0  0  0  0  0  0  0  0  0
   16.0747  -10.5490  -15.4910 O   0  0  0  0  0  0  0  0  0  0  0  0
   18.0875   -9.5289  -16.1815 C   0  0  0  0  0  0  0  0  0  0  0  0
   19.5150   -9.9186  -16.1743 C   0  0  0  0  0  0  0  0  0  0  0  0
   20.5000   -8.9761  -16.7839 C   0  0  2  0  0  0  0  0  0  0  0  0
   21.8112   -9.5745  -16.4256 N   0  0  0  0  0  0  0  0  0  0  0  0
   20.5100   -7.6154  -16.2224 C   0  0  0  0  0  0  0  0  0  0  0  0
   20.9683   -7.4150  -15.0436 O   0  0  0  0  0  0  0  0  0  0  0  0
   19.9104   -2.6391  -15.3215 N   0  0  0  0  0  0  0  0  0  0  0  0
   19.8788   -2.7789  -16.7343 C   0  0  0  0  0  0  0  0  0  0  0  0
   19.8099   -1.7531  -17.4601 O   0  0  0  0  0  0  0  0  0  0  0  0
   19.9261   -4.1179  -17.3683 C   0  0  0  0  0  0  0  0  0  0  0  0
   19.9753   -5.1560  -16.2716 C   0  0  2  0  0  0  0  0  0  0  0  0
   20.0348   -6.4713  -16.9185 N   0  0  0  0  0  0  0  0  0  0  0  0
   18.7156   -5.0674  -15.4925 C   0  0  0  0  0  0  0  0  0  0  0  0
   18.6852   -4.5622  -14.2108 O   0  0  0  0  0  0  0  0  0  0  0  0
   17.6116   -5.4520  -15.9709 O   0  0  0  0  0  0  0  0  0  0  0  0
  2  1  1  6
  2  9  1  0
  3  4  1  0
  3  2  1  0
  4  8  1  0
  5  4  2  0
  5  6  1  0
  6  7  1  0
  8  7  2  0
  9 10  2  0
 12 11  1  0
 13 12  2  0
 14 12  1  0
 15 14  1  0
 16 15  1  1
 17  9  1  0
 17 16  1  0
 18 16  1  0
 18 19  2  0
 20 21  1  0
 21 22  2  0
 23 21  1  0
 24 23  1  6
 24 25  1  0
 25 18  1  0
 26 27  1  0
 26 24  1  0
 28 26  2  0
M  END
$$$$
