MNS.pdb
     RDKit          3D

 23 22  0  0  1  0  0  0  0  0999 V2000
    7.7780  -10.9152   26.3469 C   0  0  0  0  0  0  0  0  0  0  0  0
    6.4295  -12.0634   26.6165 S   0  0  0  0  0  0  0  0  0  0  0  0
    6.0508  -13.1889   25.3047 C   0  0  0  0  0  0  0  0  0  0  0  0
    6.6841  -14.5141   25.2641 C   0  0  0  0  0  0  0  0  0  0  0  0
    8.0482  -14.5639   24.7166 C   0  0  2  0  0  0  0  0  0  0  0  0
    8.0950  -14.1131   23.3578 N   0  0  0  0  0  0  0  0  0  0  0  0
    8.6724  -15.9271   24.8565 C   0  0  0  0  0  0  0  0  0  0  0  0
    8.2665  -16.7413   25.6896 O   0  0  0  0  0  0  0  0  0  0  0  0
    9.6322  -18.1207   21.3230 N   0  0  0  0  0  0  0  0  0  0  0  0
   10.9205  -17.5642   21.6219 C   0  0  0  0  0  0  0  0  0  0  0  0
   11.5540  -17.0132   20.6990 O   0  0  0  0  0  0  0  0  0  0  0  0
   11.4914  -17.6330   22.9713 C   0  0  0  0  0  0  0  0  0  0  0  0
   10.4599  -17.5206   24.0265 C   0  0  2  0  0  0  0  0  0  0  0  0
    9.7513  -16.2535   23.9956 N   0  0  0  0  0  0  0  0  0  0  0  0
   11.0007  -17.7186   25.3814 C   0  0  0  0  0  0  0  0  0  0  0  0
   11.7453  -16.9045   25.9438 O   0  0  0  0  0  0  0  0  0  0  0  0
    9.0152  -19.5431   28.2967 O   0  0  0  0  0  0  0  0  0  0  0  0
   10.2738  -20.1072   28.1838 C   0  0  0  0  0  0  0  0  0  0  0  0
   11.2088  -19.1645   27.4497 C   0  0  2  0  0  0  0  0  0  0  0  0
   10.6669  -18.9186   26.1303 N   0  0  0  0  0  0  0  0  0  0  0  0
   12.5872  -19.6565   27.4078 C   0  0  0  0  0  0  0  0  0  0  0  0
   13.1333  -19.8569   26.2944 O   0  0  0  0  0  0  0  0  0  0  0  0
   13.3159  -19.9109   28.5552 O   0  0  0  0  0  0  0  0  0  0  0  0
  1  2  1  0
  3  2  1  0
  4  3  1  0
  5  4  1  0
  5  6  1  6
  7  5  1  0
  8  7  2  0
  9 10  1  0
 10 12  1  0
 11 10  2  0
 13 12  1  6
 13 15  1  0
 13 14  1  0
 14  7  1  0
 15 20  1  0
 16 15  2  0
 19 18  1  6
 18 17  1  0
 19 21  1  0
 20 19  1  0
 21 22  2  0
 21 23  1  0
M  END
$$$$
