MNS.pdb
     RDKit          3D

 23 22  0  0  1  0  0  0  0  0999 V2000
    7.1310  -12.2937   27.3008 C   0  0  0  0  0  0  0  0  0  0  0  0
    6.8697  -11.4291   25.7537 S   0  0  0  0  0  0  0  0  0  0  0  0
    6.9906  -12.3789   24.2657 C   0  0  0  0  0  0  0  0  0  0  0  0
    7.6047  -13.7135   24.2906 C   0  0  0  0  0  0  0  0  0  0  0  0
    7.6725  -14.4198   23.0024 C   0  0  2  0  0  0  0  0  0  0  0  0
    6.3875  -14.5135   22.3765 N   0  0  0  0  0  0  0  0  0  0  0  0
    8.3149  -15.7762   23.1256 C   0  0  0  0  0  0  0  0  0  0  0  0
    7.6656  -16.7709   23.4584 O   0  0  0  0  0  0  0  0  0  0  0  0
   10.8837  -16.8083   19.3871 N   0  0  0  0  0  0  0  0  0  0  0  0
   10.6357  -17.5872   20.5664 C   0  0  0  0  0  0  0  0  0  0  0  0
    9.7740  -18.4877   20.5085 O   0  0  0  0  0  0  0  0  0  0  0  0
   11.3672  -17.3439   21.8143 C   0  0  0  0  0  0  0  0  0  0  0  0
   10.4627  -17.1117   22.9622 C   0  0  2  0  0  0  0  0  0  0  0  0
    9.7014  -15.8806   22.8457 N   0  0  0  0  0  0  0  0  0  0  0  0
   11.1665  -17.1031   24.2553 C   0  0  0  0  0  0  0  0  0  0  0  0
   12.0427  -16.2788   24.5489 O   0  0  0  0  0  0  0  0  0  0  0  0
    9.9300  -18.8760   27.7938 O   0  0  0  0  0  0  0  0  0  0  0  0
   11.0930  -19.4089   27.2661 C   0  0  0  0  0  0  0  0  0  0  0  0
   11.7602  -18.4058   26.3439 C   0  0  2  0  0  0  0  0  0  0  0  0
   10.8452  -18.0972   25.2656 N   0  0  0  0  0  0  0  0  0  0  0  0
   13.0637  -18.8645   25.8602 C   0  0  0  0  0  0  0  0  0  0  0  0
   14.1064  -18.4681   26.4378 O   0  0  0  0  0  0  0  0  0  0  0  0
   13.1918  -19.7235   24.7840 O   0  0  0  0  0  0  0  0  0  0  0  0
  1  2  1  0
  3  2  1  0
  4  3  1  0
  5  4  1  0
  5  6  1  1
  7  5  1  0
  8  7  2  0
  9 10  1  0
 10 12  1  0
 11 10  2  0
 13 12  1  6
 13 15  1  0
 13 14  1  0
 14  7  1  0
 15 20  1  0
 16 15  2  0
 19 18  1  1
 18 17  1  0
 19 21  1  0
 20 19  1  0
 21 22  2  0
 21 23  1  0
M  END
$$$$
