MNS.pdb
     RDKit          3D

 23 22  0  0  1  0  0  0  0  0999 V2000
    7.1320  -10.7431   26.7292 C   0  0  0  0  0  0  0  0  0  0  0  0
    6.5821  -12.2311   27.5615 S   0  0  0  0  0  0  0  0  0  0  0  0
    6.0687  -13.5845   26.5439 C   0  0  0  0  0  0  0  0  0  0  0  0
    7.0243  -14.2226   25.6282 C   0  0  0  0  0  0  0  0  0  0  0  0
    6.4831  -15.2793   24.7600 C   0  0  2  0  0  0  0  0  0  0  0  0
    5.9387  -16.3662   25.5176 N   0  0  0  0  0  0  0  0  0  0  0  0
    7.4936  -15.7707   23.7575 C   0  0  0  0  0  0  0  0  0  0  0  0
    7.9416  -16.9193   23.8014 O   0  0  0  0  0  0  0  0  0  0  0  0
    7.2980  -12.7389   19.5190 N   0  0  0  0  0  0  0  0  0  0  0  0
    7.8670  -14.0161   19.8416 C   0  0  0  0  0  0  0  0  0  0  0  0
    7.3322  -15.0377   19.3652 O   0  0  0  0  0  0  0  0  0  0  0  0
    9.0456  -14.1343   20.7067 C   0  0  0  0  0  0  0  0  0  0  0  0
    8.8940  -15.1980   21.7242 C   0  0  2  0  0  0  0  0  0  0  0  0
    7.9211  -14.8680   22.7505 N   0  0  0  0  0  0  0  0  0  0  0  0
   10.1636  -15.5487   22.3818 C   0  0  0  0  0  0  0  0  0  0  0  0
   10.7905  -14.7700   23.1127 O   0  0  0  0  0  0  0  0  0  0  0  0
   11.1926  -19.4794   22.6178 O   0  0  0  0  0  0  0  0  0  0  0  0
   11.8050  -18.5920   23.4853 C   0  0  0  0  0  0  0  0  0  0  0  0
   11.9936  -17.2449   22.8133 C   0  0  2  0  0  0  0  0  0  0  0  0
   10.7441  -16.8670   22.1880 N   0  0  0  0  0  0  0  0  0  0  0  0
   13.1168  -17.2354   21.8742 C   0  0  0  0  0  0  0  0  0  0  0  0
   14.2733  -17.4805   22.2988 O   0  0  0  0  0  0  0  0  0  0  0  0
   12.9519  -16.9649   20.5281 O   0  0  0  0  0  0  0  0  0  0  0  0
  1  2  1  0
  3  2  1  0
  4  3  1  0
  5  4  1  0
  5  6  1  1
  7  5  1  0
  8  7  2  0
  9 10  1  0
 10 12  1  0
 11 10  2  0
 13 12  1  6
 13 15  1  0
 13 14  1  0
 14  7  1  0
 15 20  1  0
 16 15  2  0
 19 18  1  6
 18 17  1  0
 19 21  1  0
 20 19  1  0
 21 22  2  0
 21 23  1  0
M  END
$$$$
