MNS.pdb
     RDKit          3D

 23 22  0  0  1  0  0  0  0  0999 V2000
    5.0716  -12.1034   26.8308 C   0  0  0  0  0  0  0  0  0  0  0  0
    6.5611  -11.3308   26.2031 S   0  0  0  0  0  0  0  0  0  0  0  0
    7.6899  -12.3581   25.3080 C   0  0  0  0  0  0  0  0  0  0  0  0
    7.2196  -13.6041   24.6874 C   0  0  0  0  0  0  0  0  0  0  0  0
    7.7289  -14.8528   25.2743 C   0  0  2  0  0  0  0  0  0  0  0  0
    8.5617  -14.6068   26.4134 N   0  0  0  0  0  0  0  0  0  0  0  0
    8.4366  -15.7148   24.2624 C   0  0  0  0  0  0  0  0  0  0  0  0
    7.8342  -16.2266   23.3154 O   0  0  0  0  0  0  0  0  0  0  0  0
   10.9348  -16.7689   20.3203 N   0  0  0  0  0  0  0  0  0  0  0  0
   11.6245  -17.1664   21.5141 C   0  0  0  0  0  0  0  0  0  0  0  0
   12.3018  -18.2138   21.4835 O   0  0  0  0  0  0  0  0  0  0  0  0
   11.5456  -16.3736   22.7457 C   0  0  0  0  0  0  0  0  0  0  0  0
   10.5879  -16.9405   23.7210 C   0  0  2  0  0  0  0  0  0  0  0  0
    9.8294  -15.9245   24.4290 N   0  0  0  0  0  0  0  0  0  0  0  0
   11.2306  -17.8176   24.7135 C   0  0  0  0  0  0  0  0  0  0  0  0
   12.0912  -18.6594   24.4232 O   0  0  0  0  0  0  0  0  0  0  0  0
   11.7985  -18.7808   29.4572 O   0  0  0  0  0  0  0  0  0  0  0  0
   11.2933  -17.9513   28.4714 C   0  0  0  0  0  0  0  0  0  0  0  0
   11.4279  -18.6088   27.1107 C   0  0  2  0  0  0  0  0  0  0  0  0
   10.8633  -17.7214   26.1163 N   0  0  0  0  0  0  0  0  0  0  0  0
   10.8356  -19.9472   27.0699 C   0  0  0  0  0  0  0  0  0  0  0  0
   11.3262  -20.8570   27.7837 O   0  0  0  0  0  0  0  0  0  0  0  0
    9.7490  -20.2500   26.2699 O   0  0  0  0  0  0  0  0  0  0  0  0
  1  2  1  0
  3  2  1  0
  4  3  1  0
  5  4  1  0
  5  6  1  1
  7  5  1  0
  8  7  2  0
  9 10  1  0
 10 12  1  0
 11 10  2  0
 13 12  1  1
 13 15  1  0
 13 14  1  0
 14  7  1  0
 15 20  1  0
 16 15  2  0
 19 18  1  1
 18 17  1  0
 19 21  1  0
 20 19  1  0
 21 22  2  0
 21 23  1  0
M  END
$$$$
