MNS.pdb
     RDKit          3D

 23 22  0  0  1  0  0  0  0  0999 V2000
    8.0363  -11.5235   20.4400 C   0  0  0  0  0  0  0  0  0  0  0  0
    7.0952  -12.5431   19.3067 S   0  0  0  0  0  0  0  0  0  0  0  0
    7.5148  -14.2601   19.2244 C   0  0  0  0  0  0  0  0  0  0  0  0
    8.1943  -14.9082   20.3544 C   0  0  0  0  0  0  0  0  0  0  0  0
    8.5769  -16.3150   20.1600 C   0  0  2  0  0  0  0  0  0  0  0  0
    7.5015  -17.0910   19.6189 N   0  0  0  0  0  0  0  0  0  0  0  0
    9.1166  -16.9412   21.4187 C   0  0  0  0  0  0  0  0  0  0  0  0
    8.4877  -17.8088   22.0298 O   0  0  0  0  0  0  0  0  0  0  0  0
   13.6532  -18.6945   21.8412 N   0  0  0  0  0  0  0  0  0  0  0  0
   13.2183  -17.3276   21.8788 C   0  0  0  0  0  0  0  0  0  0  0  0
   13.4505  -16.6069   20.8872 O   0  0  0  0  0  0  0  0  0  0  0  0
   12.5181  -16.7772   23.0443 C   0  0  0  0  0  0  0  0  0  0  0  0
   11.0699  -17.0810   23.0275 C   0  0  2  0  0  0  0  0  0  0  0  0
   10.3811  -16.5022   21.8878 N   0  0  0  0  0  0  0  0  0  0  0  0
   10.3792  -16.6532   24.2553 C   0  0  0  0  0  0  0  0  0  0  0  0
   10.5800  -15.5620   24.8053 O   0  0  0  0  0  0  0  0  0  0  0  0
    6.9443  -18.5882   25.7209 O   0  0  0  0  0  0  0  0  0  0  0  0
    7.3316  -17.3105   26.0846 C   0  0  0  0  0  0  0  0  0  0  0  0
    8.8432  -17.2275   26.1848 C   0  0  2  0  0  0  0  0  0  0  0  0
    9.4047  -17.5284   24.8850 N   0  0  0  0  0  0  0  0  0  0  0  0
    9.3862  -18.0820   27.2424 C   0  0  0  0  0  0  0  0  0  0  0  0
    8.9841  -17.9279   28.4225 O   0  0  0  0  0  0  0  0  0  0  0  0
   10.3315  -19.0593   26.9901 O   0  0  0  0  0  0  0  0  0  0  0  0
  1  2  1  0
  3  2  1  0
  4  3  1  0
  5  4  1  0
  5  6  1  1
  7  5  1  0
  8  7  2  0
  9 10  1  0
 10 12  1  0
 11 10  2  0
 13 12  1  1
 13 15  1  0
 13 14  1  0
 14  7  1  0
 15 20  1  0
 16 15  2  0
 19 18  1  6
 18 17  1  0
 19 21  1  0
 20 19  1  0
 21 22  2  0
 21 23  1  0
M  END
$$$$
