MNS.pdb
     RDKit          3D

 23 22  0  0  1  0  0  0  0  0999 V2000
    7.5274  -11.4891   20.3340 C   0  0  0  0  0  0  0  0  0  0  0  0
    7.4853  -13.0555   19.4657 S   0  0  0  0  0  0  0  0  0  0  0  0
    8.1769  -14.4581   20.2935 C   0  0  0  0  0  0  0  0  0  0  0  0
    8.6395  -14.3402   21.6831 C   0  0  0  0  0  0  0  0  0  0  0  0
    9.2478  -15.5448   22.2680 C   0  0  2  0  0  0  0  0  0  0  0  0
    9.7875  -16.4119   21.2637 N   0  0  0  0  0  0  0  0  0  0  0  0
    8.2970  -16.2866   23.1698 C   0  0  0  0  0  0  0  0  0  0  0  0
    7.5637  -15.6927   23.9643 O   0  0  0  0  0  0  0  0  0  0  0  0
    4.5470  -20.6960   23.0944 N   0  0  0  0  0  0  0  0  0  0  0  0
    5.7366  -20.3402   23.8134 C   0  0  0  0  0  0  0  0  0  0  0  0
    5.7788  -20.5756   25.0380 O   0  0  0  0  0  0  0  0  0  0  0  0
    6.8813  -19.7159   23.1414 C   0  0  0  0  0  0  0  0  0  0  0  0
    7.4036  -18.5479   23.8850 C   0  0  2  0  0  0  0  0  0  0  0  0
    8.2669  -17.7018   23.0804 N   0  0  0  0  0  0  0  0  0  0  0  0
    8.1303  -18.9246   25.1087 C   0  0  0  0  0  0  0  0  0  0  0  0
    7.6011  -19.5111   26.0624 O   0  0  0  0  0  0  0  0  0  0  0  0
    9.8867  -16.9832   28.4654 O   0  0  0  0  0  0  0  0  0  0  0  0
    9.4177  -17.1886   27.1797 C   0  0  0  0  0  0  0  0  0  0  0  0
   10.1434  -18.3547   26.5351 C   0  0  2  0  0  0  0  0  0  0  0  0
    9.5426  -18.6091   25.2430 N   0  0  0  0  0  0  0  0  0  0  0  0
   10.1670  -19.5450   27.3873 C   0  0  0  0  0  0  0  0  0  0  0  0
    9.4141  -20.5119   27.1114 O   0  0  0  0  0  0  0  0  0  0  0  0
   10.9924  -19.6461   28.4923 O   0  0  0  0  0  0  0  0  0  0  0  0
  1  2  1  0
  3  2  1  0
  4  3  1  0
  5  4  1  0
  5  6  1  6
  7  5  1  0
  8  7  2  0
  9 10  1  0
 10 12  1  0
 11 10  2  0
 13 12  1  6
 13 15  1  0
 13 14  1  0
 14  7  1  0
 15 20  1  0
 16 15  2  0
 19 18  1  1
 18 17  1  0
 19 21  1  0
 20 19  1  0
 21 22  2  0
 21 23  1  0
M  END
$$$$
