MNS.pdb
     RDKit          3D

 23 22  0  0  1  0  0  0  0  0999 V2000
    7.3747  -11.4325   20.1001 C   0  0  0  0  0  0  0  0  0  0  0  0
    7.1709  -13.0464   19.3495 S   0  0  0  0  0  0  0  0  0  0  0  0
    7.9952  -14.4080   20.1224 C   0  0  0  0  0  0  0  0  0  0  0  0
    9.3259  -14.2230   20.7172 C   0  0  0  0  0  0  0  0  0  0  0  0
    9.8957  -15.3908   21.4063 C   0  0  2  0  0  0  0  0  0  0  0  0
    9.5906  -16.6137   20.7259 N   0  0  0  0  0  0  0  0  0  0  0  0
    9.4845  -15.4592   22.8533 C   0  0  0  0  0  0  0  0  0  0  0  0
    9.5386  -14.4697   23.5880 O   0  0  0  0  0  0  0  0  0  0  0  0
    6.1563  -18.9392   26.4605 N   0  0  0  0  0  0  0  0  0  0  0  0
    7.4982  -18.4602   26.2911 C   0  0  0  0  0  0  0  0  0  0  0  0
    8.1597  -18.1842   27.3124 O   0  0  0  0  0  0  0  0  0  0  0  0
    8.0910  -18.2940   24.9598 C   0  0  0  0  0  0  0  0  0  0  0  0
    8.4537  -16.8878   24.6754 C   0  0  2  0  0  0  0  0  0  0  0  0
    9.0285  -16.7052   23.3544 N   0  0  0  0  0  0  0  0  0  0  0  0
    9.3811  -16.3218   25.6689 C   0  0  0  0  0  0  0  0  0  0  0  0
   10.5720  -16.6503   25.7544 O   0  0  0  0  0  0  0  0  0  0  0  0
    8.6209  -12.7876   26.9200 O   0  0  0  0  0  0  0  0  0  0  0  0
    9.2463  -13.3853   28.0000 C   0  0  0  0  0  0  0  0  0  0  0  0
    9.7967  -14.7426   27.6041 C   0  0  2  0  0  0  0  0  0  0  0  0
    8.9130  -15.3237   26.6160 N   0  0  0  0  0  0  0  0  0  0  0  0
   10.0085  -15.6228   28.7548 C   0  0  0  0  0  0  0  0  0  0  0  0
    9.5060  -16.7741   28.7470 O   0  0  0  0  0  0  0  0  0  0  0  0
   10.7458  -15.2324   29.8577 O   0  0  0  0  0  0  0  0  0  0  0  0
  1  2  1  0
  3  2  1  0
  4  3  1  0
  5  4  1  0
  5  6  1  6
  7  5  1  0
  8  7  2  0
  9 10  1  0
 10 12  1  0
 11 10  2  0
 13 12  1  1
 13 15  1  0
 13 14  1  0
 14  7  1  0
 15 20  1  0
 16 15  2  0
 19 18  1  1
 18 17  1  0
 19 21  1  0
 20 19  1  0
 21 22  2  0
 21 23  1  0
M  END
$$$$
