MNS.pdb
     RDKit          3D

 23 22  0  0  1  0  0  0  0  0999 V2000
    8.1349  -11.4151   20.7723 C   0  0  0  0  0  0  0  0  0  0  0  0
    7.9361  -12.7537   19.5984 S   0  0  0  0  0  0  0  0  0  0  0  0
    7.9532  -14.4023   20.2409 C   0  0  0  0  0  0  0  0  0  0  0  0
    7.8186  -15.5492   19.3324 C   0  0  0  0  0  0  0  0  0  0  0  0
    9.0367  -16.3409   19.1033 C   0  0  2  0  0  0  0  0  0  0  0  0
    8.7939  -17.4562   18.2379 N   0  0  0  0  0  0  0  0  0  0  0  0
    9.6824  -16.7841   20.3895 C   0  0  0  0  0  0  0  0  0  0  0  0
   10.0373  -15.9723   21.2477 O   0  0  0  0  0  0  0  0  0  0  0  0
   10.3333  -20.3671   19.4970 N   0  0  0  0  0  0  0  0  0  0  0  0
   10.0805  -20.9486   20.7842 C   0  0  0  0  0  0  0  0  0  0  0  0
    9.8101  -22.1654   20.8393 O   0  0  0  0  0  0  0  0  0  0  0  0
   10.1347  -20.1475   22.0118 C   0  0  0  0  0  0  0  0  0  0  0  0
   10.5300  -18.7451   21.7531 C   0  0  2  0  0  0  0  0  0  0  0  0
    9.8736  -18.1752   20.5899 N   0  0  0  0  0  0  0  0  0  0  0  0
   11.9842  -18.5782   21.5956 C   0  0  0  0  0  0  0  0  0  0  0  0
   12.6600  -19.2222   20.7820 O   0  0  0  0  0  0  0  0  0  0  0  0
   14.1641  -15.2439   21.4268 O   0  0  0  0  0  0  0  0  0  0  0  0
   14.4313  -16.5670   21.1218 C   0  0  0  0  0  0  0  0  0  0  0  0
   14.1346  -17.4527   22.3174 C   0  0  2  0  0  0  0  0  0  0  0  0
   12.7002  -17.6182   22.4190 N   0  0  0  0  0  0  0  0  0  0  0  0
   14.7305  -16.9472   23.5555 C   0  0  0  0  0  0  0  0  0  0  0  0
   13.9789  -16.5829   24.4938 O   0  0  0  0  0  0  0  0  0  0  0  0
   16.0989  -16.8549   23.7327 O   0  0  0  0  0  0  0  0  0  0  0  0
  1  2  1  0
  3  2  1  0
  4  3  1  0
  5  4  1  0
  5  6  1  6
  7  5  1  0
  8  7  2  0
  9 10  1  0
 10 12  1  0
 11 10  2  0
 13 12  1  6
 13 15  1  0
 13 14  1  0
 14  7  1  0
 15 20  1  0
 16 15  2  0
 19 18  1  6
 18 17  1  0
 19 21  1  0
 20 19  1  0
 21 22  2  0
 21 23  1  0
M  END
$$$$
