MNS.pdb
     RDKit          3D

 23 22  0  0  1  0  0  0  0  0999 V2000
    6.0447  -11.8290   18.8925 C   0  0  0  0  0  0  0  0  0  0  0  0
    6.8036  -13.0846   19.9205 S   0  0  0  0  0  0  0  0  0  0  0  0
    6.8841  -14.7264   19.2656 C   0  0  0  0  0  0  0  0  0  0  0  0
    7.3922  -15.8273   20.0954 C   0  0  0  0  0  0  0  0  0  0  0  0
    8.8457  -15.8531   20.3187 C   0  0  2  0  0  0  0  0  0  0  0  0
    9.5754  -15.5750   19.1179 N   0  0  0  0  0  0  0  0  0  0  0  0
    9.3064  -17.1422   20.9460 C   0  0  0  0  0  0  0  0  0  0  0  0
    8.6878  -17.6656   21.8761 O   0  0  0  0  0  0  0  0  0  0  0  0
   11.6569  -19.6463   17.4108 N   0  0  0  0  0  0  0  0  0  0  0  0
   12.0604  -19.6296   18.7876 C   0  0  0  0  0  0  0  0  0  0  0  0
   13.2221  -19.2633   19.0578 O   0  0  0  0  0  0  0  0  0  0  0  0
   11.1435  -20.0292   19.8606 C   0  0  0  0  0  0  0  0  0  0  0  0
   11.0300  -19.0001   20.9179 C   0  0  2  0  0  0  0  0  0  0  0  0
   10.4833  -17.7453   20.4331 N   0  0  0  0  0  0  0  0  0  0  0  0
   12.3110  -18.7218   21.5881 C   0  0  0  0  0  0  0  0  0  0  0  0
   13.0718  -19.6081   21.9993 O   0  0  0  0  0  0  0  0  0  0  0  0
   11.8758  -16.3379   25.1713 O   0  0  0  0  0  0  0  0  0  0  0  0
   11.6970  -16.8898   23.9149 C   0  0  0  0  0  0  0  0  0  0  0  0
   12.9898  -16.8260   23.1235 C   0  0  2  0  0  0  0  0  0  0  0  0
   12.7401  -17.3490   21.7971 N   0  0  0  0  0  0  0  0  0  0  0  0
   14.0973  -17.5075   23.7963 C   0  0  0  0  0  0  0  0  0  0  0  0
   14.0905  -18.7614   23.8721 O   0  0  0  0  0  0  0  0  0  0  0  0
   15.1580  -16.8186   24.3555 O   0  0  0  0  0  0  0  0  0  0  0  0
  1  2  1  0
  3  2  1  0
  4  3  1  0
  5  4  1  0
  5  6  1  6
  7  5  1  0
  8  7  2  0
  9 10  1  0
 10 12  1  0
 11 10  2  0
 13 12  1  6
 13 15  1  0
 13 14  1  0
 14  7  1  0
 15 20  1  0
 16 15  2  0
 19 18  1  1
 18 17  1  0
 19 21  1  0
 20 19  1  0
 21 22  2  0
 21 23  1  0
M  END
$$$$
