MNS.pdb
     RDKit          3D

 23 22  0  0  1  0  0  0  0  0999 V2000
    8.0542  -11.3784   26.7490 C   0  0  0  0  0  0  0  0  0  0  0  0
    6.4792  -12.2148   26.9199 S   0  0  0  0  0  0  0  0  0  0  0  0
    6.1996  -13.6302   25.8955 C   0  0  0  0  0  0  0  0  0  0  0  0
    7.3106  -14.5338   25.5669 C   0  0  0  0  0  0  0  0  0  0  0  0
    7.0015  -15.6286   24.6347 C   0  0  2  0  0  0  0  0  0  0  0  0
    5.9468  -16.4651   25.1243 N   0  0  0  0  0  0  0  0  0  0  0  0
    8.2186  -16.4422   24.2825 C   0  0  0  0  0  0  0  0  0  0  0  0
    8.2161  -17.6737   24.3552 O   0  0  0  0  0  0  0  0  0  0  0  0
   11.8602  -17.0718   20.2472 N   0  0  0  0  0  0  0  0  0  0  0  0
   12.0742  -16.0970   21.2781 C   0  0  0  0  0  0  0  0  0  0  0  0
   13.2479  -15.7705   21.5473 O   0  0  0  0  0  0  0  0  0  0  0  0
   10.9536  -15.4910   22.0053 C   0  0  0  0  0  0  0  0  0  0  0  0
   10.4587  -16.3548   23.1002 C   0  0  2  0  0  0  0  0  0  0  0  0
    9.3808  -15.7473   23.8602 N   0  0  0  0  0  0  0  0  0  0  0  0
   11.5198  -16.7578   24.0379 C   0  0  0  0  0  0  0  0  0  0  0  0
   12.4758  -17.4766   23.7172 O   0  0  0  0  0  0  0  0  0  0  0  0
    9.8024  -18.8519   27.3915 O   0  0  0  0  0  0  0  0  0  0  0  0
    9.9902  -17.9480   26.3606 C   0  0  0  0  0  0  0  0  0  0  0  0
   11.3249  -17.2434   26.5154 C   0  0  2  0  0  0  0  0  0  0  0  0
   11.4787  -16.3099   25.4198 N   0  0  0  0  0  0  0  0  0  0  0  0
   12.4473  -18.1778   26.6187 C   0  0  0  0  0  0  0  0  0  0  0  0
   12.2662  -19.3878   26.3342 O   0  0  0  0  0  0  0  0  0  0  0  0
   13.7082  -17.7762   27.0203 O   0  0  0  0  0  0  0  0  0  0  0  0
  1  2  1  0
  3  2  1  0
  4  3  1  0
  5  4  1  0
  5  6  1  1
  7  5  1  0
  8  7  2  0
  9 10  1  0
 10 12  1  0
 11 10  2  0
 13 12  1  6
 13 15  1  0
 13 14  1  0
 14  7  1  0
 15 20  1  0
 16 15  2  0
 19 18  1  6
 18 17  1  0
 19 21  1  0
 20 19  1  0
 21 22  2  0
 21 23  1  0
M  END
$$$$
