MNS.pdb
     RDKit          3D

 23 22  0  0  1  0  0  0  0  0999 V2000
    7.5853  -11.6108   20.8324 C   0  0  0  0  0  0  0  0  0  0  0  0
    8.3269  -12.1658   19.2989 S   0  0  0  0  0  0  0  0  0  0  0  0
    9.6577  -13.3259   19.4173 C   0  0  0  0  0  0  0  0  0  0  0  0
    9.6568  -14.3435   20.4772 C   0  0  0  0  0  0  0  0  0  0  0  0
   10.8684  -15.1706   20.5825 C   0  0  2  0  0  0  0  0  0  0  0  0
   11.3117  -15.6338   19.3017 N   0  0  0  0  0  0  0  0  0  0  0  0
   10.6977  -16.3173   21.5436 C   0  0  0  0  0  0  0  0  0  0  0  0
   10.0287  -16.2031   22.5736 O   0  0  0  0  0  0  0  0  0  0  0  0
    9.7116  -21.0331   20.3584 N   0  0  0  0  0  0  0  0  0  0  0  0
   10.9350  -20.2960   20.2213 C   0  0  0  0  0  0  0  0  0  0  0  0
   11.2913  -19.9513   19.0764 O   0  0  0  0  0  0  0  0  0  0  0  0
   11.7562  -19.9491   21.3862 C   0  0  0  0  0  0  0  0  0  0  0  0
   11.2767  -18.7277   22.0706 C   0  0  2  0  0  0  0  0  0  0  0  0
   11.3336  -17.5455   21.2293 N   0  0  0  0  0  0  0  0  0  0  0  0
   12.0043  -18.4461   23.3192 C   0  0  0  0  0  0  0  0  0  0  0  0
   13.0612  -17.8022   23.3617 O   0  0  0  0  0  0  0  0  0  0  0  0
   10.1207  -19.0899   26.9454 O   0  0  0  0  0  0  0  0  0  0  0  0
   11.1864  -18.2111   26.8625 C   0  0  0  0  0  0  0  0  0  0  0  0
   12.1890  -18.6958   25.8322 C   0  0  2  0  0  0  0  0  0  0  0  0
   11.4881  -18.9318   24.5879 N   0  0  0  0  0  0  0  0  0  0  0  0
   12.9404  -19.8683   26.2844 C   0  0  0  0  0  0  0  0  0  0  0  0
   12.7703  -20.9680   25.7016 O   0  0  0  0  0  0  0  0  0  0  0  0
   13.8366  -19.8108   27.3360 O   0  0  0  0  0  0  0  0  0  0  0  0
  1  2  1  0
  3  2  1  0
  4  3  1  0
  5  4  1  0
  5  6  1  6
  7  5  1  0
  8  7  2  0
  9 10  1  0
 10 12  1  0
 11 10  2  0
 13 12  1  6
 13 15  1  0
 13 14  1  0
 14  7  1  0
 15 20  1  0
 16 15  2  0
 19 18  1  1
 18 17  1  0
 19 21  1  0
 20 19  1  0
 21 22  2  0
 21 23  1  0
M  END
$$$$
