RSP.pdb
     RDKit          3D

 25 25  0  0  1  0  0  0  0  0999 V2000
   22.4011  -20.4434  -22.1922 N   0  0  0  0  0  0  0  0  0  0  0  0
   21.8242  -21.6435  -22.6827 C   0  0  0  0  0  0  0  0  0  0  0  0
   21.5682  -21.6949  -23.9646 N   0  0  0  0  0  0  0  0  0  0  0  0
   21.5230  -22.7505  -21.8790 N   0  0  0  0  0  0  0  0  0  0  0  0
   21.9350  -22.7937  -20.4872 C   0  0  0  0  0  0  0  0  0  0  0  0
   23.4198  -22.8096  -20.4609 C   0  0  0  0  0  0  0  0  0  0  0  0
   24.0370  -22.0511  -19.3518 C   0  0  0  0  0  0  0  0  0  0  0  0
   23.3400  -22.1156  -18.0415 C   0  0  2  0  0  0  0  0  0  0  0  0
   21.9929  -21.6603  -18.0121 N   0  0  0  0  0  0  0  0  0  0  0  0
   24.2029  -21.3747  -17.0530 C   0  0  0  0  0  0  0  0  0  0  0  0
   25.4317  -21.2095  -17.2648 O   0  0  0  0  0  0  0  0  0  0  0  0
   21.0675  -22.4619  -24.4257 O   0  0  0  0  0  0  0  0  0  0  0  0
   22.6978  -18.5974  -14.1652 C   0  0  0  0  0  0  0  0  0  0  0  0
   23.9712  -18.6601  -14.7305 C   0  0  1  0  0  0  0  0  0  0  0  0
   24.4312  -20.1031  -14.8772 N   0  0  0  0  0  0  0  0  0  0  0  0
   23.6860  -20.8300  -15.8470 C   0  0  0  0  0  0  0  0  0  0  0  0
   24.4800  -20.8102  -13.5995 O   0  0  0  0  0  0  0  0  0  0  0  0
   23.5310  -21.6808  -13.4468 N   0  0  0  0  0  0  0  0  0  0  0  0
   25.3843  -20.6839  -12.5373 C   0  0  0  0  0  0  0  0  0  0  0  0
   26.5201  -19.8485  -12.2786 C   0  0  0  0  0  0  0  0  0  0  0  0
   27.4022  -20.6250  -11.2898 C   0  0  0  0  0  0  0  0  0  0  0  0
   26.7099  -21.9740  -11.1738 C   0  0  1  0  0  0  0  0  0  0  0  0
   25.2705  -21.5348  -11.3323 C   0  0  0  0  0  0  0  0  0  0  0  0
   24.8971  -20.7453  -10.1481 O   0  0  0  0  0  0  0  0  0  0  0  0
   24.6744  -21.2120   -8.8819 O   0  0  0  0  0  0  0  0  0  0  0  0
  1  2  1  0
  2  4  1  0
  3  2  2  0
  4  5  1  0
  6  7  1  0
  6  5  1  0
  7  8  1  0
  8  9  1  6
 10  8  1  0
 10 11  2  0
 14 13  1  6
 13 12  1  0
 14 15  1  0
 15 10  1  0
 16 14  1  0
 17 16  2  0
 18 19  1  0
 18 16  1  0
 20 19  1  0
 21 20  1  0
 22 21  1  0
 22 18  1  0
 22 23  1  1
 24 23  1  0
 25 23  2  0
M  END
$$$$
