RSP.pdb
     RDKit          3D

 25 25  0  0  1  0  0  0  0  0999 V2000
   20.1885  -26.3993  -15.5146 N   0  0  0  0  0  0  0  0  0  0  0  0
   20.9972  -26.9962  -14.5129 C   0  0  0  0  0  0  0  0  0  0  0  0
   21.1927  -28.2866  -14.6031 N   0  0  0  0  0  0  0  0  0  0  0  0
   21.5832  -26.2867  -13.4569 N   0  0  0  0  0  0  0  0  0  0  0  0
   21.4353  -24.8456  -13.3561 C   0  0  0  0  0  0  0  0  0  0  0  0
   22.2023  -24.2385  -14.4736 C   0  0  0  0  0  0  0  0  0  0  0  0
   22.1647  -22.7614  -14.5322 C   0  0  0  0  0  0  0  0  0  0  0  0
   21.9972  -22.0547  -13.2363 C   0  0  2  0  0  0  0  0  0  0  0  0
   20.6853  -21.6065  -12.9187 N   0  0  0  0  0  0  0  0  0  0  0  0
   22.9928  -20.9236  -13.2260 C   0  0  0  0  0  0  0  0  0  0  0  0
   22.6253  -19.7376  -13.4270 O   0  0  0  0  0  0  0  0  0  0  0  0
   21.8192  -28.8223  -13.9931 O   0  0  0  0  0  0  0  0  0  0  0  0
   27.3318  -21.5504  -12.9913 C   0  0  0  0  0  0  0  0  0  0  0  0
   26.6650  -20.5183  -12.3317 C   0  0  1  0  0  0  0  0  0  0  0  0
   25.3916  -20.1332  -13.0703 N   0  0  0  0  0  0  0  0  0  0  0  0
   24.3790  -21.1295  -12.9926 C   0  0  0  0  0  0  0  0  0  0  0  0
   25.6430  -19.7322  -14.4526 O   0  0  0  0  0  0  0  0  0  0  0  0
   25.0822  -20.5038  -15.3314 N   0  0  0  0  0  0  0  0  0  0  0  0
   26.3888  -18.6580  -14.9546 C   0  0  0  0  0  0  0  0  0  0  0  0
   27.2883  -17.7027  -14.3775 C   0  0  0  0  0  0  0  0  0  0  0  0
   27.2434  -16.4702  -15.2927 C   0  0  0  0  0  0  0  0  0  0  0  0
   26.1511  -16.8071  -16.2956 C   0  0  1  0  0  0  0  0  0  0  0  0
   26.3472  -18.3046  -16.3907 C   0  0  0  0  0  0  0  0  0  0  0  0
   27.6399  -18.5588  -17.0461 O   0  0  0  0  0  0  0  0  0  0  0  0
   28.0035  -18.2089  -18.3174 O   0  0  0  0  0  0  0  0  0  0  0  0
  1  2  1  0
  2  4  1  0
  3  2  2  0
  4  5  1  0
  6  7  1  0
  6  5  1  0
  7  8  1  0
  8  9  1  6
 10  8  1  0
 10 11  2  0
 14 13  1  1
 13 12  1  0
 14 15  1  0
 15 10  1  0
 16 14  1  0
 17 16  2  0
 18 19  1  0
 18 16  1  0
 20 19  1  0
 21 20  1  0
 22 21  1  0
 22 18  1  0
 22 23  1  6
 24 23  1  0
 25 23  2  0
M  END
$$$$
