RSP.pdb
     RDKit          3D

 25 25  0  0  1  0  0  0  0  0999 V2000
   18.1049  -23.4231  -10.7929 N   0  0  0  0  0  0  0  0  0  0  0  0
   19.1941  -23.4361  -11.7024 C   0  0  0  0  0  0  0  0  0  0  0  0
   19.2032  -24.3884  -12.5993 N   0  0  0  0  0  0  0  0  0  0  0  0
   20.2356  -22.4997  -11.6868 N   0  0  0  0  0  0  0  0  0  0  0  0
   20.1688  -21.3265  -10.8336 C   0  0  0  0  0  0  0  0  0  0  0  0
   21.3493  -20.4804  -11.1439 C   0  0  0  0  0  0  0  0  0  0  0  0
   22.4832  -21.1902  -11.7739 C   0  0  0  0  0  0  0  0  0  0  0  0
   23.7566  -21.2075  -11.0090 C   0  0  2  0  0  0  0  0  0  0  0  0
   23.6794  -20.8556   -9.6331 N   0  0  0  0  0  0  0  0  0  0  0  0
   24.7255  -20.3294  -11.7578 C   0  0  0  0  0  0  0  0  0  0  0  0
   24.5655  -19.0826  -11.8028 O   0  0  0  0  0  0  0  0  0  0  0  0
   19.9530  -24.5333  -13.2837 O   0  0  0  0  0  0  0  0  0  0  0  0
   27.8818  -21.9939  -14.1699 C   0  0  0  0  0  0  0  0  0  0  0  0
   28.1111  -20.8429  -13.4166 C   0  0  1  0  0  0  0  0  0  0  0  0
   26.8135  -20.0882  -13.1667 N   0  0  0  0  0  0  0  0  0  0  0  0
   25.8553  -20.8513  -12.4432 C   0  0  0  0  0  0  0  0  0  0  0  0
   26.2415  -19.5331  -14.3913 O   0  0  0  0  0  0  0  0  0  0  0  0
   25.0836  -20.0292  -14.6995 N   0  0  0  0  0  0  0  0  0  0  0  0
   26.7543  -18.5639  -15.2628 C   0  0  0  0  0  0  0  0  0  0  0  0
   27.9811  -17.8260  -15.3353 C   0  0  0  0  0  0  0  0  0  0  0  0
   27.6549  -16.5330  -16.0971 C   0  0  0  0  0  0  0  0  0  0  0  0
   26.1467  -16.5959  -16.2820 C   0  0  1  0  0  0  0  0  0  0  0  0
   25.9711  -18.0920  -16.4260 C   0  0  0  0  0  0  0  0  0  0  0  0
   26.5879  -18.5078  -17.6957 O   0  0  0  0  0  0  0  0  0  0  0  0
   26.1763  -18.1818  -18.9586 O   0  0  0  0  0  0  0  0  0  0  0  0
  1  2  1  0
  2  4  1  0
  3  2  2  0
  4  5  1  0
  6  7  1  0
  6  5  1  0
  7  8  1  0
  8  9  1  1
 10  8  1  0
 10 11  2  0
 14 13  1  1
 13 12  1  0
 14 15  1  0
 15 10  1  0
 16 14  1  0
 17 16  2  0
 18 19  1  0
 18 16  1  0
 20 19  1  0
 21 20  1  0
 22 21  1  0
 22 18  1  0
 22 23  1  6
 24 23  1  0
 25 23  2  0
M  END
$$$$
