RSP.pdb
     RDKit          3D

 25 25  0  0  1  0  0  0  0  0999 V2000
   26.4557  -18.2328  -16.1155 N   0  0  0  0  0  0  0  0  0  0  0  0
   27.7213  -18.8609  -16.2481 C   0  0  0  0  0  0  0  0  0  0  0  0
   28.6332  -18.2141  -16.9275 N   0  0  0  0  0  0  0  0  0  0  0  0
   28.0341  -20.1108  -15.6989 N   0  0  0  0  0  0  0  0  0  0  0  0
   27.1237  -20.7678  -14.7778 C   0  0  0  0  0  0  0  0  0  0  0  0
   27.5704  -20.4419  -13.3993 C   0  0  0  0  0  0  0  0  0  0  0  0
   26.5357  -20.5858  -12.3528 C   0  0  0  0  0  0  0  0  0  0  0  0
   25.4098  -21.5046  -12.6614 C   0  0  2  0  0  0  0  0  0  0  0  0
   24.8956  -21.4613  -13.9867 N   0  0  0  0  0  0  0  0  0  0  0  0
   24.3380  -21.2386  -11.6361 C   0  0  0  0  0  0  0  0  0  0  0  0
   24.6118  -21.2062  -10.4089 O   0  0  0  0  0  0  0  0  0  0  0  0
   29.6024  -18.5288  -17.0429 O   0  0  0  0  0  0  0  0  0  0  0  0
   21.0465  -18.9684  -12.4420 C   0  0  0  0  0  0  0  0  0  0  0  0
   21.4226  -19.3134  -11.1442 C   0  0  1  0  0  0  0  0  0  0  0  0
   21.9170  -20.7512  -11.0845 N   0  0  0  0  0  0  0  0  0  0  0  0
   22.9812  -21.0129  -11.9918 C   0  0  0  0  0  0  0  0  0  0  0  0
   20.8365  -21.7237  -11.2321 O   0  0  0  0  0  0  0  0  0  0  0  0
   20.8074  -22.3011  -12.3930 N   0  0  0  0  0  0  0  0  0  0  0  0
   19.8472  -22.1121  -10.3197 C   0  0  0  0  0  0  0  0  0  0  0  0
   19.5345  -21.7593   -8.9661 C   0  0  0  0  0  0  0  0  0  0  0  0
   18.7804  -22.9607   -8.3773 C   0  0  0  0  0  0  0  0  0  0  0  0
   18.8565  -24.0070   -9.4782 C   0  0  1  0  0  0  0  0  0  0  0  0
   18.8130  -23.1029  -10.6908 C   0  0  0  0  0  0  0  0  0  0  0  0
   17.4777  -22.4884  -10.7592 O   0  0  0  0  0  0  0  0  0  0  0  0
   17.1531  -21.1877  -10.4878 O   0  0  0  0  0  0  0  0  0  0  0  0
  1  2  1  0
  2  4  1  0
  3  2  2  0
  4  5  1  0
  6  7  1  0
  6  5  1  0
  7  8  1  0
  8  9  1  6
 10  8  1  0
 10 11  2  0
 14 13  1  1
 13 12  1  0
 14 15  1  0
 15 10  1  0
 16 14  1  0
 17 16  2  0
 18 19  1  0
 18 16  1  0
 20 19  1  0
 21 20  1  0
 22 21  1  0
 22 18  1  0
 22 23  1  6
 24 23  1  0
 25 23  2  0
M  END
$$$$
