RSP.pdb
     RDKit          3D

 25 25  0  0  1  0  0  0  0  0999 V2000
   24.4489  -10.4244  -20.0028 N   0  0  0  0  0  0  0  0  0  0  0  0
   24.0970  -11.7987  -19.9678 C   0  0  0  0  0  0  0  0  0  0  0  0
   22.9416  -12.1259  -20.4870 N   0  0  0  0  0  0  0  0  0  0  0  0
   24.9085  -12.7988  -19.4173 N   0  0  0  0  0  0  0  0  0  0  0  0
   26.3560  -12.6932  -19.4662 C   0  0  0  0  0  0  0  0  0  0  0  0
   26.8177  -13.4336  -20.6680 C   0  0  0  0  0  0  0  0  0  0  0  0
   28.2822  -13.4494  -20.8725 C   0  0  0  0  0  0  0  0  0  0  0  0
   28.9894  -14.6941  -20.4756 C   0  0  2  0  0  0  0  0  0  0  0  0
   28.2487  -15.6301  -19.7024 N   0  0  0  0  0  0  0  0  0  0  0  0
   30.2566  -14.2707  -19.7787 C   0  0  0  0  0  0  0  0  0  0  0  0
   30.2256  -13.7936  -18.6153 O   0  0  0  0  0  0  0  0  0  0  0  0
   22.5601  -13.0777  -20.4996 O   0  0  0  0  0  0  0  0  0  0  0  0
   35.1550  -14.3320  -19.8012 C   0  0  0  0  0  0  0  0  0  0  0  0
   33.9801  -14.6061  -20.5007 C   0  0  2  0  0  0  0  0  0  0  0  0
   32.7732  -14.0066  -19.7941 N   0  0  0  0  0  0  0  0  0  0  0  0
   31.5360  -14.3849  -20.3859 C   0  0  0  0  0  0  0  0  0  0  0  0
   32.8732  -12.5568  -19.6432 O   0  0  0  0  0  0  0  0  0  0  0  0
   32.2595  -11.8906  -20.5715 N   0  0  0  0  0  0  0  0  0  0  0  0
   33.5247  -11.7989  -18.6618 C   0  0  0  0  0  0  0  0  0  0  0  0
   34.3218  -12.1147  -17.5131 C   0  0  0  0  0  0  0  0  0  0  0  0
   34.1786  -10.9224  -16.5558 C   0  0  0  0  0  0  0  0  0  0  0  0
   33.1395  -10.0417  -17.2319 C   0  0  1  0  0  0  0  0  0  0  0  0
   33.4751  -10.3203  -18.6809 C   0  0  0  0  0  0  0  0  0  0  0  0
   34.7969   -9.7403  -18.9670 O   0  0  0  0  0  0  0  0  0  0  0  0
   35.1179   -8.4125  -19.0359 O   0  0  0  0  0  0  0  0  0  0  0  0
  1  2  1  0
  2  4  1  0
  3  2  2  0
  4  5  1  0
  6  7  1  0
  6  5  1  0
  7  8  1  0
  8  9  1  1
 10  8  1  0
 10 11  2  0
 14 13  1  1
 13 12  1  0
 14 15  1  0
 15 10  1  0
 16 14  1  0
 17 16  2  0
 18 19  1  0
 18 16  1  0
 20 19  1  0
 21 20  1  0
 22 21  1  0
 22 18  1  0
 22 23  1  6
 24 23  1  0
 25 23  2  0
M  END
$$$$
