RSP.pdb
     RDKit          3D

 25 25  0  0  1  0  0  0  0  0999 V2000
   14.2943  -10.5507  -18.9633 N   0  0  0  0  0  0  0  0  0  0  0  0
   14.6179  -11.2856  -17.7933 C   0  0  0  0  0  0  0  0  0  0  0  0
   13.7585  -11.2361  -16.8082 N   0  0  0  0  0  0  0  0  0  0  0  0
   15.7860  -12.0444  -17.6459 N   0  0  0  0  0  0  0  0  0  0  0  0
   17.0584  -11.5566  -18.1475 C   0  0  0  0  0  0  0  0  0  0  0  0
   17.7705  -12.7092  -18.7560 C   0  0  0  0  0  0  0  0  0  0  0  0
   19.1496  -12.4279  -19.2093 C   0  0  0  0  0  0  0  0  0  0  0  0
   20.2235  -13.2593  -18.6074 C   0  0  2  0  0  0  0  0  0  0  0  0
   19.8581  -14.5684  -18.1885 N   0  0  0  0  0  0  0  0  0  0  0  0
   20.8148  -12.4551  -17.4785 C   0  0  0  0  0  0  0  0  0  0  0  0
   20.2092  -12.3382  -16.3822 O   0  0  0  0  0  0  0  0  0  0  0  0
   13.8718  -11.7262  -15.9145 O   0  0  0  0  0  0  0  0  0  0  0  0
   24.7309  -10.1328  -15.6897 C   0  0  0  0  0  0  0  0  0  0  0  0
   24.1736  -10.8415  -16.7537 C   0  0  2  0  0  0  0  0  0  0  0  0
   22.6677  -10.9810  -16.5859 N   0  0  0  0  0  0  0  0  0  0  0  0
   22.0682  -11.7950  -17.5869 C   0  0  0  0  0  0  0  0  0  0  0  0
   21.9930   -9.6900  -16.4709 O   0  0  0  0  0  0  0  0  0  0  0  0
   21.5806   -9.2126  -17.6040 N   0  0  0  0  0  0  0  0  0  0  0  0
   21.7351   -8.9094  -15.3369 C   0  0  0  0  0  0  0  0  0  0  0  0
   21.9484   -9.0803  -13.9297 C   0  0  0  0  0  0  0  0  0  0  0  0
   20.9025   -8.1989  -13.2314 C   0  0  0  0  0  0  0  0  0  0  0  0
   20.0482   -7.6791  -14.3770 C   0  0  1  0  0  0  0  0  0  0  0  0
   21.1053   -7.5758  -15.4550 C   0  0  0  0  0  0  0  0  0  0  0  0
   22.0405   -6.5030  -15.0814 O   0  0  0  0  0  0  0  0  0  0  0  0
   21.8042   -5.1560  -15.1082 O   0  0  0  0  0  0  0  0  0  0  0  0
  1  2  1  0
  2  4  1  0
  3  2  2  0
  4  5  1  0
  6  7  1  0
  6  5  1  0
  7  8  1  0
  8  9  1  1
 10  8  1  0
 10 11  2  0
 14 13  1  1
 13 12  1  0
 14 15  1  0
 15 10  1  0
 16 14  1  0
 17 16  2  0
 18 19  1  0
 18 16  1  0
 20 19  1  0
 21 20  1  0
 22 21  1  0
 22 18  1  0
 22 23  1  6
 24 23  1  0
 25 23  2  0
M  END
$$$$
