RSP.pdb
     RDKit          3D

 25 25  0  0  1  0  0  0  0  0999 V2000
   26.7717  -21.3274  -10.4033 N   0  0  0  0  0  0  0  0  0  0  0  0
   25.8498  -20.2691  -10.6123 C   0  0  0  0  0  0  0  0  0  0  0  0
   24.9807  -20.0463   -9.6601 N   0  0  0  0  0  0  0  0  0  0  0  0
   25.8263  -19.4695  -11.7621 N   0  0  0  0  0  0  0  0  0  0  0  0
   26.7712  -19.6914  -12.8422 C   0  0  0  0  0  0  0  0  0  0  0  0
   26.3773  -20.9477  -13.5294 C   0  0  0  0  0  0  0  0  0  0  0  0
   25.1510  -20.8571  -14.3507 C   0  0  0  0  0  0  0  0  0  0  0  0
   24.7532  -22.0893  -15.0789 C   0  0  2  0  0  0  0  0  0  0  0  0
   25.7415  -22.6875  -15.9085 N   0  0  0  0  0  0  0  0  0  0  0  0
   23.5031  -21.7538  -15.8505 C   0  0  0  0  0  0  0  0  0  0  0  0
   23.5688  -21.3089  -17.0252 O   0  0  0  0  0  0  0  0  0  0  0  0
   24.2190  -19.3621   -9.7186 O   0  0  0  0  0  0  0  0  0  0  0  0
   19.6748  -22.0480  -13.9955 C   0  0  0  0  0  0  0  0  0  0  0  0
   19.7835  -22.3482  -15.3531 C   0  0  1  0  0  0  0  0  0  0  0  0
   20.9783  -21.6390  -15.9736 N   0  0  0  0  0  0  0  0  0  0  0  0
   22.2020  -21.9186  -15.3041 C   0  0  0  0  0  0  0  0  0  0  0  0
   20.7645  -20.2010  -16.1198 O   0  0  0  0  0  0  0  0  0  0  0  0
   21.5099  -19.4795  -15.3413 N   0  0  0  0  0  0  0  0  0  0  0  0
   19.8872  -19.5044  -16.9607 C   0  0  0  0  0  0  0  0  0  0  0  0
   18.8846  -19.8917  -17.9091 C   0  0  0  0  0  0  0  0  0  0  0  0
   18.7677  -18.7270  -18.9033 C   0  0  0  0  0  0  0  0  0  0  0  0
   19.8812  -17.7813  -18.4810 C   0  0  1  0  0  0  0  0  0  0  0  0
   19.8684  -18.0252  -16.9876 C   0  0  0  0  0  0  0  0  0  0  0  0
   18.6088  -17.4922  -16.4449 O   0  0  0  0  0  0  0  0  0  0  0  0
   18.2401  -16.1782  -16.3543 O   0  0  0  0  0  0  0  0  0  0  0  0
  1  2  1  0
  2  4  1  0
  3  2  2  0
  4  5  1  0
  6  7  1  0
  6  5  1  0
  7  8  1  0
  8  9  1  6
 10  8  1  0
 10 11  2  0
 14 13  1  6
 13 12  1  0
 14 15  1  0
 15 10  1  0
 16 14  1  0
 17 16  2  0
 18 19  1  0
 18 16  1  0
 20 19  1  0
 21 20  1  0
 22 21  1  0
 22 18  1  0
 22 23  1  1
 24 23  1  0
 25 23  2  0
M  END
$$$$
