RSP.pdb
     RDKit          3D

 25 25  0  0  1  0  0  0  0  0999 V2000
   19.9334  -21.4853  -10.6628 N   0  0  0  0  0  0  0  0  0  0  0  0
   20.2751  -22.0565   -9.4096 C   0  0  0  0  0  0  0  0  0  0  0  0
   19.5116  -23.0256   -8.9743 N   0  0  0  0  0  0  0  0  0  0  0  0
   21.3657  -21.6428   -8.6341 N   0  0  0  0  0  0  0  0  0  0  0  0
   22.3303  -20.6903   -9.1548 C   0  0  0  0  0  0  0  0  0  0  0  0
   22.8987  -21.2656  -10.4005 C   0  0  0  0  0  0  0  0  0  0  0  0
   23.9671  -20.4626  -11.0332 C   0  0  0  0  0  0  0  0  0  0  0  0
   25.3465  -21.0050  -10.9321 C   0  0  2  0  0  0  0  0  0  0  0  0
   25.8820  -21.1470   -9.6222 N   0  0  0  0  0  0  0  0  0  0  0  0
   26.2193  -20.1383  -11.8027 C   0  0  0  0  0  0  0  0  0  0  0  0
   27.1362  -19.4369  -11.3033 O   0  0  0  0  0  0  0  0  0  0  0  0
   19.6335  -23.5000   -8.0733 O   0  0  0  0  0  0  0  0  0  0  0  0
   27.4216  -21.2103  -15.5287 C   0  0  0  0  0  0  0  0  0  0  0  0
   27.9794  -20.2061  -14.7379 C   0  0  1  0  0  0  0  0  0  0  0  0
   26.8953  -19.3437  -14.1080 N   0  0  0  0  0  0  0  0  0  0  0  0
   26.0585  -20.0660  -13.2124 C   0  0  0  0  0  0  0  0  0  0  0  0
   26.1115  -18.6123  -15.1007 O   0  0  0  0  0  0  0  0  0  0  0  0
   24.9504  -19.1377  -15.3410 N   0  0  0  0  0  0  0  0  0  0  0  0
   26.4282  -17.4507  -15.8166 C   0  0  0  0  0  0  0  0  0  0  0  0
   27.5989  -16.6323  -15.9367 C   0  0  0  0  0  0  0  0  0  0  0  0
   27.1012  -15.2345  -16.3333 C   0  0  0  0  0  0  0  0  0  0  0  0
   25.5871  -15.3600  -16.2662 C   0  0  1  0  0  0  0  0  0  0  0  0
   25.4328  -16.8020  -16.6983 C   0  0  0  0  0  0  0  0  0  0  0  0
   25.8204  -16.9022  -18.1143 O   0  0  0  0  0  0  0  0  0  0  0  0
   26.9039  -17.5597  -18.6285 O   0  0  0  0  0  0  0  0  0  0  0  0
  1  2  1  0
  2  4  1  0
  3  2  2  0
  4  5  1  0
  6  7  1  0
  6  5  1  0
  7  8  1  0
  8  9  1  1
 10  8  1  0
 10 11  2  0
 14 13  1  1
 13 12  1  0
 14 15  1  0
 15 10  1  0
 16 14  1  0
 17 16  2  0
 18 19  1  0
 18 16  1  0
 20 19  1  0
 21 20  1  0
 22 21  1  0
 22 18  1  0
 22 23  1  6
 24 23  1  0
 25 23  2  0
M  END
$$$$
