RSP.pdb
     RDKit          3D

 25 25  0  0  1  0  0  0  0  0999 V2000
   30.1240  -19.8747  -11.1112 N   0  0  0  0  0  0  0  0  0  0  0  0
   30.2216  -21.2031  -11.6005 C   0  0  0  0  0  0  0  0  0  0  0  0
   31.3640  -21.8153  -11.4232 N   0  0  0  0  0  0  0  0  0  0  0  0
   29.1776  -21.8752  -12.2488 N   0  0  0  0  0  0  0  0  0  0  0  0
   28.3874  -21.2124  -13.2711 C   0  0  0  0  0  0  0  0  0  0  0  0
   27.4557  -20.2828  -12.5830 C   0  0  0  0  0  0  0  0  0  0  0  0
   26.0329  -20.4257  -12.9598 C   0  0  0  0  0  0  0  0  0  0  0  0
   25.2605  -21.4666  -12.2340 C   0  0  2  0  0  0  0  0  0  0  0  0
   25.7875  -22.7872  -12.2607 N   0  0  0  0  0  0  0  0  0  0  0  0
   23.8525  -21.4149  -12.7685 C   0  0  0  0  0  0  0  0  0  0  0  0
   23.5161  -22.0983  -13.7695 O   0  0  0  0  0  0  0  0  0  0  0  0
   31.5658  -22.7697  -11.7395 O   0  0  0  0  0  0  0  0  0  0  0  0
   20.8813  -19.0559  -10.7899 C   0  0  0  0  0  0  0  0  0  0  0  0
   20.5660  -20.3122  -11.3069 C   0  0  1  0  0  0  0  0  0  0  0  0
   21.4557  -20.6515  -12.4939 N   0  0  0  0  0  0  0  0  0  0  0  0
   22.8430  -20.6054  -12.1819 C   0  0  0  0  0  0  0  0  0  0  0  0
   21.1459  -19.8500  -13.6756 O   0  0  0  0  0  0  0  0  0  0  0  0
   21.9834  -18.8822  -13.8855 N   0  0  0  0  0  0  0  0  0  0  0  0
   20.0953  -19.9728  -14.5938 C   0  0  0  0  0  0  0  0  0  0  0  0
   18.9696  -20.8511  -14.7209 C   0  0  0  0  0  0  0  0  0  0  0  0
   18.6112  -20.8689  -16.2142 C   0  0  0  0  0  0  0  0  0  0  0  0
   19.7206  -20.0532  -16.8596 C   0  0  1  0  0  0  0  0  0  0  0  0
   19.9812  -19.0573  -15.7504 C   0  0  0  0  0  0  0  0  0  0  0  0
   18.8040  -18.1825  -15.6314 O   0  0  0  0  0  0  0  0  0  0  0  0
   18.3965  -17.2224  -16.5163 O   0  0  0  0  0  0  0  0  0  0  0  0
  1  2  1  0
  2  4  1  0
  3  2  2  0
  4  5  1  0
  6  7  1  0
  6  5  1  0
  7  8  1  0
  8  9  1  6
 10  8  1  0
 10 11  2  0
 14 13  1  1
 13 12  1  0
 14 15  1  0
 15 10  1  0
 16 14  1  0
 17 16  2  0
 18 19  1  0
 18 16  1  0
 20 19  1  0
 21 20  1  0
 22 21  1  0
 22 18  1  0
 22 23  1  1
 24 23  1  0
 25 23  2  0
M  END
$$$$
