RSP.pdb
     RDKit          3D

 25 25  0  0  1  0  0  0  0  0999 V2000
   19.1483  -23.1919   -7.3835 N   0  0  0  0  0  0  0  0  0  0  0  0
   18.8111  -23.3980   -8.7464 C   0  0  0  0  0  0  0  0  0  0  0  0
   18.1165  -24.4705   -9.0273 N   0  0  0  0  0  0  0  0  0  0  0  0
   19.1772  -22.5283   -9.7816 N   0  0  0  0  0  0  0  0  0  0  0  0
   19.9268  -21.3159   -9.5046 C   0  0  0  0  0  0  0  0  0  0  0  0
   21.3423  -21.7066   -9.2820 C   0  0  0  0  0  0  0  0  0  0  0  0
   22.3420  -20.8760   -9.9873 C   0  0  0  0  0  0  0  0  0  0  0  0
   22.2773  -20.8854  -11.4714 C   0  0  2  0  0  0  0  0  0  0  0  0
   22.0365  -22.1424  -12.0918 N   0  0  0  0  0  0  0  0  0  0  0  0
   23.5521  -20.2521  -11.9661 C   0  0  0  0  0  0  0  0  0  0  0  0
   23.7895  -19.0338  -11.7624 O   0  0  0  0  0  0  0  0  0  0  0  0
   17.8908  -24.7829   -9.9776 O   0  0  0  0  0  0  0  0  0  0  0  0
   26.3600  -22.4375  -14.4210 C   0  0  0  0  0  0  0  0  0  0  0  0
   26.8013  -21.4942  -13.4934 C   0  0  1  0  0  0  0  0  0  0  0  0
   25.7324  -20.4422  -13.2362 N   0  0  0  0  0  0  0  0  0  0  0  0
   24.5407  -20.9830  -12.6780 C   0  0  0  0  0  0  0  0  0  0  0  0
   25.4494  -19.6283  -14.4162 O   0  0  0  0  0  0  0  0  0  0  0  0
   24.3065  -19.8903  -14.9705 N   0  0  0  0  0  0  0  0  0  0  0  0
   26.2198  -18.6283  -15.0232 C   0  0  0  0  0  0  0  0  0  0  0  0
   27.5478  -18.1254  -14.8277 C   0  0  0  0  0  0  0  0  0  0  0  0
   27.5348  -16.6793  -15.3445 C   0  0  0  0  0  0  0  0  0  0  0  0
   26.0731  -16.4322  -15.6836 C   0  0  1  0  0  0  0  0  0  0  0  0
   25.6803  -17.8207  -16.1393 C   0  0  0  0  0  0  0  0  0  0  0  0
   26.3823  -18.1070  -17.4004 O   0  0  0  0  0  0  0  0  0  0  0  0
   26.2508  -17.4408  -18.5877 O   0  0  0  0  0  0  0  0  0  0  0  0
  1  2  1  0
  2  4  1  0
  3  2  2  0
  4  5  1  0
  6  7  1  0
  6  5  1  0
  7  8  1  0
  8  9  1  6
 10  8  1  0
 10 11  2  0
 14 13  1  1
 13 12  1  0
 14 15  1  0
 15 10  1  0
 16 14  1  0
 17 16  2  0
 18 19  1  0
 18 16  1  0
 20 19  1  0
 21 20  1  0
 22 21  1  0
 22 18  1  0
 22 23  1  6
 24 23  1  0
 25 23  2  0
M  END
$$$$
