RSP.pdb
     RDKit          3D

 25 25  0  0  1  0  0  0  0  0999 V2000
   28.2843  -24.2992  -15.6106 N   0  0  0  0  0  0  0  0  0  0  0  0
   26.9347  -24.7297  -15.5278 C   0  0  0  0  0  0  0  0  0  0  0  0
   26.7297  -25.9547  -15.1169 N   0  0  0  0  0  0  0  0  0  0  0  0
   25.8366  -23.9247  -15.8568 N   0  0  0  0  0  0  0  0  0  0  0  0
   25.4656  -22.7953  -15.0228 C   0  0  0  0  0  0  0  0  0  0  0  0
   26.7200  -22.1297  -14.5880 C   0  0  0  0  0  0  0  0  0  0  0  0
   26.6953  -21.5763  -13.2170 C   0  0  0  0  0  0  0  0  0  0  0  0
   25.5126  -20.7509  -12.8609 C   0  0  2  0  0  0  0  0  0  0  0  0
   25.0756  -19.8090  -13.8329 N   0  0  0  0  0  0  0  0  0  0  0  0
   25.8239  -20.0910  -11.5424 C   0  0  0  0  0  0  0  0  0  0  0  0
   26.5403  -19.0585  -11.4900 O   0  0  0  0  0  0  0  0  0  0  0  0
   25.8083  -26.4018  -15.0627 O   0  0  0  0  0  0  0  0  0  0  0  0
   23.5189  -21.1142   -8.2088 C   0  0  0  0  0  0  0  0  0  0  0  0
   24.1144  -19.8566   -8.3025 C   0  0  1  0  0  0  0  0  0  0  0  0
   25.4396  -19.9357   -9.0462 N   0  0  0  0  0  0  0  0  0  0  0  0
   25.3340  -20.5893  -10.3055 C   0  0  0  0  0  0  0  0  0  0  0  0
   26.5075  -20.5117   -8.2321 O   0  0  0  0  0  0  0  0  0  0  0  0
   26.9089  -21.6747   -8.6425 N   0  0  0  0  0  0  0  0  0  0  0  0
   27.1450  -20.0000   -7.0947 C   0  0  0  0  0  0  0  0  0  0  0  0
   27.0280  -18.7891   -6.3365 C   0  0  0  0  0  0  0  0  0  0  0  0
   28.3878  -18.5827   -5.6532 C   0  0  0  0  0  0  0  0  0  0  0  0
   29.2518  -19.6935   -6.2296 C   0  0  1  0  0  0  0  0  0  0  0  0
   28.2012  -20.7691   -6.4004 C   0  0  0  0  0  0  0  0  0  0  0  0
   27.7630  -21.2010   -5.0637 O   0  0  0  0  0  0  0  0  0  0  0  0
   28.4996  -21.8822   -4.1341 O   0  0  0  0  0  0  0  0  0  0  0  0
  1  2  1  0
  2  4  1  0
  3  2  2  0
  4  5  1  0
  6  7  1  0
  6  5  1  0
  7  8  1  0
  8  9  1  6
 10  8  1  0
 10 11  2  0
 14 13  1  6
 13 12  1  0
 14 15  1  0
 15 10  1  0
 16 14  1  0
 17 16  2  0
 18 19  1  0
 18 16  1  0
 20 19  1  0
 21 20  1  0
 22 21  1  0
 22 18  1  0
 22 23  1  1
 24 23  1  0
 25 23  2  0
M  END
$$$$
