RSP.pdb
     RDKit          3D

 25 25  0  0  1  0  0  0  0  0999 V2000
   21.3281  -22.3890   -7.3596 N   0  0  0  0  0  0  0  0  0  0  0  0
   20.4699  -22.4735   -8.4866 C   0  0  0  0  0  0  0  0  0  0  0  0
   19.5934  -23.4447   -8.4899 N   0  0  0  0  0  0  0  0  0  0  0  0
   20.5147  -21.5874   -9.5705 N   0  0  0  0  0  0  0  0  0  0  0  0
   21.7593  -21.3359  -10.2750 C   0  0  0  0  0  0  0  0  0  0  0  0
   22.5036  -20.3017   -9.5121 C   0  0  0  0  0  0  0  0  0  0  0  0
   23.7828  -19.8730  -10.1176 C   0  0  0  0  0  0  0  0  0  0  0  0
   24.7889  -20.9396  -10.3564 C   0  0  2  0  0  0  0  0  0  0  0  0
   25.5414  -21.3710   -9.2293 N   0  0  0  0  0  0  0  0  0  0  0  0
   25.6791  -20.4557  -11.4718 C   0  0  0  0  0  0  0  0  0  0  0  0
   26.5495  -19.5714  -11.2662 O   0  0  0  0  0  0  0  0  0  0  0  0
   18.9471  -23.6400   -9.2619 O   0  0  0  0  0  0  0  0  0  0  0  0
   27.2224  -20.9264  -16.0780 C   0  0  0  0  0  0  0  0  0  0  0  0
   26.4610  -21.4585  -15.0378 C   0  0  2  0  0  0  0  0  0  0  0  0
   26.2479  -20.4294  -13.9373 N   0  0  0  0  0  0  0  0  0  0  0  0
   25.5870  -20.9626  -12.7958 C   0  0  0  0  0  0  0  0  0  0  0  0
   25.5885  -19.2184  -14.4204 O   0  0  0  0  0  0  0  0  0  0  0  0
   24.3262  -19.1582  -14.1288 N   0  0  0  0  0  0  0  0  0  0  0  0
   26.1123  -18.1368  -15.1400 C   0  0  0  0  0  0  0  0  0  0  0  0
   27.4029  -17.8170  -15.6757 C   0  0  0  0  0  0  0  0  0  0  0  0
   27.4584  -16.2848  -15.7639 C   0  0  0  0  0  0  0  0  0  0  0  0
   26.1637  -15.8397  -15.1020 C   0  0  1  0  0  0  0  0  0  0  0  0
   25.2627  -16.9842  -15.5123 C   0  0  0  0  0  0  0  0  0  0  0  0
   25.0603  -16.9116  -16.9680 O   0  0  0  0  0  0  0  0  0  0  0  0
   24.3287  -15.9815  -17.6539 O   0  0  0  0  0  0  0  0  0  0  0  0
  1  2  1  0
  2  4  1  0
  3  2  2  0
  4  5  1  0
  6  7  1  0
  6  5  1  0
  7  8  1  0
  8  9  1  1
 10  8  1  0
 10 11  2  0
 14 13  1  1
 13 12  1  0
 14 15  1  0
 15 10  1  0
 16 14  1  0
 17 16  2  0
 18 19  1  0
 18 16  1  0
 20 19  1  0
 21 20  1  0
 22 21  1  0
 22 18  1  0
 22 23  1  6
 24 23  1  0
 25 23  2  0
M  END
$$$$
