VLH.pdb
     RDKit          3D

 26 26  0  0  1  0  0  0  0  0999 V2000
   14.2926  -13.0677    6.5858 C   0  0  0  0  0  0  0  0  0  0  0  0
   14.5980  -12.6355    5.1787 C   0  0  1  0  0  0  0  0  0  0  0  0
   13.4316  -11.9922    4.5135 C   0  0  0  0  0  0  0  0  0  0  0  0
   15.8788  -11.8665    5.0440 C   0  0  2  0  0  0  0  0  0  0  0  0
   16.0694  -11.6985    3.5845 N   0  0  0  0  0  0  0  0  0  0  0  0
   17.0577  -12.5372    5.6123 C   0  0  0  0  0  0  0  0  0  0  0  0
   17.6390  -13.5090    5.0079 O   0  0  0  0  0  0  0  0  0  0  0  0
   20.9953   -9.8536    8.4585 C   0  0  0  0  0  0  0  0  0  0  0  0
   20.2858  -10.8315    7.5877 C   0  0  1  0  0  0  0  0  0  0  0  0
   21.3706  -11.5581    6.7749 C   0  0  0  0  0  0  0  0  0  0  0  0
   19.5074  -11.8881    8.2897 C   0  0  0  0  0  0  0  0  0  0  0  0
   18.7578  -12.8452    7.4497 C   0  0  2  0  0  0  0  0  0  0  0  0
   17.6135  -12.1514    6.8463 N   0  0  0  0  0  0  0  0  0  0  0  0
   18.3537  -14.1074    8.0455 C   0  0  0  0  0  0  0  0  0  0  0  0
   17.2230  -14.1561    8.6438 O   0  0  0  0  0  0  0  0  0  0  0  0
   19.0788  -15.3056    8.0377 N   0  0  0  0  0  0  0  0  0  0  0  0
   18.6091  -16.5517    8.7007 C   0  0  1  0  0  0  0  0  0  0  0  0
   18.5864  -17.5604    7.5814 C   0  0  0  0  0  0  0  0  0  0  0  0
   17.3555  -17.6195    6.7959 C   0  0  0  0  0  0  0  0  0  0  0  0
   16.1961  -16.9165    6.7706 C   0  0  0  0  0  0  0  0  0  0  0  0
   15.4059  -17.3897    5.7833 N   0  0  0  0  0  0  0  0  0  0  0  0
   16.0680  -18.3800    5.1961 C   0  0  0  0  0  0  0  0  0  0  0  0
   17.2484  -18.5432    5.7843 N   0  0  0  0  0  0  0  0  0  0  0  0
   19.7193  -16.9651    9.6175 C   0  0  0  0  0  0  0  0  0  0  0  0
   19.6609  -17.8809   10.6164 O   0  0  0  0  0  0  0  0  0  0  0  0
   20.8477  -16.3911    9.4387 O   0  0  0  0  0  0  0  0  0  0  0  0
  2  1  1  1
  2  3  1  0
  4  6  1  0
  4  2  1  0
  4  5  1  6
  6 13  1  0
  7  6  2  0
  9 10  1  1
  9  8  1  0
 11  9  1  0
 12 11  1  1
 13 12  1  0
 14 15  2  0
 14 12  1  0
 16 14  1  0
 17 24  1  0
 17 16  1  0
 17 18  1  6
 19 18  1  0
 19 23  1  0
 20 19  2  0
 21 20  1  0
 21 22  1  0
 22 23  2  0
 24 25  1  0
 26 24  2  0
M  END
$$$$
