VLH.pdb
     RDKit          3D

 26 26  0  0  1  0  0  0  0  0999 V2000
   28.9557  -18.1296  -17.4873 C   0  0  0  0  0  0  0  0  0  0  0  0
   27.8016  -18.7353  -16.7382 C   0  0  1  0  0  0  0  0  0  0  0  0
   26.5712  -18.8365  -17.5706 C   0  0  0  0  0  0  0  0  0  0  0  0
   28.1486  -19.9971  -16.0050 C   0  0  2  0  0  0  0  0  0  0  0  0
   28.4256  -20.9907  -17.0684 N   0  0  0  0  0  0  0  0  0  0  0  0
   27.0833  -20.5087  -15.1298 C   0  0  0  0  0  0  0  0  0  0  0  0
   26.1594  -21.2825  -15.5716 O   0  0  0  0  0  0  0  0  0  0  0  0
   24.9508  -22.1760  -10.2826 C   0  0  0  0  0  0  0  0  0  0  0  0
   25.2955  -20.7363  -10.4453 C   0  0  1  0  0  0  0  0  0  0  0  0
   25.8906  -20.2766   -9.1037 C   0  0  0  0  0  0  0  0  0  0  0  0
   26.3113  -20.4206  -11.4864 C   0  0  0  0  0  0  0  0  0  0  0  0
   25.9157  -20.6155  -12.8968 C   0  0  2  0  0  0  0  0  0  0  0  0
   27.0182  -20.1805  -13.7629 N   0  0  0  0  0  0  0  0  0  0  0  0
   24.6489  -20.0549  -13.3354 C   0  0  0  0  0  0  0  0  0  0  0  0
   24.5415  -18.7805  -13.3908 O   0  0  0  0  0  0  0  0  0  0  0  0
   23.5053  -20.7690  -13.7146 N   0  0  0  0  0  0  0  0  0  0  0  0
   22.2151  -20.1200  -14.0711 C   0  0  1  0  0  0  0  0  0  0  0  0
   21.8978  -20.6879  -15.4303 C   0  0  0  0  0  0  0  0  0  0  0  0
   20.6071  -20.3066  -15.9997 C   0  0  0  0  0  0  0  0  0  0  0  0
   19.8108  -19.2110  -15.9292 C   0  0  0  0  0  0  0  0  0  0  0  0
   18.7274  -19.3926  -16.7144 N   0  0  0  0  0  0  0  0  0  0  0  0
   18.8474  -20.5921  -17.2716 C   0  0  0  0  0  0  0  0  0  0  0  0
   19.9717  -21.1689  -16.8603 N   0  0  0  0  0  0  0  0  0  0  0  0
   21.2008  -20.6920  -13.1287 C   0  0  0  0  0  0  0  0  0  0  0  0
   21.3582  -21.7533  -12.2988 O   0  0  0  0  0  0  0  0  0  0  0  0
   20.0597  -20.1157  -13.1034 O   0  0  0  0  0  0  0  0  0  0  0  0
  2  1  1  6
  2  3  1  0
  4  6  1  0
  4  2  1  0
  4  5  1  6
  6 13  1  0
  7  6  2  0
  9 10  1  1
  9  8  1  0
 11  9  1  0
 12 11  1  1
 13 12  1  0
 14 15  2  0
 14 12  1  0
 16 14  1  0
 17 24  1  0
 17 16  1  0
 17 18  1  6
 19 18  1  0
 19 23  1  0
 20 19  2  0
 21 20  1  0
 21 22  1  0
 22 23  2  0
 24 25  1  0
 26 24  2  0
M  END
$$$$
