VLH.pdb
     RDKit          3D

 26 26  0  0  1  0  0  0  0  0999 V2000
   25.0455  -31.3990   -8.6887 C   0  0  0  0  0  0  0  0  0  0  0  0
   25.9268  -32.3238   -7.8964 C   0  0  1  0  0  0  0  0  0  0  0  0
   25.1472  -33.2879   -7.0719 C   0  0  0  0  0  0  0  0  0  0  0  0
   27.0236  -32.9556   -8.7014 C   0  0  2  0  0  0  0  0  0  0  0  0
   26.3279  -33.8516   -9.6541 N   0  0  0  0  0  0  0  0  0  0  0  0
   27.9864  -33.7400   -7.9138 C   0  0  0  0  0  0  0  0  0  0  0  0
   27.8056  -34.9879   -7.6741 O   0  0  0  0  0  0  0  0  0  0  0  0
   32.9654  -35.2310   -6.2684 C   0  0  0  0  0  0  0  0  0  0  0  0
   32.5165  -33.8884   -5.8057 C   0  0  1  0  0  0  0  0  0  0  0  0
   33.7304  -32.9535   -5.9390 C   0  0  0  0  0  0  0  0  0  0  0  0
   31.4151  -33.2620   -6.5866 C   0  0  0  0  0  0  0  0  0  0  0  0
   30.0943  -33.9230   -6.5411 C   0  0  2  0  0  0  0  0  0  0  0  0
   29.1571  -33.1682   -7.3816 N   0  0  0  0  0  0  0  0  0  0  0  0
   29.5185  -34.2113   -5.2384 C   0  0  0  0  0  0  0  0  0  0  0  0
   28.9197  -33.2627   -4.6217 O   0  0  0  0  0  0  0  0  0  0  0  0
   29.5446  -35.4397   -4.5663 N   0  0  0  0  0  0  0  0  0  0  0  0
   28.8303  -35.6878   -3.2851 C   0  0  1  0  0  0  0  0  0  0  0  0
   28.1261  -36.9988   -3.5215 C   0  0  0  0  0  0  0  0  0  0  0  0
   26.6878  -36.9193   -3.7677 C   0  0  0  0  0  0  0  0  0  0  0  0
   25.7894  -35.9124   -3.9026 C   0  0  0  0  0  0  0  0  0  0  0  0
   24.5720  -36.4304   -4.1721 N   0  0  0  0  0  0  0  0  0  0  0  0
   24.7099  -37.7508   -4.2061 C   0  0  0  0  0  0  0  0  0  0  0  0
   25.9755  -38.0774   -3.9661 N   0  0  0  0  0  0  0  0  0  0  0  0
   29.8996  -35.9609   -2.2723 C   0  0  0  0  0  0  0  0  0  0  0  0
   29.8642  -35.6811   -0.9456 O   0  0  0  0  0  0  0  0  0  0  0  0
   30.9643  -36.5203   -2.7064 O   0  0  0  0  0  0  0  0  0  0  0  0
  2  1  1  6
  2  3  1  0
  4  6  1  0
  4  2  1  0
  4  5  1  6
  6 13  1  0
  7  6  2  0
  9 10  1  6
  9  8  1  0
 11  9  1  0
 12 11  1  1
 13 12  1  0
 14 15  2  0
 14 12  1  0
 16 14  1  0
 17 24  1  0
 17 16  1  0
 17 18  1  6
 19 18  1  0
 19 23  1  0
 20 19  2  0
 21 20  1  0
 21 22  1  0
 22 23  2  0
 24 25  1  0
 26 24  2  0
M  END
$$$$
