VLH.pdb
     RDKit          3D

 26 26  0  0  1  0  0  0  0  0999 V2000
   28.4264  -20.2528  -16.2685 C   0  0  0  0  0  0  0  0  0  0  0  0
   27.9957  -19.0407  -15.4904 C   0  0  1  0  0  0  0  0  0  0  0  0
   28.8167  -17.8391  -15.8055 C   0  0  0  0  0  0  0  0  0  0  0  0
   26.5163  -18.7945  -15.5192 C   0  0  2  0  0  0  0  0  0  0  0  0
   26.3352  -17.4886  -14.8435 N   0  0  0  0  0  0  0  0  0  0  0  0
   25.7131  -19.8134  -14.8270 C   0  0  0  0  0  0  0  0  0  0  0  0
   25.6111  -21.0121  -15.2746 O   0  0  0  0  0  0  0  0  0  0  0  0
   25.9164  -20.4398   -9.4766 C   0  0  0  0  0  0  0  0  0  0  0  0
   25.7405  -20.6648  -10.9383 C   0  0  1  0  0  0  0  0  0  0  0  0
   25.9998  -22.1610  -11.1829 C   0  0  0  0  0  0  0  0  0  0  0  0
   24.3867  -20.3774  -11.4860 C   0  0  0  0  0  0  0  0  0  0  0  0
   24.2001  -20.5368  -12.9432 C   0  0  2  0  0  0  0  0  0  0  0  0
   25.0144  -19.5324  -13.6382 N   0  0  0  0  0  0  0  0  0  0  0  0
   22.8422  -20.5628  -13.4598 C   0  0  0  0  0  0  0  0  0  0  0  0
   22.2040  -19.4555  -13.5317 O   0  0  0  0  0  0  0  0  0  0  0  0
   22.1366  -21.6900  -13.8996 N   0  0  0  0  0  0  0  0  0  0  0  0
   20.7391  -21.6352  -14.4066 C   0  0  1  0  0  0  0  0  0  0  0  0
   20.6103  -22.8946  -15.2238 C   0  0  0  0  0  0  0  0  0  0  0  0
   19.3050  -23.1310  -15.8369 C   0  0  0  0  0  0  0  0  0  0  0  0
   18.1378  -22.4442  -15.9089 C   0  0  0  0  0  0  0  0  0  0  0  0
   17.2563  -23.1353  -16.6629 N   0  0  0  0  0  0  0  0  0  0  0  0
   17.8694  -24.2447  -17.0594 C   0  0  0  0  0  0  0  0  0  0  0  0
   19.1076  -24.2714  -16.5774 N   0  0  0  0  0  0  0  0  0  0  0  0
   19.8652  -21.8221  -13.2044 C   0  0  0  0  0  0  0  0  0  0  0  0
   18.5846  -21.4034  -13.0475 O   0  0  0  0  0  0  0  0  0  0  0  0
   20.3837  -22.4460  -12.2161 O   0  0  0  0  0  0  0  0  0  0  0  0
  2  1  1  6
  2  3  1  0
  4  6  1  0
  4  2  1  0
  4  5  1  1
  6 13  1  0
  7  6  2  0
  9 10  1  1
  9  8  1  0
 11  9  1  0
 12 11  1  1
 13 12  1  0
 14 15  2  0
 14 12  1  0
 16 14  1  0
 17 24  1  0
 17 16  1  0
 17 18  1  6
 19 18  1  0
 19 23  1  0
 20 19  2  0
 21 20  1  0
 21 22  1  0
 22 23  2  0
 24 25  1  0
 26 24  2  0
M  END
$$$$
