VLH.pdb
     RDKit          3D

 26 26  0  0  1  0  0  0  0  0999 V2000
   31.7010  -30.3834  -16.7037 C   0  0  0  0  0  0  0  0  0  0  0  0
   30.6609  -30.6959  -17.7431 C   0  0  1  0  0  0  0  0  0  0  0  0
   29.3457  -31.0548  -17.1445 C   0  0  0  0  0  0  0  0  0  0  0  0
   30.5749  -29.6779  -18.8415 C   0  0  2  0  0  0  0  0  0  0  0  0
   29.6215  -30.2530  -19.8188 N   0  0  0  0  0  0  0  0  0  0  0  0
   31.8506  -29.3975  -19.5170 C   0  0  0  0  0  0  0  0  0  0  0  0
   32.4123  -30.2592  -20.2847 O   0  0  0  0  0  0  0  0  0  0  0  0
   33.1037  -24.9831  -22.3815 C   0  0  0  0  0  0  0  0  0  0  0  0
   33.1538  -26.3744  -21.8525 C   0  0  1  0  0  0  0  0  0  0  0  0
   33.9540  -27.2001  -22.8740 C   0  0  0  0  0  0  0  0  0  0  0  0
   33.8359  -26.5515  -20.5416 C   0  0  0  0  0  0  0  0  0  0  0  0
   33.8386  -27.9099  -19.9599 C   0  0  2  0  0  0  0  0  0  0  0  0
   32.5243  -28.1718  -19.3609 N   0  0  0  0  0  0  0  0  0  0  0  0
   34.9129  -28.2604  -19.0463 C   0  0  0  0  0  0  0  0  0  0  0  0
   34.7275  -28.0633  -17.7951 O   0  0  0  0  0  0  0  0  0  0  0  0
   36.1575  -28.8038  -19.3887 N   0  0  0  0  0  0  0  0  0  0  0  0
   37.2194  -29.1104  -18.3930 C   0  0  1  0  0  0  0  0  0  0  0  0
   36.5786  -30.1405  -17.4993 C   0  0  0  0  0  0  0  0  0  0  0  0
   37.4528  -30.7613  -16.5063 C   0  0  0  0  0  0  0  0  0  0  0  0
   38.1579  -30.3194  -15.4354 C   0  0  0  0  0  0  0  0  0  0  0  0
   38.7668  -31.3653  -14.8366 N   0  0  0  0  0  0  0  0  0  0  0  0
   38.4431  -32.4519  -15.5281 C   0  0  0  0  0  0  0  0  0  0  0  0
   37.6507  -32.1206  -16.5421 N   0  0  0  0  0  0  0  0  0  0  0  0
   38.2940  -29.8238  -19.1546 C   0  0  0  0  0  0  0  0  0  0  0  0
   39.4635  -30.3070  -18.6661 O   0  0  0  0  0  0  0  0  0  0  0  0
   38.0859  -29.9968  -20.4042 O   0  0  0  0  0  0  0  0  0  0  0  0
  2  1  1  1
  2  3  1  0
  4  6  1  0
  4  2  1  0
  4  5  1  6
  6 13  1  0
  7  6  2  0
  9 10  1  6
  9  8  1  0
 11  9  1  0
 12 11  1  1
 13 12  1  0
 14 15  2  0
 14 12  1  0
 16 14  1  0
 17 24  1  0
 17 16  1  0
 17 18  1  1
 19 18  1  0
 19 23  1  0
 20 19  2  0
 21 20  1  0
 21 22  1  0
 22 23  2  0
 24 25  1  0
 26 24  2  0
M  END
$$$$
