VLH.pdb
     RDKit          3D

 26 26  0  0  1  0  0  0  0  0999 V2000
   21.4074   -9.6823  -17.4726 C   0  0  0  0  0  0  0  0  0  0  0  0
   21.6196  -11.1687  -17.5474 C   0  0  1  0  0  0  0  0  0  0  0  0
   20.4782  -11.8763  -18.1906 C   0  0  0  0  0  0  0  0  0  0  0  0
   22.9637  -11.5642  -18.0831 C   0  0  2  0  0  0  0  0  0  0  0  0
   22.9889  -11.0421  -19.4693 N   0  0  0  0  0  0  0  0  0  0  0  0
   23.2102  -13.0138  -18.1070 C   0  0  0  0  0  0  0  0  0  0  0  0
   22.7428  -13.7633  -19.0383 O   0  0  0  0  0  0  0  0  0  0  0  0
   28.0186  -15.4659  -16.9061 C   0  0  0  0  0  0  0  0  0  0  0  0
   26.6682  -15.2157  -17.4822 C   0  0  1  0  0  0  0  0  0  0  0  0
   26.4825  -16.2376  -18.6166 C   0  0  0  0  0  0  0  0  0  0  0  0
   25.5176  -15.4010  -16.5565 C   0  0  0  0  0  0  0  0  0  0  0  0
   24.1696  -15.1123  -17.0886 C   0  0  2  0  0  0  0  0  0  0  0  0
   23.9711  -13.6581  -17.1138 N   0  0  0  0  0  0  0  0  0  0  0  0
   23.0355  -15.7880  -16.4812 C   0  0  0  0  0  0  0  0  0  0  0  0
   22.6678  -15.4155  -15.3130 O   0  0  0  0  0  0  0  0  0  0  0  0
   22.2806  -16.8248  -17.0440 N   0  0  0  0  0  0  0  0  0  0  0  0
   21.0329  -17.3552  -16.4318 C   0  0  1  0  0  0  0  0  0  0  0  0
   19.9392  -16.6512  -17.1927 C   0  0  0  0  0  0  0  0  0  0  0  0
   19.3775  -15.4620  -16.5556 C   0  0  0  0  0  0  0  0  0  0  0  0
   19.5709  -14.8204  -15.3766 C   0  0  0  0  0  0  0  0  0  0  0  0
   18.7933  -13.7175  -15.3331 N   0  0  0  0  0  0  0  0  0  0  0  0
   18.1205  -13.6705  -16.4771 C   0  0  0  0  0  0  0  0  0  0  0  0
   18.4512  -14.7096  -17.2367 N   0  0  0  0  0  0  0  0  0  0  0  0
   20.9657  -18.7964  -16.8349 C   0  0  0  0  0  0  0  0  0  0  0  0
   20.0959  -19.7349  -16.3847 O   0  0  0  0  0  0  0  0  0  0  0  0
   21.8233  -19.1854  -17.6998 O   0  0  0  0  0  0  0  0  0  0  0  0
  2  1  1  6
  2  3  1  0
  4  6  1  0
  4  2  1  0
  4  5  1  6
  6 13  1  0
  7  6  2  0
  9 10  1  6
  9  8  1  0
 11  9  1  0
 12 11  1  1
 13 12  1  0
 14 15  2  0
 14 12  1  0
 16 14  1  0
 17 24  1  0
 17 16  1  0
 17 18  1  6
 19 18  1  0
 19 23  1  0
 20 19  2  0
 21 20  1  0
 21 22  1  0
 22 23  2  0
 24 25  1  0
 26 24  2  0
M  END
$$$$
