VLH.pdb
     RDKit          3D

 26 26  0  0  1  0  0  0  0  0999 V2000
   19.8884   -8.4603  -20.3256 C   0  0  0  0  0  0  0  0  0  0  0  0
   19.4036   -9.8833  -20.3370 C   0  0  1  0  0  0  0  0  0  0  0  0
   18.8659  -10.2922  -21.6639 C   0  0  0  0  0  0  0  0  0  0  0  0
   20.3748  -10.8606  -19.7439 C   0  0  2  0  0  0  0  0  0  0  0  0
   19.6251  -12.1353  -19.6559 N   0  0  0  0  0  0  0  0  0  0  0  0
   20.8699  -10.4967  -18.4079 C   0  0  0  0  0  0  0  0  0  0  0  0
   20.1716  -10.6997  -17.3502 O   0  0  0  0  0  0  0  0  0  0  0  0
   23.8411  -10.2631  -14.0715 C   0  0  0  0  0  0  0  0  0  0  0  0
   24.5542   -9.8512  -15.3124 C   0  0  1  0  0  0  0  0  0  0  0  0
   25.8930  -10.6083  -15.3171 C   0  0  0  0  0  0  0  0  0  0  0  0
   23.8784  -10.1837  -16.5961 C   0  0  0  0  0  0  0  0  0  0  0  0
   22.6135   -9.4806  -16.8952 C   0  0  2  0  0  0  0  0  0  0  0  0
   22.1337   -9.9084  -18.2148 N   0  0  0  0  0  0  0  0  0  0  0  0
   22.5898   -8.0330  -16.7703 C   0  0  0  0  0  0  0  0  0  0  0  0
   23.1652   -7.3407  -17.6804 O   0  0  0  0  0  0  0  0  0  0  0  0
   21.9930   -7.2924  -15.7423 N   0  0  0  0  0  0  0  0  0  0  0  0
   22.0131   -5.8060  -15.6855 C   0  0  1  0  0  0  0  0  0  0  0  0
   20.5538   -5.4351  -15.6266 C   0  0  0  0  0  0  0  0  0  0  0  0
   19.8775   -5.2847  -16.9133 C   0  0  0  0  0  0  0  0  0  0  0  0
   20.2360   -5.4394  -18.2121 C   0  0  0  0  0  0  0  0  0  0  0  0
   19.1672   -5.2058  -19.0034 N   0  0  0  0  0  0  0  0  0  0  0  0
   18.1490   -4.9086  -18.2043 C   0  0  0  0  0  0  0  0  0  0  0  0
   18.5455   -4.9481  -16.9365 N   0  0  0  0  0  0  0  0  0  0  0  0
   22.5897   -5.4602  -14.3469 C   0  0  0  0  0  0  0  0  0  0  0  0
   23.0185   -4.2436  -13.9274 O   0  0  0  0  0  0  0  0  0  0  0  0
   22.6887   -6.4182  -13.5059 O   0  0  0  0  0  0  0  0  0  0  0  0
  2  1  1  6
  2  3  1  0
  4  6  1  0
  4  2  1  0
  4  5  1  1
  6 13  1  0
  7  6  2  0
  9 10  1  6
  9  8  1  0
 11  9  1  0
 12 11  1  6
 13 12  1  0
 14 15  2  0
 14 12  1  0
 16 14  1  0
 17 24  1  0
 17 16  1  0
 17 18  1  1
 19 18  1  0
 19 23  1  0
 20 19  2  0
 21 20  1  0
 21 22  1  0
 22 23  2  0
 24 25  1  0
 26 24  2  0
M  END
$$$$
