VLH.pdb
     RDKit          3D

 26 26  0  0  1  0  0  0  0  0999 V2000
   22.1022   -8.6539  -21.4531 C   0  0  0  0  0  0  0  0  0  0  0  0
   21.8722  -10.1355  -21.5628 C   0  0  1  0  0  0  0  0  0  0  0  0
   21.7891  -10.5970  -22.9760 C   0  0  0  0  0  0  0  0  0  0  0  0
   22.7876  -10.9574  -20.7046 C   0  0  2  0  0  0  0  0  0  0  0  0
   22.2784  -12.3434  -20.8246 N   0  0  0  0  0  0  0  0  0  0  0  0
   22.8078  -10.5701  -19.2861 C   0  0  0  0  0  0  0  0  0  0  0  0
   21.8998  -10.9590  -18.4665 O   0  0  0  0  0  0  0  0  0  0  0  0
   24.3354  -10.6234  -14.3937 C   0  0  0  0  0  0  0  0  0  0  0  0
   25.3536  -10.0308  -15.3049 C   0  0  1  0  0  0  0  0  0  0  0  0
   26.6727  -10.7698  -15.0232 C   0  0  0  0  0  0  0  0  0  0  0  0
   25.0917  -10.1782  -16.7626 C   0  0  0  0  0  0  0  0  0  0  0  0
   23.9236   -9.4611  -17.3146 C   0  0  2  0  0  0  0  0  0  0  0  0
   23.8215   -9.7547  -18.7492 N   0  0  0  0  0  0  0  0  0  0  0  0
   23.8139   -8.0347  -17.0600 C   0  0  0  0  0  0  0  0  0  0  0  0
   24.6609   -7.2561  -17.6214 O   0  0  0  0  0  0  0  0  0  0  0  0
   22.8624   -7.4006  -16.2513 N   0  0  0  0  0  0  0  0  0  0  0  0
   22.8356   -5.9320  -16.0157 C   0  0  1  0  0  0  0  0  0  0  0  0
   21.4991   -5.5099  -16.5693 C   0  0  0  0  0  0  0  0  0  0  0  0
   21.3680   -5.5430  -18.0244 C   0  0  0  0  0  0  0  0  0  0  0  0
   20.7806   -6.3766  -18.9184 C   0  0  0  0  0  0  0  0  0  0  0  0
   20.9373   -5.8807  -20.1644 N   0  0  0  0  0  0  0  0  0  0  0  0
   21.6166   -4.7454  -20.0487 C   0  0  0  0  0  0  0  0  0  0  0  0
   21.8913   -4.5137  -18.7693 N   0  0  0  0  0  0  0  0  0  0  0  0
   22.7484   -5.7623  -14.5299 C   0  0  0  0  0  0  0  0  0  0  0  0
   22.5692   -6.7352  -13.6019 O   0  0  0  0  0  0  0  0  0  0  0  0
   22.8549   -4.5677  -14.0869 O   0  0  0  0  0  0  0  0  0  0  0  0
  2  1  1  6
  2  3  1  0
  4  6  1  0
  4  2  1  0
  4  5  1  1
  6 13  1  0
  7  6  2  0
  9 10  1  6
  9  8  1  0
 11  9  1  0
 12 11  1  6
 13 12  1  0
 14 15  2  0
 14 12  1  0
 16 14  1  0
 17 24  1  0
 17 16  1  0
 17 18  1  6
 19 18  1  0
 19 23  1  0
 20 19  2  0
 21 20  1  0
 21 22  1  0
 22 23  2  0
 24 25  1  0
 26 24  2  0
M  END
$$$$
