VLH.pdb
     RDKit          3D

 26 26  0  0  1  0  0  0  0  0999 V2000
   25.4345  -17.3615  -20.8133 C   0  0  0  0  0  0  0  0  0  0  0  0
   25.3353  -18.3958  -19.7268 C   0  0  1  0  0  0  0  0  0  0  0  0
   26.6413  -19.0520  -19.4427 C   0  0  0  0  0  0  0  0  0  0  0  0
   24.6103  -17.9224  -18.5019 C   0  0  2  0  0  0  0  0  0  0  0  0
   25.3682  -16.7334  -18.0475 N   0  0  0  0  0  0  0  0  0  0  0  0
   24.5494  -18.9046  -17.4092 C   0  0  0  0  0  0  0  0  0  0  0  0
   23.8221  -19.9592  -17.4885 O   0  0  0  0  0  0  0  0  0  0  0  0
   28.8147  -20.2237  -14.1856 C   0  0  0  0  0  0  0  0  0  0  0  0
   27.5472  -20.2259  -14.9675 C   0  0  1  0  0  0  0  0  0  0  0  0
   27.2198  -21.6994  -15.2623 C   0  0  0  0  0  0  0  0  0  0  0  0
   26.3544  -19.6589  -14.2812 C   0  0  0  0  0  0  0  0  0  0  0  0
   25.0931  -19.6099  -15.0495 C   0  0  2  0  0  0  0  0  0  0  0  0
   25.2838  -18.7442  -16.2195 N   0  0  0  0  0  0  0  0  0  0  0  0
   23.8718  -19.2722  -14.3382 C   0  0  0  0  0  0  0  0  0  0  0  0
   23.7808  -18.1060  -13.8183 O   0  0  0  0  0  0  0  0  0  0  0  0
   22.7559  -20.0984  -14.1542 N   0  0  0  0  0  0  0  0  0  0  0  0
   21.5253  -19.6656  -13.4391 C   0  0  1  0  0  0  0  0  0  0  0  0
   20.9946  -18.5452  -14.2957 C   0  0  0  0  0  0  0  0  0  0  0  0
   19.7012  -17.9922  -13.8998 C   0  0  0  0  0  0  0  0  0  0  0  0
   19.1451  -17.5883  -12.7306 C   0  0  0  0  0  0  0  0  0  0  0  0
   17.9054  -17.1077  -12.9658 N   0  0  0  0  0  0  0  0  0  0  0  0
   17.6899  -17.2101  -14.2722 C   0  0  0  0  0  0  0  0  0  0  0  0
   18.7552  -17.7400  -14.8640 N   0  0  0  0  0  0  0  0  0  0  0  0
   20.5560  -20.7989  -13.5802 C   0  0  0  0  0  0  0  0  0  0  0  0
   19.5259  -21.1058  -12.7528 O   0  0  0  0  0  0  0  0  0  0  0  0
   20.7170  -21.5618  -14.5935 O   0  0  0  0  0  0  0  0  0  0  0  0
  2  1  1  6
  2  3  1  0
  4  6  1  0
  4  2  1  0
  4  5  1  1
  6 13  1  0
  7  6  2  0
  9 10  1  1
  9  8  1  0
 11  9  1  0
 12 11  1  1
 13 12  1  0
 14 15  2  0
 14 12  1  0
 16 14  1  0
 17 24  1  0
 17 16  1  0
 17 18  1  6
 19 18  1  0
 19 23  1  0
 20 19  2  0
 21 20  1  0
 21 22  1  0
 22 23  2  0
 24 25  1  0
 26 24  2  0
M  END
$$$$
