VLH.pdb
     RDKit          3D

 26 26  0  0  1  0  0  0  0  0999 V2000
   28.4812  -19.2111  -16.3649 C   0  0  0  0  0  0  0  0  0  0  0  0
   27.3869  -18.2601  -15.9672 C   0  0  1  0  0  0  0  0  0  0  0  0
   27.4345  -16.9835  -16.7320 C   0  0  0  0  0  0  0  0  0  0  0  0
   26.0261  -18.8888  -15.9120 C   0  0  2  0  0  0  0  0  0  0  0  0
   25.0983  -17.7643  -15.6488 N   0  0  0  0  0  0  0  0  0  0  0  0
   25.8643  -19.9059  -14.8623 C   0  0  0  0  0  0  0  0  0  0  0  0
   26.3411  -21.0908  -14.9903 O   0  0  0  0  0  0  0  0  0  0  0  0
   26.4876  -21.9710   -9.9039 C   0  0  0  0  0  0  0  0  0  0  0  0
   25.4282  -20.9481  -10.1260 C   0  0  1  0  0  0  0  0  0  0  0  0
   25.4924  -19.9873   -8.9267 C   0  0  0  0  0  0  0  0  0  0  0  0
   25.5753  -20.1085  -11.3461 C   0  0  0  0  0  0  0  0  0  0  0  0
   25.0145  -20.6423  -12.6047 C   0  0  2  0  0  0  0  0  0  0  0  0
   25.1808  -19.6375  -13.6617 N   0  0  0  0  0  0  0  0  0  0  0  0
   23.6582  -21.1633  -12.5822 C   0  0  0  0  0  0  0  0  0  0  0  0
   23.1845  -21.5611  -11.4614 O   0  0  0  0  0  0  0  0  0  0  0  0
   22.7897  -21.2809  -13.6747 N   0  0  0  0  0  0  0  0  0  0  0  0
   21.3733  -20.8267  -13.6477 C   0  0  1  0  0  0  0  0  0  0  0  0
   21.4850  -19.3247  -13.6009 C   0  0  0  0  0  0  0  0  0  0  0  0
   20.2231  -18.5883  -13.5666 C   0  0  0  0  0  0  0  0  0  0  0  0
   18.9192  -18.9218  -13.4001 C   0  0  0  0  0  0  0  0  0  0  0  0
   18.1647  -17.8021  -13.4115 N   0  0  0  0  0  0  0  0  0  0  0  0
   18.9919  -16.7774  -13.5828 C   0  0  0  0  0  0  0  0  0  0  0  0
   20.2415  -17.2190  -13.6795 N   0  0  0  0  0  0  0  0  0  0  0  0
   20.8144  -21.1655  -14.9956 C   0  0  0  0  0  0  0  0  0  0  0  0
   19.5180  -21.4146  -15.3075 O   0  0  0  0  0  0  0  0  0  0  0  0
   21.6522  -21.2265  -15.9595 O   0  0  0  0  0  0  0  0  0  0  0  0
  2  1  1  6
  2  3  1  0
  4  6  1  0
  4  2  1  0
  4  5  1  1
  6 13  1  0
  7  6  2  0
  9 10  1  1
  9  8  1  0
 11  9  1  0
 12 11  1  1
 13 12  1  0
 14 15  2  0
 14 12  1  0
 16 14  1  0
 17 24  1  0
 17 16  1  0
 17 18  1  6
 19 18  1  0
 19 23  1  0
 20 19  2  0
 21 20  1  0
 21 22  1  0
 22 23  2  0
 24 25  1  0
 26 24  2  0
M  END
$$$$
