VLH.pdb
     RDKit          3D

 26 26  0  0  1  0  0  0  0  0999 V2000
   27.1331  -14.6426  -16.5022 C   0  0  0  0  0  0  0  0  0  0  0  0
   26.3652  -15.8500  -16.0412 C   0  0  1  0  0  0  0  0  0  0  0  0
   25.1565  -16.1087  -16.8713 C   0  0  0  0  0  0  0  0  0  0  0  0
   27.2192  -17.0616  -15.8114 C   0  0  2  0  0  0  0  0  0  0  0  0
   27.7755  -17.3928  -17.1439 N   0  0  0  0  0  0  0  0  0  0  0  0
   26.4961  -18.2288  -15.2848 C   0  0  0  0  0  0  0  0  0  0  0  0
   25.9498  -19.0921  -16.0618 O   0  0  0  0  0  0  0  0  0  0  0  0
   25.6355  -22.3495  -11.6685 C   0  0  0  0  0  0  0  0  0  0  0  0
   25.3533  -20.9505  -11.2428 C   0  0  1  0  0  0  0  0  0  0  0  0
   25.8196  -20.8375   -9.7815 C   0  0  0  0  0  0  0  0  0  0  0  0
   26.0649  -19.8817  -11.9953 C   0  0  0  0  0  0  0  0  0  0  0  0
   25.5899  -19.5886  -13.3636 C   0  0  2  0  0  0  0  0  0  0  0  0
   26.3639  -18.4643  -13.9036 N   0  0  0  0  0  0  0  0  0  0  0  0
   24.1644  -19.3912  -13.5649 C   0  0  0  0  0  0  0  0  0  0  0  0
   23.6240  -18.3465  -13.0597 O   0  0  0  0  0  0  0  0  0  0  0  0
   23.2946  -20.2349  -14.2672 N   0  0  0  0  0  0  0  0  0  0  0  0
   21.8379  -19.9710  -14.4138 C   0  0  1  0  0  0  0  0  0  0  0  0
   21.5780  -20.2272  -15.8758 C   0  0  0  0  0  0  0  0  0  0  0  0
   20.1853  -20.1266  -16.3070 C   0  0  0  0  0  0  0  0  0  0  0  0
   19.0072  -19.8469  -15.6963 C   0  0  0  0  0  0  0  0  0  0  0  0
   18.0156  -19.8466  -16.6128 N   0  0  0  0  0  0  0  0  0  0  0  0
   18.5712  -20.1229  -17.7870 C   0  0  0  0  0  0  0  0  0  0  0  0
   19.8799  -20.2970  -17.6359 N   0  0  0  0  0  0  0  0  0  0  0  0
   21.1504  -21.0711  -13.6648 C   0  0  0  0  0  0  0  0  0  0  0  0
   19.9313  -21.0232  -13.0719 O   0  0  0  0  0  0  0  0  0  0  0  0
   21.7826  -22.1788  -13.5744 O   0  0  0  0  0  0  0  0  0  0  0  0
  2  1  1  6
  2  3  1  0
  4  6  1  0
  4  2  1  0
  4  5  1  6
  6 13  1  0
  7  6  2  0
  9 10  1  1
  9  8  1  0
 11  9  1  0
 12 11  1  1
 13 12  1  0
 14 15  2  0
 14 12  1  0
 16 14  1  0
 17 24  1  0
 17 16  1  0
 17 18  1  6
 19 18  1  0
 19 23  1  0
 20 19  2  0
 21 20  1  0
 21 22  1  0
 22 23  2  0
 24 25  1  0
 26 24  2  0
M  END
$$$$
