VLH.pdb
     RDKit          3D

 26 26  0  0  1  0  0  0  0  0999 V2000
   27.7284  -17.1137  -17.0224 C   0  0  0  0  0  0  0  0  0  0  0  0
   26.7756  -17.9778  -16.2443 C   0  0  1  0  0  0  0  0  0  0  0  0
   25.4834  -18.1851  -16.9545 C   0  0  0  0  0  0  0  0  0  0  0  0
   27.3921  -19.2396  -15.7171 C   0  0  2  0  0  0  0  0  0  0  0  0
   27.7066  -20.0414  -16.9225 N   0  0  0  0  0  0  0  0  0  0  0  0
   26.5195  -20.0221  -14.8291 C   0  0  0  0  0  0  0  0  0  0  0  0
   25.8072  -20.9955  -15.2680 O   0  0  0  0  0  0  0  0  0  0  0  0
   25.9249  -21.1373   -8.7606 C   0  0  0  0  0  0  0  0  0  0  0  0
   25.3502  -21.2073  -10.1328 C   0  0  1  0  0  0  0  0  0  0  0  0
   23.9415  -20.5960  -10.0466 C   0  0  0  0  0  0  0  0  0  0  0  0
   26.0758  -20.4453  -11.1855 C   0  0  0  0  0  0  0  0  0  0  0  0
   25.5338  -20.5075  -12.5588 C   0  0  2  0  0  0  0  0  0  0  0  0
   26.4178  -19.7491  -13.4522 N   0  0  0  0  0  0  0  0  0  0  0  0
   24.1418  -20.1432  -12.7617 C   0  0  0  0  0  0  0  0  0  0  0  0
   23.7790  -18.9554  -12.4515 O   0  0  0  0  0  0  0  0  0  0  0  0
   23.1286  -20.9646  -13.2718 N   0  0  0  0  0  0  0  0  0  0  0  0
   21.7123  -20.5301  -13.4073 C   0  0  1  0  0  0  0  0  0  0  0  0
   21.3592  -20.9131  -14.8213 C   0  0  0  0  0  0  0  0  0  0  0  0
   21.6280  -19.9055  -15.8451 C   0  0  0  0  0  0  0  0  0  0  0  0
   22.0450  -18.6150  -15.8384 C   0  0  0  0  0  0  0  0  0  0  0  0
   22.1679  -18.1766  -17.1095 N   0  0  0  0  0  0  0  0  0  0  0  0
   21.8312  -19.1865  -17.9036 C   0  0  0  0  0  0  0  0  0  0  0  0
   21.5005  -20.2445  -17.1706 N   0  0  0  0  0  0  0  0  0  0  0  0
   20.9234  -21.4390  -12.5155 C   0  0  0  0  0  0  0  0  0  0  0  0
   21.3664  -22.5525  -11.8799 O   0  0  0  0  0  0  0  0  0  0  0  0
   19.6960  -21.1312  -12.3326 O   0  0  0  0  0  0  0  0  0  0  0  0
  2  1  1  6
  2  3  1  0
  4  6  1  0
  4  2  1  0
  4  5  1  6
  6 13  1  0
  7  6  2  0
  9 10  1  1
  9  8  1  0
 11  9  1  0
 12 11  1  1
 13 12  1  0
 14 15  2  0
 14 12  1  0
 16 14  1  0
 17 24  1  0
 17 16  1  0
 17 18  1  6
 19 18  1  0
 19 23  1  0
 20 19  2  0
 21 20  1  0
 21 22  1  0
 22 23  2  0
 24 25  1  0
 26 24  2  0
M  END
$$$$
