VLH.pdb
     RDKit          3D

 26 26  0  0  1  0  0  0  0  0999 V2000
   26.2599  -10.7972  -22.2041 C   0  0  0  0  0  0  0  0  0  0  0  0
   25.1199  -10.8271  -21.2247 C   0  0  1  0  0  0  0  0  0  0  0  0
   23.8264  -10.4238  -21.8422 C   0  0  0  0  0  0  0  0  0  0  0  0
   25.0445  -12.0899  -20.4186 C   0  0  2  0  0  0  0  0  0  0  0  0
   24.6953  -13.1454  -21.3977 N   0  0  0  0  0  0  0  0  0  0  0  0
   24.0384  -12.0720  -19.3463 C   0  0  0  0  0  0  0  0  0  0  0  0
   22.8796  -12.6027  -19.4981 O   0  0  0  0  0  0  0  0  0  0  0  0
   21.1898  -12.8142  -15.1201 C   0  0  0  0  0  0  0  0  0  0  0  0
   22.6146  -12.4689  -14.8581 C   0  0  1  0  0  0  0  0  0  0  0  0
   23.1641  -13.5635  -13.9279 C   0  0  0  0  0  0  0  0  0  0  0  0
   23.5096  -12.4386  -16.0470 C   0  0  0  0  0  0  0  0  0  0  0  0
   23.2681  -11.3780  -17.0471 C   0  0  2  0  0  0  0  0  0  0  0  0
   24.2894  -11.4747  -18.0970 N   0  0  0  0  0  0  0  0  0  0  0  0
   23.1272  -10.0113  -16.5740 C   0  0  0  0  0  0  0  0  0  0  0  0
   24.1932   -9.3413  -16.3429 O   0  0  0  0  0  0  0  0  0  0  0  0
   21.9277   -9.3279  -16.3380 N   0  0  0  0  0  0  0  0  0  0  0  0
   21.8672   -7.9194  -15.8628 C   0  0  1  0  0  0  0  0  0  0  0  0
   20.8360   -7.2874  -16.7616 C   0  0  0  0  0  0  0  0  0  0  0  0
   21.3463   -6.6452  -17.9710 C   0  0  0  0  0  0  0  0  0  0  0  0
   22.5766   -6.4280  -18.4987 C   0  0  0  0  0  0  0  0  0  0  0  0
   22.4501   -5.8106  -19.6928 N   0  0  0  0  0  0  0  0  0  0  0  0
   21.1504   -5.6446  -19.9091 C   0  0  0  0  0  0  0  0  0  0  0  0
   20.4576   -6.1382  -18.8881 N   0  0  0  0  0  0  0  0  0  0  0  0
   21.2550   -7.9796  -14.4969 C   0  0  0  0  0  0  0  0  0  0  0  0
   21.4529   -7.1157  -13.4701 O   0  0  0  0  0  0  0  0  0  0  0  0
   20.4569   -8.9533  -14.2740 O   0  0  0  0  0  0  0  0  0  0  0  0
  2  1  1  6
  2  3  1  0
  4  6  1  0
  4  2  1  0
  4  5  1  6
  6 13  1  0
  7  6  2  0
  9 10  1  1
  9  8  1  0
 11  9  1  0
 12 11  1  1
 13 12  1  0
 14 15  2  0
 14 12  1  0
 16 14  1  0
 17 24  1  0
 17 16  1  0
 17 18  1  6
 19 18  1  0
 19 23  1  0
 20 19  2  0
 21 20  1  0
 21 22  1  0
 22 23  2  0
 24 25  1  0
 26 24  2  0
M  END
$$$$
