VLH.pdb
     RDKit          3D

 26 26  0  0  1  0  0  0  0  0999 V2000
   28.3006  -18.7351  -17.0863 C   0  0  0  0  0  0  0  0  0  0  0  0
   27.0927  -19.3656  -16.4513 C   0  0  1  0  0  0  0  0  0  0  0  0
   26.1018  -19.8400  -17.4563 C   0  0  0  0  0  0  0  0  0  0  0  0
   27.4209  -20.3765  -15.3927 C   0  0  2  0  0  0  0  0  0  0  0  0
   28.0064  -21.5211  -16.1287 N   0  0  0  0  0  0  0  0  0  0  0  0
   26.2648  -20.8427  -14.6126 C   0  0  0  0  0  0  0  0  0  0  0  0
   25.5820  -21.8708  -14.9653 O   0  0  0  0  0  0  0  0  0  0  0  0
   26.1486  -20.1302   -9.1267 C   0  0  0  0  0  0  0  0  0  0  0  0
   26.0161  -20.6278  -10.5242 C   0  0  1  0  0  0  0  0  0  0  0  0
   25.9019  -22.1588  -10.4324 C   0  0  0  0  0  0  0  0  0  0  0  0
   24.8182  -20.1608  -11.2739 C   0  0  0  0  0  0  0  0  0  0  0  0
   24.6718  -20.6244  -12.6694 C   0  0  2  0  0  0  0  0  0  0  0  0
   25.8443  -20.1904  -13.4387 N   0  0  0  0  0  0  0  0  0  0  0  0
   23.4375  -20.3097  -13.3686 C   0  0  0  0  0  0  0  0  0  0  0  0
   23.2093  -19.0858  -13.6662 O   0  0  0  0  0  0  0  0  0  0  0  0
   22.4462  -21.2167  -13.7640 N   0  0  0  0  0  0  0  0  0  0  0  0
   21.1938  -20.8109  -14.4567 C   0  0  1  0  0  0  0  0  0  0  0  0
   20.9207  -21.9587  -15.3939 C   0  0  0  0  0  0  0  0  0  0  0  0
   19.7220  -21.8401  -16.2214 C   0  0  0  0  0  0  0  0  0  0  0  0
   18.7708  -20.8912  -16.4060 C   0  0  0  0  0  0  0  0  0  0  0  0
   17.9001  -21.3066  -17.3507 N   0  0  0  0  0  0  0  0  0  0  0  0
   18.3057  -22.5054  -17.7534 C   0  0  0  0  0  0  0  0  0  0  0  0
   19.4031  -22.8553  -17.0908 N   0  0  0  0  0  0  0  0  0  0  0  0
   20.1211  -20.8560  -13.4120 C   0  0  0  0  0  0  0  0  0  0  0  0
   20.2265  -21.3355  -12.1476 O   0  0  0  0  0  0  0  0  0  0  0  0
   18.9790  -20.3906  -13.7494 O   0  0  0  0  0  0  0  0  0  0  0  0
  2  1  1  6
  2  3  1  0
  4  6  1  0
  4  2  1  0
  4  5  1  6
  6 13  1  0
  7  6  2  0
  9 10  1  1
  9  8  1  0
 11  9  1  0
 12 11  1  1
 13 12  1  0
 14 15  2  0
 14 12  1  0
 16 14  1  0
 17 24  1  0
 17 16  1  0
 17 18  1  6
 19 18  1  0
 19 23  1  0
 20 19  2  0
 21 20  1  0
 21 22  1  0
 22 23  2  0
 24 25  1  0
 26 24  2  0
M  END
$$$$
