VWC.pdb
     RDKit          3D

 28 29  0  0  1  0  0  0  0  0999 V2000
   11.5084  -18.3071   19.2053 C   0  0  0  0  0  0  0  0  0  0  0  0
   11.3407  -17.6131   20.5177 C   0  0  1  0  0  0  0  0  0  0  0  0
   12.4417  -16.5653   20.6204 C   0  0  0  0  0  0  0  0  0  0  0  0
   10.0316  -16.8842   20.6596 C   0  0  2  0  0  0  0  0  0  0  0  0
    9.9922  -15.8823   19.5967 N   0  0  0  0  0  0  0  0  0  0  0  0
    9.8691  -16.2189   21.9664 C   0  0  0  0  0  0  0  0  0  0  0  0
   10.3378  -15.0502   22.1303 O   0  0  0  0  0  0  0  0  0  0  0  0
    9.2158  -16.7898   23.0858 N   0  0  0  0  0  0  0  0  0  0  0  0
    9.1360  -16.1536   24.3953 C   0  0  1  0  0  0  0  0  0  0  0  0
    7.8493  -16.4552   25.0779 C   0  0  0  0  0  0  0  0  0  0  0  0
    6.9900  -15.3084   25.3819 C   0  0  0  0  0  0  0  0  0  0  0  0
    5.6544  -15.4021   25.7228 C   0  0  0  0  0  0  0  0  0  0  0  0
    5.1609  -14.1910   25.9722 N   0  0  0  0  0  0  0  0  0  0  0  0
    6.1484  -13.2821   25.8026 C   0  0  0  0  0  0  0  0  0  0  0  0
    6.1015  -11.9116   25.9436 C   0  0  0  0  0  0  0  0  0  0  0  0
    7.2441  -11.1880   25.7064 C   0  0  0  0  0  0  0  0  0  0  0  0
    8.3893  -11.8638   25.3370 C   0  0  0  0  0  0  0  0  0  0  0  0
    8.4230  -13.2317   25.2000 C   0  0  0  0  0  0  0  0  0  0  0  0
    7.2925  -13.9830   25.4327 C   0  0  0  0  0  0  0  0  0  0  0  0
   10.3416  -16.3185   25.2113 C   0  0  0  0  0  0  0  0  0  0  0  0
   11.1109  -17.2981   25.0582 O   0  0  0  0  0  0  0  0  0  0  0  0
   10.7054  -15.3815   26.2179 N   0  0  0  0  0  0  0  0  0  0  0  0
   11.7441  -15.6772   27.1790 C   0  0  1  0  0  0  0  0  0  0  0  0
   11.9180  -14.5614   28.1852 C   0  0  0  0  0  0  0  0  0  0  0  0
   10.2750  -14.1672   28.8476 S   0  0  0  0  0  0  0  0  0  0  0  0
   11.5211  -16.9447   27.8792 C   0  0  0  0  0  0  0  0  0  0  0  0
   10.3911  -17.4824   27.7919 O   0  0  0  0  0  0  0  0  0  0  0  0
   12.4850  -17.5931   28.6374 O   0  0  0  0  0  0  0  0  0  0  0  0
  2  1  1  6
  2  3  1  0
  4  2  1  0
  4  5  1  6
  6  4  1  0
  6  7  2  0
  8  6  1  0
  9  8  1  0
 10 11  1  0
  9 10  1  1
 11 19  1  0
 12 11  2  0
 12 13  1  0
 13 14  1  0
 14 15  1  0
 15 16  2  0
 17 16  1  0
 18 17  2  0
 19 14  2  0
 19 18  1  0
 20  9  1  0
 20 22  1  0
 21 20  2  0
 23 22  1  0
 23 26  1  0
 23 24  1  1
 25 24  1  0
 26 27  2  0
 26 28  1  0
M  END
$$$$
