VWC.pdb
     RDKit          3D

 28 29  0  0  1  0  0  0  0  0999 V2000
    8.1225  -13.8065   16.9712 C   0  0  0  0  0  0  0  0  0  0  0  0
    8.4571  -13.6562   18.4194 C   0  0  1  0  0  0  0  0  0  0  0  0
    7.1752  -13.2634   19.1425 C   0  0  0  0  0  0  0  0  0  0  0  0
    8.9511  -14.9223   19.0662 C   0  0  2  0  0  0  0  0  0  0  0  0
    8.0246  -15.9823   18.6745 N   0  0  0  0  0  0  0  0  0  0  0  0
    9.0121  -14.8441   20.5383 C   0  0  0  0  0  0  0  0  0  0  0  0
    9.9159  -14.1398   21.0854 O   0  0  0  0  0  0  0  0  0  0  0  0
    8.1222  -15.5073   21.4181 N   0  0  0  0  0  0  0  0  0  0  0  0
    8.2166  -15.4463   22.8719 C   0  0  1  0  0  0  0  0  0  0  0  0
    6.8740  -15.3981   23.5105 C   0  0  0  0  0  0  0  0  0  0  0  0
    6.8453  -15.0847   24.9411 C   0  0  0  0  0  0  0  0  0  0  0  0
    6.7471  -16.0284   25.9454 C   0  0  0  0  0  0  0  0  0  0  0  0
    6.7804  -15.4333   27.1359 N   0  0  0  0  0  0  0  0  0  0  0  0
    6.8992  -14.0992   26.9455 C   0  0  0  0  0  0  0  0  0  0  0  0
    6.9657  -13.0903   27.8825 C   0  0  0  0  0  0  0  0  0  0  0  0
    7.0769  -11.7938   27.4440 C   0  0  0  0  0  0  0  0  0  0  0  0
    7.1168  -11.5571   26.0850 C   0  0  0  0  0  0  0  0  0  0  0  0
    7.0497  -12.5728   25.1603 C   0  0  0  0  0  0  0  0  0  0  0  0
    6.9392  -13.8826   25.5712 C   0  0  0  0  0  0  0  0  0  0  0  0
    9.1594  -16.4086   23.4478 C   0  0  0  0  0  0  0  0  0  0  0  0
    9.1538  -17.6175   23.1112 O   0  0  0  0  0  0  0  0  0  0  0  0
   10.1294  -16.0274   24.4160 N   0  0  0  0  0  0  0  0  0  0  0  0
   11.1234  -16.9632   24.8919 C   0  0  1  0  0  0  0  0  0  0  0  0
   12.5095  -16.3583   24.9050 C   0  0  0  0  0  0  0  0  0  0  0  0
   12.8385  -15.7197   23.2384 S   0  0  0  0  0  0  0  0  0  0  0  0
   10.8049  -17.4996   26.2176 C   0  0  0  0  0  0  0  0  0  0  0  0
    9.7495  -17.1164   26.7770 O   0  0  0  0  0  0  0  0  0  0  0  0
   11.5999  -18.4097   26.8986 O   0  0  0  0  0  0  0  0  0  0  0  0
  2  1  1  6
  2  3  1  0
  4  2  1  0
  4  5  1  1
  6  4  1  0
  6  7  2  0
  8  6  1  0
  9  8  1  0
 10 11  1  0
  9 10  1  1
 11 19  1  0
 12 11  2  0
 12 13  1  0
 13 14  1  0
 14 15  1  0
 15 16  2  0
 17 16  1  0
 18 17  2  0
 19 14  2  0
 19 18  1  0
 20  9  1  0
 20 22  1  0
 21 20  2  0
 23 22  1  0
 23 26  1  0
 23 24  1  1
 25 24  1  0
 26 27  2  0
 26 28  1  0
M  END
$$$$
