VWC.pdb
     RDKit          3D

 28 29  0  0  1  0  0  0  0  0999 V2000
   11.6663  -19.3533   21.1620 C   0  0  0  0  0  0  0  0  0  0  0  0
   11.1682  -18.3380   20.1858 C   0  0  1  0  0  0  0  0  0  0  0  0
   11.0481  -19.0297   18.8339 C   0  0  0  0  0  0  0  0  0  0  0  0
    9.8061  -17.7900   20.5168 C   0  0  2  0  0  0  0  0  0  0  0  0
    9.4307  -16.9063   19.4153 N   0  0  0  0  0  0  0  0  0  0  0  0
    9.7692  -17.0359   21.7844 C   0  0  0  0  0  0  0  0  0  0  0  0
   10.4432  -15.9649   21.8893 O   0  0  0  0  0  0  0  0  0  0  0  0
    9.0241  -17.4165   22.9272 N   0  0  0  0  0  0  0  0  0  0  0  0
    9.1532  -16.7814   24.2334 C   0  0  1  0  0  0  0  0  0  0  0  0
    7.8316  -16.5983   24.8910 C   0  0  0  0  0  0  0  0  0  0  0  0
    7.4564  -15.2222   25.2245 C   0  0  0  0  0  0  0  0  0  0  0  0
    6.4874  -14.4944   24.5610 C   0  0  0  0  0  0  0  0  0  0  0  0
    6.3557  -13.2933   25.1202 N   0  0  0  0  0  0  0  0  0  0  0  0
    7.2252  -13.2031   26.1526 C   0  0  0  0  0  0  0  0  0  0  0  0
    7.4467  -12.1486   27.0125 C   0  0  0  0  0  0  0  0  0  0  0  0
    8.4002  -12.2886   27.9905 C   0  0  0  0  0  0  0  0  0  0  0  0
    9.0955  -13.4780   28.0701 C   0  0  0  0  0  0  0  0  0  0  0  0
    8.8649  -14.5227   27.2060 C   0  0  0  0  0  0  0  0  0  0  0  0
    7.9138  -14.4109   26.2163 C   0  0  0  0  0  0  0  0  0  0  0  0
   10.2061  -17.3576   25.0735 C   0  0  0  0  0  0  0  0  0  0  0  0
   10.2856  -18.5940   25.2735 O   0  0  0  0  0  0  0  0  0  0  0  0
   11.1924  -16.5512   25.7062 N   0  0  0  0  0  0  0  0  0  0  0  0
   12.2786  -17.1424   26.4550 C   0  0  1  0  0  0  0  0  0  0  0  0
   13.5737  -16.3841   26.2674 C   0  0  0  0  0  0  0  0  0  0  0  0
   13.2080  -14.6211   26.4954 S   0  0  0  0  0  0  0  0  0  0  0  0
   11.9788  -17.2640   27.8840 C   0  0  0  0  0  0  0  0  0  0  0  0
   10.9021  -16.7811   28.3096 O   0  0  0  0  0  0  0  0  0  0  0  0
   12.8138  -17.8827   28.8028 O   0  0  0  0  0  0  0  0  0  0  0  0
  2  1  1  1
  2  3  1  0
  4  2  1  0
  4  5  1  6
  6  4  1  0
  6  7  2  0
  8  6  1  0
  9  8  1  0
 10 11  1  0
  9 10  1  1
 11 19  1  0
 12 11  2  0
 12 13  1  0
 13 14  1  0
 14 15  1  0
 15 16  2  0
 17 16  1  0
 18 17  2  0
 19 14  2  0
 19 18  1  0
 20  9  1  0
 20 22  1  0
 21 20  2  0
 23 22  1  0
 23 26  1  0
 23 24  1  1
 25 24  1  0
 26 27  2  0
 26 28  1  0
M  END
$$$$
