VWC.pdb
     RDKit          3D

 28 29  0  0  1  0  0  0  0  0999 V2000
    8.0528  -13.0992   18.3017 C   0  0  0  0  0  0  0  0  0  0  0  0
    8.2097  -13.7165   19.6531 C   0  0  1  0  0  0  0  0  0  0  0  0
    6.9346  -14.4969   19.9459 C   0  0  0  0  0  0  0  0  0  0  0  0
    9.3499  -14.6943   19.7487 C   0  0  2  0  0  0  0  0  0  0  0  0
    9.1143  -15.7141   18.7290 N   0  0  0  0  0  0  0  0  0  0  0  0
    9.4604  -15.3396   21.0708 C   0  0  0  0  0  0  0  0  0  0  0  0
    9.1322  -16.5599   21.1951 O   0  0  0  0  0  0  0  0  0  0  0  0
    9.9145  -14.6946   22.2471 N   0  0  0  0  0  0  0  0  0  0  0  0
    9.2449  -14.7888   23.5389 C   0  0  1  0  0  0  0  0  0  0  0  0
    7.7805  -14.5566   23.4197 C   0  0  0  0  0  0  0  0  0  0  0  0
    7.0619  -14.2828   24.6664 C   0  0  0  0  0  0  0  0  0  0  0  0
    6.2921  -15.2089   25.3435 C   0  0  0  0  0  0  0  0  0  0  0  0
    5.7993  -14.6673   26.4555 N   0  0  0  0  0  0  0  0  0  0  0  0
    6.2277  -13.3866   26.5353 C   0  0  0  0  0  0  0  0  0  0  0  0
    5.9666  -12.4418   27.5044 C   0  0  0  0  0  0  0  0  0  0  0  0
    6.5118  -11.1895   27.3639 C   0  0  0  0  0  0  0  0  0  0  0  0
    7.2970  -10.9309   26.2588 C   0  0  0  0  0  0  0  0  0  0  0  0
    7.5500  -11.8826   25.2988 C   0  0  0  0  0  0  0  0  0  0  0  0
    7.0174  -13.1473   25.4144 C   0  0  0  0  0  0  0  0  0  0  0  0
    9.6403  -15.9568   24.3302 C   0  0  0  0  0  0  0  0  0  0  0  0
   10.4483  -15.8614   25.2857 O   0  0  0  0  0  0  0  0  0  0  0  0
    9.1323  -17.2578   24.0606 N   0  0  0  0  0  0  0  0  0  0  0  0
    9.4480  -18.3795   24.9163 C   0  0  1  0  0  0  0  0  0  0  0  0
    8.4778  -19.5246   24.7290 C   0  0  0  0  0  0  0  0  0  0  0  0
    6.8169  -18.8947   25.1008 S   0  0  0  0  0  0  0  0  0  0  0  0
   10.8206  -18.8591   24.7352 C   0  0  0  0  0  0  0  0  0  0  0  0
   11.2388  -19.7670   25.4931 O   0  0  0  0  0  0  0  0  0  0  0  0
   11.6932  -18.3712   23.7737 O   0  0  0  0  0  0  0  0  0  0  0  0
  2  1  1  6
  2  3  1  0
  4  2  1  0
  4  5  1  6
  6  4  1  0
  6  7  2  0
  8  6  1  0
  9  8  1  0
 10 11  1  0
  9 10  1  6
 11 19  1  0
 12 11  2  0
 12 13  1  0
 13 14  1  0
 14 15  1  0
 15 16  2  0
 17 16  1  0
 18 17  2  0
 19 14  2  0
 19 18  1  0
 20  9  1  0
 20 22  1  0
 21 20  2  0
 23 22  1  0
 23 26  1  0
 23 24  1  6
 25 24  1  0
 26 27  2  0
 26 28  1  0
M  END
$$$$
