VWC.pdb
     RDKit          3D

 28 29  0  0  1  0  0  0  0  0999 V2000
   10.2320  -20.4442   21.1713 C   0  0  0  0  0  0  0  0  0  0  0  0
   10.3124  -19.7985   19.8264 C   0  0  1  0  0  0  0  0  0  0  0  0
   10.1110  -20.8924   18.7856 C   0  0  0  0  0  0  0  0  0  0  0  0
    9.2474  -18.7636   19.5817 C   0  0  2  0  0  0  0  0  0  0  0  0
    9.4058  -18.3177   18.1992 N   0  0  0  0  0  0  0  0  0  0  0  0
    9.3404  -17.6009   20.4852 C   0  0  0  0  0  0  0  0  0  0  0  0
   10.2319  -16.7214   20.2751 O   0  0  0  0  0  0  0  0  0  0  0  0
    8.4952  -17.3762   21.5992 N   0  0  0  0  0  0  0  0  0  0  0  0
    8.6682  -16.2809   22.5461 C   0  0  1  0  0  0  0  0  0  0  0  0
    7.4166  -15.4950   22.7153 C   0  0  0  0  0  0  0  0  0  0  0  0
    7.5124  -14.2898   23.5425 C   0  0  0  0  0  0  0  0  0  0  0  0
    7.9652  -13.0657   23.0893 C   0  0  0  0  0  0  0  0  0  0  0  0
    7.9008  -12.1646   24.0672 N   0  0  0  0  0  0  0  0  0  0  0  0
    7.4104  -12.7675   25.1745 C   0  0  0  0  0  0  0  0  0  0  0  0
    7.1767  -12.2331   26.4235 C   0  0  0  0  0  0  0  0  0  0  0  0
    6.6774  -13.0531   27.4052 C   0  0  0  0  0  0  0  0  0  0  0  0
    6.4316  -14.3762   27.0992 C   0  0  0  0  0  0  0  0  0  0  0  0
    6.6690  -14.8971   25.8488 C   0  0  0  0  0  0  0  0  0  0  0  0
    7.1683  -14.0978   24.8446 C   0  0  0  0  0  0  0  0  0  0  0  0
    9.3478  -16.6673   23.7851 C   0  0  0  0  0  0  0  0  0  0  0  0
    8.9071  -17.5853   24.5186 O   0  0  0  0  0  0  0  0  0  0  0  0
   10.5397  -16.0264   24.2234 N   0  0  0  0  0  0  0  0  0  0  0  0
   11.2872  -16.5245   25.3562 C   0  0  1  0  0  0  0  0  0  0  0  0
   12.7179  -16.0339   25.3498 C   0  0  0  0  0  0  0  0  0  0  0  0
   13.4857  -16.6206   23.8136 S   0  0  0  0  0  0  0  0  0  0  0  0
   10.6570  -16.1956   26.6373 C   0  0  0  0  0  0  0  0  0  0  0  0
    9.5740  -15.5626   26.6229 O   0  0  0  0  0  0  0  0  0  0  0  0
   11.1835  -16.5412   27.8732 O   0  0  0  0  0  0  0  0  0  0  0  0
  2  1  1  1
  2  3  1  0
  4  2  1  0
  4  5  1  6
  6  4  1  0
  6  7  2  0
  8  6  1  0
  9  8  1  0
 10 11  1  0
  9 10  1  1
 11 19  1  0
 12 11  2  0
 12 13  1  0
 13 14  1  0
 14 15  1  0
 15 16  2  0
 17 16  1  0
 18 17  2  0
 19 14  2  0
 19 18  1  0
 20  9  1  0
 20 22  1  0
 21 20  2  0
 23 22  1  0
 23 26  1  0
 23 24  1  1
 25 24  1  0
 26 27  2  0
 26 28  1  0
M  END
$$$$
