VWC.pdb
     RDKit          3D

 28 29  0  0  1  0  0  0  0  0999 V2000
    8.2942  -12.3095   20.4213 C   0  0  0  0  0  0  0  0  0  0  0  0
    7.3667  -13.4797   20.4700 C   0  0  1  0  0  0  0  0  0  0  0  0
    6.5337  -13.4513   19.1950 C   0  0  0  0  0  0  0  0  0  0  0  0
    8.0665  -14.8118   20.5031 C   0  0  2  0  0  0  0  0  0  0  0  0
    7.0237  -15.8344   20.4573 N   0  0  0  0  0  0  0  0  0  0  0  0
    8.8945  -15.0100   21.7081 C   0  0  0  0  0  0  0  0  0  0  0  0
    9.9568  -14.3291   21.8499 O   0  0  0  0  0  0  0  0  0  0  0  0
    8.5961  -15.9217   22.7500 N   0  0  0  0  0  0  0  0  0  0  0  0
    9.4135  -16.0892   23.9457 C   0  0  1  0  0  0  0  0  0  0  0  0
    8.5819  -16.3574   25.1495 C   0  0  0  0  0  0  0  0  0  0  0  0
    7.5608  -15.3573   25.4704 C   0  0  0  0  0  0  0  0  0  0  0  0
    6.2013  -15.6035   25.4761 C   0  0  0  0  0  0  0  0  0  0  0  0
    5.5403  -14.5065   25.8400 N   0  0  0  0  0  0  0  0  0  0  0  0
    6.4386  -13.5237   26.0788 C   0  0  0  0  0  0  0  0  0  0  0  0
    6.2173  -12.2208   26.4710 C   0  0  0  0  0  0  0  0  0  0  0  0
    7.3004  -11.3947   26.6440 C   0  0  0  0  0  0  0  0  0  0  0  0
    8.5628  -11.9041   26.4175 C   0  0  0  0  0  0  0  0  0  0  0  0
    8.7701  -13.2061   26.0266 C   0  0  0  0  0  0  0  0  0  0  0  0
    7.7028  -14.0576   25.8465 C   0  0  0  0  0  0  0  0  0  0  0  0
   10.5655  -16.9751   23.7596 C   0  0  0  0  0  0  0  0  0  0  0  0
   10.4646  -18.0660   23.1474 O   0  0  0  0  0  0  0  0  0  0  0  0
   11.8565  -16.6493   24.2601 N   0  0  0  0  0  0  0  0  0  0  0  0
   12.9708  -17.5584   24.1121 C   0  0  1  0  0  0  0  0  0  0  0  0
   14.1661  -16.8888   23.4713 C   0  0  0  0  0  0  0  0  0  0  0  0
   15.5078  -18.1097   23.4178 S   0  0  0  0  0  0  0  0  0  0  0  0
   13.3695  -18.1742   25.3804 C   0  0  0  0  0  0  0  0  0  0  0  0
   13.1537  -17.5425   26.4426 O   0  0  0  0  0  0  0  0  0  0  0  0
   13.9739  -19.4184   25.4835 O   0  0  0  0  0  0  0  0  0  0  0  0
  2  1  1  6
  2  3  1  0
  4  2  1  0
  4  5  1  1
  6  4  1  0
  6  7  2  0
  8  6  1  0
  9  8  1  0
 10 11  1  0
  9 10  1  1
 11 19  1  0
 12 11  2  0
 12 13  1  0
 13 14  1  0
 14 15  1  0
 15 16  2  0
 17 16  1  0
 18 17  2  0
 19 14  2  0
 19 18  1  0
 20  9  1  0
 20 22  1  0
 21 20  2  0
 23 22  1  0
 23 26  1  0
 23 24  1  1
 25 24  1  0
 26 27  2  0
 26 28  1  0
M  END
$$$$
