VWC.pdb
     RDKit          3D

 28 29  0  0  1  0  0  0  0  0999 V2000
    9.5583  -14.2773   19.6682 C   0  0  0  0  0  0  0  0  0  0  0  0
    8.1368  -14.0176   20.0475 C   0  0  1  0  0  0  0  0  0  0  0  0
    7.3060  -14.0952   18.7731 C   0  0  0  0  0  0  0  0  0  0  0  0
    7.5651  -15.0311   21.0021 C   0  0  2  0  0  0  0  0  0  0  0  0
    6.1502  -14.7035   21.1636 N   0  0  0  0  0  0  0  0  0  0  0  0
    8.2224  -15.0293   22.3230 C   0  0  0  0  0  0  0  0  0  0  0  0
    8.2471  -13.9568   23.0023 O   0  0  0  0  0  0  0  0  0  0  0  0
    8.8461  -16.1549   22.9145 N   0  0  0  0  0  0  0  0  0  0  0  0
    9.6772  -16.0916   24.1109 C   0  0  1  0  0  0  0  0  0  0  0  0
    8.8951  -16.3833   25.3421 C   0  0  0  0  0  0  0  0  0  0  0  0
    7.8158  -15.4466   25.6641 C   0  0  0  0  0  0  0  0  0  0  0  0
    6.4699  -15.7404   25.5598 C   0  0  0  0  0  0  0  0  0  0  0  0
    5.7430  -14.6977   25.9559 N   0  0  0  0  0  0  0  0  0  0  0  0
    6.5836  -13.7042   26.3254 C   0  0  0  0  0  0  0  0  0  0  0  0
    6.2850  -12.4429   26.7945 C   0  0  0  0  0  0  0  0  0  0  0  0
    7.3204  -11.5942   27.0997 C   0  0  0  0  0  0  0  0  0  0  0  0
    8.6144  -12.0403   26.9233 C   0  0  0  0  0  0  0  0  0  0  0  0
    8.8989  -13.3015   26.4545 C   0  0  0  0  0  0  0  0  0  0  0  0
    7.8806  -14.1743   26.1416 C   0  0  0  0  0  0  0  0  0  0  0  0
   10.9536  -16.7999   23.9868 C   0  0  0  0  0  0  0  0  0  0  0  0
   11.0085  -17.9968   23.6135 O   0  0  0  0  0  0  0  0  0  0  0  0
   12.1961  -16.1729   24.2810 N   0  0  0  0  0  0  0  0  0  0  0  0
   13.4370  -16.9140   24.2508 C   0  0  1  0  0  0  0  0  0  0  0  0
   14.6309  -16.0101   24.0382 C   0  0  0  0  0  0  0  0  0  0  0  0
   14.3541  -15.1005   22.4923 S   0  0  0  0  0  0  0  0  0  0  0  0
   13.6391  -17.7260   25.4535 C   0  0  0  0  0  0  0  0  0  0  0  0
   12.7862  -17.6540   26.3706 O   0  0  0  0  0  0  0  0  0  0  0  0
   14.7193  -18.5749   25.6451 O   0  0  0  0  0  0  0  0  0  0  0  0
  2  1  1  6
  2  3  1  0
  4  2  1  0
  4  5  1  1
  6  4  1  0
  6  7  2  0
  8  6  1  0
  9  8  1  0
 10 11  1  0
  9 10  1  1
 11 19  1  0
 12 11  2  0
 12 13  1  0
 13 14  1  0
 14 15  1  0
 15 16  2  0
 17 16  1  0
 18 17  2  0
 19 14  2  0
 19 18  1  0
 20  9  1  0
 20 22  1  0
 21 20  2  0
 23 22  1  0
 23 26  1  0
 23 24  1  1
 25 24  1  0
 26 27  2  0
 26 28  1  0
M  END
$$$$
