VWC.pdb
     RDKit          3D

 28 29  0  0  1  0  0  0  0  0999 V2000
    9.7194  -18.2773   19.6861 C   0  0  0  0  0  0  0  0  0  0  0  0
    8.6983  -17.2222   19.4101 C   0  0  1  0  0  0  0  0  0  0  0  0
    7.8585  -17.7010   18.2329 C   0  0  0  0  0  0  0  0  0  0  0  0
    7.7484  -16.9788   20.5519 C   0  0  2  0  0  0  0  0  0  0  0  0
    6.7475  -16.0297   20.0696 N   0  0  0  0  0  0  0  0  0  0  0  0
    8.4044  -16.4305   21.7543 C   0  0  0  0  0  0  0  0  0  0  0  0
    8.9673  -15.2941   21.6904 O   0  0  0  0  0  0  0  0  0  0  0  0
    8.4610  -17.0831   23.0100 N   0  0  0  0  0  0  0  0  0  0  0  0
    9.2353  -16.5986   24.1465 C   0  0  1  0  0  0  0  0  0  0  0  0
    8.4479  -16.6382   25.4079 C   0  0  0  0  0  0  0  0  0  0  0  0
    7.4815  -15.5552   25.6055 C   0  0  0  0  0  0  0  0  0  0  0  0
    6.1106  -15.7257   25.6247 C   0  0  0  0  0  0  0  0  0  0  0  0
    5.5090  -14.5611   25.8580 N   0  0  0  0  0  0  0  0  0  0  0  0
    6.4587  -13.6076   25.9955 C   0  0  0  0  0  0  0  0  0  0  0  0
    6.3072  -12.2592   26.2386 C   0  0  0  0  0  0  0  0  0  0  0  0
    7.4331  -11.4784   26.3299 C   0  0  0  0  0  0  0  0  0  0  0  0
    8.6667  -12.0769   26.1740 C   0  0  0  0  0  0  0  0  0  0  0  0
    8.8042  -13.4237   25.9320 C   0  0  0  0  0  0  0  0  0  0  0  0
    7.6927  -14.2312   25.8367 C   0  0  0  0  0  0  0  0  0  0  0  0
   10.5885  -17.1547   24.2250 C   0  0  0  0  0  0  0  0  0  0  0  0
   10.7920  -18.3930   24.2250 O   0  0  0  0  0  0  0  0  0  0  0  0
   11.7415  -16.3255   24.3050 N   0  0  0  0  0  0  0  0  0  0  0  0
   13.0731  -16.8885   24.3021 C   0  0  1  0  0  0  0  0  0  0  0  0
   14.0747  -15.9689   23.6398 C   0  0  0  0  0  0  0  0  0  0  0  0
   13.5178  -15.6986   21.9338 S   0  0  0  0  0  0  0  0  0  0  0  0
   13.5392  -17.2430   25.6451 C   0  0  0  0  0  0  0  0  0  0  0  0
   14.7050  -17.6885   25.7723 O   0  0  0  0  0  0  0  0  0  0  0  0
   12.7701  -17.1170   26.7926 O   0  0  0  0  0  0  0  0  0  0  0  0
  2  1  1  1
  2  3  1  0
  4  2  1  0
  4  5  1  6
  6  4  1  0
  6  7  2  0
  8  6  1  0
  9  8  1  0
 10 11  1  0
  9 10  1  1
 11 19  1  0
 12 11  2  0
 12 13  1  0
 13 14  1  0
 14 15  1  0
 15 16  2  0
 17 16  1  0
 18 17  2  0
 19 14  2  0
 19 18  1  0
 20  9  1  0
 20 22  1  0
 21 20  2  0
 23 22  1  0
 23 26  1  0
 23 24  1  1
 25 24  1  0
 26 27  2  0
 26 28  1  0
M  END
$$$$
