VWC.pdb
     RDKit          3D

 28 29  0  0  1  0  0  0  0  0999 V2000
    9.6384  -15.4212   19.4185 C   0  0  0  0  0  0  0  0  0  0  0  0
    8.2610  -14.8809   19.6251 C   0  0  1  0  0  0  0  0  0  0  0  0
    7.4602  -15.1873   18.3660 C   0  0  0  0  0  0  0  0  0  0  0  0
    7.5235  -15.5134   20.7746 C   0  0  2  0  0  0  0  0  0  0  0  0
    6.2059  -14.8837   20.8247 N   0  0  0  0  0  0  0  0  0  0  0  0
    8.2003  -15.3378   22.0738 C   0  0  0  0  0  0  0  0  0  0  0  0
    8.4320  -14.1640   22.4992 O   0  0  0  0  0  0  0  0  0  0  0  0
    8.6256  -16.3981   22.9109 N   0  0  0  0  0  0  0  0  0  0  0  0
    9.5042  -16.2261   24.0618 C   0  0  1  0  0  0  0  0  0  0  0  0
    8.7706  -16.3899   25.3453 C   0  0  0  0  0  0  0  0  0  0  0  0
    7.6740  -15.4505   25.5921 C   0  0  0  0  0  0  0  0  0  0  0  0
    6.3338  -15.7709   25.4917 C   0  0  0  0  0  0  0  0  0  0  0  0
    5.5871  -14.7154   25.8095 N   0  0  0  0  0  0  0  0  0  0  0  0
    6.4086  -13.6872   26.1223 C   0  0  0  0  0  0  0  0  0  0  0  0
    6.0861  -12.4023   26.5035 C   0  0  0  0  0  0  0  0  0  0  0  0
    7.1052  -11.5198   26.7640 C   0  0  0  0  0  0  0  0  0  0  0  0
    8.4076  -11.9569   26.6326 C   0  0  0  0  0  0  0  0  0  0  0  0
    8.7161  -13.2418   26.2516 C   0  0  0  0  0  0  0  0  0  0  0  0
    7.7145  -14.1487   25.9852 C   0  0  0  0  0  0  0  0  0  0  0  0
   10.7712  -16.9543   23.9571 C   0  0  0  0  0  0  0  0  0  0  0  0
   10.8059  -18.1785   23.6830 O   0  0  0  0  0  0  0  0  0  0  0  0
   12.0267  -16.3169   24.1593 N   0  0  0  0  0  0  0  0  0  0  0  0
   13.2693  -17.0393   24.0037 C   0  0  1  0  0  0  0  0  0  0  0  0
   14.3903  -16.1411   23.5300 C   0  0  0  0  0  0  0  0  0  0  0  0
   14.4211  -14.6908   24.6206 S   0  0  0  0  0  0  0  0  0  0  0  0
   13.6756  -17.7341   25.2279 C   0  0  0  0  0  0  0  0  0  0  0  0
   13.0115  -17.5356   26.2735 O   0  0  0  0  0  0  0  0  0  0  0  0
   14.7541  -18.6030   25.3063 O   0  0  0  0  0  0  0  0  0  0  0  0
  2  1  1  6
  2  3  1  0
  4  2  1  0
  4  5  1  1
  6  4  1  0
  6  7  2  0
  8  6  1  0
  9  8  1  0
 10 11  1  0
  9 10  1  1
 11 19  1  0
 12 11  2  0
 12 13  1  0
 13 14  1  0
 14 15  1  0
 15 16  2  0
 17 16  1  0
 18 17  2  0
 19 14  2  0
 19 18  1  0
 20  9  1  0
 20 22  1  0
 21 20  2  0
 23 22  1  0
 23 26  1  0
 23 24  1  1
 25 24  1  0
 26 27  2  0
 26 28  1  0
M  END
$$$$
