VWC.pdb
     RDKit          3D

 28 29  0  0  1  0  0  0  0  0999 V2000
    9.3529  -13.5998   19.6604 C   0  0  0  0  0  0  0  0  0  0  0  0
    7.9131  -13.5772   20.0584 C   0  0  1  0  0  0  0  0  0  0  0  0
    7.0887  -13.5690   18.7774 C   0  0  0  0  0  0  0  0  0  0  0  0
    7.4791  -14.7832   20.8475 C   0  0  2  0  0  0  0  0  0  0  0  0
    6.0286  -14.6872   20.9961 N   0  0  0  0  0  0  0  0  0  0  0  0
    8.1039  -14.8676   22.1814 C   0  0  0  0  0  0  0  0  0  0  0  0
    8.0915  -13.8480   22.9381 O   0  0  0  0  0  0  0  0  0  0  0  0
    8.7345  -16.0228   22.7043 N   0  0  0  0  0  0  0  0  0  0  0  0
    9.5833  -16.0223   23.8900 C   0  0  1  0  0  0  0  0  0  0  0  0
    8.8303  -16.4258   25.1077 C   0  0  0  0  0  0  0  0  0  0  0  0
    7.7328  -15.5453   25.5152 C   0  0  0  0  0  0  0  0  0  0  0  0
    6.4006  -15.9111   25.5243 C   0  0  0  0  0  0  0  0  0  0  0  0
    5.6541  -14.9054   25.9760 N   0  0  0  0  0  0  0  0  0  0  0  0
    6.4680  -13.8658   26.2708 C   0  0  0  0  0  0  0  0  0  0  0  0
    6.1422  -12.6184   26.7588 C   0  0  0  0  0  0  0  0  0  0  0  0
    7.1523  -11.7135   26.9739 C   0  0  0  0  0  0  0  0  0  0  0  0
    8.4492  -12.0916   26.6919 C   0  0  0  0  0  0  0  0  0  0  0  0
    8.7611  -13.3395   26.2054 C   0  0  0  0  0  0  0  0  0  0  0  0
    7.7687  -14.2677   25.9814 C   0  0  0  0  0  0  0  0  0  0  0  0
   10.8770  -16.6818   23.6958 C   0  0  0  0  0  0  0  0  0  0  0  0
   10.9960  -17.6952   22.9651 O   0  0  0  0  0  0  0  0  0  0  0  0
   12.0649  -16.2120   24.3218 N   0  0  0  0  0  0  0  0  0  0  0  0
   13.3021  -16.9552   24.2385 C   0  0  1  0  0  0  0  0  0  0  0  0
   14.5059  -16.0830   24.5171 C   0  0  0  0  0  0  0  0  0  0  0  0
   14.5038  -14.7470   23.2888 S   0  0  0  0  0  0  0  0  0  0  0  0
   13.3206  -18.1220   25.1244 C   0  0  0  0  0  0  0  0  0  0  0  0
   12.3326  -18.3173   25.8724 O   0  0  0  0  0  0  0  0  0  0  0  0
   14.3665  -19.0308   25.1900 O   0  0  0  0  0  0  0  0  0  0  0  0
  2  1  1  6
  2  3  1  0
  4  2  1  0
  4  5  1  1
  6  4  1  0
  6  7  2  0
  8  6  1  0
  9  8  1  0
 10 11  1  0
  9 10  1  1
 11 19  1  0
 12 11  2  0
 12 13  1  0
 13 14  1  0
 14 15  1  0
 15 16  2  0
 17 16  1  0
 18 17  2  0
 19 14  2  0
 19 18  1  0
 20  9  1  0
 20 22  1  0
 21 20  2  0
 23 22  1  0
 23 26  1  0
 23 24  1  1
 25 24  1  0
 26 27  2  0
 26 28  1  0
M  END
$$$$
