VWC.pdb
     RDKit          3D

 28 29  0  0  1  0  0  0  0  0999 V2000
    6.9570  -14.0720   19.5472 C   0  0  0  0  0  0  0  0  0  0  0  0
    7.7534  -14.0041   20.8094 C   0  0  1  0  0  0  0  0  0  0  0  0
    6.7647  -13.9521   21.9671 C   0  0  0  0  0  0  0  0  0  0  0  0
    8.6325  -15.2036   21.0415 C   0  0  2  0  0  0  0  0  0  0  0  0
    7.7674  -16.3787   20.9639 N   0  0  0  0  0  0  0  0  0  0  0  0
    9.3177  -15.1849   22.3480 C   0  0  0  0  0  0  0  0  0  0  0  0
   10.1200  -14.2375   22.6145 O   0  0  0  0  0  0  0  0  0  0  0  0
    9.1516  -16.1625   23.3592 N   0  0  0  0  0  0  0  0  0  0  0  0
    9.8800  -16.1609   24.6224 C   0  0  1  0  0  0  0  0  0  0  0  0
    8.9656  -16.3046   25.7868 C   0  0  0  0  0  0  0  0  0  0  0  0
    7.8254  -15.3862   25.8356 C   0  0  0  0  0  0  0  0  0  0  0  0
    6.5182  -15.7498   25.5751 C   0  0  0  0  0  0  0  0  0  0  0  0
    5.7125  -14.7019   25.7346 N   0  0  0  0  0  0  0  0  0  0  0  0
    6.4619  -13.6361   26.0989 C   0  0  0  0  0  0  0  0  0  0  0  0
    6.0629  -12.3438   26.3652 C   0  0  0  0  0  0  0  0  0  0  0  0
    7.0183  -11.4203   26.7117 C   0  0  0  0  0  0  0  0  0  0  0  0
    8.3358  -11.8257   26.7779 C   0  0  0  0  0  0  0  0  0  0  0  0
    8.7208  -13.1184   26.5098 C   0  0  0  0  0  0  0  0  0  0  0  0
    7.7842  -14.0659   26.1611 C   0  0  0  0  0  0  0  0  0  0  0  0
   11.0594  -17.0299   24.6301 C   0  0  0  0  0  0  0  0  0  0  0  0
   10.9708  -18.2616   24.4066 O   0  0  0  0  0  0  0  0  0  0  0  0
   12.3648  -16.5279   24.8901 N   0  0  0  0  0  0  0  0  0  0  0  0
   13.5137  -17.4047   24.9234 C   0  0  1  0  0  0  0  0  0  0  0  0
   14.8006  -16.6619   24.6408 C   0  0  0  0  0  0  0  0  0  0  0  0
   14.5979  -15.8108   23.0508 S   0  0  0  0  0  0  0  0  0  0  0  0
   13.6309  -18.1342   26.1886 C   0  0  0  0  0  0  0  0  0  0  0  0
   14.6026  -18.9133   26.3387 O   0  0  0  0  0  0  0  0  0  0  0  0
   12.7313  -18.0184   27.2380 O   0  0  0  0  0  0  0  0  0  0  0  0
  2  1  1  6
  2  3  1  0
  4  2  1  0
  4  5  1  1
  6  4  1  0
  6  7  2  0
  8  6  1  0
  9  8  1  0
 10 11  1  0
  9 10  1  1
 11 19  1  0
 12 11  2  0
 12 13  1  0
 13 14  1  0
 14 15  1  0
 15 16  2  0
 17 16  1  0
 18 17  2  0
 19 14  2  0
 19 18  1  0
 20  9  1  0
 20 22  1  0
 21 20  2  0
 23 22  1  0
 23 26  1  0
 23 24  1  1
 25 24  1  0
 26 27  2  0
 26 28  1  0
M  END
$$$$
