VWC.pdb
     RDKit          3D

 28 29  0  0  1  0  0  0  0  0999 V2000
    8.8556  -12.4685   20.1545 C   0  0  0  0  0  0  0  0  0  0  0  0
    8.0916  -13.7488   20.0600 C   0  0  1  0  0  0  0  0  0  0  0  0
    7.9865  -14.1060   18.5829 C   0  0  0  0  0  0  0  0  0  0  0  0
    8.7617  -14.9111   20.7421 C   0  0  2  0  0  0  0  0  0  0  0  0
    8.0340  -16.1116   20.3367 N   0  0  0  0  0  0  0  0  0  0  0  0
    8.7578  -14.8093   22.2140 C   0  0  0  0  0  0  0  0  0  0  0  0
    8.2361  -13.7908   22.7643 O   0  0  0  0  0  0  0  0  0  0  0  0
    9.3023  -15.7795   23.0904 N   0  0  0  0  0  0  0  0  0  0  0  0
    9.3806  -15.6186   24.5375 C   0  0  1  0  0  0  0  0  0  0  0  0
    8.1844  -16.1800   25.2207 C   0  0  0  0  0  0  0  0  0  0  0  0
    7.1067  -15.2359   25.5254 C   0  0  0  0  0  0  0  0  0  0  0  0
    5.7652  -15.5651   25.5545 C   0  0  0  0  0  0  0  0  0  0  0  0
    5.0412  -14.5009   25.8951 N   0  0  0  0  0  0  0  0  0  0  0  0
    5.8794  -13.4581   26.0953 C   0  0  0  0  0  0  0  0  0  0  0  0
    5.5819  -12.1606   26.4532 C   0  0  0  0  0  0  0  0  0  0  0  0
    6.6134  -11.2646   26.5898 C   0  0  0  0  0  0  0  0  0  0  0  0
    7.9025  -11.7015   26.3626 C   0  0  0  0  0  0  0  0  0  0  0  0
    8.1861  -12.9991   26.0061 C   0  0  0  0  0  0  0  0  0  0  0  0
    7.1717  -13.9196   25.8630 C   0  0  0  0  0  0  0  0  0  0  0  0
   10.6749  -15.9983   25.1092 C   0  0  0  0  0  0  0  0  0  0  0  0
   11.5006  -16.6908   24.4662 O   0  0  0  0  0  0  0  0  0  0  0  0
   11.0659  -15.6045   26.4190 N   0  0  0  0  0  0  0  0  0  0  0  0
   12.1790  -16.2356   27.0920 C   0  0  1  0  0  0  0  0  0  0  0  0
   12.3661  -15.7045   28.4958 C   0  0  0  0  0  0  0  0  0  0  0  0
   10.9003  -14.7140   28.9009 S   0  0  0  0  0  0  0  0  0  0  0  0
   12.0637  -17.6957   27.1266 C   0  0  0  0  0  0  0  0  0  0  0  0
   13.0395  -18.3601   27.5511 O   0  0  0  0  0  0  0  0  0  0  0  0
   10.9380  -18.3958   26.7179 O   0  0  0  0  0  0  0  0  0  0  0  0
  2  1  1  6
  2  3  1  0
  4  2  1  0
  4  5  1  1
  6  4  1  0
  6  7  2  0
  8  6  1  0
  9  8  1  0
 10 11  1  0
  9 10  1  1
 11 19  1  0
 12 11  2  0
 12 13  1  0
 13 14  1  0
 14 15  1  0
 15 16  2  0
 17 16  1  0
 18 17  2  0
 19 14  2  0
 19 18  1  0
 20  9  1  0
 20 22  1  0
 21 20  2  0
 23 22  1  0
 23 26  1  0
 23 24  1  1
 25 24  1  0
 26 27  2  0
 26 28  1  0
M  END
$$$$
