VWC.pdb
     RDKit          3D

 28 29  0  0  1  0  0  0  0  0999 V2000
    8.4035  -12.6758   20.2023 C   0  0  0  0  0  0  0  0  0  0  0  0
    7.5241  -13.8631   20.4230 C   0  0  1  0  0  0  0  0  0  0  0  0
    6.6680  -14.0316   19.1743 C   0  0  0  0  0  0  0  0  0  0  0  0
    8.2763  -15.1530   20.6122 C   0  0  2  0  0  0  0  0  0  0  0  0
    7.2744  -16.2119   20.7123 N   0  0  0  0  0  0  0  0  0  0  0  0
    9.1251  -15.1658   21.8189 C   0  0  0  0  0  0  0  0  0  0  0  0
   10.1430  -14.4084   21.8697 O   0  0  0  0  0  0  0  0  0  0  0  0
    8.8939  -15.9745   22.9584 N   0  0  0  0  0  0  0  0  0  0  0  0
    9.7576  -15.9944   24.1329 C   0  0  1  0  0  0  0  0  0  0  0  0
    8.9793  -16.1784   25.3871 C   0  0  0  0  0  0  0  0  0  0  0  0
    7.8504  -15.2674   25.5915 C   0  0  0  0  0  0  0  0  0  0  0  0
    6.5228  -15.6292   25.4674 C   0  0  0  0  0  0  0  0  0  0  0  0
    5.7386  -14.5906   25.7484 N   0  0  0  0  0  0  0  0  0  0  0  0
    6.5224  -13.5329   26.0597 C   0  0  0  0  0  0  0  0  0  0  0  0
    6.1539  -12.2514   26.4091 C   0  0  0  0  0  0  0  0  0  0  0  0
    7.1407  -11.3344   26.6753 C   0  0  0  0  0  0  0  0  0  0  0  0
    8.4579  -11.7351   26.5813 C   0  0  0  0  0  0  0  0  0  0  0  0
    8.8123  -13.0171   26.2318 C   0  0  0  0  0  0  0  0  0  0  0  0
    7.8440  -13.9580   25.9605 C   0  0  0  0  0  0  0  0  0  0  0  0
   10.9394  -16.8481   23.9880 C   0  0  0  0  0  0  0  0  0  0  0  0
   10.8493  -18.0343   23.5882 O   0  0  0  0  0  0  0  0  0  0  0  0
   12.2487  -16.3818   24.2908 N   0  0  0  0  0  0  0  0  0  0  0  0
   13.4124  -17.2076   24.0585 C   0  0  1  0  0  0  0  0  0  0  0  0
   14.3260  -16.6152   23.0086 C   0  0  0  0  0  0  0  0  0  0  0  0
   15.7865  -17.6863   22.8937 S   0  0  0  0  0  0  0  0  0  0  0  0
   14.1717  -17.4709   25.2835 C   0  0  0  0  0  0  0  0  0  0  0  0
   14.1379  -16.6153   26.2003 O   0  0  0  0  0  0  0  0  0  0  0  0
   14.9302  -18.6125   25.4968 O   0  0  0  0  0  0  0  0  0  0  0  0
  2  1  1  6
  2  3  1  0
  4  2  1  0
  4  5  1  1
  6  4  1  0
  6  7  2  0
  8  6  1  0
  9  8  1  0
 10 11  1  0
  9 10  1  1
 11 19  1  0
 12 11  2  0
 12 13  1  0
 13 14  1  0
 14 15  1  0
 15 16  2  0
 17 16  1  0
 18 17  2  0
 19 14  2  0
 19 18  1  0
 20  9  1  0
 20 22  1  0
 21 20  2  0
 23 22  1  0
 23 26  1  0
 23 24  1  6
 25 24  1  0
 26 27  2  0
 26 28  1  0
M  END
$$$$
