VWC.pdb
     RDKit          3D

 28 29  0  0  1  0  0  0  0  0999 V2000
    6.8522  -17.0416   18.4553 C   0  0  0  0  0  0  0  0  0  0  0  0
    7.7360  -16.8542   19.6451 C   0  0  1  0  0  0  0  0  0  0  0  0
    9.0201  -16.1962   19.1568 C   0  0  0  0  0  0  0  0  0  0  0  0
    7.1567  -15.9493   20.6991 C   0  0  2  0  0  0  0  0  0  0  0  0
    6.9127  -14.6598   20.0565 N   0  0  0  0  0  0  0  0  0  0  0  0
    8.0457  -15.7573   21.8608 C   0  0  0  0  0  0  0  0  0  0  0  0
    8.8051  -14.7403   21.8998 O   0  0  0  0  0  0  0  0  0  0  0  0
    8.1261  -16.6366   22.9681 N   0  0  0  0  0  0  0  0  0  0  0  0
    9.0702  -16.4783   24.0681 C   0  0  1  0  0  0  0  0  0  0  0  0
    8.3816  -16.4477   25.3862 C   0  0  0  0  0  0  0  0  0  0  0  0
    7.4505  -15.3387   25.6079 C   0  0  0  0  0  0  0  0  0  0  0  0
    6.0759  -15.4433   25.5179 C   0  0  0  0  0  0  0  0  0  0  0  0
    5.5091  -14.2738   25.8070 N   0  0  0  0  0  0  0  0  0  0  0  0
    6.4861  -13.3820   26.0902 C   0  0  0  0  0  0  0  0  0  0  0  0
    6.3751  -12.0522   26.4358 C   0  0  0  0  0  0  0  0  0  0  0  0
    7.5236  -11.3371   26.6706 C   0  0  0  0  0  0  0  0  0  0  0  0
    8.7386  -11.9803   26.5500 C   0  0  0  0  0  0  0  0  0  0  0  0
    8.8358  -13.3078   26.2046 C   0  0  0  0  0  0  0  0  0  0  0  0
    7.7007  -14.0499   25.9646 C   0  0  0  0  0  0  0  0  0  0  0  0
   10.2374  -17.3596   23.9818 C   0  0  0  0  0  0  0  0  0  0  0  0
   10.1170  -18.5948   23.7950 O   0  0  0  0  0  0  0  0  0  0  0  0
   11.5660  -16.8663   24.1041 N   0  0  0  0  0  0  0  0  0  0  0  0
   12.7015  -17.7610   24.1116 C   0  0  1  0  0  0  0  0  0  0  0  0
   13.9723  -17.0658   23.6764 C   0  0  0  0  0  0  0  0  0  0  0  0
   13.7006  -16.4419   21.9939 S   0  0  0  0  0  0  0  0  0  0  0  0
   12.9081  -18.4003   25.4136 C   0  0  0  0  0  0  0  0  0  0  0  0
   12.1158  -18.1225   26.3456 O   0  0  0  0  0  0  0  0  0  0  0  0
   13.9297  -19.2989   25.6842 O   0  0  0  0  0  0  0  0  0  0  0  0
  2  1  1  6
  2  3  1  0
  4  2  1  0
  4  5  1  6
  6  4  1  0
  6  7  2  0
  8  6  1  0
  9  8  1  0
 10 11  1  0
  9 10  1  1
 11 19  1  0
 12 11  2  0
 12 13  1  0
 13 14  1  0
 14 15  1  0
 15 16  2  0
 17 16  1  0
 18 17  2  0
 19 14  2  0
 19 18  1  0
 20  9  1  0
 20 22  1  0
 21 20  2  0
 23 22  1  0
 23 26  1  0
 23 24  1  1
 25 24  1  0
 26 27  2  0
 26 28  1  0
M  END
$$$$
