VWC.pdb
     RDKit          3D

 28 29  0  0  1  0  0  0  0  0999 V2000
    8.4563  -12.5134   20.3879 C   0  0  0  0  0  0  0  0  0  0  0  0
    7.6199  -13.7498   20.4497 C   0  0  1  0  0  0  0  0  0  0  0  0
    6.8839  -13.8660   19.1210 C   0  0  0  0  0  0  0  0  0  0  0  0
    8.4149  -15.0165   20.6190 C   0  0  2  0  0  0  0  0  0  0  0  0
    7.4714  -16.1245   20.4869 N   0  0  0  0  0  0  0  0  0  0  0  0
    9.1004  -15.1093   21.9222 C   0  0  0  0  0  0  0  0  0  0  0  0
   10.0154  -14.2748   22.2029 O   0  0  0  0  0  0  0  0  0  0  0  0
    8.8162  -16.0783   22.9151 N   0  0  0  0  0  0  0  0  0  0  0  0
    9.5703  -16.2207   24.1549 C   0  0  1  0  0  0  0  0  0  0  0  0
    8.6735  -16.3672   25.3326 C   0  0  0  0  0  0  0  0  0  0  0  0
    7.6605  -15.3244   25.5123 C   0  0  0  0  0  0  0  0  0  0  0  0
    6.3080  -15.5037   25.2945 C   0  0  0  0  0  0  0  0  0  0  0  0
    5.6476  -14.3826   25.5766 N   0  0  0  0  0  0  0  0  0  0  0  0
    6.5396  -13.4495   25.9813 C   0  0  0  0  0  0  0  0  0  0  0  0
    6.3176  -12.1449   26.3670 C   0  0  0  0  0  0  0  0  0  0  0  0
    7.3952  -11.3761   26.7321 C   0  0  0  0  0  0  0  0  0  0  0  0
    8.6531  -11.9424   26.6968 C   0  0  0  0  0  0  0  0  0  0  0  0
    8.8612  -13.2457   26.3101 C   0  0  0  0  0  0  0  0  0  0  0  0
    7.7991  -14.0403   25.9400 C   0  0  0  0  0  0  0  0  0  0  0  0
   10.6733  -17.1815   24.0734 C   0  0  0  0  0  0  0  0  0  0  0  0
   10.5065  -18.3375   23.6144 O   0  0  0  0  0  0  0  0  0  0  0  0
   11.9888  -16.8587   24.5078 N   0  0  0  0  0  0  0  0  0  0  0  0
   13.0609  -17.8262   24.4395 C   0  0  1  0  0  0  0  0  0  0  0  0
   14.3748  -17.1879   24.0473 C   0  0  0  0  0  0  0  0  0  0  0  0
   14.1288  -16.3840   22.4390 S   0  0  0  0  0  0  0  0  0  0  0  0
   13.2272  -18.5739   25.6884 C   0  0  0  0  0  0  0  0  0  0  0  0
   12.5483  -18.2272   26.6847 O   0  0  0  0  0  0  0  0  0  0  0  0
   14.0922  -19.6474   25.8416 O   0  0  0  0  0  0  0  0  0  0  0  0
  2  1  1  6
  2  3  1  0
  4  2  1  0
  4  5  1  1
  6  4  1  0
  6  7  2  0
  8  6  1  0
  9  8  1  0
 10 11  1  0
  9 10  1  1
 11 19  1  0
 12 11  2  0
 12 13  1  0
 13 14  1  0
 14 15  1  0
 15 16  2  0
 17 16  1  0
 18 17  2  0
 19 14  2  0
 19 18  1  0
 20  9  1  0
 20 22  1  0
 21 20  2  0
 23 22  1  0
 23 26  1  0
 23 24  1  1
 25 24  1  0
 26 27  2  0
 26 28  1  0
M  END
$$$$
