VLT.pdb
     RDKit          3D

 23 22  0  0  1  0  0  0  0  0999 V2000
    7.6118  -12.3047   20.3061 C   0  0  0  0  0  0  0  0  0  0  0  0
    8.3990  -13.4272   19.7194 C   0  0  2  0  0  0  0  0  0  0  0  0
    7.8460  -13.7275   18.3361 C   0  0  0  0  0  0  0  0  0  0  0  0
    8.3352  -14.6921   20.5185 C   0  0  2  0  0  0  0  0  0  0  0  0
    7.0176  -15.2798   20.4414 N   0  0  0  0  0  0  0  0  0  0  0  0
    8.7785  -14.5448   21.9082 C   0  0  0  0  0  0  0  0  0  0  0  0
    9.9916  -14.4343   22.1830 O   0  0  0  0  0  0  0  0  0  0  0  0
    8.3008  -12.1479   26.7185 C   0  0  0  0  0  0  0  0  0  0  0  0
    7.2101  -13.1464   26.4178 C   0  0  1  0  0  0  0  0  0  0  0  0
    5.9085  -12.4431   26.8858 C   0  0  0  0  0  0  0  0  0  0  0  0
    7.0944  -13.5045   24.9919 C   0  0  0  0  0  0  0  0  0  0  0  0
    8.1762  -14.3156   24.3710 C   0  0  2  0  0  0  0  0  0  0  0  0
    7.8222  -14.5277   22.9477 N   0  0  0  0  0  0  0  0  0  0  0  0
    8.4399  -15.6301   24.9936 C   0  0  0  0  0  0  0  0  0  0  0  0
    7.4396  -16.4190   25.1224 O   0  0  0  0  0  0  0  0  0  0  0  0
   10.2066  -18.3662   23.5701 C   0  0  0  0  0  0  0  0  0  0  0  0
   10.7883  -18.2679   24.9694 C   0  0  1  0  0  0  0  0  0  0  0  0
   12.0623  -17.7194   24.8745 O   0  0  0  0  0  0  0  0  0  0  0  0
    9.8823  -17.4923   25.8913 C   0  0  2  0  0  0  0  0  0  0  0  0
    9.6611  -16.1223   25.4602 N   0  0  0  0  0  0  0  0  0  0  0  0
   10.3308  -17.5984   27.2961 C   0  0  0  0  0  0  0  0  0  0  0  0
   10.3439  -18.7982   27.9541 O   0  0  0  0  0  0  0  0  0  0  0  0
   10.7065  -16.5631   27.8890 O   0  0  0  0  0  0  0  0  0  0  0  0
  2  1  1  1
  2  3  1  0
  4  2  1  0
  4  6  1  0
  4  5  1  1
  6  7  2  0
  6 13  1  0
  9  8  1  6
  9 11  1  0
  9 10  1  0
 12 11  1  1
 13 12  1  0
 14 12  1  0
 14 20  1  0
 15 14  2  0
 17 16  1  6
 18 17  1  0
 19 20  1  6
 19 17  1  0
 19 21  1  0
 21 22  1  0
 23 21  2  0
M  END
$$$$
