VLT.pdb
     RDKit          3D

 23 22  0  0  1  0  0  0  0  0999 V2000
    7.8119  -12.1314   21.1039 C   0  0  0  0  0  0  0  0  0  0  0  0
    8.4552  -13.2911   20.4217 C   0  0  2  0  0  0  0  0  0  0  0  0
    7.8734  -13.4058   19.0225 C   0  0  0  0  0  0  0  0  0  0  0  0
    8.2318  -14.5996   21.1151 C   0  0  2  0  0  0  0  0  0  0  0  0
    6.8412  -14.9850   21.0443 N   0  0  0  0  0  0  0  0  0  0  0  0
    8.7322  -14.6397   22.4926 C   0  0  0  0  0  0  0  0  0  0  0  0
    9.9515  -14.5180   22.7326 O   0  0  0  0  0  0  0  0  0  0  0  0
    5.7343  -12.2507   26.4704 C   0  0  0  0  0  0  0  0  0  0  0  0
    6.8921  -12.7592   25.6469 C   0  0  1  0  0  0  0  0  0  0  0  0
    8.1178  -11.9750   26.1859 C   0  0  0  0  0  0  0  0  0  0  0  0
    7.1354  -14.2080   25.7755 C   0  0  0  0  0  0  0  0  0  0  0  0
    8.2369  -14.8184   24.9833 C   0  0  2  0  0  0  0  0  0  0  0  0
    7.8242  -14.8180   23.5600 N   0  0  0  0  0  0  0  0  0  0  0  0
    8.6237  -16.1938   25.3629 C   0  0  0  0  0  0  0  0  0  0  0  0
    7.6728  -17.0057   25.6387 O   0  0  0  0  0  0  0  0  0  0  0  0
   10.7041  -18.5947   23.2962 C   0  0  0  0  0  0  0  0  0  0  0  0
   11.2031  -18.7017   24.7265 C   0  0  1  0  0  0  0  0  0  0  0  0
   12.4521  -18.0957   24.7990 O   0  0  0  0  0  0  0  0  0  0  0  0
   10.2115  -18.1219   25.7026 C   0  0  2  0  0  0  0  0  0  0  0  0
    9.9139  -16.7213   25.4549 N   0  0  0  0  0  0  0  0  0  0  0  0
   10.6119  -18.3969   27.0990 C   0  0  0  0  0  0  0  0  0  0  0  0
   10.9103  -17.3847   27.9701 O   0  0  0  0  0  0  0  0  0  0  0  0
   10.6755  -19.5850   27.4852 O   0  0  0  0  0  0  0  0  0  0  0  0
  2  1  1  1
  2  3  1  0
  4  2  1  0
  4  6  1  0
  4  5  1  1
  6  7  2  0
  6 13  1  0
  9  8  1  1
  9 11  1  0
  9 10  1  0
 12 11  1  1
 13 12  1  0
 14 12  1  0
 14 20  1  0
 15 14  2  0
 17 16  1  6
 18 17  1  0
 19 20  1  1
 19 17  1  0
 19 21  1  0
 21 22  1  0
 23 21  2  0
M  END
$$$$
