VLT.pdb
     RDKit          3D

 23 22  0  0  1  0  0  0  0  0999 V2000
    7.6541  -12.2336   20.1937 C   0  0  0  0  0  0  0  0  0  0  0  0
    8.2911  -13.4485   19.6086 C   0  0  2  0  0  0  0  0  0  0  0  0
    7.6522  -13.7193   18.2566 C   0  0  0  0  0  0  0  0  0  0  0  0
    8.1246  -14.6798   20.4445 C   0  0  2  0  0  0  0  0  0  0  0  0
    6.7558  -15.1408   20.4089 N   0  0  0  0  0  0  0  0  0  0  0  0
    8.6095  -14.5386   21.8209 C   0  0  0  0  0  0  0  0  0  0  0  0
    9.8252  -14.3768   22.0559 O   0  0  0  0  0  0  0  0  0  0  0  0
    8.1091  -12.1599   26.6994 C   0  0  0  0  0  0  0  0  0  0  0  0
    7.1096  -13.2454   26.3835 C   0  0  1  0  0  0  0  0  0  0  0  0
    5.7593  -12.6844   26.9029 C   0  0  0  0  0  0  0  0  0  0  0  0
    6.9948  -13.5626   24.9479 C   0  0  0  0  0  0  0  0  0  0  0  0
    8.0791  -14.3519   24.3037 C   0  0  2  0  0  0  0  0  0  0  0  0
    7.6908  -14.5861   22.8928 N   0  0  0  0  0  0  0  0  0  0  0  0
    8.3933  -15.6536   24.9299 C   0  0  0  0  0  0  0  0  0  0  0  0
    7.4161  -16.4631   25.1005 O   0  0  0  0  0  0  0  0  0  0  0  0
    9.9700  -18.4697   23.5209 C   0  0  0  0  0  0  0  0  0  0  0  0
   10.7125  -18.2784   24.8317 C   0  0  1  0  0  0  0  0  0  0  0  0
   11.9506  -17.7110   24.5527 O   0  0  0  0  0  0  0  0  0  0  0  0
    9.9032  -17.4689   25.8124 C   0  0  2  0  0  0  0  0  0  0  0  0
    9.6405  -16.1135   25.3593 N   0  0  0  0  0  0  0  0  0  0  0  0
   10.4893  -17.5293   27.1684 C   0  0  0  0  0  0  0  0  0  0  0  0
   10.5684  -18.7064   27.8617 O   0  0  0  0  0  0  0  0  0  0  0  0
   10.9218  -16.4758   27.6858 O   0  0  0  0  0  0  0  0  0  0  0  0
  2  1  1  1
  2  3  1  0
  4  2  1  0
  4  6  1  0
  4  5  1  1
  6  7  2  0
  6 13  1  0
  9  8  1  6
  9 11  1  0
  9 10  1  0
 12 11  1  1
 13 12  1  0
 14 12  1  0
 14 20  1  0
 15 14  2  0
 17 16  1  6
 18 17  1  0
 19 20  1  6
 19 17  1  0
 19 21  1  0
 21 22  1  0
 23 21  2  0
M  END
$$$$
