VLT.pdb
     RDKit          3D

 23 22  0  0  1  0  0  0  0  0999 V2000
    6.9000  -16.0560   18.9721 C   0  0  0  0  0  0  0  0  0  0  0  0
    7.5896  -15.9386   20.2891 C   0  0  2  0  0  0  0  0  0  0  0  0
    6.9811  -16.9560   21.2400 C   0  0  0  0  0  0  0  0  0  0  0  0
    7.4560  -14.5882   20.9226 C   0  0  2  0  0  0  0  0  0  0  0  0
    7.8759  -13.5509   20.0088 N   0  0  0  0  0  0  0  0  0  0  0  0
    8.1279  -14.4670   22.2201 C   0  0  0  0  0  0  0  0  0  0  0  0
    9.3653  -14.3132   22.2863 O   0  0  0  0  0  0  0  0  0  0  0  0
    5.5991  -12.0033   26.5639 C   0  0  0  0  0  0  0  0  0  0  0  0
    6.6822  -12.4691   25.6221 C   0  0  1  0  0  0  0  0  0  0  0  0
    7.9384  -11.6699   26.0593 C   0  0  0  0  0  0  0  0  0  0  0  0
    6.9652  -13.9147   25.6936 C   0  0  0  0  0  0  0  0  0  0  0  0
    7.9712  -14.4906   24.7609 C   0  0  2  0  0  0  0  0  0  0  0  0
    7.3663  -14.5249   23.4084 N   0  0  0  0  0  0  0  0  0  0  0  0
    8.4632  -15.8444   25.0932 C   0  0  0  0  0  0  0  0  0  0  0  0
    7.5784  -16.7513   25.2775 O   0  0  0  0  0  0  0  0  0  0  0  0
   10.6413  -18.1688   23.0903 C   0  0  0  0  0  0  0  0  0  0  0  0
   11.2059  -18.1511   24.4999 C   0  0  1  0  0  0  0  0  0  0  0  0
   12.3858  -17.4160   24.4878 O   0  0  0  0  0  0  0  0  0  0  0  0
   10.1987  -17.6285   25.4922 C   0  0  2  0  0  0  0  0  0  0  0  0
    9.7903  -16.2591   25.2286 N   0  0  0  0  0  0  0  0  0  0  0  0
   10.6541  -17.8461   26.8819 C   0  0  0  0  0  0  0  0  0  0  0  0
   10.8752  -19.1039   27.3734 O   0  0  0  0  0  0  0  0  0  0  0  0
   10.8404  -16.8522   27.6180 O   0  0  0  0  0  0  0  0  0  0  0  0
  2  1  1  6
  2  3  1  0
  4  2  1  0
  4  6  1  0
  4  5  1  6
  6  7  2  0
  6 13  1  0
  9  8  1  1
  9 11  1  0
  9 10  1  0
 12 11  1  1
 13 12  1  0
 14 12  1  0
 14 20  1  0
 15 14  2  0
 17 16  1  6
 18 17  1  0
 19 20  1  6
 19 17  1  0
 19 21  1  0
 21 22  1  0
 23 21  2  0
M  END
$$$$
