VLT.pdb
     RDKit          3D

 23 22  0  0  1  0  0  0  0  0999 V2000
    7.8871  -17.9459   21.3194 C   0  0  0  0  0  0  0  0  0  0  0  0
    6.8399  -16.8845   21.2908 C   0  0  2  0  0  0  0  0  0  0  0  0
    6.1006  -16.9775   19.9663 C   0  0  0  0  0  0  0  0  0  0  0  0
    7.3850  -15.4947   21.4100 C   0  0  2  0  0  0  0  0  0  0  0  0
    8.2102  -15.1695   20.2696 N   0  0  0  0  0  0  0  0  0  0  0  0
    8.0833  -15.2323   22.6722 C   0  0  0  0  0  0  0  0  0  0  0  0
    9.3295  -15.2798   22.7341 O   0  0  0  0  0  0  0  0  0  0  0  0
    5.8187  -11.8205   26.6136 C   0  0  0  0  0  0  0  0  0  0  0  0
    6.8248  -12.5046   25.7210 C   0  0  1  0  0  0  0  0  0  0  0  0
    8.1558  -11.7584   26.0033 C   0  0  0  0  0  0  0  0  0  0  0  0
    6.9961  -13.9436   25.9946 C   0  0  0  0  0  0  0  0  0  0  0  0
    7.9559  -14.7177   25.1621 C   0  0  2  0  0  0  0  0  0  0  0  0
    7.3374  -14.9222   23.8310 N   0  0  0  0  0  0  0  0  0  0  0  0
    8.3669  -16.0321   25.6993 C   0  0  0  0  0  0  0  0  0  0  0  0
    7.4511  -16.9188   25.8196 O   0  0  0  0  0  0  0  0  0  0  0  0
   12.3155  -17.5575   25.5747 C   0  0  0  0  0  0  0  0  0  0  0  0
   11.0562  -18.4051   25.6182 C   0  0  1  0  0  0  0  0  0  0  0  0
   11.4076  -19.6875   26.0244 O   0  0  0  0  0  0  0  0  0  0  0  0
    9.9996  -17.7808   26.4935 C   0  0  2  0  0  0  0  0  0  0  0  0
    9.6472  -16.4292   26.0926 N   0  0  0  0  0  0  0  0  0  0  0  0
   10.3552  -17.8928   27.9242 C   0  0  0  0  0  0  0  0  0  0  0  0
   10.4837  -16.7857   28.7181 O   0  0  0  0  0  0  0  0  0  0  0  0
   10.5398  -19.0295   28.4125 O   0  0  0  0  0  0  0  0  0  0  0  0
  2  1  1  6
  2  3  1  0
  4  2  1  0
  4  6  1  0
  4  5  1  6
  6  7  2  0
  6 13  1  0
  9  8  1  1
  9 11  1  0
  9 10  1  0
 12 11  1  1
 13 12  1  0
 14 12  1  0
 14 20  1  0
 15 14  2  0
 17 16  1  1
 18 17  1  0
 19 20  1  6
 19 17  1  0
 19 21  1  0
 21 22  1  0
 23 21  2  0
M  END
$$$$
