VLT.pdb
     RDKit          3D

 23 22  0  0  1  0  0  0  0  0999 V2000
    7.4967  -12.3849   21.0280 C   0  0  0  0  0  0  0  0  0  0  0  0
    8.3555  -13.4335   20.4060 C   0  0  2  0  0  0  0  0  0  0  0  0
    7.8476  -13.6942   18.9976 C   0  0  0  0  0  0  0  0  0  0  0  0
    8.3444  -14.7380   21.1415 C   0  0  2  0  0  0  0  0  0  0  0  0
    7.0473  -15.3672   21.0470 N   0  0  0  0  0  0  0  0  0  0  0  0
    8.7972  -14.6441   22.5328 C   0  0  0  0  0  0  0  0  0  0  0  0
   10.0064  -14.4862   22.8013 O   0  0  0  0  0  0  0  0  0  0  0  0
    5.7535  -12.1448   26.4777 C   0  0  0  0  0  0  0  0  0  0  0  0
    6.9470  -12.6619   25.7126 C   0  0  1  0  0  0  0  0  0  0  0  0
    8.1604  -11.9581   26.3760 C   0  0  0  0  0  0  0  0  0  0  0  0
    7.1232  -14.1243   25.7832 C   0  0  0  0  0  0  0  0  0  0  0  0
    8.2343  -14.7460   25.0135 C   0  0  2  0  0  0  0  0  0  0  0  0
    7.8545  -14.7334   23.5811 N   0  0  0  0  0  0  0  0  0  0  0  0
    8.5938  -16.1281   25.3951 C   0  0  0  0  0  0  0  0  0  0  0  0
    7.6508  -16.9941   25.3834 O   0  0  0  0  0  0  0  0  0  0  0  0
   10.7138  -18.4184   23.6158 C   0  0  0  0  0  0  0  0  0  0  0  0
   11.1617  -18.5826   25.0575 C   0  0  1  0  0  0  0  0  0  0  0  0
   12.4219  -18.0108   25.1904 O   0  0  0  0  0  0  0  0  0  0  0  0
   10.1521  -18.0088   26.0187 C   0  0  2  0  0  0  0  0  0  0  0  0
    9.8511  -16.6095   25.7676 N   0  0  0  0  0  0  0  0  0  0  0  0
   10.5323  -18.2830   27.4209 C   0  0  0  0  0  0  0  0  0  0  0  0
   10.6596  -19.5620   27.8904 O   0  0  0  0  0  0  0  0  0  0  0  0
   10.7420  -17.3180   28.1886 O   0  0  0  0  0  0  0  0  0  0  0  0
  2  1  1  1
  2  3  1  0
  4  2  1  0
  4  6  1  0
  4  5  1  1
  6  7  2  0
  6 13  1  0
  9  8  1  1
  9 11  1  0
  9 10  1  0
 12 11  1  1
 13 12  1  0
 14 12  1  0
 14 20  1  0
 15 14  2  0
 17 16  1  6
 18 17  1  0
 19 20  1  1
 19 17  1  0
 19 21  1  0
 21 22  1  0
 23 21  2  0
M  END
$$$$
