VLT.pdb
     RDKit          3D

 23 22  0  0  1  0  0  0  0  0999 V2000
    7.6566  -13.2569   20.3910 C   0  0  0  0  0  0  0  0  0  0  0  0
    8.4200  -14.4721   19.9853 C   0  0  2  0  0  0  0  0  0  0  0  0
    7.8486  -14.9795   18.6718 C   0  0  0  0  0  0  0  0  0  0  0  0
    8.3440  -15.5921   20.9766 C   0  0  2  0  0  0  0  0  0  0  0  0
    7.0099  -16.1448   21.0221 N   0  0  0  0  0  0  0  0  0  0  0  0
    8.8269  -15.2399   22.3153 C   0  0  0  0  0  0  0  0  0  0  0  0
   10.0416  -15.0390   22.5233 O   0  0  0  0  0  0  0  0  0  0  0  0
    8.3315  -12.0437   26.6011 C   0  0  0  0  0  0  0  0  0  0  0  0
    7.3193  -13.1621   26.5622 C   0  0  1  0  0  0  0  0  0  0  0  0
    5.9832  -12.4824   26.9632 C   0  0  0  0  0  0  0  0  0  0  0  0
    7.1734  -13.8001   25.2406 C   0  0  0  0  0  0  0  0  0  0  0  0
    8.2863  -14.6457   24.7310 C   0  0  2  0  0  0  0  0  0  0  0  0
    7.9072  -15.1269   23.3815 N   0  0  0  0  0  0  0  0  0  0  0  0
    8.6487  -15.8118   25.5641 C   0  0  0  0  0  0  0  0  0  0  0  0
    7.7007  -16.6121   25.8809 O   0  0  0  0  0  0  0  0  0  0  0  0
   10.5909  -18.6916   24.6338 C   0  0  0  0  0  0  0  0  0  0  0  0
   11.1707  -18.2798   25.9756 C   0  0  1  0  0  0  0  0  0  0  0  0
   12.4066  -17.6835   25.7521 O   0  0  0  0  0  0  0  0  0  0  0  0
   10.2207  -17.3933   26.7397 C   0  0  2  0  0  0  0  0  0  0  0  0
    9.9135  -16.1517   26.0499 N   0  0  0  0  0  0  0  0  0  0  0  0
   10.6785  -17.1919   28.1310 C   0  0  0  0  0  0  0  0  0  0  0  0
   10.7978  -18.2393   29.0034 O   0  0  0  0  0  0  0  0  0  0  0  0
   10.9626  -16.0344   28.5108 O   0  0  0  0  0  0  0  0  0  0  0  0
  2  1  1  1
  2  3  1  0
  4  2  1  0
  4  6  1  0
  4  5  1  1
  6  7  2  0
  6 13  1  0
  9  8  1  6
  9 11  1  0
  9 10  1  0
 12 11  1  1
 13 12  1  0
 14 12  1  0
 14 20  1  0
 15 14  2  0
 17 16  1  6
 18 17  1  0
 19 20  1  6
 19 17  1  0
 19 21  1  0
 21 22  1  0
 23 21  2  0
M  END
$$$$
