VLT.pdb
     RDKit          3D

 23 22  0  0  1  0  0  0  0  0999 V2000
    7.1059  -15.3920   18.8166 C   0  0  0  0  0  0  0  0  0  0  0  0
    7.7219  -15.4556   20.1733 C   0  0  2  0  0  0  0  0  0  0  0  0
    7.0190  -16.5444   20.9670 C   0  0  0  0  0  0  0  0  0  0  0  0
    7.6056  -14.1804   20.9498 C   0  0  2  0  0  0  0  0  0  0  0  0
    8.0784  -13.0610   20.1684 N   0  0  0  0  0  0  0  0  0  0  0  0
    8.2430  -14.2234   22.2694 C   0  0  0  0  0  0  0  0  0  0  0  0
    9.4853  -14.1630   22.3805 O   0  0  0  0  0  0  0  0  0  0  0  0
    5.6714  -11.8781   26.6125 C   0  0  0  0  0  0  0  0  0  0  0  0
    6.7849  -12.3508   25.7103 C   0  0  1  0  0  0  0  0  0  0  0  0
    8.0485  -11.6337   26.2550 C   0  0  0  0  0  0  0  0  0  0  0  0
    6.9979  -13.8100   25.7263 C   0  0  0  0  0  0  0  0  0  0  0  0
    8.0038  -14.3933   24.7982 C   0  0  2  0  0  0  0  0  0  0  0  0
    7.4424  -14.3343   23.4279 N   0  0  0  0  0  0  0  0  0  0  0  0
    8.4167  -15.7844   25.0804 C   0  0  0  0  0  0  0  0  0  0  0  0
    7.5085  -16.6835   25.0017 O   0  0  0  0  0  0  0  0  0  0  0  0
   10.4276  -18.1129   23.2393 C   0  0  0  0  0  0  0  0  0  0  0  0
   10.9883  -18.1995   24.6480 C   0  0  1  0  0  0  0  0  0  0  0  0
   12.2253  -17.5652   24.6647 O   0  0  0  0  0  0  0  0  0  0  0  0
   10.0256  -17.6358   25.6617 C   0  0  2  0  0  0  0  0  0  0  0  0
    9.6913  -16.2419   25.4229 N   0  0  0  0  0  0  0  0  0  0  0  0
   10.4868  -17.8988   27.0416 C   0  0  0  0  0  0  0  0  0  0  0  0
   10.7448  -19.1692   27.4796 O   0  0  0  0  0  0  0  0  0  0  0  0
   10.6435  -16.9319   27.8196 O   0  0  0  0  0  0  0  0  0  0  0  0
  2  1  1  6
  2  3  1  0
  4  2  1  0
  4  6  1  0
  4  5  1  6
  6  7  2  0
  6 13  1  0
  9  8  1  1
  9 11  1  0
  9 10  1  0
 12 11  1  1
 13 12  1  0
 14 12  1  0
 14 20  1  0
 15 14  2  0
 17 16  1  6
 18 17  1  0
 19 20  1  6
 19 17  1  0
 19 21  1  0
 21 22  1  0
 23 21  2  0
M  END
$$$$
