VLT.pdb
     RDKit          3D

 23 22  0  0  1  0  0  0  0  0999 V2000
    7.9566  -12.2002   20.8541 C   0  0  0  0  0  0  0  0  0  0  0  0
    8.3920  -13.4370   20.1436 C   0  0  2  0  0  0  0  0  0  0  0  0
    7.6415  -13.5203   18.8248 C   0  0  0  0  0  0  0  0  0  0  0  0
    8.1172  -14.6982   20.9029 C   0  0  2  0  0  0  0  0  0  0  0  0
    6.7064  -15.0090   20.8846 N   0  0  0  0  0  0  0  0  0  0  0  0
    8.6520  -14.7032   22.2680 C   0  0  0  0  0  0  0  0  0  0  0  0
    9.8818  -14.6317   22.4720 O   0  0  0  0  0  0  0  0  0  0  0  0
    5.7448  -12.1812   26.3614 C   0  0  0  0  0  0  0  0  0  0  0  0
    6.8975  -12.6728   25.5207 C   0  0  1  0  0  0  0  0  0  0  0  0
    8.1362  -11.9462   26.1085 C   0  0  0  0  0  0  0  0  0  0  0  0
    7.1068  -14.1316   25.5753 C   0  0  0  0  0  0  0  0  0  0  0  0
    8.2134  -14.7228   24.7756 C   0  0  2  0  0  0  0  0  0  0  0  0
    7.7656  -14.7899   23.3645 N   0  0  0  0  0  0  0  0  0  0  0  0
    8.6680  -16.0665   25.1917 C   0  0  0  0  0  0  0  0  0  0  0  0
    7.7912  -16.9995   25.1880 O   0  0  0  0  0  0  0  0  0  0  0  0
   11.8722  -19.7361   25.5669 C   0  0  0  0  0  0  0  0  0  0  0  0
   11.5252  -18.3095   25.1790 C   0  0  1  0  0  0  0  0  0  0  0  0
   11.3405  -18.2648   23.8018 O   0  0  0  0  0  0  0  0  0  0  0  0
   10.3323  -17.8020   25.9482 C   0  0  2  0  0  0  0  0  0  0  0  0
    9.9522  -16.4461   25.5892 N   0  0  0  0  0  0  0  0  0  0  0  0
   10.5129  -17.9933   27.4031 C   0  0  0  0  0  0  0  0  0  0  0  0
   10.4132  -19.2303   27.9796 O   0  0  0  0  0  0  0  0  0  0  0  0
   10.7637  -16.9965   28.1158 O   0  0  0  0  0  0  0  0  0  0  0  0
  2  1  1  1
  2  3  1  0
  4  2  1  0
  4  6  1  0
  4  5  1  1
  6  7  2  0
  6 13  1  0
  9  8  1  1
  9 11  1  0
  9 10  1  0
 12 11  1  1
 13 12  1  0
 14 12  1  0
 14 20  1  0
 15 14  2  0
 17 16  1  1
 18 17  1  0
 19 20  1  1
 19 17  1  0
 19 21  1  0
 21 22  1  0
 23 21  2  0
M  END
$$$$
