VLT.pdb
     RDKit          3D

 23 22  0  0  1  0  0  0  0  0999 V2000
    8.0688  -18.2105   20.7856 C   0  0  0  0  0  0  0  0  0  0  0  0
    7.1834  -17.0263   20.5911 C   0  0  2  0  0  0  0  0  0  0  0  0
    6.5262  -17.1397   19.2255 C   0  0  0  0  0  0  0  0  0  0  0  0
    7.9074  -15.7163   20.6394 C   0  0  2  0  0  0  0  0  0  0  0  0
    8.9161  -15.6512   19.6071 N   0  0  0  0  0  0  0  0  0  0  0  0
    8.4624  -15.3877   21.9560 C   0  0  0  0  0  0  0  0  0  0  0  0
    9.6911  -15.4592   22.1666 O   0  0  0  0  0  0  0  0  0  0  0  0
    8.3108  -12.0889   26.3514 C   0  0  0  0  0  0  0  0  0  0  0  0
    7.2345  -13.1444   26.2840 C   0  0  1  0  0  0  0  0  0  0  0  0
    5.9526  -12.4143   26.7652 C   0  0  0  0  0  0  0  0  0  0  0  0
    7.0129  -13.6969   24.9348 C   0  0  0  0  0  0  0  0  0  0  0  0
    8.0803  -14.5341   24.3237 C   0  0  2  0  0  0  0  0  0  0  0  0
    7.5970  -14.9859   22.9976 N   0  0  0  0  0  0  0  0  0  0  0  0
    8.5010  -15.7183   25.1021 C   0  0  0  0  0  0  0  0  0  0  0  0
    7.5793  -16.5327   25.4578 O   0  0  0  0  0  0  0  0  0  0  0  0
   10.8088  -18.3632   23.8779 C   0  0  0  0  0  0  0  0  0  0  0  0
   11.2494  -18.0523   25.2975 C   0  0  1  0  0  0  0  0  0  0  0  0
   12.4333  -17.3261   25.2374 O   0  0  0  0  0  0  0  0  0  0  0  0
   10.1654  -17.3451   26.0703 C   0  0  2  0  0  0  0  0  0  0  0  0
    9.7960  -16.0616   25.4977 N   0  0  0  0  0  0  0  0  0  0  0  0
   10.4961  -17.2704   27.5094 C   0  0  0  0  0  0  0  0  0  0  0  0
   10.6494  -18.3991   28.2676 O   0  0  0  0  0  0  0  0  0  0  0  0
   10.6385  -16.1456   28.0378 O   0  0  0  0  0  0  0  0  0  0  0  0
  2  1  1  6
  2  3  1  0
  4  2  1  0
  4  6  1  0
  4  5  1  6
  6  7  2  0
  6 13  1  0
  9  8  1  6
  9 11  1  0
  9 10  1  0
 12 11  1  1
 13 12  1  0
 14 12  1  0
 14 20  1  0
 15 14  2  0
 17 16  1  6
 18 17  1  0
 19 20  1  6
 19 17  1  0
 19 21  1  0
 21 22  1  0
 23 21  2  0
M  END
$$$$
