VLT.pdb
     RDKit          3D

 23 22  0  0  1  0  0  0  0  0999 V2000
    7.2528  -19.4855   22.1068 C   0  0  0  0  0  0  0  0  0  0  0  0
    5.9483  -18.7818   22.2717 C   0  0  2  0  0  0  0  0  0  0  0  0
    4.8797  -19.5782   21.5415 C   0  0  0  0  0  0  0  0  0  0  0  0
    5.9377  -17.3912   21.7161 C   0  0  2  0  0  0  0  0  0  0  0  0
    6.0963  -17.4131   20.2802 N   0  0  0  0  0  0  0  0  0  0  0  0
    6.9009  -16.4861   22.3504 C   0  0  0  0  0  0  0  0  0  0  0  0
    7.9843  -16.2139   21.7923 O   0  0  0  0  0  0  0  0  0  0  0  0
    8.0995  -12.1299   25.6639 C   0  0  0  0  0  0  0  0  0  0  0  0
    7.4136  -13.3402   26.2486 C   0  0  1  0  0  0  0  0  0  0  0  0
    6.3855  -12.7502   27.2501 C   0  0  0  0  0  0  0  0  0  0  0  0
    6.7141  -14.1772   25.2562 C   0  0  0  0  0  0  0  0  0  0  0  0
    7.5255  -15.0121   24.3298 C   0  0  2  0  0  0  0  0  0  0  0  0
    6.5996  -15.9158   23.6072 N   0  0  0  0  0  0  0  0  0  0  0  0
    8.5896  -15.8263   24.9542 C   0  0  0  0  0  0  0  0  0  0  0  0
    8.2135  -16.7535   25.7531 O   0  0  0  0  0  0  0  0  0  0  0  0
   13.0545  -17.8992   24.3370 C   0  0  0  0  0  0  0  0  0  0  0  0
   12.0592  -16.7961   24.0227 C   0  0  1  0  0  0  0  0  0  0  0  0
   11.6308  -16.9566   22.7099 O   0  0  0  0  0  0  0  0  0  0  0  0
   10.9231  -16.7780   25.0131 C   0  0  2  0  0  0  0  0  0  0  0  0
    9.9697  -15.7077   24.7737 N   0  0  0  0  0  0  0  0  0  0  0  0
   11.4246  -16.8147   26.4035 C   0  0  0  0  0  0  0  0  0  0  0  0
   12.0910  -17.9042   26.8949 O   0  0  0  0  0  0  0  0  0  0  0  0
   11.2323  -15.8224   27.1403 O   0  0  0  0  0  0  0  0  0  0  0  0
  2  1  1  6
  2  3  1  0
  4  2  1  0
  4  6  1  0
  4  5  1  6
  6  7  2  0
  6 13  1  0
  9  8  1  6
  9 11  1  0
  9 10  1  0
 12 11  1  1
 13 12  1  0
 14 12  1  0
 14 20  1  0
 15 14  2  0
 17 16  1  1
 18 17  1  0
 19 20  1  1
 19 17  1  0
 19 21  1  0
 21 22  1  0
 23 21  2  0
M  END
$$$$
