CWN.pdb
     RDKit          3D

 29 30  0  0  1  0  0  0  0  0999 V2000
    9.3898  -17.5390   18.7462 N   0  0  0  0  0  0  0  0  0  0  0  0
    8.2996  -17.3416   19.6308 C   0  0  1  0  0  0  0  0  0  0  0  0
    7.5409  -18.6658   19.7349 C   0  0  0  0  0  0  0  0  0  0  0  0
    6.6867  -19.0111   18.1659 S   0  0  0  0  0  0  0  0  0  0  0  0
    8.6961  -16.9675   21.0234 C   0  0  0  0  0  0  0  0  0  0  0  0
    9.6747  -17.5558   21.5353 O   0  0  0  0  0  0  0  0  0  0  0  0
    7.9632  -15.9685   21.7105 N   0  0  0  0  0  0  0  0  0  0  0  0
    8.3209  -15.4746   23.0090 C   0  0  1  0  0  0  0  0  0  0  0  0
    7.5607  -14.2079   23.3311 C   0  0  0  0  0  0  0  0  0  0  0  0
    7.9969  -13.7615   24.6849 C   0  0  0  0  0  0  0  0  0  0  0  0
    9.2235  -13.9891   25.2575 C   0  0  0  0  0  0  0  0  0  0  0  0
    9.1953  -13.4114   26.4816 N   0  0  0  0  0  0  0  0  0  0  0  0
    8.0232  -12.8279   26.7236 C   0  0  0  0  0  0  0  0  0  0  0  0
    7.4411  -12.1150   27.7472 C   0  0  0  0  0  0  0  0  0  0  0  0
    6.1630  -11.6093   27.7187 C   0  0  0  0  0  0  0  0  0  0  0  0
    5.3996  -11.8341   26.5693 C   0  0  0  0  0  0  0  0  0  0  0  0
    5.9446  -12.5460   25.5152 C   0  0  0  0  0  0  0  0  0  0  0  0
    7.2376  -13.0301   25.6044 C   0  0  0  0  0  0  0  0  0  0  0  0
    8.2206  -16.5274   23.9987 C   0  0  0  0  0  0  0  0  0  0  0  0
    7.2262  -17.3359   23.9271 O   0  0  0  0  0  0  0  0  0  0  0  0
    7.6581  -19.0477   27.6644 N   0  0  0  0  0  0  0  0  0  0  0  0
    7.4886  -19.5054   26.3204 C   0  0  0  0  0  0  0  0  0  0  0  0
    6.6531  -20.3995   26.1008 O   0  0  0  0  0  0  0  0  0  0  0  0
    8.2797  -18.9350   25.2141 C   0  0  0  0  0  0  0  0  0  0  0  0
    9.2927  -17.9196   25.7411 C   0  0  2  0  0  0  0  0  0  0  0  0
    9.1811  -16.6793   25.0287 N   0  0  0  0  0  0  0  0  0  0  0  0
   10.6610  -18.4553   25.5380 C   0  0  0  0  0  0  0  0  0  0  0  0
   11.3014  -19.0246   26.6248 O   0  0  0  0  0  0  0  0  0  0  0  0
   11.2167  -18.4010   24.4468 O   0  0  0  0  0  0  0  0  0  0  0  0
  2  1  1  6
  2  3  1  0
  3  4  1  0
  5  6  2  0
  5  2  1  0
  7  5  1  0
  8  7  1  0
  8  9  1  1
 10  9  1  0
 10 18  1  0
 11 12  1  0
 11 10  2  0
 12 13  1  0
 13 18  2  0
 13 14  1  0
 14 15  2  0
 15 16  1  0
 17 16  2  0
 18 17  1  0
 19  8  1  0
 19 20  2  0
 22 24  1  0
 22 21  1  0
 23 22  2  0
 25 26  1  0
 25 24  1  6
 26 19  1  0
 27 25  1  0
 28 27  1  0
 29 27  2  0
M  END
$$$$
