CWN.pdb
     RDKit          3D

 29 30  0  0  1  0  0  0  0  0999 V2000
    7.6186  -17.3960   21.5701 N   0  0  0  0  0  0  0  0  0  0  0  0
    8.2126  -16.1168   21.4244 C   0  0  1  0  0  0  0  0  0  0  0  0
    7.0845  -15.0991   21.2469 C   0  0  0  0  0  0  0  0  0  0  0  0
    7.7618  -13.5326   20.6161 S   0  0  0  0  0  0  0  0  0  0  0  0
    9.0082  -15.6685   22.6087 C   0  0  0  0  0  0  0  0  0  0  0  0
    9.7162  -14.6437   22.4888 O   0  0  0  0  0  0  0  0  0  0  0  0
    8.9342  -16.4064   23.8158 N   0  0  0  0  0  0  0  0  0  0  0  0
    9.6809  -16.0748   24.9950 C   0  0  1  0  0  0  0  0  0  0  0  0
    8.8248  -16.2203   26.2327 C   0  0  0  0  0  0  0  0  0  0  0  0
    7.6678  -15.2922   26.0827 C   0  0  0  0  0  0  0  0  0  0  0  0
    6.3842  -15.6445   25.7471 C   0  0  0  0  0  0  0  0  0  0  0  0
    5.6592  -14.5012   25.7265 N   0  0  0  0  0  0  0  0  0  0  0  0
    6.4044  -13.4403   26.0300 C   0  0  0  0  0  0  0  0  0  0  0  0
    6.2227  -12.0824   26.1645 C   0  0  0  0  0  0  0  0  0  0  0  0
    7.2128  -11.1920   26.5063 C   0  0  0  0  0  0  0  0  0  0  0  0
    8.4952  -11.7002   26.7337 C   0  0  0  0  0  0  0  0  0  0  0  0
    8.7236  -13.0593   26.6097 C   0  0  0  0  0  0  0  0  0  0  0  0
    7.6853  -13.9050   26.2622 C   0  0  0  0  0  0  0  0  0  0  0  0
   10.9370  -16.7955   25.0206 C   0  0  0  0  0  0  0  0  0  0  0  0
   11.6591  -16.7205   26.0792 O   0  0  0  0  0  0  0  0  0  0  0  0
   11.8819  -17.8924   21.3863 N   0  0  0  0  0  0  0  0  0  0  0  0
   12.1524  -19.2492   21.7474 C   0  0  0  0  0  0  0  0  0  0  0  0
   12.1533  -20.1110   20.8513 O   0  0  0  0  0  0  0  0  0  0  0  0
   12.4269  -19.6268   23.1465 C   0  0  0  0  0  0  0  0  0  0  0  0
   12.5531  -18.3843   24.0270 C   0  0  2  0  0  0  0  0  0  0  0  0
   11.3788  -17.5674   23.9181 N   0  0  0  0  0  0  0  0  0  0  0  0
   13.7207  -17.5897   23.5730 C   0  0  0  0  0  0  0  0  0  0  0  0
   13.4808  -16.3414   23.0255 O   0  0  0  0  0  0  0  0  0  0  0  0
   14.8658  -18.0148   23.6746 O   0  0  0  0  0  0  0  0  0  0  0  0
  2  1  1  1
  2  3  1  0
  3  4  1  0
  5  6  2  0
  5  2  1  0
  7  5  1  0
  8  7  1  0
  8  9  1  1
 10  9  1  0
 10 18  1  0
 11 12  1  0
 11 10  2  0
 12 13  1  0
 13 18  2  0
 13 14  1  0
 14 15  2  0
 15 16  1  0
 17 16  2  0
 18 17  1  0
 19  8  1  0
 19 20  2  0
 22 24  1  0
 22 21  1  0
 23 22  2  0
 25 26  1  0
 25 24  1  6
 26 19  1  0
 27 25  1  0
 28 27  1  0
 29 27  2  0
M  END
$$$$
