CWN.pdb
     RDKit          3D

 29 30  0  0  1  0  0  0  0  0999 V2000
    8.8765  -17.3833   20.2260 N   0  0  0  0  0  0  0  0  0  0  0  0
    9.6074  -16.2093   20.5390 C   0  0  1  0  0  0  0  0  0  0  0  0
    8.8820  -15.0261   19.8958 C   0  0  0  0  0  0  0  0  0  0  0  0
    8.6494  -15.3386   18.1185 S   0  0  0  0  0  0  0  0  0  0  0  0
    9.6961  -15.9104   22.0016 C   0  0  0  0  0  0  0  0  0  0  0  0
   10.4309  -14.9654   22.3661 O   0  0  0  0  0  0  0  0  0  0  0  0
    8.9521  -16.6941   22.9179 N   0  0  0  0  0  0  0  0  0  0  0  0
    9.0114  -16.5205   24.3407 C   0  0  1  0  0  0  0  0  0  0  0  0
    7.6221  -16.4217   24.9290 C   0  0  0  0  0  0  0  0  0  0  0  0
    7.1342  -15.0347   24.6825 C   0  0  0  0  0  0  0  0  0  0  0  0
    6.5416  -14.5762   23.5324 C   0  0  0  0  0  0  0  0  0  0  0  0
    6.2532  -13.2693   23.7370 N   0  0  0  0  0  0  0  0  0  0  0  0
    6.6261  -12.8671   24.9503 C   0  0  0  0  0  0  0  0  0  0  0  0
    6.5869  -11.7044   25.6863 C   0  0  0  0  0  0  0  0  0  0  0  0
    7.0615  -11.5764   26.9702 C   0  0  0  0  0  0  0  0  0  0  0  0
    7.6235  -12.7061   27.5721 C   0  0  0  0  0  0  0  0  0  0  0  0
    7.6837  -13.8965   26.8691 C   0  0  0  0  0  0  0  0  0  0  0  0
    7.1892  -13.9620   25.5787 C   0  0  0  0  0  0  0  0  0  0  0  0
    9.8695  -17.5219   24.9396 C   0  0  0  0  0  0  0  0  0  0  0  0
    9.5486  -18.7572   24.8034 O   0  0  0  0  0  0  0  0  0  0  0  0
   13.9046  -18.8347   23.9730 N   0  0  0  0  0  0  0  0  0  0  0  0
   13.7730  -17.6832   24.8105 C   0  0  0  0  0  0  0  0  0  0  0  0
   14.0452  -16.5688   24.3312 O   0  0  0  0  0  0  0  0  0  0  0  0
   13.3238  -17.8043   26.2101 C   0  0  0  0  0  0  0  0  0  0  0  0
   11.8457  -18.1866   26.2724 C   0  0  2  0  0  0  0  0  0  0  0  0
   11.0359  -17.1712   25.6630 N   0  0  0  0  0  0  0  0  0  0  0  0
   11.4423  -18.3175   27.6940 C   0  0  0  0  0  0  0  0  0  0  0  0
   12.0750  -19.2805   28.4606 O   0  0  0  0  0  0  0  0  0  0  0  0
   10.5773  -17.6010   28.1848 O   0  0  0  0  0  0  0  0  0  0  0  0
  2  1  1  1
  2  3  1  0
  3  4  1  0
  5  6  2  0
  5  2  1  0
  7  5  1  0
  8  7  1  0
  8  9  1  1
 10  9  1  0
 10 18  1  0
 11 12  1  0
 11 10  2  0
 12 13  1  0
 13 18  2  0
 13 14  1  0
 14 15  2  0
 15 16  1  0
 17 16  2  0
 18 17  1  0
 19  8  1  0
 19 20  2  0
 22 24  1  0
 22 21  1  0
 23 22  2  0
 25 26  1  0
 25 24  1  1
 26 19  1  0
 27 25  1  0
 28 27  1  0
 29 27  2  0
M  END
$$$$
