CWN.pdb
     RDKit          3D

 29 30  0  0  1  0  0  0  0  0999 V2000
    7.0581  -14.4656   20.0342 N   0  0  0  0  0  0  0  0  0  0  0  0
    7.1218  -15.5066   20.9948 C   0  0  1  0  0  0  0  0  0  0  0  0
    7.5181  -16.7898   20.2625 C   0  0  0  0  0  0  0  0  0  0  0  0
    9.2281  -16.6502   19.6567 S   0  0  0  0  0  0  0  0  0  0  0  0
    8.1436  -15.2948   22.0661 C   0  0  0  0  0  0  0  0  0  0  0  0
    9.0428  -14.4487   21.8632 O   0  0  0  0  0  0  0  0  0  0  0  0
    8.0611  -16.0466   23.2641 N   0  0  0  0  0  0  0  0  0  0  0  0
    9.0073  -15.9356   24.3366 C   0  0  1  0  0  0  0  0  0  0  0  0
    8.3269  -16.1137   25.6751 C   0  0  0  0  0  0  0  0  0  0  0  0
    7.2900  -15.0488   25.7900 C   0  0  0  0  0  0  0  0  0  0  0  0
    5.9392  -15.2094   25.6060 C   0  0  0  0  0  0  0  0  0  0  0  0
    5.3714  -13.9972   25.8092 N   0  0  0  0  0  0  0  0  0  0  0  0
    6.2804  -13.0728   26.1129 C   0  0  0  0  0  0  0  0  0  0  0  0
    6.2945  -11.7295   26.4139 C   0  0  0  0  0  0  0  0  0  0  0  0
    7.4271  -11.0056   26.7024 C   0  0  0  0  0  0  0  0  0  0  0  0
    8.6515  -11.6802   26.6898 C   0  0  0  0  0  0  0  0  0  0  0  0
    8.6846  -13.0312   26.3924 C   0  0  0  0  0  0  0  0  0  0  0  0
    7.5096  -13.7048   26.1099 C   0  0  0  0  0  0  0  0  0  0  0  0
   10.1471  -16.7975   24.1000 C   0  0  0  0  0  0  0  0  0  0  0  0
    9.9286  -18.0320   23.8247 O   0  0  0  0  0  0  0  0  0  0  0  0
   13.6469  -14.5432   22.2177 N   0  0  0  0  0  0  0  0  0  0  0  0
   13.8517  -15.9386   22.4535 C   0  0  0  0  0  0  0  0  0  0  0  0
   14.0063  -16.6878   21.4734 O   0  0  0  0  0  0  0  0  0  0  0  0
   13.8825  -16.4850   23.8230 C   0  0  0  0  0  0  0  0  0  0  0  0
   12.5840  -17.2260   24.1389 C   0  0  2  0  0  0  0  0  0  0  0  0
   11.4769  -16.3139   24.1674 N   0  0  0  0  0  0  0  0  0  0  0  0
   12.7043  -17.8590   25.4751 C   0  0  0  0  0  0  0  0  0  0  0  0
   12.2999  -17.1263   26.5775 O   0  0  0  0  0  0  0  0  0  0  0  0
   13.1462  -18.9942   25.6108 O   0  0  0  0  0  0  0  0  0  0  0  0
  2  1  1  6
  2  3  1  0
  3  4  1  0
  5  6  2  0
  5  2  1  0
  7  5  1  0
  8  7  1  0
  8  9  1  1
 10  9  1  0
 10 18  1  0
 11 12  1  0
 11 10  2  0
 12 13  1  0
 13 18  2  0
 13 14  1  0
 14 15  2  0
 15 16  1  0
 17 16  2  0
 18 17  1  0
 19  8  1  0
 19 20  2  0
 22 24  1  0
 22 21  1  0
 23 22  2  0
 25 26  1  0
 25 24  1  1
 26 19  1  0
 27 25  1  0
 28 27  1  0
 29 27  2  0
M  END
$$$$
