CWN.pdb
     RDKit          3D

 29 30  0  0  1  0  0  0  0  0999 V2000
    7.2641  -15.2180   20.2291 N   0  0  0  0  0  0  0  0  0  0  0  0
    7.4059  -16.0547   21.3650 C   0  0  1  0  0  0  0  0  0  0  0  0
    7.8696  -17.4275   20.8748 C   0  0  0  0  0  0  0  0  0  0  0  0
    9.6215  -17.3490   20.3899 S   0  0  0  0  0  0  0  0  0  0  0  0
    8.4284  -15.5869   22.3509 C   0  0  0  0  0  0  0  0  0  0  0  0
    9.1666  -14.6306   22.0250 O   0  0  0  0  0  0  0  0  0  0  0  0
    8.5264  -16.2304   23.6093 N   0  0  0  0  0  0  0  0  0  0  0  0
    9.4023  -15.7926   24.6578 C   0  0  1  0  0  0  0  0  0  0  0  0
    8.7666  -16.0039   26.0133 C   0  0  0  0  0  0  0  0  0  0  0  0
    7.5508  -15.1431   26.0714 C   0  0  0  0  0  0  0  0  0  0  0  0
    6.2495  -15.5712   25.9845 C   0  0  0  0  0  0  0  0  0  0  0  0
    5.4692  -14.4695   26.0871 N   0  0  0  0  0  0  0  0  0  0  0  0
    6.1960  -13.3638   26.2353 C   0  0  0  0  0  0  0  0  0  0  0  0
    5.9652  -12.0152   26.3869 C   0  0  0  0  0  0  0  0  0  0  0  0
    6.9490  -11.0655   26.5290 C   0  0  0  0  0  0  0  0  0  0  0  0
    8.2782  -11.4987   26.5190 C   0  0  0  0  0  0  0  0  0  0  0  0
    8.5569  -12.8458   26.3691 C   0  0  0  0  0  0  0  0  0  0  0  0
    7.5222  -13.7535   26.2299 C   0  0  0  0  0  0  0  0  0  0  0  0
   10.7203  -16.3701   24.4933 C   0  0  0  0  0  0  0  0  0  0  0  0
   11.5828  -16.1915   25.4270 O   0  0  0  0  0  0  0  0  0  0  0  0
   11.5222  -19.8717   24.7463 N   0  0  0  0  0  0  0  0  0  0  0  0
   11.8067  -20.1215   23.3675 C   0  0  0  0  0  0  0  0  0  0  0  0
   11.6420  -21.2731   22.9286 O   0  0  0  0  0  0  0  0  0  0  0  0
   12.2824  -19.0449   22.4787 C   0  0  0  0  0  0  0  0  0  0  0  0
   12.3686  -17.7192   23.2336 C   0  0  2  0  0  0  0  0  0  0  0  0
   11.0720  -17.1143   23.3404 N   0  0  0  0  0  0  0  0  0  0  0  0
   13.2561  -16.7961   22.4847 C   0  0  0  0  0  0  0  0  0  0  0  0
   14.5842  -17.1552   22.3334 O   0  0  0  0  0  0  0  0  0  0  0  0
   12.8378  -15.7460   22.0105 O   0  0  0  0  0  0  0  0  0  0  0  0
  2  1  1  6
  2  3  1  0
  3  4  1  0
  5  6  2  0
  5  2  1  0
  7  5  1  0
  8  7  1  0
  8  9  1  1
 10  9  1  0
 10 18  1  0
 11 12  1  0
 11 10  2  0
 12 13  1  0
 13 18  2  0
 13 14  1  0
 14 15  2  0
 15 16  1  0
 17 16  2  0
 18 17  1  0
 19  8  1  0
 19 20  2  0
 22 24  1  0
 22 21  1  0
 23 22  2  0
 25 26  1  0
 25 24  1  6
 26 19  1  0
 27 25  1  0
 28 27  1  0
 29 27  2  0
M  END
$$$$
