CWN.pdb
     RDKit          3D

 29 30  0  0  1  0  0  0  0  0999 V2000
    6.8888  -14.7531   20.4494 N   0  0  0  0  0  0  0  0  0  0  0  0
    7.1927  -15.7342   21.4269 C   0  0  1  0  0  0  0  0  0  0  0  0
    7.6966  -16.9787   20.6939 C   0  0  0  0  0  0  0  0  0  0  0  0
    7.6956  -18.4030   21.8261 S   0  0  0  0  0  0  0  0  0  0  0  0
    8.2717  -15.3373   22.3834 C   0  0  0  0  0  0  0  0  0  0  0  0
    9.0603  -14.4293   22.0380 O   0  0  0  0  0  0  0  0  0  0  0  0
    8.3646  -15.9909   23.6370 N   0  0  0  0  0  0  0  0  0  0  0  0
    9.3550  -15.6737   24.6252 C   0  0  1  0  0  0  0  0  0  0  0  0
    8.7822  -15.7947   26.0192 C   0  0  0  0  0  0  0  0  0  0  0  0
    7.5526  -14.9532   26.0675 C   0  0  0  0  0  0  0  0  0  0  0  0
    6.2587  -15.4024   25.9758 C   0  0  0  0  0  0  0  0  0  0  0  0
    5.4605  -14.3128   26.0697 N   0  0  0  0  0  0  0  0  0  0  0  0
    6.1688  -13.1950   26.2168 C   0  0  0  0  0  0  0  0  0  0  0  0
    5.9158  -11.8496   26.3615 C   0  0  0  0  0  0  0  0  0  0  0  0
    6.8837  -10.8838   26.5044 C   0  0  0  0  0  0  0  0  0  0  0  0
    8.2196  -11.2958   26.5031 C   0  0  0  0  0  0  0  0  0  0  0  0
    8.5205  -12.6389   26.3603 C   0  0  0  0  0  0  0  0  0  0  0  0
    7.5010  -13.5636   26.2199 C   0  0  0  0  0  0  0  0  0  0  0  0
   10.5703  -16.4244   24.3860 C   0  0  0  0  0  0  0  0  0  0  0  0
   11.4191  -16.5276   25.3433 O   0  0  0  0  0  0  0  0  0  0  0  0
   10.5975  -20.0692   23.4511 N   0  0  0  0  0  0  0  0  0  0  0  0
   11.0484  -19.8731   22.1085 C   0  0  0  0  0  0  0  0  0  0  0  0
   10.6967  -20.6912   21.2408 O   0  0  0  0  0  0  0  0  0  0  0  0
   11.9085  -18.7295   21.7512 C   0  0  0  0  0  0  0  0  0  0  0  0
   12.0526  -17.7714   22.9327 C   0  0  2  0  0  0  0  0  0  0  0  0
   10.8381  -17.0353   23.1363 N   0  0  0  0  0  0  0  0  0  0  0  0
   13.1415  -16.8073   22.6402 C   0  0  0  0  0  0  0  0  0  0  0  0
   14.4210  -17.3074   22.4717 O   0  0  0  0  0  0  0  0  0  0  0  0
   12.9268  -15.6041   22.5485 O   0  0  0  0  0  0  0  0  0  0  0  0
  2  1  1  6
  2  3  1  0
  3  4  1  0
  5  6  2  0
  5  2  1  0
  7  5  1  0
  8  7  1  0
  8  9  1  1
 10  9  1  0
 10 18  1  0
 11 12  1  0
 11 10  2  0
 12 13  1  0
 13 18  2  0
 13 14  1  0
 14 15  2  0
 15 16  1  0
 17 16  2  0
 18 17  1  0
 19  8  1  0
 19 20  2  0
 22 24  1  0
 22 21  1  0
 23 22  2  0
 25 26  1  0
 25 24  1  6
 26 19  1  0
 27 25  1  0
 28 27  1  0
 29 27  2  0
M  END
$$$$
