CWN.pdb
     RDKit          3D

 29 30  0  0  1  0  0  0  0  0999 V2000
    7.0832  -15.9619   19.6837 N   0  0  0  0  0  0  0  0  0  0  0  0
    7.2443  -16.6647   20.9045 C   0  0  1  0  0  0  0  0  0  0  0  0
    7.7436  -18.0709   20.5678 C   0  0  0  0  0  0  0  0  0  0  0  0
    9.4390  -17.9821   19.9133 S   0  0  0  0  0  0  0  0  0  0  0  0
    8.2529  -16.0654   21.8320 C   0  0  0  0  0  0  0  0  0  0  0  0
    8.9497  -15.1157   21.4101 O   0  0  0  0  0  0  0  0  0  0  0  0
    8.3843  -16.5826   23.1444 N   0  0  0  0  0  0  0  0  0  0  0  0
    9.3365  -16.0916   24.0985 C   0  0  1  0  0  0  0  0  0  0  0  0
    8.8402  -16.3018   25.5112 C   0  0  0  0  0  0  0  0  0  0  0  0
    7.6286  -15.4511   25.6862 C   0  0  0  0  0  0  0  0  0  0  0  0
    6.3243  -15.8700   25.5991 C   0  0  0  0  0  0  0  0  0  0  0  0
    5.5499  -14.7832   25.8277 N   0  0  0  0  0  0  0  0  0  0  0  0
    6.2833  -13.6956   26.0563 C   0  0  0  0  0  0  0  0  0  0  0  0
    6.0601  -12.3672   26.3400 C   0  0  0  0  0  0  0  0  0  0  0  0
    7.0498  -11.4343   26.5402 C   0  0  0  0  0  0  0  0  0  0  0  0
    8.3771  -11.8638   26.4496 C   0  0  0  0  0  0  0  0  0  0  0  0
    8.6482  -13.1909   26.1662 C   0  0  0  0  0  0  0  0  0  0  0  0
    7.6078  -14.0824   25.9744 C   0  0  0  0  0  0  0  0  0  0  0  0
   10.6555  -16.6207   23.8187 C   0  0  0  0  0  0  0  0  0  0  0  0
   10.7548  -17.8523   23.4709 O   0  0  0  0  0  0  0  0  0  0  0  0
   15.8987  -16.3008   21.9692 N   0  0  0  0  0  0  0  0  0  0  0  0
   15.4933  -15.8415   23.2612 C   0  0  0  0  0  0  0  0  0  0  0  0
   16.3012  -15.9325   24.2019 O   0  0  0  0  0  0  0  0  0  0  0  0
   14.1517  -15.2699   23.4821 C   0  0  0  0  0  0  0  0  0  0  0  0
   13.1118  -16.3778   23.6434 C   0  0  2  0  0  0  0  0  0  0  0  0
   11.8195  -15.8202   23.9215 N   0  0  0  0  0  0  0  0  0  0  0  0
   13.5039  -17.2432   24.7827 C   0  0  0  0  0  0  0  0  0  0  0  0
   13.0879  -16.8734   26.0499 O   0  0  0  0  0  0  0  0  0  0  0  0
   14.1747  -18.2560   24.6191 O   0  0  0  0  0  0  0  0  0  0  0  0
  2  1  1  6
  2  3  1  0
  3  4  1  0
  5  6  2  0
  5  2  1  0
  7  5  1  0
  8  7  1  0
  8  9  1  1
 10  9  1  0
 10 18  1  0
 11 12  1  0
 11 10  2  0
 12 13  1  0
 13 18  2  0
 13 14  1  0
 14 15  2  0
 15 16  1  0
 17 16  2  0
 18 17  1  0
 19  8  1  0
 19 20  2  0
 22 24  1  0
 22 21  1  0
 23 22  2  0
 25 26  1  0
 25 24  1  1
 26 19  1  0
 27 25  1  0
 28 27  1  0
 29 27  2  0
M  END
$$$$
