CWN.pdb
     RDKit          3D

 29 30  0  0  1  0  0  0  0  0999 V2000
    6.9507  -14.4168   19.8320 N   0  0  0  0  0  0  0  0  0  0  0  0
    6.9305  -15.3810   20.8714 C   0  0  1  0  0  0  0  0  0  0  0  0
    7.0633  -16.7616   20.2260 C   0  0  0  0  0  0  0  0  0  0  0  0
    8.7027  -16.9253   19.4538 S   0  0  0  0  0  0  0  0  0  0  0  0
    8.0561  -15.2575   21.8482 C   0  0  0  0  0  0  0  0  0  0  0  0
    9.0433  -14.5604   21.5241 O   0  0  0  0  0  0  0  0  0  0  0  0
    7.9697  -15.9223   23.0963 N   0  0  0  0  0  0  0  0  0  0  0  0
    8.9502  -15.7894   24.1351 C   0  0  1  0  0  0  0  0  0  0  0  0
    8.3432  -16.0822   25.4886 C   0  0  0  0  0  0  0  0  0  0  0  0
    7.2713  -15.0726   25.7211 C   0  0  0  0  0  0  0  0  0  0  0  0
    5.9186  -15.2987   25.6648 C   0  0  0  0  0  0  0  0  0  0  0  0
    5.3144  -14.1194   25.9428 N   0  0  0  0  0  0  0  0  0  0  0  0
    6.2021  -13.1542   26.1740 C   0  0  0  0  0  0  0  0  0  0  0  0
    6.1795  -11.8159   26.4957 C   0  0  0  0  0  0  0  0  0  0  0  0
    7.2978  -11.0395   26.6869 C   0  0  0  0  0  0  0  0  0  0  0  0
    8.5469  -11.6513   26.5450 C   0  0  0  0  0  0  0  0  0  0  0  0
    8.6171  -12.9950   26.2223 C   0  0  0  0  0  0  0  0  0  0  0  0
    7.4548  -13.7234   26.0420 C   0  0  0  0  0  0  0  0  0  0  0  0
   10.1402  -16.5488   23.8109 C   0  0  0  0  0  0  0  0  0  0  0  0
    9.9949  -17.7198   23.3057 O   0  0  0  0  0  0  0  0  0  0  0  0
   15.6845  -16.4666   21.9154 N   0  0  0  0  0  0  0  0  0  0  0  0
   15.0233  -16.6172   23.1742 C   0  0  0  0  0  0  0  0  0  0  0  0
   15.4981  -17.4161   24.0001 O   0  0  0  0  0  0  0  0  0  0  0  0
   13.8077  -15.8461   23.4953 C   0  0  0  0  0  0  0  0  0  0  0  0
   12.5971  -16.7706   23.6159 C   0  0  2  0  0  0  0  0  0  0  0  0
   11.4403  -16.0346   24.0385 N   0  0  0  0  0  0  0  0  0  0  0  0
   12.8867  -17.8123   24.6317 C   0  0  0  0  0  0  0  0  0  0  0  0
   13.2537  -19.0693   24.1836 O   0  0  0  0  0  0  0  0  0  0  0  0
   12.8068  -17.5787   25.8323 O   0  0  0  0  0  0  0  0  0  0  0  0
  2  1  1  6
  2  3  1  0
  3  4  1  0
  5  6  2  0
  5  2  1  0
  7  5  1  0
  8  7  1  0
  8  9  1  1
 10  9  1  0
 10 18  1  0
 11 12  1  0
 11 10  2  0
 12 13  1  0
 13 18  2  0
 13 14  1  0
 14 15  2  0
 15 16  1  0
 17 16  2  0
 18 17  1  0
 19  8  1  0
 19 20  2  0
 22 24  1  0
 22 21  1  0
 23 22  2  0
 25 26  1  0
 25 24  1  1
 26 19  1  0
 27 25  1  0
 28 27  1  0
 29 27  2  0
M  END
$$$$
