CWN.pdb
     RDKit          3D

 29 30  0  0  1  0  0  0  0  0999 V2000
    8.6801  -16.1317   19.7411 N   0  0  0  0  0  0  0  0  0  0  0  0
    8.5808  -15.3049   20.8886 C   0  0  1  0  0  0  0  0  0  0  0  0
    7.1503  -14.7666   20.9501 C   0  0  0  0  0  0  0  0  0  0  0  0
    5.9729  -16.1524   21.0122 S   0  0  0  0  0  0  0  0  0  0  0  0
    8.8248  -16.0144   22.1822 C   0  0  0  0  0  0  0  0  0  0  0  0
    8.6249  -17.2490   22.2236 O   0  0  0  0  0  0  0  0  0  0  0  0
    9.2725  -15.2771   23.3061 N   0  0  0  0  0  0  0  0  0  0  0  0
    9.4418  -15.8466   24.6119 C   0  0  1  0  0  0  0  0  0  0  0  0
    8.1269  -16.3673   25.1465 C   0  0  0  0  0  0  0  0  0  0  0  0
    7.2138  -15.1980   25.2925 C   0  0  0  0  0  0  0  0  0  0  0  0
    5.9427  -15.0936   24.7851 C   0  0  0  0  0  0  0  0  0  0  0  0
    5.4748  -13.8775   25.1531 N   0  0  0  0  0  0  0  0  0  0  0  0
    6.3723  -13.2001   25.8662 C   0  0  0  0  0  0  0  0  0  0  0  0
    6.4541  -11.9734   26.4855 C   0  0  0  0  0  0  0  0  0  0  0  0
    7.5492  -11.5223   27.1834 C   0  0  0  0  0  0  0  0  0  0  0  0
    8.6588  -12.3681   27.2713 C   0  0  0  0  0  0  0  0  0  0  0  0
    8.6207  -13.6108   26.6637 C   0  0  0  0  0  0  0  0  0  0  0  0
    7.4887  -14.0080   25.9746 C   0  0  0  0  0  0  0  0  0  0  0  0
   10.5334  -16.7986   24.6135 C   0  0  0  0  0  0  0  0  0  0  0  0
   10.2538  -18.0438   24.4762 O   0  0  0  0  0  0  0  0  0  0  0  0
   14.4386  -16.6990   22.3272 N   0  0  0  0  0  0  0  0  0  0  0  0
   14.3943  -15.9990   23.5732 C   0  0  0  0  0  0  0  0  0  0  0  0
   14.4415  -14.7568   23.5560 O   0  0  0  0  0  0  0  0  0  0  0  0
   14.2929  -16.7245   24.8533 C   0  0  0  0  0  0  0  0  0  0  0  0
   12.9114  -17.3588   25.0074 C   0  0  2  0  0  0  0  0  0  0  0  0
   11.8815  -16.3902   24.7635 N   0  0  0  0  0  0  0  0  0  0  0  0
   12.7642  -17.8598   26.3959 C   0  0  0  0  0  0  0  0  0  0  0  0
   13.5792  -18.9040   26.7972 O   0  0  0  0  0  0  0  0  0  0  0  0
   11.9503  -17.3724   27.1719 O   0  0  0  0  0  0  0  0  0  0  0  0
  2  1  1  6
  2  3  1  0
  3  4  1  0
  5  6  2  0
  5  2  1  0
  7  5  1  0
  8  7  1  0
  8  9  1  6
 10  9  1  0
 10 18  1  0
 11 12  1  0
 11 10  2  0
 12 13  1  0
 13 18  2  0
 13 14  1  0
 14 15  2  0
 15 16  1  0
 17 16  2  0
 18 17  1  0
 19  8  1  0
 19 20  2  0
 22 24  1  0
 22 21  1  0
 23 22  2  0
 25 26  1  0
 25 24  1  1
 26 19  1  0
 27 25  1  0
 28 27  1  0
 29 27  2  0
M  END
$$$$
