CWN.pdb
     RDKit          3D

 29 30  0  0  1  0  0  0  0  0999 V2000
    9.8320  -16.0879   19.8015 N   0  0  0  0  0  0  0  0  0  0  0  0
    9.5696  -17.1437   20.7108 C   0  0  1  0  0  0  0  0  0  0  0  0
   10.5266  -18.2901   20.3791 C   0  0  0  0  0  0  0  0  0  0  0  0
   10.1406  -19.7342   21.4165 S   0  0  0  0  0  0  0  0  0  0  0  0
    9.8052  -16.7939   22.1456 C   0  0  0  0  0  0  0  0  0  0  0  0
   10.8813  -16.2299   22.4452 O   0  0  0  0  0  0  0  0  0  0  0  0
    8.8139  -17.1045   23.1089 N   0  0  0  0  0  0  0  0  0  0  0  0
    8.9656  -16.8516   24.5128 C   0  0  1  0  0  0  0  0  0  0  0  0
    7.6240  -16.5957   25.1615 C   0  0  0  0  0  0  0  0  0  0  0  0
    7.1854  -15.2319   24.7489 C   0  0  0  0  0  0  0  0  0  0  0  0
    6.5573  -14.9033   23.5735 C   0  0  0  0  0  0  0  0  0  0  0  0
    6.3365  -13.5680   23.6097 N   0  0  0  0  0  0  0  0  0  0  0  0
    6.7860  -13.0254   24.7396 C   0  0  0  0  0  0  0  0  0  0  0  0
    6.8338  -11.7738   25.3108 C   0  0  0  0  0  0  0  0  0  0  0  0
    7.3762  -11.4981   26.5436 C   0  0  0  0  0  0  0  0  0  0  0  0
    7.9175  -12.5632   27.2695 C   0  0  0  0  0  0  0  0  0  0  0  0
    7.8910  -13.8388   26.7339 C   0  0  0  0  0  0  0  0  0  0  0  0
    7.3312  -14.0525   25.4869 C   0  0  0  0  0  0  0  0  0  0  0  0
    9.7673  -17.8867   25.1321 C   0  0  0  0  0  0  0  0  0  0  0  0
    9.4566  -19.1118   24.9078 O   0  0  0  0  0  0  0  0  0  0  0  0
   14.7564  -20.1294   26.4669 N   0  0  0  0  0  0  0  0  0  0  0  0
   13.9718  -19.2171   27.2393 C   0  0  0  0  0  0  0  0  0  0  0  0
   14.0013  -19.3134   28.4785 O   0  0  0  0  0  0  0  0  0  0  0  0
   13.1456  -18.1817   26.5906 C   0  0  0  0  0  0  0  0  0  0  0  0
   11.6866  -18.6280   26.5071 C   0  0  2  0  0  0  0  0  0  0  0  0
   10.8684  -17.5796   25.9688 N   0  0  0  0  0  0  0  0  0  0  0  0
   11.2021  -18.9464   27.8726 C   0  0  0  0  0  0  0  0  0  0  0  0
   10.1808  -18.1716   28.3943 O   0  0  0  0  0  0  0  0  0  0  0  0
   11.6834  -19.8641   28.5273 O   0  0  0  0  0  0  0  0  0  0  0  0
  2  1  1  6
  2  3  1  0
  3  4  1  0
  5  6  2  0
  5  2  1  0
  7  5  1  0
  8  7  1  0
  8  9  1  1
 10  9  1  0
 10 18  1  0
 11 12  1  0
 11 10  2  0
 12 13  1  0
 13 18  2  0
 13 14  1  0
 14 15  2  0
 15 16  1  0
 17 16  2  0
 18 17  1  0
 19  8  1  0
 19 20  2  0
 22 24  1  0
 22 21  1  0
 23 22  2  0
 25 26  1  0
 25 24  1  1
 26 19  1  0
 27 25  1  0
 28 27  1  0
 29 27  2  0
M  END
$$$$
