CWN.pdb
     RDKit          3D

 29 30  0  0  1  0  0  0  0  0999 V2000
    6.8958  -14.1417   20.0068 N   0  0  0  0  0  0  0  0  0  0  0  0
    7.1951  -15.3205   20.7357 C   0  0  1  0  0  0  0  0  0  0  0  0
    7.7528  -16.3473   19.7486 C   0  0  0  0  0  0  0  0  0  0  0  0
    7.9740  -17.9482   20.5844 S   0  0  0  0  0  0  0  0  0  0  0  0
    8.2339  -15.1418   21.7966 C   0  0  0  0  0  0  0  0  0  0  0  0
    9.1375  -14.2987   21.6000 O   0  0  0  0  0  0  0  0  0  0  0  0
    8.1622  -15.9201   22.9782 N   0  0  0  0  0  0  0  0  0  0  0  0
    9.1145  -15.8285   24.0472 C   0  0  1  0  0  0  0  0  0  0  0  0
    8.4872  -16.2312   25.3627 C   0  0  0  0  0  0  0  0  0  0  0  0
    7.3490  -15.3017   25.6136 C   0  0  0  0  0  0  0  0  0  0  0  0
    6.0153  -15.6008   25.4878 C   0  0  0  0  0  0  0  0  0  0  0  0
    5.3318  -14.4784   25.8138 N   0  0  0  0  0  0  0  0  0  0  0  0
    6.1510  -13.4810   26.1411 C   0  0  0  0  0  0  0  0  0  0  0  0
    6.0364  -12.1699   26.5445 C   0  0  0  0  0  0  0  0  0  0  0  0
    7.0985  -11.3448   26.8296 C   0  0  0  0  0  0  0  0  0  0  0  0
    8.3863  -11.8735   26.7011 C   0  0  0  0  0  0  0  0  0  0  0  0
    8.5487  -13.1873   26.2983 C   0  0  0  0  0  0  0  0  0  0  0  0
    7.4395  -13.9678   26.0253 C   0  0  0  0  0  0  0  0  0  0  0  0
   10.3352  -16.5274   23.7017 C   0  0  0  0  0  0  0  0  0  0  0  0
   10.2530  -17.5466   22.9258 O   0  0  0  0  0  0  0  0  0  0  0  0
   15.2389  -17.9844   23.2855 N   0  0  0  0  0  0  0  0  0  0  0  0
   15.1705  -16.5580   23.2135 C   0  0  0  0  0  0  0  0  0  0  0  0
   16.1964  -15.9318   22.8954 O   0  0  0  0  0  0  0  0  0  0  0  0
   13.9169  -15.8380   23.5057 C   0  0  0  0  0  0  0  0  0  0  0  0
   12.7895  -16.8206   23.8193 C   0  0  2  0  0  0  0  0  0  0  0  0
   11.5974  -16.1170   24.1965 N   0  0  0  0  0  0  0  0  0  0  0  0
   13.2040  -17.6821   24.9537 C   0  0  0  0  0  0  0  0  0  0  0  0
   12.9936  -17.2084   26.2370 O   0  0  0  0  0  0  0  0  0  0  0  0
   13.7173  -18.7802   24.7723 O   0  0  0  0  0  0  0  0  0  0  0  0
  2  1  1  6
  2  3  1  0
  3  4  1  0
  5  6  2  0
  5  2  1  0
  7  5  1  0
  8  7  1  0
  8  9  1  1
 10  9  1  0
 10 18  1  0
 11 12  1  0
 11 10  2  0
 12 13  1  0
 13 18  2  0
 13 14  1  0
 14 15  2  0
 15 16  1  0
 17 16  2  0
 18 17  1  0
 19  8  1  0
 19 20  2  0
 22 24  1  0
 22 21  1  0
 23 22  2  0
 25 26  1  0
 25 24  1  1
 26 19  1  0
 27 25  1  0
 28 27  1  0
 29 27  2  0
M  END
$$$$
