WVS.pdb
     RDKit          3D

 28 29  0  0  1  0  0  0  0  0999 V2000
   27.4540  -19.3652  -10.1482 N   0  0  0  0  0  0  0  0  0  0  0  0
   26.6708  -20.5726  -10.2382 C   0  0  1  0  0  0  0  0  0  0  0  0
   26.1002  -20.9485   -8.9223 C   0  0  0  0  0  0  0  0  0  0  0  0
   26.8297  -20.3760   -7.7665 C   0  0  0  0  0  0  0  0  0  0  0  0
   26.3784  -19.4325   -6.8614 C   0  0  0  0  0  0  0  0  0  0  0  0
   27.3319  -19.1342   -5.9731 N   0  0  0  0  0  0  0  0  0  0  0  0
   28.4018  -19.8873   -6.3044 C   0  0  0  0  0  0  0  0  0  0  0  0
   29.6648  -19.9868   -5.7181 C   0  0  0  0  0  0  0  0  0  0  0  0
   30.6279  -20.8374   -6.2121 C   0  0  0  0  0  0  0  0  0  0  0  0
   30.3219  -21.6073   -7.3183 C   0  0  0  0  0  0  0  0  0  0  0  0
   29.0930  -21.5359   -7.9201 C   0  0  0  0  0  0  0  0  0  0  0  0
   28.1455  -20.6727   -7.4039 C   0  0  0  0  0  0  0  0  0  0  0  0
   25.7202  -20.5155  -11.3630 C   0  0  0  0  0  0  0  0  0  0  0  0
   25.2747  -19.3847  -11.6877 O   0  0  0  0  0  0  0  0  0  0  0  0
   25.1742  -23.7953  -14.0553 C   0  0  0  0  0  0  0  0  0  0  0  0
   25.1775  -22.3313  -14.3657 C   0  0  2  0  0  0  0  0  0  0  0  0
   26.5670  -21.8030  -14.6678 C   0  0  0  0  0  0  0  0  0  0  0  0
   24.5045  -21.4697  -13.3344 C   0  0  2  0  0  0  0  0  0  0  0  0
   25.2662  -21.6174  -12.1118 N   0  0  0  0  0  0  0  0  0  0  0  0
   23.0892  -21.6957  -13.1552 C   0  0  0  0  0  0  0  0  0  0  0  0
   22.7915  -22.4234  -12.1358 O   0  0  0  0  0  0  0  0  0  0  0  0
   18.8833  -19.9918  -13.8651 O   0  0  0  0  0  0  0  0  0  0  0  0
   19.8833  -20.4248  -12.9995 C   0  0  0  0  0  0  0  0  0  0  0  0
   20.6482  -21.6003  -13.5701 C   0  0  2  0  0  0  0  0  0  0  0  0
   22.0051  -21.2459  -13.9149 N   0  0  0  0  0  0  0  0  0  0  0  0
   19.9091  -22.0755  -14.7458 C   0  0  0  0  0  0  0  0  0  0  0  0
   18.6726  -22.6629  -14.7285 O   0  0  0  0  0  0  0  0  0  0  0  0
   20.4641  -21.9293  -15.8809 O   0  0  0  0  0  0  0  0  0  0  0  0
  2 13  1  0
  2  1  1  1
  3  4  1  0
  3  2  1  0
  4  5  2  0
  4 12  1  0
  5  6  1  0
  6  7  1  0
  7  8  2  0
  8  9  1  0
 10  9  2  0
 11 10  1  0
 12 11  2  0
 12  7  1  0
 13 14  2  0
 16 18  1  0
 16 15  1  1
 17 16  1  0
 19 13  1  0
 18 19  1  1
 20 18  1  0
 20 21  2  0
 22 23  1  0
 24 23  1  6
 24 25  1  0
 24 26  1  0
 25 20  1  0
 26 27  1  0
 28 26  2  0
M  END
$$$$
