WVS.pdb
     RDKit          3D

 28 29  0  0  1  0  0  0  0  0999 V2000
   28.2934  -21.5503  -10.7392 N   0  0  0  0  0  0  0  0  0  0  0  0
   26.9610  -21.2222  -10.2960 C   0  0  1  0  0  0  0  0  0  0  0  0
   26.9874  -20.3476   -9.0989 C   0  0  0  0  0  0  0  0  0  0  0  0
   28.1432  -20.5905   -8.2038 C   0  0  0  0  0  0  0  0  0  0  0  0
   29.3269  -21.2397   -8.5041 C   0  0  0  0  0  0  0  0  0  0  0  0
   30.1214  -21.2966   -7.4304 N   0  0  0  0  0  0  0  0  0  0  0  0
   29.4498  -20.6821   -6.4340 C   0  0  0  0  0  0  0  0  0  0  0  0
   29.8043  -20.4452   -5.1047 C   0  0  0  0  0  0  0  0  0  0  0  0
   28.9659  -19.7802   -4.2387 C   0  0  0  0  0  0  0  0  0  0  0  0
   27.7441  -19.3408   -4.7121 C   0  0  0  0  0  0  0  0  0  0  0  0
   27.3623  -19.5555   -6.0105 C   0  0  0  0  0  0  0  0  0  0  0  0
   28.2231  -20.2268   -6.8576 C   0  0  0  0  0  0  0  0  0  0  0  0
   26.1190  -20.7623  -11.4147 C   0  0  0  0  0  0  0  0  0  0  0  0
   26.7005  -20.2386  -12.3997 O   0  0  0  0  0  0  0  0  0  0  0  0
   24.0331  -22.8448  -13.5417 C   0  0  0  0  0  0  0  0  0  0  0  0
   24.3919  -21.4083  -13.7600 C   0  0  2  0  0  0  0  0  0  0  0  0
   25.8649  -21.2160  -14.0670 C   0  0  0  0  0  0  0  0  0  0  0  0
   23.9630  -20.4801  -12.6583 C   0  0  2  0  0  0  0  0  0  0  0  0
   24.7165  -20.8597  -11.4815 N   0  0  0  0  0  0  0  0  0  0  0  0
   22.5401  -20.4010  -12.4233 C   0  0  0  0  0  0  0  0  0  0  0  0
   22.1358  -21.0451  -11.3846 O   0  0  0  0  0  0  0  0  0  0  0  0
   20.2074  -17.3239  -12.5113 O   0  0  0  0  0  0  0  0  0  0  0  0
   19.4894  -18.4072  -13.0090 C   0  0  0  0  0  0  0  0  0  0  0  0
   20.1732  -19.7223  -12.7003 C   0  0  2  0  0  0  0  0  0  0  0  0
   21.5464  -19.7353  -13.1472 N   0  0  0  0  0  0  0  0  0  0  0  0
   19.3944  -20.7843  -13.3485 C   0  0  0  0  0  0  0  0  0  0  0  0
   18.1506  -21.2099  -12.9661 O   0  0  0  0  0  0  0  0  0  0  0  0
   19.9192  -21.3606  -14.3537 O   0  0  0  0  0  0  0  0  0  0  0  0
  2 13  1  0
  2  1  1  6
  3  4  1  0
  3  2  1  0
  4  5  2  0
  4 12  1  0
  5  6  1  0
  6  7  1  0
  7  8  2  0
  8  9  1  0
 10  9  2  0
 11 10  1  0
 12 11  2  0
 12  7  1  0
 13 14  2  0
 16 18  1  0
 16 15  1  1
 17 16  1  0
 19 13  1  0
 18 19  1  1
 20 18  1  0
 20 21  2  0
 22 23  1  0
 24 23  1  6
 24 25  1  0
 24 26  1  0
 25 20  1  0
 26 27  1  0
 28 26  2  0
M  END
$$$$
