WVS.pdb
     RDKit          3D

 28 29  0  0  1  0  0  0  0  0999 V2000
   20.2248  -17.3957  -16.0717 N   0  0  0  0  0  0  0  0  0  0  0  0
   20.6379  -18.7671  -16.2382 C   0  0  1  0  0  0  0  0  0  0  0  0
   20.5272  -19.1991  -17.6523 C   0  0  0  0  0  0  0  0  0  0  0  0
   19.1482  -19.1399  -18.1915 C   0  0  0  0  0  0  0  0  0  0  0  0
   18.6651  -18.3230  -19.1975 C   0  0  0  0  0  0  0  0  0  0  0  0
   17.3579  -18.5285  -19.3878 N   0  0  0  0  0  0  0  0  0  0  0  0
   16.9955  -19.4811  -18.5031 C   0  0  0  0  0  0  0  0  0  0  0  0
   15.7590  -20.0846  -18.2669 C   0  0  0  0  0  0  0  0  0  0  0  0
   15.6001  -21.0600  -17.3085 C   0  0  0  0  0  0  0  0  0  0  0  0
   16.7030  -21.4419  -16.5684 C   0  0  0  0  0  0  0  0  0  0  0  0
   17.9321  -20.8715  -16.7723 C   0  0  0  0  0  0  0  0  0  0  0  0
   18.0626  -19.8940  -17.7402 C   0  0  0  0  0  0  0  0  0  0  0  0
   21.9331  -19.0228  -15.5831 C   0  0  0  0  0  0  0  0  0  0  0  0
   22.8491  -18.1794  -15.7623 O   0  0  0  0  0  0  0  0  0  0  0  0
   24.4800  -21.1085  -11.9387 C   0  0  0  0  0  0  0  0  0  0  0  0
   23.2661  -20.9369  -12.7970 C   0  0  2  0  0  0  0  0  0  0  0  0
   22.4893  -22.2280  -12.9722 C   0  0  0  0  0  0  0  0  0  0  0  0
   23.5273  -20.2997  -14.1330 C   0  0  2  0  0  0  0  0  0  0  0  0
   22.2375  -20.1298  -14.7688 N   0  0  0  0  0  0  0  0  0  0  0  0
   24.4919  -20.9730  -14.9711 C   0  0  0  0  0  0  0  0  0  0  0  0
   24.0000  -21.9156  -15.6969 O   0  0  0  0  0  0  0  0  0  0  0  0
   28.8250  -21.7713  -17.0457 O   0  0  0  0  0  0  0  0  0  0  0  0
   28.0535  -20.9844  -16.1957 C   0  0  0  0  0  0  0  0  0  0  0  0
   26.6656  -21.5590  -16.0060 C   0  0  2  0  0  0  0  0  0  0  0  0
   25.8658  -20.7554  -15.1115 N   0  0  0  0  0  0  0  0  0  0  0  0
   26.8229  -22.9256  -15.4939 C   0  0  0  0  0  0  0  0  0  0  0  0
   27.1859  -24.0190  -16.2334 O   0  0  0  0  0  0  0  0  0  0  0  0
   26.6035  -23.1122  -14.2550 O   0  0  0  0  0  0  0  0  0  0  0  0
  2 13  1  0
  2  1  1  6
  3  4  1  0
  3  2  1  0
  4  5  2  0
  4 12  1  0
  5  6  1  0
  6  7  1  0
  7  8  2  0
  8  9  1  0
 10  9  2  0
 11 10  1  0
 12 11  2  0
 12  7  1  0
 13 14  2  0
 16 18  1  0
 16 15  1  6
 17 16  1  0
 19 13  1  0
 18 19  1  6
 20 18  1  0
 20 21  2  0
 22 23  1  0
 24 23  1  1
 24 25  1  0
 24 26  1  0
 25 20  1  0
 26 27  1  0
 28 26  2  0
M  END
$$$$
