WVS.pdb
     RDKit          3D

 28 29  0  0  1  0  0  0  0  0999 V2000
   28.4173  -14.2927  -20.9083 N   0  0  0  0  0  0  0  0  0  0  0  0
   27.6957  -14.5742  -19.6921 C   0  0  1  0  0  0  0  0  0  0  0  0
   27.6796  -13.4002  -18.7866 C   0  0  0  0  0  0  0  0  0  0  0  0
   29.0146  -12.7972  -18.5623 C   0  0  0  0  0  0  0  0  0  0  0  0
   29.3515  -11.4559  -18.5692 C   0  0  0  0  0  0  0  0  0  0  0  0
   30.6625  -11.2958  -18.3620 N   0  0  0  0  0  0  0  0  0  0  0  0
   31.1740  -12.5367  -18.2202 C   0  0  0  0  0  0  0  0  0  0  0  0
   32.4810  -12.9631  -17.9780 C   0  0  0  0  0  0  0  0  0  0  0  0
   32.7967  -14.2974  -17.8547 C   0  0  0  0  0  0  0  0  0  0  0  0
   31.7823  -15.2281  -17.9761 C   0  0  0  0  0  0  0  0  0  0  0  0
   30.4879  -14.8465  -18.2140 C   0  0  0  0  0  0  0  0  0  0  0  0
   30.1996  -13.5005  -18.3344 C   0  0  0  0  0  0  0  0  0  0  0  0
   26.3877  -15.1928  -19.9726 C   0  0  0  0  0  0  0  0  0  0  0  0
   25.9103  -15.0395  -21.1263 O   0  0  0  0  0  0  0  0  0  0  0  0
   25.2877  -18.8273  -19.9138 C   0  0  0  0  0  0  0  0  0  0  0  0
   24.4261  -17.9864  -19.0249 C   0  0  2  0  0  0  0  0  0  0  0  0
   23.0326  -18.5602  -18.8520 C   0  0  0  0  0  0  0  0  0  0  0  0
   24.3489  -16.5368  -19.4147 C   0  0  2  0  0  0  0  0  0  0  0  0
   25.6228  -15.9457  -19.0621 N   0  0  0  0  0  0  0  0  0  0  0  0
   23.2173  -15.8065  -18.8927 C   0  0  0  0  0  0  0  0  0  0  0  0
   23.2800  -15.5590  -17.6309 O   0  0  0  0  0  0  0  0  0  0  0  0
   19.6872  -14.3522  -20.7978 O   0  0  0  0  0  0  0  0  0  0  0  0
   20.3655  -13.6000  -19.8434 C   0  0  0  0  0  0  0  0  0  0  0  0
   21.1249  -14.4795  -18.8727 C   0  0  2  0  0  0  0  0  0  0  0  0
   22.0763  -15.3319  -19.5465 N   0  0  0  0  0  0  0  0  0  0  0  0
   20.1355  -15.2709  -18.1317 C   0  0  0  0  0  0  0  0  0  0  0  0
   19.3299  -14.8053  -17.1274 O   0  0  0  0  0  0  0  0  0  0  0  0
   20.0143  -16.4967  -18.4490 O   0  0  0  0  0  0  0  0  0  0  0  0
  2 13  1  0
  2  1  1  6
  3  4  1  0
  3  2  1  0
  4  5  2  0
  4 12  1  0
  5  6  1  0
  6  7  1  0
  7  8  2  0
  8  9  1  0
 10  9  2  0
 11 10  1  0
 12 11  2  0
 12  7  1  0
 13 14  2  0
 16 18  1  0
 16 15  1  6
 17 16  1  0
 19 13  1  0
 18 19  1  1
 20 18  1  0
 20 21  2  0
 22 23  1  0
 24 23  1  6
 24 25  1  0
 24 26  1  0
 25 20  1  0
 26 27  1  0
 28 26  2  0
M  END
$$$$
