WVS.pdb
     RDKit          3D

 28 29  0  0  1  0  0  0  0  0999 V2000
   15.9640   -7.9579   -9.1116 N   0  0  0  0  0  0  0  0  0  0  0  0
   16.3766   -8.5150  -10.3759 C   0  0  1  0  0  0  0  0  0  0  0  0
   15.2102   -8.9205  -11.1966 C   0  0  0  0  0  0  0  0  0  0  0  0
   14.3865   -9.9883  -10.5823 C   0  0  0  0  0  0  0  0  0  0  0  0
   13.1190   -9.8760  -10.0404 C   0  0  0  0  0  0  0  0  0  0  0  0
   12.7090  -11.0491   -9.5476 N   0  0  0  0  0  0  0  0  0  0  0  0
   13.7137  -11.9219   -9.7722 C   0  0  0  0  0  0  0  0  0  0  0  0
   13.8253  -13.2813   -9.4751 C   0  0  0  0  0  0  0  0  0  0  0  0
   14.9498  -14.0046   -9.8032 C   0  0  0  0  0  0  0  0  0  0  0  0
   15.9876  -13.3543  -10.4436 C   0  0  0  0  0  0  0  0  0  0  0  0
   15.9134  -12.0210  -10.7508 C   0  0  0  0  0  0  0  0  0  0  0  0
   14.7733  -11.3192  -10.4089 C   0  0  0  0  0  0  0  0  0  0  0  0
   17.3708   -7.6565  -11.0441 C   0  0  0  0  0  0  0  0  0  0  0  0
   17.3238   -6.4223  -10.8053 O   0  0  0  0  0  0  0  0  0  0  0  0
   20.7471   -8.9701  -13.6389 C   0  0  0  0  0  0  0  0  0  0  0  0
   20.6478   -7.9343  -12.5634 C   0  0  2  0  0  0  0  0  0  0  0  0
   20.9840   -8.4856  -11.1907 C   0  0  0  0  0  0  0  0  0  0  0  0
   19.3395   -7.1954  -12.5228 C   0  0  2  0  0  0  0  0  0  0  0  0
   18.3746   -8.0961  -11.9274 N   0  0  0  0  0  0  0  0  0  0  0  0
   18.8969   -6.6344  -13.7780 C   0  0  0  0  0  0  0  0  0  0  0  0
   18.3649   -7.4862  -14.5833 O   0  0  0  0  0  0  0  0  0  0  0  0
   17.7967   -2.8398  -14.6173 O   0  0  0  0  0  0  0  0  0  0  0  0
   17.4070   -3.8675  -15.4709 C   0  0  0  0  0  0  0  0  0  0  0  0
   18.4537   -4.9587  -15.5487 C   0  0  2  0  0  0  0  0  0  0  0  0
   18.9581   -5.3176  -14.2439 N   0  0  0  0  0  0  0  0  0  0  0  0
   19.5312   -4.4717  -16.4183 C   0  0  0  0  0  0  0  0  0  0  0  0
   19.3733   -3.9747  -17.6842 O   0  0  0  0  0  0  0  0  0  0  0  0
   20.7159   -4.5139  -15.9572 O   0  0  0  0  0  0  0  0  0  0  0  0
  2 13  1  0
  2  1  1  1
  3  4  1  0
  3  2  1  0
  4  5  2  0
  4 12  1  0
  5  6  1  0
  6  7  1  0
  7  8  2  0
  8  9  1  0
 10  9  2  0
 11 10  1  0
 12 11  2  0
 12  7  1  0
 13 14  2  0
 16 18  1  0
 16 15  1  6
 17 16  1  0
 19 13  1  0
 18 19  1  6
 20 18  1  0
 20 21  2  0
 22 23  1  0
 24 23  1  1
 24 25  1  0
 24 26  1  0
 25 20  1  0
 26 27  1  0
 28 26  2  0
M  END
$$$$
