WVS.pdb
     RDKit          3D

 28 29  0  0  1  0  0  0  0  0999 V2000
   19.1192  -13.8387  -16.9089 N   0  0  0  0  0  0  0  0  0  0  0  0
   19.5581  -12.5749  -17.4469 C   0  0  1  0  0  0  0  0  0  0  0  0
   18.6972  -12.1354  -18.5713 C   0  0  0  0  0  0  0  0  0  0  0  0
   18.6931  -13.0674  -19.7234 C   0  0  0  0  0  0  0  0  0  0  0  0
   17.7286  -14.0014  -20.0555 C   0  0  0  0  0  0  0  0  0  0  0  0
   18.0875  -14.6852  -21.1468 N   0  0  0  0  0  0  0  0  0  0  0  0
   19.2864  -14.1914  -21.5213 C   0  0  0  0  0  0  0  0  0  0  0  0
   20.1173  -14.5260  -22.5920 C   0  0  0  0  0  0  0  0  0  0  0  0
   21.3158  -13.8838  -22.8073 C   0  0  0  0  0  0  0  0  0  0  0  0
   21.6933  -12.8831  -21.9320 C   0  0  0  0  0  0  0  0  0  0  0  0
   20.9035  -12.5280  -20.8700 C   0  0  0  0  0  0  0  0  0  0  0  0
   19.7061  -13.1900  -20.6772 C   0  0  0  0  0  0  0  0  0  0  0  0
   19.7837  -11.5842  -16.3793 C   0  0  0  0  0  0  0  0  0  0  0  0
   18.9180  -11.5057  -15.4699 O   0  0  0  0  0  0  0  0  0  0  0  0
   22.6548  -11.0493  -13.9850 C   0  0  0  0  0  0  0  0  0  0  0  0
   22.3588   -9.7650  -14.6939 C   0  0  2  0  0  0  0  0  0  0  0  0
   22.6464   -8.5468  -13.8369 C   0  0  0  0  0  0  0  0  0  0  0  0
   20.9778   -9.6759  -15.2806 C   0  0  2  0  0  0  0  0  0  0  0  0
   20.8874  -10.7160  -16.2840 N   0  0  0  0  0  0  0  0  0  0  0  0
   20.5877   -8.3747  -15.7714 C   0  0  0  0  0  0  0  0  0  0  0  0
   21.2471   -7.9753  -16.8023 O   0  0  0  0  0  0  0  0  0  0  0  0
   16.9989   -6.6525  -15.7841 O   0  0  0  0  0  0  0  0  0  0  0  0
   18.0074   -6.1971  -16.6281 C   0  0  0  0  0  0  0  0  0  0  0  0
   19.3615   -6.2291  -15.9516 C   0  0  2  0  0  0  0  0  0  0  0  0
   19.6101   -7.4936  -15.2997 N   0  0  0  0  0  0  0  0  0  0  0  0
   19.3979   -5.1206  -14.9903 C   0  0  0  0  0  0  0  0  0  0  0  0
   19.2347   -3.7953  -15.2925 O   0  0  0  0  0  0  0  0  0  0  0  0
   19.5980   -5.4149  -13.7691 O   0  0  0  0  0  0  0  0  0  0  0  0
  2 13  1  0
  2  1  1  1
  3  4  1  0
  3  2  1  0
  4  5  2  0
  4 12  1  0
  5  6  1  0
  6  7  1  0
  7  8  2  0
  8  9  1  0
 10  9  2  0
 11 10  1  0
 12 11  2  0
 12  7  1  0
 13 14  2  0
 16 18  1  0
 16 15  1  1
 17 16  1  0
 19 13  1  0
 18 19  1  6
 20 18  1  0
 20 21  2  0
 22 23  1  0
 24 23  1  1
 24 25  1  0
 24 26  1  0
 25 20  1  0
 26 27  1  0
 28 26  2  0
M  END
$$$$
