WVS.pdb
     RDKit          3D

 28 29  0  0  1  0  0  0  0  0999 V2000
   28.4936  -21.1994  -10.0673 N   0  0  0  0  0  0  0  0  0  0  0  0
   27.1052  -20.8193   -9.9835 C   0  0  1  0  0  0  0  0  0  0  0  0
   26.9337  -19.5532   -9.2310 C   0  0  0  0  0  0  0  0  0  0  0  0
   27.7192  -19.4901   -7.9761 C   0  0  0  0  0  0  0  0  0  0  0  0
   28.8707  -18.7640   -7.7317 C   0  0  0  0  0  0  0  0  0  0  0  0
   29.3153  -18.9849   -6.4904 N   0  0  0  0  0  0  0  0  0  0  0  0
   28.4487  -19.8552   -5.9310 C   0  0  0  0  0  0  0  0  0  0  0  0
   28.4199  -20.4223   -4.6557 C   0  0  0  0  0  0  0  0  0  0  0  0
   27.4264  -21.2952   -4.2732 C   0  0  0  0  0  0  0  0  0  0  0  0
   26.4378  -21.6090   -5.1865 C   0  0  0  0  0  0  0  0  0  0  0  0
   26.4339  -21.0719   -6.4472 C   0  0  0  0  0  0  0  0  0  0  0  0
   27.4438  -20.1993   -6.8047 C   0  0  0  0  0  0  0  0  0  0  0  0
   26.4489  -20.8825  -11.3016 C   0  0  0  0  0  0  0  0  0  0  0  0
   27.1537  -21.2322  -12.2831 O   0  0  0  0  0  0  0  0  0  0  0  0
   24.0154  -23.1433  -12.5532 C   0  0  0  0  0  0  0  0  0  0  0  0
   24.7444  -22.1029  -13.3443 C   0  0  2  0  0  0  0  0  0  0  0  0
   26.2304  -22.3883  -13.4521 C   0  0  0  0  0  0  0  0  0  0  0  0
   24.5164  -20.6904  -12.8838 C   0  0  2  0  0  0  0  0  0  0  0  0
   25.0972  -20.5882  -11.5613 N   0  0  0  0  0  0  0  0  0  0  0  0
   23.1509  -20.2237  -12.9445 C   0  0  0  0  0  0  0  0  0  0  0  0
   22.4985  -20.3425  -11.8411 O   0  0  0  0  0  0  0  0  0  0  0  0
   21.5821  -17.5533  -15.5022 O   0  0  0  0  0  0  0  0  0  0  0  0
   20.5957  -18.4208  -15.0424 C   0  0  0  0  0  0  0  0  0  0  0  0
   21.0711  -19.2313  -13.8552 C   0  0  2  0  0  0  0  0  0  0  0  0
   22.4392  -19.6668  -14.0113 N   0  0  0  0  0  0  0  0  0  0  0  0
   20.1631  -20.3758  -13.7137 C   0  0  0  0  0  0  0  0  0  0  0  0
   18.9962  -20.3862  -12.9979 O   0  0  0  0  0  0  0  0  0  0  0  0
   20.4868  -21.4531  -14.3077 O   0  0  0  0  0  0  0  0  0  0  0  0
  2 13  1  0
  2  1  1  6
  3  4  1  0
  3  2  1  0
  4  5  2  0
  4 12  1  0
  5  6  1  0
  6  7  1  0
  7  8  2  0
  8  9  1  0
 10  9  2  0
 11 10  1  0
 12 11  2  0
 12  7  1  0
 13 14  2  0
 16 18  1  0
 16 15  1  1
 17 16  1  0
 19 13  1  0
 18 19  1  1
 20 18  1  0
 20 21  2  0
 22 23  1  0
 24 23  1  6
 24 25  1  0
 24 26  1  0
 25 20  1  0
 26 27  1  0
 28 26  2  0
M  END
$$$$
