WVS.pdb
     RDKit          3D

 28 29  0  0  1  0  0  0  0  0999 V2000
   14.9700  -15.1410    4.4395 N   0  0  0  0  0  0  0  0  0  0  0  0
   16.2355  -15.8319    4.4202 C   0  0  1  0  0  0  0  0  0  0  0  0
   17.1338  -15.3486    5.4963 C   0  0  0  0  0  0  0  0  0  0  0  0
   17.8311  -14.0819    5.1720 C   0  0  0  0  0  0  0  0  0  0  0  0
   17.3909  -13.0564    4.3550 C   0  0  0  0  0  0  0  0  0  0  0  0
   18.3088  -12.0879    4.2744 N   0  0  0  0  0  0  0  0  0  0  0  0
   19.3445  -12.4880    5.0418 C   0  0  0  0  0  0  0  0  0  0  0  0
   20.5621  -11.8678    5.3272 C   0  0  0  0  0  0  0  0  0  0  0  0
   21.4945  -12.4492    6.1565 C   0  0  0  0  0  0  0  0  0  0  0  0
   21.2033  -13.6797    6.7144 C   0  0  0  0  0  0  0  0  0  0  0  0
   20.0187  -14.3182    6.4567 C   0  0  0  0  0  0  0  0  0  0  0  0
   19.1014  -13.7121    5.6197 C   0  0  0  0  0  0  0  0  0  0  0  0
   16.0510  -17.2918    4.3384 C   0  0  0  0  0  0  0  0  0  0  0  0
   15.1396  -17.8005    5.0405 O   0  0  0  0  0  0  0  0  0  0  0  0
   16.7859  -21.5853    2.0054 C   0  0  0  0  0  0  0  0  0  0  0  0
   16.9410  -20.1078    2.1862 C   0  0  2  0  0  0  0  0  0  0  0  0
   18.3064  -19.6081    1.7539 C   0  0  0  0  0  0  0  0  0  0  0  0
   16.6146  -19.6068    3.5653 C   0  0  2  0  0  0  0  0  0  0  0  0
   16.8048  -18.1716    3.5391 N   0  0  0  0  0  0  0  0  0  0  0  0
   17.3143  -20.2551    4.6499 C   0  0  0  0  0  0  0  0  0  0  0  0
   18.4744  -19.7594    4.9063 O   0  0  0  0  0  0  0  0  0  0  0  0
   15.8647  -22.9784    7.4741 O   0  0  0  0  0  0  0  0  0  0  0  0
   16.8997  -22.1009    7.7831 C   0  0  0  0  0  0  0  0  0  0  0  0
   17.7360  -21.7694    6.5652 C   0  0  2  0  0  0  0  0  0  0  0  0
   16.9235  -21.3288    5.4555 N   0  0  0  0  0  0  0  0  0  0  0  0
   18.5008  -22.9729    6.2176 C   0  0  0  0  0  0  0  0  0  0  0  0
   19.4307  -23.5862    7.0135 O   0  0  0  0  0  0  0  0  0  0  0  0
   18.2817  -23.4933    5.0778 O   0  0  0  0  0  0  0  0  0  0  0  0
  2 13  1  0
  2  1  1  1
  3  4  1  0
  3  2  1  0
  4  5  2  0
  4 12  1  0
  5  6  1  0
  6  7  1  0
  7  8  2  0
  8  9  1  0
 10  9  2  0
 11 10  1  0
 12 11  2  0
 12  7  1  0
 13 14  2  0
 16 18  1  0
 16 15  1  1
 17 16  1  0
 19 13  1  0
 18 19  1  6
 20 18  1  0
 20 21  2  0
 22 23  1  0
 24 23  1  1
 24 25  1  0
 24 26  1  0
 25 20  1  0
 26 27  1  0
 28 26  2  0
M  END
$$$$
