WVS.pdb
     RDKit          3D

 28 29  0  0  1  0  0  0  0  0999 V2000
   24.7997  -20.3269  -12.6388 N   0  0  0  0  0  0  0  0  0  0  0  0
   25.9264  -20.7866  -11.8651 C   0  0  1  0  0  0  0  0  0  0  0  0
   27.1815  -20.7388  -12.6531 C   0  0  0  0  0  0  0  0  0  0  0  0
   27.1079  -21.4646  -13.9430 C   0  0  0  0  0  0  0  0  0  0  0  0
   27.5641  -21.0453  -15.1795 C   0  0  0  0  0  0  0  0  0  0  0  0
   27.2903  -21.9560  -16.1191 N   0  0  0  0  0  0  0  0  0  0  0  0
   26.6563  -22.9667  -15.4882 C   0  0  0  0  0  0  0  0  0  0  0  0
   26.1529  -24.1740  -15.9756 C   0  0  0  0  0  0  0  0  0  0  0  0
   25.5390  -25.0890  -15.1503 C   0  0  0  0  0  0  0  0  0  0  0  0
   25.4255  -24.7908  -13.8056 C   0  0  0  0  0  0  0  0  0  0  0  0
   25.9075  -23.6155  -13.2917 C   0  0  0  0  0  0  0  0  0  0  0  0
   26.5182  -22.7148  -14.1432 C   0  0  0  0  0  0  0  0  0  0  0  0
   25.9692  -20.1419  -10.5405 C   0  0  0  0  0  0  0  0  0  0  0  0
   25.6036  -18.9404  -10.4693 O   0  0  0  0  0  0  0  0  0  0  0  0
   25.4770  -22.0897   -6.7187 C   0  0  0  0  0  0  0  0  0  0  0  0
   25.1377  -20.7662   -7.3295 C   0  0  2  0  0  0  0  0  0  0  0  0
   23.9114  -20.8328   -8.2199 C   0  0  0  0  0  0  0  0  0  0  0  0
   26.2734  -20.1000   -8.0545 C   0  0  2  0  0  0  0  0  0  0  0  0
   26.3817  -20.7538   -9.3419 N   0  0  0  0  0  0  0  0  0  0  0  0
   27.5261  -20.0408   -7.3378 C   0  0  0  0  0  0  0  0  0  0  0  0
   28.2889  -21.0626   -7.5146 O   0  0  0  0  0  0  0  0  0  0  0  0
   29.0412  -17.3843   -4.2384 O   0  0  0  0  0  0  0  0  0  0  0  0
   29.8263  -17.9383   -5.2451 C   0  0  0  0  0  0  0  0  0  0  0  0
   29.2523  -19.2460   -5.7480 C   0  0  2  0  0  0  0  0  0  0  0  0
   28.0294  -19.0492   -6.4905 N   0  0  0  0  0  0  0  0  0  0  0  0
   29.0307  -20.1059   -4.5793 C   0  0  0  0  0  0  0  0  0  0  0  0
   30.0021  -20.5726   -3.7350 O   0  0  0  0  0  0  0  0  0  0  0  0
   27.8319  -20.4483   -4.3271 O   0  0  0  0  0  0  0  0  0  0  0  0
  2 13  1  0
  2  1  1  6
  3  4  1  0
  3  2  1  0
  4  5  2  0
  4 12  1  0
  5  6  1  0
  6  7  1  0
  7  8  2  0
  8  9  1  0
 10  9  2  0
 11 10  1  0
 12 11  2  0
 12  7  1  0
 13 14  2  0
 16 18  1  0
 16 15  1  6
 17 16  1  0
 19 13  1  0
 18 19  1  6
 20 18  1  0
 20 21  2  0
 22 23  1  0
 24 23  1  1
 24 25  1  0
 24 26  1  0
 25 20  1  0
 26 27  1  0
 28 26  2  0
M  END
$$$$
