WVS.pdb
     RDKit          3D

 28 29  0  0  1  0  0  0  0  0999 V2000
   24.9876  -21.3090   -9.0712 N   0  0  0  0  0  0  0  0  0  0  0  0
   26.0489  -20.7631   -9.8804 C   0  0  1  0  0  0  0  0  0  0  0  0
   27.3696  -20.9294   -9.2272 C   0  0  0  0  0  0  0  0  0  0  0  0
   27.4803  -20.2484   -7.9158 C   0  0  0  0  0  0  0  0  0  0  0  0
   26.5811  -19.3714   -7.3367 C   0  0  0  0  0  0  0  0  0  0  0  0
   27.0389  -18.9321   -6.1600 N   0  0  0  0  0  0  0  0  0  0  0  0
   28.2363  -19.5273   -5.9776 C   0  0  0  0  0  0  0  0  0  0  0  0
   29.1480  -19.4401   -4.9240 C   0  0  0  0  0  0  0  0  0  0  0  0
   30.3284  -20.1484   -4.9268 C   0  0  0  0  0  0  0  0  0  0  0  0
   30.6047  -20.9637   -6.0080 C   0  0  0  0  0  0  0  0  0  0  0  0
   29.7337  -21.0740   -7.0601 C   0  0  0  0  0  0  0  0  0  0  0  0
   28.5567  -20.3508   -7.0315 C   0  0  0  0  0  0  0  0  0  0  0  0
   25.9547  -21.2261  -11.2764 C   0  0  0  0  0  0  0  0  0  0  0  0
   25.7213  -22.4475  -11.4667 O   0  0  0  0  0  0  0  0  0  0  0  0
   24.8414  -18.6877  -14.3418 C   0  0  0  0  0  0  0  0  0  0  0  0
   24.6813  -20.1751  -14.2982 C   0  0  2  0  0  0  0  0  0  0  0  0
   23.4205  -20.6042  -13.5720 C   0  0  0  0  0  0  0  0  0  0  0  0
   25.8717  -20.9189  -13.7610 C   0  0  2  0  0  0  0  0  0  0  0  0
   26.1002  -20.4200  -12.4210 N   0  0  0  0  0  0  0  0  0  0  0  0
   27.0548  -20.8909  -14.5892 C   0  0  0  0  0  0  0  0  0  0  0  0
   27.7484  -19.8110  -14.4898 O   0  0  0  0  0  0  0  0  0  0  0  0
   30.5263  -22.6790  -17.4756 O   0  0  0  0  0  0  0  0  0  0  0  0
   29.4059  -22.9112  -16.6835 C   0  0  0  0  0  0  0  0  0  0  0  0
   28.7598  -21.6180  -16.2335 C   0  0  2  0  0  0  0  0  0  0  0  0
   27.5547  -21.8521  -15.4728 N   0  0  0  0  0  0  0  0  0  0  0  0
   28.4818  -20.8247  -17.4368 C   0  0  0  0  0  0  0  0  0  0  0  0
   29.3902  -20.0580  -18.1158 O   0  0  0  0  0  0  0  0  0  0  0  0
   27.2935  -20.8509  -17.8899 O   0  0  0  0  0  0  0  0  0  0  0  0
  2 13  1  0
  2  1  1  1
  3  4  1  0
  3  2  1  0
  4  5  2  0
  4 12  1  0
  5  6  1  0
  6  7  1  0
  7  8  2  0
  8  9  1  0
 10  9  2  0
 11 10  1  0
 12 11  2  0
 12  7  1  0
 13 14  2  0
 16 18  1  0
 16 15  1  1
 17 16  1  0
 19 13  1  0
 18 19  1  1
 20 18  1  0
 20 21  2  0
 22 23  1  0
 24 23  1  6
 24 25  1  0
 24 26  1  0
 25 20  1  0
 26 27  1  0
 28 26  2  0
M  END
$$$$
