WVS.pdb
     RDKit          3D

 28 29  0  0  1  0  0  0  0  0999 V2000
   25.0987  -21.5722   -9.2482 N   0  0  0  0  0  0  0  0  0  0  0  0
   26.0162  -20.4760   -9.4373 C   0  0  1  0  0  0  0  0  0  0  0  0
   27.2180  -20.6206   -8.5810 C   0  0  0  0  0  0  0  0  0  0  0  0
   26.9327  -20.5441   -7.1289 C   0  0  0  0  0  0  0  0  0  0  0  0
   25.7455  -20.8337   -6.4812 C   0  0  0  0  0  0  0  0  0  0  0  0
   25.8571  -20.6143   -5.1672 N   0  0  0  0  0  0  0  0  0  0  0  0
   27.1197  -20.1826   -4.9650 C   0  0  0  0  0  0  0  0  0  0  0  0
   27.7822  -19.8156   -3.7923 C   0  0  0  0  0  0  0  0  0  0  0  0
   29.0965  -19.4063   -3.8004 C   0  0  0  0  0  0  0  0  0  0  0  0
   29.7653  -19.3628   -5.0090 C   0  0  0  0  0  0  0  0  0  0  0  0
   29.1474  -19.7154   -6.1801 C   0  0  0  0  0  0  0  0  0  0  0  0
   27.8272  -20.1215   -6.1428 C   0  0  0  0  0  0  0  0  0  0  0  0
   26.2673  -20.2242  -10.8675 C   0  0  0  0  0  0  0  0  0  0  0  0
   27.4499  -19.9677  -11.2113 O   0  0  0  0  0  0  0  0  0  0  0  0
   27.1765  -20.9644  -15.0365 C   0  0  0  0  0  0  0  0  0  0  0  0
   26.5373  -21.1423  -13.6951 C   0  0  2  0  0  0  0  0  0  0  0  0
   25.8262  -22.4755  -13.5608 C   0  0  0  0  0  0  0  0  0  0  0  0
   25.6262  -20.0210  -13.2805 C   0  0  2  0  0  0  0  0  0  0  0  0
   25.2987  -20.2481  -11.8884 N   0  0  0  0  0  0  0  0  0  0  0  0
   24.4643  -19.8164  -14.1136 C   0  0  0  0  0  0  0  0  0  0  0  0
   23.4670  -20.5804  -13.8327 O   0  0  0  0  0  0  0  0  0  0  0  0
   24.0417  -17.0355  -17.0812 O   0  0  0  0  0  0  0  0  0  0  0  0
   22.8649  -17.3229  -16.3961 C   0  0  0  0  0  0  0  0  0  0  0  0
   22.9406  -18.6590  -15.6880 C   0  0  2  0  0  0  0  0  0  0  0  0
   24.2623  -18.9208  -15.1681 N   0  0  0  0  0  0  0  0  0  0  0  0
   22.5359  -19.6896  -16.6516 C   0  0  0  0  0  0  0  0  0  0  0  0
   21.2494  -19.9765  -17.0214 O   0  0  0  0  0  0  0  0  0  0  0  0
   23.4599  -20.3770  -17.1915 O   0  0  0  0  0  0  0  0  0  0  0  0
  2 13  1  0
  2  1  1  6
  3  4  1  0
  3  2  1  0
  4  5  2  0
  4 12  1  0
  5  6  1  0
  6  7  1  0
  7  8  2  0
  8  9  1  0
 10  9  2  0
 11 10  1  0
 12 11  2  0
 12  7  1  0
 13 14  2  0
 16 18  1  0
 16 15  1  6
 17 16  1  0
 19 13  1  0
 18 19  1  1
 20 18  1  0
 20 21  2  0
 22 23  1  0
 24 23  1  6
 24 25  1  0
 24 26  1  0
 25 20  1  0
 26 27  1  0
 28 26  2  0
M  END
$$$$
