WVS.pdb
     RDKit          3D

 28 29  0  0  1  0  0  0  0  0999 V2000
   10.3812  -10.0797  -12.8283 N   0  0  0  0  0  0  0  0  0  0  0  0
   11.2949   -9.1799  -12.1690 C   0  0  1  0  0  0  0  0  0  0  0  0
   12.2052   -9.9070  -11.2518 C   0  0  0  0  0  0  0  0  0  0  0  0
   11.5044  -10.6870  -10.2047 C   0  0  0  0  0  0  0  0  0  0  0  0
   11.3272  -12.0573  -10.1436 C   0  0  0  0  0  0  0  0  0  0  0  0
   10.6123  -12.3948   -9.0656 N   0  0  0  0  0  0  0  0  0  0  0  0
   10.3273  -11.2399   -8.4280 C   0  0  0  0  0  0  0  0  0  0  0  0
    9.6179  -10.9985   -7.2502 C   0  0  0  0  0  0  0  0  0  0  0  0
    9.4461   -9.7251   -6.7560 C   0  0  0  0  0  0  0  0  0  0  0  0
    9.9965   -8.6675   -7.4550 C   0  0  0  0  0  0  0  0  0  0  0  0
   10.6989   -8.8665   -8.6146 C   0  0  0  0  0  0  0  0  0  0  0  0
   10.8549  -10.1551   -9.0884 C   0  0  0  0  0  0  0  0  0  0  0  0
   11.9387   -8.2664  -13.1297 C   0  0  0  0  0  0  0  0  0  0  0  0
   12.1478   -8.7015  -14.2914 O   0  0  0  0  0  0  0  0  0  0  0  0
   11.4917   -4.1733  -13.0154 C   0  0  0  0  0  0  0  0  0  0  0  0
   11.8653   -5.0360  -14.1799 C   0  0  2  0  0  0  0  0  0  0  0  0
   10.6588   -5.6698  -14.8460 C   0  0  0  0  0  0  0  0  0  0  0  0
   12.9040   -6.0800  -13.8796 C   0  0  2  0  0  0  0  0  0  0  0  0
   12.3399   -6.9438  -12.8636 N   0  0  0  0  0  0  0  0  0  0  0  0
   14.2156   -5.5799  -13.5389 C   0  0  0  0  0  0  0  0  0  0  0  0
   14.3487   -5.2321  -12.3067 O   0  0  0  0  0  0  0  0  0  0  0  0
   17.5848   -5.7542  -15.8376 O   0  0  0  0  0  0  0  0  0  0  0  0
   17.7912   -5.6277  -14.4671 C   0  0  0  0  0  0  0  0  0  0  0  0
   16.6077   -4.9804  -13.7795 C   0  0  2  0  0  0  0  0  0  0  0  0
   15.3509   -5.4200  -14.3390 N   0  0  0  0  0  0  0  0  0  0  0  0
   16.7663   -3.5269  -13.9091 C   0  0  0  0  0  0  0  0  0  0  0  0
   15.9098   -2.6851  -14.5663 O   0  0  0  0  0  0  0  0  0  0  0  0
   17.7883   -3.0017  -13.3634 O   0  0  0  0  0  0  0  0  0  0  0  0
  2 13  1  0
  2  1  1  6
  3  4  1  0
  3  2  1  0
  4  5  2  0
  4 12  1  0
  5  6  1  0
  6  7  1  0
  7  8  2  0
  8  9  1  0
 10  9  2  0
 11 10  1  0
 12 11  2  0
 12  7  1  0
 13 14  2  0
 16 18  1  0
 16 15  1  1
 17 16  1  0
 19 13  1  0
 18 19  1  1
 20 18  1  0
 20 21  2  0
 22 23  1  0
 24 23  1  6
 24 25  1  0
 24 26  1  0
 25 20  1  0
 26 27  1  0
 28 26  2  0
M  END
$$$$
