WVS.pdb
     RDKit          3D

 28 29  0  0  1  0  0  0  0  0999 V2000
   26.5561  -20.0061  -17.1484 N   0  0  0  0  0  0  0  0  0  0  0  0
   26.3722  -19.4108  -15.8480 C   0  0  1  0  0  0  0  0  0  0  0  0
   25.8438  -18.0295  -15.9535 C   0  0  0  0  0  0  0  0  0  0  0  0
   26.6980  -17.1199  -16.7528 C   0  0  0  0  0  0  0  0  0  0  0  0
   26.2969  -16.0722  -17.5618 C   0  0  0  0  0  0  0  0  0  0  0  0
   27.3508  -15.4995  -18.1521 N   0  0  0  0  0  0  0  0  0  0  0  0
   28.4356  -16.1780  -17.7230 C   0  0  0  0  0  0  0  0  0  0  0  0
   29.7913  -16.0072  -18.0092 C   0  0  0  0  0  0  0  0  0  0  0  0
   30.7570  -16.8136  -17.4502 C   0  0  0  0  0  0  0  0  0  0  0  0
   30.3589  -17.8144  -16.5842 C   0  0  0  0  0  0  0  0  0  0  0  0
   29.0374  -18.0118  -16.2803 C   0  0  0  0  0  0  0  0  0  0  0  0
   28.0892  -17.1884  -16.8566 C   0  0  0  0  0  0  0  0  0  0  0  0
   25.6436  -20.3146  -14.9400 C   0  0  0  0  0  0  0  0  0  0  0  0
   25.0488  -21.2963  -15.4547 O   0  0  0  0  0  0  0  0  0  0  0  0
   24.7989  -21.9740  -10.3480 C   0  0  0  0  0  0  0  0  0  0  0  0
   25.3883  -21.0160  -11.3353 C   0  0  2  0  0  0  0  0  0  0  0  0
   25.3743  -19.5835  -10.8366 C   0  0  0  0  0  0  0  0  0  0  0  0
   24.7971  -21.0940  -12.7150 C   0  0  2  0  0  0  0  0  0  0  0  0
   25.5557  -20.1788  -13.5418 N   0  0  0  0  0  0  0  0  0  0  0  0
   23.3699  -20.8883  -12.7983 C   0  0  0  0  0  0  0  0  0  0  0  0
   23.0142  -19.6539  -12.8812 O   0  0  0  0  0  0  0  0  0  0  0  0
   20.4867  -23.5452  -13.9536 O   0  0  0  0  0  0  0  0  0  0  0  0
   20.2450  -22.1779  -14.0482 C   0  0  0  0  0  0  0  0  0  0  0  0
   20.9519  -21.4068  -12.9536 C   0  0  2  0  0  0  0  0  0  0  0  0
   22.3275  -21.8200  -12.8034 N   0  0  0  0  0  0  0  0  0  0  0  0
   20.1968  -21.6155  -11.7124 C   0  0  0  0  0  0  0  0  0  0  0  0
   18.8769  -21.3079  -11.5188 O   0  0  0  0  0  0  0  0  0  0  0  0
   20.8217  -22.1270  -10.7296 O   0  0  0  0  0  0  0  0  0  0  0  0
  2 13  1  0
  2  1  1  6
  3  4  1  0
  3  2  1  0
  4  5  2  0
  4 12  1  0
  5  6  1  0
  6  7  1  0
  7  8  2  0
  8  9  1  0
 10  9  2  0
 11 10  1  0
 12 11  2  0
 12  7  1  0
 13 14  2  0
 16 18  1  0
 16 15  1  1
 17 16  1  0
 19 13  1  0
 18 19  1  6
 20 18  1  0
 20 21  2  0
 22 23  1  0
 24 23  1  6
 24 25  1  0
 24 26  1  0
 25 20  1  0
 26 27  1  0
 28 26  2  0
M  END
$$$$
