WVS.pdb
     RDKit          3D

 28 29  0  0  1  0  0  0  0  0999 V2000
   23.6981  -19.5411  -16.7538 N   0  0  0  0  0  0  0  0  0  0  0  0
   23.2549  -18.9936  -15.4956 C   0  0  1  0  0  0  0  0  0  0  0  0
   22.1598  -18.0123  -15.6866 C   0  0  0  0  0  0  0  0  0  0  0  0
   22.5557  -16.8158  -16.4661 C   0  0  0  0  0  0  0  0  0  0  0  0
   22.0639  -16.3998  -17.6899 C   0  0  0  0  0  0  0  0  0  0  0  0
   22.6882  -15.2906  -18.0990 N   0  0  0  0  0  0  0  0  0  0  0  0
   23.5851  -14.9887  -17.1368 C   0  0  0  0  0  0  0  0  0  0  0  0
   24.4966  -13.9361  -17.0364 C   0  0  0  0  0  0  0  0  0  0  0  0
   25.3300  -13.8006  -15.9491 C   0  0  0  0  0  0  0  0  0  0  0  0
   25.2507  -14.7389  -14.9376 C   0  0  0  0  0  0  0  0  0  0  0  0
   24.3685  -15.7854  -15.0019 C   0  0  0  0  0  0  0  0  0  0  0  0
   23.5446  -15.8976  -16.1055 C   0  0  0  0  0  0  0  0  0  0  0  0
   23.0067  -20.0550  -14.5037 C   0  0  0  0  0  0  0  0  0  0  0  0
   22.5828  -21.1595  -14.9315 O   0  0  0  0  0  0  0  0  0  0  0  0
   25.3210  -20.9414  -11.3950 C   0  0  0  0  0  0  0  0  0  0  0  0
   23.8698  -20.8626  -11.0381 C   0  0  2  0  0  0  0  0  0  0  0  0
   23.4941  -21.8092   -9.9138 C   0  0  0  0  0  0  0  0  0  0  0  0
   22.9283  -21.0301  -12.1977 C   0  0  2  0  0  0  0  0  0  0  0  0
   23.2051  -19.9442  -13.1147 N   0  0  0  0  0  0  0  0  0  0  0  0
   21.5293  -21.1469  -11.8579 C   0  0  0  0  0  0  0  0  0  0  0  0
   20.9707  -20.0387  -11.5156 O   0  0  0  0  0  0  0  0  0  0  0  0
   19.0205  -24.4788  -12.1391 O   0  0  0  0  0  0  0  0  0  0  0  0
   18.4732  -23.2066  -12.2767 C   0  0  0  0  0  0  0  0  0  0  0  0
   19.2910  -22.1627  -11.5459 C   0  0  2  0  0  0  0  0  0  0  0  0
   20.6993  -22.2718  -11.8465 N   0  0  0  0  0  0  0  0  0  0  0  0
   19.0402  -22.3353  -10.1101 C   0  0  0  0  0  0  0  0  0  0  0  0
   17.8282  -22.1976   -9.4885 O   0  0  0  0  0  0  0  0  0  0  0  0
   20.0346  -22.6397   -9.3776 O   0  0  0  0  0  0  0  0  0  0  0  0
  2 13  1  0
  2  1  1  6
  3  4  1  0
  3  2  1  0
  4  5  2  0
  4 12  1  0
  5  6  1  0
  6  7  1  0
  7  8  2  0
  8  9  1  0
 10  9  2  0
 11 10  1  0
 12 11  2  0
 12  7  1  0
 13 14  2  0
 16 18  1  0
 16 15  1  6
 17 16  1  0
 19 13  1  0
 18 19  1  6
 20 18  1  0
 20 21  2  0
 22 23  1  0
 24 23  1  6
 24 25  1  0
 24 26  1  0
 25 20  1  0
 26 27  1  0
 28 26  2  0
M  END
$$$$
