WVS.pdb
     RDKit          3D

 28 29  0  0  1  0  0  0  0  0999 V2000
   24.3193  -19.8386   -9.1429 N   0  0  0  0  0  0  0  0  0  0  0  0
   25.6595  -20.1655   -9.5625 C   0  0  1  0  0  0  0  0  0  0  0  0
   26.2160  -21.2905   -8.7730 C   0  0  0  0  0  0  0  0  0  0  0  0
   26.2808  -21.0268   -7.3162 C   0  0  0  0  0  0  0  0  0  0  0  0
   25.3280  -21.3208   -6.3578 C   0  0  0  0  0  0  0  0  0  0  0  0
   25.7245  -20.9019   -5.1517 N   0  0  0  0  0  0  0  0  0  0  0  0
   26.9368  -20.3366   -5.3310 C   0  0  0  0  0  0  0  0  0  0  0  0
   27.8120  -19.7449   -4.4185 C   0  0  0  0  0  0  0  0  0  0  0  0
   29.0264  -19.2279   -4.8100 C   0  0  0  0  0  0  0  0  0  0  0  0
   29.3750  -19.3041   -6.1451 C   0  0  0  0  0  0  0  0  0  0  0  0
   28.5413  -19.8775   -7.0691 C   0  0  0  0  0  0  0  0  0  0  0  0
   27.3279  -20.3875   -6.6485 C   0  0  0  0  0  0  0  0  0  0  0  0
   25.7483  -20.2972  -11.0277 C   0  0  0  0  0  0  0  0  0  0  0  0
   24.7175  -20.6816  -11.6379 O   0  0  0  0  0  0  0  0  0  0  0  0
   27.9142  -18.4040  -15.0168 C   0  0  0  0  0  0  0  0  0  0  0  0
   27.9200  -18.8664  -13.5935 C   0  0  2  0  0  0  0  0  0  0  0  0
   29.2652  -19.4233  -13.1675 C   0  0  0  0  0  0  0  0  0  0  0  0
   26.8215  -19.8303  -13.2424 C   0  0  2  0  0  0  0  0  0  0  0  0
   26.8872  -20.0274  -11.8094 N   0  0  0  0  0  0  0  0  0  0  0  0
   26.8103  -21.0672  -13.9882 C   0  0  0  0  0  0  0  0  0  0  0  0
   27.5744  -21.9850  -13.5077 O   0  0  0  0  0  0  0  0  0  0  0  0
   23.9055  -22.7807  -16.2251 O   0  0  0  0  0  0  0  0  0  0  0  0
   24.9864  -23.5137  -15.7443 C   0  0  0  0  0  0  0  0  0  0  0  0
   26.2662  -22.7050  -15.7661 C   0  0  2  0  0  0  0  0  0  0  0  0
   26.1000  -21.4135  -15.1415 N   0  0  0  0  0  0  0  0  0  0  0  0
   26.6738  -22.5669  -17.1693 C   0  0  0  0  0  0  0  0  0  0  0  0
   26.9477  -23.5984  -18.0270 O   0  0  0  0  0  0  0  0  0  0  0  0
   26.7825  -21.3866  -17.6309 O   0  0  0  0  0  0  0  0  0  0  0  0
  2 13  1  0
  2  1  1  6
  3  4  1  0
  3  2  1  0
  4  5  2  0
  4 12  1  0
  5  6  1  0
  6  7  1  0
  7  8  2  0
  8  9  1  0
 10  9  2  0
 11 10  1  0
 12 11  2  0
 12  7  1  0
 13 14  2  0
 16 18  1  0
 16 15  1  6
 17 16  1  0
 19 13  1  0
 18 19  1  1
 20 18  1  0
 20 21  2  0
 22 23  1  0
 24 23  1  6
 24 25  1  0
 24 26  1  0
 25 20  1  0
 26 27  1  0
 28 26  2  0
M  END
$$$$
