NNC.pdb
     RDKit          3D

 23 22  0  0  1  0  0  0  0  0999 V2000
   18.7382  -14.6652  -19.2376 N   0  0  0  0  0  0  0  0  0  0  0  0
   19.4275  -14.1075  -18.1314 C   0  0  0  0  0  0  0  0  0  0  0  0
   20.0388  -14.9123  -17.3924 O   0  0  0  0  0  0  0  0  0  0  0  0
   19.3591  -12.6526  -17.9589 C   0  0  0  0  0  0  0  0  0  0  0  0
   19.2688  -12.1711  -16.5394 C   0  0  2  0  0  0  0  0  0  0  0  0
   17.9908  -12.6846  -16.0496 N   0  0  0  0  0  0  0  0  0  0  0  0
   19.3098  -10.6836  -16.4123 C   0  0  0  0  0  0  0  0  0  0  0  0
   19.9239  -10.0670  -17.3073 O   0  0  0  0  0  0  0  0  0  0  0  0
   16.4580   -8.4841  -16.5075 N   0  0  0  0  0  0  0  0  0  0  0  0
   16.2696   -8.3104  -15.1183 C   0  0  0  0  0  0  0  0  0  0  0  0
   15.0845   -8.2043  -14.6595 O   0  0  0  0  0  0  0  0  0  0  0  0
   17.4404   -8.2519  -14.2121 C   0  0  0  0  0  0  0  0  0  0  0  0
   18.6868   -8.6077  -15.0448 C   0  0  2  0  0  0  0  0  0  0  0  0
   18.7075   -9.9881  -15.3696 N   0  0  0  0  0  0  0  0  0  0  0  0
   19.9044   -8.0444  -14.4958 C   0  0  0  0  0  0  0  0  0  0  0  0
   20.3976   -8.4784  -13.4356 O   0  0  0  0  0  0  0  0  0  0  0  0
   20.5748   -6.9799  -15.1544 N   0  0  0  0  0  0  0  0  0  0  0  0
   21.8406   -6.4342  -14.6897 C   0  0  1  0  0  0  0  0  0  0  0  0
   22.8163   -6.3031  -15.8531 C   0  0  0  0  0  0  0  0  0  0  0  0
   22.9216   -7.8918  -16.7076 S   0  0  0  0  0  0  0  0  0  0  0  0
   21.7096   -5.1405  -14.0135 C   0  0  0  0  0  0  0  0  0  0  0  0
   22.7724   -4.6658  -13.2681 O   0  0  0  0  0  0  0  0  0  0  0  0
   20.6425   -4.5004  -14.1275 O   0  0  0  0  0  0  0  0  0  0  0  0
  2  3  2  0
  2  1  1  0
  4  2  1  0
  5  4  1  0
  5  6  1  6
  7  5  1  0
  8  7  2  0
  9 10  1  0
 10 12  1  0
 10 11  2  0
 13 12  1  1
 13 14  1  0
 14  7  1  0
 15 13  1  0
 15 17  1  0
 16 15  2  0
 18 17  1  0
 18 19  1  6
 18 21  1  0
 20 19  1  0
 21 23  2  0
 21 22  1  0
M  END
$$$$
