NNC.pdb
     RDKit          3D

 23 22  0  0  1  0  0  0  0  0999 V2000
   18.0768   -8.7516  -18.2163 N   0  0  0  0  0  0  0  0  0  0  0  0
   16.8558   -8.4252  -17.5741 C   0  0  0  0  0  0  0  0  0  0  0  0
   15.9133   -8.0688  -18.3172 O   0  0  0  0  0  0  0  0  0  0  0  0
   16.8133   -8.5345  -16.1122 C   0  0  0  0  0  0  0  0  0  0  0  0
   18.0689   -9.0417  -15.4629 C   0  0  2  0  0  0  0  0  0  0  0  0
   18.1043  -10.4686  -15.7778 N   0  0  0  0  0  0  0  0  0  0  0  0
   18.0968   -8.8391  -13.9835 C   0  0  0  0  0  0  0  0  0  0  0  0
   17.4463   -9.6558  -13.2992 O   0  0  0  0  0  0  0  0  0  0  0  0
   22.1977   -6.8114  -13.1403 N   0  0  0  0  0  0  0  0  0  0  0  0
   21.3233   -7.2875  -12.1382 C   0  0  0  0  0  0  0  0  0  0  0  0
   21.5863   -8.3910  -11.5557 O   0  0  0  0  0  0  0  0  0  0  0  0
   20.1164   -6.5085  -11.7749 C   0  0  0  0  0  0  0  0  0  0  0  0
   18.8938   -7.4171  -12.0060 C   0  0  2  0  0  0  0  0  0  0  0  0
   18.7988   -7.8100  -13.3654 N   0  0  0  0  0  0  0  0  0  0  0  0
   17.6894   -6.9007  -11.3863 C   0  0  0  0  0  0  0  0  0  0  0  0
   17.0787   -5.9271  -11.8709 O   0  0  0  0  0  0  0  0  0  0  0  0
   17.1667   -7.4936  -10.2067 N   0  0  0  0  0  0  0  0  0  0  0  0
   15.9978   -6.9763   -9.5124 C   0  0  1  0  0  0  0  0  0  0  0  0
   15.4710   -8.0110   -8.5251 C   0  0  0  0  0  0  0  0  0  0  0  0
   13.9473   -7.3851   -7.7823 S   0  0  0  0  0  0  0  0  0  0  0  0
   16.2424   -5.7125   -8.8117 C   0  0  0  0  0  0  0  0  0  0  0  0
   15.2973   -4.7075   -8.8973 O   0  0  0  0  0  0  0  0  0  0  0  0
   17.2971   -5.5753   -8.1559 O   0  0  0  0  0  0  0  0  0  0  0  0
  2  3  2  0
  2  1  1  0
  4  2  1  0
  5  4  1  0
  5  6  1  1
  7  5  1  0
  8  7  2  0
  9 10  1  0
 10 12  1  0
 10 11  2  0
 13 12  1  6
 13 14  1  0
 14  7  1  0
 15 13  1  0
 15 17  1  0
 16 15  2  0
 18 17  1  0
 18 19  1  1
 18 21  1  0
 20 19  1  0
 21 23  2  0
 21 22  1  0
M  END
$$$$
