NNC.pdb
     RDKit          3D

 23 22  0  0  1  0  0  0  0  0999 V2000
   13.2363   -9.2570   -8.2804 N   0  0  0  0  0  0  0  0  0  0  0  0
   14.1041   -9.9013   -9.1979 C   0  0  0  0  0  0  0  0  0  0  0  0
   14.0667  -11.1526   -9.2156 O   0  0  0  0  0  0  0  0  0  0  0  0
   14.9566   -9.0477  -10.0319 C   0  0  0  0  0  0  0  0  0  0  0  0
   14.9427   -7.5854   -9.6902 C   0  0  2  0  0  0  0  0  0  0  0  0
   13.5710   -7.1523   -9.9502 N   0  0  0  0  0  0  0  0  0  0  0  0
   15.9014   -6.7763  -10.5006 C   0  0  0  0  0  0  0  0  0  0  0  0
   15.5349   -6.4741  -11.6551 O   0  0  0  0  0  0  0  0  0  0  0  0
   17.3540   -3.1126   -8.1881 N   0  0  0  0  0  0  0  0  0  0  0  0
   17.7514   -3.5077   -9.4848 C   0  0  0  0  0  0  0  0  0  0  0  0
   17.2281   -2.9357  -10.4973 O   0  0  0  0  0  0  0  0  0  0  0  0
   18.7639   -4.5755   -9.6578 C   0  0  0  0  0  0  0  0  0  0  0  0
   18.1797   -5.6110  -10.6377 C   0  0  2  0  0  0  0  0  0  0  0  0
   17.1423   -6.3623  -10.0288 N   0  0  0  0  0  0  0  0  0  0  0  0
   19.2059   -6.3572  -11.3386 C   0  0  0  0  0  0  0  0  0  0  0  0
   19.9331   -7.1756  -10.7410 O   0  0  0  0  0  0  0  0  0  0  0  0
   19.4109   -6.1792  -12.7324 N   0  0  0  0  0  0  0  0  0  0  0  0
   20.4075   -6.9231  -13.4869 C   0  0  1  0  0  0  0  0  0  0  0  0
   19.7271   -7.8443  -14.4925 C   0  0  0  0  0  0  0  0  0  0  0  0
   20.9930   -8.8066  -15.3510 S   0  0  0  0  0  0  0  0  0  0  0  0
   21.3751   -6.0700  -14.1824 C   0  0  0  0  0  0  0  0  0  0  0  0
   22.7203   -6.3746  -14.0921 O   0  0  0  0  0  0  0  0  0  0  0  0
   20.9607   -5.0905  -14.8383 O   0  0  0  0  0  0  0  0  0  0  0  0
  2  3  2  0
  2  1  1  0
  4  2  1  0
  5  4  1  0
  5  6  1  6
  7  5  1  0
  8  7  2  0
  9 10  1  0
 10 12  1  0
 10 11  2  0
 13 12  1  1
 13 14  1  0
 14  7  1  0
 15 13  1  0
 15 17  1  0
 16 15  2  0
 18 17  1  0
 18 19  1  6
 18 21  1  0
 20 19  1  0
 21 23  2  0
 21 22  1  0
M  END
$$$$
