NNC.pdb
     RDKit          3D

 23 22  0  0  1  0  0  0  0  0999 V2000
   15.7238  -13.6397  -10.6706 N   0  0  0  0  0  0  0  0  0  0  0  0
   14.7801  -12.5940  -10.5103 C   0  0  0  0  0  0  0  0  0  0  0  0
   13.6940  -12.9018   -9.9688 O   0  0  0  0  0  0  0  0  0  0  0  0
   15.1624  -11.2620  -10.9904 C   0  0  0  0  0  0  0  0  0  0  0  0
   14.7549  -10.1141  -10.1121 C   0  0  2  0  0  0  0  0  0  0  0  0
   13.3010  -10.0389  -10.2434 N   0  0  0  0  0  0  0  0  0  0  0  0
   15.3762   -8.8143  -10.5059 C   0  0  0  0  0  0  0  0  0  0  0  0
   14.8705   -8.2325  -11.4878 O   0  0  0  0  0  0  0  0  0  0  0  0
   15.3914   -4.4616   -9.3931 N   0  0  0  0  0  0  0  0  0  0  0  0
   15.8005   -5.6358   -8.7228 C   0  0  0  0  0  0  0  0  0  0  0  0
   14.9625   -6.2585   -7.9906 O   0  0  0  0  0  0  0  0  0  0  0  0
   17.1890   -6.1308   -8.8731 C   0  0  0  0  0  0  0  0  0  0  0  0
   17.2127   -7.0761  -10.0894 C   0  0  2  0  0  0  0  0  0  0  0  0
   16.4583   -8.2506   -9.8387 N   0  0  0  0  0  0  0  0  0  0  0  0
   18.5452   -7.2552  -10.6313 C   0  0  0  0  0  0  0  0  0  0  0  0
   19.3119   -8.1330  -10.1869 O   0  0  0  0  0  0  0  0  0  0  0  0
   19.0161   -6.4350  -11.6904 N   0  0  0  0  0  0  0  0  0  0  0  0
   20.3040   -6.6377  -12.3354 C   0  0  1  0  0  0  0  0  0  0  0  0
   20.3956   -8.0522  -12.8954 C   0  0  0  0  0  0  0  0  0  0  0  0
   22.0396   -8.2925  -13.6061 S   0  0  0  0  0  0  0  0  0  0  0  0
   20.5861   -5.6712  -13.4006 C   0  0  0  0  0  0  0  0  0  0  0  0
   21.8490   -5.1153  -13.4807 O   0  0  0  0  0  0  0  0  0  0  0  0
   19.6797   -5.3746  -14.2079 O   0  0  0  0  0  0  0  0  0  0  0  0
  2  3  2  0
  2  1  1  0
  4  2  1  0
  5  4  1  0
  5  6  1  6
  7  5  1  0
  8  7  2  0
  9 10  1  0
 10 12  1  0
 10 11  2  0
 13 12  1  1
 13 14  1  0
 14  7  1  0
 15 13  1  0
 15 17  1  0
 16 15  2  0
 18 17  1  0
 18 19  1  6
 18 21  1  0
 20 19  1  0
 21 23  2  0
 21 22  1  0
M  END
$$$$
