NNC.pdb
     RDKit          3D

 23 22  0  0  1  0  0  0  0  0999 V2000
   19.8173  -15.0254  -15.3976 N   0  0  0  0  0  0  0  0  0  0  0  0
   20.8776  -14.3460  -16.0487 C   0  0  0  0  0  0  0  0  0  0  0  0
   21.9531  -14.9758  -16.1674 O   0  0  0  0  0  0  0  0  0  0  0  0
   20.6161  -12.9811  -16.5172 C   0  0  0  0  0  0  0  0  0  0  0  0
   19.2299  -12.4624  -16.2628 C   0  0  2  0  0  0  0  0  0  0  0  0
   18.3879  -13.1451  -17.2433 N   0  0  0  0  0  0  0  0  0  0  0  0
   19.1105  -10.9822  -16.4219 C   0  0  0  0  0  0  0  0  0  0  0  0
   19.0726  -10.5513  -17.5929 O   0  0  0  0  0  0  0  0  0  0  0  0
   17.0702   -6.0071  -15.7817 N   0  0  0  0  0  0  0  0  0  0  0  0
   17.5778   -6.7609  -14.7003 C   0  0  0  0  0  0  0  0  0  0  0  0
   18.0384   -6.1517  -13.6790 O   0  0  0  0  0  0  0  0  0  0  0  0
   17.5724   -8.2413  -14.7601 C   0  0  0  0  0  0  0  0  0  0  0  0
   18.9471   -8.6866  -15.2945 C   0  0  2  0  0  0  0  0  0  0  0  0
   19.0408  -10.1006  -15.3487 N   0  0  0  0  0  0  0  0  0  0  0  0
   20.0457   -7.9796  -14.6667 C   0  0  0  0  0  0  0  0  0  0  0  0
   20.4650   -8.3063  -13.5383 O   0  0  0  0  0  0  0  0  0  0  0  0
   20.6809   -6.8923  -15.3230 N   0  0  0  0  0  0  0  0  0  0  0  0
   21.7954   -6.1597  -14.7424 C   0  0  1  0  0  0  0  0  0  0  0  0
   22.9026   -5.9808  -15.7743 C   0  0  0  0  0  0  0  0  0  0  0  0
   24.2194   -4.9784  -15.0487 S   0  0  0  0  0  0  0  0  0  0  0  0
   21.4189   -4.8520  -14.1980 C   0  0  0  0  0  0  0  0  0  0  0  0
   22.0639   -4.3886  -13.0668 O   0  0  0  0  0  0  0  0  0  0  0  0
   20.5260   -4.1901  -14.7690 O   0  0  0  0  0  0  0  0  0  0  0  0
  2  3  2  0
  2  1  1  0
  4  2  1  0
  5  4  1  0
  5  6  1  6
  7  5  1  0
  8  7  2  0
  9 10  1  0
 10 12  1  0
 10 11  2  0
 13 12  1  1
 13 14  1  0
 14  7  1  0
 15 13  1  0
 15 17  1  0
 16 15  2  0
 18 17  1  0
 18 19  1  6
 18 21  1  0
 20 19  1  0
 21 23  2  0
 21 22  1  0
M  END
$$$$
