NNC.pdb
     RDKit          3D

 23 22  0  0  1  0  0  0  0  0999 V2000
   20.6866  -17.5311  -15.4919 N   0  0  0  0  0  0  0  0  0  0  0  0
   20.3352  -16.4722  -16.3666 C   0  0  0  0  0  0  0  0  0  0  0  0
   19.4967  -16.7401  -17.2570 O   0  0  0  0  0  0  0  0  0  0  0  0
   20.9823  -15.1745  -16.1475 C   0  0  0  0  0  0  0  0  0  0  0  0
   21.2970  -14.3888  -17.3880 C   0  0  2  0  0  0  0  0  0  0  0  0
   22.3081  -15.1799  -18.0868 N   0  0  0  0  0  0  0  0  0  0  0  0
   21.8182  -13.0177  -17.1071 C   0  0  0  0  0  0  0  0  0  0  0  0
   21.6917  -12.6051  -15.9357 O   0  0  0  0  0  0  0  0  0  0  0  0
   25.4473  -12.1349  -20.3649 N   0  0  0  0  0  0  0  0  0  0  0  0
   25.0246  -11.4366  -19.2120 C   0  0  0  0  0  0  0  0  0  0  0  0
   25.7028  -11.5417  -18.1372 O   0  0  0  0  0  0  0  0  0  0  0  0
   23.8060  -10.5951  -19.2589 C   0  0  0  0  0  0  0  0  0  0  0  0
   22.9766  -10.9134  -18.0002 C   0  0  2  0  0  0  0  0  0  0  0  0
   22.4192  -12.2155  -18.0711 N   0  0  0  0  0  0  0  0  0  0  0  0
   22.0799   -9.8346  -17.6350 C   0  0  0  0  0  0  0  0  0  0  0  0
   20.9944   -9.6673  -18.2261 O   0  0  0  0  0  0  0  0  0  0  0  0
   22.4120   -8.9358  -16.5870 N   0  0  0  0  0  0  0  0  0  0  0  0
   21.5500   -7.8348  -16.1862 C   0  0  1  0  0  0  0  0  0  0  0  0
   21.1171   -8.0063  -14.7350 C   0  0  0  0  0  0  0  0  0  0  0  0
   20.1072   -6.5864  -14.2562 S   0  0  0  0  0  0  0  0  0  0  0  0
   22.1634   -6.5151  -16.3604 C   0  0  0  0  0  0  0  0  0  0  0  0
   21.3456   -5.4209  -16.5707 O   0  0  0  0  0  0  0  0  0  0  0  0
   23.4079   -6.4124  -16.3146 O   0  0  0  0  0  0  0  0  0  0  0  0
  2  3  2  0
  2  1  1  0
  4  2  1  0
  5  4  1  0
  5  6  1  1
  7  5  1  0
  8  7  2  0
  9 10  1  0
 10 12  1  0
 10 11  2  0
 13 12  1  6
 13 14  1  0
 14  7  1  0
 15 13  1  0
 15 17  1  0
 16 15  2  0
 18 17  1  0
 18 19  1  1
 18 21  1  0
 20 19  1  0
 21 23  2  0
 21 22  1  0
M  END
$$$$
