NNC.pdb
     RDKit          3D

 23 22  0  0  1  0  0  0  0  0999 V2000
   22.5415  -26.1473  -13.1362 N   0  0  0  0  0  0  0  0  0  0  0  0
   22.8237  -25.1551  -14.1086 C   0  0  0  0  0  0  0  0  0  0  0  0
   22.7350  -25.5079  -15.3066 O   0  0  0  0  0  0  0  0  0  0  0  0
   23.1902  -23.8207  -13.6227 C   0  0  0  0  0  0  0  0  0  0  0  0
   24.2820  -23.1291  -14.3875 C   0  0  2  0  0  0  0  0  0  0  0  0
   25.4353  -24.0212  -14.2846 N   0  0  0  0  0  0  0  0  0  0  0  0
   24.6238  -21.7796  -13.8466 C   0  0  0  0  0  0  0  0  0  0  0  0
   23.7139  -20.9253  -13.8708 O   0  0  0  0  0  0  0  0  0  0  0  0
   25.9080  -21.9510   -9.8347 N   0  0  0  0  0  0  0  0  0  0  0  0
   25.8452  -20.7485  -10.5733 C   0  0  0  0  0  0  0  0  0  0  0  0
   24.8095  -20.0110  -10.4748 O   0  0  0  0  0  0  0  0  0  0  0  0
   26.9730  -20.3566  -11.4507 C   0  0  0  0  0  0  0  0  0  0  0  0
   26.4199  -20.2263  -12.8827 C   0  0  2  0  0  0  0  0  0  0  0  0
   25.8753  -21.4555  -13.3341 N   0  0  0  0  0  0  0  0  0  0  0  0
   27.3379  -19.5478  -13.7761 C   0  0  0  0  0  0  0  0  0  0  0  0
   28.5489  -19.4381  -13.4984 O   0  0  0  0  0  0  0  0  0  0  0  0
   26.8829  -18.9893  -14.9998 N   0  0  0  0  0  0  0  0  0  0  0  0
   27.7845  -18.4656  -16.0140 C   0  0  1  0  0  0  0  0  0  0  0  0
   28.7479  -19.5531  -16.4744 C   0  0  0  0  0  0  0  0  0  0  0  0
   28.2401  -20.1272  -18.1108 S   0  0  0  0  0  0  0  0  0  0  0  0
   27.0951  -17.8993  -17.1768 C   0  0  0  0  0  0  0  0  0  0  0  0
   25.7382  -18.1191  -17.3213 O   0  0  0  0  0  0  0  0  0  0  0  0
   27.7500  -17.2333  -18.0069 O   0  0  0  0  0  0  0  0  0  0  0  0
  2  3  2  0
  2  1  1  0
  4  2  1  0
  5  4  1  0
  5  6  1  1
  7  5  1  0
  8  7  2  0
  9 10  1  0
 10 12  1  0
 10 11  2  0
 13 12  1  1
 13 14  1  0
 14  7  1  0
 15 13  1  0
 15 17  1  0
 16 15  2  0
 18 17  1  0
 18 19  1  6
 18 21  1  0
 20 19  1  0
 21 23  2  0
 21 22  1  0
M  END
$$$$
