NNC.pdb
     RDKit          3D

 23 22  0  0  1  0  0  0  0  0999 V2000
   12.0427  -11.9098  -11.1521 N   0  0  0  0  0  0  0  0  0  0  0  0
   12.0288  -11.1201   -9.9747 C   0  0  0  0  0  0  0  0  0  0  0  0
   10.9378  -11.0486   -9.3647 O   0  0  0  0  0  0  0  0  0  0  0  0
   13.2833  -10.4670   -9.5868 C   0  0  0  0  0  0  0  0  0  0  0  0
   14.4899  -10.8474  -10.3958 C   0  0  2  0  0  0  0  0  0  0  0  0
   14.9008  -12.1473   -9.8684 N   0  0  0  0  0  0  0  0  0  0  0  0
   15.6122   -9.8681  -10.2862 C   0  0  0  0  0  0  0  0  0  0  0  0
   16.1284   -9.7399   -9.1568 O   0  0  0  0  0  0  0  0  0  0  0  0
   19.2246   -6.5331  -11.5011 N   0  0  0  0  0  0  0  0  0  0  0  0
   19.1266   -7.4191  -12.5969 C   0  0  0  0  0  0  0  0  0  0  0  0
   20.0224   -7.3884  -13.5040 O   0  0  0  0  0  0  0  0  0  0  0  0
   17.9929   -8.3690  -12.6843 C   0  0  0  0  0  0  0  0  0  0  0  0
   17.0998   -8.1364  -11.4507 C   0  0  2  0  0  0  0  0  0  0  0  0
   16.0850   -9.1231  -11.3611 N   0  0  0  0  0  0  0  0  0  0  0  0
   16.6850   -6.7542  -11.3144 C   0  0  0  0  0  0  0  0  0  0  0  0
   16.1857   -6.1309  -12.2725 O   0  0  0  0  0  0  0  0  0  0  0  0
   16.8330   -6.0687  -10.0798 N   0  0  0  0  0  0  0  0  0  0  0  0
   16.3063   -4.7326   -9.8486 C   0  0  1  0  0  0  0  0  0  0  0  0
   16.2015   -4.4594   -8.3528 C   0  0  0  0  0  0  0  0  0  0  0  0
   15.0703   -5.6621   -7.6184 S   0  0  0  0  0  0  0  0  0  0  0  0
   17.0933   -3.6726  -10.4849 C   0  0  0  0  0  0  0  0  0  0  0  0
   16.6965   -2.3583  -10.3249 O   0  0  0  0  0  0  0  0  0  0  0  0
   18.1014   -3.9829  -11.1550 O   0  0  0  0  0  0  0  0  0  0  0  0
  2  3  2  0
  2  1  1  0
  4  2  1  0
  5  4  1  0
  5  6  1  1
  7  5  1  0
  8  7  2  0
  9 10  1  0
 10 12  1  0
 10 11  2  0
 13 12  1  6
 13 14  1  0
 14  7  1  0
 15 13  1  0
 15 17  1  0
 16 15  2  0
 18 17  1  0
 18 19  1  1
 18 21  1  0
 20 19  1  0
 21 23  2  0
 21 22  1  0
M  END
$$$$
