NNC.pdb
     RDKit          3D

 23 22  0  0  1  0  0  0  0  0999 V2000
   14.4077  -13.8425  -15.2034 N   0  0  0  0  0  0  0  0  0  0  0  0
   15.7913  -14.0998  -15.0322 C   0  0  0  0  0  0  0  0  0  0  0  0
   16.1656  -15.2801  -15.2175 O   0  0  0  0  0  0  0  0  0  0  0  0
   16.6455  -12.9683  -14.6569 C   0  0  0  0  0  0  0  0  0  0  0  0
   15.9342  -11.6649  -14.4323 C   0  0  2  0  0  0  0  0  0  0  0  0
   16.0788  -10.9366  -15.6914 N   0  0  0  0  0  0  0  0  0  0  0  0
   16.5006  -10.8649  -13.3055 C   0  0  0  0  0  0  0  0  0  0  0  0
   16.3649  -11.3447  -12.1611 O   0  0  0  0  0  0  0  0  0  0  0  0
   20.4579   -7.4380  -11.2520 N   0  0  0  0  0  0  0  0  0  0  0  0
   19.4188   -7.0525  -12.1278 C   0  0  0  0  0  0  0  0  0  0  0  0
   18.9179   -5.8844  -12.0230 O   0  0  0  0  0  0  0  0  0  0  0  0
   18.9217   -8.0002  -13.1525 C   0  0  0  0  0  0  0  0  0  0  0  0
   17.7056   -8.7320  -12.5530 C   0  0  2  0  0  0  0  0  0  0  0  0
   17.1517   -9.6489  -13.4824 N   0  0  0  0  0  0  0  0  0  0  0  0
   16.7832   -7.8313  -11.8904 C   0  0  0  0  0  0  0  0  0  0  0  0
   16.0272   -7.0840  -12.5429 O   0  0  0  0  0  0  0  0  0  0  0  0
   16.7114   -7.7767  -10.4733 N   0  0  0  0  0  0  0  0  0  0  0  0
   15.8535   -6.8434   -9.7599 C   0  0  1  0  0  0  0  0  0  0  0  0
   15.3727   -7.4633   -8.4533 C   0  0  0  0  0  0  0  0  0  0  0  0
   14.2081   -6.3294   -7.6639 S   0  0  0  0  0  0  0  0  0  0  0  0
   16.4914   -5.5532   -9.4830 C   0  0  0  0  0  0  0  0  0  0  0  0
   15.7631   -4.3938   -9.6720 O   0  0  0  0  0  0  0  0  0  0  0  0
   17.6753   -5.5337   -9.0838 O   0  0  0  0  0  0  0  0  0  0  0  0
  2  3  2  0
  2  1  1  0
  4  2  1  0
  5  4  1  0
  5  6  1  6
  7  5  1  0
  8  7  2  0
  9 10  1  0
 10 12  1  0
 10 11  2  0
 13 12  1  6
 13 14  1  0
 14  7  1  0
 15 13  1  0
 15 17  1  0
 16 15  2  0
 18 17  1  0
 18 19  1  1
 18 21  1  0
 20 19  1  0
 21 23  2  0
 21 22  1  0
M  END
$$$$
