NNC.pdb
     RDKit          3D

 23 22  0  0  1  0  0  0  0  0999 V2000
   17.2085  -17.6263  -16.7254 N   0  0  0  0  0  0  0  0  0  0  0  0
   17.4235  -16.5644  -17.6397 C   0  0  0  0  0  0  0  0  0  0  0  0
   17.7269  -16.8896  -18.8100 O   0  0  0  0  0  0  0  0  0  0  0  0
   17.2716  -15.1969  -17.1317 C   0  0  0  0  0  0  0  0  0  0  0  0
   18.5159  -14.3564  -17.1495 C   0  0  2  0  0  0  0  0  0  0  0  0
   19.1387  -14.5802  -15.8462 N   0  0  0  0  0  0  0  0  0  0  0  0
   18.2474  -12.9009  -17.3497 C   0  0  0  0  0  0  0  0  0  0  0  0
   17.4025  -12.6072  -18.2205 O   0  0  0  0  0  0  0  0  0  0  0  0
   16.9560   -7.9436  -17.8470 N   0  0  0  0  0  0  0  0  0  0  0  0
   17.1419   -8.6301  -16.6265 C   0  0  0  0  0  0  0  0  0  0  0  0
   17.2400   -7.9613  -15.5451 O   0  0  0  0  0  0  0  0  0  0  0  0
   17.2221  -10.1095  -16.6117 C   0  0  0  0  0  0  0  0  0  0  0  0
   18.7148  -10.4908  -16.6146 C   0  0  2  0  0  0  0  0  0  0  0  0
   18.8826  -11.8990  -16.6240 N   0  0  0  0  0  0  0  0  0  0  0  0
   19.4833   -9.7448  -15.6378 C   0  0  0  0  0  0  0  0  0  0  0  0
   19.2797   -9.8792  -14.4146 O   0  0  0  0  0  0  0  0  0  0  0  0
   20.4967   -8.8385  -16.0477 N   0  0  0  0  0  0  0  0  0  0  0  0
   21.3423   -8.1193  -15.1077 C   0  0  1  0  0  0  0  0  0  0  0  0
   22.7374   -7.9314  -15.6917 C   0  0  0  0  0  0  0  0  0  0  0  0
   23.4685   -9.5569  -15.9896 S   0  0  0  0  0  0  0  0  0  0  0  0
   20.8007   -6.8176  -14.7076 C   0  0  0  0  0  0  0  0  0  0  0  0
   21.3614   -6.1648  -13.6259 O   0  0  0  0  0  0  0  0  0  0  0  0
   19.8474   -6.3314  -15.3528 O   0  0  0  0  0  0  0  0  0  0  0  0
  2  3  2  0
  2  1  1  0
  4  2  1  0
  5  4  1  0
  5  6  1  1
  7  5  1  0
  8  7  2  0
  9 10  1  0
 10 12  1  0
 10 11  2  0
 13 12  1  1
 13 14  1  0
 14  7  1  0
 15 13  1  0
 15 17  1  0
 16 15  2  0
 18 17  1  0
 18 19  1  6
 18 21  1  0
 20 19  1  0
 21 23  2  0
 21 22  1  0
M  END
$$$$
