FLV.pdb
     RDKit          3D

 27 27  0  0  1  0  0  0  0  0999 V2000
   22.3611  -10.1904  -21.2090 N   0  0  0  0  0  0  0  0  0  0  0  0
   22.5846   -9.0586  -20.3691 C   0  0  1  0  0  0  0  0  0  0  0  0
   22.0905   -7.7633  -20.9571 C   0  0  0  0  0  0  0  0  0  0  0  0
   22.8554   -7.4918  -22.1920 C   0  0  0  0  0  0  0  0  0  0  0  0
   22.2385   -7.5339  -23.4242 C   0  0  0  0  0  0  0  0  0  0  0  0
   22.9767   -7.2764  -24.5590 C   0  0  0  0  0  0  0  0  0  0  0  0
   24.3180   -6.9776  -24.4920 C   0  0  0  0  0  0  0  0  0  0  0  0
   24.9487   -6.9325  -23.2588 C   0  0  0  0  0  0  0  0  0  0  0  0
   24.1977   -7.1926  -22.1279 C   0  0  0  0  0  0  0  0  0  0  0  0
   21.8480   -9.2706  -19.0933 C   0  0  0  0  0  0  0  0  0  0  0  0
   20.8397  -10.0156  -19.0309 O   0  0  0  0  0  0  0  0  0  0  0  0
   23.5142  -10.2832  -13.7071 C   0  0  0  0  0  0  0  0  0  0  0  0
   22.3235   -9.6491  -14.3630 C   0  0  2  0  0  0  0  0  0  0  0  0
   21.1447  -10.6489  -14.3217 C   0  0  0  0  0  0  0  0  0  0  0  0
   22.5583   -9.3255  -15.7664 C   0  0  0  0  0  0  0  0  0  0  0  0
   21.5237   -8.7671  -16.6526 C   0  0  2  0  0  0  0  0  0  0  0  0
   22.2895   -8.6282  -17.9493 N   0  0  0  0  0  0  0  0  0  0  0  0
   20.9836   -7.4397  -16.4195 C   0  0  0  0  0  0  0  0  0  0  0  0
   21.7838   -6.4368  -16.4357 O   0  0  0  0  0  0  0  0  0  0  0  0
   19.2181   -5.1226  -18.2605 C   0  0  0  0  0  0  0  0  0  0  0  0
   18.3604   -5.1820  -17.0171 C   0  0  1  0  0  0  0  0  0  0  0  0
   17.1586   -6.0595  -17.2633 C   0  0  0  0  0  0  0  0  0  0  0  0
   19.2266   -5.7125  -15.8917 C   0  0  2  0  0  0  0  0  0  0  0  0
   19.6326   -7.0976  -16.1786 N   0  0  0  0  0  0  0  0  0  0  0  0
   18.4926   -5.6516  -14.6317 C   0  0  0  0  0  0  0  0  0  0  0  0
   18.2091   -4.4287  -14.0473 O   0  0  0  0  0  0  0  0  0  0  0  0
   18.1055   -6.6771  -14.0524 O   0  0  0  0  0  0  0  0  0  0  0  0
  2  1  1  6
  2  3  1  0
  3  4  1  0
  4  5  2  0
  5  6  1  0
  7  6  2  0
  8  7  1  0
  9  8  2  0
  9  4  1  0
 10 11  2  0
 10  2  1  0
 13 12  1  6
 14 13  1  0
 15 13  1  0
 16 15  1  1
 16 17  1  0
 17 10  1  0
 18 24  1  0
 18 16  1  0
 19 18  2  0
 21 20  1  6
 21 22  1  0
 23 21  1  0
 23 24  1  6
 25 26  1  0
 25 23  1  0
 27 25  2  0
M  END
$$$$
