FLV.pdb
     RDKit          3D

 27 27  0  0  1  0  0  0  0  0999 V2000
   28.2301  -21.8179  -10.9737 N   0  0  0  0  0  0  0  0  0  0  0  0
   26.9625  -21.2092  -10.7312 C   0  0  1  0  0  0  0  0  0  0  0  0
   27.0594  -19.8150  -10.1705 C   0  0  0  0  0  0  0  0  0  0  0  0
   27.5163  -19.9086   -8.7683 C   0  0  0  0  0  0  0  0  0  0  0  0
   26.6306  -19.7286   -7.7272 C   0  0  0  0  0  0  0  0  0  0  0  0
   27.0847  -19.8216   -6.4296 C   0  0  0  0  0  0  0  0  0  0  0  0
   28.4041  -20.0906   -6.1468 C   0  0  0  0  0  0  0  0  0  0  0  0
   29.3033  -20.2734   -7.1853 C   0  0  0  0  0  0  0  0  0  0  0  0
   28.8358  -20.1776   -8.4825 C   0  0  0  0  0  0  0  0  0  0  0  0
   26.2353  -21.1120  -12.0262 C   0  0  0  0  0  0  0  0  0  0  0  0
   26.8408  -20.9189  -13.1086 O   0  0  0  0  0  0  0  0  0  0  0  0
   24.6540  -25.0379  -14.8133 C   0  0  0  0  0  0  0  0  0  0  0  0
   24.1790  -23.6151  -14.8173 C   0  0  2  0  0  0  0  0  0  0  0  0
   24.8969  -22.8567  -15.9576 C   0  0  0  0  0  0  0  0  0  0  0  0
   24.4907  -22.9129  -13.5767 C   0  0  0  0  0  0  0  0  0  0  0  0
   24.1214  -21.5100  -13.3255 C   0  0  2  0  0  0  0  0  0  0  0  0
   24.8568  -21.2382  -12.0323 N   0  0  0  0  0  0  0  0  0  0  0  0
   22.7471  -21.1450  -13.0318 C   0  0  0  0  0  0  0  0  0  0  0  0
   22.2109  -21.5814  -11.9509 O   0  0  0  0  0  0  0  0  0  0  0  0
   18.6675  -18.4317  -13.5284 C   0  0  0  0  0  0  0  0  0  0  0  0
   20.0909  -18.6820  -13.9715 C   0  0  1  0  0  0  0  0  0  0  0  0
   20.9764  -17.5471  -13.5209 C   0  0  0  0  0  0  0  0  0  0  0  0
   20.5256  -20.0078  -13.3786 C   0  0  2  0  0  0  0  0  0  0  0  0
   21.8953  -20.3282  -13.8111 N   0  0  0  0  0  0  0  0  0  0  0  0
   19.6049  -21.0612  -13.7944 C   0  0  0  0  0  0  0  0  0  0  0  0
   18.5730  -21.4559  -12.9597 O   0  0  0  0  0  0  0  0  0  0  0  0
   19.7155  -21.6283  -14.8914 O   0  0  0  0  0  0  0  0  0  0  0  0
  2  1  1  6
  2  3  1  0
  3  4  1  0
  4  5  2  0
  5  6  1  0
  7  6  2  0
  8  7  1  0
  9  8  2  0
  9  4  1  0
 10 11  2  0
 10  2  1  0
 13 12  1  1
 14 13  1  0
 15 13  1  0
 16 15  1  1
 16 17  1  0
 17 10  1  0
 18 24  1  0
 18 16  1  0
 19 18  2  0
 21 20  1  1
 21 22  1  0
 23 21  1  0
 23 24  1  6
 25 26  1  0
 25 23  1  0
 27 25  2  0
M  END
$$$$
