FLV.pdb
     RDKit          3D

 27 27  0  0  1  0  0  0  0  0999 V2000
   24.3814  -20.8139  -13.2992 N   0  0  0  0  0  0  0  0  0  0  0  0
   23.5390  -20.2309  -12.3058 C   0  0  1  0  0  0  0  0  0  0  0  0
   22.0814  -20.2148  -12.6838 C   0  0  0  0  0  0  0  0  0  0  0  0
   21.9342  -19.4422  -13.9349 C   0  0  0  0  0  0  0  0  0  0  0  0
   21.5010  -20.0543  -15.0918 C   0  0  0  0  0  0  0  0  0  0  0  0
   21.3730  -19.3089  -16.2437 C   0  0  0  0  0  0  0  0  0  0  0  0
   21.6678  -17.9652  -16.2674 C   0  0  0  0  0  0  0  0  0  0  0  0
   22.1040  -17.3394  -15.1104 C   0  0  0  0  0  0  0  0  0  0  0  0
   22.2284  -18.0976  -13.9614 C   0  0  0  0  0  0  0  0  0  0  0  0
   23.6604  -21.0352  -11.0594 C   0  0  0  0  0  0  0  0  0  0  0  0
   23.7305  -22.2881  -11.0883 O   0  0  0  0  0  0  0  0  0  0  0  0
   26.8843  -21.4496   -7.7297 C   0  0  0  0  0  0  0  0  0  0  0  0
   26.1466  -20.1730   -8.0056 C   0  0  2  0  0  0  0  0  0  0  0  0
   26.6742  -19.0795   -7.0481 C   0  0  0  0  0  0  0  0  0  0  0  0
   24.7112  -20.2887   -7.7698 C   0  0  0  0  0  0  0  0  0  0  0  0
   23.8299  -21.1681   -8.5556 C   0  0  2  0  0  0  0  0  0  0  0  0
   23.6966  -20.3810   -9.8400 N   0  0  0  0  0  0  0  0  0  0  0  0
   22.4576  -21.4041   -8.1439 C   0  0  0  0  0  0  0  0  0  0  0  0
   21.6022  -20.4573   -8.2782 O   0  0  0  0  0  0  0  0  0  0  0  0
   18.3799  -23.8405   -7.5234 C   0  0  0  0  0  0  0  0  0  0  0  0
   19.8126  -23.7733   -8.0009 C   0  0  1  0  0  0  0  0  0  0  0  0
   19.8479  -23.4858   -9.4812 C   0  0  0  0  0  0  0  0  0  0  0  0
   20.5096  -22.6925   -7.1983 C   0  0  2  0  0  0  0  0  0  0  0  0
   21.9213  -22.5957   -7.6031 N   0  0  0  0  0  0  0  0  0  0  0  0
   20.4119  -22.9936   -5.7736 C   0  0  0  0  0  0  0  0  0  0  0  0
   19.3081  -22.5802   -5.0468 O   0  0  0  0  0  0  0  0  0  0  0  0
   21.3006  -23.6193   -5.1769 O   0  0  0  0  0  0  0  0  0  0  0  0
  2  1  1  6
  2  3  1  0
  3  4  1  0
  4  5  2  0
  5  6  1  0
  7  6  2  0
  8  7  1  0
  9  8  2  0
  9  4  1  0
 10 11  2  0
 10  2  1  0
 13 12  1  1
 14 13  1  0
 15 13  1  0
 16 15  1  1
 16 17  1  0
 17 10  1  0
 18 24  1  0
 18 16  1  0
 19 18  2  0
 21 20  1  1
 21 22  1  0
 23 21  1  0
 23 24  1  6
 25 26  1  0
 25 23  1  0
 27 25  2  0
M  END
$$$$
