FLV.pdb
     RDKit          3D

 27 27  0  0  1  0  0  0  0  0999 V2000
   23.8735  -18.3783  -18.6752 N   0  0  0  0  0  0  0  0  0  0  0  0
   23.6761  -17.9247  -17.3367 C   0  0  1  0  0  0  0  0  0  0  0  0
   22.5557  -16.9285  -17.1957 C   0  0  0  0  0  0  0  0  0  0  0  0
   22.9421  -15.6910  -17.9049 C   0  0  0  0  0  0  0  0  0  0  0  0
   23.7676  -14.7650  -17.3033 C   0  0  0  0  0  0  0  0  0  0  0  0
   24.1115  -13.6200  -17.9886 C   0  0  0  0  0  0  0  0  0  0  0  0
   23.6498  -13.3776  -19.2618 C   0  0  0  0  0  0  0  0  0  0  0  0
   22.8194  -14.3015  -19.8763 C   0  0  0  0  0  0  0  0  0  0  0  0
   22.4816  -15.4460  -19.1789 C   0  0  0  0  0  0  0  0  0  0  0  0
   23.3278  -19.0995  -16.4918 C   0  0  0  0  0  0  0  0  0  0  0  0
   22.7771  -20.1185  -16.9754 O   0  0  0  0  0  0  0  0  0  0  0  0
   24.0520  -22.0716  -11.7912 C   0  0  0  0  0  0  0  0  0  0  0  0
   25.0515  -21.3179  -12.6175 C   0  0  2  0  0  0  0  0  0  0  0  0
   26.1574  -20.7749  -11.6831 C   0  0  0  0  0  0  0  0  0  0  0  0
   24.4672  -20.1674  -13.2989 C   0  0  0  0  0  0  0  0  0  0  0  0
   23.3667  -20.2750  -14.2709 C   0  0  2  0  0  0  0  0  0  0  0  0
   23.6204  -19.0630  -15.1392 N   0  0  0  0  0  0  0  0  0  0  0  0
   21.9857  -20.1224  -13.8492 C   0  0  0  0  0  0  0  0  0  0  0  0
   21.6518  -19.0659  -13.2021 O   0  0  0  0  0  0  0  0  0  0  0  0
   18.9454  -19.4084  -15.5011 C   0  0  0  0  0  0  0  0  0  0  0  0
   18.5836  -20.6479  -14.7149 C   0  0  1  0  0  0  0  0  0  0  0  0
   18.6305  -21.8583  -15.6136 C   0  0  0  0  0  0  0  0  0  0  0  0
   19.5647  -20.7596  -13.5645 C   0  0  2  0  0  0  0  0  0  0  0  0
   20.9181  -21.0206  -14.0803 N   0  0  0  0  0  0  0  0  0  0  0  0
   19.1515  -21.8315  -12.6644 C   0  0  0  0  0  0  0  0  0  0  0  0
   18.0946  -21.6406  -11.7903 O   0  0  0  0  0  0  0  0  0  0  0  0
   19.7248  -22.9308  -12.6530 O   0  0  0  0  0  0  0  0  0  0  0  0
  2  1  1  6
  2  3  1  0
  3  4  1  0
  4  5  2  0
  5  6  1  0
  7  6  2  0
  8  7  1  0
  9  8  2  0
  9  4  1  0
 10 11  2  0
 10  2  1  0
 13 12  1  1
 14 13  1  0
 15 13  1  0
 16 15  1  1
 16 17  1  0
 17 10  1  0
 18 24  1  0
 18 16  1  0
 19 18  2  0
 21 20  1  6
 21 22  1  0
 23 21  1  0
 23 24  1  6
 25 26  1  0
 25 23  1  0
 27 25  2  0
M  END
$$$$
