FLV.pdb
     RDKit          3D

 27 27  0  0  1  0  0  0  0  0999 V2000
   24.2090   -6.4848  -19.2268 N   0  0  0  0  0  0  0  0  0  0  0  0
   23.6415   -6.0415  -17.9949 C   0  0  1  0  0  0  0  0  0  0  0  0
   23.0232   -4.6707  -18.0735 C   0  0  0  0  0  0  0  0  0  0  0  0
   22.6223   -4.2628  -16.7108 C   0  0  0  0  0  0  0  0  0  0  0  0
   21.2922   -4.0907  -16.3917 C   0  0  0  0  0  0  0  0  0  0  0  0
   20.9476   -3.7099  -15.1130 C   0  0  0  0  0  0  0  0  0  0  0  0
   21.9013   -3.4968  -14.1443 C   0  0  0  0  0  0  0  0  0  0  0  0
   23.2414   -3.6669  -14.4539 C   0  0  0  0  0  0  0  0  0  0  0  0
   23.5744   -4.0489  -15.7398 C   0  0  0  0  0  0  0  0  0  0  0  0
   22.5603   -6.9893  -17.6106 C   0  0  0  0  0  0  0  0  0  0  0  0
   21.6749   -7.3444  -18.4264 O   0  0  0  0  0  0  0  0  0  0  0  0
   22.6689  -11.4538  -16.2667 C   0  0  0  0  0  0  0  0  0  0  0  0
   23.2801  -10.3533  -15.4511 C   0  0  2  0  0  0  0  0  0  0  0  0
   23.9107  -10.9700  -14.1810 C   0  0  0  0  0  0  0  0  0  0  0  0
   22.2985   -9.3702  -15.0045 C   0  0  0  0  0  0  0  0  0  0  0  0
   21.5132   -8.5334  -15.9268 C   0  0  2  0  0  0  0  0  0  0  0  0
   22.5343   -7.4894  -16.3200 N   0  0  0  0  0  0  0  0  0  0  0  0
   20.3839   -7.7573  -15.4467 C   0  0  0  0  0  0  0  0  0  0  0  0
   20.5522   -6.9834  -14.4372 O   0  0  0  0  0  0  0  0  0  0  0  0
   17.0750   -6.5375  -17.6433 C   0  0  0  0  0  0  0  0  0  0  0  0
   17.6288   -5.8150  -16.4364 C   0  0  1  0  0  0  0  0  0  0  0  0
   16.5943   -4.8648  -15.8869 C   0  0  0  0  0  0  0  0  0  0  0  0
   18.0271   -6.8667  -15.4196 C   0  0  2  0  0  0  0  0  0  0  0  0
   19.0737   -7.7371  -15.9788 N   0  0  0  0  0  0  0  0  0  0  0  0
   16.8598   -7.6577  -15.0430 C   0  0  0  0  0  0  0  0  0  0  0  0
   15.9377   -7.1553  -14.1404 O   0  0  0  0  0  0  0  0  0  0  0  0
   16.6593   -8.7880  -15.5116 O   0  0  0  0  0  0  0  0  0  0  0  0
  2  1  1  6
  2  3  1  0
  3  4  1  0
  4  5  2  0
  5  6  1  0
  7  6  2  0
  8  7  1  0
  9  8  2  0
  9  4  1  0
 10 11  2  0
 10  2  1  0
 13 12  1  1
 14 13  1  0
 15 13  1  0
 16 15  1  1
 16 17  1  0
 17 10  1  0
 18 24  1  0
 18 16  1  0
 19 18  2  0
 21 20  1  6
 21 22  1  0
 23 21  1  0
 23 24  1  6
 25 26  1  0
 25 23  1  0
 27 25  2  0
M  END
$$$$
