FLV.pdb
     RDKit          3D

 27 27  0  0  1  0  0  0  0  0999 V2000
   29.7406  -22.0471  -16.6554 N   0  0  0  0  0  0  0  0  0  0  0  0
   29.1485  -20.9177  -16.0148 C   0  0  1  0  0  0  0  0  0  0  0  0
   27.9621  -20.3575  -16.7539 C   0  0  0  0  0  0  0  0  0  0  0  0
   27.4884  -19.1585  -16.0315 C   0  0  0  0  0  0  0  0  0  0  0  0
   28.2918  -18.0440  -15.9171 C   0  0  0  0  0  0  0  0  0  0  0  0
   27.8238  -16.9402  -15.2379 C   0  0  0  0  0  0  0  0  0  0  0  0
   26.5710  -16.9231  -14.6696 C   0  0  0  0  0  0  0  0  0  0  0  0
   25.7547  -18.0378  -14.7783 C   0  0  0  0  0  0  0  0  0  0  0  0
   26.2352  -19.1388  -15.4619 C   0  0  0  0  0  0  0  0  0  0  0  0
   28.6687  -21.3409  -14.6710 C   0  0  0  0  0  0  0  0  0  0  0  0
   27.8906  -22.3151  -14.5262 O   0  0  0  0  0  0  0  0  0  0  0  0
   30.7018  -22.9641  -10.5435 C   0  0  0  0  0  0  0  0  0  0  0  0
   31.0812  -21.7034  -11.2622 C   0  0  2  0  0  0  0  0  0  0  0  0
   32.1546  -20.9634  -10.4308 C   0  0  0  0  0  0  0  0  0  0  0  0
   29.9583  -20.7851  -11.4215 C   0  0  0  0  0  0  0  0  0  0  0  0
   28.7355  -21.1232  -12.1682 C   0  0  2  0  0  0  0  0  0  0  0  0
   29.0938  -20.6397  -13.5557 N   0  0  0  0  0  0  0  0  0  0  0  0
   27.4791  -20.4562  -11.8771 C   0  0  0  0  0  0  0  0  0  0  0  0
   27.4197  -19.1790  -11.9847 O   0  0  0  0  0  0  0  0  0  0  0  0
   24.5717  -19.7727  -13.4002 C   0  0  0  0  0  0  0  0  0  0  0  0
   24.0097  -20.3387  -12.1161 C   0  0  1  0  0  0  0  0  0  0  0  0
   23.5471  -21.7570  -12.3389 C   0  0  0  0  0  0  0  0  0  0  0  0
   25.1014  -20.2584  -11.0672 C   0  0  2  0  0  0  0  0  0  0  0  0
   26.2620  -21.0608  -11.4856 N   0  0  0  0  0  0  0  0  0  0  0  0
   24.5922  -20.7363   -9.7857 C   0  0  0  0  0  0  0  0  0  0  0  0
   23.6193  -20.0193   -9.1098 O   0  0  0  0  0  0  0  0  0  0  0  0
   25.0080  -21.7836   -9.2684 O   0  0  0  0  0  0  0  0  0  0  0  0
  2  1  1  6
  2  3  1  0
  3  4  1  0
  4  5  2  0
  5  6  1  0
  7  6  2  0
  8  7  1  0
  9  8  2  0
  9  4  1  0
 10 11  2  0
 10  2  1  0
 13 12  1  1
 14 13  1  0
 15 13  1  0
 16 15  1  1
 16 17  1  0
 17 10  1  0
 18 24  1  0
 18 16  1  0
 19 18  2  0
 21 20  1  6
 21 22  1  0
 23 21  1  0
 23 24  1  6
 25 26  1  0
 25 23  1  0
 27 25  2  0
M  END
$$$$
