FLV.pdb
     RDKit          3D

 27 27  0  0  1  0  0  0  0  0999 V2000
   30.2655  -21.7555  -12.1302 N   0  0  0  0  0  0  0  0  0  0  0  0
   29.3181  -20.7773  -11.7038 C   0  0  1  0  0  0  0  0  0  0  0  0
   28.1943  -20.5583  -12.6820 C   0  0  0  0  0  0  0  0  0  0  0  0
   28.7515  -19.9268  -13.8963 C   0  0  0  0  0  0  0  0  0  0  0  0
   29.1125  -20.6930  -14.9841 C   0  0  0  0  0  0  0  0  0  0  0  0
   29.6295  -20.0770  -16.1031 C   0  0  0  0  0  0  0  0  0  0  0  0
   29.7947  -18.7123  -16.1613 C   0  0  0  0  0  0  0  0  0  0  0  0
   29.4352  -17.9322  -15.0738 C   0  0  0  0  0  0  0  0  0  0  0  0
   28.9179  -18.5616  -13.9572 C   0  0  0  0  0  0  0  0  0  0  0  0
   28.7063  -21.2435  -10.4296 C   0  0  0  0  0  0  0  0  0  0  0  0
   28.3823  -22.4434  -10.2550 O   0  0  0  0  0  0  0  0  0  0  0  0
   28.1094  -18.8163   -4.9576 C   0  0  0  0  0  0  0  0  0  0  0  0
   27.5829  -19.9199   -5.8263 C   0  0  2  0  0  0  0  0  0  0  0  0
   28.0712  -21.2727   -5.2584 C   0  0  0  0  0  0  0  0  0  0  0  0
   28.0665  -19.8357   -7.2005 C   0  0  0  0  0  0  0  0  0  0  0  0
   27.5101  -20.6342   -8.3051 C   0  0  2  0  0  0  0  0  0  0  0  0
   28.4911  -20.3272   -9.4145 N   0  0  0  0  0  0  0  0  0  0  0  0
   26.2170  -20.3081   -8.8793 C   0  0  0  0  0  0  0  0  0  0  0  0
   26.0098  -19.1111   -9.2921 O   0  0  0  0  0  0  0  0  0  0  0  0
   22.7027  -21.0942  -11.9276 C   0  0  0  0  0  0  0  0  0  0  0  0
   24.0069  -21.4025  -11.2282 C   0  0  1  0  0  0  0  0  0  0  0  0
   25.1619  -20.8589  -12.0316 C   0  0  0  0  0  0  0  0  0  0  0  0
   23.9392  -20.7841   -9.8457 C   0  0  2  0  0  0  0  0  0  0  0  0
   25.1179  -21.1800   -9.0585 N   0  0  0  0  0  0  0  0  0  0  0  0
   22.7160  -21.2094   -9.1729 C   0  0  0  0  0  0  0  0  0  0  0  0
   21.5031  -20.6228   -9.4927 O   0  0  0  0  0  0  0  0  0  0  0  0
   22.7230  -22.0960   -8.3061 O   0  0  0  0  0  0  0  0  0  0  0  0
  2  1  1  6
  2  3  1  0
  3  4  1  0
  4  5  2  0
  5  6  1  0
  7  6  2  0
  8  7  1  0
  9  8  2  0
  9  4  1  0
 10 11  2  0
 10  2  1  0
 13 12  1  1
 14 13  1  0
 15 13  1  0
 16 15  1  1
 16 17  1  0
 17 10  1  0
 18 24  1  0
 18 16  1  0
 19 18  2  0
 21 20  1  6
 21 22  1  0
 23 21  1  0
 23 24  1  1
 25 26  1  0
 25 23  1  0
 27 25  2  0
M  END
$$$$
