FLV.pdb
     RDKit          3D

 27 27  0  0  1  0  0  0  0  0999 V2000
   26.8905  -21.2391  -12.5978 N   0  0  0  0  0  0  0  0  0  0  0  0
   25.8068  -20.5621  -11.9625 C   0  0  1  0  0  0  0  0  0  0  0  0
   24.4777  -20.7865  -12.6340 C   0  0  0  0  0  0  0  0  0  0  0  0
   24.5108  -20.1345  -13.9598 C   0  0  0  0  0  0  0  0  0  0  0  0
   24.5633  -20.8887  -15.1126 C   0  0  0  0  0  0  0  0  0  0  0  0
   24.5933  -20.2536  -16.3352 C   0  0  0  0  0  0  0  0  0  0  0  0
   24.5719  -18.8814  -16.4335 C   0  0  0  0  0  0  0  0  0  0  0  0
   24.5192  -18.1132  -15.2813 C   0  0  0  0  0  0  0  0  0  0  0  0
   24.4896  -18.7617  -14.0611 C   0  0  0  0  0  0  0  0  0  0  0  0
   25.6872  -21.0746  -10.5703 C   0  0  0  0  0  0  0  0  0  0  0  0
   25.6512  -22.3045  -10.3221 O   0  0  0  0  0  0  0  0  0  0  0  0
   28.4227  -20.8123   -6.8371 C   0  0  0  0  0  0  0  0  0  0  0  0
   27.7963  -19.5845   -7.4288 C   0  0  2  0  0  0  0  0  0  0  0  0
   28.2264  -18.3572   -6.5924 C   0  0  0  0  0  0  0  0  0  0  0  0
   26.3379  -19.6271   -7.4033 C   0  0  0  0  0  0  0  0  0  0  0  0
   25.5456  -20.6564   -8.0963 C   0  0  2  0  0  0  0  0  0  0  0  0
   25.6143  -20.1686   -9.5262 N   0  0  0  0  0  0  0  0  0  0  0  0
   24.1232  -20.7961   -7.8406 C   0  0  0  0  0  0  0  0  0  0  0  0
   23.3189  -19.9305   -8.3406 O   0  0  0  0  0  0  0  0  0  0  0  0
   19.8884  -22.8670   -7.2812 C   0  0  0  0  0  0  0  0  0  0  0  0
   21.3615  -22.9060   -7.6184 C   0  0  1  0  0  0  0  0  0  0  0  0
   21.5523  -22.7489   -9.1063 C   0  0  0  0  0  0  0  0  0  0  0  0
   22.0359  -21.7927   -6.8413 C   0  0  2  0  0  0  0  0  0  0  0  0
   23.4862  -21.8117   -7.0902 N   0  0  0  0  0  0  0  0  0  0  0  0
   21.7656  -21.9505   -5.4158 C   0  0  0  0  0  0  0  0  0  0  0  0
   22.7504  -22.4275   -4.5672 O   0  0  0  0  0  0  0  0  0  0  0  0
   20.6624  -21.6673   -4.9260 O   0  0  0  0  0  0  0  0  0  0  0  0
  2  1  1  6
  2  3  1  0
  3  4  1  0
  4  5  2  0
  5  6  1  0
  7  6  2  0
  8  7  1  0
  9  8  2  0
  9  4  1  0
 10 11  2  0
 10  2  1  0
 13 12  1  1
 14 13  1  0
 15 13  1  0
 16 15  1  1
 16 17  1  0
 17 10  1  0
 18 24  1  0
 18 16  1  0
 19 18  2  0
 21 20  1  6
 21 22  1  0
 23 21  1  0
 23 24  1  1
 25 26  1  0
 25 23  1  0
 27 25  2  0
M  END
$$$$
