FLV.pdb
     RDKit          3D

 27 27  0  0  1  0  0  0  0  0999 V2000
   22.2252  -20.4297  -17.0864 N   0  0  0  0  0  0  0  0  0  0  0  0
   22.8195  -19.3900  -16.3105 C   0  0  1  0  0  0  0  0  0  0  0  0
   21.9104  -18.8366  -15.2452 C   0  0  0  0  0  0  0  0  0  0  0  0
   20.8564  -18.0367  -15.9032 C   0  0  0  0  0  0  0  0  0  0  0  0
   21.1709  -16.8696  -16.5661 C   0  0  0  0  0  0  0  0  0  0  0  0
   20.1675  -16.1440  -17.1706 C   0  0  0  0  0  0  0  0  0  0  0  0
   18.8557  -16.5571  -17.1286 C   0  0  0  0  0  0  0  0  0  0  0  0
   18.5279  -17.7288  -16.4651 C   0  0  0  0  0  0  0  0  0  0  0  0
   19.5431  -18.4478  -15.8627 C   0  0  0  0  0  0  0  0  0  0  0  0
   24.0155  -19.9466  -15.6212 C   0  0  0  0  0  0  0  0  0  0  0  0
   24.0633  -21.1445  -15.2494 O   0  0  0  0  0  0  0  0  0  0  0  0
   28.5106  -20.3916  -16.8558 C   0  0  0  0  0  0  0  0  0  0  0  0
   27.9099  -19.0291  -16.6753 C   0  0  2  0  0  0  0  0  0  0  0  0
   29.0115  -17.9682  -16.9032 C   0  0  0  0  0  0  0  0  0  0  0  0
   27.3866  -18.8170  -15.3297 C   0  0  0  0  0  0  0  0  0  0  0  0
   26.3454  -19.6629  -14.7232 C   0  0  2  0  0  0  0  0  0  0  0  0
   25.0998  -19.1188  -15.3862 N   0  0  0  0  0  0  0  0  0  0  0  0
   26.0534  -19.5782  -13.3034 C   0  0  0  0  0  0  0  0  0  0  0  0
   25.4989  -18.5135  -12.8505 O   0  0  0  0  0  0  0  0  0  0  0  0
   24.5027  -20.7426   -9.0322 C   0  0  0  0  0  0  0  0  0  0  0  0
   24.8174  -21.1311  -10.4588 C   0  0  1  0  0  0  0  0  0  0  0  0
   23.6185  -20.8752  -11.3374 C   0  0  0  0  0  0  0  0  0  0  0  0
   26.0219  -20.3210  -10.8959 C   0  0  2  0  0  0  0  0  0  0  0  0
   26.3023  -20.5638  -12.3201 N   0  0  0  0  0  0  0  0  0  0  0  0
   27.1806  -20.6801  -10.0844 C   0  0  0  0  0  0  0  0  0  0  0  0
   28.2452  -21.3610  -10.6503 O   0  0  0  0  0  0  0  0  0  0  0  0
   27.2480  -20.3918   -8.8804 O   0  0  0  0  0  0  0  0  0  0  0  0
  2  1  1  1
  2  3  1  0
  3  4  1  0
  4  5  2  0
  5  6  1  0
  7  6  2  0
  8  7  1  0
  9  8  2  0
  9  4  1  0
 10 11  2  0
 10  2  1  0
 13 12  1  1
 14 13  1  0
 15 13  1  0
 16 15  1  1
 16 17  1  0
 17 10  1  0
 18 24  1  0
 18 16  1  0
 19 18  2  0
 21 20  1  1
 21 22  1  0
 23 21  1  0
 23 24  1  6
 25 26  1  0
 25 23  1  0
 27 25  2  0
M  END
$$$$
