FLV.pdb
     RDKit          3D

 27 27  0  0  1  0  0  0  0  0999 V2000
   25.9633  -19.9195  -17.9729 N   0  0  0  0  0  0  0  0  0  0  0  0
   25.2029  -19.2211  -16.9878 C   0  0  1  0  0  0  0  0  0  0  0  0
   23.9543  -18.5789  -17.5320 C   0  0  0  0  0  0  0  0  0  0  0  0
   24.3529  -17.5099  -18.4712 C   0  0  0  0  0  0  0  0  0  0  0  0
   24.2322  -17.6899  -19.8327 C   0  0  0  0  0  0  0  0  0  0  0  0
   24.6118  -16.6757  -20.6849 C   0  0  0  0  0  0  0  0  0  0  0  0
   25.1096  -15.4847  -20.2088 C   0  0  0  0  0  0  0  0  0  0  0  0
   25.2354  -15.2927  -18.8421 C   0  0  0  0  0  0  0  0  0  0  0  0
   24.8514  -16.3172  -17.9976 C   0  0  0  0  0  0  0  0  0  0  0  0
   24.7771  -20.1968  -15.9477 C   0  0  0  0  0  0  0  0  0  0  0  0
   24.5271  -21.3939  -16.2306 O   0  0  0  0  0  0  0  0  0  0  0  0
   25.7670  -20.0862  -10.0719 C   0  0  0  0  0  0  0  0  0  0  0  0
   24.9912  -20.8682  -11.0900 C   0  0  2  0  0  0  0  0  0  0  0  0
   25.5924  -22.2896  -11.1858 C   0  0  0  0  0  0  0  0  0  0  0  0
   25.0644  -20.2842  -12.4254 C   0  0  0  0  0  0  0  0  0  0  0  0
   24.2353  -20.7380  -13.5541 C   0  0  2  0  0  0  0  0  0  0  0  0
   24.6550  -19.7691  -14.6368 N   0  0  0  0  0  0  0  0  0  0  0  0
   22.7895  -20.6124  -13.5112 C   0  0  0  0  0  0  0  0  0  0  0  0
   22.2732  -19.4382  -13.4810 O   0  0  0  0  0  0  0  0  0  0  0  0
   20.1535  -21.1297  -15.7976 C   0  0  0  0  0  0  0  0  0  0  0  0
   19.6666  -21.9195  -14.6041 C   0  0  1  0  0  0  0  0  0  0  0  0
   19.9180  -23.3904  -14.8242 C   0  0  0  0  0  0  0  0  0  0  0  0
   20.3986  -21.3973  -13.3836 C   0  0  2  0  0  0  0  0  0  0  0  0
   21.8409  -21.6614  -13.5099 N   0  0  0  0  0  0  0  0  0  0  0  0
   19.8717  -22.0342  -12.1808 C   0  0  0  0  0  0  0  0  0  0  0  0
   18.7016  -21.5726  -11.6018 O   0  0  0  0  0  0  0  0  0  0  0  0
   20.4461  -22.9943  -11.6463 O   0  0  0  0  0  0  0  0  0  0  0  0
  2  1  1  6
  2  3  1  0
  3  4  1  0
  4  5  2  0
  5  6  1  0
  7  6  2  0
  8  7  1  0
  9  8  2  0
  9  4  1  0
 10 11  2  0
 10  2  1  0
 13 12  1  1
 14 13  1  0
 15 13  1  0
 16 15  1  1
 16 17  1  0
 17 10  1  0
 18 24  1  0
 18 16  1  0
 19 18  2  0
 21 20  1  6
 21 22  1  0
 23 21  1  0
 23 24  1  6
 25 26  1  0
 25 23  1  0
 27 25  2  0
M  END
$$$$
