FLV.pdb
     RDKit          3D

 27 27  0  0  1  0  0  0  0  0999 V2000
   28.1894  -19.0625  -15.3473 N   0  0  0  0  0  0  0  0  0  0  0  0
   26.9781  -18.5603  -14.7843 C   0  0  1  0  0  0  0  0  0  0  0  0
   26.1110  -17.8269  -15.7732 C   0  0  0  0  0  0  0  0  0  0  0  0
   26.7315  -16.5150  -16.0521 C   0  0  0  0  0  0  0  0  0  0  0  0
   26.7396  -15.5238  -15.0940 C   0  0  0  0  0  0  0  0  0  0  0  0
   27.3254  -14.3102  -15.3819 C   0  0  0  0  0  0  0  0  0  0  0  0
   27.9040  -14.0630  -16.6055 C   0  0  0  0  0  0  0  0  0  0  0  0
   27.9017  -15.0521  -17.5762 C   0  0  0  0  0  0  0  0  0  0  0  0
   27.3111  -16.2651  -17.2755 C   0  0  0  0  0  0  0  0  0  0  0  0
   26.1857  -19.7132  -14.2761 C   0  0  0  0  0  0  0  0  0  0  0  0
   26.2090  -20.8310  -14.8467 O   0  0  0  0  0  0  0  0  0  0  0  0
   26.5156  -22.3205  -10.7206 C   0  0  0  0  0  0  0  0  0  0  0  0
   26.1223  -20.8904  -10.4970 C   0  0  2  0  0  0  0  0  0  0  0  0
   25.9335  -20.6603   -8.9797 C   0  0  0  0  0  0  0  0  0  0  0  0
   24.8586  -20.5456  -11.1403 C   0  0  0  0  0  0  0  0  0  0  0  0
   24.6149  -20.7045  -12.5834 C   0  0  2  0  0  0  0  0  0  0  0  0
   25.4049  -19.5439  -13.1457 N   0  0  0  0  0  0  0  0  0  0  0  0
   23.2843  -20.5245  -13.1361 C   0  0  0  0  0  0  0  0  0  0  0  0
   22.7906  -19.3411  -13.1819 O   0  0  0  0  0  0  0  0  0  0  0  0
   19.5648  -21.4954  -16.0816 C   0  0  0  0  0  0  0  0  0  0  0  0
   20.9393  -21.8613  -15.5695 C   0  0  1  0  0  0  0  0  0  0  0  0
   21.9907  -21.4091  -16.5519 C   0  0  0  0  0  0  0  0  0  0  0  0
   21.1106  -21.2024  -14.2150 C   0  0  2  0  0  0  0  0  0  0  0  0
   22.4352  -21.5261  -13.6613 N   0  0  0  0  0  0  0  0  0  0  0  0
   20.0598  -21.6544  -13.3087 C   0  0  0  0  0  0  0  0  0  0  0  0
   18.9559  -20.8545  -13.0654 O   0  0  0  0  0  0  0  0  0  0  0  0
   20.1206  -22.7522  -12.7355 O   0  0  0  0  0  0  0  0  0  0  0  0
  2  1  1  6
  2  3  1  0
  3  4  1  0
  4  5  2  0
  5  6  1  0
  7  6  2  0
  8  7  1  0
  9  8  2  0
  9  4  1  0
 10 11  2  0
 10  2  1  0
 13 12  1  1
 14 13  1  0
 15 13  1  0
 16 15  1  1
 16 17  1  0
 17 10  1  0
 18 24  1  0
 18 16  1  0
 19 18  2  0
 21 20  1  6
 21 22  1  0
 23 21  1  0
 23 24  1  1
 25 26  1  0
 25 23  1  0
 27 25  2  0
M  END
$$$$
