FLV.pdb
     RDKit          3D

 27 27  0  0  1  0  0  0  0  0999 V2000
   20.7518  -18.9863  -13.8829 N   0  0  0  0  0  0  0  0  0  0  0  0
   21.4783  -20.2143  -13.8610 C   0  0  1  0  0  0  0  0  0  0  0  0
   21.3915  -20.9905  -15.1485 C   0  0  0  0  0  0  0  0  0  0  0  0
   20.0310  -21.5567  -15.2589 C   0  0  0  0  0  0  0  0  0  0  0  0
   19.1229  -21.0338  -16.1548 C   0  0  0  0  0  0  0  0  0  0  0  0
   17.8613  -21.5820  -16.2362 C   0  0  0  0  0  0  0  0  0  0  0  0
   17.4848  -22.6413  -15.4430 C   0  0  0  0  0  0  0  0  0  0  0  0
   18.3894  -23.1750  -14.5388 C   0  0  0  0  0  0  0  0  0  0  0  0
   19.6517  -22.6166  -14.4665 C   0  0  0  0  0  0  0  0  0  0  0  0
   22.9157  -19.9028  -13.6323 C   0  0  0  0  0  0  0  0  0  0  0  0
   23.4112  -18.7985  -13.9645 O   0  0  0  0  0  0  0  0  0  0  0  0
   23.3725  -20.1054  -10.4755 C   0  0  0  0  0  0  0  0  0  0  0  0
   24.4912  -21.0998  -10.5737 C   0  0  2  0  0  0  0  0  0  0  0  0
   25.2124  -21.1701   -9.2077 C   0  0  0  0  0  0  0  0  0  0  0  0
   25.4937  -20.7249  -11.5656 C   0  0  0  0  0  0  0  0  0  0  0  0
   25.2240  -20.6791  -13.0121 C   0  0  2  0  0  0  0  0  0  0  0  0
   23.7225  -20.8580  -13.0381 N   0  0  0  0  0  0  0  0  0  0  0  0
   25.7175  -21.7224  -13.8931 C   0  0  0  0  0  0  0  0  0  0  0  0
   26.3937  -22.6881  -13.3868 O   0  0  0  0  0  0  0  0  0  0  0  0
   27.7423  -20.5590  -18.0427 C   0  0  0  0  0  0  0  0  0  0  0  0
   26.7085  -20.4509  -16.9450 C   0  0  1  0  0  0  0  0  0  0  0  0
   25.3688  -20.0874  -17.5348 C   0  0  0  0  0  0  0  0  0  0  0  0
   26.6666  -21.7851  -16.2264 C   0  0  2  0  0  0  0  0  0  0  0  0
   25.5304  -21.8184  -15.2917 N   0  0  0  0  0  0  0  0  0  0  0  0
   27.9186  -21.9994  -15.5077 C   0  0  0  0  0  0  0  0  0  0  0  0
   28.6374  -23.1687  -15.6908 O   0  0  0  0  0  0  0  0  0  0  0  0
   28.3721  -21.1546  -14.7216 O   0  0  0  0  0  0  0  0  0  0  0  0
  2  1  1  6
  2  3  1  0
  3  4  1  0
  4  5  2  0
  5  6  1  0
  7  6  2  0
  8  7  1  0
  9  8  2  0
  9  4  1  0
 10 11  2  0
 10  2  1  0
 13 12  1  1
 14 13  1  0
 15 13  1  0
 16 15  1  1
 16 17  1  0
 17 10  1  0
 18 24  1  0
 18 16  1  0
 19 18  2  0
 21 20  1  6
 21 22  1  0
 23 21  1  0
 23 24  1  1
 25 26  1  0
 25 23  1  0
 27 25  2  0
M  END
$$$$
