FLV.pdb
     RDKit          3D

 27 27  0  0  1  0  0  0  0  0999 V2000
   28.3130  -20.4185  -15.0381 N   0  0  0  0  0  0  0  0  0  0  0  0
   27.2978  -19.6136  -14.4402 C   0  0  1  0  0  0  0  0  0  0  0  0
   26.4726  -18.8434  -15.4370 C   0  0  0  0  0  0  0  0  0  0  0  0
   27.2302  -17.6387  -15.8355 C   0  0  0  0  0  0  0  0  0  0  0  0
   27.9813  -17.6316  -16.9916 C   0  0  0  0  0  0  0  0  0  0  0  0
   28.6775  -16.4941  -17.3383 C   0  0  0  0  0  0  0  0  0  0  0  0
   28.6413  -15.3623  -16.5568 C   0  0  0  0  0  0  0  0  0  0  0  0
   27.8896  -15.3581  -15.3925 C   0  0  0  0  0  0  0  0  0  0  0  0
   27.1957  -16.5050  -15.0554 C   0  0  0  0  0  0  0  0  0  0  0  0
   26.3678  -20.5085  -13.6989 C   0  0  0  0  0  0  0  0  0  0  0  0
   26.0984  -21.6637  -14.1092 O   0  0  0  0  0  0  0  0  0  0  0  0
   26.5646  -22.1963   -9.4701 C   0  0  0  0  0  0  0  0  0  0  0  0
   26.2941  -20.7350   -9.6740 C   0  0  2  0  0  0  0  0  0  0  0  0
   26.1653  -20.0576   -8.2899 C   0  0  0  0  0  0  0  0  0  0  0  0
   25.0456  -20.4865  -10.3873 C   0  0  0  0  0  0  0  0  0  0  0  0
   24.8053  -20.9190  -11.7739 C   0  0  2  0  0  0  0  0  0  0  0  0
   25.7878  -20.0512  -12.5281 N   0  0  0  0  0  0  0  0  0  0  0  0
   23.5337  -20.6569  -12.4239 C   0  0  0  0  0  0  0  0  0  0  0  0
   23.2487  -19.4511  -12.7573 O   0  0  0  0  0  0  0  0  0  0  0  0
   19.6832  -21.6944  -15.1989 C   0  0  0  0  0  0  0  0  0  0  0  0
   20.9929  -22.1324  -14.5839 C   0  0  1  0  0  0  0  0  0  0  0  0
   22.0852  -22.0992  -15.6236 C   0  0  0  0  0  0  0  0  0  0  0  0
   21.2864  -21.1993  -13.4257 C   0  0  2  0  0  0  0  0  0  0  0  0
   22.5356  -21.6010  -12.7594 N   0  0  0  0  0  0  0  0  0  0  0  0
   20.1772  -21.2240  -12.4774 C   0  0  0  0  0  0  0  0  0  0  0  0
   19.2281  -20.2158  -12.4869 O   0  0  0  0  0  0  0  0  0  0  0  0
   20.0510  -22.1342  -11.6451 O   0  0  0  0  0  0  0  0  0  0  0  0
  2  1  1  6
  2  3  1  0
  3  4  1  0
  4  5  2  0
  5  6  1  0
  7  6  2  0
  8  7  1  0
  9  8  2  0
  9  4  1  0
 10 11  2  0
 10  2  1  0
 13 12  1  1
 14 13  1  0
 15 13  1  0
 16 15  1  1
 16 17  1  0
 17 10  1  0
 18 24  1  0
 18 16  1  0
 19 18  2  0
 21 20  1  6
 21 22  1  0
 23 21  1  0
 23 24  1  1
 25 26  1  0
 25 23  1  0
 27 25  2  0
M  END
$$$$
