FLV.pdb
     RDKit          3D

 27 27  0  0  1  0  0  0  0  0999 V2000
   16.5567  -25.3944   -1.4455 N   0  0  0  0  0  0  0  0  0  0  0  0
   16.4086  -24.7369   -0.1877 C   0  0  1  0  0  0  0  0  0  0  0  0
   14.9947  -24.7361    0.3304 C   0  0  0  0  0  0  0  0  0  0  0  0
   14.1519  -23.9806   -0.6197 C   0  0  0  0  0  0  0  0  0  0  0  0
   13.1894  -24.6227   -1.3693 C   0  0  0  0  0  0  0  0  0  0  0  0
   12.4181  -23.8928   -2.2475 C   0  0  0  0  0  0  0  0  0  0  0  0
   12.5856  -22.5351   -2.3947 C   0  0  0  0  0  0  0  0  0  0  0  0
   13.5501  -21.8791   -1.6463 C   0  0  0  0  0  0  0  0  0  0  0  0
   14.3174  -22.6221   -0.7690 C   0  0  0  0  0  0  0  0  0  0  0  0
   17.2432  -25.4531    0.8152 C   0  0  0  0  0  0  0  0  0  0  0  0
   18.0152  -26.3857    0.4841 O   0  0  0  0  0  0  0  0  0  0  0  0
   20.7600  -27.0732    2.1267 C   0  0  0  0  0  0  0  0  0  0  0  0
   20.2403  -25.7390    1.6795 C   0  0  2  0  0  0  0  0  0  0  0  0
   21.4422  -24.8013    1.4201 C   0  0  0  0  0  0  0  0  0  0  0  0
   19.4055  -25.0924    2.6867 C   0  0  0  0  0  0  0  0  0  0  0  0
   18.1278  -25.6505    3.1591 C   0  0  2  0  0  0  0  0  0  0  0  0
   17.1628  -25.0778    2.1452 N   0  0  0  0  0  0  0  0  0  0  0  0
   17.5708  -25.2510    4.4391 C   0  0  0  0  0  0  0  0  0  0  0  0
   17.1237  -24.0556    4.5709 O   0  0  0  0  0  0  0  0  0  0  0  0
   15.4908  -25.9561    8.8056 C   0  0  0  0  0  0  0  0  0  0  0  0
   15.9722  -26.5359    7.4951 C   0  0  1  0  0  0  0  0  0  0  0  0
   14.7922  -26.8753    6.6191 C   0  0  0  0  0  0  0  0  0  0  0  0
   16.8792  -25.5077    6.8483 C   0  0  2  0  0  0  0  0  0  0  0  0
   17.4435  -26.0474    5.6009 N   0  0  0  0  0  0  0  0  0  0  0  0
   17.9496  -25.1424    7.7707 C   0  0  0  0  0  0  0  0  0  0  0  0
   17.7758  -24.0984    8.6636 O   0  0  0  0  0  0  0  0  0  0  0  0
   19.0328  -25.7455    7.7843 O   0  0  0  0  0  0  0  0  0  0  0  0
  2  1  1  6
  2  3  1  0
  3  4  1  0
  4  5  2  0
  5  6  1  0
  7  6  2  0
  8  7  1  0
  9  8  2  0
  9  4  1  0
 10 11  2  0
 10  2  1  0
 13 12  1  1
 14 13  1  0
 15 13  1  0
 16 15  1  6
 16 17  1  0
 17 10  1  0
 18 24  1  0
 18 16  1  0
 19 18  2  0
 21 20  1  1
 21 22  1  0
 23 21  1  0
 23 24  1  6
 25 26  1  0
 25 23  1  0
 27 25  2  0
M  END
$$$$
