FGL.pdb
     RDKit          3D

 24 24  0  0  1  0  0  0  0  0999 V2000
    6.6870  -16.7668   24.2232 N   0  0  0  0  0  0  0  0  0  0  0  0
    7.0970  -16.1610   22.9970 C   0  0  1  0  0  0  0  0  0  0  0  0
    6.4921  -14.7722   22.8148 C   0  0  0  0  0  0  0  0  0  0  0  0
    6.8491  -13.8634   23.9328 C   0  0  0  0  0  0  0  0  0  0  0  0
    7.8162  -12.8943   23.8787 C   0  0  0  0  0  0  0  0  0  0  0  0
    8.1084  -12.0709   24.9600 C   0  0  0  0  0  0  0  0  0  0  0  0
    7.4055  -12.2306   26.1260 C   0  0  0  0  0  0  0  0  0  0  0  0
    6.4307  -13.1994   26.1967 C   0  0  0  0  0  0  0  0  0  0  0  0
    6.1507  -14.0117   25.1126 C   0  0  0  0  0  0  0  0  0  0  0  0
    8.5567  -16.0554   22.9447 C   0  0  0  0  0  0  0  0  0  0  0  0
    9.1382  -15.1928   22.2388 O   0  0  0  0  0  0  0  0  0  0  0  0
    9.4187  -16.9353   23.7006 N   0  0  0  0  0  0  0  0  0  0  0  0
   10.8301  -16.6749   23.7352 C   0  0  0  0  0  0  0  0  0  0  0  0
   11.4007  -16.4554   25.0640 C   0  0  0  0  0  0  0  0  0  0  0  0
   12.6713  -16.2874   25.1437 O   0  0  0  0  0  0  0  0  0  0  0  0
   10.1034  -13.7212   27.6520 C   0  0  0  0  0  0  0  0  0  0  0  0
    9.5705  -14.9912   28.2956 C   0  0  2  0  0  0  0  0  0  0  0  0
    8.6360  -14.6403   29.4004 C   0  0  0  0  0  0  0  0  0  0  0  0
   10.6591  -15.9235   28.6721 C   0  0  0  0  0  0  0  0  0  0  0  0
   11.4226  -16.5515   27.5573 C   0  0  2  0  0  0  0  0  0  0  0  0
   10.6924  -16.4079   26.2869 N   0  0  0  0  0  0  0  0  0  0  0  0
   11.5901  -18.0084   27.7540 C   0  0  0  0  0  0  0  0  0  0  0  0
   10.9981  -18.9563   26.9331 O   0  0  0  0  0  0  0  0  0  0  0  0
   12.2950  -18.4296   28.6995 O   0  0  0  0  0  0  0  0  0  0  0  0
  2  1  1  1
  3  2  1  0
  4  3  1  0
  5  4  2  0
  6  5  1  0
  7  8  1  0
  7  6  2  0
  8  9  2  0
  9  4  1  0
 10  2  1  0
 10 12  1  0
 11 10  2  0
 13 12  1  0
 13 14  1  0
 14 21  1  0
 15 14  2  0
 17 16  1  1
 17 19  1  0
 18 17  1  0
 20 19  1  1
 20 22  1  0
 21 20  1  0
 22 24  2  0
 22 23  1  0
M  END
$$$$
