FGL.pdb
     RDKit          3D

 24 24  0  0  1  0  0  0  0  0999 V2000
    7.2569  -17.6049   21.6676 N   0  0  0  0  0  0  0  0  0  0  0  0
    8.3114  -16.6647   21.8739 C   0  0  1  0  0  0  0  0  0  0  0  0
    7.7974  -15.3431   22.4369 C   0  0  0  0  0  0  0  0  0  0  0  0
    7.7563  -14.2804   21.4015 C   0  0  0  0  0  0  0  0  0  0  0  0
    6.7980  -14.1687   20.4285 C   0  0  0  0  0  0  0  0  0  0  0  0
    6.8108  -13.1503   19.4823 C   0  0  0  0  0  0  0  0  0  0  0  0
    7.8177  -12.2207   19.5201 C   0  0  0  0  0  0  0  0  0  0  0  0
    8.7879  -12.3187   20.4910 C   0  0  0  0  0  0  0  0  0  0  0  0
    8.7624  -13.3377   21.4263 C   0  0  0  0  0  0  0  0  0  0  0  0
    9.3124  -17.2156   22.7900 C   0  0  0  0  0  0  0  0  0  0  0  0
    8.9980  -17.9652   23.7490 O   0  0  0  0  0  0  0  0  0  0  0  0
   10.7225  -16.9323   22.6485 N   0  0  0  0  0  0  0  0  0  0  0  0
   11.6809  -17.8580   23.1830 C   0  0  0  0  0  0  0  0  0  0  0  0
   13.0845  -17.4781   23.0238 C   0  0  0  0  0  0  0  0  0  0  0  0
   13.9743  -18.3252   23.3970 O   0  0  0  0  0  0  0  0  0  0  0  0
   14.6141  -14.4821   18.5024 C   0  0  0  0  0  0  0  0  0  0  0  0
   14.2420  -15.4399   19.6228 C   0  0  2  0  0  0  0  0  0  0  0  0
   12.7634  -15.4593   19.7966 C   0  0  0  0  0  0  0  0  0  0  0  0
   15.0119  -15.1743   20.8608 C   0  0  0  0  0  0  0  0  0  0  0  0
   14.9328  -16.2029   21.9359 C   0  0  2  0  0  0  0  0  0  0  0  0
   13.5723  -16.2605   22.4955 N   0  0  0  0  0  0  0  0  0  0  0  0
   15.8161  -15.8780   23.0777 C   0  0  0  0  0  0  0  0  0  0  0  0
   15.3451  -15.6805   24.3669 O   0  0  0  0  0  0  0  0  0  0  0  0
   17.0505  -15.7710   22.8962 O   0  0  0  0  0  0  0  0  0  0  0  0
  2  1  1  1
  3  2  1  0
  4  3  1  0
  5  4  2  0
  6  5  1  0
  7  8  1  0
  7  6  2  0
  8  9  2  0
  9  4  1  0
 10  2  1  0
 10 12  1  0
 11 10  2  0
 13 12  1  0
 13 14  1  0
 14 21  1  0
 15 14  2  0
 17 16  1  6
 17 19  1  0
 18 17  1  0
 20 19  1  6
 20 22  1  0
 21 20  1  0
 22 24  2  0
 22 23  1  0
M  END
$$$$
