FGL.pdb
     RDKit          3D

 24 24  0  0  1  0  0  0  0  0999 V2000
    8.1695  -18.2750   20.1406 N   0  0  0  0  0  0  0  0  0  0  0  0
    8.3304  -16.9131   20.5378 C   0  0  1  0  0  0  0  0  0  0  0  0
    7.2207  -16.4573   21.4803 C   0  0  0  0  0  0  0  0  0  0  0  0
    7.3118  -15.0064   21.7799 C   0  0  0  0  0  0  0  0  0  0  0  0
    7.5421  -14.0258   20.8511 C   0  0  0  0  0  0  0  0  0  0  0  0
    7.6181  -12.6798   21.1905 C   0  0  0  0  0  0  0  0  0  0  0  0
    7.4573  -12.3151   22.5021 C   0  0  0  0  0  0  0  0  0  0  0  0
    7.2252  -13.2878   23.4474 C   0  0  0  0  0  0  0  0  0  0  0  0
    7.1521  -14.6236   23.0951 C   0  0  0  0  0  0  0  0  0  0  0  0
    9.6238  -16.7251   21.1986 C   0  0  0  0  0  0  0  0  0  0  0  0
   10.7109  -16.8075   20.5726 O   0  0  0  0  0  0  0  0  0  0  0  0
    9.7308  -16.4333   22.6100 N   0  0  0  0  0  0  0  0  0  0  0  0
   11.0311  -16.3547   23.2134 C   0  0  0  0  0  0  0  0  0  0  0  0
   11.0474  -16.0531   24.6446 C   0  0  0  0  0  0  0  0  0  0  0  0
   12.1919  -15.9752   25.2215 O   0  0  0  0  0  0  0  0  0  0  0  0
   10.2664  -12.4367   27.0065 C   0  0  0  0  0  0  0  0  0  0  0  0
    9.0386  -13.2846   26.7155 C   0  0  2  0  0  0  0  0  0  0  0  0
    7.8064  -12.4922   26.9819 C   0  0  0  0  0  0  0  0  0  0  0  0
    9.0949  -14.5985   27.3985 C   0  0  0  0  0  0  0  0  0  0  0  0
   10.1130  -15.5690   26.9071 C   0  0  2  0  0  0  0  0  0  0  0  0
    9.9214  -15.8352   25.4718 N   0  0  0  0  0  0  0  0  0  0  0  0
    9.9891  -16.8847   27.5727 C   0  0  0  0  0  0  0  0  0  0  0  0
   10.4991  -17.1453   28.8356 O   0  0  0  0  0  0  0  0  0  0  0  0
    9.4002  -17.8225   26.9881 O   0  0  0  0  0  0  0  0  0  0  0  0
  2  1  1  1
  3  2  1  0
  4  3  1  0
  5  4  2  0
  6  5  1  0
  7  8  1  0
  7  6  2  0
  8  9  2  0
  9  4  1  0
 10  2  1  0
 10 12  1  0
 11 10  2  0
 13 12  1  0
 13 14  1  0
 14 21  1  0
 15 14  2  0
 17 16  1  1
 17 19  1  0
 18 17  1  0
 20 19  1  1
 20 22  1  0
 21 20  1  0
 22 24  2  0
 22 23  1  0
M  END
$$$$
