FGL.pdb
     RDKit          3D

 24 24  0  0  1  0  0  0  0  0999 V2000
    7.1338  -15.7476   23.7870 N   0  0  0  0  0  0  0  0  0  0  0  0
    7.6365  -15.0232   22.6640 C   0  0  1  0  0  0  0  0  0  0  0  0
    8.0620  -13.6073   23.0405 C   0  0  0  0  0  0  0  0  0  0  0  0
    7.4228  -13.1555   24.3016 C   0  0  0  0  0  0  0  0  0  0  0  0
    8.0690  -13.0089   25.5008 C   0  0  0  0  0  0  0  0  0  0  0  0
    7.4173  -12.5818   26.6522 C   0  0  0  0  0  0  0  0  0  0  0  0
    6.0781  -12.2954   26.5903 C   0  0  0  0  0  0  0  0  0  0  0  0
    5.4142  -12.4375   25.3933 C   0  0  0  0  0  0  0  0  0  0  0  0
    6.0758  -12.8635   24.2556 C   0  0  0  0  0  0  0  0  0  0  0  0
    8.7806  -15.7242   22.0769 C   0  0  0  0  0  0  0  0  0  0  0  0
    9.4693  -15.2205   21.1537 O   0  0  0  0  0  0  0  0  0  0  0  0
    9.1887  -17.0372   22.5222 N   0  0  0  0  0  0  0  0  0  0  0  0
   10.5871  -17.3212   22.6797 C   0  0  0  0  0  0  0  0  0  0  0  0
   11.1357  -17.0788   24.0138 C   0  0  0  0  0  0  0  0  0  0  0  0
   12.4000  -17.2371   24.1730 O   0  0  0  0  0  0  0  0  0  0  0  0
    9.9659  -15.4374   29.7347 C   0  0  0  0  0  0  0  0  0  0  0  0
   10.9250  -15.1331   28.5950 C   0  0  2  0  0  0  0  0  0  0  0  0
   11.4234  -13.7354   28.7178 C   0  0  0  0  0  0  0  0  0  0  0  0
   10.3464  -15.4750   27.2744 C   0  0  0  0  0  0  0  0  0  0  0  0
   11.1316  -16.4066   26.4167 C   0  0  2  0  0  0  0  0  0  0  0  0
   10.4121  -16.6834   25.1625 N   0  0  0  0  0  0  0  0  0  0  0  0
   11.3218  -17.7245   27.0620 C   0  0  0  0  0  0  0  0  0  0  0  0
   12.4927  -18.0885   27.7096 O   0  0  0  0  0  0  0  0  0  0  0  0
   10.3962  -18.5675   27.0354 O   0  0  0  0  0  0  0  0  0  0  0  0
  2  1  1  1
  3  2  1  0
  4  3  1  0
  5  4  2  0
  6  5  1  0
  7  8  1  0
  7  6  2  0
  8  9  2  0
  9  4  1  0
 10  2  1  0
 10 12  1  0
 11 10  2  0
 13 12  1  0
 13 14  1  0
 14 21  1  0
 15 14  2  0
 17 16  1  1
 17 19  1  0
 18 17  1  0
 20 19  1  1
 20 22  1  0
 21 20  1  0
 22 24  2  0
 22 23  1  0
M  END
$$$$
