FGL.pdb
     RDKit          3D

 24 24  0  0  1  0  0  0  0  0999 V2000
    6.9806  -15.9990   23.3955 N   0  0  0  0  0  0  0  0  0  0  0  0
    7.7586  -15.3453   22.3925 C   0  0  1  0  0  0  0  0  0  0  0  0
    7.7077  -13.8265   22.5288 C   0  0  0  0  0  0  0  0  0  0  0  0
    7.4852  -13.4053   23.9346 C   0  0  0  0  0  0  0  0  0  0  0  0
    7.1455  -14.2460   24.9618 C   0  0  0  0  0  0  0  0  0  0  0  0
    6.9486  -13.7940   26.2616 C   0  0  0  0  0  0  0  0  0  0  0  0
    7.0990  -12.4582   26.5307 C   0  0  0  0  0  0  0  0  0  0  0  0
    7.4400  -11.6005   25.5100 C   0  0  0  0  0  0  0  0  0  0  0  0
    7.6328  -12.0645   24.2211 C   0  0  0  0  0  0  0  0  0  0  0  0
    9.1541  -15.7836   22.4648 C   0  0  0  0  0  0  0  0  0  0  0  0
   10.0695  -15.2025   21.8287 O   0  0  0  0  0  0  0  0  0  0  0  0
    9.5652  -16.9101   23.2714 N   0  0  0  0  0  0  0  0  0  0  0  0
   10.9560  -17.0772   23.5859 C   0  0  0  0  0  0  0  0  0  0  0  0
   11.3023  -16.9657   25.0027 C   0  0  0  0  0  0  0  0  0  0  0  0
   12.5466  -16.8651   25.3031 O   0  0  0  0  0  0  0  0  0  0  0  0
    9.9431  -13.7627   27.5396 C   0  0  0  0  0  0  0  0  0  0  0  0
    9.0812  -14.9999   27.7335 C   0  0  2  0  0  0  0  0  0  0  0  0
    7.8429  -14.6376   28.4767 C   0  0  0  0  0  0  0  0  0  0  0  0
    9.8485  -16.1276   28.3125 C   0  0  0  0  0  0  0  0  0  0  0  0
   10.9072  -16.7313   27.4552 C   0  0  2  0  0  0  0  0  0  0  0  0
   10.4001  -16.9569   26.0915 N   0  0  0  0  0  0  0  0  0  0  0  0
   11.3239  -18.0632   27.9470 C   0  0  0  0  0  0  0  0  0  0  0  0
   11.1206  -19.2326   27.2301 O   0  0  0  0  0  0  0  0  0  0  0  0
   11.8885  -18.1646   29.0601 O   0  0  0  0  0  0  0  0  0  0  0  0
  2  1  1  1
  3  2  1  0
  4  3  1  0
  5  4  2  0
  6  5  1  0
  7  8  1  0
  7  6  2  0
  8  9  2  0
  9  4  1  0
 10  2  1  0
 10 12  1  0
 11 10  2  0
 13 12  1  0
 13 14  1  0
 14 21  1  0
 15 14  2  0
 17 16  1  1
 17 19  1  0
 18 17  1  0
 20 19  1  1
 20 22  1  0
 21 20  1  0
 22 24  2  0
 22 23  1  0
M  END
$$$$
