FGL.pdb
     RDKit          3D

 24 24  0  0  1  0  0  0  0  0999 V2000
    6.1227  -17.5509   24.4751 N   0  0  0  0  0  0  0  0  0  0  0  0
    6.7378  -17.0499   23.2881 C   0  0  1  0  0  0  0  0  0  0  0  0
    6.3727  -15.5919   23.0263 C   0  0  0  0  0  0  0  0  0  0  0  0
    6.6743  -14.7285   24.1954 C   0  0  0  0  0  0  0  0  0  0  0  0
    6.0747  -14.8316   25.4230 C   0  0  0  0  0  0  0  0  0  0  0  0
    6.3976  -13.9929   26.4837 C   0  0  0  0  0  0  0  0  0  0  0  0
    7.3509  -13.0252   26.2993 C   0  0  0  0  0  0  0  0  0  0  0  0
    7.9627  -12.9085   25.0722 C   0  0  0  0  0  0  0  0  0  0  0  0
    7.6312  -13.7502   24.0256 C   0  0  0  0  0  0  0  0  0  0  0  0
    8.1946  -17.1668   23.3815 C   0  0  0  0  0  0  0  0  0  0  0  0
    8.7497  -17.9828   24.1604 O   0  0  0  0  0  0  0  0  0  0  0  0
    9.0839  -16.3525   22.5849 N   0  0  0  0  0  0  0  0  0  0  0  0
   10.5029  -16.5105   22.7349 C   0  0  0  0  0  0  0  0  0  0  0  0
   11.0121  -16.3901   24.1009 C   0  0  0  0  0  0  0  0  0  0  0  0
   12.2858  -16.3471   24.2576 O   0  0  0  0  0  0  0  0  0  0  0  0
    9.4314  -13.7497   29.4004 C   0  0  0  0  0  0  0  0  0  0  0  0
   10.5069  -14.3517   28.5103 C   0  0  2  0  0  0  0  0  0  0  0  0
   11.4891  -13.2999   28.1281 C   0  0  0  0  0  0  0  0  0  0  0  0
    9.9300  -15.1085   27.3744 C   0  0  0  0  0  0  0  0  0  0  0  0
   10.8786  -15.9031   26.5445 C   0  0  2  0  0  0  0  0  0  0  0  0
   10.2403  -16.3151   25.2834 N   0  0  0  0  0  0  0  0  0  0  0  0
   11.2790  -17.1606   27.2137 C   0  0  0  0  0  0  0  0  0  0  0  0
   12.5260  -17.3474   27.7906 O   0  0  0  0  0  0  0  0  0  0  0  0
   10.4709  -18.1153   27.2747 O   0  0  0  0  0  0  0  0  0  0  0  0
  2  1  1  1
  3  2  1  0
  4  3  1  0
  5  4  2  0
  6  5  1  0
  7  8  1  0
  7  6  2  0
  8  9  2  0
  9  4  1  0
 10  2  1  0
 10 12  1  0
 11 10  2  0
 13 12  1  0
 13 14  1  0
 14 21  1  0
 15 14  2  0
 17 16  1  6
 17 19  1  0
 18 17  1  0
 20 19  1  1
 20 22  1  0
 21 20  1  0
 22 24  2  0
 22 23  1  0
M  END
$$$$
