FGL.pdb
     RDKit          3D

 24 24  0  0  1  0  0  0  0  0999 V2000
    7.5187  -17.0929   25.2671 N   0  0  0  0  0  0  0  0  0  0  0  0
    7.2466  -17.0641   23.8658 C   0  0  1  0  0  0  0  0  0  0  0  0
    6.2762  -15.9469   23.4944 C   0  0  0  0  0  0  0  0  0  0  0  0
    6.4957  -14.7294   24.3145 C   0  0  0  0  0  0  0  0  0  0  0  0
    5.9463  -14.5050   25.5495 C   0  0  0  0  0  0  0  0  0  0  0  0
    6.1872  -13.3426   26.2731 C   0  0  0  0  0  0  0  0  0  0  0  0
    7.0043  -12.3822   25.7351 C   0  0  0  0  0  0  0  0  0  0  0  0
    7.5640  -12.5923   24.4956 C   0  0  0  0  0  0  0  0  0  0  0  0
    7.3153  -13.7540   23.7869 C   0  0  0  0  0  0  0  0  0  0  0  0
    8.4884  -16.8874   23.1098 C   0  0  0  0  0  0  0  0  0  0  0  0
    8.8169  -17.6626   22.1762 O   0  0  0  0  0  0  0  0  0  0  0  0
    9.4123  -15.8119   23.3895 N   0  0  0  0  0  0  0  0  0  0  0  0
   10.8156  -16.0995   23.4842 C   0  0  0  0  0  0  0  0  0  0  0  0
   11.3254  -16.3255   24.8364 C   0  0  0  0  0  0  0  0  0  0  0  0
   12.5996  -16.3436   24.9947 O   0  0  0  0  0  0  0  0  0  0  0  0
   11.3646  -13.4994   27.4939 C   0  0  0  0  0  0  0  0  0  0  0  0
   10.1432  -14.3420   27.8243 C   0  0  2  0  0  0  0  0  0  0  0  0
    9.2451  -13.5867   28.7408 C   0  0  0  0  0  0  0  0  0  0  0  0
   10.5128  -15.6988   28.2916 C   0  0  0  0  0  0  0  0  0  0  0  0
   11.2187  -16.5770   27.3167 C   0  0  2  0  0  0  0  0  0  0  0  0
   10.5539  -16.5289   26.0039 N   0  0  0  0  0  0  0  0  0  0  0  0
   11.1823  -17.9985   27.7260 C   0  0  0  0  0  0  0  0  0  0  0  0
   10.5306  -18.9803   26.9952 O   0  0  0  0  0  0  0  0  0  0  0  0
   11.7598  -18.3559   28.7780 O   0  0  0  0  0  0  0  0  0  0  0  0
  2  1  1  1
  3  2  1  0
  4  3  1  0
  5  4  2  0
  6  5  1  0
  7  8  1  0
  7  6  2  0
  8  9  2  0
  9  4  1  0
 10  2  1  0
 10 12  1  0
 11 10  2  0
 13 12  1  0
 13 14  1  0
 14 21  1  0
 15 14  2  0
 17 16  1  1
 17 19  1  0
 18 17  1  0
 20 19  1  1
 20 22  1  0
 21 20  1  0
 22 24  2  0
 22 23  1  0
M  END
$$$$
