FGL.pdb
     RDKit          3D

 24 24  0  0  1  0  0  0  0  0999 V2000
    7.1108  -16.9802   23.0706 N   0  0  0  0  0  0  0  0  0  0  0  0
    7.6888  -16.1376   22.0734 C   0  0  1  0  0  0  0  0  0  0  0  0
    7.0276  -14.7633   22.0324 C   0  0  0  0  0  0  0  0  0  0  0  0
    7.0451  -14.1021   23.3612 C   0  0  0  0  0  0  0  0  0  0  0  0
    6.4033  -14.5678   24.4785 C   0  0  0  0  0  0  0  0  0  0  0  0
    6.4544  -13.9044   25.6991 C   0  0  0  0  0  0  0  0  0  0  0  0
    7.1726  -12.7405   25.7934 C   0  0  0  0  0  0  0  0  0  0  0  0
    7.8232  -12.2593   24.6803 C   0  0  0  0  0  0  0  0  0  0  0  0
    7.7634  -12.9301   23.4720 C   0  0  0  0  0  0  0  0  0  0  0  0
    9.1229  -15.9691   22.3184 C   0  0  0  0  0  0  0  0  0  0  0  0
    9.7450  -14.9388   21.9552 O   0  0  0  0  0  0  0  0  0  0  0  0
    9.9111  -16.9757   22.9924 N   0  0  0  0  0  0  0  0  0  0  0  0
   11.2615  -16.6708   23.3723 C   0  0  0  0  0  0  0  0  0  0  0  0
   11.4990  -16.5330   24.8090 C   0  0  0  0  0  0  0  0  0  0  0  0
   12.7184  -16.4596   25.2044 O   0  0  0  0  0  0  0  0  0  0  0  0
   10.8450  -13.5616   28.1711 C   0  0  0  0  0  0  0  0  0  0  0  0
    9.6354  -14.4249   27.8508 C   0  0  2  0  0  0  0  0  0  0  0  0
    8.4330  -13.8799   28.5393 C   0  0  0  0  0  0  0  0  0  0  0  0
    9.8969  -15.8626   28.0970 C   0  0  0  0  0  0  0  0  0  0  0  0
   10.9227  -16.5168   27.2367 C   0  0  2  0  0  0  0  0  0  0  0  0
   10.5150  -16.4713   25.8227 N   0  0  0  0  0  0  0  0  0  0  0  0
   11.0783  -17.9529   27.5570 C   0  0  0  0  0  0  0  0  0  0  0  0
   10.6051  -18.9669   26.7379 O   0  0  0  0  0  0  0  0  0  0  0  0
   11.6612  -18.2936   28.6116 O   0  0  0  0  0  0  0  0  0  0  0  0
  2  1  1  1
  3  2  1  0
  4  3  1  0
  5  4  2  0
  6  5  1  0
  7  8  1  0
  7  6  2  0
  8  9  2  0
  9  4  1  0
 10  2  1  0
 10 12  1  0
 11 10  2  0
 13 12  1  0
 13 14  1  0
 14 21  1  0
 15 14  2  0
 17 16  1  1
 17 19  1  0
 18 17  1  0
 20 19  1  1
 20 22  1  0
 21 20  1  0
 22 24  2  0
 22 23  1  0
M  END
$$$$
