FGL.pdb
     RDKit          3D

 24 24  0  0  1  0  0  0  0  0999 V2000
    7.4129  -17.2786   27.1081 N   0  0  0  0  0  0  0  0  0  0  0  0
    6.9432  -16.6817   25.8992 C   0  0  1  0  0  0  0  0  0  0  0  0
    7.8739  -15.5774   25.4073 C   0  0  0  0  0  0  0  0  0  0  0  0
    7.4373  -14.2380   25.8750 C   0  0  0  0  0  0  0  0  0  0  0  0
    6.1337  -13.8520   26.0446 C   0  0  0  0  0  0  0  0  0  0  0  0
    5.7834  -12.5811   26.4858 C   0  0  0  0  0  0  0  0  0  0  0  0
    6.7758  -11.6768   26.7628 C   0  0  0  0  0  0  0  0  0  0  0  0
    8.0904  -12.0488   26.5976 C   0  0  0  0  0  0  0  0  0  0  0  0
    8.4241  -13.3172   26.1578 C   0  0  0  0  0  0  0  0  0  0  0  0
    6.8095  -17.6946   24.8499 C   0  0  0  0  0  0  0  0  0  0  0  0
    7.4888  -18.7524   24.8537 O   0  0  0  0  0  0  0  0  0  0  0  0
    5.8893  -17.5414   23.7461 N   0  0  0  0  0  0  0  0  0  0  0  0
    6.2327  -18.0910   22.4651 C   0  0  0  0  0  0  0  0  0  0  0  0
    7.3411  -17.4353   21.7717 C   0  0  0  0  0  0  0  0  0  0  0  0
    7.6522  -17.8717   20.6048 O   0  0  0  0  0  0  0  0  0  0  0  0
    7.4402  -14.2812   19.4301 C   0  0  0  0  0  0  0  0  0  0  0  0
    7.7721  -13.8091   20.8366 C   0  0  2  0  0  0  0  0  0  0  0  0
    7.6243  -12.3298   20.9177 C   0  0  0  0  0  0  0  0  0  0  0  0
    9.0767  -14.3322   21.3059 C   0  0  0  0  0  0  0  0  0  0  0  0
    9.2043  -15.8118   21.4265 C   0  0  2  0  0  0  0  0  0  0  0  0
    8.1173  -16.3572   22.2564 N   0  0  0  0  0  0  0  0  0  0  0  0
   10.4572  -16.2049   22.1085 C   0  0  0  0  0  0  0  0  0  0  0  0
   10.4818  -16.8237   23.3492 O   0  0  0  0  0  0  0  0  0  0  0  0
   11.5596  -15.9785   21.5593 O   0  0  0  0  0  0  0  0  0  0  0  0
  2  1  1  1
  3  2  1  0
  4  3  1  0
  5  4  2  0
  6  5  1  0
  7  8  1  0
  7  6  2  0
  8  9  2  0
  9  4  1  0
 10  2  1  0
 10 12  1  0
 11 10  2  0
 13 12  1  0
 13 14  1  0
 14 21  1  0
 15 14  2  0
 17 16  1  6
 17 19  1  0
 18 17  1  0
 20 19  1  1
 20 22  1  0
 21 20  1  0
 22 24  2  0
 22 23  1  0
M  END
$$$$
