FGL.pdb
     RDKit          3D

 24 24  0  0  1  0  0  0  0  0999 V2000
    9.3163  -18.7231   26.9355 N   0  0  0  0  0  0  0  0  0  0  0  0
    7.9445  -18.7016   27.3308 C   0  0  1  0  0  0  0  0  0  0  0  0
    7.6806  -17.6714   28.4248 C   0  0  0  0  0  0  0  0  0  0  0  0
    8.8039  -16.7107   28.5612 C   0  0  0  0  0  0  0  0  0  0  0  0
   10.1053  -17.0553   28.8155 C   0  0  0  0  0  0  0  0  0  0  0  0
   11.1178  -16.1100   28.9340 C   0  0  0  0  0  0  0  0  0  0  0  0
   10.8074  -14.7823   28.7919 C   0  0  0  0  0  0  0  0  0  0  0  0
    9.5048  -14.4195   28.5362 C   0  0  0  0  0  0  0  0  0  0  0  0
    8.5075  -15.3712   28.4208 C   0  0  0  0  0  0  0  0  0  0  0  0
    7.0880  -18.4050   26.1805 C   0  0  0  0  0  0  0  0  0  0  0  0
    5.9492  -17.8890   26.3123 O   0  0  0  0  0  0  0  0  0  0  0  0
    7.4983  -18.6865   24.8237 N   0  0  0  0  0  0  0  0  0  0  0  0
    6.7746  -18.0936   23.7347 C   0  0  0  0  0  0  0  0  0  0  0  0
    7.1574  -16.7242   23.3916 C   0  0  0  0  0  0  0  0  0  0  0  0
    6.8627  -16.3030   22.2149 O   0  0  0  0  0  0  0  0  0  0  0  0
    5.8116  -13.2695   24.9193 C   0  0  0  0  0  0  0  0  0  0  0  0
    7.1598  -13.5032   25.5817 C   0  0  2  0  0  0  0  0  0  0  0  0
    7.3035  -12.6034   26.7593 C   0  0  0  0  0  0  0  0  0  0  0  0
    8.2761  -13.4404   24.6091 C   0  0  0  0  0  0  0  0  0  0  0  0
    8.3980  -14.5749   23.6508 C   0  0  2  0  0  0  0  0  0  0  0  0
    7.8267  -15.8023   24.2292 N   0  0  0  0  0  0  0  0  0  0  0  0
    9.8111  -14.8986   23.3543 C   0  0  0  0  0  0  0  0  0  0  0  0
   10.4094  -16.0916   23.7303 O   0  0  0  0  0  0  0  0  0  0  0  0
   10.5201  -14.0721   22.7360 O   0  0  0  0  0  0  0  0  0  0  0  0
  2  1  1  6
  3  2  1  0
  4  3  1  0
  5  4  2  0
  6  5  1  0
  7  8  1  0
  7  6  2  0
  8  9  2  0
  9  4  1  0
 10  2  1  0
 10 12  1  0
 11 10  2  0
 13 12  1  0
 13 14  1  0
 14 21  1  0
 15 14  2  0
 17 16  1  6
 17 19  1  0
 18 17  1  0
 20 19  1  1
 20 22  1  0
 21 20  1  0
 22 24  2  0
 22 23  1  0
M  END
$$$$
