FGL.pdb
     RDKit          3D

 24 24  0  0  1  0  0  0  0  0999 V2000
    6.4890  -16.5811   21.7658 N   0  0  0  0  0  0  0  0  0  0  0  0
    7.8357  -16.2098   22.0608 C   0  0  1  0  0  0  0  0  0  0  0  0
    7.9982  -14.6978   22.1842 C   0  0  0  0  0  0  0  0  0  0  0  0
    7.7995  -14.0129   20.8824 C   0  0  0  0  0  0  0  0  0  0  0  0
    8.5651  -14.2146   19.7642 C   0  0  0  0  0  0  0  0  0  0  0  0
    8.3324  -13.5426   18.5697 C   0  0  0  0  0  0  0  0  0  0  0  0
    7.2995  -12.6437   18.5031 C   0  0  0  0  0  0  0  0  0  0  0  0
    6.5210  -12.4296   19.6175 C   0  0  0  0  0  0  0  0  0  0  0  0
    6.7643  -13.1056   20.7997 C   0  0  0  0  0  0  0  0  0  0  0  0
    8.2758  -16.8395   23.3077 C   0  0  0  0  0  0  0  0  0  0  0  0
    9.4781  -16.8241   23.6746 O   0  0  0  0  0  0  0  0  0  0  0  0
    7.3560  -17.5169   24.1931 N   0  0  0  0  0  0  0  0  0  0  0  0
    7.8733  -18.2559   25.3099 C   0  0  0  0  0  0  0  0  0  0  0  0
    9.1301  -17.7593   25.8698 C   0  0  0  0  0  0  0  0  0  0  0  0
   10.1535  -17.7282   25.0948 O   0  0  0  0  0  0  0  0  0  0  0  0
    9.2070  -14.2811   26.6892 C   0  0  0  0  0  0  0  0  0  0  0  0
    9.7966  -14.7391   28.0136 C   0  0  2  0  0  0  0  0  0  0  0  0
   10.0261  -13.5614   28.8952 C   0  0  0  0  0  0  0  0  0  0  0  0
   10.9764  -15.6155   27.8241 C   0  0  0  0  0  0  0  0  0  0  0  0
   10.7135  -17.0743   27.6725 C   0  0  2  0  0  0  0  0  0  0  0  0
    9.3410  -17.3037   27.1917 N   0  0  0  0  0  0  0  0  0  0  0  0
   10.8040  -17.7895   28.9647 C   0  0  0  0  0  0  0  0  0  0  0  0
    9.7372  -18.4732   29.5280 O   0  0  0  0  0  0  0  0  0  0  0  0
   11.8843  -17.7917   29.5980 O   0  0  0  0  0  0  0  0  0  0  0  0
  2  1  1  1
  3  2  1  0
  4  3  1  0
  5  4  2  0
  6  5  1  0
  7  8  1  0
  7  6  2  0
  8  9  2  0
  9  4  1  0
 10  2  1  0
 10 12  1  0
 11 10  2  0
 13 12  1  0
 13 14  1  0
 14 21  1  0
 15 14  2  0
 17 16  1  6
 17 19  1  0
 18 17  1  0
 20 19  1  1
 20 22  1  0
 21 20  1  0
 22 24  2  0
 22 23  1  0
M  END
$$$$
