FGL.pdb
     RDKit          3D

 24 24  0  0  1  0  0  0  0  0999 V2000
    9.2490  -14.7491   24.9228 N   0  0  0  0  0  0  0  0  0  0  0  0
    8.1361  -15.5381   24.5016 C   0  0  1  0  0  0  0  0  0  0  0  0
    7.0180  -14.6823   23.9140 C   0  0  0  0  0  0  0  0  0  0  0  0
    6.8015  -13.4414   24.6991 C   0  0  0  0  0  0  0  0  0  0  0  0
    7.0523  -12.1725   24.2472 C   0  0  0  0  0  0  0  0  0  0  0  0
    6.8306  -11.0446   25.0292 C   0  0  0  0  0  0  0  0  0  0  0  0
    6.3429  -11.2028   26.3006 C   0  0  0  0  0  0  0  0  0  0  0  0
    6.0857  -12.4708   26.7697 C   0  0  0  0  0  0  0  0  0  0  0  0
    6.3112  -13.5841   25.9801 C   0  0  0  0  0  0  0  0  0  0  0  0
    8.5586  -16.5216   23.5021 C   0  0  0  0  0  0  0  0  0  0  0  0
    7.9528  -17.6113   23.3410 O   0  0  0  0  0  0  0  0  0  0  0  0
    9.6970  -16.3007   22.6396 N   0  0  0  0  0  0  0  0  0  0  0  0
   10.9100  -17.0305   22.8784 C   0  0  0  0  0  0  0  0  0  0  0  0
   11.5142  -16.8398   24.1967 C   0  0  0  0  0  0  0  0  0  0  0  0
   12.4326  -15.9489   24.3051 O   0  0  0  0  0  0  0  0  0  0  0  0
   10.2177  -16.3500   29.5140 C   0  0  0  0  0  0  0  0  0  0  0  0
   10.1372  -15.3935   28.3351 C   0  0  2  0  0  0  0  0  0  0  0  0
    9.0078  -14.4440   28.5349 C   0  0  0  0  0  0  0  0  0  0  0  0
   10.1282  -16.1090   27.0375 C   0  0  0  0  0  0  0  0  0  0  0  0
   11.3532  -16.8811   26.6864 C   0  0  2  0  0  0  0  0  0  0  0  0
   11.1901  -17.5416   25.3808 N   0  0  0  0  0  0  0  0  0  0  0  0
   11.6143  -17.9722   27.6511 C   0  0  0  0  0  0  0  0  0  0  0  0
   11.1143  -19.2562   27.4954 O   0  0  0  0  0  0  0  0  0  0  0  0
   12.3169  -17.7500   28.6636 O   0  0  0  0  0  0  0  0  0  0  0  0
  2  1  1  6
  3  2  1  0
  4  3  1  0
  5  4  2  0
  6  5  1  0
  7  8  1  0
  7  6  2  0
  8  9  2  0
  9  4  1  0
 10  2  1  0
 10 12  1  0
 11 10  2  0
 13 12  1  0
 13 14  1  0
 14 21  1  0
 15 14  2  0
 17 16  1  1
 17 19  1  0
 18 17  1  0
 20 19  1  1
 20 22  1  0
 21 20  1  0
 22 24  2  0
 22 23  1  0
M  END
$$$$
