FGL.pdb
     RDKit          3D

 24 24  0  0  1  0  0  0  0  0999 V2000
    6.7563  -15.9372   24.9246 N   0  0  0  0  0  0  0  0  0  0  0  0
    7.6783  -15.6537   23.8720 C   0  0  1  0  0  0  0  0  0  0  0  0
    7.8854  -14.1542   23.6815 C   0  0  0  0  0  0  0  0  0  0  0  0
    7.0380  -13.3580   24.6041 C   0  0  0  0  0  0  0  0  0  0  0  0
    6.7782  -13.6833   25.9094 C   0  0  0  0  0  0  0  0  0  0  0  0
    5.9745  -12.8981   26.7281 C   0  0  0  0  0  0  0  0  0  0  0  0
    5.4189  -11.7548   26.2147 C   0  0  0  0  0  0  0  0  0  0  0  0
    5.6701  -11.4139   24.9054 C   0  0  0  0  0  0  0  0  0  0  0  0
    6.4720  -12.2049   24.1023 C   0  0  0  0  0  0  0  0  0  0  0  0
    8.9724  -16.2824   24.1459 C   0  0  0  0  0  0  0  0  0  0  0  0
    9.7953  -15.7884   24.9579 O   0  0  0  0  0  0  0  0  0  0  0  0
    9.3833  -17.5085   23.5007 N   0  0  0  0  0  0  0  0  0  0  0  0
   10.7814  -17.8248   23.4211 C   0  0  0  0  0  0  0  0  0  0  0  0
   11.5209  -17.7452   24.6806 C   0  0  0  0  0  0  0  0  0  0  0  0
   12.7676  -18.0518   24.6570 O   0  0  0  0  0  0  0  0  0  0  0  0
   10.0503  -14.1908   27.8833 C   0  0  0  0  0  0  0  0  0  0  0  0
   10.6316  -15.4978   28.3980 C   0  0  2  0  0  0  0  0  0  0  0  0
   10.7718  -15.4363   29.8791 C   0  0  0  0  0  0  0  0  0  0  0  0
   11.8635  -15.8838   27.6705 C   0  0  0  0  0  0  0  0  0  0  0  0
   11.9038  -17.2587   27.0978 C   0  0  2  0  0  0  0  0  0  0  0  0
   11.0018  -17.3612   25.9387 N   0  0  0  0  0  0  0  0  0  0  0  0
   11.4245  -18.2734   28.0621 C   0  0  0  0  0  0  0  0  0  0  0  0
   10.2565  -18.9983   27.8805 O   0  0  0  0  0  0  0  0  0  0  0  0
   12.0878  -18.5062   29.0985 O   0  0  0  0  0  0  0  0  0  0  0  0
  2  1  1  1
  3  2  1  0
  4  3  1  0
  5  4  2  0
  6  5  1  0
  7  8  1  0
  7  6  2  0
  8  9  2  0
  9  4  1  0
 10  2  1  0
 10 12  1  0
 11 10  2  0
 13 12  1  0
 13 14  1  0
 14 21  1  0
 15 14  2  0
 17 16  1  6
 17 19  1  0
 18 17  1  0
 20 19  1  1
 20 22  1  0
 21 20  1  0
 22 24  2  0
 22 23  1  0
M  END
$$$$
