FGL.pdb
     RDKit          3D

 24 24  0  0  1  0  0  0  0  0999 V2000
    6.9269  -16.5199   23.3135 N   0  0  0  0  0  0  0  0  0  0  0  0
    7.1916  -16.9981   21.9945 C   0  0  1  0  0  0  0  0  0  0  0  0
    6.4236  -16.2118   20.9363 C   0  0  0  0  0  0  0  0  0  0  0  0
    6.9219  -14.8191   20.8132 C   0  0  0  0  0  0  0  0  0  0  0  0
    6.6280  -13.8004   21.6810 C   0  0  0  0  0  0  0  0  0  0  0  0
    7.1240  -12.5124   21.5147 C   0  0  0  0  0  0  0  0  0  0  0  0
    7.9379  -12.2467   20.4440 C   0  0  0  0  0  0  0  0  0  0  0  0
    8.2428  -13.2590   19.5631 C   0  0  0  0  0  0  0  0  0  0  0  0
    7.7419  -14.5361   19.7411 C   0  0  0  0  0  0  0  0  0  0  0  0
    8.6243  -16.9170   21.7018 C   0  0  0  0  0  0  0  0  0  0  0  0
    9.1890  -17.7124   20.9088 O   0  0  0  0  0  0  0  0  0  0  0  0
    9.4770  -15.9186   22.3055 N   0  0  0  0  0  0  0  0  0  0  0  0
   10.5854  -16.3395   23.1151 C   0  0  0  0  0  0  0  0  0  0  0  0
   10.5659  -15.8791   24.5033 C   0  0  0  0  0  0  0  0  0  0  0  0
   11.6948  -15.6257   25.0602 O   0  0  0  0  0  0  0  0  0  0  0  0
    8.7329  -12.1593   26.1575 C   0  0  0  0  0  0  0  0  0  0  0  0
    7.8085  -13.3657   26.1909 C   0  0  2  0  0  0  0  0  0  0  0  0
    6.4154  -12.9233   26.4748 C   0  0  0  0  0  0  0  0  0  0  0  0
    8.3181  -14.4328   27.0839 C   0  0  0  0  0  0  0  0  0  0  0  0
    9.5701  -15.1219   26.6623 C   0  0  2  0  0  0  0  0  0  0  0  0
    9.4205  -15.6806   25.3084 N   0  0  0  0  0  0  0  0  0  0  0  0
    9.8860  -16.2758   27.5330 C   0  0  0  0  0  0  0  0  0  0  0  0
   10.5776  -16.1551   28.7288 O   0  0  0  0  0  0  0  0  0  0  0  0
    9.5221  -17.4255   27.1954 O   0  0  0  0  0  0  0  0  0  0  0  0
  2  1  1  1
  3  2  1  0
  4  3  1  0
  5  4  2  0
  6  5  1  0
  7  8  1  0
  7  6  2  0
  8  9  2  0
  9  4  1  0
 10  2  1  0
 10 12  1  0
 11 10  2  0
 13 12  1  0
 13 14  1  0
 14 21  1  0
 15 14  2  0
 17 16  1  1
 17 19  1  0
 18 17  1  0
 20 19  1  1
 20 22  1  0
 21 20  1  0
 22 24  2  0
 22 23  1  0
M  END
$$$$
