ISL.pdb
     RDKit          3D

 23 22  0  0  1  0  0  0  0  0999 V2000
    7.5999  -11.7635   19.6319 C   0  0  0  0  0  0  0  0  0  0  0  0
    7.6954  -13.2584   19.3647 C   0  0  0  0  0  0  0  0  0  0  0  0
    7.9011  -14.0346   20.6324 C   0  0  2  0  0  0  0  0  0  0  0  0
    9.1083  -13.5149   21.3852 C   0  0  0  0  0  0  0  0  0  0  0  0
    7.9639  -15.5154   20.4103 C   0  0  2  0  0  0  0  0  0  0  0  0
    6.7687  -15.9496   19.7111 N   0  0  0  0  0  0  0  0  0  0  0  0
    8.1406  -16.2816   21.6832 C   0  0  0  0  0  0  0  0  0  0  0  0
    7.2455  -16.3506   22.5620 O   0  0  0  0  0  0  0  0  0  0  0  0
   11.6863  -18.3054   22.5038 O   0  0  0  0  0  0  0  0  0  0  0  0
   10.4911  -18.7834   23.0081 C   0  0  0  0  0  0  0  0  0  0  0  0
    9.5581  -17.6172   23.2538 C   0  0  2  0  0  0  0  0  0  0  0  0
    9.3463  -16.9821   21.9697 N   0  0  0  0  0  0  0  0  0  0  0  0
   10.1027  -16.6423   24.1944 C   0  0  0  0  0  0  0  0  0  0  0  0
   10.7953  -15.6968   23.7548 O   0  0  0  0  0  0  0  0  0  0  0  0
    9.9695  -14.3341   29.1314 C   0  0  0  0  0  0  0  0  0  0  0  0
    9.6664  -13.6944   27.7618 C   0  0  2  0  0  0  0  0  0  0  0  0
    8.4327  -12.8336   28.0180 C   0  0  0  0  0  0  0  0  0  0  0  0
    9.3426  -14.8130   26.8447 C   0  0  0  0  0  0  0  0  0  0  0  0
   10.4270  -15.7582   26.4964 C   0  0  2  0  0  0  0  0  0  0  0  0
    9.8632  -16.7494   25.5690 N   0  0  0  0  0  0  0  0  0  0  0  0
   11.0670  -16.4805   27.5938 C   0  0  0  0  0  0  0  0  0  0  0  0
   12.1710  -16.1190   28.0451 O   0  0  0  0  0  0  0  0  0  0  0  0
   10.4553  -17.5844   28.1549 O   0  0  0  0  0  0  0  0  0  0  0  0
  2  1  1  0
  3  2  1  0
  3  4  1  6
  5  3  1  0
  5  6  1  1
  7  5  1  0
  7  8  2  0
  9 10  1  0
 11 10  1  6
 12 11  1  0
 12  7  1  0
 13 14  2  0
 13 11  1  0
 16 17  1  1
 16 15  1  0
 18 16  1  0
 19 20  1  0
 19 18  1  1
 20 13  1  0
 21 19  1  0
 22 21  2  0
 23 21  1  0
M  END
$$$$
