ISL.pdb
     RDKit          3D

 23 22  0  0  1  0  0  0  0  0999 V2000
    7.9759  -11.7861   18.5611 C   0  0  0  0  0  0  0  0  0  0  0  0
    8.3842  -13.2518   18.5504 C   0  0  0  0  0  0  0  0  0  0  0  0
    8.0400  -13.9311   19.8434 C   0  0  2  0  0  0  0  0  0  0  0  0
    8.6343  -13.1779   21.0155 C   0  0  0  0  0  0  0  0  0  0  0  0
    8.4046  -15.3846   19.8581 C   0  0  2  0  0  0  0  0  0  0  0  0
    7.7301  -16.0624   18.7666 N   0  0  0  0  0  0  0  0  0  0  0  0
    8.0920  -16.0436   21.1645 C   0  0  0  0  0  0  0  0  0  0  0  0
    6.9157  -16.2424   21.5584 O   0  0  0  0  0  0  0  0  0  0  0  0
   10.8942  -18.1219   23.1528 O   0  0  0  0  0  0  0  0  0  0  0  0
    9.5638  -18.3354   23.4622 C   0  0  0  0  0  0  0  0  0  0  0  0
    8.8149  -17.0249   23.3495 C   0  0  2  0  0  0  0  0  0  0  0  0
    9.1227  -16.4864   22.0410 N   0  0  0  0  0  0  0  0  0  0  0  0
    9.2006  -16.0601   24.3753 C   0  0  0  0  0  0  0  0  0  0  0  0
   10.2561  -15.4043   24.2247 O   0  0  0  0  0  0  0  0  0  0  0  0
    8.1093  -12.0970   25.8463 C   0  0  0  0  0  0  0  0  0  0  0  0
    7.0794  -13.2251   26.0555 C   0  0  2  0  0  0  0  0  0  0  0  0
    5.8774  -12.5208   26.6783 C   0  0  0  0  0  0  0  0  0  0  0  0
    7.6902  -14.1699   27.0207 C   0  0  0  0  0  0  0  0  0  0  0  0
    8.8669  -14.9494   26.5755 C   0  0  2  0  0  0  0  0  0  0  0  0
    8.4133  -15.8603   25.5148 N   0  0  0  0  0  0  0  0  0  0  0  0
    9.5671  -15.7435   27.5827 C   0  0  0  0  0  0  0  0  0  0  0  0
   10.2771  -15.2005   28.4512 O   0  0  0  0  0  0  0  0  0  0  0  0
    9.4535  -17.1200   27.5907 O   0  0  0  0  0  0  0  0  0  0  0  0
  2  1  1  0
  3  2  1  0
  3  4  1  1
  5  3  1  0
  5  6  1  6
  7  5  1  0
  7  8  2  0
  9 10  1  0
 11 10  1  1
 12 11  1  0
 12  7  1  0
 13 14  2  0
 13 11  1  0
 16 17  1  1
 16 15  1  0
 18 16  1  0
 19 20  1  0
 19 18  1  1
 20 13  1  0
 21 19  1  0
 22 21  2  0
 23 21  1  0
M  END
$$$$
