ISL.pdb
     RDKit          3D

 23 22  0  0  1  0  0  0  0  0999 V2000
    7.5106  -12.1117   18.7711 C   0  0  0  0  0  0  0  0  0  0  0  0
    7.9114  -13.5729   18.9106 C   0  0  0  0  0  0  0  0  0  0  0  0
    7.7206  -14.0670   20.3146 C   0  0  2  0  0  0  0  0  0  0  0  0
    8.4688  -13.1877   21.2950 C   0  0  0  0  0  0  0  0  0  0  0  0
    8.0606  -15.5174   20.4777 C   0  0  2  0  0  0  0  0  0  0  0  0
    7.2657  -16.3062   19.5550 N   0  0  0  0  0  0  0  0  0  0  0  0
    7.8740  -15.9982   21.8823 C   0  0  0  0  0  0  0  0  0  0  0  0
    6.7448  -16.0734   22.4280 O   0  0  0  0  0  0  0  0  0  0  0  0
   10.8826  -17.8730   23.8456 O   0  0  0  0  0  0  0  0  0  0  0  0
    9.5788  -18.0722   24.2600 C   0  0  0  0  0  0  0  0  0  0  0  0
    8.7990  -16.7892   24.0683 C   0  0  2  0  0  0  0  0  0  0  0  0
    8.9786  -16.4015   22.6846 N   0  0  0  0  0  0  0  0  0  0  0  0
    9.2573  -15.7104   24.9389 C   0  0  0  0  0  0  0  0  0  0  0  0
   10.2910  -15.0772   24.6271 O   0  0  0  0  0  0  0  0  0  0  0  0
    8.1631  -12.0089   25.4438 C   0  0  0  0  0  0  0  0  0  0  0  0
    7.2344  -12.9097   26.2824 C   0  0  2  0  0  0  0  0  0  0  0  0
    6.1707  -11.9539   26.8150 C   0  0  0  0  0  0  0  0  0  0  0  0
    8.0628  -13.4409   27.3908 C   0  0  0  0  0  0  0  0  0  0  0  0
    9.1317  -14.4077   27.0538 C   0  0  2  0  0  0  0  0  0  0  0  0
    8.5626  -15.3775   26.1072 N   0  0  0  0  0  0  0  0  0  0  0  0
    9.7346  -15.1540   28.1560 C   0  0  0  0  0  0  0  0  0  0  0  0
   10.3827  -14.5733   29.0482 O   0  0  0  0  0  0  0  0  0  0  0  0
    9.5957  -16.5262   28.2298 O   0  0  0  0  0  0  0  0  0  0  0  0
  2  1  1  0
  3  2  1  0
  3  4  1  1
  5  3  1  0
  5  6  1  6
  7  5  1  0
  7  8  2  0
  9 10  1  0
 11 10  1  1
 12 11  1  0
 12  7  1  0
 13 14  2  0
 13 11  1  0
 16 17  1  1
 16 15  1  0
 18 16  1  0
 19 20  1  0
 19 18  1  1
 20 13  1  0
 21 19  1  0
 22 21  2  0
 23 21  1  0
M  END
$$$$
