ISL.pdb
     RDKit          3D

 23 22  0  0  1  0  0  0  0  0999 V2000
    7.8936  -12.0278   19.5292 C   0  0  0  0  0  0  0  0  0  0  0  0
    7.5511  -13.5028   19.6784 C   0  0  0  0  0  0  0  0  0  0  0  0
    8.7551  -14.3738   19.4697 C   0  0  2  0  0  0  0  0  0  0  0  0
    9.4024  -14.0764   18.1330 C   0  0  0  0  0  0  0  0  0  0  0  0
    8.4620  -15.8327   19.6473 C   0  0  2  0  0  0  0  0  0  0  0  0
    7.5497  -16.2717   18.6079 N   0  0  0  0  0  0  0  0  0  0  0  0
    7.9123  -16.1488   21.0026 C   0  0  0  0  0  0  0  0  0  0  0  0
    6.6795  -16.2195   21.2338 O   0  0  0  0  0  0  0  0  0  0  0  0
    9.9042  -18.3245   23.6545 O   0  0  0  0  0  0  0  0  0  0  0  0
    8.5354  -18.1369   23.7051 C   0  0  0  0  0  0  0  0  0  0  0  0
    8.2265  -16.6815   23.4269 C   0  0  2  0  0  0  0  0  0  0  0  0
    8.7668  -16.3897   22.1154 N   0  0  0  0  0  0  0  0  0  0  0  0
    8.8184  -15.7774   24.4088 C   0  0  0  0  0  0  0  0  0  0  0  0
    9.9807  -15.3531   24.2191 O   0  0  0  0  0  0  0  0  0  0  0  0
    7.6433  -11.8421   25.6016 C   0  0  0  0  0  0  0  0  0  0  0  0
    6.7929  -12.9524   26.2503 C   0  0  2  0  0  0  0  0  0  0  0  0
    5.7305  -12.1937   27.0404 C   0  0  0  0  0  0  0  0  0  0  0  0
    7.6991  -13.6878   27.1642 C   0  0  0  0  0  0  0  0  0  0  0  0
    8.7543  -14.5320   26.5607 C   0  0  2  0  0  0  0  0  0  0  0  0
    8.1103  -15.3820   25.5491 N   0  0  0  0  0  0  0  0  0  0  0  0
    9.5170  -15.3978   27.4575 C   0  0  0  0  0  0  0  0  0  0  0  0
    9.3071  -16.6255   27.4997 O   0  0  0  0  0  0  0  0  0  0  0  0
   10.4917  -14.8674   28.2799 O   0  0  0  0  0  0  0  0  0  0  0  0
  2  1  1  0
  3  2  1  0
  3  4  1  6
  5  3  1  0
  5  6  1  6
  7  5  1  0
  7  8  2  0
  9 10  1  0
 11 10  1  1
 12 11  1  0
 12  7  1  0
 13 14  2  0
 13 11  1  0
 16 17  1  1
 16 15  1  0
 18 16  1  0
 19 20  1  0
 19 18  1  1
 20 13  1  0
 21 19  1  0
 22 21  2  0
 23 21  1  0
M  END
$$$$
