ISL.pdb
     RDKit          3D

 23 22  0  0  1  0  0  0  0  0999 V2000
    7.8315  -11.7790   19.4909 C   0  0  0  0  0  0  0  0  0  0  0  0
    7.8151  -13.2988   19.4186 C   0  0  0  0  0  0  0  0  0  0  0  0
    9.1986  -13.8718   19.5157 C   0  0  2  0  0  0  0  0  0  0  0  0
   10.0978  -13.2761   18.4524 C   0  0  0  0  0  0  0  0  0  0  0  0
    9.2156  -15.3703   19.5003 C   0  0  2  0  0  0  0  0  0  0  0  0
    8.6265  -15.8469   18.2628 N   0  0  0  0  0  0  0  0  0  0  0  0
    8.5186  -15.9663   20.6825 C   0  0  0  0  0  0  0  0  0  0  0  0
    7.3049  -16.2902   20.6609 O   0  0  0  0  0  0  0  0  0  0  0  0
   10.0868  -18.2830   23.5110 O   0  0  0  0  0  0  0  0  0  0  0  0
    8.7384  -18.0816   23.2820 C   0  0  0  0  0  0  0  0  0  0  0  0
    8.4845  -16.6003   23.1026 C   0  0  2  0  0  0  0  0  0  0  0  0
    9.2015  -16.2016   21.9093 N   0  0  0  0  0  0  0  0  0  0  0  0
    8.9458  -15.8035   24.2359 C   0  0  0  0  0  0  0  0  0  0  0  0
   10.1459  -15.4505   24.2805 O   0  0  0  0  0  0  0  0  0  0  0  0
    8.0142  -11.8354   25.8017 C   0  0  0  0  0  0  0  0  0  0  0  0
    6.9181  -12.8901   26.0525 C   0  0  2  0  0  0  0  0  0  0  0  0
    5.8012  -12.1098   26.7397 C   0  0  0  0  0  0  0  0  0  0  0  0
    7.5064  -13.8869   26.9786 C   0  0  0  0  0  0  0  0  0  0  0  0
    8.5875  -14.7564   26.4633 C   0  0  2  0  0  0  0  0  0  0  0  0
    8.0721  -15.4323   25.2640 N   0  0  0  0  0  0  0  0  0  0  0  0
    9.1153  -15.7782   27.3648 C   0  0  0  0  0  0  0  0  0  0  0  0
    9.8172  -15.4694   28.3472 O   0  0  0  0  0  0  0  0  0  0  0  0
    8.8435  -17.1141   27.1431 O   0  0  0  0  0  0  0  0  0  0  0  0
  2  1  1  0
  3  2  1  0
  3  4  1  6
  5  3  1  0
  5  6  1  6
  7  5  1  0
  7  8  2  0
  9 10  1  0
 11 10  1  1
 12 11  1  0
 12  7  1  0
 13 14  2  0
 13 11  1  0
 16 17  1  1
 16 15  1  0
 18 16  1  0
 19 20  1  0
 19 18  1  1
 20 13  1  0
 21 19  1  0
 22 21  2  0
 23 21  1  0
M  END
$$$$
