ISL.pdb
     RDKit          3D

 23 22  0  0  1  0  0  0  0  0999 V2000
    7.6302  -11.7513   19.7572 C   0  0  0  0  0  0  0  0  0  0  0  0
    7.8484  -13.2143   19.4005 C   0  0  0  0  0  0  0  0  0  0  0  0
    7.9792  -14.0689   20.6270 C   0  0  2  0  0  0  0  0  0  0  0  0
    9.0100  -13.4886   21.5730 C   0  0  0  0  0  0  0  0  0  0  0  0
    8.2436  -15.5101   20.3127 C   0  0  2  0  0  0  0  0  0  0  0  0
    7.2159  -16.0049   19.4158 N   0  0  0  0  0  0  0  0  0  0  0  0
    8.3294  -16.3609   21.5406 C   0  0  0  0  0  0  0  0  0  0  0  0
    7.3345  -16.6002   22.2695 O   0  0  0  0  0  0  0  0  0  0  0  0
   10.7045  -19.6312   24.0538 O   0  0  0  0  0  0  0  0  0  0  0  0
   10.5641  -18.8808   22.9012 C   0  0  0  0  0  0  0  0  0  0  0  0
    9.6489  -17.7090   23.1842 C   0  0  2  0  0  0  0  0  0  0  0  0
    9.5569  -16.9522   21.9530 N   0  0  0  0  0  0  0  0  0  0  0  0
   10.1462  -16.8443   24.2504 C   0  0  0  0  0  0  0  0  0  0  0  0
   10.9792  -15.9531   23.9695 O   0  0  0  0  0  0  0  0  0  0  0  0
    8.4362  -13.7927   28.8641 C   0  0  0  0  0  0  0  0  0  0  0  0
    9.7098  -14.5427   28.4255 C   0  0  2  0  0  0  0  0  0  0  0  0
   10.6756  -13.4319   28.0228 C   0  0  0  0  0  0  0  0  0  0  0  0
    9.3267  -15.3557   27.2468 C   0  0  0  0  0  0  0  0  0  0  0  0
   10.3533  -16.2423   26.6547 C   0  0  2  0  0  0  0  0  0  0  0  0
    9.7082  -16.9968   25.5706 N   0  0  0  0  0  0  0  0  0  0  0  0
   11.0073  -17.2003   27.5434 C   0  0  0  0  0  0  0  0  0  0  0  0
   12.1927  -17.0460   27.8958 O   0  0  0  0  0  0  0  0  0  0  0  0
   10.3185  -18.3016   28.0127 O   0  0  0  0  0  0  0  0  0  0  0  0
  2  1  1  0
  3  2  1  0
  3  4  1  1
  5  3  1  0
  5  6  1  6
  7  5  1  0
  7  8  2  0
  9 10  1  0
 11 10  1  6
 12 11  1  0
 12  7  1  0
 13 14  2  0
 13 11  1  0
 16 17  1  6
 16 15  1  0
 18 16  1  0
 19 20  1  0
 19 18  1  1
 20 13  1  0
 21 19  1  0
 22 21  2  0
 23 21  1  0
M  END
$$$$
