ISL.pdb
     RDKit          3D

 23 22  0  0  1  0  0  0  0  0999 V2000
    5.5576  -11.7822   26.1133 C   0  0  0  0  0  0  0  0  0  0  0  0
    5.4210  -13.0208   25.2401 C   0  0  0  0  0  0  0  0  0  0  0  0
    6.6982  -13.8070   25.1921 C   0  0  2  0  0  0  0  0  0  0  0  0
    7.8146  -12.9737   24.5976 C   0  0  0  0  0  0  0  0  0  0  0  0
    6.5477  -15.1297   24.5037 C   0  0  2  0  0  0  0  0  0  0  0  0
    5.3470  -15.7890   24.9824 N   0  0  0  0  0  0  0  0  0  0  0  0
    7.7432  -16.0114   24.6827 C   0  0  0  0  0  0  0  0  0  0  0  0
    7.8744  -16.7833   25.6651 O   0  0  0  0  0  0  0  0  0  0  0  0
   11.0080  -15.5587   22.3114 O   0  0  0  0  0  0  0  0  0  0  0  0
   10.6830  -16.8791   22.5608 C   0  0  0  0  0  0  0  0  0  0  0  0
    9.9067  -16.9594   23.8576 C   0  0  2  0  0  0  0  0  0  0  0  0
    8.8082  -16.0234   23.7380 N   0  0  0  0  0  0  0  0  0  0  0  0
   10.7135  -16.6156   25.0249 C   0  0  0  0  0  0  0  0  0  0  0  0
   11.5767  -15.7150   24.9216 O   0  0  0  0  0  0  0  0  0  0  0  0
   12.2891  -14.1108   27.6326 C   0  0  0  0  0  0  0  0  0  0  0  0
   10.8607  -14.6852   27.7143 C   0  0  2  0  0  0  0  0  0  0  0  0
   10.1568  -13.7891   28.7294 C   0  0  0  0  0  0  0  0  0  0  0  0
   10.9981  -16.0641   28.2403 C   0  0  0  0  0  0  0  0  0  0  0  0
   11.5204  -17.1044   27.3262 C   0  0  2  0  0  0  0  0  0  0  0  0
   10.5367  -17.2736   26.2472 N   0  0  0  0  0  0  0  0  0  0  0  0
   11.7964  -18.4218   27.8951 C   0  0  0  0  0  0  0  0  0  0  0  0
   12.7259  -18.5900   28.7082 O   0  0  0  0  0  0  0  0  0  0  0  0
   11.0265  -19.5121   27.5399 O   0  0  0  0  0  0  0  0  0  0  0  0
  2  1  1  0
  3  2  1  0
  3  4  1  6
  5  3  1  0
  5  6  1  1
  7  5  1  0
  7  8  2  0
  9 10  1  0
 11 10  1  6
 12 11  1  0
 12  7  1  0
 13 14  2  0
 13 11  1  0
 16 17  1  1
 16 15  1  0
 18 16  1  0
 19 20  1  0
 19 18  1  1
 20 13  1  0
 21 19  1  0
 22 21  2  0
 23 21  1  0
M  END
$$$$
