ISL.pdb
     RDKit          3D

 23 22  0  0  1  0  0  0  0  0999 V2000
    7.5116  -12.8685   17.0730 C   0  0  0  0  0  0  0  0  0  0  0  0
    8.4256  -13.6540   18.0019 C   0  0  0  0  0  0  0  0  0  0  0  0
    7.7373  -14.0044   19.2885 C   0  0  2  0  0  0  0  0  0  0  0  0
    7.2628  -12.7525   19.9969 C   0  0  0  0  0  0  0  0  0  0  0  0
    8.5660  -14.8811   20.1776 C   0  0  2  0  0  0  0  0  0  0  0  0
    8.8064  -16.1500   19.5159 N   0  0  0  0  0  0  0  0  0  0  0  0
    7.9414  -15.0941   21.5204 C   0  0  0  0  0  0  0  0  0  0  0  0
    7.6498  -14.1448   22.2900 O   0  0  0  0  0  0  0  0  0  0  0  0
    8.0058  -18.7578   23.2760 O   0  0  0  0  0  0  0  0  0  0  0  0
    6.8114  -18.0847   23.4541 C   0  0  0  0  0  0  0  0  0  0  0  0
    7.0576  -16.5979   23.3142 C   0  0  2  0  0  0  0  0  0  0  0  0
    7.6398  -16.3989   22.0032 N   0  0  0  0  0  0  0  0  0  0  0  0
    7.9628  -16.0736   24.3328 C   0  0  0  0  0  0  0  0  0  0  0  0
    9.1843  -15.9883   24.0726 O   0  0  0  0  0  0  0  0  0  0  0  0
    7.9979  -12.1605   25.8976 C   0  0  0  0  0  0  0  0  0  0  0  0
    6.9445  -13.0699   26.5611 C   0  0  2  0  0  0  0  0  0  0  0  0
    6.1786  -12.1343   27.4921 C   0  0  0  0  0  0  0  0  0  0  0  0
    7.7002  -14.0797   27.3397 C   0  0  0  0  0  0  0  0  0  0  0  0
    8.4178  -15.1356   26.5909 C   0  0  2  0  0  0  0  0  0  0  0  0
    7.4877  -15.6685   25.5851 N   0  0  0  0  0  0  0  0  0  0  0  0
    8.9466  -16.2617   27.3574 C   0  0  0  0  0  0  0  0  0  0  0  0
    9.9691  -16.1391   28.0593 O   0  0  0  0  0  0  0  0  0  0  0  0
    8.3181  -17.4909   27.3179 O   0  0  0  0  0  0  0  0  0  0  0  0
  2  1  1  0
  3  2  1  0
  3  4  1  1
  5  3  1  0
  5  6  1  6
  7  5  1  0
  7  8  2  0
  9 10  1  0
 11 10  1  1
 12 11  1  0
 12  7  1  0
 13 14  2  0
 13 11  1  0
 16 17  1  1
 16 15  1  0
 18 16  1  0
 19 20  1  0
 19 18  1  1
 20 13  1  0
 21 19  1  0
 22 21  2  0
 23 21  1  0
M  END
$$$$
