ISL.pdb
     RDKit          3D

 23 22  0  0  1  0  0  0  0  0999 V2000
    7.8391  -11.9370   18.6130 C   0  0  0  0  0  0  0  0  0  0  0  0
    8.1157  -13.4308   18.6983 C   0  0  0  0  0  0  0  0  0  0  0  0
    7.8209  -13.9704   20.0672 C   0  0  2  0  0  0  0  0  0  0  0  0
    8.6280  -13.2331   21.1156 C   0  0  0  0  0  0  0  0  0  0  0  0
    7.9898  -15.4565   20.1611 C   0  0  2  0  0  0  0  0  0  0  0  0
    7.1298  -16.1025   19.1871 N   0  0  0  0  0  0  0  0  0  0  0  0
    7.7198  -15.9809   21.5362 C   0  0  0  0  0  0  0  0  0  0  0  0
    6.5704  -15.9916   22.0434 O   0  0  0  0  0  0  0  0  0  0  0  0
   10.5203  -18.1507   23.5243 O   0  0  0  0  0  0  0  0  0  0  0  0
    9.1879  -18.2769   23.8707 C   0  0  0  0  0  0  0  0  0  0  0  0
    8.5076  -16.9342   23.7112 C   0  0  2  0  0  0  0  0  0  0  0  0
    8.7628  -16.5026   22.3526 N   0  0  0  0  0  0  0  0  0  0  0  0
    9.0096  -15.9287   24.6432 C   0  0  0  0  0  0  0  0  0  0  0  0
   10.1441  -15.4361   24.4506 O   0  0  0  0  0  0  0  0  0  0  0  0
    7.9554  -12.0264   25.3607 C   0  0  0  0  0  0  0  0  0  0  0  0
    6.9772  -12.9865   26.0665 C   0  0  2  0  0  0  0  0  0  0  0  0
    5.9172  -12.0652   26.6635 C   0  0  0  0  0  0  0  0  0  0  0  0
    7.7532  -13.6546   27.1382 C   0  0  0  0  0  0  0  0  0  0  0  0
    8.8220  -14.5955   26.7345 C   0  0  2  0  0  0  0  0  0  0  0  0
    8.2464  -15.5116   25.7394 N   0  0  0  0  0  0  0  0  0  0  0  0
    9.4398  -15.4017   27.7852 C   0  0  0  0  0  0  0  0  0  0  0  0
    9.1761  -16.6138   27.9055 O   0  0  0  0  0  0  0  0  0  0  0  0
   10.3338  -14.8309   28.6698 O   0  0  0  0  0  0  0  0  0  0  0  0
  2  1  1  0
  3  2  1  0
  3  4  1  1
  5  3  1  0
  5  6  1  6
  7  5  1  0
  7  8  2  0
  9 10  1  0
 11 10  1  1
 12 11  1  0
 12  7  1  0
 13 14  2  0
 13 11  1  0
 16 17  1  1
 16 15  1  0
 18 16  1  0
 19 20  1  0
 19 18  1  1
 20 13  1  0
 21 19  1  0
 22 21  2  0
 23 21  1  0
M  END
$$$$
