ISL.pdb
     RDKit          3D

 23 22  0  0  1  0  0  0  0  0999 V2000
    7.8376  -11.8939   18.1706 C   0  0  0  0  0  0  0  0  0  0  0  0
    8.4212  -13.2991   18.1668 C   0  0  0  0  0  0  0  0  0  0  0  0
    8.0921  -14.0380   19.4308 C   0  0  2  0  0  0  0  0  0  0  0  0
    8.5727  -13.2639   20.6408 C   0  0  0  0  0  0  0  0  0  0  0  0
    8.5851  -15.4532   19.4287 C   0  0  2  0  0  0  0  0  0  0  0  0
    8.0316  -16.1554   18.2858 N   0  0  0  0  0  0  0  0  0  0  0  0
    8.2663  -16.1759   20.6995 C   0  0  0  0  0  0  0  0  0  0  0  0
    7.1043  -16.5551   20.9897 O   0  0  0  0  0  0  0  0  0  0  0  0
   11.1475  -17.7221   23.3134 O   0  0  0  0  0  0  0  0  0  0  0  0
    9.8412  -18.1663   23.2259 C   0  0  0  0  0  0  0  0  0  0  0  0
    8.9336  -16.9819   22.9721 C   0  0  2  0  0  0  0  0  0  0  0  0
    9.2744  -16.4765   21.6586 N   0  0  0  0  0  0  0  0  0  0  0  0
    9.0972  -15.9190   23.9596 C   0  0  0  0  0  0  0  0  0  0  0  0
   10.0568  -15.1239   23.8413 O   0  0  0  0  0  0  0  0  0  0  0  0
    5.7889  -12.1510   26.9362 C   0  0  0  0  0  0  0  0  0  0  0  0
    7.1104  -12.9010   27.1967 C   0  0  2  0  0  0  0  0  0  0  0  0
    8.1915  -11.8796   26.8550 C   0  0  0  0  0  0  0  0  0  0  0  0
    7.1396  -14.0334   26.2406 C   0  0  0  0  0  0  0  0  0  0  0  0
    8.4253  -14.7396   26.0437 C   0  0  2  0  0  0  0  0  0  0  0  0
    8.2037  -15.7780   25.0273 N   0  0  0  0  0  0  0  0  0  0  0  0
    9.0289  -15.3750   27.2131 C   0  0  0  0  0  0  0  0  0  0  0  0
    9.8528  -14.7663   27.9230 O   0  0  0  0  0  0  0  0  0  0  0  0
    8.6945  -16.6706   27.5554 O   0  0  0  0  0  0  0  0  0  0  0  0
  2  1  1  0
  3  2  1  0
  3  4  1  1
  5  3  1  0
  5  6  1  6
  7  5  1  0
  7  8  2  0
  9 10  1  0
 11 10  1  1
 12 11  1  0
 12  7  1  0
 13 14  2  0
 13 11  1  0
 16 17  1  6
 16 15  1  0
 18 16  1  0
 19 20  1  0
 19 18  1  1
 20 13  1  0
 21 19  1  0
 22 21  2  0
 23 21  1  0
M  END
$$$$
