ISL.pdb
     RDKit          3D

 23 22  0  0  1  0  0  0  0  0999 V2000
    7.2310  -12.0203   18.7413 C   0  0  0  0  0  0  0  0  0  0  0  0
    7.8511  -13.4078   18.8168 C   0  0  0  0  0  0  0  0  0  0  0  0
    7.6549  -14.0282   20.1690 C   0  0  2  0  0  0  0  0  0  0  0  0
    8.2008  -13.1237   21.2544 C   0  0  0  0  0  0  0  0  0  0  0  0
    8.2020  -15.4204   20.2609 C   0  0  2  0  0  0  0  0  0  0  0  0
    7.5999  -16.2446   19.2294 N   0  0  0  0  0  0  0  0  0  0  0  0
    7.9992  -16.0308   21.6119 C   0  0  0  0  0  0  0  0  0  0  0  0
    6.8604  -16.2978   22.0704 O   0  0  0  0  0  0  0  0  0  0  0  0
   10.9843  -17.8907   23.5631 O   0  0  0  0  0  0  0  0  0  0  0  0
    9.6705  -18.1224   23.9260 C   0  0  0  0  0  0  0  0  0  0  0  0
    8.8913  -16.8301   23.8085 C   0  0  2  0  0  0  0  0  0  0  0  0
    9.0986  -16.3459   22.4596 N   0  0  0  0  0  0  0  0  0  0  0  0
    9.3283  -15.8146   24.7622 C   0  0  0  0  0  0  0  0  0  0  0  0
   10.4114  -15.2202   24.5613 O   0  0  0  0  0  0  0  0  0  0  0  0
    8.4351  -11.9721   25.6425 C   0  0  0  0  0  0  0  0  0  0  0  0
    7.3679  -12.9140   26.2350 C   0  0  2  0  0  0  0  0  0  0  0  0
    6.3170  -11.9695   26.8116 C   0  0  0  0  0  0  0  0  0  0  0  0
    8.0395  -13.6727   27.3169 C   0  0  0  0  0  0  0  0  0  0  0  0
    9.1067  -14.6244   26.9348 C   0  0  2  0  0  0  0  0  0  0  0  0
    8.5594  -15.4992   25.8880 N   0  0  0  0  0  0  0  0  0  0  0  0
    9.6589  -15.4731   27.9884 C   0  0  0  0  0  0  0  0  0  0  0  0
    9.3737  -16.6845   28.0548 O   0  0  0  0  0  0  0  0  0  0  0  0
   10.5133  -14.9445   28.9361 O   0  0  0  0  0  0  0  0  0  0  0  0
  2  1  1  0
  3  2  1  0
  3  4  1  1
  5  3  1  0
  5  6  1  6
  7  5  1  0
  7  8  2  0
  9 10  1  0
 11 10  1  6
 12 11  1  0
 12  7  1  0
 13 14  2  0
 13 11  1  0
 16 17  1  1
 16 15  1  0
 18 16  1  0
 19 20  1  0
 19 18  1  1
 20 13  1  0
 21 19  1  0
 22 21  2  0
 23 21  1  0
M  END
$$$$
