ISL.pdb
     RDKit          3D

 23 22  0  0  1  0  0  0  0  0999 V2000
    7.8707  -11.9648   18.7272 C   0  0  0  0  0  0  0  0  0  0  0  0
    8.0733  -13.4717   18.7860 C   0  0  0  0  0  0  0  0  0  0  0  0
    7.7224  -14.0245   20.1363 C   0  0  2  0  0  0  0  0  0  0  0  0
    8.4874  -13.2992   21.2240 C   0  0  0  0  0  0  0  0  0  0  0  0
    7.8851  -15.5118   20.2220 C   0  0  2  0  0  0  0  0  0  0  0  0
    7.0325  -16.1482   19.2353 N   0  0  0  0  0  0  0  0  0  0  0  0
    7.5998  -16.0443   21.5909 C   0  0  0  0  0  0  0  0  0  0  0  0
    6.4331  -16.1662   22.0406 O   0  0  0  0  0  0  0  0  0  0  0  0
   10.2294  -18.2803   23.5509 O   0  0  0  0  0  0  0  0  0  0  0  0
    8.9143  -18.2585   23.9766 C   0  0  0  0  0  0  0  0  0  0  0  0
    8.3715  -16.8534   23.8291 C   0  0  2  0  0  0  0  0  0  0  0  0
    8.6473  -16.4467   22.4669 N   0  0  0  0  0  0  0  0  0  0  0  0
    8.9880  -15.9062   24.7536 C   0  0  0  0  0  0  0  0  0  0  0  0
   10.0837  -15.3848   24.4463 O   0  0  0  0  0  0  0  0  0  0  0  0
    7.8192  -12.1882   25.5128 C   0  0  0  0  0  0  0  0  0  0  0  0
    7.0112  -13.1552   26.4012 C   0  0  2  0  0  0  0  0  0  0  0  0
    5.9887  -12.2583   27.0931 C   0  0  0  0  0  0  0  0  0  0  0  0
    7.9695  -13.7123   27.3853 C   0  0  0  0  0  0  0  0  0  0  0  0
    9.0210  -14.6264   26.8860 C   0  0  2  0  0  0  0  0  0  0  0  0
    8.3761  -15.5762   25.9680 N   0  0  0  0  0  0  0  0  0  0  0  0
    9.7693  -15.3956   27.8779 C   0  0  0  0  0  0  0  0  0  0  0  0
   10.5330  -14.8330   28.6863 O   0  0  0  0  0  0  0  0  0  0  0  0
    9.6423  -16.7696   27.9382 O   0  0  0  0  0  0  0  0  0  0  0  0
  2  1  1  0
  3  2  1  0
  3  4  1  1
  5  3  1  0
  5  6  1  6
  7  5  1  0
  7  8  2  0
  9 10  1  0
 11 10  1  1
 12 11  1  0
 12  7  1  0
 13 14  2  0
 13 11  1  0
 16 17  1  1
 16 15  1  0
 18 16  1  0
 19 20  1  0
 19 18  1  1
 20 13  1  0
 21 19  1  0
 22 21  2  0
 23 21  1  0
M  END
$$$$
