ISL.pdb
     RDKit          3D

 23 22  0  0  1  0  0  0  0  0999 V2000
    7.8796  -11.8573   19.8050 C   0  0  0  0  0  0  0  0  0  0  0  0
    7.5805  -13.3444   19.6847 C   0  0  0  0  0  0  0  0  0  0  0  0
    8.8383  -14.1526   19.5556 C   0  0  2  0  0  0  0  0  0  0  0  0
    9.6379  -13.7045   18.3497 C   0  0  0  0  0  0  0  0  0  0  0  0
    8.5890  -15.6303   19.5551 C   0  0  2  0  0  0  0  0  0  0  0  0
    7.7847  -15.9837   18.4002 N   0  0  0  0  0  0  0  0  0  0  0  0
    7.9408  -16.1053   20.8173 C   0  0  0  0  0  0  0  0  0  0  0  0
    6.6952  -16.2155   20.9390 O   0  0  0  0  0  0  0  0  0  0  0  0
    7.6522  -18.6594   24.5997 O   0  0  0  0  0  0  0  0  0  0  0  0
    8.2377  -18.2867   23.4040 C   0  0  0  0  0  0  0  0  0  0  0  0
    8.0737  -16.7934   23.2191 C   0  0  2  0  0  0  0  0  0  0  0  0
    8.7097  -16.4624   21.9609 N   0  0  0  0  0  0  0  0  0  0  0  0
    8.6872  -16.0173   24.2929 C   0  0  0  0  0  0  0  0  0  0  0  0
    9.9330  -15.8980   24.3195 O   0  0  0  0  0  0  0  0  0  0  0  0
    7.8548  -11.7933   25.5094 C   0  0  0  0  0  0  0  0  0  0  0  0
    6.8136  -12.8248   25.9876 C   0  0  2  0  0  0  0  0  0  0  0  0
    5.7770  -11.9890   26.7331 C   0  0  0  0  0  0  0  0  0  0  0  0
    7.5254  -13.7299   26.9210 C   0  0  0  0  0  0  0  0  0  0  0  0
    8.5498  -14.6378   26.3579 C   0  0  2  0  0  0  0  0  0  0  0  0
    7.9083  -15.4100   25.2843 N   0  0  0  0  0  0  0  0  0  0  0  0
    9.1870  -15.5819   27.2733 C   0  0  0  0  0  0  0  0  0  0  0  0
    8.7799  -16.7555   27.3740 O   0  0  0  0  0  0  0  0  0  0  0  0
   10.2601  -15.1881   28.0487 O   0  0  0  0  0  0  0  0  0  0  0  0
  2  1  1  0
  3  2  1  0
  3  4  1  6
  5  3  1  0
  5  6  1  6
  7  5  1  0
  7  8  2  0
  9 10  1  0
 11 10  1  1
 12 11  1  0
 12  7  1  0
 13 14  2  0
 13 11  1  0
 16 17  1  1
 16 15  1  0
 18 16  1  0
 19 20  1  0
 19 18  1  1
 20 13  1  0
 21 19  1  0
 22 21  2  0
 23 21  1  0
M  END
$$$$
