ISL.pdb
     RDKit          3D

 23 22  0  0  1  0  0  0  0  0999 V2000
    9.0096  -17.5072   17.1261 C   0  0  0  0  0  0  0  0  0  0  0  0
    8.3957  -18.4554   18.1455 C   0  0  0  0  0  0  0  0  0  0  0  0
    7.8603  -17.7158   19.3364 C   0  0  2  0  0  0  0  0  0  0  0  0
    8.9480  -16.8782   19.9764 C   0  0  0  0  0  0  0  0  0  0  0  0
    7.1766  -18.6111   20.3247 C   0  0  2  0  0  0  0  0  0  0  0  0
    6.0384  -19.2499   19.6905 N   0  0  0  0  0  0  0  0  0  0  0  0
    6.7544  -17.8855   21.5632 C   0  0  0  0  0  0  0  0  0  0  0  0
    5.9030  -16.9617   21.5499 O   0  0  0  0  0  0  0  0  0  0  0  0
    7.6138  -19.3159   25.3642 O   0  0  0  0  0  0  0  0  0  0  0  0
    6.4888  -18.5823   25.0363 C   0  0  0  0  0  0  0  0  0  0  0  0
    6.8713  -17.5140   24.0347 C   0  0  2  0  0  0  0  0  0  0  0  0
    7.3006  -18.2071   22.8379 N   0  0  0  0  0  0  0  0  0  0  0  0
    7.9485  -16.6501   24.5090 C   0  0  0  0  0  0  0  0  0  0  0  0
    9.1292  -16.9269   24.1985 O   0  0  0  0  0  0  0  0  0  0  0  0
    5.9284  -13.2655   25.9817 C   0  0  0  0  0  0  0  0  0  0  0  0
    7.2583  -12.8491   26.6410 C   0  0  2  0  0  0  0  0  0  0  0  0
    7.1805  -11.3264   26.7064 C   0  0  0  0  0  0  0  0  0  0  0  0
    8.3325  -13.2788   25.7144 C   0  0  0  0  0  0  0  0  0  0  0  0
    8.7853  -14.6862   25.7853 C   0  0  2  0  0  0  0  0  0  0  0  0
    7.6815  -15.5265   25.2993 N   0  0  0  0  0  0  0  0  0  0  0  0
    9.1972  -15.1945   27.0920 C   0  0  0  0  0  0  0  0  0  0  0  0
   10.1882  -14.7232   27.6828 O   0  0  0  0  0  0  0  0  0  0  0  0
    8.4906  -16.2134   27.7003 O   0  0  0  0  0  0  0  0  0  0  0  0
  2  1  1  0
  3  2  1  0
  3  4  1  1
  5  3  1  0
  5  6  1  6
  7  5  1  0
  7  8  2  0
  9 10  1  0
 11 10  1  1
 12 11  1  0
 12  7  1  0
 13 14  2  0
 13 11  1  0
 16 17  1  6
 16 15  1  0
 18 16  1  0
 19 20  1  0
 19 18  1  1
 20 13  1  0
 21 19  1  0
 22 21  2  0
 23 21  1  0
M  END
$$$$
