VET.pdb
     RDKit          3D

 24 23  0  0  1  0  0  0  0  0999 V2000
   13.7776  -13.3458  -11.9758 C   0  0  0  0  0  0  0  0  0  0  0  0
   13.7199  -13.1607  -13.5029 C   0  0  2  0  0  0  0  0  0  0  0  0
   13.1007  -14.3509  -14.1582 C   0  0  0  0  0  0  0  0  0  0  0  0
   15.1829  -13.0746  -13.9283 C   0  0  2  0  0  0  0  0  0  0  0  0
   15.8549  -14.3293  -13.4971 N   0  0  0  0  0  0  0  0  0  0  0  0
   15.8926  -11.9940  -13.1999 C   0  0  0  0  0  0  0  0  0  0  0  0
   16.6820  -12.2913  -12.2301 O   0  0  0  0  0  0  0  0  0  0  0  0
   15.7846  -10.6127  -13.4784 N   0  0  0  0  0  0  0  0  0  0  0  0
   16.5698   -9.6138  -12.7009 C   0  0  1  0  0  0  0  0  0  0  0  0
   17.2737   -8.7593  -13.7293 C   0  0  0  0  0  0  0  0  0  0  0  0
   18.5538   -9.3317  -14.2050 C   0  0  0  0  0  0  0  0  0  0  0  0
   19.2370   -8.4595  -15.2060 C   0  0  0  0  0  0  0  0  0  0  0  0
   18.8568   -8.4584  -16.3830 O   0  0  0  0  0  0  0  0  0  0  0  0
   15.6814   -8.8740  -11.7978 C   0  0  0  0  0  0  0  0  0  0  0  0
   14.4556   -8.7640  -12.1299 O   0  0  0  0  0  0  0  0  0  0  0  0
   20.2769   -7.6806  -14.7741 O   0  0  0  0  0  0  0  0  0  0  0  0
   14.8188   -6.3991   -7.6096 C   0  0  0  0  0  0  0  0  0  0  0  0
   15.7577   -7.2471   -8.4311 C   0  0  1  0  0  0  0  0  0  0  0  0
   16.1147   -8.4078   -7.7776 O   0  0  0  0  0  0  0  0  0  0  0  0
   15.0720   -7.5319   -9.7589 C   0  0  2  0  0  0  0  0  0  0  0  0
   16.0469   -8.2644  -10.5746 N   0  0  0  0  0  0  0  0  0  0  0  0
   14.7496   -6.2778  -10.4724 C   0  0  0  0  0  0  0  0  0  0  0  0
   13.6417   -5.7236  -10.3819 O   0  0  0  0  0  0  0  0  0  0  0  0
   15.7432   -5.7183  -11.2688 O   0  0  0  0  0  0  0  0  0  0  0  0
  2  1  1  1
  2  3  1  0
  4  2  1  0
  4  5  1  1
  6  4  1  0
  7  6  2  0
  8  6  1  0
  9  8  1  0
 10 11  1  0
  9 10  1  6
 12 16  1  0
 12 11  1  0
 13 12  2  0
 14 15  2  0
 14  9  1  0
 18 20  1  0
 18 17  1  1
 19 18  1  0
 20 21  1  6
 21 14  1  0
 22 20  1  0
 23 22  2  0
 24 22  1  0
M  END
$$$$
