VET.pdb
     RDKit          3D

 24 23  0  0  1  0  0  0  0  0999 V2000
   16.0549  -12.0322  -16.8252 C   0  0  0  0  0  0  0  0  0  0  0  0
   16.3325  -11.2897  -15.5056 C   0  0  2  0  0  0  0  0  0  0  0  0
   15.6212   -9.9773  -15.4760 C   0  0  0  0  0  0  0  0  0  0  0  0
   17.8362  -11.0302  -15.5277 C   0  0  2  0  0  0  0  0  0  0  0  0
   18.5241  -12.3337  -15.3296 N   0  0  0  0  0  0  0  0  0  0  0  0
   18.2561  -10.1996  -14.3719 C   0  0  0  0  0  0  0  0  0  0  0  0
   18.3991  -10.7426  -13.2157 O   0  0  0  0  0  0  0  0  0  0  0  0
   18.5280   -8.8135  -14.4171 N   0  0  0  0  0  0  0  0  0  0  0  0
   18.9831   -8.0851  -13.2000 C   0  0  1  0  0  0  0  0  0  0  0  0
   20.1597   -7.2470  -13.6432 C   0  0  0  0  0  0  0  0  0  0  0  0
   20.7613   -6.4415  -12.5560 C   0  0  0  0  0  0  0  0  0  0  0  0
   21.8508   -5.5432  -13.0413 C   0  0  0  0  0  0  0  0  0  0  0  0
   22.3696   -4.7304  -12.2665 O   0  0  0  0  0  0  0  0  0  0  0  0
   17.8687   -7.3196  -12.6306 C   0  0  0  0  0  0  0  0  0  0  0  0
   17.0302   -6.8015  -13.4390 O   0  0  0  0  0  0  0  0  0  0  0  0
   22.2405   -5.6563  -14.3489 O   0  0  0  0  0  0  0  0  0  0  0  0
   15.8533   -8.0368   -9.1579 C   0  0  0  0  0  0  0  0  0  0  0  0
   16.3191   -6.6103   -9.3104 C   0  0  1  0  0  0  0  0  0  0  0  0
   17.4975   -6.3742   -8.6340 O   0  0  0  0  0  0  0  0  0  0  0  0
   16.4543   -6.3310  -10.7997 C   0  0  2  0  0  0  0  0  0  0  0  0
   17.6197   -7.0966  -11.2560 N   0  0  0  0  0  0  0  0  0  0  0  0
   16.7365   -4.9017  -11.0508 C   0  0  0  0  0  0  0  0  0  0  0  0
   17.8230   -4.5046  -11.5030 O   0  0  0  0  0  0  0  0  0  0  0  0
   15.7291   -3.9876  -10.7609 O   0  0  0  0  0  0  0  0  0  0  0  0
  2  1  1  6
  2  3  1  0
  4  2  1  0
  4  5  1  1
  6  4  1  0
  7  6  2  0
  8  6  1  0
  9  8  1  0
 10 11  1  0
  9 10  1  6
 12 16  1  0
 12 11  1  0
 13 12  2  0
 14 15  2  0
 14  9  1  0
 18 20  1  0
 18 17  1  6
 19 18  1  0
 20 21  1  1
 21 14  1  0
 22 20  1  0
 23 22  2  0
 24 22  1  0
M  END
$$$$
