VET.pdb
     RDKit          3D

 24 23  0  0  1  0  0  0  0  0999 V2000
   23.9679  -11.8474  -14.9805 C   0  0  0  0  0  0  0  0  0  0  0  0
   23.5793  -11.3370  -16.3799 C   0  0  2  0  0  0  0  0  0  0  0  0
   24.1275   -9.9684  -16.6161 C   0  0  0  0  0  0  0  0  0  0  0  0
   22.0560  -11.2534  -16.3417 C   0  0  2  0  0  0  0  0  0  0  0  0
   21.5695  -11.2030  -17.7460 N   0  0  0  0  0  0  0  0  0  0  0  0
   21.6019   -9.9770  -15.7363 C   0  0  0  0  0  0  0  0  0  0  0  0
   21.5812   -9.8502  -14.4575 O   0  0  0  0  0  0  0  0  0  0  0  0
   21.1738   -8.8380  -16.4552 N   0  0  0  0  0  0  0  0  0  0  0  0
   20.6269   -7.6484  -15.7448 C   0  0  1  0  0  0  0  0  0  0  0  0
   21.6564   -6.5572  -15.9254 C   0  0  0  0  0  0  0  0  0  0  0  0
   21.2372   -5.2456  -15.3809 C   0  0  0  0  0  0  0  0  0  0  0  0
   21.8395   -4.9584  -14.0452 C   0  0  0  0  0  0  0  0  0  0  0  0
   23.0144   -5.2724  -13.8192 O   0  0  0  0  0  0  0  0  0  0  0  0
   19.2953   -7.3235  -16.2674 C   0  0  0  0  0  0  0  0  0  0  0  0
   19.1764   -7.1551  -17.5254 O   0  0  0  0  0  0  0  0  0  0  0  0
   21.0535   -4.3475  -13.1052 O   0  0  0  0  0  0  0  0  0  0  0  0
   16.1989   -9.1724  -16.4886 C   0  0  0  0  0  0  0  0  0  0  0  0
   15.8463   -7.9207  -15.7243 C   0  0  1  0  0  0  0  0  0  0  0  0
   15.8564   -8.1253  -14.3606 O   0  0  0  0  0  0  0  0  0  0  0  0
   16.8298   -6.8381  -16.1426 C   0  0  2  0  0  0  0  0  0  0  0  0
   18.1088   -7.1800  -15.5105 N   0  0  0  0  0  0  0  0  0  0  0  0
   16.4188   -5.5155  -15.6254 C   0  0  0  0  0  0  0  0  0  0  0  0
   17.0467   -4.9228  -14.7325 O   0  0  0  0  0  0  0  0  0  0  0  0
   15.2818   -4.9350  -16.1774 O   0  0  0  0  0  0  0  0  0  0  0  0
  2  1  1  1
  2  3  1  0
  4  2  1  0
  4  5  1  6
  6  4  1  0
  7  6  2  0
  8  6  1  0
  9  8  1  0
 10 11  1  0
  9 10  1  6
 12 16  1  0
 12 11  1  0
 13 12  2  0
 14 15  2  0
 14  9  1  0
 18 20  1  0
 18 17  1  6
 19 18  1  0
 20 21  1  1
 21 14  1  0
 22 20  1  0
 23 22  2  0
 24 22  1  0
M  END
$$$$
