VET.pdb
     RDKit          3D

 24 23  0  0  1  0  0  0  0  0999 V2000
   16.0812   -8.7379  -18.0273 C   0  0  0  0  0  0  0  0  0  0  0  0
   17.3012   -9.2449  -18.8174 C   0  0  2  0  0  0  0  0  0  0  0  0
   16.9581  -10.4752  -19.5907 C   0  0  0  0  0  0  0  0  0  0  0  0
   18.3210   -9.6114  -17.7429 C   0  0  2  0  0  0  0  0  0  0  0  0
   17.7862  -10.7765  -16.9891 N   0  0  0  0  0  0  0  0  0  0  0  0
   18.4500   -8.5322  -16.7327 C   0  0  0  0  0  0  0  0  0  0  0  0
   17.7021   -8.5452  -15.6875 O   0  0  0  0  0  0  0  0  0  0  0  0
   19.3520   -7.4468  -16.8066 N   0  0  0  0  0  0  0  0  0  0  0  0
   19.2868   -6.3320  -15.8208 C   0  0  1  0  0  0  0  0  0  0  0  0
   20.6747   -6.2268  -15.2326 C   0  0  0  0  0  0  0  0  0  0  0  0
   20.8200   -5.1399  -14.2375 C   0  0  0  0  0  0  0  0  0  0  0  0
   22.2038   -5.0478  -13.6844 C   0  0  0  0  0  0  0  0  0  0  0  0
   22.4381   -5.4558  -12.5404 O   0  0  0  0  0  0  0  0  0  0  0  0
   18.8088   -5.1111  -16.4787 C   0  0  0  0  0  0  0  0  0  0  0  0
   19.2013   -4.8868  -17.6707 O   0  0  0  0  0  0  0  0  0  0  0  0
   23.1775   -4.5053  -14.4795 O   0  0  0  0  0  0  0  0  0  0  0  0
   15.6475   -1.3620  -16.8015 C   0  0  0  0  0  0  0  0  0  0  0  0
   16.0986   -2.6327  -16.1254 C   0  0  1  0  0  0  0  0  0  0  0  0
   15.1805   -3.6515  -16.2702 O   0  0  0  0  0  0  0  0  0  0  0  0
   17.4539   -3.0036  -16.7083 C   0  0  2  0  0  0  0  0  0  0  0  0
   17.9399   -4.1433  -15.9224 N   0  0  0  0  0  0  0  0  0  0  0  0
   18.4260   -1.9024  -16.5406 C   0  0  0  0  0  0  0  0  0  0  0  0
   19.0044   -1.6800  -15.4642 O   0  0  0  0  0  0  0  0  0  0  0  0
   18.6843   -1.0997  -17.6467 O   0  0  0  0  0  0  0  0  0  0  0  0
  2  1  1  1
  2  3  1  0
  4  2  1  0
  4  5  1  1
  6  4  1  0
  7  6  2  0
  8  6  1  0
  9  8  1  0
 10 11  1  0
  9 10  1  6
 12 16  1  0
 12 11  1  0
 13 12  2  0
 14 15  2  0
 14  9  1  0
 18 20  1  0
 18 17  1  6
 19 18  1  0
 20 21  1  1
 21 14  1  0
 22 20  1  0
 23 22  2  0
 24 22  1  0
M  END
$$$$
