VET.pdb
     RDKit          3D

 24 23  0  0  1  0  0  0  0  0999 V2000
   18.4892  -11.6679  -17.1614 C   0  0  0  0  0  0  0  0  0  0  0  0
   17.5663  -11.4404  -15.9505 C   0  0  2  0  0  0  0  0  0  0  0  0
   16.1663  -11.8525  -16.2662 C   0  0  0  0  0  0  0  0  0  0  0  0
   17.5939   -9.9301  -15.7334 C   0  0  2  0  0  0  0  0  0  0  0  0
   17.2223   -9.2805  -17.0185 N   0  0  0  0  0  0  0  0  0  0  0  0
   18.9699   -9.4521  -15.4501 C   0  0  0  0  0  0  0  0  0  0  0  0
   19.5458   -9.7839  -14.3501 O   0  0  0  0  0  0  0  0  0  0  0  0
   19.7440   -8.6359  -16.3055 N   0  0  0  0  0  0  0  0  0  0  0  0
   21.1266   -8.2301  -15.9278 C   0  0  1  0  0  0  0  0  0  0  0  0
   22.0315   -8.8516  -16.9661 C   0  0  0  0  0  0  0  0  0  0  0  0
   22.4339  -10.2414  -16.6516 C   0  0  0  0  0  0  0  0  0  0  0  0
   23.3193  -10.8344  -17.6974 C   0  0  0  0  0  0  0  0  0  0  0  0
   24.5360  -10.6129  -17.6721 O   0  0  0  0  0  0  0  0  0  0  0  0
   21.2116   -6.7682  -15.8408 C   0  0  0  0  0  0  0  0  0  0  0  0
   21.1782   -6.1060  -16.9296 O   0  0  0  0  0  0  0  0  0  0  0  0
   22.7394  -11.6147  -18.6615 O   0  0  0  0  0  0  0  0  0  0  0  0
   19.3981   -4.7997  -13.2961 C   0  0  0  0  0  0  0  0  0  0  0  0
   19.9638   -4.0457  -14.4738 C   0  0  1  0  0  0  0  0  0  0  0  0
   19.9147   -2.6802  -14.2877 O   0  0  0  0  0  0  0  0  0  0  0  0
   21.3870   -4.5378  -14.6899 C   0  0  2  0  0  0  0  0  0  0  0  0
   21.3234   -6.0032  -14.6561 N   0  0  0  0  0  0  0  0  0  0  0  0
   22.2734   -4.1067  -13.5880 C   0  0  0  0  0  0  0  0  0  0  0  0
   22.7241   -4.8989  -12.7443 O   0  0  0  0  0  0  0  0  0  0  0  0
   22.5994   -2.7564  -13.5168 O   0  0  0  0  0  0  0  0  0  0  0  0
  2  1  1  6
  2  3  1  0
  4  2  1  0
  4  5  1  6
  6  4  1  0
  7  6  2  0
  8  6  1  0
  9  8  1  0
 10 11  1  0
  9 10  1  6
 12 16  1  0
 12 11  1  0
 13 12  2  0
 14 15  2  0
 14  9  1  0
 18 20  1  0
 18 17  1  1
 19 18  1  0
 20 21  1  1
 21 14  1  0
 22 20  1  0
 23 22  2  0
 24 22  1  0
M  END
$$$$
