VET.pdb
     RDKit          3D

 24 23  0  0  1  0  0  0  0  0999 V2000
   16.7996  -10.5125  -13.8112 C   0  0  0  0  0  0  0  0  0  0  0  0
   15.8720  -10.6590  -15.0310 C   0  0  2  0  0  0  0  0  0  0  0  0
   14.8185  -11.6858  -14.7754 C   0  0  0  0  0  0  0  0  0  0  0  0
   16.7873  -11.1642  -16.1427 C   0  0  2  0  0  0  0  0  0  0  0  0
   17.3523  -12.4689  -15.7069 N   0  0  0  0  0  0  0  0  0  0  0  0
   17.9654  -10.2784  -16.3141 C   0  0  0  0  0  0  0  0  0  0  0  0
   19.1060  -10.6368  -15.8422 O   0  0  0  0  0  0  0  0  0  0  0  0
   17.9594   -9.0284  -16.9735 N   0  0  0  0  0  0  0  0  0  0  0  0
   19.2218   -8.2616  -17.1668 C   0  0  1  0  0  0  0  0  0  0  0  0
   19.0892   -7.5921  -18.5149 C   0  0  0  0  0  0  0  0  0  0  0  0
   19.3076   -8.5064  -19.6590 C   0  0  0  0  0  0  0  0  0  0  0  0
   19.1721   -7.8197  -20.9779 C   0  0  0  0  0  0  0  0  0  0  0  0
   18.2412   -7.0275  -21.1669 O   0  0  0  0  0  0  0  0  0  0  0  0
   19.4220   -7.3387  -16.0442 C   0  0  0  0  0  0  0  0  0  0  0  0
   18.3872   -6.9177  -15.4302 O   0  0  0  0  0  0  0  0  0  0  0  0
   20.1008   -8.0987  -21.9445 O   0  0  0  0  0  0  0  0  0  0  0  0
   22.1611   -5.5769  -12.4210 C   0  0  0  0  0  0  0  0  0  0  0  0
   21.9237   -6.5432  -13.5546 C   0  0  1  0  0  0  0  0  0  0  0  0
   21.7020   -7.8274  -13.1039 O   0  0  0  0  0  0  0  0  0  0  0  0
   20.7494   -6.0160  -14.3654 C   0  0  2  0  0  0  0  0  0  0  0  0
   20.6633   -6.8630  -15.5602 N   0  0  0  0  0  0  0  0  0  0  0  0
   20.9943   -4.6308  -14.8202 C   0  0  0  0  0  0  0  0  0  0  0  0
   21.6203   -4.3702  -15.8608 O   0  0  0  0  0  0  0  0  0  0  0  0
   20.4936   -3.5986  -14.0338 O   0  0  0  0  0  0  0  0  0  0  0  0
  2  1  1  1
  2  3  1  0
  4  2  1  0
  4  5  1  1
  6  4  1  0
  7  6  2  0
  8  6  1  0
  9  8  1  0
 10 11  1  0
  9 10  1  6
 12 16  1  0
 12 11  1  0
 13 12  2  0
 14 15  2  0
 14  9  1  0
 18 20  1  0
 18 17  1  1
 19 18  1  0
 20 21  1  6
 21 14  1  0
 22 20  1  0
 23 22  2  0
 24 22  1  0
M  END
$$$$
