VET.pdb
     RDKit          3D

 24 23  0  0  1  0  0  0  0  0999 V2000
   15.8729   -8.5388   -8.9273 C   0  0  0  0  0  0  0  0  0  0  0  0
   14.6246   -7.9201   -9.5820 C   0  0  2  0  0  0  0  0  0  0  0  0
   13.4628   -7.9534   -8.6446 C   0  0  0  0  0  0  0  0  0  0  0  0
   14.3249   -8.8370  -10.7645 C   0  0  2  0  0  0  0  0  0  0  0  0
   14.1232  -10.2111  -10.2329 N   0  0  0  0  0  0  0  0  0  0  0  0
   15.4954   -8.9479  -11.6698 C   0  0  0  0  0  0  0  0  0  0  0  0
   16.1528  -10.0508  -11.7289 O   0  0  0  0  0  0  0  0  0  0  0  0
   15.9791   -7.9200  -12.5104 N   0  0  0  0  0  0  0  0  0  0  0  0
   17.1527   -8.1495  -13.3986 C   0  0  1  0  0  0  0  0  0  0  0  0
   16.5780   -8.4420  -14.7652 C   0  0  0  0  0  0  0  0  0  0  0  0
   17.6047   -8.6726  -15.8070 C   0  0  0  0  0  0  0  0  0  0  0  0
   17.0123   -9.0491  -17.1248 C   0  0  0  0  0  0  0  0  0  0  0  0
   15.7855   -9.0181  -17.2798 O   0  0  0  0  0  0  0  0  0  0  0  0
   18.0501   -6.9901  -13.3496 C   0  0  0  0  0  0  0  0  0  0  0  0
   17.5431   -5.8594  -13.0506 O   0  0  0  0  0  0  0  0  0  0  0  0
   17.8657   -9.4209  -18.1289 O   0  0  0  0  0  0  0  0  0  0  0  0
   21.5097   -6.5850  -11.5807 C   0  0  0  0  0  0  0  0  0  0  0  0
   21.6264   -6.2030  -13.0353 C   0  0  1  0  0  0  0  0  0  0  0  0
   22.1332   -7.2306  -13.8026 O   0  0  0  0  0  0  0  0  0  0  0  0
   20.2456   -5.7714  -13.5061 C   0  0  2  0  0  0  0  0  0  0  0  0
   19.4428   -6.9960  -13.5980 N   0  0  0  0  0  0  0  0  0  0  0  0
   20.3048   -5.1772  -14.8585 C   0  0  0  0  0  0  0  0  0  0  0  0
   19.8982   -5.7742  -15.8689 O   0  0  0  0  0  0  0  0  0  0  0  0
   20.8412   -3.8992  -14.9756 O   0  0  0  0  0  0  0  0  0  0  0  0
  2  1  1  1
  2  3  1  0
  4  2  1  0
  4  5  1  1
  6  4  1  0
  7  6  2  0
  8  6  1  0
  9  8  1  0
 10 11  1  0
  9 10  1  6
 12 16  1  0
 12 11  1  0
 13 12  2  0
 14 15  2  0
 14  9  1  0
 18 20  1  0
 18 17  1  1
 19 18  1  0
 20 21  1  6
 21 14  1  0
 22 20  1  0
 23 22  2  0
 24 22  1  0
M  END
$$$$
