VET.pdb
     RDKit          3D

 24 23  0  0  1  0  0  0  0  0999 V2000
   16.1719   -8.4377  -16.0907 C   0  0  0  0  0  0  0  0  0  0  0  0
   16.4408   -9.4120  -17.2518 C   0  0  2  0  0  0  0  0  0  0  0  0
   15.1639   -9.9935  -17.7624 C   0  0  0  0  0  0  0  0  0  0  0  0
   17.2695  -10.5287  -16.6233 C   0  0  2  0  0  0  0  0  0  0  0  0
   16.4359  -11.1777  -15.5767 N   0  0  0  0  0  0  0  0  0  0  0  0
   18.4405   -9.9840  -15.8925 C   0  0  0  0  0  0  0  0  0  0  0  0
   18.4258   -9.9400  -14.6081 O   0  0  0  0  0  0  0  0  0  0  0  0
   19.6208   -9.4896  -16.4922 N   0  0  0  0  0  0  0  0  0  0  0  0
   20.7434   -8.9768  -15.6582 C   0  0  1  0  0  0  0  0  0  0  0  0
   21.9655   -9.7467  -16.1022 C   0  0  0  0  0  0  0  0  0  0  0  0
   23.2070   -9.3527  -15.3980 C   0  0  0  0  0  0  0  0  0  0  0  0
   24.4034  -10.1077  -15.8757 C   0  0  0  0  0  0  0  0  0  0  0  0
   24.7982   -9.9637  -17.0390 O   0  0  0  0  0  0  0  0  0  0  0  0
   20.8517   -7.5214  -15.8073 C   0  0  0  0  0  0  0  0  0  0  0  0
   20.9495   -7.0515  -16.9883 O   0  0  0  0  0  0  0  0  0  0  0  0
   25.0283  -10.9455  -14.9912 O   0  0  0  0  0  0  0  0  0  0  0  0
   18.6799   -4.8307  -15.6070 C   0  0  0  0  0  0  0  0  0  0  0  0
   19.7387   -4.4608  -14.5984 C   0  0  1  0  0  0  0  0  0  0  0  0
   19.3765   -4.8098  -13.3144 O   0  0  0  0  0  0  0  0  0  0  0  0
   21.0327   -5.1367  -15.0262 C   0  0  2  0  0  0  0  0  0  0  0  0
   20.8538   -6.5686  -14.7616 N   0  0  0  0  0  0  0  0  0  0  0  0
   22.1726   -4.6731  -14.2069 C   0  0  0  0  0  0  0  0  0  0  0  0
   22.7094   -5.3874  -13.3441 O   0  0  0  0  0  0  0  0  0  0  0  0
   22.6424   -3.3834  -14.4313 O   0  0  0  0  0  0  0  0  0  0  0  0
  2  1  1  1
  2  3  1  0
  4  2  1  0
  4  5  1  1
  6  4  1  0
  7  6  2  0
  8  6  1  0
  9  8  1  0
 10 11  1  0
  9 10  1  6
 12 16  1  0
 12 11  1  0
 13 12  2  0
 14 15  2  0
 14  9  1  0
 18 20  1  0
 18 17  1  6
 19 18  1  0
 20 21  1  1
 21 14  1  0
 22 20  1  0
 23 22  2  0
 24 22  1  0
M  END
$$$$
