VET.pdb
     RDKit          3D

 24 23  0  0  1  0  0  0  0  0999 V2000
   26.8507   -9.9470  -16.8784 C   0  0  0  0  0  0  0  0  0  0  0  0
   26.6118  -11.1051  -15.8928 C   0  0  2  0  0  0  0  0  0  0  0  0
   27.7551  -12.0652  -15.9157 C   0  0  0  0  0  0  0  0  0  0  0  0
   25.3707  -11.8102  -16.4326 C   0  0  2  0  0  0  0  0  0  0  0  0
   25.6934  -12.3182  -17.7925 N   0  0  0  0  0  0  0  0  0  0  0  0
   24.2553  -10.8535  -16.6393 C   0  0  0  0  0  0  0  0  0  0  0  0
   24.0650  -10.3382  -17.8013 O   0  0  0  0  0  0  0  0  0  0  0  0
   23.3415  -10.4361  -15.6453 N   0  0  0  0  0  0  0  0  0  0  0  0
   22.2382   -9.4900  -15.9720 C   0  0  1  0  0  0  0  0  0  0  0  0
   20.9623  -10.2068  -15.5959 C   0  0  0  0  0  0  0  0  0  0  0  0
   19.7355   -9.4244  -15.8704 C   0  0  0  0  0  0  0  0  0  0  0  0
   18.4915  -10.1455  -15.4680 C   0  0  0  0  0  0  0  0  0  0  0  0
   17.4043   -9.5559  -15.4877 O   0  0  0  0  0  0  0  0  0  0  0  0
   22.4504   -8.2163  -15.2759 C   0  0  0  0  0  0  0  0  0  0  0  0
   22.8953   -8.2594  -14.0820 O   0  0  0  0  0  0  0  0  0  0  0  0
   18.6046  -11.4553  -15.0858 O   0  0  0  0  0  0  0  0  0  0  0  0
   24.3014   -4.9979  -16.4914 C   0  0  0  0  0  0  0  0  0  0  0  0
   22.9126   -4.6483  -16.0175 C   0  0  1  0  0  0  0  0  0  0  0  0
   22.0196   -4.5407  -17.0628 O   0  0  0  0  0  0  0  0  0  0  0  0
   22.4897   -5.7140  -15.0177 C   0  0  2  0  0  0  0  0  0  0  0  0
   22.2142   -6.9239  -15.8004 N   0  0  0  0  0  0  0  0  0  0  0  0
   21.2363   -5.3343  -14.3317 C   0  0  0  0  0  0  0  0  0  0  0  0
   20.1463   -5.8728  -14.5857 O   0  0  0  0  0  0  0  0  0  0  0  0
   21.3088   -4.3327  -13.3694 O   0  0  0  0  0  0  0  0  0  0  0  0
  2  1  1  6
  2  3  1  0
  4  2  1  0
  4  5  1  6
  6  4  1  0
  7  6  2  0
  8  6  1  0
  9  8  1  0
 10 11  1  0
  9 10  1  1
 12 16  1  0
 12 11  1  0
 13 12  2  0
 14 15  2  0
 14  9  1  0
 18 20  1  0
 18 17  1  6
 19 18  1  0
 20 21  1  6
 21 14  1  0
 22 20  1  0
 23 22  2  0
 24 22  1  0
M  END
$$$$
