VET.pdb
     RDKit          3D

 24 23  0  0  1  0  0  0  0  0999 V2000
   16.5324  -12.4847  -16.5588 C   0  0  0  0  0  0  0  0  0  0  0  0
   16.5011  -11.0415  -16.0243 C   0  0  2  0  0  0  0  0  0  0  0  0
   16.1625  -10.0795  -17.1149 C   0  0  0  0  0  0  0  0  0  0  0  0
   17.9327  -10.7773  -15.5666 C   0  0  2  0  0  0  0  0  0  0  0  0
   18.2375  -11.7249  -14.4618 N   0  0  0  0  0  0  0  0  0  0  0  0
   18.0635   -9.4301  -14.9584 C   0  0  0  0  0  0  0  0  0  0  0  0
   18.1243   -8.3928  -15.7148 O   0  0  0  0  0  0  0  0  0  0  0  0
   18.1287   -9.1617  -13.5724 N   0  0  0  0  0  0  0  0  0  0  0  0
   18.2070   -7.7619  -13.0691 C   0  0  1  0  0  0  0  0  0  0  0  0
   17.5522   -7.7815  -11.7075 C   0  0  0  0  0  0  0  0  0  0  0  0
   17.6747   -6.5043  -10.9683 C   0  0  0  0  0  0  0  0  0  0  0  0
   16.9400   -6.5193   -9.6686 C   0  0  0  0  0  0  0  0  0  0  0  0
   17.2753   -5.7466   -8.7627 O   0  0  0  0  0  0  0  0  0  0  0  0
   19.6022   -7.3088  -13.0688 C   0  0  0  0  0  0  0  0  0  0  0  0
   20.4490   -7.9957  -12.4082 O   0  0  0  0  0  0  0  0  0  0  0  0
   15.9046   -7.4039   -9.5274 O   0  0  0  0  0  0  0  0  0  0  0  0
   22.2395   -7.5889  -15.1701 C   0  0  0  0  0  0  0  0  0  0  0  0
   22.1292   -6.0914  -15.0258 C   0  0  1  0  0  0  0  0  0  0  0  0
   21.3816   -5.5264  -16.0375 O   0  0  0  0  0  0  0  0  0  0  0  0
   21.5343   -5.8076  -13.6547 C   0  0  2  0  0  0  0  0  0  0  0  0
   20.1162   -6.1743  -13.7394 N   0  0  0  0  0  0  0  0  0  0  0  0
   21.6014   -4.3664  -13.3322 C   0  0  0  0  0  0  0  0  0  0  0  0
   22.6733   -3.7823  -13.1032 O   0  0  0  0  0  0  0  0  0  0  0  0
   20.4033   -3.6612  -13.2901 O   0  0  0  0  0  0  0  0  0  0  0  0
  2  1  1  6
  2  3  1  0
  4  2  1  0
  4  5  1  1
  6  4  1  0
  7  6  2  0
  8  6  1  0
  9  8  1  0
 10 11  1  0
  9 10  1  1
 12 16  1  0
 12 11  1  0
 13 12  2  0
 14 15  2  0
 14  9  1  0
 18 20  1  0
 18 17  1  6
 19 18  1  0
 20 21  1  6
 21 14  1  0
 22 20  1  0
 23 22  2  0
 24 22  1  0
M  END
$$$$
