RQC.pdb
     RDKit          3D

 27 26  0  0  1  0  0  0  0  0999 V2000
   14.5758   -6.4621   -7.5554 N   0  0  0  0  0  0  0  0  0  0  0  0
   13.5756   -7.3756   -7.9817 C   0  0  0  0  0  0  0  0  0  0  0  0
   12.5599   -7.6171   -7.2381 N   0  0  0  0  0  0  0  0  0  0  0  0
   13.7341   -8.0127   -9.2551 N   0  0  0  0  0  0  0  0  0  0  0  0
   14.7307   -7.4960  -10.1956 C   0  0  0  0  0  0  0  0  0  0  0  0
   15.1190   -8.5485  -11.1808 C   0  0  0  0  0  0  0  0  0  0  0  0
   14.5327   -8.4359  -12.5348 C   0  0  0  0  0  0  0  0  0  0  0  0
   15.0133   -9.3908  -13.5682 C   0  0  2  0  0  0  0  0  0  0  0  0
   14.8293  -10.7624  -13.2069 N   0  0  0  0  0  0  0  0  0  0  0  0
   16.3975   -9.0977  -14.0284 C   0  0  0  0  0  0  0  0  0  0  0  0
   17.3103   -9.9096  -13.7096 O   0  0  0  0  0  0  0  0  0  0  0  0
   11.8367   -8.2875   -7.5713 N   0  0  0  0  0  0  0  0  0  0  0  0
   17.4047   -5.0959  -18.5128 C   0  0  0  0  0  0  0  0  0  0  0  0
   18.7545   -5.4492  -18.3022 O   0  0  0  0  0  0  0  0  0  0  0  0
   19.6186   -4.9568  -19.0704 C   0  0  0  0  0  0  0  0  0  0  0  0
   19.1592   -6.3923  -17.1872 C   0  0  0  0  0  0  0  0  0  0  0  0
   17.9473   -6.8330  -16.4617 C   0  0  1  0  0  0  0  0  0  0  0  0
   18.1215   -7.7962  -15.3409 N   0  0  0  0  0  0  0  0  0  0  0  0
   16.7496   -7.9746  -14.7951 C   0  0  0  0  0  0  0  0  0  0  0  0
   19.0273   -7.3825  -14.2643 O   0  0  0  0  0  0  0  0  0  0  0  0
   18.5909   -6.7186  -13.2545 N   0  0  0  0  0  0  0  0  0  0  0  0
   20.4109   -7.6664  -14.2338 C   0  0  1  0  0  0  0  0  0  0  0  0
   21.2473   -7.1612  -13.1418 C   0  0  0  0  0  0  0  0  0  0  0  0
   22.1161   -8.2608  -12.5744 S   0  0  0  0  0  0  0  0  0  0  0  0
   23.2702   -7.6975  -11.3262 C   0  0  0  0  0  0  0  0  0  0  0  0
   22.1607   -6.1357  -13.6849 O   0  0  0  0  0  0  0  0  0  0  0  0
   22.7105   -5.1331  -12.9015 O   0  0  0  0  0  0  0  0  0  0  0  0
  1  2  1  0
  2  3  2  0
  4  2  1  0
  5  4  1  0
  6  5  1  0
  7  6  1  0
  8  7  1  0
  8  9  1  1
 10  8  1  0
 10 18  1  0
 11 10  2  0
 13 12  1  0
 14 13  2  0
 15 13  1  0
 17 16  1  6
 16 15  1  0
 17 18  1  0
 19 17  1  0
 20 19  2  0
 21 19  1  0
 22 25  1  0
 22 21  1  0
 23 24  1  0
 22 23  1  6
 25 26  1  0
 27 25  2  0
M  END
$$$$
