RQC.pdb
     RDKit          3D

 27 26  0  0  1  0  0  0  0  0999 V2000
   27.9366  -18.4832  -19.4563 N   0  0  0  0  0  0  0  0  0  0  0  0
   28.8472  -19.5268  -19.7701 C   0  0  0  0  0  0  0  0  0  0  0  0
   29.2178  -19.7203  -20.9817 N   0  0  0  0  0  0  0  0  0  0  0  0
   29.3343  -20.3487  -18.7024 N   0  0  0  0  0  0  0  0  0  0  0  0
   28.8662  -20.1012  -17.3370 C   0  0  0  0  0  0  0  0  0  0  0  0
   28.2257  -21.3255  -16.7711 C   0  0  0  0  0  0  0  0  0  0  0  0
   26.8234  -21.1896  -16.3187 C   0  0  0  0  0  0  0  0  0  0  0  0
   26.5686  -20.3252  -15.1360 C   0  0  2  0  0  0  0  0  0  0  0  0
   27.5699  -20.4380  -14.1210 N   0  0  0  0  0  0  0  0  0  0  0  0
   25.1878  -20.4686  -14.6006 C   0  0  0  0  0  0  0  0  0  0  0  0
   24.2387  -20.5510  -15.4291 O   0  0  0  0  0  0  0  0  0  0  0  0
   29.9696  -20.4134  -21.1764 N   0  0  0  0  0  0  0  0  0  0  0  0
   24.0552  -20.8964   -8.5695 C   0  0  0  0  0  0  0  0  0  0  0  0
   22.7358  -21.1168   -9.0188 O   0  0  0  0  0  0  0  0  0  0  0  0
   21.8599  -21.3915   -8.1605 C   0  0  0  0  0  0  0  0  0  0  0  0
   22.3767  -21.0271  -10.4883 C   0  0  0  0  0  0  0  0  0  0  0  0
   23.6146  -20.8521  -11.2797 C   0  0  1  0  0  0  0  0  0  0  0  0
   23.4779  -20.6689  -12.7501 N   0  0  0  0  0  0  0  0  0  0  0  0
   24.8768  -20.5180  -13.2317 C   0  0  0  0  0  0  0  0  0  0  0  0
   22.6815  -19.5186  -13.1896 O   0  0  0  0  0  0  0  0  0  0  0  0
   23.1871  -18.3376  -13.2137 N   0  0  0  0  0  0  0  0  0  0  0  0
   21.3367  -19.5964  -13.6154 C   0  0  1  0  0  0  0  0  0  0  0  0
   20.6849  -18.4357  -14.2281 C   0  0  0  0  0  0  0  0  0  0  0  0
   21.1269  -18.2640  -15.6637 S   0  0  0  0  0  0  0  0  0  0  0  0
   21.3316  -16.5544  -16.1564 C   0  0  0  0  0  0  0  0  0  0  0  0
   19.2281  -18.6759  -14.2579 O   0  0  0  0  0  0  0  0  0  0  0  0
   18.3000  -17.6465  -14.2637 O   0  0  0  0  0  0  0  0  0  0  0  0
  1  2  1  0
  2  3  2  0
  4  2  1  0
  5  4  1  0
  6  5  1  0
  7  6  1  0
  8  7  1  0
  8  9  1  1
 10  8  1  0
 10 18  1  0
 11 10  2  0
 13 12  1  0
 14 13  2  0
 15 13  1  0
 17 16  1  6
 16 15  1  0
 17 18  1  0
 19 17  1  0
 20 19  2  0
 21 19  1  0
 22 25  1  0
 22 21  1  0
 23 24  1  0
 22 23  1  1
 25 26  1  0
 27 25  2  0
M  END
$$$$
