RQC.pdb
     RDKit          3D

 27 26  0  0  1  0  0  0  0  0999 V2000
   37.1963  -10.2704   -6.1860 N   0  0  0  0  0  0  0  0  0  0  0  0
   37.0677   -8.8977   -6.5263 C   0  0  0  0  0  0  0  0  0  0  0  0
   36.2287   -8.1527   -5.9065 N   0  0  0  0  0  0  0  0  0  0  0  0
   37.8955   -8.3756   -7.5726 N   0  0  0  0  0  0  0  0  0  0  0  0
   38.9442   -9.2219   -8.1461 C   0  0  0  0  0  0  0  0  0  0  0  0
   40.1935   -9.1340   -7.3332 C   0  0  0  0  0  0  0  0  0  0  0  0
   41.3485   -9.9281   -7.8076 C   0  0  0  0  0  0  0  0  0  0  0  0
   42.4290  -10.2140   -6.8269 C   0  0  2  0  0  0  0  0  0  0  0  0
   42.4559   -9.3015   -5.7259 N   0  0  0  0  0  0  0  0  0  0  0  0
   43.7617  -10.3833   -7.4666 C   0  0  0  0  0  0  0  0  0  0  0  0
   43.8668  -11.2296   -8.3974 O   0  0  0  0  0  0  0  0  0  0  0  0
   36.0689   -7.1811   -6.2441 N   0  0  0  0  0  0  0  0  0  0  0  0
   47.9514   -6.0211   -7.7104 C   0  0  0  0  0  0  0  0  0  0  0  0
   46.8933   -6.2037   -8.6261 O   0  0  0  0  0  0  0  0  0  0  0  0
   46.5314   -5.2150   -9.3122 C   0  0  0  0  0  0  0  0  0  0  0  0
   46.2088   -7.5464   -8.7843 C   0  0  0  0  0  0  0  0  0  0  0  0
   46.8173   -8.5141   -7.8447 C   0  0  2  0  0  0  0  0  0  0  0  0
   46.2193   -9.8744   -7.7658 N   0  0  0  0  0  0  0  0  0  0  0  0
   44.9079   -9.6596   -7.0982 C   0  0  0  0  0  0  0  0  0  0  0  0
   46.9880  -10.8793   -7.0242 O   0  0  0  0  0  0  0  0  0  0  0  0
   46.7478  -11.1088   -5.7831 N   0  0  0  0  0  0  0  0  0  0  0  0
   48.0225  -11.6629   -7.5825 C   0  0  1  0  0  0  0  0  0  0  0  0
   48.7426  -12.6364   -6.7572 C   0  0  0  0  0  0  0  0  0  0  0  0
   47.8136  -13.7277   -6.2757 S   0  0  0  0  0  0  0  0  0  0  0  0
   48.6538  -15.0844   -5.4628 C   0  0  0  0  0  0  0  0  0  0  0  0
   49.7705  -13.2909   -7.5914 O   0  0  0  0  0  0  0  0  0  0  0  0
   50.7323  -14.1392   -7.0653 O   0  0  0  0  0  0  0  0  0  0  0  0
  1  2  1  0
  2  3  2  0
  4  2  1  0
  5  4  1  0
  6  5  1  0
  7  6  1  0
  8  7  1  0
  8  9  1  1
 10  8  1  0
 10 18  1  0
 11 10  2  0
 13 12  1  0
 14 13  2  0
 15 13  1  0
 17 16  1  6
 16 15  1  0
 17 18  1  0
 19 17  1  0
 20 19  2  0
 21 19  1  0
 22 25  1  0
 22 21  1  0
 23 24  1  0
 22 23  1  1
 25 26  1  0
 27 25  2  0
M  END
$$$$
