RQC.pdb
     RDKit          3D

 27 26  0  0  1  0  0  0  0  0999 V2000
   16.8663  -19.7672  -17.2871 N   0  0  0  0  0  0  0  0  0  0  0  0
   18.0096  -19.8663  -16.4507 C   0  0  0  0  0  0  0  0  0  0  0  0
   18.9893  -19.0523  -16.5940 N   0  0  0  0  0  0  0  0  0  0  0  0
   18.0350  -20.8930  -15.4517 N   0  0  0  0  0  0  0  0  0  0  0  0
   19.1986  -21.0056  -14.5696 C   0  0  0  0  0  0  0  0  0  0  0  0
   19.7331  -22.3997  -14.5803 C   0  0  0  0  0  0  0  0  0  0  0  0
   19.0972  -23.3591  -13.6502 C   0  0  0  0  0  0  0  0  0  0  0  0
   19.6314  -24.7465  -13.6304 C   0  0  2  0  0  0  0  0  0  0  0  0
   19.5408  -25.4106  -14.8939 N   0  0  0  0  0  0  0  0  0  0  0  0
   19.0854  -25.5614  -12.5116 C   0  0  0  0  0  0  0  0  0  0  0  0
   17.8313  -25.6750  -12.4210 O   0  0  0  0  0  0  0  0  0  0  0  0
   19.8492  -19.1899  -16.0238 N   0  0  0  0  0  0  0  0  0  0  0  0
   22.2166  -30.0313   -9.9666 C   0  0  0  0  0  0  0  0  0  0  0  0
   21.1327  -30.0764   -9.0641 O   0  0  0  0  0  0  0  0  0  0  0  0
   21.0951  -31.0211   -8.2362 C   0  0  0  0  0  0  0  0  0  0  0  0
   20.0435  -29.0230   -9.0848 C   0  0  0  0  0  0  0  0  0  0  0  0
   20.2905  -28.0927  -10.2086 C   0  0  1  0  0  0  0  0  0  0  0  0
   19.2819  -27.0288  -10.4630 N   0  0  0  0  0  0  0  0  0  0  0  0
   19.8794  -26.2108  -11.5519 C   0  0  0  0  0  0  0  0  0  0  0  0
   18.9499  -26.1638   -9.3262 O   0  0  0  0  0  0  0  0  0  0  0  0
   19.0812  -24.8884   -9.4081 N   0  0  0  0  0  0  0  0  0  0  0  0
   18.4693  -26.6315   -8.0828 C   0  0  1  0  0  0  0  0  0  0  0  0
   18.2128  -25.6932   -6.9869 C   0  0  0  0  0  0  0  0  0  0  0  0
   17.0344  -24.8010   -7.3050 S   0  0  0  0  0  0  0  0  0  0  0  0
   16.5336  -23.7530   -5.9419 C   0  0  0  0  0  0  0  0  0  0  0  0
   17.8478  -26.4655   -5.7822 O   0  0  0  0  0  0  0  0  0  0  0  0
   17.9924  -25.9627   -4.4987 O   0  0  0  0  0  0  0  0  0  0  0  0
  1  2  1  0
  2  3  2  0
  4  2  1  0
  5  4  1  0
  6  5  1  0
  7  6  1  0
  8  7  1  0
  8  9  1  6
 10  8  1  0
 10 18  1  0
 11 10  2  0
 13 12  1  0
 14 13  2  0
 15 13  1  0
 17 16  1  6
 16 15  1  0
 17 18  1  0
 19 17  1  0
 20 19  2  0
 21 19  1  0
 22 25  1  0
 22 21  1  0
 23 24  1  0
 22 23  1  1
 25 26  1  0
 27 25  2  0
M  END
$$$$
