RQC.pdb
     RDKit          3D

 27 26  0  0  1  0  0  0  0  0999 V2000
   25.0581  -15.2152  -17.3001 N   0  0  0  0  0  0  0  0  0  0  0  0
   25.7101  -15.2677  -16.0396 C   0  0  0  0  0  0  0  0  0  0  0  0
   25.2384  -14.6201  -15.0391 N   0  0  0  0  0  0  0  0  0  0  0  0
   26.8990  -16.0584  -15.9209 N   0  0  0  0  0  0  0  0  0  0  0  0
   27.3861  -16.7990  -17.0866 C   0  0  0  0  0  0  0  0  0  0  0  0
   27.4759  -18.2580  -16.7824 C   0  0  0  0  0  0  0  0  0  0  0  0
   27.7292  -18.6252  -15.3714 C   0  0  0  0  0  0  0  0  0  0  0  0
   27.8956  -20.0698  -15.0615 C   0  0  2  0  0  0  0  0  0  0  0  0
   28.2945  -20.8529  -16.1899 N   0  0  0  0  0  0  0  0  0  0  0  0
   26.7261  -20.6469  -14.3452 C   0  0  0  0  0  0  0  0  0  0  0  0
   26.0435  -21.5260  -14.9411 O   0  0  0  0  0  0  0  0  0  0  0  0
   25.7234  -14.6847  -14.1203 N   0  0  0  0  0  0  0  0  0  0  0  0
   25.5308  -20.3689   -8.1807 C   0  0  0  0  0  0  0  0  0  0  0  0
   26.6489  -20.9269   -8.8364 O   0  0  0  0  0  0  0  0  0  0  0  0
   27.6893  -21.1254   -8.1600 C   0  0  0  0  0  0  0  0  0  0  0  0
   26.6060  -21.2790  -10.3097 C   0  0  0  0  0  0  0  0  0  0  0  0
   25.4132  -20.6537  -10.9226 C   0  0  2  0  0  0  0  0  0  0  0  0
   25.1688  -20.8970  -12.3702 N   0  0  0  0  0  0  0  0  0  0  0  0
   26.3364  -20.2736  -13.0483 C   0  0  0  0  0  0  0  0  0  0  0  0
   23.9282  -20.3421  -12.9212 O   0  0  0  0  0  0  0  0  0  0  0  0
   23.9224  -19.2023  -13.5142 N   0  0  0  0  0  0  0  0  0  0  0  0
   22.6713  -20.9841  -12.8588 C   0  0  1  0  0  0  0  0  0  0  0  0
   21.6305  -20.6729  -13.8422 C   0  0  0  0  0  0  0  0  0  0  0  0
   21.9588  -21.2820  -15.1865 S   0  0  0  0  0  0  0  0  0  0  0  0
   20.6635  -21.0793  -16.4065 C   0  0  0  0  0  0  0  0  0  0  0  0
   20.3634  -21.2864  -13.3959 O   0  0  0  0  0  0  0  0  0  0  0  0
   20.3154  -22.4912  -12.7122 O   0  0  0  0  0  0  0  0  0  0  0  0
  1  2  1  0
  2  3  2  0
  4  2  1  0
  5  4  1  0
  6  5  1  0
  7  6  1  0
  8  7  1  0
  8  9  1  6
 10  8  1  0
 10 18  1  0
 11 10  2  0
 13 12  1  0
 14 13  2  0
 15 13  1  0
 17 16  1  1
 16 15  1  0
 17 18  1  0
 19 17  1  0
 20 19  2  0
 21 19  1  0
 22 25  1  0
 22 21  1  0
 23 24  1  0
 22 23  1  1
 25 26  1  0
 27 25  2  0
M  END
$$$$
