RQC.pdb
     RDKit          3D

 27 26  0  0  1  0  0  0  0  0999 V2000
   17.4771  -25.4809  -10.4149 N   0  0  0  0  0  0  0  0  0  0  0  0
   16.3957  -24.5996  -10.1490 C   0  0  0  0  0  0  0  0  0  0  0  0
   15.4995  -24.9155   -9.2889 N   0  0  0  0  0  0  0  0  0  0  0  0
   16.3372  -23.3593  -10.8637 N   0  0  0  0  0  0  0  0  0  0  0  0
   17.4873  -22.9411  -11.6682 C   0  0  0  0  0  0  0  0  0  0  0  0
   18.6714  -22.6806  -10.7968 C   0  0  0  0  0  0  0  0  0  0  0  0
   19.9141  -22.2562  -11.4788 C   0  0  0  0  0  0  0  0  0  0  0  0
   20.0498  -22.5917  -12.9210 C   0  0  2  0  0  0  0  0  0  0  0  0
   19.7329  -23.9536  -13.2219 N   0  0  0  0  0  0  0  0  0  0  0  0
   21.3544  -22.1642  -13.4947 C   0  0  0  0  0  0  0  0  0  0  0  0
   22.3511  -22.9198  -13.3231 O   0  0  0  0  0  0  0  0  0  0  0  0
   14.7197  -24.2514   -9.1034 N   0  0  0  0  0  0  0  0  0  0  0  0
   21.5526  -17.9841  -17.8992 C   0  0  0  0  0  0  0  0  0  0  0  0
   22.9383  -18.2485  -17.8636 O   0  0  0  0  0  0  0  0  0  0  0  0
   23.6638  -17.7047  -18.7338 C   0  0  0  0  0  0  0  0  0  0  0  0
   23.5420  -19.1583  -16.8127 C   0  0  0  0  0  0  0  0  0  0  0  0
   22.4647  -19.6647  -15.9338 C   0  0  2  0  0  0  0  0  0  0  0  0
   22.8308  -20.6619  -14.8917 N   0  0  0  0  0  0  0  0  0  0  0  0
   21.5437  -20.9730  -14.2147 C   0  0  0  0  0  0  0  0  0  0  0  0
   23.8160  -20.2281  -13.8958 O   0  0  0  0  0  0  0  0  0  0  0  0
   23.6329  -19.1565  -13.2110 N   0  0  0  0  0  0  0  0  0  0  0  0
   25.0115  -20.9215  -13.6030 C   0  0  1  0  0  0  0  0  0  0  0  0
   26.1078  -20.2461  -12.9036 C   0  0  0  0  0  0  0  0  0  0  0  0
   26.9086  -21.2287  -12.0794 S   0  0  0  0  0  0  0  0  0  0  0  0
   25.9382  -22.1016  -10.8531 C   0  0  0  0  0  0  0  0  0  0  0  0
   27.0313  -19.6834  -13.9093 O   0  0  0  0  0  0  0  0  0  0  0  0
   28.1477  -18.9374  -13.5655 O   0  0  0  0  0  0  0  0  0  0  0  0
  1  2  1  0
  2  3  2  0
  4  2  1  0
  5  4  1  0
  6  5  1  0
  7  6  1  0
  8  7  1  0
  8  9  1  1
 10  8  1  0
 10 18  1  0
 11 10  2  0
 13 12  1  0
 14 13  2  0
 15 13  1  0
 17 16  1  6
 16 15  1  0
 17 18  1  0
 19 17  1  0
 20 19  2  0
 21 19  1  0
 22 25  1  0
 22 21  1  0
 23 24  1  0
 22 23  1  6
 25 26  1  0
 27 25  2  0
M  END
$$$$
