RQC.pdb
     RDKit          3D

 27 26  0  0  1  0  0  0  0  0999 V2000
   16.2341  -26.5686   -4.4830 N   0  0  0  0  0  0  0  0  0  0  0  0
   15.7897  -25.3296   -5.0160 C   0  0  0  0  0  0  0  0  0  0  0  0
   16.1189  -24.9807   -6.2046 N   0  0  0  0  0  0  0  0  0  0  0  0
   14.9705  -24.4898   -4.1937 N   0  0  0  0  0  0  0  0  0  0  0  0
   14.5478  -24.9699   -2.8763 C   0  0  0  0  0  0  0  0  0  0  0  0
   13.7102  -23.9440   -2.1869 C   0  0  0  0  0  0  0  0  0  0  0  0
   14.3962  -23.0893   -1.1927 C   0  0  0  0  0  0  0  0  0  0  0  0
   13.5474  -22.2021   -0.3541 C   0  0  2  0  0  0  0  0  0  0  0  0
   12.6431  -21.3943   -1.1127 N   0  0  0  0  0  0  0  0  0  0  0  0
   14.3327  -21.4139    0.6338 C   0  0  0  0  0  0  0  0  0  0  0  0
   14.5059  -20.1845    0.4047 O   0  0  0  0  0  0  0  0  0  0  0  0
   15.8171  -24.0504   -6.5608 N   0  0  0  0  0  0  0  0  0  0  0  0
   12.4877  -18.4346    3.9518 C   0  0  0  0  0  0  0  0  0  0  0  0
   13.7865  -17.8854    3.9002 O   0  0  0  0  0  0  0  0  0  0  0  0
   13.9186  -16.6616    4.1531 C   0  0  0  0  0  0  0  0  0  0  0  0
   14.9907  -18.7370    3.5517 C   0  0  0  0  0  0  0  0  0  0  0  0
   14.5347  -20.1002    3.2007 C   0  0  2  0  0  0  0  0  0  0  0  0
   15.5678  -21.0999    2.8165 N   0  0  0  0  0  0  0  0  0  0  0  0
   14.8920  -21.9539    1.8037 C   0  0  0  0  0  0  0  0  0  0  0  0
   16.0899  -21.9419    3.8978 O   0  0  0  0  0  0  0  0  0  0  0  0
   15.6550  -23.1387    4.0696 N   0  0  0  0  0  0  0  0  0  0  0  0
   17.0844  -21.5353    4.8150 C   0  0  1  0  0  0  0  0  0  0  0  0
   17.5628  -22.4588    5.8473 C   0  0  0  0  0  0  0  0  0  0  0  0
   18.7194  -23.2874    5.3360 S   0  0  0  0  0  0  0  0  0  0  0  0
   19.5718  -24.2049    6.6162 C   0  0  0  0  0  0  0  0  0  0  0  0
   18.0764  -21.6682    6.9840 O   0  0  0  0  0  0  0  0  0  0  0  0
   18.1989  -22.1888    8.2628 O   0  0  0  0  0  0  0  0  0  0  0  0
  1  2  1  0
  2  3  2  0
  4  2  1  0
  5  4  1  0
  6  5  1  0
  7  6  1  0
  8  7  1  0
  8  9  1  6
 10  8  1  0
 10 18  1  0
 11 10  2  0
 13 12  1  0
 14 13  2  0
 15 13  1  0
 17 16  1  6
 16 15  1  0
 17 18  1  0
 19 17  1  0
 20 19  2  0
 21 19  1  0
 22 25  1  0
 22 21  1  0
 23 24  1  0
 22 23  1  1
 25 26  1  0
 27 25  2  0
M  END
$$$$
