RQC.pdb
     RDKit          3D

 27 26  0  0  1  0  0  0  0  0999 V2000
   30.5163  -26.4448  -15.0640 N   0  0  0  0  0  0  0  0  0  0  0  0
   31.3586  -26.1081  -16.1566 C   0  0  0  0  0  0  0  0  0  0  0  0
   32.1496  -26.9832  -16.6581 N   0  0  0  0  0  0  0  0  0  0  0  0
   31.2982  -24.7745  -16.6767 N   0  0  0  0  0  0  0  0  0  0  0  0
   30.1136  -23.9552  -16.4115 C   0  0  0  0  0  0  0  0  0  0  0  0
   29.1441  -24.0513  -17.5429 C   0  0  0  0  0  0  0  0  0  0  0  0
   27.9643  -23.1603  -17.4807 C   0  0  0  0  0  0  0  0  0  0  0  0
   26.8382  -23.5791  -16.6048 C   0  0  2  0  0  0  0  0  0  0  0  0
   26.4687  -24.9511  -16.7678 N   0  0  0  0  0  0  0  0  0  0  0  0
   25.6731  -22.6567  -16.6786 C   0  0  0  0  0  0  0  0  0  0  0  0
   24.8536  -22.8151  -17.6259 O   0  0  0  0  0  0  0  0  0  0  0  0
   32.7300  -26.7269  -17.4833 N   0  0  0  0  0  0  0  0  0  0  0  0
   22.1978  -20.1246  -12.3851 C   0  0  0  0  0  0  0  0  0  0  0  0
   22.0002  -21.3493  -13.0578 O   0  0  0  0  0  0  0  0  0  0  0  0
   21.2331  -22.1934  -12.5305 C   0  0  0  0  0  0  0  0  0  0  0  0
   22.6874  -21.6462  -14.3755 C   0  0  0  0  0  0  0  0  0  0  0  0
   23.6369  -20.5540  -14.6837 C   0  0  2  0  0  0  0  0  0  0  0  0
   24.3624  -20.6111  -15.9816 N   0  0  0  0  0  0  0  0  0  0  0  0
   25.4301  -21.6224  -15.7598 C   0  0  0  0  0  0  0  0  0  0  0  0
   24.9643  -19.3565  -16.4444 O   0  0  0  0  0  0  0  0  0  0  0  0
   25.8657  -18.7618  -15.7482 N   0  0  0  0  0  0  0  0  0  0  0  0
   24.6268  -18.7093  -17.6540 C   0  0  1  0  0  0  0  0  0  0  0  0
   25.3292  -17.4902  -18.0634 C   0  0  0  0  0  0  0  0  0  0  0  0
   26.3842  -17.7981  -19.1017 S   0  0  0  0  0  0  0  0  0  0  0  0
   27.9273  -18.3880  -18.4100 C   0  0  0  0  0  0  0  0  0  0  0  0
   24.3576  -16.5797  -18.7021 O   0  0  0  0  0  0  0  0  0  0  0  0
   24.6754  -15.2795  -19.0622 O   0  0  0  0  0  0  0  0  0  0  0  0
  1  2  1  0
  2  3  2  0
  4  2  1  0
  5  4  1  0
  6  5  1  0
  7  6  1  0
  8  7  1  0
  8  9  1  6
 10  8  1  0
 10 18  1  0
 11 10  2  0
 13 12  1  0
 14 13  2  0
 15 13  1  0
 17 16  1  6
 16 15  1  0
 17 18  1  0
 19 17  1  0
 20 19  2  0
 21 19  1  0
 22 25  1  0
 22 21  1  0
 23 24  1  0
 22 23  1  1
 25 26  1  0
 27 25  2  0
M  END
$$$$
