RQC.pdb
     RDKit          3D

 27 26  0  0  1  0  0  0  0  0999 V2000
   28.1798  -23.6334  -16.2742 N   0  0  0  0  0  0  0  0  0  0  0  0
   27.0586  -24.5046  -16.2521 C   0  0  0  0  0  0  0  0  0  0  0  0
   27.2172  -25.7588  -16.0406 N   0  0  0  0  0  0  0  0  0  0  0  0
   25.7578  -23.9453  -16.4710 N   0  0  0  0  0  0  0  0  0  0  0  0
   25.6334  -22.5176  -16.7724 C   0  0  0  0  0  0  0  0  0  0  0  0
   25.8076  -21.7019  -15.5341 C   0  0  0  0  0  0  0  0  0  0  0  0
   24.5750  -21.3499  -14.7949 C   0  0  0  0  0  0  0  0  0  0  0  0
   23.6260  -20.4156  -15.4563 C   0  0  2  0  0  0  0  0  0  0  0  0
   24.1960  -19.1372  -15.7504 N   0  0  0  0  0  0  0  0  0  0  0  0
   22.3227  -20.3147  -14.7456 C   0  0  0  0  0  0  0  0  0  0  0  0
   22.2759  -19.6178  -13.6939 O   0  0  0  0  0  0  0  0  0  0  0  0
   26.3772  -26.3630  -15.9268 N   0  0  0  0  0  0  0  0  0  0  0  0
   19.4888  -18.2155  -17.2736 C   0  0  0  0  0  0  0  0  0  0  0  0
   18.9461  -17.7447  -16.0591 O   0  0  0  0  0  0  0  0  0  0  0  0
   18.7595  -16.5079  -15.9380 C   0  0  0  0  0  0  0  0  0  0  0  0
   18.5960  -18.6933  -14.9302 C   0  0  0  0  0  0  0  0  0  0  0  0
   18.9694  -20.0706  -15.3214 C   0  0  2  0  0  0  0  0  0  0  0  0
   19.8707  -20.8297  -14.4127 N   0  0  0  0  0  0  0  0  0  0  0  0
   21.1433  -20.9466  -15.1733 C   0  0  0  0  0  0  0  0  0  0  0  0
   19.4145  -22.1648  -14.0127 O   0  0  0  0  0  0  0  0  0  0  0  0
   19.6027  -23.1815  -14.7753 N   0  0  0  0  0  0  0  0  0  0  0  0
   18.7540  -22.4501  -12.7968 C   0  0  2  0  0  0  0  0  0  0  0  0
   18.2870  -23.8087  -12.5081 C   0  0  0  0  0  0  0  0  0  0  0  0
   17.7920  -23.9178  -11.0837 S   0  0  0  0  0  0  0  0  0  0  0  0
   16.6810  -22.5982  -10.6024 C   0  0  0  0  0  0  0  0  0  0  0  0
   17.1344  -24.1055  -13.3823 O   0  0  0  0  0  0  0  0  0  0  0  0
   16.6629  -25.3926  -13.5877 O   0  0  0  0  0  0  0  0  0  0  0  0
  1  2  1  0
  2  3  2  0
  4  2  1  0
  5  4  1  0
  6  5  1  0
  7  6  1  0
  8  7  1  0
  8  9  1  1
 10  8  1  0
 10 18  1  0
 11 10  2  0
 13 12  1  0
 14 13  2  0
 15 13  1  0
 17 16  1  1
 16 15  1  0
 17 18  1  0
 19 17  1  0
 20 19  2  0
 21 19  1  0
 22 25  1  0
 22 21  1  0
 23 24  1  0
 22 23  1  6
 25 26  1  0
 27 25  2  0
M  END
$$$$
