RQC.pdb
     RDKit          3D

 27 26  0  0  1  0  0  0  0  0999 V2000
   27.1651  -20.4623  -10.4818 N   0  0  0  0  0  0  0  0  0  0  0  0
   25.9845  -21.1643  -10.1214 C   0  0  0  0  0  0  0  0  0  0  0  0
   25.4930  -21.0432   -8.9438 N   0  0  0  0  0  0  0  0  0  0  0  0
   25.3652  -22.0035  -11.1037 N   0  0  0  0  0  0  0  0  0  0  0  0
   26.0084  -22.1741  -12.4083 C   0  0  0  0  0  0  0  0  0  0  0  0
   24.9836  -22.3235  -13.4839 C   0  0  0  0  0  0  0  0  0  0  0  0
   23.6271  -21.8163  -13.1801 C   0  0  0  0  0  0  0  0  0  0  0  0
   22.5775  -22.0127  -14.2149 C   0  0  2  0  0  0  0  0  0  0  0  0
   22.4852  -23.3603  -14.6849 N   0  0  0  0  0  0  0  0  0  0  0  0
   22.6629  -21.0219  -15.3216 C   0  0  0  0  0  0  0  0  0  0  0  0
   22.0590  -21.2857  -16.3984 O   0  0  0  0  0  0  0  0  0  0  0  0
   24.6705  -21.6224   -8.6767 N   0  0  0  0  0  0  0  0  0  0  0  0
   19.3406  -17.4395  -16.0042 C   0  0  0  0  0  0  0  0  0  0  0  0
   20.1563  -16.7370  -16.9166 O   0  0  0  0  0  0  0  0  0  0  0  0
   19.6602  -15.7441  -17.5060 C   0  0  0  0  0  0  0  0  0  0  0  0
   21.5870  -17.1592  -17.1840 C   0  0  0  0  0  0  0  0  0  0  0  0
   21.9253  -18.3048  -16.3108 C   0  0  1  0  0  0  0  0  0  0  0  0
   23.3276  -18.8020  -16.3309 N   0  0  0  0  0  0  0  0  0  0  0  0
   23.3732  -19.8127  -15.2409 C   0  0  0  0  0  0  0  0  0  0  0  0
   24.3751  -17.7990  -16.1133 O   0  0  0  0  0  0  0  0  0  0  0  0
   24.3348  -17.0138  -15.0971 N   0  0  0  0  0  0  0  0  0  0  0  0
   25.4868  -17.6103  -16.9644 C   0  0  1  0  0  0  0  0  0  0  0  0
   26.5058  -16.6079  -16.6414 C   0  0  0  0  0  0  0  0  0  0  0  0
   27.8927  -17.2057  -16.7133 S   0  0  0  0  0  0  0  0  0  0  0  0
   28.1238  -18.6237  -15.6441 C   0  0  0  0  0  0  0  0  0  0  0  0
   26.4514  -15.5377  -17.6576 O   0  0  0  0  0  0  0  0  0  0  0  0
   27.2689  -14.4194  -17.6111 O   0  0  0  0  0  0  0  0  0  0  0  0
  1  2  1  0
  2  3  2  0
  4  2  1  0
  5  4  1  0
  6  5  1  0
  7  6  1  0
  8  7  1  0
  8  9  1  6
 10  8  1  0
 10 18  1  0
 11 10  2  0
 13 12  1  0
 14 13  2  0
 15 13  1  0
 17 16  1  6
 16 15  1  0
 17 18  1  0
 19 17  1  0
 20 19  2  0
 21 19  1  0
 22 25  1  0
 22 21  1  0
 23 24  1  0
 22 23  1  6
 25 26  1  0
 27 25  2  0
M  END
$$$$
