RQC.pdb
     RDKit          3D

 27 26  0  0  1  0  0  0  0  0999 V2000
   26.2849  -24.9790  -15.6244 N   0  0  0  0  0  0  0  0  0  0  0  0
   26.9467  -25.3546  -16.8234 C   0  0  0  0  0  0  0  0  0  0  0  0
   26.8452  -26.5511  -17.2716 N   0  0  0  0  0  0  0  0  0  0  0  0
   27.7234  -24.3659  -17.5104 N   0  0  0  0  0  0  0  0  0  0  0  0
   27.7087  -22.9825  -17.0300 C   0  0  0  0  0  0  0  0  0  0  0  0
   26.4094  -22.3253  -17.3603 C   0  0  0  0  0  0  0  0  0  0  0  0
   26.2649  -20.9076  -16.9614 C   0  0  0  0  0  0  0  0  0  0  0  0
   25.0070  -20.2150  -17.3471 C   0  0  2  0  0  0  0  0  0  0  0  0
   25.1736  -19.2872  -18.4227 N   0  0  0  0  0  0  0  0  0  0  0  0
   24.2907  -19.6250  -16.1840 C   0  0  0  0  0  0  0  0  0  0  0  0
   24.7775  -18.5872  -15.6551 O   0  0  0  0  0  0  0  0  0  0  0  0
   27.4505  -26.8475  -18.0648 N   0  0  0  0  0  0  0  0  0  0  0  0
   18.5673  -20.6575  -14.8924 C   0  0  0  0  0  0  0  0  0  0  0  0
   18.8165  -19.8655  -13.7514 O   0  0  0  0  0  0  0  0  0  0  0  0
   17.8775  -19.7013  -12.9324 C   0  0  0  0  0  0  0  0  0  0  0  0
   20.1708  -19.2288  -13.5124 C   0  0  0  0  0  0  0  0  0  0  0  0
   21.0661  -19.5555  -14.6443 C   0  0  1  0  0  0  0  0  0  0  0  0
   22.5273  -19.6318  -14.3733 N   0  0  0  0  0  0  0  0  0  0  0  0
   23.1077  -20.1519  -15.6399 C   0  0  0  0  0  0  0  0  0  0  0  0
   22.9365  -20.4909  -13.2576 O   0  0  0  0  0  0  0  0  0  0  0  0
   22.9244  -21.7706  -13.3723 N   0  0  0  0  0  0  0  0  0  0  0  0
   23.3698  -20.0127  -12.0009 C   0  0  1  0  0  0  0  0  0  0  0  0
   23.5425  -20.9357  -10.8759 C   0  0  0  0  0  0  0  0  0  0  0  0
   24.7126  -20.5214  -10.0127 S   0  0  0  0  0  0  0  0  0  0  0  0
   24.9303  -21.5389   -8.5551 C   0  0  0  0  0  0  0  0  0  0  0  0
   22.3394  -20.8669  -10.0222 O   0  0  0  0  0  0  0  0  0  0  0  0
   21.9111  -21.9321   -9.2456 O   0  0  0  0  0  0  0  0  0  0  0  0
  1  2  1  0
  2  3  2  0
  4  2  1  0
  5  4  1  0
  6  5  1  0
  7  6  1  0
  8  7  1  0
  8  9  1  6
 10  8  1  0
 10 18  1  0
 11 10  2  0
 13 12  1  0
 14 13  2  0
 15 13  1  0
 17 16  1  6
 16 15  1  0
 17 18  1  0
 19 17  1  0
 20 19  2  0
 21 19  1  0
 22 25  1  0
 22 21  1  0
 23 24  1  0
 22 23  1  1
 25 26  1  0
 27 25  2  0
M  END
$$$$
