PET.pdb
     RDKit          3D

 24 24  0  0  1  0  0  0  0  0999 V2000
    9.2056  -14.3194   18.9125 N   0  0  0  0  0  0  0  0  0  0  0  0
    8.7645  -13.7728   17.6100 C   0  0  0  0  0  0  0  0  0  0  0  0
    7.2692  -13.9522   17.7117 C   0  0  0  0  0  0  0  0  0  0  0  0
    6.9832  -13.5819   19.1424 C   0  0  0  0  0  0  0  0  0  0  0  0
    8.3384  -13.6032   19.8239 C   0  0  1  0  0  0  0  0  0  0  0  0
    8.2046  -14.2791   21.1136 C   0  0  0  0  0  0  0  0  0  0  0  0
    7.3761  -13.8012   21.9535 O   0  0  0  0  0  0  0  0  0  0  0  0
    8.9340  -15.4281   21.4918 N   0  0  0  0  0  0  0  0  0  0  0  0
    8.7642  -16.0055   22.8199 C   0  0  1  0  0  0  0  0  0  0  0  0
    9.7201  -17.1588   23.0268 C   0  0  0  0  0  0  0  0  0  0  0  0
    9.5063  -17.8451   24.3531 C   0  0  0  0  0  0  0  0  0  0  0  0
   10.5561  -18.8884   24.4911 C   0  0  0  0  0  0  0  0  0  0  0  0
   10.2623  -20.1255   24.6031 O   0  0  0  0  0  0  0  0  0  0  0  0
    8.8864  -14.9800   23.8745 C   0  0  0  0  0  0  0  0  0  0  0  0
    9.7164  -14.0384   23.8184 O   0  0  0  0  0  0  0  0  0  0  0  0
   11.9149  -18.5945   24.5079 O   0  0  0  0  0  0  0  0  0  0  0  0
    6.5998  -12.2704   27.0757 C   0  0  0  0  0  0  0  0  0  0  0  0
    6.7111  -13.3316   26.0225 C   0  0  1  0  0  0  0  0  0  0  0  0
    6.5653  -12.7775   24.7636 O   0  0  0  0  0  0  0  0  0  0  0  0
    8.0494  -14.0430   26.0540 C   0  0  2  0  0  0  0  0  0  0  0  0
    8.0448  -15.0285   25.0174 N   0  0  0  0  0  0  0  0  0  0  0  0
    8.3871  -14.5607   27.3756 C   0  0  0  0  0  0  0  0  0  0  0  0
    8.5855  -13.7010   28.4386 O   0  0  0  0  0  0  0  0  0  0  0  0
    8.5001  -15.7932   27.5574 O   0  0  0  0  0  0  0  0  0  0  0  0
  1  2  1  0
  3  2  1  0
  4  3  1  0
  5  4  1  0
  5  1  1  0
  5  6  1  1
  7  6  2  0
  8  6  1  0
  9 14  1  0
  9  8  1  0
  9 10  1  1
 11 10  1  0
 12 11  1  0
 13 12  2  0
 14 15  2  0
 16 12  1  0
 18 17  1  1
 18 19  1  0
 18 20  1  0
 20 21  1  6
 21 14  1  0
 22 20  1  0
 22 23  1  0
 24 22  2  0
M  END
$$$$
