PET.pdb
     RDKit          3D

 24 24  0  0  1  0  0  0  0  0999 V2000
    9.1019  -14.5081   19.2555 N   0  0  0  0  0  0  0  0  0  0  0  0
    8.8173  -13.8443   17.9639 C   0  0  0  0  0  0  0  0  0  0  0  0
    7.3466  -13.5387   18.1128 C   0  0  0  0  0  0  0  0  0  0  0  0
    7.2382  -13.1025   19.5494 C   0  0  0  0  0  0  0  0  0  0  0  0
    8.5366  -13.5568   20.1889 C   0  0  1  0  0  0  0  0  0  0  0  0
    8.2350  -14.1602   21.4861 C   0  0  0  0  0  0  0  0  0  0  0  0
    7.5534  -13.4776   22.3166 O   0  0  0  0  0  0  0  0  0  0  0  0
    8.6498  -15.4513   21.8814 N   0  0  0  0  0  0  0  0  0  0  0  0
    8.3596  -15.9403   23.2241 C   0  0  1  0  0  0  0  0  0  0  0  0
    9.0086  -17.2867   23.4537 C   0  0  0  0  0  0  0  0  0  0  0  0
    8.6710  -17.8584   24.8083 C   0  0  0  0  0  0  0  0  0  0  0  0
    9.3739  -19.1624   24.9312 C   0  0  0  0  0  0  0  0  0  0  0  0
    8.7565  -20.2289   25.2641 O   0  0  0  0  0  0  0  0  0  0  0  0
    8.7393  -14.9523   24.2528 C   0  0  0  0  0  0  0  0  0  0  0  0
    9.8840  -14.4384   24.3165 O   0  0  0  0  0  0  0  0  0  0  0  0
   10.7360  -19.3111   24.6953 O   0  0  0  0  0  0  0  0  0  0  0  0
    6.7495  -11.7844   25.3864 C   0  0  0  0  0  0  0  0  0  0  0  0
    6.9253  -12.7428   26.5259 C   0  0  1  0  0  0  0  0  0  0  0  0
    5.7964  -13.5282   26.6728 O   0  0  0  0  0  0  0  0  0  0  0  0
    8.1043  -13.6743   26.3246 C   0  0  2  0  0  0  0  0  0  0  0  0
    7.7943  -14.5410   25.2299 N   0  0  0  0  0  0  0  0  0  0  0  0
    8.4977  -14.3658   27.5476 C   0  0  0  0  0  0  0  0  0  0  0  0
    8.9299  -13.6546   28.6503 O   0  0  0  0  0  0  0  0  0  0  0  0
    8.4464  -15.6143   27.6075 O   0  0  0  0  0  0  0  0  0  0  0  0
  1  2  1  0
  3  2  1  0
  4  3  1  0
  5  4  1  0
  5  1  1  0
  5  6  1  1
  7  6  2  0
  8  6  1  0
  9 14  1  0
  9  8  1  0
  9 10  1  1
 11 10  1  0
 12 11  1  0
 13 12  2  0
 14 15  2  0
 16 12  1  0
 18 17  1  6
 18 19  1  0
 18 20  1  0
 20 21  1  6
 21 14  1  0
 22 20  1  0
 22 23  1  0
 24 22  2  0
M  END
$$$$
