PET.pdb
     RDKit          3D

 24 24  0  0  1  0  0  0  0  0999 V2000
    7.6818  -14.8392   19.2672 N   0  0  0  0  0  0  0  0  0  0  0  0
    7.3907  -13.8278   18.2269 C   0  0  0  0  0  0  0  0  0  0  0  0
    7.2507  -12.5808   19.0660 C   0  0  0  0  0  0  0  0  0  0  0  0
    8.3491  -12.7358   20.0835 C   0  0  0  0  0  0  0  0  0  0  0  0
    8.7570  -14.1940   19.9907 C   0  0  1  0  0  0  0  0  0  0  0  0
    8.9153  -14.7241   21.3442 C   0  0  0  0  0  0  0  0  0  0  0  0
    9.8050  -14.2005   22.0888 O   0  0  0  0  0  0  0  0  0  0  0  0
    8.1469  -15.7801   21.8825 N   0  0  0  0  0  0  0  0  0  0  0  0
    8.3404  -16.2030   23.2645 C   0  0  1  0  0  0  0  0  0  0  0  0
    9.4169  -17.2613   23.3532 C   0  0  0  0  0  0  0  0  0  0  0  0
    9.6557  -17.7135   24.7725 C   0  0  0  0  0  0  0  0  0  0  0  0
   10.7561  -18.7124   24.7443 C   0  0  0  0  0  0  0  0  0  0  0  0
   11.1658  -19.2290   23.6513 O   0  0  0  0  0  0  0  0  0  0  0  0
    8.6110  -15.0526   24.1487 C   0  0  0  0  0  0  0  0  0  0  0  0
    9.6432  -14.3431   24.0496 O   0  0  0  0  0  0  0  0  0  0  0  0
   11.4087  -19.1492   25.8916 O   0  0  0  0  0  0  0  0  0  0  0  0
    6.2795  -12.0713   25.0207 C   0  0  0  0  0  0  0  0  0  0  0  0
    6.5972  -12.8790   26.2432 C   0  0  1  0  0  0  0  0  0  0  0  0
    5.5939  -13.7995   26.4861 O   0  0  0  0  0  0  0  0  0  0  0  0
    7.8970  -13.6478   26.1097 C   0  0  2  0  0  0  0  0  0  0  0  0
    7.6855  -14.7031   25.1677 N   0  0  0  0  0  0  0  0  0  0  0  0
    8.4331  -14.0853   27.3941 C   0  0  0  0  0  0  0  0  0  0  0  0
    8.6144  -15.4288   27.6603 O   0  0  0  0  0  0  0  0  0  0  0  0
    8.7343  -13.2432   28.2688 O   0  0  0  0  0  0  0  0  0  0  0  0
  1  2  1  0
  3  2  1  0
  4  3  1  0
  5  4  1  0
  5  1  1  0
  5  6  1  1
  7  6  2  0
  8  6  1  0
  9 14  1  0
  9  8  1  0
  9 10  1  6
 11 10  1  0
 12 11  1  0
 13 12  2  0
 14 15  2  0
 16 12  1  0
 18 17  1  6
 18 19  1  0
 18 20  1  0
 20 21  1  6
 21 14  1  0
 22 20  1  0
 22 23  1  0
 24 22  2  0
M  END
$$$$
