PET.pdb
     RDKit          3D

 24 24  0  0  1  0  0  0  0  0999 V2000
    9.2066  -14.4330   18.9780 N   0  0  0  0  0  0  0  0  0  0  0  0
    8.7843  -13.7607   17.7292 C   0  0  0  0  0  0  0  0  0  0  0  0
    7.2904  -13.6840   17.9322 C   0  0  0  0  0  0  0  0  0  0  0  0
    7.1674  -13.3346   19.3911 C   0  0  0  0  0  0  0  0  0  0  0  0
    8.5393  -13.6196   19.9724 C   0  0  1  0  0  0  0  0  0  0  0  0
    8.3735  -14.3194   21.2455 C   0  0  0  0  0  0  0  0  0  0  0  0
    7.6155  -13.7914   22.1213 O   0  0  0  0  0  0  0  0  0  0  0  0
    8.9988  -15.5435   21.5705 N   0  0  0  0  0  0  0  0  0  0  0  0
    8.7692  -16.1674   22.8683 C   0  0  1  0  0  0  0  0  0  0  0  0
    9.5486  -17.4578   22.9857 C   0  0  0  0  0  0  0  0  0  0  0  0
    9.2707  -18.3977   21.8389 C   0  0  0  0  0  0  0  0  0  0  0  0
   10.1187  -19.6031   22.0330 C   0  0  0  0  0  0  0  0  0  0  0  0
   10.1509  -20.2290   23.1450 O   0  0  0  0  0  0  0  0  0  0  0  0
    9.0591  -15.2347   23.9749 C   0  0  0  0  0  0  0  0  0  0  0  0
   10.0729  -14.4928   23.9948 O   0  0  0  0  0  0  0  0  0  0  0  0
   10.9264  -20.1274   21.0302 O   0  0  0  0  0  0  0  0  0  0  0  0
    7.0429  -12.3756   27.3132 C   0  0  0  0  0  0  0  0  0  0  0  0
    6.9988  -13.4454   26.2637 C   0  0  1  0  0  0  0  0  0  0  0  0
    6.7149  -12.8951   25.0270 O   0  0  0  0  0  0  0  0  0  0  0  0
    8.3129  -14.1910   26.1388 C   0  0  2  0  0  0  0  0  0  0  0  0
    8.1749  -15.1455   25.0827 N   0  0  0  0  0  0  0  0  0  0  0  0
    8.7689  -14.7550   27.4048 C   0  0  0  0  0  0  0  0  0  0  0  0
    9.2655  -13.9374   28.4014 O   0  0  0  0  0  0  0  0  0  0  0  0
    8.7136  -15.9897   27.5984 O   0  0  0  0  0  0  0  0  0  0  0  0
  1  2  1  0
  3  2  1  0
  4  3  1  0
  5  4  1  0
  5  1  1  0
  5  6  1  1
  7  6  2  0
  8  6  1  0
  9 14  1  0
  9  8  1  0
  9 10  1  1
 11 10  1  0
 12 11  1  0
 13 12  2  0
 14 15  2  0
 16 12  1  0
 18 17  1  1
 18 19  1  0
 18 20  1  0
 20 21  1  6
 21 14  1  0
 22 20  1  0
 22 23  1  0
 24 22  2  0
M  END
$$$$
