PET.pdb
     RDKit          3D

 24 24  0  0  1  0  0  0  0  0999 V2000
    8.7356  -15.0878   19.3741 N   0  0  0  0  0  0  0  0  0  0  0  0
    8.6738  -14.4686   18.0314 C   0  0  0  0  0  0  0  0  0  0  0  0
    7.4307  -13.6218   18.1596 C   0  0  0  0  0  0  0  0  0  0  0  0
    7.5454  -13.0662   19.5538 C   0  0  0  0  0  0  0  0  0  0  0  0
    8.6016  -13.9240   20.2246 C   0  0  1  0  0  0  0  0  0  0  0  0
    8.1431  -14.2664   21.5701 C   0  0  0  0  0  0  0  0  0  0  0  0
    7.8214  -13.3135   22.3504 O   0  0  0  0  0  0  0  0  0  0  0  0
    8.0333  -15.5851   22.0642 N   0  0  0  0  0  0  0  0  0  0  0  0
    7.4704  -15.8329   23.3863 C   0  0  1  0  0  0  0  0  0  0  0  0
    7.5286  -17.3058   23.7238 C   0  0  0  0  0  0  0  0  0  0  0  0
    6.9075  -17.6080   25.0650 C   0  0  0  0  0  0  0  0  0  0  0  0
    6.9669  -19.0799   25.2638 C   0  0  0  0  0  0  0  0  0  0  0  0
    7.5008  -19.8529   24.3996 O   0  0  0  0  0  0  0  0  0  0  0  0
    8.1185  -14.9961   24.4150 C   0  0  0  0  0  0  0  0  0  0  0  0
    9.3506  -14.7501   24.4184 O   0  0  0  0  0  0  0  0  0  0  0  0
    6.4519  -19.7110   26.3905 O   0  0  0  0  0  0  0  0  0  0  0  0
    6.2647  -11.7095   25.7985 C   0  0  0  0  0  0  0  0  0  0  0  0
    6.7391  -12.6212   26.8899 C   0  0  1  0  0  0  0  0  0  0  0  0
    5.7060  -13.4328   27.3223 O   0  0  0  0  0  0  0  0  0  0  0  0
    7.8701  -13.5253   26.4408 C   0  0  2  0  0  0  0  0  0  0  0  0
    7.3461  -14.4272   25.4622 N   0  0  0  0  0  0  0  0  0  0  0  0
    8.5546  -14.1751   27.5535 C   0  0  0  0  0  0  0  0  0  0  0  0
    9.1911  -13.4246   28.5231 O   0  0  0  0  0  0  0  0  0  0  0  0
    8.5703  -15.4231   27.6386 O   0  0  0  0  0  0  0  0  0  0  0  0
  1  2  1  0
  3  2  1  0
  4  3  1  0
  5  4  1  0
  5  1  1  0
  5  6  1  1
  7  6  2  0
  8  6  1  0
  9 14  1  0
  9  8  1  0
  9 10  1  1
 11 10  1  0
 12 11  1  0
 13 12  2  0
 14 15  2  0
 16 12  1  0
 18 17  1  6
 18 19  1  0
 18 20  1  0
 20 21  1  6
 21 14  1  0
 22 20  1  0
 22 23  1  0
 24 22  2  0
M  END
$$$$
