PET.pdb
     RDKit          3D

 24 24  0  0  1  0  0  0  0  0999 V2000
    8.6199  -15.0160   19.3548 N   0  0  0  0  0  0  0  0  0  0  0  0
    8.5815  -14.3430   18.0374 C   0  0  0  0  0  0  0  0  0  0  0  0
    7.3677  -13.4601   18.1981 C   0  0  0  0  0  0  0  0  0  0  0  0
    7.4987  -12.9638   19.6131 C   0  0  0  0  0  0  0  0  0  0  0  0
    8.5240  -13.8826   20.2502 C   0  0  1  0  0  0  0  0  0  0  0  0
    8.0518  -14.2616   21.5811 C   0  0  0  0  0  0  0  0  0  0  0  0
    7.8101  -13.3308   22.4150 O   0  0  0  0  0  0  0  0  0  0  0  0
    7.8458  -15.5931   22.0054 N   0  0  0  0  0  0  0  0  0  0  0  0
    7.3672  -15.8716   23.3543 C   0  0  1  0  0  0  0  0  0  0  0  0
    7.4809  -17.3467   23.6671 C   0  0  0  0  0  0  0  0  0  0  0  0
    6.9270  -17.6847   25.0290 C   0  0  0  0  0  0  0  0  0  0  0  0
    7.0410  -19.1562   25.2056 C   0  0  0  0  0  0  0  0  0  0  0  0
    8.0974  -19.7920   24.8751 O   0  0  0  0  0  0  0  0  0  0  0  0
    8.0537  -15.0318   24.3553 C   0  0  0  0  0  0  0  0  0  0  0  0
    9.2721  -14.7352   24.2778 O   0  0  0  0  0  0  0  0  0  0  0  0
    6.0184  -19.9344   25.7363 O   0  0  0  0  0  0  0  0  0  0  0  0
    6.4212  -11.7358   25.8781 C   0  0  0  0  0  0  0  0  0  0  0  0
    6.8293  -12.7151   26.9374 C   0  0  1  0  0  0  0  0  0  0  0  0
    5.7457  -13.4803   27.3288 O   0  0  0  0  0  0  0  0  0  0  0  0
    7.9103  -13.6665   26.4634 C   0  0  2  0  0  0  0  0  0  0  0  0
    7.3364  -14.5189   25.4686 N   0  0  0  0  0  0  0  0  0  0  0  0
    8.5647  -14.3744   27.5586 C   0  0  0  0  0  0  0  0  0  0  0  0
    9.2247  -13.6776   28.5522 O   0  0  0  0  0  0  0  0  0  0  0  0
    8.5329  -15.6241   27.6065 O   0  0  0  0  0  0  0  0  0  0  0  0
  1  2  1  0
  3  2  1  0
  4  3  1  0
  5  4  1  0
  5  1  1  0
  5  6  1  1
  7  6  2  0
  8  6  1  0
  9 14  1  0
  9  8  1  0
  9 10  1  1
 11 10  1  0
 12 11  1  0
 13 12  2  0
 14 15  2  0
 16 12  1  0
 18 17  1  6
 18 19  1  0
 18 20  1  0
 20 21  1  6
 21 14  1  0
 22 20  1  0
 22 23  1  0
 24 22  2  0
M  END
$$$$
