PET.pdb
     RDKit          3D

 24 24  0  0  1  0  0  0  0  0999 V2000
    9.0893  -14.3594   19.0635 N   0  0  0  0  0  0  0  0  0  0  0  0
    8.6490  -13.6776   17.8261 C   0  0  0  0  0  0  0  0  0  0  0  0
    7.1712  -13.5215   18.0912 C   0  0  0  0  0  0  0  0  0  0  0  0
    7.1289  -13.1526   19.5499 C   0  0  0  0  0  0  0  0  0  0  0  0
    8.5080  -13.5032   20.0759 C   0  0  1  0  0  0  0  0  0  0  0  0
    8.3610  -14.1816   21.3628 C   0  0  0  0  0  0  0  0  0  0  0  0
    7.6317  -13.6291   22.2477 O   0  0  0  0  0  0  0  0  0  0  0  0
    8.9749  -15.4105   21.6916 N   0  0  0  0  0  0  0  0  0  0  0  0
    8.6963  -16.0555   22.9694 C   0  0  1  0  0  0  0  0  0  0  0  0
    9.4438  -17.3653   23.0804 C   0  0  0  0  0  0  0  0  0  0  0  0
    9.1189  -18.1004   24.3571 C   0  0  0  0  0  0  0  0  0  0  0  0
    9.9097  -19.3591   24.3620 C   0  0  0  0  0  0  0  0  0  0  0  0
   10.7533  -19.6253   23.4419 O   0  0  0  0  0  0  0  0  0  0  0  0
    8.9763  -15.1525   24.1028 C   0  0  0  0  0  0  0  0  0  0  0  0
   10.0832  -14.5798   24.2623 O   0  0  0  0  0  0  0  0  0  0  0  0
    9.7880  -20.3231   25.3564 O   0  0  0  0  0  0  0  0  0  0  0  0
    6.6771  -12.2483   25.2999 C   0  0  0  0  0  0  0  0  0  0  0  0
    6.8956  -13.2399   26.4029 C   0  0  1  0  0  0  0  0  0  0  0  0
    5.8393  -14.1305   26.4659 O   0  0  0  0  0  0  0  0  0  0  0  0
    8.1628  -14.0502   26.2128 C   0  0  2  0  0  0  0  0  0  0  0  0
    7.9735  -14.8965   25.0753 N   0  0  0  0  0  0  0  0  0  0  0  0
    8.5759  -14.7518   27.4235 C   0  0  0  0  0  0  0  0  0  0  0  0
    8.9518  -14.0480   28.5512 O   0  0  0  0  0  0  0  0  0  0  0  0
    8.5930  -16.0024   27.4498 O   0  0  0  0  0  0  0  0  0  0  0  0
  1  2  1  0
  3  2  1  0
  4  3  1  0
  5  4  1  0
  5  1  1  0
  5  6  1  1
  7  6  2  0
  8  6  1  0
  9 14  1  0
  9  8  1  0
  9 10  1  1
 11 10  1  0
 12 11  1  0
 13 12  2  0
 14 15  2  0
 16 12  1  0
 18 17  1  6
 18 19  1  0
 18 20  1  0
 20 21  1  6
 21 14  1  0
 22 20  1  0
 22 23  1  0
 24 22  2  0
M  END
$$$$
