PET.pdb
     RDKit          3D

 24 24  0  0  1  0  0  0  0  0999 V2000
    8.9474  -14.5612   19.1709 N   0  0  0  0  0  0  0  0  0  0  0  0
    8.6469  -13.8299   17.9199 C   0  0  0  0  0  0  0  0  0  0  0  0
    7.2119  -13.4264   18.1575 C   0  0  0  0  0  0  0  0  0  0  0  0
    7.2087  -13.0387   19.6120 C   0  0  0  0  0  0  0  0  0  0  0  0
    8.5013  -13.6083   20.1653 C   0  0  1  0  0  0  0  0  0  0  0  0
    8.2226  -14.2378   21.4553 C   0  0  0  0  0  0  0  0  0  0  0  0
    7.4350  -13.6361   22.2540 O   0  0  0  0  0  0  0  0  0  0  0  0
    8.7694  -15.4702   21.8765 N   0  0  0  0  0  0  0  0  0  0  0  0
    8.4921  -15.9816   23.2136 C   0  0  1  0  0  0  0  0  0  0  0  0
    9.1730  -17.3148   23.4270 C   0  0  0  0  0  0  0  0  0  0  0  0
    8.8251  -17.9251   24.7621 C   0  0  0  0  0  0  0  0  0  0  0  0
    9.6100  -19.1800   24.8984 C   0  0  0  0  0  0  0  0  0  0  0  0
    9.2955  -20.2408   24.2618 O   0  0  0  0  0  0  0  0  0  0  0  0
    8.8492  -14.9969   24.2535 C   0  0  0  0  0  0  0  0  0  0  0  0
    9.9689  -14.4289   24.3003 O   0  0  0  0  0  0  0  0  0  0  0  0
   10.7279  -19.2860   25.7182 O   0  0  0  0  0  0  0  0  0  0  0  0
    6.5971  -12.0047   25.3904 C   0  0  0  0  0  0  0  0  0  0  0  0
    6.9153  -12.9094   26.5428 C   0  0  1  0  0  0  0  0  0  0  0  0
    5.8803  -13.8021   26.7541 O   0  0  0  0  0  0  0  0  0  0  0  0
    8.1756  -13.7202   26.3138 C   0  0  2  0  0  0  0  0  0  0  0  0
    7.9103  -14.6520   25.2616 N   0  0  0  0  0  0  0  0  0  0  0  0
    8.6931  -14.3242   27.5370 C   0  0  0  0  0  0  0  0  0  0  0  0
    9.0832  -13.5346   28.6014 O   0  0  0  0  0  0  0  0  0  0  0  0
    8.7881  -15.5680   27.6319 O   0  0  0  0  0  0  0  0  0  0  0  0
  1  2  1  0
  3  2  1  0
  4  3  1  0
  5  4  1  0
  5  1  1  0
  5  6  1  1
  7  6  2  0
  8  6  1  0
  9 14  1  0
  9  8  1  0
  9 10  1  1
 11 10  1  0
 12 11  1  0
 13 12  2  0
 14 15  2  0
 16 12  1  0
 18 17  1  6
 18 19  1  0
 18 20  1  0
 20 21  1  6
 21 14  1  0
 22 20  1  0
 22 23  1  0
 24 22  2  0
M  END
$$$$
