PET.pdb
     RDKit          3D

 24 24  0  0  1  0  0  0  0  0999 V2000
    9.1691  -14.4333   19.2490 N   0  0  0  0  0  0  0  0  0  0  0  0
    8.6994  -13.9157   17.9446 C   0  0  0  0  0  0  0  0  0  0  0  0
    7.2026  -13.9755   18.1310 C   0  0  0  0  0  0  0  0  0  0  0  0
    7.0229  -13.5185   19.5538 C   0  0  0  0  0  0  0  0  0  0  0  0
    8.4078  -13.6114   20.1660 C   0  0  1  0  0  0  0  0  0  0  0  0
    8.2949  -14.2145   21.4932 C   0  0  0  0  0  0  0  0  0  0  0  0
    7.4727  -13.6960   22.3151 O   0  0  0  0  0  0  0  0  0  0  0  0
    9.0378  -15.3350   21.9264 N   0  0  0  0  0  0  0  0  0  0  0  0
    8.8093  -15.9051   23.2489 C   0  0  1  0  0  0  0  0  0  0  0  0
    9.6779  -17.1244   23.4620 C   0  0  0  0  0  0  0  0  0  0  0  0
    9.3946  -17.8026   24.7794 C   0  0  0  0  0  0  0  0  0  0  0  0
   10.3637  -18.9203   24.9245 C   0  0  0  0  0  0  0  0  0  0  0  0
   11.0421  -19.0859   25.9930 O   0  0  0  0  0  0  0  0  0  0  0  0
    8.9895  -14.8958   24.3107 C   0  0  0  0  0  0  0  0  0  0  0  0
    9.9933  -14.1428   24.3737 O   0  0  0  0  0  0  0  0  0  0  0  0
   10.5968  -19.8526   23.9198 O   0  0  0  0  0  0  0  0  0  0  0  0
    6.8382  -12.0091   25.1566 C   0  0  0  0  0  0  0  0  0  0  0  0
    6.8575  -12.9230   26.3449 C   0  0  1  0  0  0  0  0  0  0  0  0
    5.7611  -13.7657   26.3220 O   0  0  0  0  0  0  0  0  0  0  0  0
    8.0985  -13.7926   26.3886 C   0  0  2  0  0  0  0  0  0  0  0  0
    8.0049  -14.7413   25.3224 N   0  0  0  0  0  0  0  0  0  0  0  0
    8.3326  -14.3836   27.7019 C   0  0  0  0  0  0  0  0  0  0  0  0
    8.5275  -13.5818   28.8099 O   0  0  0  0  0  0  0  0  0  0  0  0
    8.3587  -15.6272   27.8354 O   0  0  0  0  0  0  0  0  0  0  0  0
  1  2  1  0
  3  2  1  0
  4  3  1  0
  5  4  1  0
  5  1  1  0
  5  6  1  1
  7  6  2  0
  8  6  1  0
  9 14  1  0
  9  8  1  0
  9 10  1  1
 11 10  1  0
 12 11  1  0
 13 12  2  0
 14 15  2  0
 16 12  1  0
 18 17  1  6
 18 19  1  0
 18 20  1  0
 20 21  1  6
 21 14  1  0
 22 20  1  0
 22 23  1  0
 24 22  2  0
M  END
$$$$
