PET.pdb
     RDKit          3D

 24 24  0  0  1  0  0  0  0  0999 V2000
    9.1129  -14.2046   18.8597 N   0  0  0  0  0  0  0  0  0  0  0  0
    8.6030  -13.5305   17.6450 C   0  0  0  0  0  0  0  0  0  0  0  0
    7.1201  -13.5085   17.9264 C   0  0  0  0  0  0  0  0  0  0  0  0
    7.0619  -13.1835   19.3950 C   0  0  0  0  0  0  0  0  0  0  0  0
    8.4713  -13.4285   19.8999 C   0  0  1  0  0  0  0  0  0  0  0  0
    8.3963  -14.1510   21.1689 C   0  0  0  0  0  0  0  0  0  0  0  0
    7.6573  -13.6687   22.0862 O   0  0  0  0  0  0  0  0  0  0  0  0
    9.0899  -15.3497   21.4468 N   0  0  0  0  0  0  0  0  0  0  0  0
    8.8475  -16.0707   22.6909 C   0  0  1  0  0  0  0  0  0  0  0  0
    9.6453  -17.3547   22.7279 C   0  0  0  0  0  0  0  0  0  0  0  0
    9.3377  -18.1816   23.9516 C   0  0  0  0  0  0  0  0  0  0  0  0
   10.1344  -19.4330   23.8577 C   0  0  0  0  0  0  0  0  0  0  0  0
   10.9272  -19.6521   22.8816 O   0  0  0  0  0  0  0  0  0  0  0  0
    9.1030  -15.2178   23.8681 C   0  0  0  0  0  0  0  0  0  0  0  0
   10.1538  -14.5433   24.0075 O   0  0  0  0  0  0  0  0  0  0  0  0
   10.0734  -20.4404   24.8139 O   0  0  0  0  0  0  0  0  0  0  0  0
    6.8025  -12.5083   25.2064 C   0  0  0  0  0  0  0  0  0  0  0  0
    7.0165  -13.5382   26.2747 C   0  0  1  0  0  0  0  0  0  0  0  0
    5.9729  -14.4457   26.2844 O   0  0  0  0  0  0  0  0  0  0  0  0
    8.2990  -14.3220   26.0772 C   0  0  2  0  0  0  0  0  0  0  0  0
    8.1405  -15.1317   24.9088 N   0  0  0  0  0  0  0  0  0  0  0  0
    8.7047  -15.0582   27.2697 C   0  0  0  0  0  0  0  0  0  0  0  0
    8.9684  -14.3933   28.4516 O   0  0  0  0  0  0  0  0  0  0  0  0
    8.8174  -16.3035   27.2310 O   0  0  0  0  0  0  0  0  0  0  0  0
  1  2  1  0
  3  2  1  0
  4  3  1  0
  5  4  1  0
  5  1  1  0
  5  6  1  1
  7  6  2  0
  8  6  1  0
  9 14  1  0
  9  8  1  0
  9 10  1  1
 11 10  1  0
 12 11  1  0
 13 12  2  0
 14 15  2  0
 16 12  1  0
 18 17  1  6
 18 19  1  0
 18 20  1  0
 20 21  1  6
 21 14  1  0
 22 20  1  0
 22 23  1  0
 24 22  2  0
M  END
$$$$
