PET.pdb
     RDKit          3D

 24 24  0  0  1  0  0  0  0  0999 V2000
    9.1439  -14.4595   19.2300 N   0  0  0  0  0  0  0  0  0  0  0  0
    8.6869  -13.9197   17.9301 C   0  0  0  0  0  0  0  0  0  0  0  0
    7.1922  -13.8878   18.1388 C   0  0  0  0  0  0  0  0  0  0  0  0
    7.0620  -13.4149   19.5619 C   0  0  0  0  0  0  0  0  0  0  0  0
    8.4478  -13.5892   20.1540 C   0  0  1  0  0  0  0  0  0  0  0  0
    8.3184  -14.1789   21.4856 C   0  0  0  0  0  0  0  0  0  0  0  0
    7.5421  -13.6079   22.3172 O   0  0  0  0  0  0  0  0  0  0  0  0
    8.9980  -15.3411   21.9132 N   0  0  0  0  0  0  0  0  0  0  0  0
    8.7161  -15.9214   23.2208 C   0  0  1  0  0  0  0  0  0  0  0  0
    9.4621  -17.2247   23.3986 C   0  0  0  0  0  0  0  0  0  0  0  0
    9.1690  -17.8721   24.7292 C   0  0  0  0  0  0  0  0  0  0  0  0
    9.9543  -19.1324   24.7960 C   0  0  0  0  0  0  0  0  0  0  0  0
   11.0996  -19.1806   25.3575 O   0  0  0  0  0  0  0  0  0  0  0  0
    8.9944  -14.9633   24.3085 C   0  0  0  0  0  0  0  0  0  0  0  0
   10.0929  -14.3653   24.4273 O   0  0  0  0  0  0  0  0  0  0  0  0
    9.5029  -20.3326   24.2585 O   0  0  0  0  0  0  0  0  0  0  0  0
    6.7862  -11.9803   25.1658 C   0  0  0  0  0  0  0  0  0  0  0  0
    6.9122  -12.8637   26.3705 C   0  0  1  0  0  0  0  0  0  0  0  0
    5.8253  -13.7142   26.4596 O   0  0  0  0  0  0  0  0  0  0  0  0
    8.1604  -13.7234   26.3323 C   0  0  2  0  0  0  0  0  0  0  0  0
    7.9995  -14.6805   25.2818 N   0  0  0  0  0  0  0  0  0  0  0  0
    8.4914  -14.3029   27.6297 C   0  0  0  0  0  0  0  0  0  0  0  0
    8.7699  -13.4916   28.7126 O   0  0  0  0  0  0  0  0  0  0  0  0
    8.5257  -15.5453   27.7723 O   0  0  0  0  0  0  0  0  0  0  0  0
  1  2  1  0
  3  2  1  0
  4  3  1  0
  5  4  1  0
  5  1  1  0
  5  6  1  1
  7  6  2  0
  8  6  1  0
  9 14  1  0
  9  8  1  0
  9 10  1  1
 11 10  1  0
 12 11  1  0
 13 12  2  0
 14 15  2  0
 16 12  1  0
 18 17  1  6
 18 19  1  0
 18 20  1  0
 20 21  1  6
 21 14  1  0
 22 20  1  0
 22 23  1  0
 24 22  2  0
M  END
$$$$
