ADD.pdb
     RDKit          3D

 22 21  0  0  1  0  0  0  0  0999 V2000
    9.2045  -18.0315   19.7313 C   0  0  0  0  0  0  0  0  0  0  0  0
   10.1130  -18.9114   20.5759 C   0  0  2  0  0  0  0  0  0  0  0  0
   10.2671  -20.2052   19.9454 N   0  0  0  0  0  0  0  0  0  0  0  0
    9.5839  -19.0441   21.9417 C   0  0  0  0  0  0  0  0  0  0  0  0
    9.4767  -18.0227   22.6671 O   0  0  0  0  0  0  0  0  0  0  0  0
    9.1920  -20.2970   22.4589 N   0  0  0  0  0  0  0  0  0  0  0  0
    8.7383  -20.4216   23.8475 C   0  0  1  0  0  0  0  0  0  0  0  0
    7.6698  -21.4527   23.9014 C   0  0  0  0  0  0  0  0  0  0  0  0
    7.0792  -21.6141   25.2290 C   0  0  0  0  0  0  0  0  0  0  0  0
    6.5496  -20.7303   25.9337 O   0  0  0  0  0  0  0  0  0  0  0  0
    9.9422  -20.8216   24.6537 C   0  0  0  0  0  0  0  0  0  0  0  0
   10.2113  -22.0121   24.8870 O   0  0  0  0  0  0  0  0  0  0  0  0
    7.1071  -22.9085   25.7813 O   0  0  0  0  0  0  0  0  0  0  0  0
   10.8372  -19.8244   25.1909 N   0  0  0  0  0  0  0  0  0  0  0  0
   11.3363  -19.9345   26.5720 C   0  0  1  0  0  0  0  0  0  0  0  0
   10.1875  -19.9738   27.5245 C   0  0  0  0  0  0  0  0  0  0  0  0
   10.4163  -19.3984   28.8437 C   0  0  0  0  0  0  0  0  0  0  0  0
   11.6074  -19.0248   29.0968 O   0  0  0  0  0  0  0  0  0  0  0  0
   12.0934  -21.2029   26.6565 C   0  0  0  0  0  0  0  0  0  0  0  0
   11.6562  -22.2075   26.0278 O   0  0  0  0  0  0  0  0  0  0  0  0
    9.4945  -19.2198   29.8319 O   0  0  0  0  0  0  0  0  0  0  0  0
   13.2575  -21.3672   27.3821 O   0  0  0  0  0  0  0  0  0  0  0  0
  2  1  1  6
  2  4  1  0
  3  2  1  0
  4  6  1  0
  5  4  2  0
  6  7  1  0
  7  8  1  6
  7 11  1  0
  9  8  1  0
 10  9  2  0
 11 12  2  0
 11 14  1  0
 13  9  1  0
 14 15  1  0
 15 19  1  0
 15 16  1  1
 16 17  1  0
 17 18  2  0
 19 22  1  0
 20 19  2  0
 21 17  1  0
M  END
$$$$
