ADD.pdb
     RDKit          3D

 22 21  0  0  1  0  0  0  0  0999 V2000
    8.0163  -12.6881   19.7690 C   0  0  0  0  0  0  0  0  0  0  0  0
    8.3867  -13.4663   18.5159 C   0  0  2  0  0  0  0  0  0  0  0  0
    7.2479  -14.2358   18.0618 N   0  0  0  0  0  0  0  0  0  0  0  0
    9.5486  -14.3323   18.7672 C   0  0  0  0  0  0  0  0  0  0  0  0
    9.3692  -15.5456   19.0440 O   0  0  0  0  0  0  0  0  0  0  0  0
   10.8658  -13.8305   18.7043 N   0  0  0  0  0  0  0  0  0  0  0  0
   12.0131  -14.7196   18.9110 C   0  0  1  0  0  0  0  0  0  0  0  0
   13.1427  -14.2293   18.0796 C   0  0  0  0  0  0  0  0  0  0  0  0
   14.3377  -15.0674   18.1636 C   0  0  0  0  0  0  0  0  0  0  0  0
   15.5273  -14.6990   18.0783 O   0  0  0  0  0  0  0  0  0  0  0  0
   12.3343  -14.6648   20.3785 C   0  0  0  0  0  0  0  0  0  0  0  0
   11.8284  -13.8150   21.1308 O   0  0  0  0  0  0  0  0  0  0  0  0
   14.1317  -16.4454   18.3630 O   0  0  0  0  0  0  0  0  0  0  0  0
   13.2524  -15.6086   20.9704 N   0  0  0  0  0  0  0  0  0  0  0  0
   13.2548  -15.8367   22.4253 C   0  0  1  0  0  0  0  0  0  0  0  0
   11.9196  -16.3419   22.8614 C   0  0  0  0  0  0  0  0  0  0  0  0
   11.8138  -16.7912   24.2437 C   0  0  0  0  0  0  0  0  0  0  0  0
   12.8739  -16.7106   24.9453 O   0  0  0  0  0  0  0  0  0  0  0  0
   14.2859  -16.8620   22.6987 C   0  0  0  0  0  0  0  0  0  0  0  0
   14.2874  -17.9147   22.0006 O   0  0  0  0  0  0  0  0  0  0  0  0
   10.7053  -17.2879   24.8624 O   0  0  0  0  0  0  0  0  0  0  0  0
   15.2576  -16.7474   23.6740 O   0  0  0  0  0  0  0  0  0  0  0  0
  2  1  1  1
  2  4  1  0
  3  2  1  0
  4  6  1  0
  5  4  2  0
  6  7  1  0
  7  8  1  6
  7 11  1  0
  9  8  1  0
 10  9  2  0
 11 12  2  0
 11 14  1  0
 13  9  1  0
 14 15  1  0
 15 19  1  0
 15 16  1  6
 16 17  1  0
 17 18  2  0
 19 22  1  0
 20 19  2  0
 21 17  1  0
M  END
$$$$
