ADD.pdb
     RDKit          3D

 22 21  0  0  1  0  0  0  0  0999 V2000
    8.9133  -14.3061   17.2024 C   0  0  0  0  0  0  0  0  0  0  0  0
    8.2498  -13.8744   18.5010 C   0  0  2  0  0  0  0  0  0  0  0  0
    7.6436  -12.5708   18.3323 N   0  0  0  0  0  0  0  0  0  0  0  0
    9.2220  -13.8708   19.6045 C   0  0  0  0  0  0  0  0  0  0  0  0
    9.8976  -12.8351   19.8324 O   0  0  0  0  0  0  0  0  0  0  0  0
    9.4148  -15.0081   20.4171 N   0  0  0  0  0  0  0  0  0  0  0  0
   10.4853  -15.0362   21.4185 C   0  0  1  0  0  0  0  0  0  0  0  0
   10.1431  -16.0567   22.4429 C   0  0  0  0  0  0  0  0  0  0  0  0
   11.1528  -16.1946   23.4912 C   0  0  0  0  0  0  0  0  0  0  0  0
   11.9004  -15.3030   23.9431 O   0  0  0  0  0  0  0  0  0  0  0  0
   11.7478  -15.3858   20.6813 C   0  0  0  0  0  0  0  0  0  0  0  0
   11.7360  -15.7509   19.4936 O   0  0  0  0  0  0  0  0  0  0  0  0
   11.3047  -17.4732   24.0595 O   0  0  0  0  0  0  0  0  0  0  0  0
   13.0321  -15.3086   21.3360 N   0  0  0  0  0  0  0  0  0  0  0  0
   14.2738  -15.2808   20.5447 C   0  0  1  0  0  0  0  0  0  0  0  0
   14.2906  -14.0711   19.6702 C   0  0  0  0  0  0  0  0  0  0  0  0
   14.9510  -14.2112   18.3787 C   0  0  0  0  0  0  0  0  0  0  0  0
   16.1080  -14.7437   18.3921 O   0  0  0  0  0  0  0  0  0  0  0  0
   15.3960  -15.2123   21.5065 C   0  0  0  0  0  0  0  0  0  0  0  0
   16.5755  -15.1979   21.0547 O   0  0  0  0  0  0  0  0  0  0  0  0
   14.4641  -13.8329   17.1629 O   0  0  0  0  0  0  0  0  0  0  0  0
   15.2427  -15.1621   22.8786 O   0  0  0  0  0  0  0  0  0  0  0  0
  2  1  1  6
  2  4  1  0
  3  2  1  0
  4  6  1  0
  5  4  2  0
  6  7  1  0
  7  8  1  1
  7 11  1  0
  9  8  1  0
 10  9  2  0
 11 12  2  0
 11 14  1  0
 13  9  1  0
 14 15  1  0
 15 19  1  0
 15 16  1  6
 16 17  1  0
 17 18  2  0
 19 22  1  0
 20 19  2  0
 21 17  1  0
M  END
$$$$
