ADD.pdb
     RDKit          3D

 22 21  0  0  1  0  0  0  0  0999 V2000
    8.0940  -12.5578   19.8861 C   0  0  0  0  0  0  0  0  0  0  0  0
    8.4971  -13.3055   18.6246 C   0  0  2  0  0  0  0  0  0  0  0  0
    7.3521  -14.0059   18.0825 N   0  0  0  0  0  0  0  0  0  0  0  0
    9.6056  -14.2315   18.9017 C   0  0  0  0  0  0  0  0  0  0  0  0
    9.3556  -15.4310   19.1841 O   0  0  0  0  0  0  0  0  0  0  0  0
   10.9491  -13.8027   18.8577 N   0  0  0  0  0  0  0  0  0  0  0  0
   12.0447  -14.7727   18.9486 C   0  0  1  0  0  0  0  0  0  0  0  0
   13.1517  -14.3142   18.0699 C   0  0  0  0  0  0  0  0  0  0  0  0
   14.3271  -15.1828   18.1082 C   0  0  0  0  0  0  0  0  0  0  0  0
   14.3445  -16.4298   18.1603 O   0  0  0  0  0  0  0  0  0  0  0  0
   12.4580  -14.8130   20.3933 C   0  0  0  0  0  0  0  0  0  0  0  0
   12.8373  -13.7954   20.9971 O   0  0  0  0  0  0  0  0  0  0  0  0
   15.5836  -14.5491   18.0841 O   0  0  0  0  0  0  0  0  0  0  0  0
   12.4280  -16.0500   21.1369 N   0  0  0  0  0  0  0  0  0  0  0  0
   12.8313  -16.0805   22.5530 C   0  0  1  0  0  0  0  0  0  0  0  0
   11.9934  -17.0663   23.2975 C   0  0  0  0  0  0  0  0  0  0  0  0
   12.2273  -17.1664   24.7325 C   0  0  0  0  0  0  0  0  0  0  0  0
   13.0906  -16.3668   25.2199 O   0  0  0  0  0  0  0  0  0  0  0  0
   14.2476  -16.5073   22.5883 C   0  0  0  0  0  0  0  0  0  0  0  0
   14.6091  -17.4553   21.8358 O   0  0  0  0  0  0  0  0  0  0  0  0
   11.6234  -18.0227   25.6043 O   0  0  0  0  0  0  0  0  0  0  0  0
   15.2125  -15.9356   23.3948 O   0  0  0  0  0  0  0  0  0  0  0  0
  2  1  1  1
  2  4  1  0
  3  2  1  0
  4  6  1  0
  5  4  2  0
  6  7  1  0
  7  8  1  6
  7 11  1  0
  9  8  1  0
 10  9  2  0
 11 12  2  0
 11 14  1  0
 13  9  1  0
 14 15  1  0
 15 19  1  0
 15 16  1  1
 16 17  1  0
 17 18  2  0
 19 22  1  0
 20 19  2  0
 21 17  1  0
M  END
$$$$
