ADD.pdb
     RDKit          3D

 22 21  0  0  1  0  0  0  0  0999 V2000
    7.8248  -12.0054   19.4249 C   0  0  0  0  0  0  0  0  0  0  0  0
    8.0466  -13.4358   18.9585 C   0  0  2  0  0  0  0  0  0  0  0  0
    6.9028  -13.8853   18.1936 N   0  0  0  0  0  0  0  0  0  0  0  0
    8.3024  -14.3217   20.1043 C   0  0  0  0  0  0  0  0  0  0  0  0
    7.3533  -14.9758   20.6064 O   0  0  0  0  0  0  0  0  0  0  0  0
    9.5945  -14.4549   20.6553 N   0  0  0  0  0  0  0  0  0  0  0  0
    9.9949  -15.6959   21.3256 C   0  0  1  0  0  0  0  0  0  0  0  0
    9.9197  -16.8064   20.3412 C   0  0  0  0  0  0  0  0  0  0  0  0
   10.2394  -18.1148   20.9098 C   0  0  0  0  0  0  0  0  0  0  0  0
   10.5256  -18.3740   22.0968 O   0  0  0  0  0  0  0  0  0  0  0  0
   11.3987  -15.4794   21.8176 C   0  0  0  0  0  0  0  0  0  0  0  0
   11.6580  -15.3401   23.0248 O   0  0  0  0  0  0  0  0  0  0  0  0
   10.2249  -19.2099   20.0257 O   0  0  0  0  0  0  0  0  0  0  0  0
   12.5062  -15.4251   20.8933 N   0  0  0  0  0  0  0  0  0  0  0  0
   13.8934  -15.4341   21.3879 C   0  0  1  0  0  0  0  0  0  0  0  0
   14.1531  -16.6935   22.1459 C   0  0  0  0  0  0  0  0  0  0  0  0
   14.8442  -16.5544   23.4214 C   0  0  0  0  0  0  0  0  0  0  0  0
   15.2819  -15.3914   23.7013 O   0  0  0  0  0  0  0  0  0  0  0  0
   14.7743  -15.3800   20.2004 C   0  0  0  0  0  0  0  0  0  0  0  0
   15.0682  -16.4626   19.6196 O   0  0  0  0  0  0  0  0  0  0  0  0
   15.0722  -17.5334   24.3420 O   0  0  0  0  0  0  0  0  0  0  0  0
   15.3033  -14.2163   19.6765 O   0  0  0  0  0  0  0  0  0  0  0  0
  2  1  1  1
  2  4  1  0
  3  2  1  0
  4  6  1  0
  5  4  2  0
  6  7  1  0
  7  8  1  6
  7 11  1  0
  9  8  1  0
 10  9  2  0
 11 12  2  0
 11 14  1  0
 13  9  1  0
 14 15  1  0
 15 19  1  0
 15 16  1  6
 16 17  1  0
 17 18  2  0
 19 22  1  0
 20 19  2  0
 21 17  1  0
M  END
$$$$
