ADD.pdb
     RDKit          3D

 22 21  0  0  1  0  0  0  0  0999 V2000
    8.1996  -12.6729   20.9382 C   0  0  0  0  0  0  0  0  0  0  0  0
    8.0509  -13.6369   19.7714 C   0  0  2  0  0  0  0  0  0  0  0  0
    6.6486  -13.8211   19.4629 N   0  0  0  0  0  0  0  0  0  0  0  0
    8.7031  -14.9204   20.0721 C   0  0  0  0  0  0  0  0  0  0  0  0
    8.0118  -15.8847   20.4880 O   0  0  0  0  0  0  0  0  0  0  0  0
   10.0931  -15.0950   19.9037 N   0  0  0  0  0  0  0  0  0  0  0  0
   10.7115  -16.4064   20.1212 C   0  0  1  0  0  0  0  0  0  0  0  0
   11.8170  -16.5722   19.1424 C   0  0  0  0  0  0  0  0  0  0  0  0
   12.4621  -17.8827   19.2049 C   0  0  0  0  0  0  0  0  0  0  0  0
   11.9977  -18.9314   19.6974 O   0  0  0  0  0  0  0  0  0  0  0  0
   11.2142  -16.4095   21.5378 C   0  0  0  0  0  0  0  0  0  0  0  0
   11.7604  -15.4147   22.0438 O   0  0  0  0  0  0  0  0  0  0  0  0
   13.7518  -17.9806   18.6496 O   0  0  0  0  0  0  0  0  0  0  0  0
   11.0780  -17.5824   22.3684 N   0  0  0  0  0  0  0  0  0  0  0  0
   11.5635  -17.5740   23.7587 C   0  0  1  0  0  0  0  0  0  0  0  0
   10.4056  -17.5253   24.6996 C   0  0  0  0  0  0  0  0  0  0  0  0
   10.6556  -16.9361   26.0089 C   0  0  0  0  0  0  0  0  0  0  0  0
   11.8421  -16.5269   26.2255 O   0  0  0  0  0  0  0  0  0  0  0  0
   12.3134  -18.8334   23.9607 C   0  0  0  0  0  0  0  0  0  0  0  0
   13.3728  -19.0156   23.2974 O   0  0  0  0  0  0  0  0  0  0  0  0
    9.7579  -16.7785   27.0225 O   0  0  0  0  0  0  0  0  0  0  0  0
   11.9324  -19.8343   24.8333 O   0  0  0  0  0  0  0  0  0  0  0  0
  2  1  1  1
  2  4  1  0
  3  2  1  0
  4  6  1  0
  5  4  2  0
  6  7  1  0
  7  8  1  6
  7 11  1  0
  9  8  1  0
 10  9  2  0
 11 12  2  0
 11 14  1  0
 13  9  1  0
 14 15  1  0
 15 19  1  0
 15 16  1  1
 16 17  1  0
 17 18  2  0
 19 22  1  0
 20 19  2  0
 21 17  1  0
M  END
$$$$
