ADD.pdb
     RDKit          3D

 22 21  0  0  1  0  0  0  0  0999 V2000
    7.8934  -13.4864   21.6164 C   0  0  0  0  0  0  0  0  0  0  0  0
    8.2052  -14.1449   20.2815 C   0  0  2  0  0  0  0  0  0  0  0  0
    7.0556  -14.8967   19.8250 N   0  0  0  0  0  0  0  0  0  0  0  0
    9.3938  -15.0041   20.3916 C   0  0  0  0  0  0  0  0  0  0  0  0
    9.2512  -16.2368   20.5940 O   0  0  0  0  0  0  0  0  0  0  0  0
   10.6963  -14.4743   20.2748 N   0  0  0  0  0  0  0  0  0  0  0  0
   11.8700  -15.3316   20.4671 C   0  0  1  0  0  0  0  0  0  0  0  0
   13.0600  -14.6270   19.9237 C   0  0  0  0  0  0  0  0  0  0  0  0
   13.1764  -14.7121   18.4688 C   0  0  0  0  0  0  0  0  0  0  0  0
   12.9258  -15.6988   17.7466 O   0  0  0  0  0  0  0  0  0  0  0  0
   11.9870  -15.5662   21.9473 C   0  0  0  0  0  0  0  0  0  0  0  0
   11.7442  -14.6724   22.7757 O   0  0  0  0  0  0  0  0  0  0  0  0
   13.6201  -13.5555   17.8005 O   0  0  0  0  0  0  0  0  0  0  0  0
   12.3904  -16.8529   22.4626 N   0  0  0  0  0  0  0  0  0  0  0  0
   12.4141  -17.1027   23.9137 C   0  0  1  0  0  0  0  0  0  0  0  0
   11.4514  -18.1908   24.2566 C   0  0  0  0  0  0  0  0  0  0  0  0
   11.4013  -18.5983   25.6549 C   0  0  0  0  0  0  0  0  0  0  0  0
   12.3661  -19.3211   26.0662 O   0  0  0  0  0  0  0  0  0  0  0  0
   13.7886  -17.5317   24.2545 C   0  0  0  0  0  0  0  0  0  0  0  0
   14.3221  -18.4451   23.5642 O   0  0  0  0  0  0  0  0  0  0  0  0
   10.4345  -18.2902   26.5651 O   0  0  0  0  0  0  0  0  0  0  0  0
   14.5373  -16.9974   25.2852 O   0  0  0  0  0  0  0  0  0  0  0  0
  2  1  1  1
  2  4  1  0
  3  2  1  0
  4  6  1  0
  5  4  2  0
  6  7  1  0
  7  8  1  1
  7 11  1  0
  9  8  1  0
 10  9  2  0
 11 12  2  0
 11 14  1  0
 13  9  1  0
 14 15  1  0
 15 19  1  0
 15 16  1  6
 16 17  1  0
 17 18  2  0
 19 22  1  0
 20 19  2  0
 21 17  1  0
M  END
$$$$
