ADD.pdb
     RDKit          3D

 22 21  0  0  1  0  0  0  0  0999 V2000
    8.1717  -12.2714   19.3808 C   0  0  0  0  0  0  0  0  0  0  0  0
    7.7137  -13.3324   18.3922 C   0  0  2  0  0  0  0  0  0  0  0  0
    6.2890  -13.2107   18.1669 N   0  0  0  0  0  0  0  0  0  0  0  0
    8.0637  -14.6770   18.8745 C   0  0  0  0  0  0  0  0  0  0  0  0
    7.3808  -15.2050   19.7887 O   0  0  0  0  0  0  0  0  0  0  0  0
    9.1531  -15.3912   18.3323 N   0  0  0  0  0  0  0  0  0  0  0  0
    9.5100  -16.7147   18.8526 C   0  0  1  0  0  0  0  0  0  0  0  0
   10.0737  -17.5205   17.7387 C   0  0  0  0  0  0  0  0  0  0  0  0
    9.0828  -17.9037   16.7343 C   0  0  0  0  0  0  0  0  0  0  0  0
    8.0385  -18.5630   16.9153 O   0  0  0  0  0  0  0  0  0  0  0  0
   10.5193  -16.4849   19.9425 C   0  0  0  0  0  0  0  0  0  0  0  0
   10.9696  -15.3543   20.1938 O   0  0  0  0  0  0  0  0  0  0  0  0
    9.3270  -17.4860   15.4125 O   0  0  0  0  0  0  0  0  0  0  0  0
   11.0056  -17.5829   20.7437 N   0  0  0  0  0  0  0  0  0  0  0  0
   11.6579  -17.3308   22.0398 C   0  0  1  0  0  0  0  0  0  0  0  0
   10.7041  -16.6478   22.9629 C   0  0  0  0  0  0  0  0  0  0  0  0
   11.1885  -16.3683   24.3086 C   0  0  0  0  0  0  0  0  0  0  0  0
   12.3866  -16.7195   24.5606 O   0  0  0  0  0  0  0  0  0  0  0  0
   12.0298  -18.6494   22.5985 C   0  0  0  0  0  0  0  0  0  0  0  0
   11.3177  -19.6502   22.3035 O   0  0  0  0  0  0  0  0  0  0  0  0
   10.4974  -15.7746   25.3225 O   0  0  0  0  0  0  0  0  0  0  0  0
   13.1128  -18.8652   23.4286 O   0  0  0  0  0  0  0  0  0  0  0  0
  2  1  1  1
  2  4  1  0
  3  2  1  0
  4  6  1  0
  5  4  2  0
  6  7  1  0
  7  8  1  6
  7 11  1  0
  9  8  1  0
 10  9  2  0
 11 12  2  0
 11 14  1  0
 13  9  1  0
 14 15  1  0
 15 19  1  0
 15 16  1  1
 16 17  1  0
 17 18  2  0
 19 22  1  0
 20 19  2  0
 21 17  1  0
M  END
$$$$
