ADD.pdb
     RDKit          3D

 22 21  0  0  1  0  0  0  0  0999 V2000
    8.0056  -12.3421   19.5739 C   0  0  0  0  0  0  0  0  0  0  0  0
    8.0040  -13.4236   18.5047 C   0  0  2  0  0  0  0  0  0  0  0  0
    6.6811  -13.5429   17.9295 N   0  0  0  0  0  0  0  0  0  0  0  0
    8.4598  -14.7058   19.0626 C   0  0  0  0  0  0  0  0  0  0  0  0
    7.7074  -15.3459   19.8405 O   0  0  0  0  0  0  0  0  0  0  0  0
    9.7277  -15.2364   18.7434 N   0  0  0  0  0  0  0  0  0  0  0  0
   10.1544  -16.5282   19.2899 C   0  0  1  0  0  0  0  0  0  0  0  0
   10.8221  -17.2979   18.2084 C   0  0  0  0  0  0  0  0  0  0  0  0
   11.0992  -18.6883   18.5654 C   0  0  0  0  0  0  0  0  0  0  0  0
   11.8176  -19.4994   17.9456 O   0  0  0  0  0  0  0  0  0  0  0  0
   11.0961  -16.2212   20.4206 C   0  0  0  0  0  0  0  0  0  0  0  0
   12.0644  -15.4552   20.2802 O   0  0  0  0  0  0  0  0  0  0  0  0
   10.4912  -19.1740   19.7382 O   0  0  0  0  0  0  0  0  0  0  0  0
   10.9053  -16.8131   21.7234 N   0  0  0  0  0  0  0  0  0  0  0  0
   11.8490  -16.5303   22.8181 C   0  0  1  0  0  0  0  0  0  0  0  0
   11.1809  -16.7546   24.1340 C   0  0  0  0  0  0  0  0  0  0  0  0
   11.9970  -16.5419   25.3225 C   0  0  0  0  0  0  0  0  0  0  0  0
   13.2014  -16.1795   25.1218 O   0  0  0  0  0  0  0  0  0  0  0  0
   12.9779  -17.4749   22.6682 C   0  0  0  0  0  0  0  0  0  0  0  0
   12.7194  -18.7018   22.5147 O   0  0  0  0  0  0  0  0  0  0  0  0
   11.6096  -16.6905   26.6210 O   0  0  0  0  0  0  0  0  0  0  0  0
   14.3089  -17.1053   22.6841 O   0  0  0  0  0  0  0  0  0  0  0  0
  2  1  1  1
  2  4  1  0
  3  2  1  0
  4  6  1  0
  5  4  2  0
  6  7  1  0
  7  8  1  6
  7 11  1  0
  9  8  1  0
 10  9  2  0
 11 12  2  0
 11 14  1  0
 13  9  1  0
 14 15  1  0
 15 19  1  0
 15 16  1  1
 16 17  1  0
 17 18  2  0
 19 22  1  0
 20 19  2  0
 21 17  1  0
M  END
$$$$
