ADD.pdb
     RDKit          3D

 22 21  0  0  1  0  0  0  0  0999 V2000
    7.8375  -12.3108   19.9120 C   0  0  0  0  0  0  0  0  0  0  0  0
    8.3725  -13.3381   18.9265 C   0  0  2  0  0  0  0  0  0  0  0  0
    7.3207  -13.7388   18.0163 N   0  0  0  0  0  0  0  0  0  0  0  0
    8.9317  -14.4977   19.6377 C   0  0  0  0  0  0  0  0  0  0  0  0
    8.1589  -15.2946   20.2281 O   0  0  0  0  0  0  0  0  0  0  0  0
   10.3217  -14.7374   19.6726 N   0  0  0  0  0  0  0  0  0  0  0  0
   10.8517  -15.9653   20.2735 C   0  0  1  0  0  0  0  0  0  0  0  0
   11.5610  -16.7354   19.2191 C   0  0  0  0  0  0  0  0  0  0  0  0
   12.0486  -18.0367   19.6734 C   0  0  0  0  0  0  0  0  0  0  0  0
   11.4588  -18.8480   20.4164 O   0  0  0  0  0  0  0  0  0  0  0  0
   11.7826  -15.5335   21.3719 C   0  0  0  0  0  0  0  0  0  0  0  0
   12.9657  -15.2267   21.1483 O   0  0  0  0  0  0  0  0  0  0  0  0
   13.3256  -18.4253   19.2270 O   0  0  0  0  0  0  0  0  0  0  0  0
   11.3282  -15.4600   22.7402 N   0  0  0  0  0  0  0  0  0  0  0  0
   12.1708  -15.9686   23.8357 C   0  0  1  0  0  0  0  0  0  0  0  0
   11.5521  -17.1930   24.4245 C   0  0  0  0  0  0  0  0  0  0  0  0
   12.2733  -17.8219   25.5237 C   0  0  0  0  0  0  0  0  0  0  0  0
   13.1817  -18.6535   25.1991 O   0  0  0  0  0  0  0  0  0  0  0  0
   13.4836  -16.3117   23.2456 C   0  0  0  0  0  0  0  0  0  0  0  0
   14.4822  -15.5981   23.5443 O   0  0  0  0  0  0  0  0  0  0  0  0
   12.0782  -17.6162   26.8570 O   0  0  0  0  0  0  0  0  0  0  0  0
   13.6960  -17.3690   22.3823 O   0  0  0  0  0  0  0  0  0  0  0  0
  2  1  1  1
  2  4  1  0
  3  2  1  0
  4  6  1  0
  5  4  2  0
  6  7  1  0
  7  8  1  6
  7 11  1  0
  9  8  1  0
 10  9  2  0
 11 12  2  0
 11 14  1  0
 13  9  1  0
 14 15  1  0
 15 19  1  0
 15 16  1  6
 16 17  1  0
 17 18  2  0
 19 22  1  0
 20 19  2  0
 21 17  1  0
M  END
$$$$
