ADD.pdb
     RDKit          3D

 22 21  0  0  1  0  0  0  0  0999 V2000
    8.2452  -12.6615   19.8995 C   0  0  0  0  0  0  0  0  0  0  0  0
    8.6408  -13.3033   18.5787 C   0  0  2  0  0  0  0  0  0  0  0  0
    7.5094  -14.0119   18.0193 N   0  0  0  0  0  0  0  0  0  0  0  0
    9.7929  -14.1990   18.7613 C   0  0  0  0  0  0  0  0  0  0  0  0
    9.5996  -15.4265   18.9533 O   0  0  0  0  0  0  0  0  0  0  0  0
   11.1160  -13.7103   18.7259 N   0  0  0  0  0  0  0  0  0  0  0  0
   12.2533  -14.6276   18.8475 C   0  0  1  0  0  0  0  0  0  0  0  0
   13.3602  -14.1183   17.9971 C   0  0  0  0  0  0  0  0  0  0  0  0
   14.5398  -14.9819   17.9934 C   0  0  0  0  0  0  0  0  0  0  0  0
   15.7211  -14.6476   17.7678 O   0  0  0  0  0  0  0  0  0  0  0  0
   12.6299  -14.6470   20.3026 C   0  0  0  0  0  0  0  0  0  0  0  0
   13.0072  -13.6235   20.8977 O   0  0  0  0  0  0  0  0  0  0  0  0
   14.3277  -16.3446   18.2749 O   0  0  0  0  0  0  0  0  0  0  0  0
   12.5654  -15.8699   21.0670 N   0  0  0  0  0  0  0  0  0  0  0  0
   12.9110  -15.8754   22.4986 C   0  0  1  0  0  0  0  0  0  0  0  0
   12.0889  -16.8950   23.2147 C   0  0  0  0  0  0  0  0  0  0  0  0
   12.3570  -17.0646   24.6371 C   0  0  0  0  0  0  0  0  0  0  0  0
   13.2852  -16.3421   25.1257 O   0  0  0  0  0  0  0  0  0  0  0  0
   14.3426  -16.2369   22.5946 C   0  0  0  0  0  0  0  0  0  0  0  0
   15.0349  -15.7137   23.5125 O   0  0  0  0  0  0  0  0  0  0  0  0
   11.7229  -17.9122   25.4960 O   0  0  0  0  0  0  0  0  0  0  0  0
   14.9817  -17.1162   21.7421 O   0  0  0  0  0  0  0  0  0  0  0  0
  2  1  1  1
  2  4  1  0
  3  2  1  0
  4  6  1  0
  5  4  2  0
  6  7  1  0
  7  8  1  6
  7 11  1  0
  9  8  1  0
 10  9  2  0
 11 12  2  0
 11 14  1  0
 13  9  1  0
 14 15  1  0
 15 19  1  0
 15 16  1  1
 16 17  1  0
 17 18  2  0
 19 22  1  0
 20 19  2  0
 21 17  1  0
M  END
$$$$
