ADD.pdb
     RDKit          3D

 22 21  0  0  1  0  0  0  0  0999 V2000
    6.8981  -15.3941   19.4331 C   0  0  0  0  0  0  0  0  0  0  0  0
    7.9507  -16.4732   19.6337 C   0  0  2  0  0  0  0  0  0  0  0  0
    8.1903  -17.1632   18.3840 N   0  0  0  0  0  0  0  0  0  0  0  0
    7.5384  -17.4108   20.6891 C   0  0  0  0  0  0  0  0  0  0  0  0
    7.3556  -16.9867   21.8586 O   0  0  0  0  0  0  0  0  0  0  0  0
    7.3424  -18.7816   20.4181 N   0  0  0  0  0  0  0  0  0  0  0  0
    6.8559  -19.6864   21.4642 C   0  0  1  0  0  0  0  0  0  0  0  0
    5.9128  -20.6542   20.8464 C   0  0  0  0  0  0  0  0  0  0  0  0
    4.7889  -20.0191   20.1602 C   0  0  0  0  0  0  0  0  0  0  0  0
    4.5355  -20.0468   18.9383 O   0  0  0  0  0  0  0  0  0  0  0  0
    8.0679  -20.3712   22.0312 C   0  0  0  0  0  0  0  0  0  0  0  0
    8.1918  -21.6075   22.0158 O   0  0  0  0  0  0  0  0  0  0  0  0
    3.8871  -19.2930   20.9606 O   0  0  0  0  0  0  0  0  0  0  0  0
    9.1416  -19.6068   22.6201 N   0  0  0  0  0  0  0  0  0  0  0  0
   10.3314  -20.2845   23.1622 C   0  0  1  0  0  0  0  0  0  0  0  0
   11.5472  -19.8515   22.4120 C   0  0  0  0  0  0  0  0  0  0  0  0
   11.5312  -20.0623   20.9700 C   0  0  0  0  0  0  0  0  0  0  0  0
   11.1124  -21.1970   20.5709 O   0  0  0  0  0  0  0  0  0  0  0  0
   10.4518  -19.8756   24.5791 C   0  0  0  0  0  0  0  0  0  0  0  0
   11.2913  -20.4745   25.3086 O   0  0  0  0  0  0  0  0  0  0  0  0
   11.9167  -19.1776   20.0073 O   0  0  0  0  0  0  0  0  0  0  0  0
    9.7030  -18.8741   25.1661 O   0  0  0  0  0  0  0  0  0  0  0  0
  2  1  1  6
  2  4  1  0
  3  2  1  0
  4  6  1  0
  5  4  2  0
  6  7  1  0
  7  8  1  6
  7 11  1  0
  9  8  1  0
 10  9  2  0
 11 12  2  0
 11 14  1  0
 13  9  1  0
 14 15  1  0
 15 19  1  0
 15 16  1  6
 16 17  1  0
 17 18  2  0
 19 22  1  0
 20 19  2  0
 21 17  1  0
M  END
$$$$
