ADD.pdb
     RDKit          3D

 22 21  0  0  1  0  0  0  0  0999 V2000
    7.3158  -12.9222   19.0274 C   0  0  0  0  0  0  0  0  0  0  0  0
    8.7562  -13.2627   19.3772 C   0  0  2  0  0  0  0  0  0  0  0  0
    9.5952  -13.1049   18.2082 N   0  0  0  0  0  0  0  0  0  0  0  0
    8.8502  -14.6262   19.9201 C   0  0  0  0  0  0  0  0  0  0  0  0
    8.2191  -14.9218   20.9667 O   0  0  0  0  0  0  0  0  0  0  0  0
    9.6360  -15.6148   19.2906 N   0  0  0  0  0  0  0  0  0  0  0  0
    9.7306  -16.9641   19.8564 C   0  0  1  0  0  0  0  0  0  0  0  0
    9.7262  -17.9430   18.7386 C   0  0  0  0  0  0  0  0  0  0  0  0
    8.5026  -17.9124   17.9391 C   0  0  0  0  0  0  0  0  0  0  0  0
    7.3318  -18.0708   18.3418 O   0  0  0  0  0  0  0  0  0  0  0  0
   11.0162  -17.0096   20.6341 C   0  0  0  0  0  0  0  0  0  0  0  0
   11.4251  -18.0547   21.1675 O   0  0  0  0  0  0  0  0  0  0  0  0
    8.6537  -17.6784   16.5594 O   0  0  0  0  0  0  0  0  0  0  0  0
   11.8288  -15.8266   20.7896 N   0  0  0  0  0  0  0  0  0  0  0  0
   13.0412  -15.8573   21.6251 C   0  0  1  0  0  0  0  0  0  0  0  0
   13.9813  -14.7810   21.1939 C   0  0  0  0  0  0  0  0  0  0  0  0
   14.5848  -14.9338   19.8762 C   0  0  0  0  0  0  0  0  0  0  0  0
   15.0110  -16.0977   19.5829 O   0  0  0  0  0  0  0  0  0  0  0  0
   12.6102  -15.6097   23.0187 C   0  0  0  0  0  0  0  0  0  0  0  0
   13.4833  -15.6324   23.9313 O   0  0  0  0  0  0  0  0  0  0  0  0
   14.7420  -13.9665   18.9287 O   0  0  0  0  0  0  0  0  0  0  0  0
   11.3063  -15.3524   23.3957 O   0  0  0  0  0  0  0  0  0  0  0  0
  2  1  1  6
  2  4  1  0
  3  2  1  0
  4  6  1  0
  5  4  2  0
  6  7  1  0
  7  8  1  6
  7 11  1  0
  9  8  1  0
 10  9  2  0
 11 12  2  0
 11 14  1  0
 13  9  1  0
 14 15  1  0
 15 19  1  0
 15 16  1  6
 16 17  1  0
 17 18  2  0
 19 22  1  0
 20 19  2  0
 21 17  1  0
M  END
$$$$
