PWA.pdb
     RDKit          3D

 27 29  0  0  1  0  0  0  0  0999 V2000
    8.1924  -15.5514   20.4226 N   0  0  0  0  0  0  0  0  0  0  0  0
    8.1160  -15.2531   18.9820 C   0  0  0  0  0  0  0  0  0  0  0  0
    8.0361  -13.7198   18.9721 C   0  0  0  0  0  0  0  0  0  0  0  0
    8.6346  -13.2963   20.2951 C   0  0  0  0  0  0  0  0  0  0  0  0
    9.2521  -14.5958   20.7770 C   0  0  1  0  0  0  0  0  0  0  0  0
    9.5105  -14.5900   22.2220 C   0  0  0  0  0  0  0  0  0  0  0  0
   10.3105  -13.7910   22.7391 O   0  0  0  0  0  0  0  0  0  0  0  0
    8.8497  -15.5046   23.0744 N   0  0  0  0  0  0  0  0  0  0  0  0
    8.6629  -15.3733   24.4687 C   0  0  1  0  0  0  0  0  0  0  0  0
    7.4653  -16.0202   25.0673 C   0  0  0  0  0  0  0  0  0  0  0  0
    6.4391  -14.9831   25.4516 C   0  0  0  0  0  0  0  0  0  0  0  0
    5.0896  -15.1348   25.6701 C   0  0  0  0  0  0  0  0  0  0  0  0
    4.5914  -13.9254   25.9784 N   0  0  0  0  0  0  0  0  0  0  0  0
    5.5540  -12.9869   25.9726 C   0  0  0  0  0  0  0  0  0  0  0  0
    5.6132  -11.6270   26.2069 C   0  0  0  0  0  0  0  0  0  0  0  0
    6.8204  -10.9395   26.1119 C   0  0  0  0  0  0  0  0  0  0  0  0
    7.9905  -11.5918   25.7818 C   0  0  0  0  0  0  0  0  0  0  0  0
    7.9189  -12.9472   25.5503 C   0  0  0  0  0  0  0  0  0  0  0  0
    6.7011  -13.6402   25.6459 C   0  0  0  0  0  0  0  0  0  0  0  0
    9.8717  -15.8100   25.1910 C   0  0  0  0  0  0  0  0  0  0  0  0
   10.6500  -16.6290   24.6045 O   0  0  0  0  0  0  0  0  0  0  0  0
   11.4572  -15.2379   28.5991 C   0  0  0  0  0  0  0  0  0  0  0  0
   11.3379  -15.9363   27.2514 C   0  0  2  0  0  0  0  0  0  0  0  0
   10.2304  -15.3826   26.4896 N   0  0  0  0  0  0  0  0  0  0  0  0
   11.1716  -17.3773   27.4740 C   0  0  0  0  0  0  0  0  0  0  0  0
   12.1872  -18.1634   27.9651 O   0  0  0  0  0  0  0  0  0  0  0  0
   10.0675  -17.8954   27.2055 O   0  0  0  0  0  0  0  0  0  0  0  0
  2  1  1  0
  3  2  1  0
  4  5  1  0
  4  3  1  0
  5  1  1  0
  5  6  1  1
  6  7  2  0
  8  6  1  0
  9  8  1  0
 10 11  1  0
  9 10  1  1
 11 19  1  0
 12 11  2  0
 12 13  1  0
 13 14  1  0
 14 15  1  0
 15 16  2  0
 17 16  1  0
 18 17  2  0
 19 14  2  0
 19 18  1  0
 20  9  1  0
 21 20  2  0
 23 22  1  1
 23 24  1  0
 23 25  1  0
 24 20  1  0
 25 26  1  0
 27 25  2  0
M  END
$$$$
