PWA.pdb
     RDKit          3D

 27 29  0  0  1  0  0  0  0  0999 V2000
    7.5052  -15.3155   20.7368 N   0  0  0  0  0  0  0  0  0  0  0  0
    7.0112  -14.8337   19.4353 C   0  0  0  0  0  0  0  0  0  0  0  0
    7.2168  -13.3167   19.5517 C   0  0  0  0  0  0  0  0  0  0  0  0
    8.2878  -13.1549   20.6074 C   0  0  0  0  0  0  0  0  0  0  0  0
    8.7794  -14.5823   20.7601 C   0  0  1  0  0  0  0  0  0  0  0  0
    9.4993  -14.7937   22.0217 C   0  0  0  0  0  0  0  0  0  0  0  0
   10.5750  -14.2193   22.2640 O   0  0  0  0  0  0  0  0  0  0  0  0
    8.9832  -15.6678   23.0064 N   0  0  0  0  0  0  0  0  0  0  0  0
    9.5298  -15.9124   24.2860 C   0  0  1  0  0  0  0  0  0  0  0  0
    8.5854  -16.2363   25.3881 C   0  0  0  0  0  0  0  0  0  0  0  0
    7.4740  -15.2177   25.4501 C   0  0  0  0  0  0  0  0  0  0  0  0
    6.1606  -15.3394   25.0601 C   0  0  0  0  0  0  0  0  0  0  0  0
    5.5571  -14.1627   25.2992 N   0  0  0  0  0  0  0  0  0  0  0  0
    6.4158  -13.2745   25.8292 C   0  0  0  0  0  0  0  0  0  0  0  0
    6.3463  -11.9628   26.2563 C   0  0  0  0  0  0  0  0  0  0  0  0
    7.4691  -11.3213   26.7732 C   0  0  0  0  0  0  0  0  0  0  0  0
    8.6812  -11.9726   26.8744 C   0  0  0  0  0  0  0  0  0  0  0  0
    8.7381  -13.2796   26.4453 C   0  0  0  0  0  0  0  0  0  0  0  0
    7.6057  -13.9261   25.9237 C   0  0  0  0  0  0  0  0  0  0  0  0
   10.5714  -16.9528   24.2081 C   0  0  0  0  0  0  0  0  0  0  0  0
   10.2096  -18.1323   23.8944 O   0  0  0  0  0  0  0  0  0  0  0  0
   14.3391  -17.1184   24.1383 C   0  0  0  0  0  0  0  0  0  0  0  0
   12.9694  -17.7578   24.3207 C   0  0  2  0  0  0  0  0  0  0  0  0
   11.9458  -16.7342   24.4549 N   0  0  0  0  0  0  0  0  0  0  0  0
   13.0069  -18.6395   25.4932 C   0  0  0  0  0  0  0  0  0  0  0  0
   13.8350  -19.7351   25.5582 O   0  0  0  0  0  0  0  0  0  0  0  0
   12.2581  -18.3762   26.4574 O   0  0  0  0  0  0  0  0  0  0  0  0
  2  1  1  0
  3  2  1  0
  4  5  1  0
  4  3  1  0
  5  1  1  0
  5  6  1  1
  6  7  2  0
  8  6  1  0
  9  8  1  0
 10 11  1  0
  9 10  1  1
 11 19  1  0
 12 11  2  0
 12 13  1  0
 13 14  1  0
 14 15  1  0
 15 16  2  0
 17 16  1  0
 18 17  2  0
 19 14  2  0
 19 18  1  0
 20  9  1  0
 21 20  2  0
 23 22  1  1
 23 24  1  0
 23 25  1  0
 24 20  1  0
 25 26  1  0
 27 25  2  0
M  END
$$$$
