PWA.pdb
     RDKit          3D

 27 29  0  0  1  0  0  0  0  0999 V2000
    7.4493  -15.3307   20.4839 N   0  0  0  0  0  0  0  0  0  0  0  0
    6.9875  -14.8605   19.1665 C   0  0  0  0  0  0  0  0  0  0  0  0
    7.1505  -13.3388   19.2899 C   0  0  0  0  0  0  0  0  0  0  0  0
    8.1809  -13.1510   20.3812 C   0  0  0  0  0  0  0  0  0  0  0  0
    8.7031  -14.5656   20.5502 C   0  0  1  0  0  0  0  0  0  0  0  0
    9.3851  -14.7600   21.8354 C   0  0  0  0  0  0  0  0  0  0  0  0
   10.3915  -14.0997   22.1471 O   0  0  0  0  0  0  0  0  0  0  0  0
    8.9111  -15.7156   22.7638 N   0  0  0  0  0  0  0  0  0  0  0  0
    9.4104  -15.9460   24.0652 C   0  0  1  0  0  0  0  0  0  0  0  0
    8.4237  -16.2244   25.1424 C   0  0  0  0  0  0  0  0  0  0  0  0
    7.3285  -15.1867   25.1390 C   0  0  0  0  0  0  0  0  0  0  0  0
    6.0968  -15.2248   24.5280 C   0  0  0  0  0  0  0  0  0  0  0  0
    5.4747  -14.0649   24.7994 N   0  0  0  0  0  0  0  0  0  0  0  0
    6.2431  -13.2676   25.5618 C   0  0  0  0  0  0  0  0  0  0  0  0
    6.1178  -12.0107   26.1203 C   0  0  0  0  0  0  0  0  0  0  0  0
    7.1461  -11.4648   26.8845 C   0  0  0  0  0  0  0  0  0  0  0  0
    8.3175  -12.1591   27.1067 C   0  0  0  0  0  0  0  0  0  0  0  0
    8.4308  -13.4109   26.5446 C   0  0  0  0  0  0  0  0  0  0  0  0
    7.3937  -13.9609   25.7737 C   0  0  0  0  0  0  0  0  0  0  0  0
   10.4286  -17.0120   24.0422 C   0  0  0  0  0  0  0  0  0  0  0  0
   10.0401  -18.1983   23.7933 O   0  0  0  0  0  0  0  0  0  0  0  0
   14.1806  -17.3440   24.0241 C   0  0  0  0  0  0  0  0  0  0  0  0
   12.7891  -17.8825   24.3272 C   0  0  2  0  0  0  0  0  0  0  0  0
   11.8081  -16.8109   24.2751 N   0  0  0  0  0  0  0  0  0  0  0  0
   12.8058  -18.5342   25.6420 C   0  0  0  0  0  0  0  0  0  0  0  0
   13.6292  -19.5998   25.9197 O   0  0  0  0  0  0  0  0  0  0  0  0
   12.0435  -18.0981   26.5299 O   0  0  0  0  0  0  0  0  0  0  0  0
  2  1  1  0
  3  2  1  0
  4  5  1  0
  4  3  1  0
  5  1  1  0
  5  6  1  1
  6  7  2  0
  8  6  1  0
  9  8  1  0
 10 11  1  0
  9 10  1  1
 11 19  1  0
 12 11  2  0
 12 13  1  0
 13 14  1  0
 14 15  1  0
 15 16  2  0
 17 16  1  0
 18 17  2  0
 19 14  2  0
 19 18  1  0
 20  9  1  0
 21 20  2  0
 23 22  1  1
 23 24  1  0
 23 25  1  0
 24 20  1  0
 25 26  1  0
 27 25  2  0
M  END
$$$$
