PWA.pdb
     RDKit          3D

 27 29  0  0  1  0  0  0  0  0999 V2000
    7.2559  -15.2448   20.8489 N   0  0  0  0  0  0  0  0  0  0  0  0
    6.6885  -14.7920   19.5671 C   0  0  0  0  0  0  0  0  0  0  0  0
    7.0696  -13.3048   19.5510 C   0  0  0  0  0  0  0  0  0  0  0  0
    8.2533  -13.2023   20.4871 C   0  0  0  0  0  0  0  0  0  0  0  0
    8.5985  -14.6646   20.6986 C   0  0  1  0  0  0  0  0  0  0  0  0
    9.4149  -14.8783   21.8997 C   0  0  0  0  0  0  0  0  0  0  0  0
   10.5710  -14.4303   21.9917 O   0  0  0  0  0  0  0  0  0  0  0  0
    8.9027  -15.6092   22.9966 N   0  0  0  0  0  0  0  0  0  0  0  0
    9.5390  -15.8186   24.2406 C   0  0  1  0  0  0  0  0  0  0  0  0
    8.6784  -16.1481   25.4077 C   0  0  0  0  0  0  0  0  0  0  0  0
    7.4808  -15.2318   25.4585 C   0  0  0  0  0  0  0  0  0  0  0  0
    6.1836  -15.4745   25.0707 C   0  0  0  0  0  0  0  0  0  0  0  0
    5.4776  -14.3535   25.2963 N   0  0  0  0  0  0  0  0  0  0  0  0
    6.2536  -13.3862   25.8155 C   0  0  0  0  0  0  0  0  0  0  0  0
    6.0674  -12.0811   26.2273 C   0  0  0  0  0  0  0  0  0  0  0  0
    7.1283  -11.3362   26.7361 C   0  0  0  0  0  0  0  0  0  0  0  0
    8.3935  -11.8757   26.8442 C   0  0  0  0  0  0  0  0  0  0  0  0
    8.5668  -13.1775   26.4302 C   0  0  0  0  0  0  0  0  0  0  0  0
    7.4966  -13.9283   25.9169 C   0  0  0  0  0  0  0  0  0  0  0  0
   10.6004  -16.8332   24.1090 C   0  0  0  0  0  0  0  0  0  0  0  0
   10.3139  -17.9168   23.5054 O   0  0  0  0  0  0  0  0  0  0  0  0
   14.3279  -17.0810   24.5227 C   0  0  0  0  0  0  0  0  0  0  0  0
   12.9427  -17.7127   24.4978 C   0  0  2  0  0  0  0  0  0  0  0  0
   11.9164  -16.6885   24.6039 N   0  0  0  0  0  0  0  0  0  0  0  0
   12.8442  -18.6894   25.5886 C   0  0  0  0  0  0  0  0  0  0  0  0
   13.6368  -19.8118   25.6391 O   0  0  0  0  0  0  0  0  0  0  0  0
   12.0100  -18.4841   26.4950 O   0  0  0  0  0  0  0  0  0  0  0  0
  2  1  1  0
  3  2  1  0
  4  5  1  0
  4  3  1  0
  5  1  1  0
  5  6  1  1
  6  7  2  0
  8  6  1  0
  9  8  1  0
 10 11  1  0
  9 10  1  1
 11 19  1  0
 12 11  2  0
 12 13  1  0
 13 14  1  0
 14 15  1  0
 15 16  2  0
 17 16  1  0
 18 17  2  0
 19 14  2  0
 19 18  1  0
 20  9  1  0
 21 20  2  0
 23 22  1  1
 23 24  1  0
 23 25  1  0
 24 20  1  0
 25 26  1  0
 27 25  2  0
M  END
$$$$
