PWA.pdb
     RDKit          3D

 27 29  0  0  1  0  0  0  0  0999 V2000
    7.3843  -15.4620   20.8810 N   0  0  0  0  0  0  0  0  0  0  0  0
    6.8981  -14.9881   19.5736 C   0  0  0  0  0  0  0  0  0  0  0  0
    7.1243  -13.4728   19.6732 C   0  0  0  0  0  0  0  0  0  0  0  0
    8.1966  -13.3139   20.7282 C   0  0  0  0  0  0  0  0  0  0  0  0
    8.6684  -14.7461   20.8973 C   0  0  1  0  0  0  0  0  0  0  0  0
    9.3843  -14.9533   22.1620 C   0  0  0  0  0  0  0  0  0  0  0  0
   10.4261  -14.3309   22.4322 O   0  0  0  0  0  0  0  0  0  0  0  0
    8.9031  -15.8781   23.1175 N   0  0  0  0  0  0  0  0  0  0  0  0
    9.4566  -16.1389   24.3910 C   0  0  1  0  0  0  0  0  0  0  0  0
    8.5145  -16.3340   25.5248 C   0  0  0  0  0  0  0  0  0  0  0  0
    7.4363  -15.2788   25.5055 C   0  0  0  0  0  0  0  0  0  0  0  0
    6.1511  -15.3579   25.0219 C   0  0  0  0  0  0  0  0  0  0  0  0
    5.5716  -14.1610   25.2157 N   0  0  0  0  0  0  0  0  0  0  0  0
    6.4192  -13.3001   25.8055 C   0  0  0  0  0  0  0  0  0  0  0  0
    6.3631  -11.9855   26.2252 C   0  0  0  0  0  0  0  0  0  0  0  0
    7.4665  -11.3800   26.8212 C   0  0  0  0  0  0  0  0  0  0  0  0
    8.6457  -12.0710   27.0102 C   0  0  0  0  0  0  0  0  0  0  0  0
    8.6896  -13.3806   26.5875 C   0  0  0  0  0  0  0  0  0  0  0  0
    7.5767  -13.9908   25.9861 C   0  0  0  0  0  0  0  0  0  0  0  0
   10.3870  -17.2805   24.3214 C   0  0  0  0  0  0  0  0  0  0  0  0
    9.8931  -18.4374   24.1264 O   0  0  0  0  0  0  0  0  0  0  0  0
   14.0819  -17.8697   23.9491 C   0  0  0  0  0  0  0  0  0  0  0  0
   12.6953  -18.3187   24.3897 C   0  0  2  0  0  0  0  0  0  0  0  0
   11.7907  -17.1824   24.4537 N   0  0  0  0  0  0  0  0  0  0  0  0
   12.8031  -18.9955   25.6874 C   0  0  0  0  0  0  0  0  0  0  0  0
   13.5063  -20.1664   25.8454 O   0  0  0  0  0  0  0  0  0  0  0  0
   12.2339  -18.4819   26.6732 O   0  0  0  0  0  0  0  0  0  0  0  0
  2  1  1  0
  3  2  1  0
  4  5  1  0
  4  3  1  0
  5  1  1  0
  5  6  1  1
  6  7  2  0
  8  6  1  0
  9  8  1  0
 10 11  1  0
  9 10  1  1
 11 19  1  0
 12 11  2  0
 12 13  1  0
 13 14  1  0
 14 15  1  0
 15 16  2  0
 17 16  1  0
 18 17  2  0
 19 14  2  0
 19 18  1  0
 20  9  1  0
 21 20  2  0
 23 22  1  1
 23 24  1  0
 23 25  1  0
 24 20  1  0
 25 26  1  0
 27 25  2  0
M  END
$$$$
