PWA.pdb
     RDKit          3D

 27 29  0  0  1  0  0  0  0  0999 V2000
    7.1883  -15.1543   20.6604 N   0  0  0  0  0  0  0  0  0  0  0  0
    6.7075  -14.5668   19.3980 C   0  0  0  0  0  0  0  0  0  0  0  0
    7.0789  -13.0867   19.5668 C   0  0  0  0  0  0  0  0  0  0  0  0
    8.1945  -13.0855   20.5882 C   0  0  0  0  0  0  0  0  0  0  0  0
    8.5342  -14.5623   20.6660 C   0  0  1  0  0  0  0  0  0  0  0  0
    9.2673  -14.9036   21.8911 C   0  0  0  0  0  0  0  0  0  0  0  0
   10.4024  -14.4511   22.1203 O   0  0  0  0  0  0  0  0  0  0  0  0
    8.6960  -15.7674   22.8540 N   0  0  0  0  0  0  0  0  0  0  0  0
    9.2578  -16.1317   24.0981 C   0  0  1  0  0  0  0  0  0  0  0  0
    8.3226  -16.4475   25.2103 C   0  0  0  0  0  0  0  0  0  0  0  0
    7.2693  -15.3748   25.3377 C   0  0  0  0  0  0  0  0  0  0  0  0
    5.9549  -15.3948   24.9328 C   0  0  0  0  0  0  0  0  0  0  0  0
    5.4157  -14.2056   25.2507 N   0  0  0  0  0  0  0  0  0  0  0  0
    6.3175  -13.4064   25.8468 C   0  0  0  0  0  0  0  0  0  0  0  0
    6.3172  -12.1260   26.3647 C   0  0  0  0  0  0  0  0  0  0  0  0
    7.4690  -11.5865   26.9317 C   0  0  0  0  0  0  0  0  0  0  0  0
    8.6419  -12.3105   26.9936 C   0  0  0  0  0  0  0  0  0  0  0  0
    8.6300  -13.5854   26.4738 C   0  0  0  0  0  0  0  0  0  0  0  0
    7.4682  -14.1291   25.9017 C   0  0  0  0  0  0  0  0  0  0  0  0
   10.2102  -17.2436   23.9245 C   0  0  0  0  0  0  0  0  0  0  0  0
    9.9515  -18.1124   23.0307 O   0  0  0  0  0  0  0  0  0  0  0  0
   13.1283  -17.9906   23.0562 C   0  0  0  0  0  0  0  0  0  0  0  0
   12.4334  -18.3764   24.3549 C   0  0  2  0  0  0  0  0  0  0  0  0
   11.3932  -17.4138   24.6789 N   0  0  0  0  0  0  0  0  0  0  0  0
   13.4354  -18.4670   25.4233 C   0  0  0  0  0  0  0  0  0  0  0  0
   14.4847  -19.3538   25.3686 O   0  0  0  0  0  0  0  0  0  0  0  0
   13.3214  -17.7090   26.4092 O   0  0  0  0  0  0  0  0  0  0  0  0
  2  1  1  0
  3  2  1  0
  4  5  1  0
  4  3  1  0
  5  1  1  0
  5  6  1  1
  6  7  2  0
  8  6  1  0
  9  8  1  0
 10 11  1  0
  9 10  1  1
 11 19  1  0
 12 11  2  0
 12 13  1  0
 13 14  1  0
 14 15  1  0
 15 16  2  0
 17 16  1  0
 18 17  2  0
 19 14  2  0
 19 18  1  0
 20  9  1  0
 21 20  2  0
 23 22  1  6
 23 24  1  0
 23 25  1  0
 24 20  1  0
 25 26  1  0
 27 25  2  0
M  END
$$$$
