PWA.pdb
     RDKit          3D

 27 29  0  0  1  0  0  0  0  0999 V2000
    7.3595  -15.5059   20.9861 N   0  0  0  0  0  0  0  0  0  0  0  0
    6.8099  -15.0747   19.6892 C   0  0  0  0  0  0  0  0  0  0  0  0
    7.0759  -13.5627   19.7108 C   0  0  0  0  0  0  0  0  0  0  0  0
    8.2103  -13.3871   20.6958 C   0  0  0  0  0  0  0  0  0  0  0  0
    8.6584  -14.8224   20.8993 C   0  0  1  0  0  0  0  0  0  0  0  0
    9.4407  -14.9948   22.1293 C   0  0  0  0  0  0  0  0  0  0  0  0
   10.5062  -14.3820   22.3169 O   0  0  0  0  0  0  0  0  0  0  0  0
    8.9991  -15.8739   23.1452 N   0  0  0  0  0  0  0  0  0  0  0  0
    9.5925  -16.0619   24.4135 C   0  0  1  0  0  0  0  0  0  0  0  0
    8.6861  -16.2611   25.5754 C   0  0  0  0  0  0  0  0  0  0  0  0
    7.5565  -15.2613   25.5438 C   0  0  0  0  0  0  0  0  0  0  0  0
    6.2692  -15.4184   25.0855 C   0  0  0  0  0  0  0  0  0  0  0  0
    5.6340  -14.2461   25.2538 N   0  0  0  0  0  0  0  0  0  0  0  0
    6.4471  -13.3269   25.8028 C   0  0  0  0  0  0  0  0  0  0  0  0
    6.3324  -12.0044   26.1842 C   0  0  0  0  0  0  0  0  0  0  0  0
    7.4137  -11.3274   26.7424 C   0  0  0  0  0  0  0  0  0  0  0  0
    8.6287  -11.9534   26.9311 C   0  0  0  0  0  0  0  0  0  0  0  0
    8.7310  -13.2715   26.5467 C   0  0  0  0  0  0  0  0  0  0  0  0
    7.6402  -13.9538   25.9835 C   0  0  0  0  0  0  0  0  0  0  0  0
   10.5756  -17.1593   24.3618 C   0  0  0  0  0  0  0  0  0  0  0  0
   10.1425  -18.3334   24.1289 O   0  0  0  0  0  0  0  0  0  0  0  0
   14.3249  -17.5724   24.2479 C   0  0  0  0  0  0  0  0  0  0  0  0
   12.9221  -18.0971   24.5217 C   0  0  2  0  0  0  0  0  0  0  0  0
   11.9673  -17.0011   24.5506 N   0  0  0  0  0  0  0  0  0  0  0  0
   12.9291  -18.8391   25.7878 C   0  0  0  0  0  0  0  0  0  0  0  0
   13.7104  -19.9545   25.9775 O   0  0  0  0  0  0  0  0  0  0  0  0
   12.1980  -18.4350   26.7161 O   0  0  0  0  0  0  0  0  0  0  0  0
  2  1  1  0
  3  2  1  0
  4  5  1  0
  4  3  1  0
  5  1  1  0
  5  6  1  1
  6  7  2  0
  8  6  1  0
  9  8  1  0
 10 11  1  0
  9 10  1  1
 11 19  1  0
 12 11  2  0
 12 13  1  0
 13 14  1  0
 14 15  1  0
 15 16  2  0
 17 16  1  0
 18 17  2  0
 19 14  2  0
 19 18  1  0
 20  9  1  0
 21 20  2  0
 23 22  1  1
 23 24  1  0
 23 25  1  0
 24 20  1  0
 25 26  1  0
 27 25  2  0
M  END
$$$$
