PWA.pdb
     RDKit          3D

 27 29  0  0  1  0  0  0  0  0999 V2000
   10.1886  -18.4016   18.7890 N   0  0  0  0  0  0  0  0  0  0  0  0
    9.8796  -19.6777   18.1211 C   0  0  0  0  0  0  0  0  0  0  0  0
   10.2396  -20.7056   19.2034 C   0  0  0  0  0  0  0  0  0  0  0  0
   10.1609  -19.9367   20.5036 C   0  0  0  0  0  0  0  0  0  0  0  0
    9.4857  -18.6539   20.0554 C   0  0  1  0  0  0  0  0  0  0  0  0
    9.6832  -17.5555   21.0089 C   0  0  0  0  0  0  0  0  0  0  0  0
   10.7822  -16.9872   21.1319 O   0  0  0  0  0  0  0  0  0  0  0  0
    8.6167  -17.1099   21.8237 N   0  0  0  0  0  0  0  0  0  0  0  0
    8.6649  -16.0735   22.7826 C   0  0  1  0  0  0  0  0  0  0  0  0
    7.4244  -15.2850   23.0077 C   0  0  0  0  0  0  0  0  0  0  0  0
    7.7372  -14.0013   23.7361 C   0  0  0  0  0  0  0  0  0  0  0  0
    8.5355  -12.9519   23.3444 C   0  0  0  0  0  0  0  0  0  0  0  0
    8.5158  -12.0388   24.3302 N   0  0  0  0  0  0  0  0  0  0  0  0
    7.7394  -12.4419   25.3511 C   0  0  0  0  0  0  0  0  0  0  0  0
    7.3678  -11.9254   26.5769 C   0  0  0  0  0  0  0  0  0  0  0  0
    6.5157  -12.6342   27.4200 C   0  0  0  0  0  0  0  0  0  0  0  0
    6.0180  -13.8694   27.0593 C   0  0  0  0  0  0  0  0  0  0  0  0
    6.3958  -14.3740   25.8352 C   0  0  0  0  0  0  0  0  0  0  0  0
    7.2555  -13.6590   24.9853 C   0  0  0  0  0  0  0  0  0  0  0  0
    9.1608  -16.5902   24.0713 C   0  0  0  0  0  0  0  0  0  0  0  0
    8.5530  -17.5833   24.5858 O   0  0  0  0  0  0  0  0  0  0  0  0
   12.4056  -16.4448   25.8959 C   0  0  0  0  0  0  0  0  0  0  0  0
   10.9099  -16.7297   25.8967 C   0  0  2  0  0  0  0  0  0  0  0  0
   10.2659  -16.0626   24.7770 N   0  0  0  0  0  0  0  0  0  0  0  0
   10.3429  -16.2980   27.1796 C   0  0  0  0  0  0  0  0  0  0  0  0
   10.7221  -16.8634   28.3741 O   0  0  0  0  0  0  0  0  0  0  0  0
    9.4892  -15.3865   27.1740 O   0  0  0  0  0  0  0  0  0  0  0  0
  2  1  1  0
  3  2  1  0
  4  5  1  0
  4  3  1  0
  5  1  1  0
  5  6  1  1
  6  7  2  0
  8  6  1  0
  9  8  1  0
 10 11  1  0
  9 10  1  1
 11 19  1  0
 12 11  2  0
 12 13  1  0
 13 14  1  0
 14 15  1  0
 15 16  2  0
 17 16  1  0
 18 17  2  0
 19 14  2  0
 19 18  1  0
 20  9  1  0
 21 20  2  0
 23 22  1  1
 23 24  1  0
 23 25  1  0
 24 20  1  0
 25 26  1  0
 27 25  2  0
M  END
$$$$
