PWA.pdb
     RDKit          3D

 27 29  0  0  1  0  0  0  0  0999 V2000
    7.5149  -15.6893   21.3674 N   0  0  0  0  0  0  0  0  0  0  0  0
    6.9291  -15.3105   20.0700 C   0  0  0  0  0  0  0  0  0  0  0  0
    7.0760  -13.7822   20.0816 C   0  0  0  0  0  0  0  0  0  0  0  0
    8.1964  -13.5123   21.0613 C   0  0  0  0  0  0  0  0  0  0  0  0
    8.7560  -14.9069   21.2717 C   0  0  1  0  0  0  0  0  0  0  0  0
    9.5535  -15.0099   22.4998 C   0  0  0  0  0  0  0  0  0  0  0  0
   10.6122  -14.3747   22.6462 O   0  0  0  0  0  0  0  0  0  0  0  0
    9.1347  -15.8453   23.5612 N   0  0  0  0  0  0  0  0  0  0  0  0
    9.7756  -16.0067   24.8099 C   0  0  1  0  0  0  0  0  0  0  0  0
    8.9138  -16.1763   26.0098 C   0  0  0  0  0  0  0  0  0  0  0  0
    7.6672  -15.3348   25.8901 C   0  0  0  0  0  0  0  0  0  0  0  0
    6.4087  -15.7001   25.4720 C   0  0  0  0  0  0  0  0  0  0  0  0
    5.6313  -14.6051   25.5246 N   0  0  0  0  0  0  0  0  0  0  0  0
    6.3235  -13.5377   25.9592 C   0  0  0  0  0  0  0  0  0  0  0  0
    6.0440  -12.2066   26.1993 C   0  0  0  0  0  0  0  0  0  0  0  0
    7.0330  -11.3436   26.6646 C   0  0  0  0  0  0  0  0  0  0  0  0
    8.3176  -11.7887   26.8992 C   0  0  0  0  0  0  0  0  0  0  0  0
    8.5842  -13.1174   26.6560 C   0  0  0  0  0  0  0  0  0  0  0  0
    7.5866  -13.9874   26.1864 C   0  0  0  0  0  0  0  0  0  0  0  0
   10.7531  -17.1084   24.7457 C   0  0  0  0  0  0  0  0  0  0  0  0
   11.3039  -17.4771   25.8325 O   0  0  0  0  0  0  0  0  0  0  0  0
   11.8760  -19.6796   22.2103 C   0  0  0  0  0  0  0  0  0  0  0  0
   12.0235  -18.9276   23.5260 C   0  0  2  0  0  0  0  0  0  0  0  0
   11.1220  -17.7876   23.5624 N   0  0  0  0  0  0  0  0  0  0  0  0
   13.4225  -18.5136   23.6844 C   0  0  0  0  0  0  0  0  0  0  0  0
   13.7980  -17.1909   23.6862 O   0  0  0  0  0  0  0  0  0  0  0  0
   14.2915  -19.3999   23.8216 O   0  0  0  0  0  0  0  0  0  0  0  0
  2  1  1  0
  3  2  1  0
  4  5  1  0
  4  3  1  0
  5  1  1  0
  5  6  1  1
  6  7  2  0
  8  6  1  0
  9  8  1  0
 10 11  1  0
  9 10  1  1
 11 19  1  0
 12 11  2  0
 12 13  1  0
 13 14  1  0
 14 15  1  0
 15 16  2  0
 17 16  1  0
 18 17  2  0
 19 14  2  0
 19 18  1  0
 20  9  1  0
 21 20  2  0
 23 22  1  6
 23 24  1  0
 23 25  1  0
 24 20  1  0
 25 26  1  0
 27 25  2  0
M  END
$$$$
