PWA.pdb
     RDKit          3D

 27 29  0  0  1  0  0  0  0  0999 V2000
    7.3624  -15.1505   20.6185 N   0  0  0  0  0  0  0  0  0  0  0  0
    6.9005  -14.5946   19.3349 C   0  0  0  0  0  0  0  0  0  0  0  0
    7.2329  -13.1036   19.4889 C   0  0  0  0  0  0  0  0  0  0  0  0
    8.3217  -13.0599   20.5379 C   0  0  0  0  0  0  0  0  0  0  0  0
    8.6935  -14.5269   20.6484 C   0  0  1  0  0  0  0  0  0  0  0  0
    9.4028  -14.8313   21.8970 C   0  0  0  0  0  0  0  0  0  0  0  0
   10.5238  -14.3539   22.1443 O   0  0  0  0  0  0  0  0  0  0  0  0
    8.8239  -15.6870   22.8627 N   0  0  0  0  0  0  0  0  0  0  0  0
    9.3308  -15.9688   24.1510 C   0  0  1  0  0  0  0  0  0  0  0  0
    8.3485  -16.2486   25.2317 C   0  0  0  0  0  0  0  0  0  0  0  0
    7.3038  -15.1618   25.2927 C   0  0  0  0  0  0  0  0  0  0  0  0
    6.0187  -15.1629   24.8023 C   0  0  0  0  0  0  0  0  0  0  0  0
    5.4759  -13.9671   25.0874 N   0  0  0  0  0  0  0  0  0  0  0  0
    6.3474  -13.1814   25.7437 C   0  0  0  0  0  0  0  0  0  0  0  0
    6.3304  -11.9022   26.2641 C   0  0  0  0  0  0  0  0  0  0  0  0
    7.4497  -11.3796   26.9070 C   0  0  0  0  0  0  0  0  0  0  0  0
    8.6060  -12.1197   27.0438 C   0  0  0  0  0  0  0  0  0  0  0  0
    8.6110  -13.3934   26.5208 C   0  0  0  0  0  0  0  0  0  0  0  0
    7.4821  -13.9199   25.8721 C   0  0  0  0  0  0  0  0  0  0  0  0
   10.3167  -17.0630   24.0858 C   0  0  0  0  0  0  0  0  0  0  0  0
    9.9471  -18.1643   23.5652 O   0  0  0  0  0  0  0  0  0  0  0  0
   14.0241  -17.5368   24.4815 C   0  0  0  0  0  0  0  0  0  0  0  0
   12.5993  -18.0729   24.5108 C   0  0  2  0  0  0  0  0  0  0  0  0
   11.6458  -16.9765   24.5586 N   0  0  0  0  0  0  0  0  0  0  0  0
   12.4499  -18.9677   25.6644 C   0  0  0  0  0  0  0  0  0  0  0  0
   13.1578  -20.1411   25.7763 O   0  0  0  0  0  0  0  0  0  0  0  0
   11.6514  -18.6424   26.5678 O   0  0  0  0  0  0  0  0  0  0  0  0
  2  1  1  0
  3  2  1  0
  4  5  1  0
  4  3  1  0
  5  1  1  0
  5  6  1  1
  6  7  2  0
  8  6  1  0
  9  8  1  0
 10 11  1  0
  9 10  1  1
 11 19  1  0
 12 11  2  0
 12 13  1  0
 13 14  1  0
 14 15  1  0
 15 16  2  0
 17 16  1  0
 18 17  2  0
 19 14  2  0
 19 18  1  0
 20  9  1  0
 21 20  2  0
 23 22  1  1
 23 24  1  0
 23 25  1  0
 24 20  1  0
 25 26  1  0
 27 25  2  0
M  END
$$$$
