PWA.pdb
     RDKit          3D

 27 29  0  0  1  0  0  0  0  0999 V2000
    7.2896  -15.2759   20.9967 N   0  0  0  0  0  0  0  0  0  0  0  0
    6.6698  -14.7894   19.7520 C   0  0  0  0  0  0  0  0  0  0  0  0
    7.0710  -13.3074   19.7477 C   0  0  0  0  0  0  0  0  0  0  0  0
    8.2981  -13.2399   20.6294 C   0  0  0  0  0  0  0  0  0  0  0  0
    8.6319  -14.7107   20.7954 C   0  0  1  0  0  0  0  0  0  0  0  0
    9.5000  -14.9598   21.9526 C   0  0  0  0  0  0  0  0  0  0  0  0
   10.6504  -14.4929   22.0186 O   0  0  0  0  0  0  0  0  0  0  0  0
    9.0462  -15.7480   23.0355 N   0  0  0  0  0  0  0  0  0  0  0  0
    9.7024  -15.9388   24.2722 C   0  0  1  0  0  0  0  0  0  0  0  0
    8.8573  -16.2036   25.4667 C   0  0  0  0  0  0  0  0  0  0  0  0
    7.6530  -15.2948   25.4759 C   0  0  0  0  0  0  0  0  0  0  0  0
    6.3560  -15.5667   25.1073 C   0  0  0  0  0  0  0  0  0  0  0  0
    5.6424  -14.4409   25.2783 N   0  0  0  0  0  0  0  0  0  0  0  0
    6.4133  -13.4424   25.7433 C   0  0  0  0  0  0  0  0  0  0  0  0
    6.2189  -12.1192   26.0882 C   0  0  0  0  0  0  0  0  0  0  0  0
    7.2764  -11.3413   26.5528 C   0  0  0  0  0  0  0  0  0  0  0  0
    8.5461  -11.8651   26.6826 C   0  0  0  0  0  0  0  0  0  0  0  0
    8.7275  -13.1851   26.3354 C   0  0  0  0  0  0  0  0  0  0  0  0
    7.6609  -13.9693   25.8665 C   0  0  0  0  0  0  0  0  0  0  0  0
   10.7281  -16.9908   24.1512 C   0  0  0  0  0  0  0  0  0  0  0  0
   10.3390  -18.1689   23.8664 O   0  0  0  0  0  0  0  0  0  0  0  0
   14.4835  -17.2332   23.9189 C   0  0  0  0  0  0  0  0  0  0  0  0
   13.1149  -17.8339   24.2092 C   0  0  2  0  0  0  0  0  0  0  0  0
   12.1153  -16.7849   24.3269 N   0  0  0  0  0  0  0  0  0  0  0  0
   13.1975  -18.6393   25.4332 C   0  0  0  0  0  0  0  0  0  0  0  0
   14.0232  -19.7341   25.5340 O   0  0  0  0  0  0  0  0  0  0  0  0
   12.4905  -18.3101   26.4086 O   0  0  0  0  0  0  0  0  0  0  0  0
  2  1  1  0
  3  2  1  0
  4  5  1  0
  4  3  1  0
  5  1  1  0
  5  6  1  1
  6  7  2  0
  8  6  1  0
  9  8  1  0
 10 11  1  0
  9 10  1  1
 11 19  1  0
 12 11  2  0
 12 13  1  0
 13 14  1  0
 14 15  1  0
 15 16  2  0
 17 16  1  0
 18 17  2  0
 19 14  2  0
 19 18  1  0
 20  9  1  0
 21 20  2  0
 23 22  1  1
 23 24  1  0
 23 25  1  0
 24 20  1  0
 25 26  1  0
 27 25  2  0
M  END
$$$$
