PWA.pdb
     RDKit          3D

 27 29  0  0  1  0  0  0  0  0999 V2000
    7.3368  -15.8754   21.2538 N   0  0  0  0  0  0  0  0  0  0  0  0
    6.8344  -15.4517   19.9355 C   0  0  0  0  0  0  0  0  0  0  0  0
    7.1006  -13.9398   19.9575 C   0  0  0  0  0  0  0  0  0  0  0  0
    8.1992  -13.7589   20.9814 C   0  0  0  0  0  0  0  0  0  0  0  0
    8.6385  -15.1933   21.2095 C   0  0  1  0  0  0  0  0  0  0  0  0
    9.3761  -15.3587   22.4678 C   0  0  0  0  0  0  0  0  0  0  0  0
   10.4035  -14.7031   22.7135 O   0  0  0  0  0  0  0  0  0  0  0  0
    8.9336  -16.2801   23.4450 N   0  0  0  0  0  0  0  0  0  0  0  0
    9.4425  -16.4291   24.7545 C   0  0  1  0  0  0  0  0  0  0  0  0
    8.4618  -16.5173   25.8689 C   0  0  0  0  0  0  0  0  0  0  0  0
    7.4298  -15.4227   25.7544 C   0  0  0  0  0  0  0  0  0  0  0  0
    6.1344  -15.4937   25.2973 C   0  0  0  0  0  0  0  0  0  0  0  0
    5.6102  -14.2587   25.3740 N   0  0  0  0  0  0  0  0  0  0  0  0
    6.5037  -13.3805   25.8616 C   0  0  0  0  0  0  0  0  0  0  0  0
    6.5111  -12.0286   26.1445 C   0  0  0  0  0  0  0  0  0  0  0  0
    7.6493  -11.4151   26.6614 C   0  0  0  0  0  0  0  0  0  0  0  0
    8.8008  -12.1347   26.9060 C   0  0  0  0  0  0  0  0  0  0  0  0
    8.7813  -13.4814   26.6198 C   0  0  0  0  0  0  0  0  0  0  0  0
    7.6333  -14.0998   26.0982 C   0  0  0  0  0  0  0  0  0  0  0  0
   10.3652  -17.5772   24.8183 C   0  0  0  0  0  0  0  0  0  0  0  0
    9.9997  -18.6637   24.2648 O   0  0  0  0  0  0  0  0  0  0  0  0
   13.9172  -18.3124   25.8676 C   0  0  0  0  0  0  0  0  0  0  0  0
   12.4749  -18.7293   25.6140 C   0  0  2  0  0  0  0  0  0  0  0  0
   11.6299  -17.5578   25.4490 N   0  0  0  0  0  0  0  0  0  0  0  0
   12.0187  -19.5703   26.7267 C   0  0  0  0  0  0  0  0  0  0  0  0
   12.6184  -20.7698   27.0304 O   0  0  0  0  0  0  0  0  0  0  0  0
   11.0540  -19.1735   27.4133 O   0  0  0  0  0  0  0  0  0  0  0  0
  2  1  1  0
  3  2  1  0
  4  5  1  0
  4  3  1  0
  5  1  1  0
  5  6  1  1
  6  7  2  0
  8  6  1  0
  9  8  1  0
 10 11  1  0
  9 10  1  1
 11 19  1  0
 12 11  2  0
 12 13  1  0
 13 14  1  0
 14 15  1  0
 15 16  2  0
 17 16  1  0
 18 17  2  0
 19 14  2  0
 19 18  1  0
 20  9  1  0
 21 20  2  0
 23 22  1  1
 23 24  1  0
 23 25  1  0
 24 20  1  0
 25 26  1  0
 27 25  2  0
M  END
$$$$
