PWA.pdb
     RDKit          3D

 27 29  0  0  1  0  0  0  0  0999 V2000
    7.3742  -15.4390   20.8729 N   0  0  0  0  0  0  0  0  0  0  0  0
    6.7897  -14.9974   19.5949 C   0  0  0  0  0  0  0  0  0  0  0  0
    7.0403  -13.4830   19.6298 C   0  0  0  0  0  0  0  0  0  0  0  0
    8.1958  -13.3077   20.5900 C   0  0  0  0  0  0  0  0  0  0  0  0
    8.6635  -14.7407   20.7644 C   0  0  1  0  0  0  0  0  0  0  0  0
    9.4764  -14.9202   21.9733 C   0  0  0  0  0  0  0  0  0  0  0  0
   10.5823  -14.3674   22.1047 O   0  0  0  0  0  0  0  0  0  0  0  0
    9.0189  -15.7375   23.0328 N   0  0  0  0  0  0  0  0  0  0  0  0
    9.6572  -15.9405   24.2768 C   0  0  1  0  0  0  0  0  0  0  0  0
    8.7975  -16.2510   25.4497 C   0  0  0  0  0  0  0  0  0  0  0  0
    7.6108  -15.3205   25.4981 C   0  0  0  0  0  0  0  0  0  0  0  0
    6.3102  -15.5498   25.1138 C   0  0  0  0  0  0  0  0  0  0  0  0
    5.6178  -14.4195   25.3352 N   0  0  0  0  0  0  0  0  0  0  0  0
    6.4061  -13.4589   25.8482 C   0  0  0  0  0  0  0  0  0  0  0  0
    6.2360  -12.1496   26.2538 C   0  0  0  0  0  0  0  0  0  0  0  0
    7.3066  -11.4148   26.7570 C   0  0  0  0  0  0  0  0  0  0  0  0
    8.5655  -11.9686   26.8655 C   0  0  0  0  0  0  0  0  0  0  0  0
    8.7227  -13.2743   26.4577 C   0  0  0  0  0  0  0  0  0  0  0  0
    7.6429  -14.0149   25.9500 C   0  0  0  0  0  0  0  0  0  0  0  0
   10.7092  -16.9658   24.1517 C   0  0  0  0  0  0  0  0  0  0  0  0
   10.3435  -18.1758   24.0009 O   0  0  0  0  0  0  0  0  0  0  0  0
   14.4319  -17.1451   23.6120 C   0  0  0  0  0  0  0  0  0  0  0  0
   13.1230  -17.7299   24.1248 C   0  0  2  0  0  0  0  0  0  0  0  0
   12.0972  -16.7015   24.1852 N   0  0  0  0  0  0  0  0  0  0  0  0
   13.3550  -18.3374   25.4404 C   0  0  0  0  0  0  0  0  0  0  0  0
   12.6742  -17.9312   26.5638 O   0  0  0  0  0  0  0  0  0  0  0  0
   14.2003  -19.2523   25.5304 O   0  0  0  0  0  0  0  0  0  0  0  0
  2  1  1  0
  3  2  1  0
  4  5  1  0
  4  3  1  0
  5  1  1  0
  5  6  1  1
  6  7  2  0
  8  6  1  0
  9  8  1  0
 10 11  1  0
  9 10  1  1
 11 19  1  0
 12 11  2  0
 12 13  1  0
 13 14  1  0
 14 15  1  0
 15 16  2  0
 17 16  1  0
 18 17  2  0
 19 14  2  0
 19 18  1  0
 20  9  1  0
 21 20  2  0
 23 22  1  1
 23 24  1  0
 23 25  1  0
 24 20  1  0
 25 26  1  0
 27 25  2  0
M  END
$$$$
