PWA.pdb
     RDKit          3D

 27 29  0  0  1  0  0  0  0  0999 V2000
    7.2358  -15.3174   20.7600 N   0  0  0  0  0  0  0  0  0  0  0  0
    6.7022  -14.8500   19.4690 C   0  0  0  0  0  0  0  0  0  0  0  0
    6.9600  -13.3381   19.5398 C   0  0  0  0  0  0  0  0  0  0  0  0
    8.0796  -13.1868   20.5456 C   0  0  0  0  0  0  0  0  0  0  0  0
    8.5322  -14.6254   20.7122 C   0  0  1  0  0  0  0  0  0  0  0  0
    9.2982  -14.8311   21.9474 C   0  0  0  0  0  0  0  0  0  0  0  0
   10.3672  -14.2330   22.1601 O   0  0  0  0  0  0  0  0  0  0  0  0
    8.8359  -15.7264   22.9396 N   0  0  0  0  0  0  0  0  0  0  0  0
    9.4406  -15.9836   24.1903 C   0  0  1  0  0  0  0  0  0  0  0  0
    8.5478  -16.3207   25.3307 C   0  0  0  0  0  0  0  0  0  0  0  0
    7.3993  -15.3456   25.4108 C   0  0  0  0  0  0  0  0  0  0  0  0
    6.0963  -15.5015   24.9987 C   0  0  0  0  0  0  0  0  0  0  0  0
    5.4471  -14.3561   25.2680 N   0  0  0  0  0  0  0  0  0  0  0  0
    6.2659  -13.4557   25.8391 C   0  0  0  0  0  0  0  0  0  0  0  0
    6.1430  -12.1625   26.3083 C   0  0  0  0  0  0  0  0  0  0  0  0
    7.2349  -11.4985   26.8617 C   0  0  0  0  0  0  0  0  0  0  0  0
    8.4686  -12.1086   26.9583 C   0  0  0  0  0  0  0  0  0  0  0  0
    8.5788  -13.3976   26.4871 C   0  0  0  0  0  0  0  0  0  0  0  0
    7.4775  -14.0668   25.9286 C   0  0  0  0  0  0  0  0  0  0  0  0
   10.4788  -17.0214   24.0539 C   0  0  0  0  0  0  0  0  0  0  0  0
   10.0999  -18.2105   23.8031 O   0  0  0  0  0  0  0  0  0  0  0  0
   14.2499  -17.2352   23.8597 C   0  0  0  0  0  0  0  0  0  0  0  0
   12.8752  -17.8365   24.1182 C   0  0  2  0  0  0  0  0  0  0  0  0
   11.8675  -16.7904   24.1797 N   0  0  0  0  0  0  0  0  0  0  0  0
   12.9210  -18.6144   25.3617 C   0  0  0  0  0  0  0  0  0  0  0  0
   12.2547  -18.2180   26.4972 O   0  0  0  0  0  0  0  0  0  0  0  0
   13.5897  -19.6690   25.3773 O   0  0  0  0  0  0  0  0  0  0  0  0
  2  1  1  0
  3  2  1  0
  4  5  1  0
  4  3  1  0
  5  1  1  0
  5  6  1  1
  6  7  2  0
  8  6  1  0
  9  8  1  0
 10 11  1  0
  9 10  1  1
 11 19  1  0
 12 11  2  0
 12 13  1  0
 13 14  1  0
 14 15  1  0
 15 16  2  0
 17 16  1  0
 18 17  2  0
 19 14  2  0
 19 18  1  0
 20  9  1  0
 21 20  2  0
 23 22  1  1
 23 24  1  0
 23 25  1  0
 24 20  1  0
 25 26  1  0
 27 25  2  0
M  END
$$$$
