NGM.pdb
     RDKit          3D

 21 20  0  0  1  0  0  0  0  0999 V2000
    8.5299  -12.5297   16.6002 N   0  0  0  0  0  0  0  0  0  0  0  0
    7.8788  -13.7917   16.6786 C   0  0  0  0  0  0  0  0  0  0  0  0
    7.8015  -14.4595   15.6171 O   0  0  0  0  0  0  0  0  0  0  0  0
    7.3475  -14.2245   17.9759 C   0  0  0  0  0  0  0  0  0  0  0  0
    8.4145  -14.6543   18.9435 C   0  0  2  0  0  0  0  0  0  0  0  0
    9.1062  -15.7938   18.3782 N   0  0  0  0  0  0  0  0  0  0  0  0
    7.9070  -15.0125   20.2661 C   0  0  0  0  0  0  0  0  0  0  0  0
    7.3798  -14.1245   20.9992 O   0  0  0  0  0  0  0  0  0  0  0  0
    7.9654  -16.3323   20.8050 N   0  0  0  0  0  0  0  0  0  0  0  0
    7.4241  -16.5837   22.1089 C   0  0  0  0  0  0  0  0  0  0  0  0
    8.2305  -16.1198   23.2387 C   0  0  0  0  0  0  0  0  0  0  0  0
    9.4587  -15.9144   22.9757 O   0  0  0  0  0  0  0  0  0  0  0  0
    5.9921  -10.6981   26.3563 C   0  0  0  0  0  0  0  0  0  0  0  0
    6.6741  -12.2136   27.0745 S   0  0  0  0  0  0  0  0  0  0  0  0
    7.4684  -13.2582   25.7921 C   0  0  0  0  0  0  0  0  0  0  0  0
    8.0294  -14.4530   26.4845 C   0  0  0  0  0  0  0  0  0  0  0  0
    8.6904  -15.4623   25.6195 C   0  0  2  0  0  0  0  0  0  0  0  0
    7.7972  -15.8822   24.5582 N   0  0  0  0  0  0  0  0  0  0  0  0
    9.2668  -16.6295   26.3523 C   0  0  0  0  0  0  0  0  0  0  0  0
    8.7246  -17.7594   26.3548 O   0  0  0  0  0  0  0  0  0  0  0  0
   10.4465  -16.5252   27.0773 O   0  0  0  0  0  0  0  0  0  0  0  0
  2  1  1  0
  2  3  2  0
  4  2  1  0
  5  4  1  0
  5  6  1  6
  7  5  1  0
  7  8  2  0
  9  7  1  0
 10  9  1  0
 10 11  1  0
 11 18  1  0
 12 11  2  0
 14 13  1  0
 14 15  1  0
 15 16  1  0
 17 16  1  1
 17 19  1  0
 18 17  1  0
 19 21  1  0
 20 19  2  0
M  END
$$$$
