NGM.pdb
     RDKit          3D

 21 20  0  0  1  0  0  0  0  0999 V2000
    8.1882  -12.9373   16.1567 N   0  0  0  0  0  0  0  0  0  0  0  0
    7.7275  -14.2589   16.4097 C   0  0  0  0  0  0  0  0  0  0  0  0
    7.6351  -15.0288   15.4211 O   0  0  0  0  0  0  0  0  0  0  0  0
    7.3951  -14.6308   17.7895 C   0  0  0  0  0  0  0  0  0  0  0  0
    8.5842  -14.6339   18.7089 C   0  0  2  0  0  0  0  0  0  0  0  0
    9.6537  -15.3661   18.0635 N   0  0  0  0  0  0  0  0  0  0  0  0
    8.3212  -15.2285   20.0175 C   0  0  0  0  0  0  0  0  0  0  0  0
    7.5086  -14.6683   20.8110 O   0  0  0  0  0  0  0  0  0  0  0  0
    8.9341  -16.4322   20.4771 N   0  0  0  0  0  0  0  0  0  0  0  0
    8.5829  -16.9518   21.7666 C   0  0  0  0  0  0  0  0  0  0  0  0
    8.8416  -16.0702   22.9058 C   0  0  0  0  0  0  0  0  0  0  0  0
   10.0693  -15.9303   23.2109 O   0  0  0  0  0  0  0  0  0  0  0  0
    6.1288  -10.3943   27.7613 C   0  0  0  0  0  0  0  0  0  0  0  0
    5.8912  -11.6616   26.4904 S   0  0  0  0  0  0  0  0  0  0  0  0
    7.3758  -12.7277   26.3287 C   0  0  0  0  0  0  0  0  0  0  0  0
    7.1468  -13.6254   25.1611 C   0  0  0  0  0  0  0  0  0  0  0  0
    8.2529  -14.5556   24.8218 C   0  0  2  0  0  0  0  0  0  0  0  0
    7.8930  -15.3756   23.6824 N   0  0  0  0  0  0  0  0  0  0  0  0
    8.7455  -15.3815   25.9650 C   0  0  0  0  0  0  0  0  0  0  0  0
    9.4602  -14.9095   26.8799 O   0  0  0  0  0  0  0  0  0  0  0  0
    8.4349  -16.7302   26.0775 O   0  0  0  0  0  0  0  0  0  0  0  0
  2  1  1  0
  2  3  2  0
  4  2  1  0
  5  4  1  0
  5  6  1  6
  7  5  1  0
  7  8  2  0
  9  7  1  0
 10  9  1  0
 10 11  1  0
 11 18  1  0
 12 11  2  0
 14 13  1  0
 14 15  1  0
 15 16  1  0
 17 16  1  1
 17 19  1  0
 18 17  1  0
 19 21  1  0
 20 19  2  0
M  END
$$$$
