NGM.pdb
     RDKit          3D

 21 20  0  0  1  0  0  0  0  0999 V2000
   11.2807  -17.8038   16.4344 N   0  0  0  0  0  0  0  0  0  0  0  0
   10.7851  -18.7844   17.3375 C   0  0  0  0  0  0  0  0  0  0  0  0
   11.2599  -19.9433   17.2365 O   0  0  0  0  0  0  0  0  0  0  0  0
    9.7660  -18.3836   18.3139 C   0  0  0  0  0  0  0  0  0  0  0  0
   10.3423  -17.9476   19.6320 C   0  0  2  0  0  0  0  0  0  0  0  0
   10.9275  -19.1051   20.2755 N   0  0  0  0  0  0  0  0  0  0  0  0
    9.3663  -17.3422   20.5353 C   0  0  0  0  0  0  0  0  0  0  0  0
    9.0013  -16.1431   20.3548 O   0  0  0  0  0  0  0  0  0  0  0  0
    8.7781  -18.0286   21.6393 N   0  0  0  0  0  0  0  0  0  0  0  0
    7.8852  -17.3223   22.5111 C   0  0  0  0  0  0  0  0  0  0  0  0
    8.5125  -16.4233   23.4807 C   0  0  0  0  0  0  0  0  0  0  0  0
    9.7823  -16.4911   23.5352 O   0  0  0  0  0  0  0  0  0  0  0  0
    6.7563  -10.8602   27.4673 C   0  0  0  0  0  0  0  0  0  0  0  0
    5.7930  -11.9643   26.4040 S   0  0  0  0  0  0  0  0  0  0  0  0
    6.8819  -12.9225   25.2803 C   0  0  0  0  0  0  0  0  0  0  0  0
    7.6248  -13.9043   26.1204 C   0  0  0  0  0  0  0  0  0  0  0  0
    8.5606  -14.8062   25.4028 C   0  0  2  0  0  0  0  0  0  0  0  0
    7.8703  -15.5106   24.3409 N   0  0  0  0  0  0  0  0  0  0  0  0
    9.3231  -15.7414   26.2834 C   0  0  0  0  0  0  0  0  0  0  0  0
   10.4137  -15.4288   26.8159 O   0  0  0  0  0  0  0  0  0  0  0  0
    8.8604  -17.0205   26.5629 O   0  0  0  0  0  0  0  0  0  0  0  0
  2  1  1  0
  2  3  2  0
  4  2  1  0
  5  4  1  0
  5  6  1  1
  7  5  1  0
  7  8  2  0
  9  7  1  0
 10  9  1  0
 10 11  1  0
 11 18  1  0
 12 11  2  0
 14 13  1  0
 14 15  1  0
 15 16  1  0
 17 16  1  1
 17 19  1  0
 18 17  1  0
 19 21  1  0
 20 19  2  0
M  END
$$$$
