NGM.pdb
     RDKit          3D

 21 20  0  0  1  0  0  0  0  0999 V2000
   11.9936  -18.5933   19.0087 N   0  0  0  0  0  0  0  0  0  0  0  0
   12.0497  -18.4520   20.4228 C   0  0  0  0  0  0  0  0  0  0  0  0
   12.9317  -17.6851   20.8839 O   0  0  0  0  0  0  0  0  0  0  0  0
   11.0871  -19.2008   21.2385 C   0  0  0  0  0  0  0  0  0  0  0  0
    9.6625  -19.0218   20.7938 C   0  0  2  0  0  0  0  0  0  0  0  0
    9.6585  -18.8087   19.3617 N   0  0  0  0  0  0  0  0  0  0  0  0
    8.9732  -17.9091   21.4434 C   0  0  0  0  0  0  0  0  0  0  0  0
    8.7863  -17.9301   22.6957 O   0  0  0  0  0  0  0  0  0  0  0  0
    8.4818  -16.7665   20.7442 N   0  0  0  0  0  0  0  0  0  0  0  0
    7.7707  -15.7524   21.4669 C   0  0  0  0  0  0  0  0  0  0  0  0
    8.3324  -15.3762   22.7649 C   0  0  0  0  0  0  0  0  0  0  0  0
    9.2706  -14.5174   22.7174 O   0  0  0  0  0  0  0  0  0  0  0  0
    7.4446  -10.7578   27.7201 C   0  0  0  0  0  0  0  0  0  0  0  0
    6.8461  -11.9168   26.4646 S   0  0  0  0  0  0  0  0  0  0  0  0
    7.1067  -13.6563   26.9873 C   0  0  0  0  0  0  0  0  0  0  0  0
    6.9671  -14.5060   25.7708 C   0  0  0  0  0  0  0  0  0  0  0  0
    8.2126  -15.1340   25.2627 C   0  0  2  0  0  0  0  0  0  0  0  0
    7.9504  -15.8557   24.0336 N   0  0  0  0  0  0  0  0  0  0  0  0
    8.9348  -15.9810   26.2589 C   0  0  0  0  0  0  0  0  0  0  0  0
    9.2393  -15.5671   27.4020 O   0  0  0  0  0  0  0  0  0  0  0  0
    9.3115  -17.2859   25.9701 O   0  0  0  0  0  0  0  0  0  0  0  0
  2  1  1  0
  2  3  2  0
  4  2  1  0
  5  4  1  0
  5  6  1  6
  7  5  1  0
  7  8  2  0
  9  7  1  0
 10  9  1  0
 10 11  1  0
 11 18  1  0
 12 11  2  0
 14 13  1  0
 14 15  1  0
 15 16  1  0
 17 16  1  1
 17 19  1  0
 18 17  1  0
 19 21  1  0
 20 19  2  0
M  END
$$$$
