NGM.pdb
     RDKit          3D

 21 20  0  0  1  0  0  0  0  0999 V2000
    4.4445  -21.3974   23.3325 N   0  0  0  0  0  0  0  0  0  0  0  0
    5.2869  -21.6794   22.2218 C   0  0  0  0  0  0  0  0  0  0  0  0
    5.0389  -22.7244   21.5699 O   0  0  0  0  0  0  0  0  0  0  0  0
    6.3750  -20.7443   21.9150 C   0  0  0  0  0  0  0  0  0  0  0  0
    6.5335  -19.6570   22.9407 C   0  0  2  0  0  0  0  0  0  0  0  0
    5.2698  -18.9608   23.0618 N   0  0  0  0  0  0  0  0  0  0  0  0
    7.5823  -18.6902   22.6236 C   0  0  0  0  0  0  0  0  0  0  0  0
    8.7408  -18.8355   23.1138 O   0  0  0  0  0  0  0  0  0  0  0  0
    7.3860  -17.5603   21.7747 N   0  0  0  0  0  0  0  0  0  0  0  0
    8.4074  -16.5571   21.6924 C   0  0  0  0  0  0  0  0  0  0  0  0
    8.7062  -15.8424   22.9341 C   0  0  0  0  0  0  0  0  0  0  0  0
    9.9447  -15.7225   23.2020 O   0  0  0  0  0  0  0  0  0  0  0  0
    6.5203  -10.6086   25.8438 C   0  0  0  0  0  0  0  0  0  0  0  0
    6.1835  -11.8319   27.1353 S   0  0  0  0  0  0  0  0  0  0  0  0
    7.3191  -13.2672   27.0041 C   0  0  0  0  0  0  0  0  0  0  0  0
    7.0587  -13.9142   25.6869 C   0  0  0  0  0  0  0  0  0  0  0  0
    8.1804  -14.6940   25.1059 C   0  0  2  0  0  0  0  0  0  0  0  0
    7.7850  -15.2855   23.8433 N   0  0  0  0  0  0  0  0  0  0  0  0
    8.7797  -15.7053   26.0277 C   0  0  0  0  0  0  0  0  0  0  0  0
    9.5740  -15.3945   26.9459 O   0  0  0  0  0  0  0  0  0  0  0  0
    8.4860  -17.0579   25.9166 O   0  0  0  0  0  0  0  0  0  0  0  0
  2  1  1  0
  2  3  2  0
  4  2  1  0
  5  4  1  0
  5  6  1  6
  7  5  1  0
  7  8  2  0
  9  7  1  0
 10  9  1  0
 10 11  1  0
 11 18  1  0
 12 11  2  0
 14 13  1  0
 14 15  1  0
 15 16  1  0
 17 16  1  1
 17 19  1  0
 18 17  1  0
 19 21  1  0
 20 19  2  0
M  END
$$$$
