NGM.pdb
     RDKit          3D

 21 20  0  0  1  0  0  0  0  0999 V2000
    9.3322  -14.4412   15.9578 N   0  0  0  0  0  0  0  0  0  0  0  0
    7.9738  -14.0277   16.0400 C   0  0  0  0  0  0  0  0  0  0  0  0
    7.2761  -14.1547   15.0029 O   0  0  0  0  0  0  0  0  0  0  0  0
    7.4838  -13.4874   17.3130 C   0  0  0  0  0  0  0  0  0  0  0  0
    8.5276  -13.4705   18.3945 C   0  0  2  0  0  0  0  0  0  0  0  0
    9.7965  -13.8434   17.8053 N   0  0  0  0  0  0  0  0  0  0  0  0
    8.2390  -14.3668   19.5120 C   0  0  0  0  0  0  0  0  0  0  0  0
    7.2195  -14.1625   20.2350 O   0  0  0  0  0  0  0  0  0  0  0  0
    9.0497  -15.4896   19.8552 N   0  0  0  0  0  0  0  0  0  0  0  0
    8.6695  -16.3193   20.9613 C   0  0  0  0  0  0  0  0  0  0  0  0
    8.9132  -15.7641   22.2932 C   0  0  0  0  0  0  0  0  0  0  0  0
   10.1397  -15.6560   22.6158 O   0  0  0  0  0  0  0  0  0  0  0  0
    6.1291  -10.9279   27.8840 C   0  0  0  0  0  0  0  0  0  0  0  0
    5.8726  -12.1380   26.5621 S   0  0  0  0  0  0  0  0  0  0  0  0
    7.4171  -13.0572   26.1931 C   0  0  0  0  0  0  0  0  0  0  0  0
    7.1717  -13.8491   24.9545 C   0  0  0  0  0  0  0  0  0  0  0  0
    8.2983  -14.6917   24.4805 C   0  0  2  0  0  0  0  0  0  0  0  0
    7.9517  -15.3459   23.2346 N   0  0  0  0  0  0  0  0  0  0  0  0
    8.8182  -15.6625   25.4898 C   0  0  0  0  0  0  0  0  0  0  0  0
    9.4042  -15.2991   26.5363 O   0  0  0  0  0  0  0  0  0  0  0  0
    8.6787  -17.0338   25.3222 O   0  0  0  0  0  0  0  0  0  0  0  0
  2  1  1  0
  2  3  2  0
  4  2  1  0
  5  4  1  0
  5  6  1  6
  7  5  1  0
  7  8  2  0
  9  7  1  0
 10  9  1  0
 10 11  1  0
 11 18  1  0
 12 11  2  0
 14 13  1  0
 14 15  1  0
 15 16  1  0
 17 16  1  1
 17 19  1  0
 18 17  1  0
 19 21  1  0
 20 19  2  0
M  END
$$$$
