NGM.pdb
     RDKit          3D

 21 20  0  0  1  0  0  0  0  0999 V2000
    7.6948  -14.4354   14.0089 N   0  0  0  0  0  0  0  0  0  0  0  0
    8.4152  -14.1470   15.2008 C   0  0  0  0  0  0  0  0  0  0  0  0
    9.6165  -13.8028   15.0709 O   0  0  0  0  0  0  0  0  0  0  0  0
    7.7175  -14.2688   16.4857 C   0  0  0  0  0  0  0  0  0  0  0  0
    8.4343  -15.1477   17.4721 C   0  0  2  0  0  0  0  0  0  0  0  0
    8.6827  -16.4273   16.8417 N   0  0  0  0  0  0  0  0  0  0  0  0
    7.7006  -15.3639   18.7172 C   0  0  0  0  0  0  0  0  0  0  0  0
    6.4941  -15.7467   18.6779 O   0  0  0  0  0  0  0  0  0  0  0  0
    8.2659  -15.1683   20.0126 N   0  0  0  0  0  0  0  0  0  0  0  0
    7.4487  -15.3693   21.1737 C   0  0  0  0  0  0  0  0  0  0  0  0
    8.0638  -15.0305   22.4577 C   0  0  0  0  0  0  0  0  0  0  0  0
    9.3286  -14.8907   22.4290 O   0  0  0  0  0  0  0  0  0  0  0  0
    7.4444  -10.5776   26.6880 C   0  0  0  0  0  0  0  0  0  0  0  0
    6.2112  -11.8745   26.9624 S   0  0  0  0  0  0  0  0  0  0  0  0
    6.2337  -13.1109   25.6069 C   0  0  0  0  0  0  0  0  0  0  0  0
    7.2009  -14.1750   25.9991 C   0  0  0  0  0  0  0  0  0  0  0  0
    8.1297  -14.6407   24.9387 C   0  0  2  0  0  0  0  0  0  0  0  0
    7.4150  -14.8470   23.6949 N   0  0  0  0  0  0  0  0  0  0  0  0
    8.9517  -15.8318   25.3093 C   0  0  0  0  0  0  0  0  0  0  0  0
    8.6450  -16.9970   24.9646 O   0  0  0  0  0  0  0  0  0  0  0  0
   10.1118  -15.7115   26.0628 O   0  0  0  0  0  0  0  0  0  0  0  0
  2  1  1  0
  2  3  2  0
  4  2  1  0
  5  4  1  0
  5  6  1  6
  7  5  1  0
  7  8  2  0
  9  7  1  0
 10  9  1  0
 10 11  1  0
 11 18  1  0
 12 11  2  0
 14 13  1  0
 14 15  1  0
 15 16  1  0
 17 16  1  1
 17 19  1  0
 18 17  1  0
 19 21  1  0
 20 19  2  0
M  END
$$$$
