NGM.pdb
     RDKit          3D

 21 20  0  0  1  0  0  0  0  0999 V2000
    5.7487  -20.0104   16.9282 N   0  0  0  0  0  0  0  0  0  0  0  0
    7.0149  -19.6080   17.4359 C   0  0  0  0  0  0  0  0  0  0  0  0
    7.9280  -20.4710   17.4380 O   0  0  0  0  0  0  0  0  0  0  0  0
    7.1690  -18.2305   17.9170 C   0  0  0  0  0  0  0  0  0  0  0  0
    7.8649  -18.1378   19.2461 C   0  0  2  0  0  0  0  0  0  0  0  0
    7.0022  -18.7231   20.2509 N   0  0  0  0  0  0  0  0  0  0  0  0
    8.2039  -16.7735   19.6447 C   0  0  0  0  0  0  0  0  0  0  0  0
    9.0909  -16.1337   19.0062 O   0  0  0  0  0  0  0  0  0  0  0  0
    7.5866  -16.0916   20.7355 N   0  0  0  0  0  0  0  0  0  0  0  0
    8.0819  -14.8053   21.1311 C   0  0  0  0  0  0  0  0  0  0  0  0
    8.5936  -14.7078   22.4987 C   0  0  0  0  0  0  0  0  0  0  0  0
    9.6147  -13.9612   22.6400 O   0  0  0  0  0  0  0  0  0  0  0  0
    6.2305  -10.6909   26.8362 C   0  0  0  0  0  0  0  0  0  0  0  0
    6.4966  -12.4760   26.9787 S   0  0  0  0  0  0  0  0  0  0  0  0
    7.6218  -13.0875   25.6647 C   0  0  0  0  0  0  0  0  0  0  0  0
    7.8332  -14.5425   25.9096 C   0  0  0  0  0  0  0  0  0  0  0  0
    8.7189  -15.2475   24.9492 C   0  0  2  0  0  0  0  0  0  0  0  0
    8.0839  -15.3407   23.6498 N   0  0  0  0  0  0  0  0  0  0  0  0
    9.2159  -16.5755   25.4192 C   0  0  0  0  0  0  0  0  0  0  0  0
    8.8335  -17.6567   24.9137 O   0  0  0  0  0  0  0  0  0  0  0  0
   10.1380  -16.6855   26.4516 O   0  0  0  0  0  0  0  0  0  0  0  0
  2  1  1  0
  2  3  2  0
  4  2  1  0
  5  4  1  0
  5  6  1  1
  7  5  1  0
  7  8  2  0
  9  7  1  0
 10  9  1  0
 10 11  1  0
 11 18  1  0
 12 11  2  0
 14 13  1  0
 14 15  1  0
 15 16  1  0
 17 16  1  1
 17 19  1  0
 18 17  1  0
 19 21  1  0
 20 19  2  0
M  END
$$$$
