NGM.pdb
     RDKit          3D

 21 20  0  0  1  0  0  0  0  0999 V2000
    7.1413  -12.5993   17.0136 N   0  0  0  0  0  0  0  0  0  0  0  0
    8.0400  -13.6784   17.2390 C   0  0  0  0  0  0  0  0  0  0  0  0
    8.3764  -14.3579   16.2371 O   0  0  0  0  0  0  0  0  0  0  0  0
    8.5084  -13.9234   18.6076 C   0  0  0  0  0  0  0  0  0  0  0  0
    8.8635  -15.3607   18.8676 C   0  0  2  0  0  0  0  0  0  0  0  0
    7.8439  -16.1950   18.2671 N   0  0  0  0  0  0  0  0  0  0  0  0
    8.9805  -15.6961   20.2850 C   0  0  0  0  0  0  0  0  0  0  0  0
    9.7802  -15.0463   21.0212 O   0  0  0  0  0  0  0  0  0  0  0  0
    8.2339  -16.7354   20.9161 N   0  0  0  0  0  0  0  0  0  0  0  0
    8.8296  -17.4764   21.9896 C   0  0  0  0  0  0  0  0  0  0  0  0
    8.9637  -16.7663   23.2623 C   0  0  0  0  0  0  0  0  0  0  0  0
   10.0704  -16.9451   23.8650 O   0  0  0  0  0  0  0  0  0  0  0  0
    6.4518  -10.4277   26.6713 C   0  0  0  0  0  0  0  0  0  0  0  0
    5.9395  -12.1607   26.5618 S   0  0  0  0  0  0  0  0  0  0  0  0
    7.3916  -13.2809   26.5039 C   0  0  0  0  0  0  0  0  0  0  0  0
    7.2194  -14.1621   25.3142 C   0  0  0  0  0  0  0  0  0  0  0  0
    8.3003  -15.1491   25.0669 C   0  0  2  0  0  0  0  0  0  0  0  0
    8.0153  -15.9238   23.8757 N   0  0  0  0  0  0  0  0  0  0  0  0
    8.6232  -16.0250   26.2331 C   0  0  0  0  0  0  0  0  0  0  0  0
    8.0816  -17.1414   26.4090 O   0  0  0  0  0  0  0  0  0  0  0  0
    9.5505  -15.6465   27.1949 O   0  0  0  0  0  0  0  0  0  0  0  0
  2  1  1  0
  2  3  2  0
  4  2  1  0
  5  4  1  0
  5  6  1  1
  7  5  1  0
  7  8  2  0
  9  7  1  0
 10  9  1  0
 10 11  1  0
 11 18  1  0
 12 11  2  0
 14 13  1  0
 14 15  1  0
 15 16  1  0
 17 16  1  1
 17 19  1  0
 18 17  1  0
 19 21  1  0
 20 19  2  0
M  END
$$$$
