NGM.pdb
     RDKit          3D

 21 20  0  0  1  0  0  0  0  0999 V2000
    8.3390  -19.6731   18.5980 N   0  0  0  0  0  0  0  0  0  0  0  0
    7.2812  -19.2124   17.7663 C   0  0  0  0  0  0  0  0  0  0  0  0
    6.6176  -20.0854   17.1530 O   0  0  0  0  0  0  0  0  0  0  0  0
    7.0380  -17.7681   17.6806 C   0  0  0  0  0  0  0  0  0  0  0  0
    7.9676  -16.9553   18.5378 C   0  0  2  0  0  0  0  0  0  0  0  0
    9.3168  -17.4351   18.3237 N   0  0  0  0  0  0  0  0  0  0  0  0
    7.6617  -17.0134   19.9654 C   0  0  0  0  0  0  0  0  0  0  0  0
    6.6900  -16.3459   20.4281 O   0  0  0  0  0  0  0  0  0  0  0  0
    8.4034  -17.7932   20.9023 N   0  0  0  0  0  0  0  0  0  0  0  0
    7.9952  -17.8162   22.2768 C   0  0  0  0  0  0  0  0  0  0  0  0
    8.3661  -16.6475   23.0758 C   0  0  0  0  0  0  0  0  0  0  0  0
    9.5001  -16.1416   22.7964 O   0  0  0  0  0  0  0  0  0  0  0  0
    6.1548  -10.5728   27.6526 C   0  0  0  0  0  0  0  0  0  0  0  0
    5.8221  -12.0359   26.6395 S   0  0  0  0  0  0  0  0  0  0  0  0
    7.3696  -12.9427   26.2525 C   0  0  0  0  0  0  0  0  0  0  0  0
    7.0050  -14.0651   25.3422 C   0  0  0  0  0  0  0  0  0  0  0  0
    8.1187  -14.9447   24.9064 C   0  0  2  0  0  0  0  0  0  0  0  0
    7.6142  -16.0379   24.0998 N   0  0  0  0  0  0  0  0  0  0  0  0
    8.9973  -15.4317   26.0120 C   0  0  0  0  0  0  0  0  0  0  0  0
    9.6886  -14.6582   26.7152 O   0  0  0  0  0  0  0  0  0  0  0  0
    9.0967  -16.7811   26.3241 O   0  0  0  0  0  0  0  0  0  0  0  0
  2  1  1  0
  2  3  2  0
  4  2  1  0
  5  4  1  0
  5  6  1  1
  7  5  1  0
  7  8  2  0
  9  7  1  0
 10  9  1  0
 10 11  1  0
 11 18  1  0
 12 11  2  0
 14 13  1  0
 14 15  1  0
 15 16  1  0
 17 16  1  1
 17 19  1  0
 18 17  1  0
 19 21  1  0
 20 19  2  0
M  END
$$$$
