NGM.pdb
     RDKit          3D

 21 20  0  0  1  0  0  0  0  0999 V2000
    7.7115  -15.5047   16.7909 N   0  0  0  0  0  0  0  0  0  0  0  0
    7.7113  -16.8793   17.1559 C   0  0  0  0  0  0  0  0  0  0  0  0
    6.6639  -17.5314   16.9183 O   0  0  0  0  0  0  0  0  0  0  0  0
    8.9175  -17.4375   17.7773 C   0  0  0  0  0  0  0  0  0  0  0  0
    8.8327  -17.5190   19.2758 C   0  0  2  0  0  0  0  0  0  0  0  0
    7.6099  -18.2121   19.6233 N   0  0  0  0  0  0  0  0  0  0  0  0
    8.8501  -16.2190   19.9429 C   0  0  0  0  0  0  0  0  0  0  0  0
    9.7893  -15.4031   19.7062 O   0  0  0  0  0  0  0  0  0  0  0  0
    7.8526  -15.7920   20.8695 N   0  0  0  0  0  0  0  0  0  0  0  0
    7.9757  -14.5059   21.4916 C   0  0  0  0  0  0  0  0  0  0  0  0
    8.4448  -14.5060   22.8779 C   0  0  0  0  0  0  0  0  0  0  0  0
    9.4463  -13.7550   23.1079 O   0  0  0  0  0  0  0  0  0  0  0  0
    5.2904  -11.5117   26.3940 C   0  0  0  0  0  0  0  0  0  0  0  0
    6.9191  -11.9776   27.0326 S   0  0  0  0  0  0  0  0  0  0  0  0
    7.8855  -12.9035   25.7774 C   0  0  0  0  0  0  0  0  0  0  0  0
    7.8912  -14.3342   26.1951 C   0  0  0  0  0  0  0  0  0  0  0  0
    8.5457  -15.2870   25.2637 C   0  0  2  0  0  0  0  0  0  0  0  0
    7.9139  -15.2354   23.9604 N   0  0  0  0  0  0  0  0  0  0  0  0
    8.6479  -16.6871   25.7744 C   0  0  0  0  0  0  0  0  0  0  0  0
    8.0728  -17.6520   25.2184 O   0  0  0  0  0  0  0  0  0  0  0  0
    9.3931  -16.9989   26.9038 O   0  0  0  0  0  0  0  0  0  0  0  0
  2  1  1  0
  2  3  2  0
  4  2  1  0
  5  4  1  0
  5  6  1  6
  7  5  1  0
  7  8  2  0
  9  7  1  0
 10  9  1  0
 10 11  1  0
 11 18  1  0
 12 11  2  0
 14 13  1  0
 14 15  1  0
 15 16  1  0
 17 16  1  1
 17 19  1  0
 18 17  1  0
 19 21  1  0
 20 19  2  0
M  END
$$$$
