HNQ.pdb
     RDKit          3D

 28 28  0  0  1  0  0  0  0  0999 V2000
   13.2638  -14.4612   19.2452 N   0  0  0  0  0  0  0  0  0  0  0  0
   11.8592  -14.3550   19.4869 C   0  0  1  0  0  0  0  0  0  0  0  0
   11.0486  -15.2650   18.5877 C   0  0  0  0  0  0  0  0  0  0  0  0
    9.7939  -14.6091   18.1444 C   0  0  0  0  0  0  0  0  0  0  0  0
    9.5009  -13.2572   18.1218 C   0  0  0  0  0  0  0  0  0  0  0  0
    8.2450  -13.0781   17.6459 N   0  0  0  0  0  0  0  0  0  0  0  0
    7.7459  -14.2996   17.3699 C   0  0  0  0  0  0  0  0  0  0  0  0
    8.6937  -15.2317   17.6750 N   0  0  0  0  0  0  0  0  0  0  0  0
   11.4978  -14.5364   20.9139 C   0  0  0  0  0  0  0  0  0  0  0  0
   12.4405  -14.7840   21.7115 O   0  0  0  0  0  0  0  0  0  0  0  0
    9.0031  -14.6612   25.5870 N   0  0  0  0  0  0  0  0  0  0  0  0
    8.0600  -14.5470   24.5391 C   0  0  0  0  0  0  0  0  0  0  0  0
    6.8233  -14.6038   24.8388 O   0  0  0  0  0  0  0  0  0  0  0  0
    8.4060  -14.3655   23.1174 C   0  0  0  0  0  0  0  0  0  0  0  0
    9.8853  -14.6333   22.8394 C   0  0  2  0  0  0  0  0  0  0  0  0
   10.1960  -14.4536   21.4386 N   0  0  0  0  0  0  0  0  0  0  0  0
   10.1271  -16.0447   23.2261 C   0  0  0  0  0  0  0  0  0  0  0  0
    9.9818  -16.3577   24.4585 O   0  0  0  0  0  0  0  0  0  0  0  0
   12.1851  -19.1675   19.1093 N   0  0  0  0  0  0  0  0  0  0  0  0
   10.7761  -19.2319   19.2065 C   0  0  0  0  0  0  0  0  0  0  0  0
   10.0915  -19.2390   18.1681 O   0  0  0  0  0  0  0  0  0  0  0  0
   10.1385  -19.2872   20.5369 C   0  0  0  0  0  0  0  0  0  0  0  0
   11.0993  -19.3406   21.6884 C   0  0  0  0  0  0  0  0  0  0  0  0
   10.6957  -18.4591   22.7954 C   0  0  2  0  0  0  0  0  0  0  0  0
   10.5025  -17.0692   22.3551 N   0  0  0  0  0  0  0  0  0  0  0  0
   11.7597  -18.4358   23.8343 C   0  0  0  0  0  0  0  0  0  0  0  0
   11.6558  -18.9975   24.9514 O   0  0  0  0  0  0  0  0  0  0  0  0
   12.9699  -17.7689   23.6210 O   0  0  0  0  0  0  0  0  0  0  0  0
  2  1  1  1
  2  3  1  0
  3  4  1  0
  4  8  1  0
  4  5  2  0
  5  6  1  0
  7  6  1  0
  8  7  2  0
  9 10  2  0
  9  2  1  0
 11 12  1  0
 12 14  1  0
 13 12  2  0
 15 14  1  6
 15 16  1  0
 16  9  1  0
 17 18  2  0
 17 15  1  0
 19 20  1  0
 20 21  2  0
 22 20  1  0
 22 23  1  0
 24 23  1  6
 24 25  1  0
 25 17  1  0
 26 24  1  0
 27 26  2  0
 28 26  1  0
M  END
$$$$
