HNQ.pdb
     RDKit          3D

 28 28  0  0  1  0  0  0  0  0999 V2000
   10.1056  -13.8442   18.1020 N   0  0  0  0  0  0  0  0  0  0  0  0
   10.8095  -14.4962   19.1612 C   0  0  1  0  0  0  0  0  0  0  0  0
   12.2455  -14.0281   19.2736 C   0  0  0  0  0  0  0  0  0  0  0  0
   13.1498  -14.8510   18.4334 C   0  0  0  0  0  0  0  0  0  0  0  0
   13.0339  -15.1383   17.0851 C   0  0  0  0  0  0  0  0  0  0  0  0
   14.0693  -15.9242   16.7030 N   0  0  0  0  0  0  0  0  0  0  0  0
   14.8333  -16.1341   17.7937 C   0  0  0  0  0  0  0  0  0  0  0  0
   14.2696  -15.4776   18.8480 N   0  0  0  0  0  0  0  0  0  0  0  0
   10.1066  -14.4157   20.4648 C   0  0  0  0  0  0  0  0  0  0  0  0
    9.4223  -13.3801   20.6780 O   0  0  0  0  0  0  0  0  0  0  0  0
    7.6493  -13.6820   20.6055 N   0  0  0  0  0  0  0  0  0  0  0  0
    7.3382  -14.1784   21.8929 C   0  0  0  0  0  0  0  0  0  0  0  0
    6.5105  -13.5208   22.6034 O   0  0  0  0  0  0  0  0  0  0  0  0
    7.9050  -15.4087   22.4752 C   0  0  0  0  0  0  0  0  0  0  0  0
    9.4114  -15.3004   22.7122 C   0  0  2  0  0  0  0  0  0  0  0  0
   10.1455  -15.3978   21.4702 N   0  0  0  0  0  0  0  0  0  0  0  0
    9.7714  -16.4376   23.5939 C   0  0  0  0  0  0  0  0  0  0  0  0
    9.0375  -17.4849   23.5444 O   0  0  0  0  0  0  0  0  0  0  0  0
   11.1058  -13.1121   27.7574 N   0  0  0  0  0  0  0  0  0  0  0  0
   10.6237  -14.2022   28.5177 C   0  0  0  0  0  0  0  0  0  0  0  0
   10.9379  -14.2971   29.7174 O   0  0  0  0  0  0  0  0  0  0  0  0
    9.7576  -15.2119   27.8772 C   0  0  0  0  0  0  0  0  0  0  0  0
    9.8796  -15.2824   26.3832 C   0  0  0  0  0  0  0  0  0  0  0  0
   10.6822  -16.4338   25.9410 C   0  0  2  0  0  0  0  0  0  0  0  0
   10.8498  -16.4643   24.4801 N   0  0  0  0  0  0  0  0  0  0  0  0
    9.9994  -17.6993   26.3207 C   0  0  0  0  0  0  0  0  0  0  0  0
    8.8533  -18.0197   25.9230 O   0  0  0  0  0  0  0  0  0  0  0  0
   10.6110  -18.6304   27.1655 O   0  0  0  0  0  0  0  0  0  0  0  0
  2  1  1  6
  2  3  1  0
  3  4  1  0
  4  8  1  0
  4  5  2  0
  5  6  1  0
  7  6  1  0
  8  7  2  0
  9 10  2  0
  9  2  1  0
 11 12  1  0
 12 14  1  0
 13 12  2  0
 15 14  1  6
 15 16  1  0
 16  9  1  0
 17 18  2  0
 17 15  1  0
 19 20  1  0
 20 21  2  0
 22 20  1  0
 22 23  1  0
 24 23  1  6
 24 25  1  0
 25 17  1  0
 26 24  1  0
 27 26  2  0
 28 26  1  0
M  END
$$$$
