HNQ.pdb
     RDKit          3D

 28 28  0  0  1  0  0  0  0  0999 V2000
    8.1661  -17.2723   21.3435 N   0  0  0  0  0  0  0  0  0  0  0  0
    9.2746  -16.3871   21.5169 C   0  0  1  0  0  0  0  0  0  0  0  0
    9.3662  -15.3540   20.4132 C   0  0  0  0  0  0  0  0  0  0  0  0
    9.0244  -15.9405   19.0941 C   0  0  0  0  0  0  0  0  0  0  0  0
    7.8119  -16.4642   18.6825 C   0  0  0  0  0  0  0  0  0  0  0  0
    7.9209  -16.8972   17.4033 N   0  0  0  0  0  0  0  0  0  0  0  0
    9.1859  -16.6524   17.0067 C   0  0  0  0  0  0  0  0  0  0  0  0
    9.8567  -16.0683   18.0407 N   0  0  0  0  0  0  0  0  0  0  0  0
    9.3124  -15.7559   22.8586 C   0  0  0  0  0  0  0  0  0  0  0  0
   10.2543  -14.9499   23.0806 O   0  0  0  0  0  0  0  0  0  0  0  0
    7.5837  -13.0897   23.7349 N   0  0  0  0  0  0  0  0  0  0  0  0
    6.7961  -13.5943   24.7959 C   0  0  0  0  0  0  0  0  0  0  0  0
    5.6970  -13.0059   25.0569 O   0  0  0  0  0  0  0  0  0  0  0  0
    7.1566  -14.7584   25.6259 C   0  0  0  0  0  0  0  0  0  0  0  0
    8.4846  -15.3865   25.2027 C   0  0  2  0  0  0  0  0  0  0  0  0
    8.3859  -15.9864   23.8907 N   0  0  0  0  0  0  0  0  0  0  0  0
    8.7820  -16.4352   26.2087 C   0  0  0  0  0  0  0  0  0  0  0  0
    8.9133  -16.0703   27.4283 O   0  0  0  0  0  0  0  0  0  0  0  0
    6.4727  -21.3629   27.8711 N   0  0  0  0  0  0  0  0  0  0  0  0
    7.7514  -21.7200   28.3569 C   0  0  0  0  0  0  0  0  0  0  0  0
    7.8448  -22.5408   29.2868 O   0  0  0  0  0  0  0  0  0  0  0  0
    8.9557  -21.1127   27.7561 C   0  0  0  0  0  0  0  0  0  0  0  0
    8.6766  -20.1096   26.6755 C   0  0  0  0  0  0  0  0  0  0  0  0
    9.2448  -18.7868   26.9795 C   0  0  2  0  0  0  0  0  0  0  0  0
    8.9324  -17.7965   25.9379 N   0  0  0  0  0  0  0  0  0  0  0  0
   10.7274  -18.8799   27.0518 C   0  0  0  0  0  0  0  0  0  0  0  0
   11.3467  -19.4218   27.9990 O   0  0  0  0  0  0  0  0  0  0  0  0
   11.5391  -18.3551   26.0416 O   0  0  0  0  0  0  0  0  0  0  0  0
  2  1  1  6
  2  3  1  0
  3  4  1  0
  4  8  1  0
  4  5  2  0
  5  6  1  0
  7  6  1  0
  8  7  2  0
  9 10  2  0
  9  2  1  0
 11 12  1  0
 12 14  1  0
 13 12  2  0
 15 14  1  1
 15 16  1  0
 16  9  1  0
 17 18  2  0
 17 15  1  0
 19 20  1  0
 20 21  2  0
 22 20  1  0
 22 23  1  0
 24 23  1  6
 24 25  1  0
 25 17  1  0
 26 24  1  0
 27 26  2  0
 28 26  1  0
M  END
$$$$
