HNQ.pdb
     RDKit          3D

 28 28  0  0  1  0  0  0  0  0999 V2000
    9.6512  -14.7699   20.4349 N   0  0  0  0  0  0  0  0  0  0  0  0
    8.3079  -14.8589   20.9144 C   0  0  1  0  0  0  0  0  0  0  0  0
    7.3232  -15.1938   19.8135 C   0  0  0  0  0  0  0  0  0  0  0  0
    7.6675  -14.4970   18.5498 C   0  0  0  0  0  0  0  0  0  0  0  0
    8.3389  -13.2976   18.3935 C   0  0  0  0  0  0  0  0  0  0  0  0
    8.4481  -13.0130   17.0733 N   0  0  0  0  0  0  0  0  0  0  0  0
    7.8538  -14.0178   16.3991 C   0  0  0  0  0  0  0  0  0  0  0  0
    7.3786  -14.9219   17.3030 N   0  0  0  0  0  0  0  0  0  0  0  0
    8.1616  -15.7735   22.0729 C   0  0  0  0  0  0  0  0  0  0  0  0
    6.9899  -15.9916   22.4799 O   0  0  0  0  0  0  0  0  0  0  0  0
    8.6519  -19.5924   22.2519 N   0  0  0  0  0  0  0  0  0  0  0  0
    9.8205  -19.4796   23.0407 C   0  0  0  0  0  0  0  0  0  0  0  0
   10.6849  -20.4121   22.9656 O   0  0  0  0  0  0  0  0  0  0  0  0
   10.1128  -18.3548   23.9480 C   0  0  0  0  0  0  0  0  0  0  0  0
    9.0388  -17.2681   23.8932 C   0  0  2  0  0  0  0  0  0  0  0  0
    9.2209  -16.4091   22.7444 N   0  0  0  0  0  0  0  0  0  0  0  0
    9.1927  -16.4753   25.1373 C   0  0  0  0  0  0  0  0  0  0  0  0
    9.0314  -17.0809   26.2531 O   0  0  0  0  0  0  0  0  0  0  0  0
    5.7090  -12.9102   27.6925 N   0  0  0  0  0  0  0  0  0  0  0  0
    6.6711  -11.9784   27.2399 C   0  0  0  0  0  0  0  0  0  0  0  0
    6.3823  -10.7691   27.2065 O   0  0  0  0  0  0  0  0  0  0  0  0
    8.0018  -12.4536   26.8120 C   0  0  0  0  0  0  0  0  0  0  0  0
    8.1882  -13.9407   26.8876 C   0  0  0  0  0  0  0  0  0  0  0  0
    9.5320  -14.3589   26.4580 C   0  0  2  0  0  0  0  0  0  0  0  0
    9.5006  -15.1148   25.1967 N   0  0  0  0  0  0  0  0  0  0  0  0
   10.1314  -15.2566   27.4811 C   0  0  0  0  0  0  0  0  0  0  0  0
   10.3941  -16.4668   27.2788 O   0  0  0  0  0  0  0  0  0  0  0  0
   10.4452  -14.7921   28.7619 O   0  0  0  0  0  0  0  0  0  0  0  0
  2  1  1  6
  2  3  1  0
  3  4  1  0
  4  8  1  0
  4  5  2  0
  5  6  1  0
  7  6  1  0
  8  7  2  0
  9 10  2  0
  9  2  1  0
 11 12  1  0
 12 14  1  0
 13 12  2  0
 15 14  1  1
 15 16  1  0
 16  9  1  0
 17 18  2  0
 17 15  1  0
 19 20  1  0
 20 21  2  0
 22 20  1  0
 22 23  1  0
 24 23  1  1
 24 25  1  0
 25 17  1  0
 26 24  1  0
 27 26  2  0
 28 26  1  0
M  END
$$$$
