HNQ.pdb
     RDKit          3D

 28 28  0  0  1  0  0  0  0  0999 V2000
    8.3876  -16.2268   20.7631 N   0  0  0  0  0  0  0  0  0  0  0  0
    7.8951  -15.3046   21.7375 C   0  0  1  0  0  0  0  0  0  0  0  0
    6.8464  -14.3708   21.1700 C   0  0  0  0  0  0  0  0  0  0  0  0
    7.3211  -13.7168   19.9259 C   0  0  0  0  0  0  0  0  0  0  0  0
    8.0508  -12.5480   19.8024 C   0  0  0  0  0  0  0  0  0  0  0  0
    8.2794  -12.2981   18.4906 N   0  0  0  0  0  0  0  0  0  0  0  0
    7.7026  -13.2944   17.7891 C   0  0  0  0  0  0  0  0  0  0  0  0
    7.1188  -14.1587   18.6680 N   0  0  0  0  0  0  0  0  0  0  0  0
    7.4224  -15.9649   22.9787 C   0  0  0  0  0  0  0  0  0  0  0  0
    6.3832  -15.4940   23.5120 O   0  0  0  0  0  0  0  0  0  0  0  0
    6.7939  -18.9907   27.2493 N   0  0  0  0  0  0  0  0  0  0  0  0
    6.8255  -19.6845   26.0172 C   0  0  0  0  0  0  0  0  0  0  0  0
    6.4627  -20.9055   26.0091 O   0  0  0  0  0  0  0  0  0  0  0  0
    7.2494  -19.0940   24.7345 C   0  0  0  0  0  0  0  0  0  0  0  0
    7.6106  -17.6143   24.8657 C   0  0  2  0  0  0  0  0  0  0  0  0
    8.0398  -17.0654   23.5986 N   0  0  0  0  0  0  0  0  0  0  0  0
    8.7266  -17.5487   25.8405 C   0  0  0  0  0  0  0  0  0  0  0  0
    8.4678  -17.8306   27.0618 O   0  0  0  0  0  0  0  0  0  0  0  0
   10.4411  -13.1497   28.3732 N   0  0  0  0  0  0  0  0  0  0  0  0
    9.5686  -14.2083   28.7150 C   0  0  0  0  0  0  0  0  0  0  0  0
    8.6465  -14.0034   29.5242 O   0  0  0  0  0  0  0  0  0  0  0  0
    9.7655  -15.5403   28.1093 C   0  0  0  0  0  0  0  0  0  0  0  0
   10.9423  -15.6378   27.1833 C   0  0  0  0  0  0  0  0  0  0  0  0
   11.0651  -16.9709   26.5726 C   0  0  2  0  0  0  0  0  0  0  0  0
   10.0451  -17.2031   25.5387 N   0  0  0  0  0  0  0  0  0  0  0  0
   10.8713  -18.0196   27.6091 C   0  0  0  0  0  0  0  0  0  0  0  0
   11.6006  -18.1411   28.6229 O   0  0  0  0  0  0  0  0  0  0  0  0
    9.8379  -18.9562   27.5118 O   0  0  0  0  0  0  0  0  0  0  0  0
  2  1  1  6
  2  3  1  0
  3  4  1  0
  4  8  1  0
  4  5  2  0
  5  6  1  0
  7  6  1  0
  8  7  2  0
  9 10  2  0
  9  2  1  0
 11 12  1  0
 12 14  1  0
 13 12  2  0
 15 14  1  6
 15 16  1  0
 16  9  1  0
 17 18  2  0
 17 15  1  0
 19 20  1  0
 20 21  2  0
 22 20  1  0
 22 23  1  0
 24 23  1  1
 24 25  1  0
 25 17  1  0
 26 24  1  0
 27 26  2  0
 28 26  1  0
M  END
$$$$
