HNQ.pdb
     RDKit          3D

 28 28  0  0  1  0  0  0  0  0999 V2000
   10.9515  -16.1433   18.2899 N   0  0  0  0  0  0  0  0  0  0  0  0
   11.4556  -15.7880   19.5791 C   0  0  1  0  0  0  0  0  0  0  0  0
   11.9908  -14.3718   19.6192 C   0  0  0  0  0  0  0  0  0  0  0  0
   13.4083  -14.3170   19.1848 C   0  0  0  0  0  0  0  0  0  0  0  0
   14.2270  -15.3683   18.8129 C   0  0  0  0  0  0  0  0  0  0  0  0
   15.4516  -14.8897   18.4859 N   0  0  0  0  0  0  0  0  0  0  0  0
   15.4123  -13.5519   18.6478 C   0  0  0  0  0  0  0  0  0  0  0  0
   14.1639  -13.2056   19.0742 N   0  0  0  0  0  0  0  0  0  0  0  0
   10.4848  -16.0347   20.6731 C   0  0  0  0  0  0  0  0  0  0  0  0
    9.3355  -15.5386   20.5350 O   0  0  0  0  0  0  0  0  0  0  0  0
    6.8344  -18.7628   23.6174 N   0  0  0  0  0  0  0  0  0  0  0  0
    8.2417  -18.8787   23.6996 C   0  0  0  0  0  0  0  0  0  0  0  0
    8.7410  -19.3529   24.7711 O   0  0  0  0  0  0  0  0  0  0  0  0
    9.1777  -18.4888   22.6292 C   0  0  0  0  0  0  0  0  0  0  0  0
    9.7431  -17.0832   22.8335 C   0  0  2  0  0  0  0  0  0  0  0  0
   10.7474  -16.7730   21.8404 N   0  0  0  0  0  0  0  0  0  0  0  0
   10.3594  -17.0803   24.1827 C   0  0  0  0  0  0  0  0  0  0  0  0
   11.5083  -17.6286   24.3137 O   0  0  0  0  0  0  0  0  0  0  0  0
    8.8849  -13.8264   29.5348 N   0  0  0  0  0  0  0  0  0  0  0  0
    9.9524  -14.6728   29.9126 C   0  0  0  0  0  0  0  0  0  0  0  0
   10.4080  -14.6035   31.0679 O   0  0  0  0  0  0  0  0  0  0  0  0
   10.5117  -15.6237   28.9315 C   0  0  0  0  0  0  0  0  0  0  0  0
    9.8813  -15.5608   27.5711 C   0  0  0  0  0  0  0  0  0  0  0  0
   10.4601  -16.5424   26.6401 C   0  0  2  0  0  0  0  0  0  0  0  0
    9.7898  -16.5271   25.3310 N   0  0  0  0  0  0  0  0  0  0  0  0
   10.2968  -17.9148   27.1894 C   0  0  0  0  0  0  0  0  0  0  0  0
    9.2692  -18.6151   27.0219 O   0  0  0  0  0  0  0  0  0  0  0  0
   11.3054  -18.5207   27.9445 O   0  0  0  0  0  0  0  0  0  0  0  0
  2  1  1  6
  2  3  1  0
  3  4  1  0
  4  8  1  0
  4  5  2  0
  5  6  1  0
  7  6  1  0
  8  7  2  0
  9 10  2  0
  9  2  1  0
 11 12  1  0
 12 14  1  0
 13 12  2  0
 15 14  1  6
 15 16  1  0
 16  9  1  0
 17 18  2  0
 17 15  1  0
 19 20  1  0
 20 21  2  0
 22 20  1  0
 22 23  1  0
 24 23  1  1
 24 25  1  0
 25 17  1  0
 26 24  1  0
 27 26  2  0
 28 26  1  0
M  END
$$$$
