HNQ.pdb
     RDKit          3D

 28 28  0  0  1  0  0  0  0  0999 V2000
    8.3035  -12.6848   17.5139 N   0  0  0  0  0  0  0  0  0  0  0  0
    8.6150  -14.0379   17.8522 C   0  0  1  0  0  0  0  0  0  0  0  0
    9.7086  -14.6144   16.9773 C   0  0  0  0  0  0  0  0  0  0  0  0
    9.2638  -14.7393   15.5676 C   0  0  0  0  0  0  0  0  0  0  0  0
    7.9912  -14.5582   15.0561 C   0  0  0  0  0  0  0  0  0  0  0  0
    8.0114  -14.7672   13.7176 N   0  0  0  0  0  0  0  0  0  0  0  0
    9.2798  -15.0773   13.3823 C   0  0  0  0  0  0  0  0  0  0  0  0
   10.0416  -15.0593   14.5135 N   0  0  0  0  0  0  0  0  0  0  0  0
    8.9144  -14.2247   19.2928 C   0  0  0  0  0  0  0  0  0  0  0  0
    9.8477  -13.5291   19.7737 O   0  0  0  0  0  0  0  0  0  0  0  0
    5.2449  -15.6047   21.5855 N   0  0  0  0  0  0  0  0  0  0  0  0
    6.3741  -15.4702   22.4266 C   0  0  0  0  0  0  0  0  0  0  0  0
    6.3021  -14.6491   23.3976 O   0  0  0  0  0  0  0  0  0  0  0  0
    7.6352  -16.2159   22.2605 C   0  0  0  0  0  0  0  0  0  0  0  0
    8.6887  -15.4151   21.4948 C   0  0  2  0  0  0  0  0  0  0  0  0
    8.2423  -15.1101   20.1536 N   0  0  0  0  0  0  0  0  0  0  0  0
    9.8952  -16.2759   21.4343 C   0  0  0  0  0  0  0  0  0  0  0  0
    9.7877  -17.4119   20.8549 O   0  0  0  0  0  0  0  0  0  0  0  0
   15.2659  -15.4706   19.1840 N   0  0  0  0  0  0  0  0  0  0  0  0
   14.4407  -14.5230   19.8319 C   0  0  0  0  0  0  0  0  0  0  0  0
   14.5755  -13.3145   19.5699 O   0  0  0  0  0  0  0  0  0  0  0  0
   13.4340  -14.9802   20.8103 C   0  0  0  0  0  0  0  0  0  0  0  0
   13.2880  -16.4706   20.9061 C   0  0  0  0  0  0  0  0  0  0  0  0
   12.2937  -16.8719   21.9139 C   0  0  2  0  0  0  0  0  0  0  0  0
   11.1475  -15.9514   21.9592 N   0  0  0  0  0  0  0  0  0  0  0  0
   12.9119  -16.8537   23.2665 C   0  0  0  0  0  0  0  0  0  0  0  0
   13.9303  -17.5177   23.5766 O   0  0  0  0  0  0  0  0  0  0  0  0
   12.3800  -16.0750   24.2987 O   0  0  0  0  0  0  0  0  0  0  0  0
  2  1  1  1
  2  3  1  0
  3  4  1  0
  4  8  1  0
  4  5  2  0
  5  6  1  0
  7  6  1  0
  8  7  2  0
  9 10  2  0
  9  2  1  0
 11 12  1  0
 12 14  1  0
 13 12  2  0
 15 14  1  1
 15 16  1  0
 16  9  1  0
 17 18  2  0
 17 15  1  0
 19 20  1  0
 20 21  2  0
 22 20  1  0
 22 23  1  0
 24 23  1  6
 24 25  1  0
 25 17  1  0
 26 24  1  0
 27 26  2  0
 28 26  1  0
M  END
$$$$
