HNQ.pdb
     RDKit          3D

 28 28  0  0  1  0  0  0  0  0999 V2000
    8.1134  -20.8379   21.6596 N   0  0  0  0  0  0  0  0  0  0  0  0
    9.1431  -20.2025   22.4200 C   0  0  1  0  0  0  0  0  0  0  0  0
    9.3488  -18.7569   22.0180 C   0  0  0  0  0  0  0  0  0  0  0  0
    9.5763  -18.6290   20.5576 C   0  0  0  0  0  0  0  0  0  0  0  0
    9.5150  -19.6211   19.5953 C   0  0  0  0  0  0  0  0  0  0  0  0
    9.7883  -19.0860   18.3810 N   0  0  0  0  0  0  0  0  0  0  0  0
   10.0206  -17.7714   18.5683 C   0  0  0  0  0  0  0  0  0  0  0  0
    9.8902  -17.4956   19.8977 N   0  0  0  0  0  0  0  0  0  0  0  0
    8.9549  -20.3391   23.8849 C   0  0  0  0  0  0  0  0  0  0  0  0
    7.9694  -19.7385   24.3893 O   0  0  0  0  0  0  0  0  0  0  0  0
    8.8789  -24.6984   25.3983 N   0  0  0  0  0  0  0  0  0  0  0  0
    8.6765  -23.5342   26.1757 C   0  0  0  0  0  0  0  0  0  0  0  0
    7.4824  -23.2320   26.5000 O   0  0  0  0  0  0  0  0  0  0  0  0
    9.7529  -22.6405   26.6408 C   0  0  0  0  0  0  0  0  0  0  0  0
    9.5587  -21.1997   26.1678 C   0  0  2  0  0  0  0  0  0  0  0  0
    9.7843  -21.0806   24.7445 N   0  0  0  0  0  0  0  0  0  0  0  0
   10.5611  -20.3881   26.9005 C   0  0  0  0  0  0  0  0  0  0  0  0
   11.7982  -20.6108   26.6601 O   0  0  0  0  0  0  0  0  0  0  0  0
   10.4411  -14.4808   28.1159 N   0  0  0  0  0  0  0  0  0  0  0  0
   10.0852  -15.3590   27.0668 C   0  0  0  0  0  0  0  0  0  0  0  0
    9.5506  -14.9012   26.0412 O   0  0  0  0  0  0  0  0  0  0  0  0
   10.3506  -16.8049   27.2040 C   0  0  0  0  0  0  0  0  0  0  0  0
   11.1161  -17.1851   28.4374 C   0  0  0  0  0  0  0  0  0  0  0  0
   11.3114  -18.6394   28.5488 C   0  0  2  0  0  0  0  0  0  0  0  0
   10.2693  -19.3948   27.8371 N   0  0  0  0  0  0  0  0  0  0  0  0
   11.2386  -19.0494   29.9766 C   0  0  0  0  0  0  0  0  0  0  0  0
   10.3749  -19.8371   30.4326 O   0  0  0  0  0  0  0  0  0  0  0  0
   12.1526  -18.5684   30.9188 O   0  0  0  0  0  0  0  0  0  0  0  0
  2  1  1  6
  2  3  1  0
  3  4  1  0
  4  8  1  0
  4  5  2  0
  5  6  1  0
  7  6  1  0
  8  7  2  0
  9 10  2  0
  9  2  1  0
 11 12  1  0
 12 14  1  0
 13 12  2  0
 15 14  1  1
 15 16  1  0
 16  9  1  0
 17 18  2  0
 17 15  1  0
 19 20  1  0
 20 21  2  0
 22 20  1  0
 22 23  1  0
 24 23  1  1
 24 25  1  0
 25 17  1  0
 26 24  1  0
 27 26  2  0
 28 26  1  0
M  END
$$$$
