HNQ.pdb
     RDKit          3D

 28 28  0  0  1  0  0  0  0  0999 V2000
   10.6943  -17.9329   18.9359 N   0  0  0  0  0  0  0  0  0  0  0  0
    9.4187  -17.2997   18.8165 C   0  0  1  0  0  0  0  0  0  0  0  0
    8.6536  -17.7687   17.5964 C   0  0  0  0  0  0  0  0  0  0  0  0
    9.5353  -17.8577   16.4066 C   0  0  0  0  0  0  0  0  0  0  0  0
   10.8925  -17.6005   16.3303 C   0  0  0  0  0  0  0  0  0  0  0  0
   11.3164  -17.8003   15.0591 N   0  0  0  0  0  0  0  0  0  0  0  0
   10.2432  -18.1792   14.3365 C   0  0  0  0  0  0  0  0  0  0  0  0
    9.1579  -18.2134   15.1618 N   0  0  0  0  0  0  0  0  0  0  0  0
    8.5981  -17.4044   20.0476 C   0  0  0  0  0  0  0  0  0  0  0  0
    7.3558  -17.5409   19.8921 O   0  0  0  0  0  0  0  0  0  0  0  0
    6.9055  -20.2581   24.5938 N   0  0  0  0  0  0  0  0  0  0  0  0
    6.7958  -19.1082   23.7775 C   0  0  0  0  0  0  0  0  0  0  0  0
    5.9725  -18.2020   24.1287 O   0  0  0  0  0  0  0  0  0  0  0  0
    7.5697  -18.8808   22.5434 C   0  0  0  0  0  0  0  0  0  0  0  0
    8.2687  -17.5211   22.5365 C   0  0  2  0  0  0  0  0  0  0  0  0
    9.0967  -17.3636   21.3616 N   0  0  0  0  0  0  0  0  0  0  0  0
    9.1180  -17.4896   23.7521 C   0  0  0  0  0  0  0  0  0  0  0  0
   10.2508  -18.0832   23.7026 O   0  0  0  0  0  0  0  0  0  0  0  0
    8.7613  -13.5168   28.7676 N   0  0  0  0  0  0  0  0  0  0  0  0
    9.9574  -14.2409   28.9773 C   0  0  0  0  0  0  0  0  0  0  0  0
   10.6676  -13.9756   29.9633 O   0  0  0  0  0  0  0  0  0  0  0  0
   10.3468  -15.2981   28.0232 C   0  0  0  0  0  0  0  0  0  0  0  0
    9.3904  -15.4943   26.8835 C   0  0  0  0  0  0  0  0  0  0  0  0
    9.7625  -16.6341   26.0305 C   0  0  2  0  0  0  0  0  0  0  0  0
    8.7858  -16.8638   24.9551 N   0  0  0  0  0  0  0  0  0  0  0  0
    9.8057  -17.8787   26.8435 C   0  0  0  0  0  0  0  0  0  0  0  0
    8.8009  -18.5916   27.0811 O   0  0  0  0  0  0  0  0  0  0  0  0
   11.0003  -18.3391   27.4054 O   0  0  0  0  0  0  0  0  0  0  0  0
  2  1  1  1
  2  3  1  0
  3  4  1  0
  4  8  1  0
  4  5  2  0
  5  6  1  0
  7  6  1  0
  8  7  2  0
  9 10  2  0
  9  2  1  0
 11 12  1  0
 12 14  1  0
 13 12  2  0
 15 14  1  6
 15 16  1  0
 16  9  1  0
 17 18  2  0
 17 15  1  0
 19 20  1  0
 20 21  2  0
 22 20  1  0
 22 23  1  0
 24 23  1  1
 24 25  1  0
 25 17  1  0
 26 24  1  0
 27 26  2  0
 28 26  1  0
M  END
$$$$
