HNQ.pdb
     RDKit          3D

 28 28  0  0  1  0  0  0  0  0999 V2000
    7.0913  -16.8647   19.9416 N   0  0  0  0  0  0  0  0  0  0  0  0
    8.3263  -16.3348   20.4278 C   0  0  1  0  0  0  0  0  0  0  0  0
    8.2718  -14.8344   20.6269 C   0  0  0  0  0  0  0  0  0  0  0  0
    8.0943  -14.1239   19.3367 C   0  0  0  0  0  0  0  0  0  0  0  0
    8.0103  -14.6691   18.0679 C   0  0  0  0  0  0  0  0  0  0  0  0
    7.8497  -13.6747   17.1618 N   0  0  0  0  0  0  0  0  0  0  0  0
    7.8319  -12.5127   17.8450 C   0  0  0  0  0  0  0  0  0  0  0  0
    7.9813  -12.7903   19.1720 N   0  0  0  0  0  0  0  0  0  0  0  0
    8.8203  -17.0279   21.6425 C   0  0  0  0  0  0  0  0  0  0  0  0
    7.9613  -17.3316   22.5120 O   0  0  0  0  0  0  0  0  0  0  0  0
   11.7358  -19.2632   25.4213 N   0  0  0  0  0  0  0  0  0  0  0  0
   12.5517  -18.9977   24.2969 C   0  0  0  0  0  0  0  0  0  0  0  0
   13.7619  -19.3935   24.3296 O   0  0  0  0  0  0  0  0  0  0  0  0
   12.1008  -18.2928   23.0830 C   0  0  0  0  0  0  0  0  0  0  0  0
   10.6329  -17.8734   23.1645 C   0  0  2  0  0  0  0  0  0  0  0  0
   10.1610  -17.3684   21.8944 N   0  0  0  0  0  0  0  0  0  0  0  0
   10.5691  -16.7971   24.1831 C   0  0  0  0  0  0  0  0  0  0  0  0
   11.5068  -15.9261   24.1886 O   0  0  0  0  0  0  0  0  0  0  0  0
    5.6877  -13.5163   26.1416 N   0  0  0  0  0  0  0  0  0  0  0  0
    6.7556  -12.9773   26.8951 C   0  0  0  0  0  0  0  0  0  0  0  0
    6.5906  -11.9102   27.5125 O   0  0  0  0  0  0  0  0  0  0  0  0
    8.0500  -13.6863   26.9365 C   0  0  0  0  0  0  0  0  0  0  0  0
    8.1581  -14.8450   25.9891 C   0  0  0  0  0  0  0  0  0  0  0  0
    9.4822  -15.4852   26.0367 C   0  0  2  0  0  0  0  0  0  0  0  0
    9.5668  -16.6509   25.1439 N   0  0  0  0  0  0  0  0  0  0  0  0
    9.7538  -15.9787   27.4131 C   0  0  0  0  0  0  0  0  0  0  0  0
   10.2472  -15.2699   28.3233 O   0  0  0  0  0  0  0  0  0  0  0  0
    9.4676  -17.2963   27.7829 O   0  0  0  0  0  0  0  0  0  0  0  0
  2  1  1  1
  2  3  1  0
  3  4  1  0
  4  8  1  0
  4  5  2  0
  5  6  1  0
  7  6  1  0
  8  7  2  0
  9 10  2  0
  9  2  1  0
 11 12  1  0
 12 14  1  0
 13 12  2  0
 15 14  1  6
 15 16  1  0
 16  9  1  0
 17 18  2  0
 17 15  1  0
 19 20  1  0
 20 21  2  0
 22 20  1  0
 22 23  1  0
 24 23  1  1
 24 25  1  0
 25 17  1  0
 26 24  1  0
 27 26  2  0
 28 26  1  0
M  END
$$$$
