HNQ.pdb
     RDKit          3D

 28 28  0  0  1  0  0  0  0  0999 V2000
    8.4865  -17.1124   19.3550 N   0  0  0  0  0  0  0  0  0  0  0  0
    8.6440  -16.2321   20.4697 C   0  0  1  0  0  0  0  0  0  0  0  0
    7.6088  -15.1267   20.4828 C   0  0  0  0  0  0  0  0  0  0  0  0
    7.6687  -14.3152   19.2423 C   0  0  0  0  0  0  0  0  0  0  0  0
    7.9935  -12.9766   19.1143 C   0  0  0  0  0  0  0  0  0  0  0  0
    7.9295  -12.6221   17.8082 N   0  0  0  0  0  0  0  0  0  0  0  0
    7.5685  -13.7204   17.1149 C   0  0  0  0  0  0  0  0  0  0  0  0
    7.4103  -14.7520   17.9929 N   0  0  0  0  0  0  0  0  0  0  0  0
    8.6989  -16.9425   21.7706 C   0  0  0  0  0  0  0  0  0  0  0  0
    8.0963  -18.0462   21.8408 O   0  0  0  0  0  0  0  0  0  0  0  0
   10.7022  -20.6399   25.0427 N   0  0  0  0  0  0  0  0  0  0  0  0
   11.0234  -19.2825   24.8090 C   0  0  0  0  0  0  0  0  0  0  0  0
   11.7651  -18.6888   25.6574 O   0  0  0  0  0  0  0  0  0  0  0  0
   10.5602  -18.5004   23.6480 C   0  0  0  0  0  0  0  0  0  0  0  0
    9.6752  -17.3222   24.0552 C   0  0  2  0  0  0  0  0  0  0  0  0
    9.3659  -16.4823   22.9195 N   0  0  0  0  0  0  0  0  0  0  0  0
   10.4556  -16.5469   25.0502 C   0  0  0  0  0  0  0  0  0  0  0  0
   11.4174  -15.8214   24.6182 O   0  0  0  0  0  0  0  0  0  0  0  0
    6.5254  -13.0821   26.0500 N   0  0  0  0  0  0  0  0  0  0  0  0
    7.3867  -12.5385   27.0306 C   0  0  0  0  0  0  0  0  0  0  0  0
    7.1393  -11.4167   27.5074 O   0  0  0  0  0  0  0  0  0  0  0  0
    8.5667  -13.3080   27.4724 C   0  0  0  0  0  0  0  0  0  0  0  0
    8.7897  -14.5919   26.7282 C   0  0  0  0  0  0  0  0  0  0  0  0
    9.9907  -15.3055   27.1905 C   0  0  2  0  0  0  0  0  0  0  0  0
   10.2299  -16.5401   26.4279 N   0  0  0  0  0  0  0  0  0  0  0  0
    9.8223  -15.7059   28.6129 C   0  0  0  0  0  0  0  0  0  0  0  0
    9.4385  -16.8440   28.9761 O   0  0  0  0  0  0  0  0  0  0  0  0
   10.0889  -14.8139   29.6560 O   0  0  0  0  0  0  0  0  0  0  0  0
  2  1  1  6
  2  3  1  0
  3  4  1  0
  4  8  1  0
  4  5  2  0
  5  6  1  0
  7  6  1  0
  8  7  2  0
  9 10  2  0
  9  2  1  0
 11 12  1  0
 12 14  1  0
 13 12  2  0
 15 14  1  6
 15 16  1  0
 16  9  1  0
 17 18  2  0
 17 15  1  0
 19 20  1  0
 20 21  2  0
 22 20  1  0
 22 23  1  0
 24 23  1  6
 24 25  1  0
 25 17  1  0
 26 24  1  0
 27 26  2  0
 28 26  1  0
M  END
$$$$
