HNQ.pdb
     RDKit          3D

 28 28  0  0  1  0  0  0  0  0999 V2000
    7.6998  -15.7511   18.8271 N   0  0  0  0  0  0  0  0  0  0  0  0
    9.0731  -15.3939   18.6577 C   0  0  1  0  0  0  0  0  0  0  0  0
    9.2431  -14.1131   17.8675 C   0  0  0  0  0  0  0  0  0  0  0  0
    8.7428  -14.2641   16.4790 C   0  0  0  0  0  0  0  0  0  0  0  0
    8.0199  -13.3531   15.7298 C   0  0  0  0  0  0  0  0  0  0  0  0
    7.7605  -13.8811   14.5093 N   0  0  0  0  0  0  0  0  0  0  0  0
    8.3108  -15.1115   14.4828 C   0  0  0  0  0  0  0  0  0  0  0  0
    8.9097  -15.3421   15.6862 N   0  0  0  0  0  0  0  0  0  0  0  0
    9.8260  -15.3501   19.9349 C   0  0  0  0  0  0  0  0  0  0  0  0
    9.4341  -14.5198   20.7969 O   0  0  0  0  0  0  0  0  0  0  0  0
   12.7860  -16.0352   24.1425 N   0  0  0  0  0  0  0  0  0  0  0  0
   11.8684  -17.0520   23.7892 C   0  0  0  0  0  0  0  0  0  0  0  0
   11.6019  -17.9449   24.6576 O   0  0  0  0  0  0  0  0  0  0  0  0
   11.1939  -17.1538   22.4821 C   0  0  0  0  0  0  0  0  0  0  0  0
   11.6516  -16.0709   21.5048 C   0  0  2  0  0  0  0  0  0  0  0  0
   10.9326  -16.1569   20.2532 N   0  0  0  0  0  0  0  0  0  0  0  0
   13.0953  -16.3152   21.2676 C   0  0  0  0  0  0  0  0  0  0  0  0
   13.4415  -17.4715   20.8423 O   0  0  0  0  0  0  0  0  0  0  0  0
   16.1926  -12.1260   18.5310 N   0  0  0  0  0  0  0  0  0  0  0  0
   16.2032  -13.4432   18.0177 C   0  0  0  0  0  0  0  0  0  0  0  0
   16.6605  -13.6523   16.8801 O   0  0  0  0  0  0  0  0  0  0  0  0
   15.6699  -14.5497   18.8370 C   0  0  0  0  0  0  0  0  0  0  0  0
   16.0585  -14.4979   20.2855 C   0  0  0  0  0  0  0  0  0  0  0  0
   15.5071  -15.6254   21.0535 C   0  0  2  0  0  0  0  0  0  0  0  0
   14.1170  -15.3855   21.4698 N   0  0  0  0  0  0  0  0  0  0  0  0
   16.2989  -15.8232   22.2968 C   0  0  0  0  0  0  0  0  0  0  0  0
   17.5323  -16.0535   22.3087 O   0  0  0  0  0  0  0  0  0  0  0  0
   15.6993  -15.7624   23.5583 O   0  0  0  0  0  0  0  0  0  0  0  0
  2  1  1  1
  2  3  1  0
  3  4  1  0
  4  8  1  0
  4  5  2  0
  5  6  1  0
  7  6  1  0
  8  7  2  0
  9 10  2  0
  9  2  1  0
 11 12  1  0
 12 14  1  0
 13 12  2  0
 15 14  1  1
 15 16  1  0
 16  9  1  0
 17 18  2  0
 17 15  1  0
 19 20  1  0
 20 21  2  0
 22 20  1  0
 22 23  1  0
 24 23  1  1
 24 25  1  0
 25 17  1  0
 26 24  1  0
 27 26  2  0
 28 26  1  0
M  END
$$$$
