HNQ.pdb
     RDKit          3D

 28 28  0  0  1  0  0  0  0  0999 V2000
   14.3407  -13.8938   15.9823 N   0  0  0  0  0  0  0  0  0  0  0  0
   14.2612  -14.8410   17.0494 C   0  0  1  0  0  0  0  0  0  0  0  0
   15.6178  -15.1540   17.6455 C   0  0  0  0  0  0  0  0  0  0  0  0
   16.4807  -15.8742   16.6771 C   0  0  0  0  0  0  0  0  0  0  0  0
   16.4759  -17.2231   16.3702 C   0  0  0  0  0  0  0  0  0  0  0  0
   17.4218  -17.4737   15.4332 N   0  0  0  0  0  0  0  0  0  0  0  0
   18.0205  -16.2999   15.1481 C   0  0  0  0  0  0  0  0  0  0  0  0
   17.4437  -15.3257   15.9088 N   0  0  0  0  0  0  0  0  0  0  0  0
   13.2812  -14.4599   18.0956 C   0  0  0  0  0  0  0  0  0  0  0  0
   13.5271  -13.4118   18.7491 O   0  0  0  0  0  0  0  0  0  0  0  0
    9.7199  -12.7985   18.1854 N   0  0  0  0  0  0  0  0  0  0  0  0
    9.1095  -14.0357   18.4973 C   0  0  0  0  0  0  0  0  0  0  0  0
    7.8935  -14.2048   18.1583 O   0  0  0  0  0  0  0  0  0  0  0  0
    9.7822  -15.1502   19.1896 C   0  0  0  0  0  0  0  0  0  0  0  0
   11.2424  -14.8364   19.5162 C   0  0  2  0  0  0  0  0  0  0  0  0
   12.1106  -15.1724   18.4098 N   0  0  0  0  0  0  0  0  0  0  0  0
   11.5888  -15.6710   20.6924 C   0  0  0  0  0  0  0  0  0  0  0  0
   11.2638  -16.9085   20.6609 O   0  0  0  0  0  0  0  0  0  0  0  0
   16.5822  -16.0245   24.2425 N   0  0  0  0  0  0  0  0  0  0  0  0
   16.2957  -15.3890   23.0126 C   0  0  0  0  0  0  0  0  0  0  0  0
   17.2325  -15.0163   22.2842 O   0  0  0  0  0  0  0  0  0  0  0  0
   14.8908  -15.1752   22.6119 C   0  0  0  0  0  0  0  0  0  0  0  0
   13.8768  -15.6832   23.5945 C   0  0  0  0  0  0  0  0  0  0  0  0
   12.6313  -16.1151   22.9406 C   0  0  2  0  0  0  0  0  0  0  0  0
   12.2438  -15.2199   21.8398 N   0  0  0  0  0  0  0  0  0  0  0  0
   11.5142  -16.0960   23.9222 C   0  0  0  0  0  0  0  0  0  0  0  0
   11.4923  -16.7902   24.9672 O   0  0  0  0  0  0  0  0  0  0  0  0
   10.3935  -15.2818   23.7328 O   0  0  0  0  0  0  0  0  0  0  0  0
  2  1  1  6
  2  3  1  0
  3  4  1  0
  4  8  1  0
  4  5  2  0
  5  6  1  0
  7  6  1  0
  8  7  2  0
  9 10  2  0
  9  2  1  0
 11 12  1  0
 12 14  1  0
 13 12  2  0
 15 14  1  6
 15 16  1  0
 16  9  1  0
 17 18  2  0
 17 15  1  0
 19 20  1  0
 20 21  2  0
 22 20  1  0
 22 23  1  0
 24 23  1  1
 24 25  1  0
 25 17  1  0
 26 24  1  0
 27 26  2  0
 28 26  1  0
M  END
$$$$
