CSA.pdb
     RDKit          3D

 18 17  0  0  1  0  0  0  0  0999 V2000
   18.8337  -12.6780  -18.0102 N   0  0  0  0  0  0  0  0  0  0  0  0
   19.2154  -11.2905  -18.1751 C   0  0  1  0  0  0  0  0  0  0  0  0
   18.1478  -10.6231  -19.0309 C   0  0  0  0  0  0  0  0  0  0  0  0
   18.3701  -11.1778  -20.7457 S   0  0  0  0  0  0  0  0  0  0  0  0
   19.3003  -10.5989  -16.8476 C   0  0  0  0  0  0  0  0  0  0  0  0
   18.4615  -10.8266  -15.9559 O   0  0  0  0  0  0  0  0  0  0  0  0
   22.5219   -9.8828  -14.7716 O   0  0  0  0  0  0  0  0  0  0  0  0
   21.2361   -9.7320  -14.2773 C   0  0  0  0  0  0  0  0  0  0  0  0
   20.4040   -8.9751  -15.3013 C   0  0  2  0  0  0  0  0  0  0  0  0
   20.3350   -9.6604  -16.5531 N   0  0  0  0  0  0  0  0  0  0  0  0
   20.9659   -7.5875  -15.4702 C   0  0  0  0  0  0  0  0  0  0  0  0
   21.9563   -7.3744  -16.1872 O   0  0  0  0  0  0  0  0  0  0  0  0
   19.8509   -4.1086  -14.4620 C   0  0  0  0  0  0  0  0  0  0  0  0
   20.8246   -5.1336  -14.9123 C   0  0  2  0  0  0  0  0  0  0  0  0
   20.3701   -6.4844  -14.8076 N   0  0  0  0  0  0  0  0  0  0  0  0
   22.0572   -5.0191  -14.0868 C   0  0  0  0  0  0  0  0  0  0  0  0
   22.7901   -3.9757  -14.1280 O   0  0  0  0  0  0  0  0  0  0  0  0
   22.4904   -6.0200  -13.2286 O   0  0  0  0  0  0  0  0  0  0  0  0
  2  1  1  1
  2  3  1  0
  4  3  1  0
  5  2  1  0
  6  5  2  0
  7  8  1  0
  9  8  1  1
  9 10  1  0
 10  5  1  0
 11 15  1  0
 11  9  1  0
 12 11  2  0
 14 13  1  1
 14 15  1  0
 14 16  1  0
 16 18  1  0
 17 16  2  0
M  END
$$$$
