CSA.pdb
     RDKit          3D

 18 17  0  0  1  0  0  0  0  0999 V2000
   17.8498  -12.1363  -15.5964 N   0  0  0  0  0  0  0  0  0  0  0  0
   18.6364  -11.2492  -16.4284 C   0  0  1  0  0  0  0  0  0  0  0  0
   17.6916  -10.6188  -17.4422 C   0  0  0  0  0  0  0  0  0  0  0  0
   17.3843  -11.8317  -18.7583 S   0  0  0  0  0  0  0  0  0  0  0  0
   19.2790  -10.1743  -15.6041 C   0  0  0  0  0  0  0  0  0  0  0  0
   18.6326   -9.5728  -14.7261 O   0  0  0  0  0  0  0  0  0  0  0  0
   23.4017   -9.7200  -15.4864 O   0  0  0  0  0  0  0  0  0  0  0  0
   22.6157   -9.2996  -14.4255 C   0  0  0  0  0  0  0  0  0  0  0  0
   21.2789   -8.8173  -14.9681 C   0  0  2  0  0  0  0  0  0  0  0  0
   20.6440   -9.7992  -15.7891 N   0  0  0  0  0  0  0  0  0  0  0  0
   21.4841   -7.5283  -15.7204 C   0  0  0  0  0  0  0  0  0  0  0  0
   21.7312   -7.5225  -16.9367 O   0  0  0  0  0  0  0  0  0  0  0  0
   20.7203   -4.5886  -16.6944 C   0  0  0  0  0  0  0  0  0  0  0  0
   21.6830   -5.0166  -15.6495 C   0  0  2  0  0  0  0  0  0  0  0  0
   21.3986   -6.2820  -15.0494 N   0  0  0  0  0  0  0  0  0  0  0  0
   21.6886   -4.0041  -14.5593 C   0  0  0  0  0  0  0  0  0  0  0  0
   21.2350   -4.2753  -13.3981 O   0  0  0  0  0  0  0  0  0  0  0  0
   22.1783   -2.7160  -14.7237 O   0  0  0  0  0  0  0  0  0  0  0  0
  2  1  1  1
  2  3  1  0
  4  3  1  0
  5  2  1  0
  6  5  2  0
  7  8  1  0
  9  8  1  6
  9 10  1  0
 10  5  1  0
 11 15  1  0
 11  9  1  0
 12 11  2  0
 14 13  1  6
 14 15  1  0
 14 16  1  0
 16 18  1  0
 17 16  2  0
M  END
$$$$
