CSA.pdb
     RDKit          3D

 18 17  0  0  1  0  0  0  0  0999 V2000
   19.4320  -12.8983  -15.7150 N   0  0  0  0  0  0  0  0  0  0  0  0
   18.7936  -11.6643  -16.1245 C   0  0  1  0  0  0  0  0  0  0  0  0
   17.5848  -11.4559  -15.2229 C   0  0  0  0  0  0  0  0  0  0  0  0
   16.3348  -12.6993  -15.6579 S   0  0  0  0  0  0  0  0  0  0  0  0
   19.7330  -10.5045  -15.9817 C   0  0  0  0  0  0  0  0  0  0  0  0
   20.4872  -10.4134  -14.9951 O   0  0  0  0  0  0  0  0  0  0  0  0
   21.5419   -8.8038  -19.1865 O   0  0  0  0  0  0  0  0  0  0  0  0
   21.0371   -7.8479  -18.3195 C   0  0  0  0  0  0  0  0  0  0  0  0
   20.8383   -8.4840  -16.9522 C   0  0  2  0  0  0  0  0  0  0  0  0
   19.8015   -9.4670  -16.9600 N   0  0  0  0  0  0  0  0  0  0  0  0
   20.5585   -7.4052  -15.9384 C   0  0  0  0  0  0  0  0  0  0  0  0
   19.4056   -6.9932  -15.7351 O   0  0  0  0  0  0  0  0  0  0  0  0
   22.5668   -5.8091  -13.1667 C   0  0  0  0  0  0  0  0  0  0  0  0
   21.4397   -5.8886  -14.1284 C   0  0  2  0  0  0  0  0  0  0  0  0
   21.6158   -6.8319  -15.1874 N   0  0  0  0  0  0  0  0  0  0  0  0
   21.2502   -4.5530  -14.7561 C   0  0  0  0  0  0  0  0  0  0  0  0
   21.5561   -4.3428  -15.9767 O   0  0  0  0  0  0  0  0  0  0  0  0
   20.7368   -3.4600  -14.0722 O   0  0  0  0  0  0  0  0  0  0  0  0
  2  1  1  1
  2  3  1  0
  4  3  1  0
  5  2  1  0
  6  5  2  0
  7  8  1  0
  9  8  1  6
  9 10  1  0
 10  5  1  0
 11 15  1  0
 11  9  1  0
 12 11  2  0
 14 13  1  1
 14 15  1  0
 14 16  1  0
 16 18  1  0
 17 16  2  0
M  END
$$$$
