CSA.pdb
     RDKit          3D

 18 17  0  0  1  0  0  0  0  0999 V2000
   40.3902   -9.2832   -6.7214 N   0  0  0  0  0  0  0  0  0  0  0  0
   39.2444   -8.8813   -7.5110 C   0  0  1  0  0  0  0  0  0  0  0  0
   38.0522   -8.7881   -6.5688 C   0  0  0  0  0  0  0  0  0  0  0  0
   37.6312  -10.4680   -6.0227 S   0  0  0  0  0  0  0  0  0  0  0  0
   39.4812   -7.5483   -8.1553 C   0  0  0  0  0  0  0  0  0  0  0  0
   40.2830   -6.7347   -7.6596 O   0  0  0  0  0  0  0  0  0  0  0  0
   37.3624   -6.3809  -11.5722 O   0  0  0  0  0  0  0  0  0  0  0  0
   38.6703   -5.9352  -11.4672 C   0  0  0  0  0  0  0  0  0  0  0  0
   39.0629   -5.9125   -9.9978 C   0  0  2  0  0  0  0  0  0  0  0  0
   38.8048   -7.1600   -9.3510 N   0  0  0  0  0  0  0  0  0  0  0  0
   38.3432   -4.7825   -9.3087 C   0  0  0  0  0  0  0  0  0  0  0  0
   37.1886   -4.9211   -8.8750 O   0  0  0  0  0  0  0  0  0  0  0  0
   39.3041   -1.2602   -8.2451 C   0  0  0  0  0  0  0  0  0  0  0  0
   38.3891   -2.4068   -8.4678 C   0  0  2  0  0  0  0  0  0  0  0  0
   38.9748   -3.5244   -9.1389 N   0  0  0  0  0  0  0  0  0  0  0  0
   37.2403   -1.9496   -9.2954 C   0  0  0  0  0  0  0  0  0  0  0  0
   37.1687   -2.2197  -10.5402 O   0  0  0  0  0  0  0  0  0  0  0  0
   36.1836   -1.2102   -8.7828 O   0  0  0  0  0  0  0  0  0  0  0  0
  2  1  1  1
  2  3  1  0
  4  3  1  0
  5  2  1  0
  6  5  2  0
  7  8  1  0
  9  8  1  6
  9 10  1  0
 10  5  1  0
 11 15  1  0
 11  9  1  0
 12 11  2  0
 14 13  1  6
 14 15  1  0
 14 16  1  0
 16 18  1  0
 17 16  2  0
M  END
$$$$
