CSA.pdb
     RDKit          3D

 18 17  0  0  1  0  0  0  0  0999 V2000
   19.3313  -11.8786  -15.8836 N   0  0  0  0  0  0  0  0  0  0  0  0
   19.8826  -10.7630  -16.6247 C   0  0  1  0  0  0  0  0  0  0  0  0
   19.2900  -10.8099  -18.0262 C   0  0  0  0  0  0  0  0  0  0  0  0
   20.1722  -12.0860  -18.9701 S   0  0  0  0  0  0  0  0  0  0  0  0
   19.5272   -9.4608  -15.9721 C   0  0  0  0  0  0  0  0  0  0  0  0
   18.3466   -9.1979  -15.6761 O   0  0  0  0  0  0  0  0  0  0  0  0
   21.8530   -7.6466  -13.4447 O   0  0  0  0  0  0  0  0  0  0  0  0
   20.5563   -7.1800  -13.5898 C   0  0  0  0  0  0  0  0  0  0  0  0
   20.1818   -7.2266  -15.0634 C   0  0  2  0  0  0  0  0  0  0  0  0
   20.5165   -8.4781  -15.6659 N   0  0  0  0  0  0  0  0  0  0  0  0
   20.8468   -6.0811  -15.7814 C   0  0  0  0  0  0  0  0  0  0  0  0
   21.9679   -6.2068  -16.2989 O   0  0  0  0  0  0  0  0  0  0  0  0
   19.8102   -2.5411  -16.7036 C   0  0  0  0  0  0  0  0  0  0  0  0
   20.7449   -3.6833  -16.5512 C   0  0  2  0  0  0  0  0  0  0  0  0
   20.2006   -4.8230  -15.8827 N   0  0  0  0  0  0  0  0  0  0  0  0
   21.9258   -3.2347  -15.7651 C   0  0  0  0  0  0  0  0  0  0  0  0
   21.9934   -3.4176  -14.5043 O   0  0  0  0  0  0  0  0  0  0  0  0
   23.0184   -2.5969  -16.3357 O   0  0  0  0  0  0  0  0  0  0  0  0
  2  1  1  1
  2  3  1  0
  4  3  1  0
  5  2  1  0
  6  5  2  0
  7  8  1  0
  9  8  1  1
  9 10  1  0
 10  5  1  0
 11 15  1  0
 11  9  1  0
 12 11  2  0
 14 13  1  1
 14 15  1  0
 14 16  1  0
 16 18  1  0
 17 16  2  0
M  END
$$$$
