CSA.pdb
     RDKit          3D

 18 17  0  0  1  0  0  0  0  0999 V2000
   16.3837  -11.2464  -16.7724 N   0  0  0  0  0  0  0  0  0  0  0  0
   16.7488  -10.4522  -15.6175 C   0  0  1  0  0  0  0  0  0  0  0  0
   17.4580  -11.3749  -14.6360 C   0  0  0  0  0  0  0  0  0  0  0  0
   16.1954  -12.3224  -13.7384 S   0  0  0  0  0  0  0  0  0  0  0  0
   17.6668   -9.3329  -16.0080 C   0  0  0  0  0  0  0  0  0  0  0  0
   18.4043   -9.4327  -17.0063 O   0  0  0  0  0  0  0  0  0  0  0  0
   18.5300   -4.7526  -16.3819 O   0  0  0  0  0  0  0  0  0  0  0  0
   17.6927   -5.7714  -15.9563 C   0  0  0  0  0  0  0  0  0  0  0  0
   18.5308   -7.0107  -15.6812 C   0  0  2  0  0  0  0  0  0  0  0  0
   17.7332   -8.1187  -15.2599 N   0  0  0  0  0  0  0  0  0  0  0  0
   19.5866   -6.6795  -14.6588 C   0  0  0  0  0  0  0  0  0  0  0  0
   19.3114   -6.5896  -13.4520 O   0  0  0  0  0  0  0  0  0  0  0  0
   23.3554   -6.2551  -14.7271 C   0  0  0  0  0  0  0  0  0  0  0  0
   21.9896   -6.0972  -14.1694 C   0  0  2  0  0  0  0  0  0  0  0  0
   20.9301   -6.4613  -15.0566 N   0  0  0  0  0  0  0  0  0  0  0  0
   21.7842   -4.6703  -13.8013 C   0  0  0  0  0  0  0  0  0  0  0  0
   21.0757   -3.8930  -14.5233 O   0  0  0  0  0  0  0  0  0  0  0  0
   22.3381   -4.0928  -12.6674 O   0  0  0  0  0  0  0  0  0  0  0  0
  2  1  1  6
  2  3  1  0
  4  3  1  0
  5  2  1  0
  6  5  2  0
  7  8  1  0
  9  8  1  1
  9 10  1  0
 10  5  1  0
 11 15  1  0
 11  9  1  0
 12 11  2  0
 14 13  1  6
 14 15  1  0
 14 16  1  0
 16 18  1  0
 17 16  2  0
M  END
$$$$
