CSA.pdb
     RDKit          3D

 18 17  0  0  1  0  0  0  0  0999 V2000
   23.4279  -12.1912  -17.5790 N   0  0  0  0  0  0  0  0  0  0  0  0
   23.6841  -11.3108  -16.4579 C   0  0  1  0  0  0  0  0  0  0  0  0
   25.1809  -11.3473  -16.1828 C   0  0  0  0  0  0  0  0  0  0  0  0
   25.5706  -12.9328  -15.3878 S   0  0  0  0  0  0  0  0  0  0  0  0
   23.2656   -9.9065  -16.7756 C   0  0  0  0  0  0  0  0  0  0  0  0
   23.4762   -9.4183  -17.9016 O   0  0  0  0  0  0  0  0  0  0  0  0
   21.4292   -7.4843  -13.8948 O   0  0  0  0  0  0  0  0  0  0  0  0
   21.0128   -7.3285  -15.2073 C   0  0  0  0  0  0  0  0  0  0  0  0
   22.1355   -7.7721  -16.1327 C   0  0  2  0  0  0  0  0  0  0  0  0
   22.6152   -9.0789  -15.8110 N   0  0  0  0  0  0  0  0  0  0  0  0
   23.2477   -6.7569  -16.0867 C   0  0  0  0  0  0  0  0  0  0  0  0
   24.2076   -6.8851  -15.3105 O   0  0  0  0  0  0  0  0  0  0  0  0
   24.1595   -3.7000  -18.1448 C   0  0  0  0  0  0  0  0  0  0  0  0
   24.2410   -4.6217  -16.9849 C   0  0  2  0  0  0  0  0  0  0  0  0
   23.2220   -5.6224  -16.9370 N   0  0  0  0  0  0  0  0  0  0  0  0
   24.1354   -3.8260  -15.7321 C   0  0  0  0  0  0  0  0  0  0  0  0
   23.0394   -3.7500  -15.0835 O   0  0  0  0  0  0  0  0  0  0  0  0
   25.2011   -3.1223  -15.1890 O   0  0  0  0  0  0  0  0  0  0  0  0
  2  1  1  6
  2  3  1  0
  4  3  1  0
  5  2  1  0
  6  5  2  0
  7  8  1  0
  9  8  1  1
  9 10  1  0
 10  5  1  0
 11 15  1  0
 11  9  1  0
 12 11  2  0
 14 13  1  6
 14 15  1  0
 14 16  1  0
 16 18  1  0
 17 16  2  0
M  END
$$$$
