CSA.pdb
     RDKit          3D

 18 17  0  0  1  0  0  0  0  0999 V2000
   26.1601  -11.7522  -17.9062 N   0  0  0  0  0  0  0  0  0  0  0  0
   25.8815  -10.9399  -16.7398 C   0  0  1  0  0  0  0  0  0  0  0  0
   27.1960  -10.3118  -16.2979 C   0  0  0  0  0  0  0  0  0  0  0  0
   28.1576  -11.5752  -15.4166 S   0  0  0  0  0  0  0  0  0  0  0  0
   24.8929   -9.8605  -17.0648 C   0  0  0  0  0  0  0  0  0  0  0  0
   24.9522   -9.2471  -18.1468 O   0  0  0  0  0  0  0  0  0  0  0  0
   21.4822   -9.3841  -14.7535 O   0  0  0  0  0  0  0  0  0  0  0  0
   21.4489   -9.0354  -16.0942 C   0  0  0  0  0  0  0  0  0  0  0  0
   22.8324   -8.5595  -16.5104 C   0  0  2  0  0  0  0  0  0  0  0  0
   23.8534   -9.4944  -16.1573 N   0  0  0  0  0  0  0  0  0  0  0  0
   23.0971   -7.2076  -15.9005 C   0  0  0  0  0  0  0  0  0  0  0  0
   23.6262   -7.0953  -14.7834 O   0  0  0  0  0  0  0  0  0  0  0  0
   22.6671   -3.6179  -17.0885 C   0  0  0  0  0  0  0  0  0  0  0  0
   23.0342   -4.6994  -16.1414 C   0  0  2  0  0  0  0  0  0  0  0  0
   22.7444   -6.0230  -16.5956 N   0  0  0  0  0  0  0  0  0  0  0  0
   22.2876   -4.4972  -14.8704 C   0  0  0  0  0  0  0  0  0  0  0  0
   21.1188   -4.9803  -14.7020 O   0  0  0  0  0  0  0  0  0  0  0  0
   22.7989   -3.7821  -13.7965 O   0  0  0  0  0  0  0  0  0  0  0  0
  2  1  1  6
  2  3  1  0
  4  3  1  0
  5  2  1  0
  6  5  2  0
  7  8  1  0
  9  8  1  1
  9 10  1  0
 10  5  1  0
 11 15  1  0
 11  9  1  0
 12 11  2  0
 14 13  1  6
 14 15  1  0
 14 16  1  0
 16 18  1  0
 17 16  2  0
M  END
$$$$
