CSA.pdb
     RDKit          3D

 18 17  0  0  1  0  0  0  0  0999 V2000
   17.6439  -11.7669  -15.1375 N   0  0  0  0  0  0  0  0  0  0  0  0
   17.9687  -10.7502  -16.1165 C   0  0  1  0  0  0  0  0  0  0  0  0
   16.7410  -10.5555  -16.9954 C   0  0  0  0  0  0  0  0  0  0  0  0
   16.5480  -12.0341  -18.0318 S   0  0  0  0  0  0  0  0  0  0  0  0
   18.3171   -9.4553  -15.4458 C   0  0  0  0  0  0  0  0  0  0  0  0
   17.5646   -8.9606  -14.5859 O   0  0  0  0  0  0  0  0  0  0  0  0
   21.5356   -8.1484  -13.6066 O   0  0  0  0  0  0  0  0  0  0  0  0
   21.3225   -7.4243  -14.7688 C   0  0  0  0  0  0  0  0  0  0  0  0
   19.8474   -7.5046  -15.1316 C   0  0  2  0  0  0  0  0  0  0  0  0
   19.5133   -8.7428  -15.7614 N   0  0  0  0  0  0  0  0  0  0  0  0
   19.4868   -6.3331  -16.0076 C   0  0  0  0  0  0  0  0  0  0  0  0
   19.8971   -6.2498  -17.1760 O   0  0  0  0  0  0  0  0  0  0  0  0
   16.7160   -3.9087  -16.0879 C   0  0  0  0  0  0  0  0  0  0  0  0
   18.1516   -4.2158  -16.3027 C   0  0  2  0  0  0  0  0  0  0  0  0
   18.6633   -5.2906  -15.5119 N   0  0  0  0  0  0  0  0  0  0  0  0
   18.9547   -3.0071  -15.9743 C   0  0  0  0  0  0  0  0  0  0  0  0
   18.7812   -1.9054  -16.5937 O   0  0  0  0  0  0  0  0  0  0  0  0
   19.9320   -2.9911  -14.9890 O   0  0  0  0  0  0  0  0  0  0  0  0
  2  1  1  1
  2  3  1  0
  4  3  1  0
  5  2  1  0
  6  5  2  0
  7  8  1  0
  9  8  1  6
  9 10  1  0
 10  5  1  0
 11 15  1  0
 11  9  1  0
 12 11  2  0
 14 13  1  1
 14 15  1  0
 14 16  1  0
 16 18  1  0
 17 16  2  0
M  END
$$$$
