VGH.pdb
     RDKit          3D

 22 22  0  0  1  0  0  0  0  0999 V2000
   16.4885  -11.7167  -14.3379 C   0  0  0  0  0  0  0  0  0  0  0  0
   16.4171  -12.0910  -15.8013 C   0  0  2  0  0  0  0  0  0  0  0  0
   16.5906  -13.5940  -15.8897 C   0  0  0  0  0  0  0  0  0  0  0  0
   17.5348  -11.4702  -16.6016 C   0  0  2  0  0  0  0  0  0  0  0  0
   18.7715  -12.0817  -16.1613 N   0  0  0  0  0  0  0  0  0  0  0  0
   17.6360  -10.0221  -16.4558 C   0  0  0  0  0  0  0  0  0  0  0  0
   16.7773   -9.2737  -16.9852 O   0  0  0  0  0  0  0  0  0  0  0  0
   18.6777   -9.3577  -15.7283 N   0  0  0  0  0  0  0  0  0  0  0  0
   18.7193   -7.9559  -15.4884 C   0  0  0  0  0  0  0  0  0  0  0  0
   19.9199   -7.5212  -14.7323 C   0  0  0  0  0  0  0  0  0  0  0  0
   20.1735   -8.1161  -13.6551 O   0  0  0  0  0  0  0  0  0  0  0  0
   20.7843   -6.4838  -15.1554 N   0  0  0  0  0  0  0  0  0  0  0  0
   21.9968   -6.1102  -14.4347 C   0  0  1  0  0  0  0  0  0  0  0  0
   23.2064   -6.1301  -15.2762 C   0  0  0  0  0  0  0  0  0  0  0  0
   23.2998   -7.3490  -16.0919 C   0  0  0  0  0  0  0  0  0  0  0  0
   22.6083   -8.5401  -15.8817 C   0  0  0  0  0  0  0  0  0  0  0  0
   22.9508   -9.4303  -16.8310 N   0  0  0  0  0  0  0  0  0  0  0  0
   23.8413   -8.8364  -17.6382 C   0  0  0  0  0  0  0  0  0  0  0  0
   24.0468   -7.5734  -17.1816 N   0  0  0  0  0  0  0  0  0  0  0  0
   21.8295   -4.8155  -13.7447 C   0  0  0  0  0  0  0  0  0  0  0  0
   20.9169   -4.0417  -14.0916 O   0  0  0  0  0  0  0  0  0  0  0  0
   22.6633   -4.4216  -12.7083 O   0  0  0  0  0  0  0  0  0  0  0  0
  2  1  1  1
  2  3  1  0
  4  6  1  0
  4  2  1  0
  4  5  1  1
  6  8  1  0
  7  6  2  0
  8  9  1  0
  9 10  1  0
 10 12  1  0
 10 11  2  0
 12 13  1  0
 13 14  1  6
 14 15  1  0
 15 19  1  0
 16 17  1  0
 16 15  2  0
 17 18  1  0
 18 19  2  0
 20 13  1  0
 20 22  1  0
 21 20  2  0
M  END
$$$$
