VGH.pdb
     RDKit          3D

 22 22  0  0  1  0  0  0  0  0999 V2000
   26.7143  -26.0034  -16.4433 C   0  0  0  0  0  0  0  0  0  0  0  0
   27.6759  -26.1976  -17.5941 C   0  0  2  0  0  0  0  0  0  0  0  0
   28.2178  -27.6093  -17.4934 C   0  0  0  0  0  0  0  0  0  0  0  0
   28.8579  -25.2644  -17.5103 C   0  0  2  0  0  0  0  0  0  0  0  0
   29.5379  -25.5410  -16.2621 N   0  0  0  0  0  0  0  0  0  0  0  0
   28.5027  -23.8503  -17.5612 C   0  0  0  0  0  0  0  0  0  0  0  0
   28.1732  -23.3220  -18.6520 O   0  0  0  0  0  0  0  0  0  0  0  0
   28.4992  -22.9802  -16.4216 N   0  0  0  0  0  0  0  0  0  0  0  0
   28.1047  -21.6138  -16.4575 C   0  0  0  0  0  0  0  0  0  0  0  0
   26.6563  -21.4100  -16.2072 C   0  0  0  0  0  0  0  0  0  0  0  0
   25.9296  -22.4327  -16.1425 O   0  0  0  0  0  0  0  0  0  0  0  0
   26.0572  -20.1391  -16.0394 N   0  0  0  0  0  0  0  0  0  0  0  0
   24.6356  -19.9555  -15.7668 C   0  0  1  0  0  0  0  0  0  0  0  0
   24.3245  -18.6632  -15.1305 C   0  0  0  0  0  0  0  0  0  0  0  0
   22.8842  -18.4875  -14.8972 C   0  0  0  0  0  0  0  0  0  0  0  0
   22.0136  -19.4284  -14.3515 C   0  0  0  0  0  0  0  0  0  0  0  0
   20.7733  -18.9096  -14.2923 N   0  0  0  0  0  0  0  0  0  0  0  0
   20.8331  -17.6646  -14.7858 C   0  0  0  0  0  0  0  0  0  0  0  0
   22.1183  -17.4173  -15.1503 N   0  0  0  0  0  0  0  0  0  0  0  0
   23.8265  -20.1776  -16.9819 C   0  0  0  0  0  0  0  0  0  0  0  0
   22.7615  -20.8197  -16.9085 O   0  0  0  0  0  0  0  0  0  0  0  0
   24.2134  -19.6907  -18.2219 O   0  0  0  0  0  0  0  0  0  0  0  0
  2  1  1  1
  2  3  1  0
  4  6  1  0
  4  2  1  0
  4  5  1  1
  6  8  1  0
  7  6  2  0
  8  9  1  0
  9 10  1  0
 10 12  1  0
 10 11  2  0
 12 13  1  0
 13 14  1  6
 14 15  1  0
 15 19  1  0
 16 17  1  0
 16 15  2  0
 17 18  1  0
 18 19  2  0
 20 13  1  0
 20 22  1  0
 21 20  2  0
M  END
$$$$
