VGH.pdb
     RDKit          3D

 22 22  0  0  1  0  0  0  0  0999 V2000
   24.1777  -23.5161  -16.9024 C   0  0  0  0  0  0  0  0  0  0  0  0
   25.3030  -23.8526  -15.9500 C   0  0  2  0  0  0  0  0  0  0  0  0
   25.1000  -25.2864  -15.5031 C   0  0  0  0  0  0  0  0  0  0  0  0
   25.2725  -22.9953  -14.7092 C   0  0  2  0  0  0  0  0  0  0  0  0
   24.0460  -23.3024  -14.0032 N   0  0  0  0  0  0  0  0  0  0  0  0
   25.3275  -21.5621  -14.9763 C   0  0  0  0  0  0  0  0  0  0  0  0
   26.3863  -21.0412  -15.4065 O   0  0  0  0  0  0  0  0  0  0  0  0
   24.2269  -20.6644  -14.7797 N   0  0  0  0  0  0  0  0  0  0  0  0
   24.2855  -19.2618  -15.0108 C   0  0  0  0  0  0  0  0  0  0  0  0
   22.9984  -18.5672  -14.7600 C   0  0  0  0  0  0  0  0  0  0  0  0
   22.2609  -19.0234  -13.8509 O   0  0  0  0  0  0  0  0  0  0  0  0
   22.5625  -17.4312  -15.4825 N   0  0  0  0  0  0  0  0  0  0  0  0
   21.3028  -16.7466  -15.2112 C   0  0  1  0  0  0  0  0  0  0  0  0
   21.2082  -15.4219  -15.8500 C   0  0  0  0  0  0  0  0  0  0  0  0
   19.9558  -14.7289  -15.5166 C   0  0  0  0  0  0  0  0  0  0  0  0
   18.9652  -15.1825  -14.6482 C   0  0  0  0  0  0  0  0  0  0  0  0
   17.9688  -14.2795  -14.5947 N   0  0  0  0  0  0  0  0  0  0  0  0
   18.3002  -13.2649  -15.4059 C   0  0  0  0  0  0  0  0  0  0  0  0
   19.5079  -13.5467  -15.9609 N   0  0  0  0  0  0  0  0  0  0  0  0
   20.1475  -17.6021  -15.5485 C   0  0  0  0  0  0  0  0  0  0  0  0
   20.1225  -18.2094  -16.6358 O   0  0  0  0  0  0  0  0  0  0  0  0
   19.0716  -17.7579  -14.6866 O   0  0  0  0  0  0  0  0  0  0  0  0
  2  1  1  6
  2  3  1  0
  4  6  1  0
  4  2  1  0
  4  5  1  6
  6  8  1  0
  7  6  2  0
  8  9  1  0
  9 10  1  0
 10 12  1  0
 10 11  2  0
 12 13  1  0
 13 14  1  6
 14 15  1  0
 15 19  1  0
 16 17  1  0
 16 15  2  0
 17 18  1  0
 18 19  2  0
 20 13  1  0
 20 22  1  0
 21 20  2  0
M  END
$$$$
