VGH.pdb
     RDKit          3D

 22 22  0  0  1  0  0  0  0  0999 V2000
   23.5510  -20.3450  -15.1566 C   0  0  0  0  0  0  0  0  0  0  0  0
   24.3019  -20.0468  -16.4349 C   0  0  2  0  0  0  0  0  0  0  0  0
   23.4463  -20.5405  -17.5842 C   0  0  0  0  0  0  0  0  0  0  0  0
   25.6127  -20.7894  -16.5100 C   0  0  2  0  0  0  0  0  0  0  0  0
   25.3082  -22.2049  -16.4854 N   0  0  0  0  0  0  0  0  0  0  0  0
   26.5351  -20.4771  -15.4238 C   0  0  0  0  0  0  0  0  0  0  0  0
   27.0705  -19.3428  -15.3580 O   0  0  0  0  0  0  0  0  0  0  0  0
   26.8943  -21.3966  -14.3840 N   0  0  0  0  0  0  0  0  0  0  0  0
   27.7121  -21.0652  -13.2680 C   0  0  0  0  0  0  0  0  0  0  0  0
   26.9618  -20.4413  -12.1501 C   0  0  0  0  0  0  0  0  0  0  0  0
   26.9370  -19.1863  -12.0975 O   0  0  0  0  0  0  0  0  0  0  0  0
   26.2806  -21.1767  -11.1514 N   0  0  0  0  0  0  0  0  0  0  0  0
   25.6679  -20.5573   -9.9809 C   0  0  1  0  0  0  0  0  0  0  0  0
   24.3391  -21.1061   -9.6573 C   0  0  0  0  0  0  0  0  0  0  0  0
   23.3315  -20.7649  -10.6714 C   0  0  0  0  0  0  0  0  0  0  0  0
   23.5395  -20.0078  -11.8223 C   0  0  0  0  0  0  0  0  0  0  0  0
   22.3853  -19.9074  -12.5070 N   0  0  0  0  0  0  0  0  0  0  0  0
   21.4501  -20.5805  -11.8216 C   0  0  0  0  0  0  0  0  0  0  0  0
   22.0339  -21.0974  -10.7090 N   0  0  0  0  0  0  0  0  0  0  0  0
   26.5769  -20.5994   -8.8180 C   0  0  0  0  0  0  0  0  0  0  0  0
   27.6028  -21.3049   -8.8585 O   0  0  0  0  0  0  0  0  0  0  0  0
   26.3280  -19.8715   -7.6635 O   0  0  0  0  0  0  0  0  0  0  0  0
  2  1  1  1
  2  3  1  0
  4  6  1  0
  4  2  1  0
  4  5  1  1
  6  8  1  0
  7  6  2  0
  8  9  1  0
  9 10  1  0
 10 12  1  0
 10 11  2  0
 12 13  1  0
 13 14  1  1
 14 15  1  0
 15 19  1  0
 16 17  1  0
 16 15  2  0
 17 18  1  0
 18 19  2  0
 20 13  1  0
 20 22  1  0
 21 20  2  0
M  END
$$$$
