VGH.pdb
     RDKit          3D

 22 22  0  0  1  0  0  0  0  0999 V2000
   18.8883  -15.4030  -16.5549 C   0  0  0  0  0  0  0  0  0  0  0  0
   18.6713  -13.9354  -16.2623 C   0  0  2  0  0  0  0  0  0  0  0  0
   17.7798  -13.8479  -15.0398 C   0  0  0  0  0  0  0  0  0  0  0  0
   17.9499  -13.2329  -17.3854 C   0  0  2  0  0  0  0  0  0  0  0  0
   18.8567  -13.1790  -18.5131 N   0  0  0  0  0  0  0  0  0  0  0  0
   17.5117  -11.8810  -17.0557 C   0  0  0  0  0  0  0  0  0  0  0  0
   16.4849  -11.7046  -16.3542 O   0  0  0  0  0  0  0  0  0  0  0  0
   18.1850  -10.6900  -17.4848 N   0  0  0  0  0  0  0  0  0  0  0  0
   17.8369   -9.3765  -17.0636 C   0  0  0  0  0  0  0  0  0  0  0  0
   18.5774   -8.9263  -15.8591 C   0  0  0  0  0  0  0  0  0  0  0  0
   18.1923   -9.3619  -14.7453 O   0  0  0  0  0  0  0  0  0  0  0  0
   19.6818   -8.0425  -15.8980 N   0  0  0  0  0  0  0  0  0  0  0  0
   20.4161   -7.6283  -14.7071 C   0  0  1  0  0  0  0  0  0  0  0  0
   21.0729   -8.7466  -14.0071 C   0  0  0  0  0  0  0  0  0  0  0  0
   22.0431   -9.4473  -14.8601 C   0  0  0  0  0  0  0  0  0  0  0  0
   22.3477   -9.1465  -16.1860 C   0  0  0  0  0  0  0  0  0  0  0  0
   23.2822  -10.0037  -16.6362 N   0  0  0  0  0  0  0  0  0  0  0  0
   23.5791  -10.8406  -15.6319 C   0  0  0  0  0  0  0  0  0  0  0  0
   22.8220  -10.4951  -14.5580 N   0  0  0  0  0  0  0  0  0  0  0  0
   21.3664   -6.5415  -15.0175 C   0  0  0  0  0  0  0  0  0  0  0  0
   21.9635   -5.9576  -14.0932 O   0  0  0  0  0  0  0  0  0  0  0  0
   21.6235   -6.1395  -16.3201 O   0  0  0  0  0  0  0  0  0  0  0  0
  2  1  1  6
  2  3  1  0
  4  6  1  0
  4  2  1  0
  4  5  1  6
  6  8  1  0
  7  6  2  0
  8  9  1  0
  9 10  1  0
 10 12  1  0
 10 11  2  0
 12 13  1  0
 13 14  1  6
 14 15  1  0
 15 19  1  0
 16 17  1  0
 16 15  2  0
 17 18  1  0
 18 19  2  0
 20 13  1  0
 20 22  1  0
 21 20  2  0
M  END
$$$$
