VGH.pdb
     RDKit          3D

 22 22  0  0  1  0  0  0  0  0999 V2000
   16.6872  -14.0380  -16.8445 C   0  0  0  0  0  0  0  0  0  0  0  0
   18.0744  -14.6090  -17.0346 C   0  0  2  0  0  0  0  0  0  0  0  0
   18.1904  -15.8187  -16.1292 C   0  0  0  0  0  0  0  0  0  0  0  0
   19.1504  -13.6389  -16.6145 C   0  0  2  0  0  0  0  0  0  0  0  0
   19.0022  -13.4209  -15.1906 N   0  0  0  0  0  0  0  0  0  0  0  0
   19.0953  -12.3553  -17.3057 C   0  0  0  0  0  0  0  0  0  0  0  0
   19.4274  -12.2755  -18.5144 O   0  0  0  0  0  0  0  0  0  0  0  0
   18.6761  -11.1288  -16.6926 N   0  0  0  0  0  0  0  0  0  0  0  0
   18.7166   -9.8584  -17.3318 C   0  0  0  0  0  0  0  0  0  0  0  0
   19.5911   -8.8776  -16.6425 C   0  0  0  0  0  0  0  0  0  0  0  0
   20.0718   -9.2105  -15.5305 O   0  0  0  0  0  0  0  0  0  0  0  0
   19.9087   -7.6017  -17.1655 N   0  0  0  0  0  0  0  0  0  0  0  0
   20.7739   -6.6490  -16.4777 C   0  0  1  0  0  0  0  0  0  0  0  0
   21.1563   -5.4974  -17.3140 C   0  0  0  0  0  0  0  0  0  0  0  0
   22.0714   -4.5813  -16.6189 C   0  0  0  0  0  0  0  0  0  0  0  0
   23.4489   -4.7361  -16.4792 C   0  0  0  0  0  0  0  0  0  0  0  0
   23.9479   -3.6985  -15.7825 N   0  0  0  0  0  0  0  0  0  0  0  0
   22.9241   -2.8891  -15.4761 C   0  0  0  0  0  0  0  0  0  0  0  0
   21.7892   -3.4332  -15.9879 N   0  0  0  0  0  0  0  0  0  0  0  0
   20.1829   -6.2224  -15.1936 C   0  0  0  0  0  0  0  0  0  0  0  0
   18.9525   -6.0487  -15.1050 O   0  0  0  0  0  0  0  0  0  0  0  0
   20.9580   -6.0041  -14.0639 O   0  0  0  0  0  0  0  0  0  0  0  0
  2  1  1  1
  2  3  1  0
  4  6  1  0
  4  2  1  0
  4  5  1  1
  6  8  1  0
  7  6  2  0
  8  9  1  0
  9 10  1  0
 10 12  1  0
 10 11  2  0
 12 13  1  0
 13 14  1  6
 14 15  1  0
 15 19  1  0
 16 17  1  0
 16 15  2  0
 17 18  1  0
 18 19  2  0
 20 13  1  0
 20 22  1  0
 21 20  2  0
M  END
$$$$
