VGH.pdb
     RDKit          3D

 22 22  0  0  1  0  0  0  0  0999 V2000
   17.9296  -14.7391  -17.6796 C   0  0  0  0  0  0  0  0  0  0  0  0
   17.3878  -14.5014  -16.2879 C   0  0  2  0  0  0  0  0  0  0  0  0
   16.5871  -15.7288  -15.9017 C   0  0  0  0  0  0  0  0  0  0  0  0
   16.4440  -13.3257  -16.2390 C   0  0  2  0  0  0  0  0  0  0  0  0
   15.2532  -13.6980  -16.9740 N   0  0  0  0  0  0  0  0  0  0  0  0
   16.9943  -12.0988  -16.8047 C   0  0  0  0  0  0  0  0  0  0  0  0
   16.7428  -11.7851  -17.9947 O   0  0  0  0  0  0  0  0  0  0  0  0
   17.8323  -11.1857  -16.0838 N   0  0  0  0  0  0  0  0  0  0  0  0
   18.4540  -10.0429  -16.6596 C   0  0  0  0  0  0  0  0  0  0  0  0
   19.2348   -9.2409  -15.6853 C   0  0  0  0  0  0  0  0  0  0  0  0
   19.1078   -9.5237  -14.4678 O   0  0  0  0  0  0  0  0  0  0  0  0
   20.1048   -8.1865  -16.0508 N   0  0  0  0  0  0  0  0  0  0  0  0
   20.8446   -7.3877  -15.0792 C   0  0  1  0  0  0  0  0  0  0  0  0
   22.3069   -7.4986  -15.2238 C   0  0  0  0  0  0  0  0  0  0  0  0
   22.7668   -8.8942  -15.1986 C   0  0  0  0  0  0  0  0  0  0  0  0
   22.9907   -9.6712  -14.0640 C   0  0  0  0  0  0  0  0  0  0  0  0
   23.4053  -10.8965  -14.4351 N   0  0  0  0  0  0  0  0  0  0  0  0
   23.4506  -10.9184  -15.7747 C   0  0  0  0  0  0  0  0  0  0  0  0
   23.0613   -9.6986  -16.2292 N   0  0  0  0  0  0  0  0  0  0  0  0
   20.3968   -5.9807  -15.0941 C   0  0  0  0  0  0  0  0  0  0  0  0
   19.9122   -5.4956  -16.1341 O   0  0  0  0  0  0  0  0  0  0  0  0
   20.4969   -5.1655  -13.9761 O   0  0  0  0  0  0  0  0  0  0  0  0
  2  1  1  6
  2  3  1  0
  4  6  1  0
  4  2  1  0
  4  5  1  6
  6  8  1  0
  7  6  2  0
  8  9  1  0
  9 10  1  0
 10 12  1  0
 10 11  2  0
 12 13  1  0
 13 14  1  6
 14 15  1  0
 15 19  1  0
 16 17  1  0
 16 15  2  0
 17 18  1  0
 18 19  2  0
 20 13  1  0
 20 22  1  0
 21 20  2  0
M  END
$$$$
