VGH.pdb
     RDKit          3D

 22 22  0  0  1  0  0  0  0  0999 V2000
   25.3991  -10.4318  -14.5419 C   0  0  0  0  0  0  0  0  0  0  0  0
   24.9824  -10.6207  -15.9832 C   0  0  2  0  0  0  0  0  0  0  0  0
   24.9098   -9.2446  -16.6140 C   0  0  0  0  0  0  0  0  0  0  0  0
   23.6090  -11.2332  -16.1017 C   0  0  2  0  0  0  0  0  0  0  0  0
   23.3513  -11.4442  -17.5110 N   0  0  0  0  0  0  0  0  0  0  0  0
   22.5428  -10.4142  -15.5353 C   0  0  0  0  0  0  0  0  0  0  0  0
   22.4141  -10.3205  -14.2894 O   0  0  0  0  0  0  0  0  0  0  0  0
   21.5921   -9.6784  -16.3167 N   0  0  0  0  0  0  0  0  0  0  0  0
   20.5753   -8.8479  -15.7685 C   0  0  0  0  0  0  0  0  0  0  0  0
   21.0500   -7.4869  -15.4162 C   0  0  0  0  0  0  0  0  0  0  0  0
   21.5655   -7.3282  -14.2815 O   0  0  0  0  0  0  0  0  0  0  0  0
   20.9540   -6.3708  -16.2808 N   0  0  0  0  0  0  0  0  0  0  0  0
   21.4585   -5.0461  -15.9348 C   0  0  1  0  0  0  0  0  0  0  0  0
   22.4579   -4.5337  -16.8889 C   0  0  0  0  0  0  0  0  0  0  0  0
   23.5883   -5.4566  -17.0637 C   0  0  0  0  0  0  0  0  0  0  0  0
   23.7036   -6.4490  -18.0347 C   0  0  0  0  0  0  0  0  0  0  0  0
   24.8764   -7.0910  -17.8818 N   0  0  0  0  0  0  0  0  0  0  0  0
   25.5088   -6.5328  -16.8398 C   0  0  0  0  0  0  0  0  0  0  0  0
   24.7192   -5.5417  -16.3498 N   0  0  0  0  0  0  0  0  0  0  0  0
   20.3517   -4.0898  -15.7331 C   0  0  0  0  0  0  0  0  0  0  0  0
   19.1951   -4.3988  -16.0778 O   0  0  0  0  0  0  0  0  0  0  0  0
   20.5539   -2.8403  -15.1654 O   0  0  0  0  0  0  0  0  0  0  0  0
  2  1  1  1
  2  3  1  0
  4  6  1  0
  4  2  1  0
  4  5  1  6
  6  8  1  0
  7  6  2  0
  8  9  1  0
  9 10  1  0
 10 12  1  0
 10 11  2  0
 12 13  1  0
 13 14  1  6
 14 15  1  0
 15 19  1  0
 16 17  1  0
 16 15  2  0
 17 18  1  0
 18 19  2  0
 20 13  1  0
 20 22  1  0
 21 20  2  0
M  END
$$$$
