VGH.pdb
     RDKit          3D

 22 22  0  0  1  0  0  0  0  0999 V2000
   21.0290  -22.4413  -23.4196 C   0  0  0  0  0  0  0  0  0  0  0  0
   22.4577  -22.1033  -23.0571 C   0  0  2  0  0  0  0  0  0  0  0  0
   23.3219  -23.2645  -23.5059 C   0  0  0  0  0  0  0  0  0  0  0  0
   22.6475  -21.9621  -21.5673 C   0  0  2  0  0  0  0  0  0  0  0  0
   22.7262  -23.2981  -21.0143 N   0  0  0  0  0  0  0  0  0  0  0  0
   21.5784  -21.2276  -20.8996 C   0  0  0  0  0  0  0  0  0  0  0  0
   21.5057  -19.9788  -21.0125 O   0  0  0  0  0  0  0  0  0  0  0  0
   20.5637  -21.8401  -20.0928 N   0  0  0  0  0  0  0  0  0  0  0  0
   19.4255  -21.1570  -19.5811 C   0  0  0  0  0  0  0  0  0  0  0  0
   19.4440  -21.0006  -18.1055 C   0  0  0  0  0  0  0  0  0  0  0  0
   19.9574  -21.9276  -17.4307 O   0  0  0  0  0  0  0  0  0  0  0  0
   18.9199  -19.8754  -17.4261 N   0  0  0  0  0  0  0  0  0  0  0  0
   19.0529  -19.6778  -15.9865 C   0  0  1  0  0  0  0  0  0  0  0  0
   19.5328  -18.3326  -15.6232 C   0  0  0  0  0  0  0  0  0  0  0  0
   20.9352  -18.1172  -16.0062 C   0  0  0  0  0  0  0  0  0  0  0  0
   21.9105  -19.0999  -16.1621 C   0  0  0  0  0  0  0  0  0  0  0  0
   23.0733  -18.5240  -16.5188 N   0  0  0  0  0  0  0  0  0  0  0  0
   22.8625  -17.2022  -16.5935 C   0  0  0  0  0  0  0  0  0  0  0  0
   21.5619  -16.9649  -16.2806 N   0  0  0  0  0  0  0  0  0  0  0  0
   17.8013  -20.0224  -15.2830 C   0  0  0  0  0  0  0  0  0  0  0  0
   16.7027  -19.7534  -15.8049 O   0  0  0  0  0  0  0  0  0  0  0  0
   17.8023  -20.6444  -14.0429 O   0  0  0  0  0  0  0  0  0  0  0  0
  2  1  1  1
  2  3  1  0
  4  6  1  0
  4  2  1  0
  4  5  1  1
  6  8  1  0
  7  6  2  0
  8  9  1  0
  9 10  1  0
 10 12  1  0
 10 11  2  0
 12 13  1  0
 13 14  1  6
 14 15  1  0
 15 19  1  0
 16 17  1  0
 16 15  2  0
 17 18  1  0
 18 19  2  0
 20 13  1  0
 20 22  1  0
 21 20  2  0
M  END
$$$$
