VGH.pdb
     RDKit          3D

 22 22  0  0  1  0  0  0  0  0999 V2000
   17.2026  -12.4480    3.9241 C   0  0  0  0  0  0  0  0  0  0  0  0
   16.8812  -13.2269    5.1797 C   0  0  2  0  0  0  0  0  0  0  0  0
   17.3953  -12.4185    6.3540 C   0  0  0  0  0  0  0  0  0  0  0  0
   17.5877  -14.5591    5.2183 C   0  0  2  0  0  0  0  0  0  0  0  0
   17.0611  -15.3579    4.1313 N   0  0  0  0  0  0  0  0  0  0  0  0
   17.4195  -15.2842    6.4730 C   0  0  0  0  0  0  0  0  0  0  0  0
   17.9467  -14.8503    7.5273 O   0  0  0  0  0  0  0  0  0  0  0  0
   16.6716  -16.5003    6.6054 N   0  0  0  0  0  0  0  0  0  0  0  0
   16.5600  -17.2454    7.8122 C   0  0  0  0  0  0  0  0  0  0  0  0
   17.0506  -18.6407    7.6928 C   0  0  0  0  0  0  0  0  0  0  0  0
   16.4700  -19.5200    8.3770 O   0  0  0  0  0  0  0  0  0  0  0  0
   18.1256  -19.0290    6.8586 N   0  0  0  0  0  0  0  0  0  0  0  0
   18.4860  -20.4220    6.6158 C   0  0  1  0  0  0  0  0  0  0  0  0
   18.8870  -20.6877    5.2229 C   0  0  0  0  0  0  0  0  0  0  0  0
   17.7519  -20.6198    4.2918 C   0  0  0  0  0  0  0  0  0  0  0  0
   16.4083  -20.4827    4.6341 C   0  0  0  0  0  0  0  0  0  0  0  0
   15.6615  -20.4576    3.5149 N   0  0  0  0  0  0  0  0  0  0  0  0
   16.4948  -20.5751    2.4713 C   0  0  0  0  0  0  0  0  0  0  0  0
   17.7615  -20.6730    2.9528 N   0  0  0  0  0  0  0  0  0  0  0  0
   19.5059  -20.8845    7.5782 C   0  0  0  0  0  0  0  0  0  0  0  0
   19.9967  -20.0819    8.3946 O   0  0  0  0  0  0  0  0  0  0  0  0
   19.9453  -22.2001    7.6082 O   0  0  0  0  0  0  0  0  0  0  0  0
  2  1  1  6
  2  3  1  0
  4  6  1  0
  4  2  1  0
  4  5  1  6
  6  8  1  0
  7  6  2  0
  8  9  1  0
  9 10  1  0
 10 12  1  0
 10 11  2  0
 12 13  1  0
 13 14  1  6
 14 15  1  0
 15 19  1  0
 16 17  1  0
 16 15  2  0
 17 18  1  0
 18 19  2  0
 20 13  1  0
 20 22  1  0
 21 20  2  0
M  END
$$$$
