VGH.pdb
     RDKit          3D

 22 22  0  0  1  0  0  0  0  0999 V2000
   31.7155  -32.8657  -19.1739 C   0  0  0  0  0  0  0  0  0  0  0  0
   30.6162  -32.1271  -18.4439 C   0  0  2  0  0  0  0  0  0  0  0  0
   30.1681  -30.9893  -19.3391 C   0  0  0  0  0  0  0  0  0  0  0  0
   31.1041  -31.5100  -17.1569 C   0  0  2  0  0  0  0  0  0  0  0  0
   31.3907  -32.5940  -16.2405 N   0  0  0  0  0  0  0  0  0  0  0  0
   30.1502  -30.5964  -16.5376 C   0  0  0  0  0  0  0  0  0  0  0  0
   29.3530  -31.0155  -15.6621 O   0  0  0  0  0  0  0  0  0  0  0  0
   30.0446  -29.2033  -16.8602 N   0  0  0  0  0  0  0  0  0  0  0  0
   29.1165  -28.3090  -16.2577 C   0  0  0  0  0  0  0  0  0  0  0  0
   27.8017  -28.2706  -16.9445 C   0  0  0  0  0  0  0  0  0  0  0  0
   27.7345  -28.7677  -18.0964 O   0  0  0  0  0  0  0  0  0  0  0  0
   26.6328  -27.7099  -16.3772 N   0  0  0  0  0  0  0  0  0  0  0  0
   25.3501  -27.6651  -17.0713 C   0  0  1  0  0  0  0  0  0  0  0  0
   24.2068  -27.4289  -16.1719 C   0  0  0  0  0  0  0  0  0  0  0  0
   22.9233  -27.4288  -16.8878 C   0  0  0  0  0  0  0  0  0  0  0  0
   22.4074  -28.4665  -17.6613 C   0  0  0  0  0  0  0  0  0  0  0  0
   21.2108  -28.1026  -18.1579 N   0  0  0  0  0  0  0  0  0  0  0  0
   20.9531  -26.8618  -17.7205 C   0  0  0  0  0  0  0  0  0  0  0  0
   21.9983  -26.4612  -16.9504 N   0  0  0  0  0  0  0  0  0  0  0  0
   25.3804  -26.6970  -18.1860 C   0  0  0  0  0  0  0  0  0  0  0  0
   26.1182  -25.6956  -18.1172 O   0  0  0  0  0  0  0  0  0  0  0  0
   24.6062  -26.8630  -19.3251 O   0  0  0  0  0  0  0  0  0  0  0  0
  2  1  1  6
  2  3  1  0
  4  6  1  0
  4  2  1  0
  4  5  1  1
  6  8  1  0
  7  6  2  0
  8  9  1  0
  9 10  1  0
 10 12  1  0
 10 11  2  0
 12 13  1  0
 13 14  1  1
 14 15  1  0
 15 19  1  0
 16 17  1  0
 16 15  2  0
 17 18  1  0
 18 19  2  0
 20 13  1  0
 20 22  1  0
 21 20  2  0
M  END
$$$$
