VGH.pdb
     RDKit          3D

 22 22  0  0  1  0  0  0  0  0999 V2000
   35.1172  -32.2805  -20.2222 C   0  0  0  0  0  0  0  0  0  0  0  0
   34.1088  -31.8297  -19.1894 C   0  0  2  0  0  0  0  0  0  0  0  0
   34.6817  -30.6037  -18.5072 C   0  0  0  0  0  0  0  0  0  0  0  0
   33.8897  -32.8687  -18.1181 C   0  0  2  0  0  0  0  0  0  0  0  0
   33.2484  -34.0057  -18.7450 N   0  0  0  0  0  0  0  0  0  0  0  0
   33.0691  -32.4081  -17.0033 C   0  0  0  0  0  0  0  0  0  0  0  0
   33.4991  -31.5164  -16.2303 O   0  0  0  0  0  0  0  0  0  0  0  0
   31.7596  -32.9110  -16.7068 N   0  0  0  0  0  0  0  0  0  0  0  0
   30.9410  -32.4380  -15.6436 C   0  0  0  0  0  0  0  0  0  0  0  0
   29.7533  -31.6777  -16.1055 C   0  0  0  0  0  0  0  0  0  0  0  0
   29.8223  -31.1213  -17.2298 O   0  0  0  0  0  0  0  0  0  0  0  0
   28.5607  -31.5477  -15.3551 N   0  0  0  0  0  0  0  0  0  0  0  0
   27.3484  -30.9297  -15.8821 C   0  0  1  0  0  0  0  0  0  0  0  0
   27.5766  -30.1510  -17.1123 C   0  0  0  0  0  0  0  0  0  0  0  0
   27.2847  -28.7220  -16.9315 C   0  0  0  0  0  0  0  0  0  0  0  0
   26.9058  -28.0989  -15.7444 C   0  0  0  0  0  0  0  0  0  0  0  0
   26.7257  -26.7839  -15.9667 N   0  0  0  0  0  0  0  0  0  0  0  0
   26.9801  -26.5555  -17.2630 C   0  0  0  0  0  0  0  0  0  0  0  0
   27.3186  -27.7379  -17.8403 N   0  0  0  0  0  0  0  0  0  0  0  0
   26.2734  -31.9270  -16.0555 C   0  0  0  0  0  0  0  0  0  0  0  0
   26.5194  -33.0124  -16.6151 O   0  0  0  0  0  0  0  0  0  0  0  0
   24.9791  -31.6975  -15.6117 O   0  0  0  0  0  0  0  0  0  0  0  0
  2  1  1  6
  2  3  1  0
  4  6  1  0
  4  2  1  0
  4  5  1  6
  6  8  1  0
  7  6  2  0
  8  9  1  0
  9 10  1  0
 10 12  1  0
 10 11  2  0
 12 13  1  0
 13 14  1  6
 14 15  1  0
 15 19  1  0
 16 17  1  0
 16 15  2  0
 17 18  1  0
 18 19  2  0
 20 13  1  0
 20 22  1  0
 21 20  2  0
M  END
$$$$
