VGH.pdb
     RDKit          3D

 22 22  0  0  1  0  0  0  0  0999 V2000
   25.8326  -12.4916  -17.3952 C   0  0  0  0  0  0  0  0  0  0  0  0
   24.8324  -12.2257  -16.2927 C   0  0  2  0  0  0  0  0  0  0  0  0
   24.2765  -13.5667  -15.8574 C   0  0  0  0  0  0  0  0  0  0  0  0
   23.6654  -11.3989  -16.7717 C   0  0  2  0  0  0  0  0  0  0  0  0
   24.1744  -10.4615  -17.7512 N   0  0  0  0  0  0  0  0  0  0  0  0
   22.9837  -10.6639  -15.7118 C   0  0  0  0  0  0  0  0  0  0  0  0
   22.3468  -11.2835  -14.8241 O   0  0  0  0  0  0  0  0  0  0  0  0
   22.9818   -9.2347  -15.5968 N   0  0  0  0  0  0  0  0  0  0  0  0
   22.3166   -8.5143  -14.5659 C   0  0  0  0  0  0  0  0  0  0  0  0
   20.9044   -8.1914  -14.8872 C   0  0  0  0  0  0  0  0  0  0  0  0
   20.4192   -8.6899  -15.9334 O   0  0  0  0  0  0  0  0  0  0  0  0
   20.0845   -7.3611  -14.0868 N   0  0  0  0  0  0  0  0  0  0  0  0
   18.7258   -6.9815  -14.4595 C   0  0  1  0  0  0  0  0  0  0  0  0
   17.8179   -6.8520  -13.3060 C   0  0  0  0  0  0  0  0  0  0  0  0
   17.6982   -8.1040  -12.5456 C   0  0  0  0  0  0  0  0  0  0  0  0
   17.1652   -9.3052  -13.0083 C   0  0  0  0  0  0  0  0  0  0  0  0
   17.2241  -10.2275  -12.0302 N   0  0  0  0  0  0  0  0  0  0  0  0
   17.7803   -9.6441  -10.9589 C   0  0  0  0  0  0  0  0  0  0  0  0
   18.0647   -8.3553  -11.2814 N   0  0  0  0  0  0  0  0  0  0  0  0
   18.7227   -5.7669  -15.2993 C   0  0  0  0  0  0  0  0  0  0  0  0
   19.7798   -5.1312  -15.4734 O   0  0  0  0  0  0  0  0  0  0  0  0
   17.5690   -5.2994  -15.9116 O   0  0  0  0  0  0  0  0  0  0  0  0
  2  1  1  6
  2  3  1  0
  4  6  1  0
  4  2  1  0
  4  5  1  6
  6  8  1  0
  7  6  2  0
  8  9  1  0
  9 10  1  0
 10 12  1  0
 10 11  2  0
 12 13  1  0
 13 14  1  1
 14 15  1  0
 15 19  1  0
 16 17  1  0
 16 15  2  0
 17 18  1  0
 18 19  2  0
 20 13  1  0
 20 22  1  0
 21 20  2  0
M  END
$$$$
