VGH.pdb
     RDKit          3D

 22 22  0  0  1  0  0  0  0  0999 V2000
   22.2304  -10.5280  -19.4747 C   0  0  0  0  0  0  0  0  0  0  0  0
   21.8615  -11.8156  -18.7728 C   0  0  2  0  0  0  0  0  0  0  0  0
   21.5363  -12.8351  -19.8458 C   0  0  0  0  0  0  0  0  0  0  0  0
   20.6268  -11.6639  -17.9197 C   0  0  2  0  0  0  0  0  0  0  0  0
   19.5235  -11.3628  -18.8079 N   0  0  0  0  0  0  0  0  0  0  0  0
   20.7290  -10.6176  -16.9081 C   0  0  0  0  0  0  0  0  0  0  0  0
   21.4772  -10.7752  -15.9116 O   0  0  0  0  0  0  0  0  0  0  0  0
   20.0162   -9.3747  -16.9614 N   0  0  0  0  0  0  0  0  0  0  0  0
   20.2351   -8.2863  -16.0718 C   0  0  0  0  0  0  0  0  0  0  0  0
   19.0855   -8.0171  -15.1730 C   0  0  0  0  0  0  0  0  0  0  0  0
   17.9317   -8.1712  -15.6454 O   0  0  0  0  0  0  0  0  0  0  0  0
   19.2186   -7.6009  -13.8271 N   0  0  0  0  0  0  0  0  0  0  0  0
   18.0798   -7.3912  -12.9392 C   0  0  1  0  0  0  0  0  0  0  0  0
   18.2651   -7.9814  -11.6017 C   0  0  0  0  0  0  0  0  0  0  0  0
   17.0894   -7.7934  -10.7401 C   0  0  0  0  0  0  0  0  0  0  0  0
   15.7604   -8.0167  -11.0937 C   0  0  0  0  0  0  0  0  0  0  0  0
   14.9649   -7.7369  -10.0449 N   0  0  0  0  0  0  0  0  0  0  0  0
   15.7531   -7.3419   -9.0350 C   0  0  0  0  0  0  0  0  0  0  0  0
   17.0409   -7.3794   -9.4665 N   0  0  0  0  0  0  0  0  0  0  0  0
   17.7193   -5.9613  -12.8628 C   0  0  0  0  0  0  0  0  0  0  0  0
   18.6057   -5.0923  -12.9674 O   0  0  0  0  0  0  0  0  0  0  0  0
   16.4101   -5.5421  -12.6759 O   0  0  0  0  0  0  0  0  0  0  0  0
  2  1  1  6
  2  3  1  0
  4  6  1  0
  4  2  1  0
  4  5  1  6
  6  8  1  0
  7  6  2  0
  8  9  1  0
  9 10  1  0
 10 12  1  0
 10 11  2  0
 12 13  1  0
 13 14  1  1
 14 15  1  0
 15 19  1  0
 16 17  1  0
 16 15  2  0
 17 18  1  0
 18 19  2  0
 20 13  1  0
 20 22  1  0
 21 20  2  0
M  END
$$$$
