VGH.pdb
     RDKit          3D

 22 22  0  0  1  0  0  0  0  0999 V2000
   10.9513  -16.8633    2.7504 C   0  0  0  0  0  0  0  0  0  0  0  0
   12.3848  -17.3446    2.7425 C   0  0  2  0  0  0  0  0  0  0  0  0
   12.3551  -18.8479    2.9326 C   0  0  0  0  0  0  0  0  0  0  0  0
   13.1829  -16.7710    3.8868 C   0  0  2  0  0  0  0  0  0  0  0  0
   13.3165  -15.3489    3.6490 N   0  0  0  0  0  0  0  0  0  0  0  0
   14.5090  -17.3596    4.0394 C   0  0  0  0  0  0  0  0  0  0  0  0
   14.6406  -18.4853    4.5809 O   0  0  0  0  0  0  0  0  0  0  0  0
   15.7226  -16.7322    3.6042 N   0  0  0  0  0  0  0  0  0  0  0  0
   17.0237  -17.2631    3.8260 C   0  0  0  0  0  0  0  0  0  0  0  0
   17.6434  -16.7993    5.0920 C   0  0  0  0  0  0  0  0  0  0  0  0
   18.8279  -17.1505    5.3205 O   0  0  0  0  0  0  0  0  0  0  0  0
   16.9785  -15.9915    6.0447 N   0  0  0  0  0  0  0  0  0  0  0  0
   17.6065  -15.5296    7.2782 C   0  0  1  0  0  0  0  0  0  0  0  0
   17.4079  -14.0916    7.5321 C   0  0  0  0  0  0  0  0  0  0  0  0
   18.2227  -13.2497    6.6449 C   0  0  0  0  0  0  0  0  0  0  0  0
   17.8452  -12.7530    5.3992 C   0  0  0  0  0  0  0  0  0  0  0  0
   18.8519  -12.0234    4.8842 N   0  0  0  0  0  0  0  0  0  0  0  0
   19.8584  -12.0436    5.7695 C   0  0  0  0  0  0  0  0  0  0  0  0
   19.4672  -12.7903    6.8349 N   0  0  0  0  0  0  0  0  0  0  0  0
   17.1885  -16.3531    8.4303 C   0  0  0  0  0  0  0  0  0  0  0  0
   17.6200  -16.0903    9.5690 O   0  0  0  0  0  0  0  0  0  0  0  0
   16.3195  -17.4255    8.2908 O   0  0  0  0  0  0  0  0  0  0  0  0
  2  1  1  1
  2  3  1  0
  4  6  1  0
  4  2  1  0
  4  5  1  6
  6  8  1  0
  7  6  2  0
  8  9  1  0
  9 10  1  0
 10 12  1  0
 10 11  2  0
 12 13  1  0
 13 14  1  1
 14 15  1  0
 15 19  1  0
 16 17  1  0
 16 15  2  0
 17 18  1  0
 18 19  2  0
 20 13  1  0
 20 22  1  0
 21 20  2  0
M  END
$$$$
