CWW.pdb
     RDKit          3D

 35 38  0  0  1  0  0  0  0  0999 V2000
    4.4988  -20.4564   24.2712 N   0  0  0  0  0  0  0  0  0  0  0  0
    5.8769  -20.4830   23.8161 C   0  0  1  0  0  0  0  0  0  0  0  0
    5.9186  -21.0343   22.4033 C   0  0  0  0  0  0  0  0  0  0  0  0
    7.6864  -21.2303   21.9681 S   0  0  0  0  0  0  0  0  0  0  0  0
    6.4467  -19.1396   23.9228 C   0  0  0  0  0  0  0  0  0  0  0  0
    5.9984  -18.1800   23.2017 O   0  0  0  0  0  0  0  0  0  0  0  0
    7.5057  -18.7753   24.7943 N   0  0  0  0  0  0  0  0  0  0  0  0
    8.1728  -17.4769   24.7609 C   0  0  1  0  0  0  0  0  0  0  0  0
    8.0950  -16.9349   26.1640 C   0  0  0  0  0  0  0  0  0  0  0  0
    7.2157  -15.7682   26.3591 C   0  0  0  0  0  0  0  0  0  0  0  0
    5.8381  -15.8506   26.2311 C   0  0  0  0  0  0  0  0  0  0  0  0
    5.3556  -14.6306   26.4231 N   0  0  0  0  0  0  0  0  0  0  0  0
    6.3194  -13.7455   26.6707 C   0  0  0  0  0  0  0  0  0  0  0  0
    6.3205  -12.3789   26.9482 C   0  0  0  0  0  0  0  0  0  0  0  0
    7.5236  -11.7511   27.1857 C   0  0  0  0  0  0  0  0  0  0  0  0
    8.6916  -12.4553   27.1497 C   0  0  0  0  0  0  0  0  0  0  0  0
    8.7078  -13.8038   26.8767 C   0  0  0  0  0  0  0  0  0  0  0  0
    7.4966  -14.4428   26.6352 C   0  0  0  0  0  0  0  0  0  0  0  0
    9.5567  -17.5216   24.2990 C   0  0  0  0  0  0  0  0  0  0  0  0
   10.3959  -17.9989   25.1027 O   0  0  0  0  0  0  0  0  0  0  0  0
   10.0234  -17.0870   23.0587 N   0  0  0  0  0  0  0  0  0  0  0  0
   10.8776  -16.0170   22.7548 C   0  0  1  0  0  0  0  0  0  0  0  0
   10.3000  -14.6653   22.4514 C   0  0  0  0  0  0  0  0  0  0  0  0
    9.0342  -14.6710   21.6989 C   0  0  0  0  0  0  0  0  0  0  0  0
    7.8476  -15.2800   21.9900 C   0  0  0  0  0  0  0  0  0  0  0  0
    6.9300  -14.9930   21.0234 N   0  0  0  0  0  0  0  0  0  0  0  0
    7.4830  -14.2094   20.1034 C   0  0  0  0  0  0  0  0  0  0  0  0
    7.0176  -13.6388   18.9529 C   0  0  0  0  0  0  0  0  0  0  0  0
    7.8214  -12.8360   18.1516 C   0  0  0  0  0  0  0  0  0  0  0  0
    9.1318  -12.6189   18.5475 C   0  0  0  0  0  0  0  0  0  0  0  0
    9.6127  -13.2003   19.7231 C   0  0  0  0  0  0  0  0  0  0  0  0
    8.7871  -13.9903   20.4914 C   0  0  0  0  0  0  0  0  0  0  0  0
   12.0740  -15.8595   23.6049 C   0  0  0  0  0  0  0  0  0  0  0  0
   12.2644  -16.4952   24.6521 O   0  0  0  0  0  0  0  0  0  0  0  0
   13.0329  -14.9262   23.1726 O   0  0  0  0  0  0  0  0  0  0  0  0
  2  1  1  6
  2  3  1  0
  3  4  1  0
  5  2  1  0
  5  6  2  0
  7  5  1  0
  8  7  1  0
  9 10  1  0
  8  9  1  1
 10 11  2  0
 11 12  1  0
 13 12  1  0
 14 13  2  0
 15 14  1  0
 16 17  1  0
 16 15  2  0
 17 18  2  0
 18 10  1  0
 18 13  1  0
 19 21  1  0
 19  8  1  0
 20 19  2  0
 22 21  1  0
 22 33  1  0
 22 23  1  1
 24 23  1  0
 25 24  2  0
 26 25  1  0
 27 26  1  0
 27 32  2  0
 28 29  2  0
 28 27  1  0
 29 30  1  0
 30 31  2  0
 32 31  1  0
 32 24  1  0
 33 34  2  0
 33 35  1  0
M  END
$$$$
