CWW.pdb
     RDKit          3D

 35 38  0  0  1  0  0  0  0  0999 V2000
    6.3975  -16.8255   20.0780 N   0  0  0  0  0  0  0  0  0  0  0  0
    7.6801  -16.2662   19.6919 C   0  0  1  0  0  0  0  0  0  0  0  0
    7.4589  -15.2296   18.6064 C   0  0  0  0  0  0  0  0  0  0  0  0
    8.2433  -15.8847   17.0871 S   0  0  0  0  0  0  0  0  0  0  0  0
    8.3455  -15.7216   20.8758 C   0  0  0  0  0  0  0  0  0  0  0  0
    8.7718  -14.5133   20.8884 O   0  0  0  0  0  0  0  0  0  0  0  0
    8.5779  -16.4399   22.0773 N   0  0  0  0  0  0  0  0  0  0  0  0
    9.4165  -15.9478   23.1666 C   0  0  1  0  0  0  0  0  0  0  0  0
    8.7548  -16.4075   24.4391 C   0  0  0  0  0  0  0  0  0  0  0  0
    7.5934  -15.6178   24.8863 C   0  0  0  0  0  0  0  0  0  0  0  0
    6.3541  -16.1925   25.1206 C   0  0  0  0  0  0  0  0  0  0  0  0
    5.5289  -15.2125   25.4624 N   0  0  0  0  0  0  0  0  0  0  0  0
    6.1370  -14.0278   25.4717 C   0  0  0  0  0  0  0  0  0  0  0  0
    5.7146  -12.7335   25.7734 C   0  0  0  0  0  0  0  0  0  0  0  0
    6.6280  -11.7044   25.7039 C   0  0  0  0  0  0  0  0  0  0  0  0
    7.9217  -11.9492   25.3464 C   0  0  0  0  0  0  0  0  0  0  0  0
    8.3541  -13.2201   25.0451 C   0  0  0  0  0  0  0  0  0  0  0  0
    7.4367  -14.2628   25.1125 C   0  0  0  0  0  0  0  0  0  0  0  0
   10.8033  -16.3998   23.1116 C   0  0  0  0  0  0  0  0  0  0  0  0
   11.5694  -15.7527   22.3552 O   0  0  0  0  0  0  0  0  0  0  0  0
   11.3461  -17.4735   23.8171 N   0  0  0  0  0  0  0  0  0  0  0  0
   12.5165  -17.5310   24.5877 C   0  0  1  0  0  0  0  0  0  0  0  0
   12.7646  -16.4943   25.6444 C   0  0  0  0  0  0  0  0  0  0  0  0
   11.9909  -16.6574   26.8867 C   0  0  0  0  0  0  0  0  0  0  0  0
   11.6677  -17.7930   27.5718 C   0  0  0  0  0  0  0  0  0  0  0  0
   10.9591  -17.4728   28.6917 N   0  0  0  0  0  0  0  0  0  0  0  0
   10.8085  -16.1542   28.7611 C   0  0  0  0  0  0  0  0  0  0  0  0
   10.1982  -15.3246   29.6584 C   0  0  0  0  0  0  0  0  0  0  0  0
   10.1884  -13.9439   29.4963 C   0  0  0  0  0  0  0  0  0  0  0  0
   10.8221  -13.4106   28.3849 C   0  0  0  0  0  0  0  0  0  0  0  0
   11.4474  -14.2547   27.4641 C   0  0  0  0  0  0  0  0  0  0  0  0
   11.4362  -15.6179   27.6577 C   0  0  0  0  0  0  0  0  0  0  0  0
   12.9101  -18.8580   25.1005 C   0  0  0  0  0  0  0  0  0  0  0  0
   12.2101  -19.8751   24.9905 O   0  0  0  0  0  0  0  0  0  0  0  0
   14.1571  -18.9370   25.7457 O   0  0  0  0  0  0  0  0  0  0  0  0
  2  1  1  1
  2  3  1  0
  3  4  1  0
  5  2  1  0
  5  6  2  0
  7  5  1  0
  8  7  1  0
  9 10  1  0
  8  9  1  1
 10 11  2  0
 11 12  1  0
 13 12  1  0
 14 13  2  0
 15 14  1  0
 16 17  1  0
 16 15  2  0
 17 18  2  0
 18 10  1  0
 18 13  1  0
 19 21  1  0
 19  8  1  0
 20 19  2  0
 22 21  1  0
 22 33  1  0
 22 23  1  1
 24 23  1  0
 25 24  2  0
 26 25  1  0
 27 26  1  0
 27 32  2  0
 28 29  2  0
 28 27  1  0
 29 30  1  0
 30 31  2  0
 32 31  1  0
 32 24  1  0
 33 34  2  0
 33 35  1  0
M  END
$$$$
