CWW.pdb
     RDKit          3D

 35 38  0  0  1  0  0  0  0  0999 V2000
    7.4644  -13.5502   18.4479 N   0  0  0  0  0  0  0  0  0  0  0  0
    7.9675  -14.8545   18.8383 C   0  0  1  0  0  0  0  0  0  0  0  0
    9.0961  -15.2473   17.9036 C   0  0  0  0  0  0  0  0  0  0  0  0
    9.6013  -16.9432   18.3740 S   0  0  0  0  0  0  0  0  0  0  0  0
    8.3760  -14.8140   20.2427 C   0  0  0  0  0  0  0  0  0  0  0  0
    9.0427  -13.8204   20.7013 O   0  0  0  0  0  0  0  0  0  0  0  0
    8.0908  -15.8227   21.1992 N   0  0  0  0  0  0  0  0  0  0  0  0
    8.4667  -15.7341   22.6073 C   0  0  1  0  0  0  0  0  0  0  0  0
    7.3403  -16.3714   23.3778 C   0  0  0  0  0  0  0  0  0  0  0  0
    6.6694  -15.5139   24.3712 C   0  0  0  0  0  0  0  0  0  0  0  0
    5.5703  -15.9442   25.0976 C   0  0  0  0  0  0  0  0  0  0  0  0
    5.1860  -14.9296   25.8600 N   0  0  0  0  0  0  0  0  0  0  0  0
    5.9563  -13.8567   25.6891 C   0  0  0  0  0  0  0  0  0  0  0  0
    5.9699  -12.5835   26.2578 C   0  0  0  0  0  0  0  0  0  0  0  0
    6.9436  -11.6916   25.8644 C   0  0  0  0  0  0  0  0  0  0  0  0
    7.8764  -12.0494   24.9354 C   0  0  0  0  0  0  0  0  0  0  0  0
    7.8763  -13.3012   24.3643 C   0  0  0  0  0  0  0  0  0  0  0  0
    6.8956  -14.2055   24.7566 C   0  0  0  0  0  0  0  0  0  0  0  0
    9.7405  -16.3683   22.9326 C   0  0  0  0  0  0  0  0  0  0  0  0
   10.0665  -17.3549   22.2267 O   0  0  0  0  0  0  0  0  0  0  0  0
   10.6170  -15.9796   23.9454 N   0  0  0  0  0  0  0  0  0  0  0  0
   11.8322  -16.5576   24.3405 C   0  0  1  0  0  0  0  0  0  0  0  0
   12.5804  -15.9918   25.5121 C   0  0  0  0  0  0  0  0  0  0  0  0
   11.9262  -16.1555   26.8213 C   0  0  0  0  0  0  0  0  0  0  0  0
   11.7784  -17.2738   27.5901 C   0  0  0  0  0  0  0  0  0  0  0  0
   11.1283  -16.9586   28.7464 N   0  0  0  0  0  0  0  0  0  0  0  0
   10.8452  -15.6602   28.7579 C   0  0  0  0  0  0  0  0  0  0  0  0
   10.2216  -14.8429   29.6575 C   0  0  0  0  0  0  0  0  0  0  0  0
   10.0538  -13.4828   29.4236 C   0  0  0  0  0  0  0  0  0  0  0  0
   10.5402  -12.9575   28.2368 C   0  0  0  0  0  0  0  0  0  0  0  0
   11.1784  -13.7891   27.3134 C   0  0  0  0  0  0  0  0  0  0  0  0
   11.3260  -15.1320   27.5793 C   0  0  0  0  0  0  0  0  0  0  0  0
   11.8809  -18.0319   24.3931 C   0  0  0  0  0  0  0  0  0  0  0  0
   12.9333  -18.6868   24.4128 O   0  0  0  0  0  0  0  0  0  0  0  0
   10.6439  -18.7003   24.4213 O   0  0  0  0  0  0  0  0  0  0  0  0
  2  1  1  6
  2  3  1  0
  3  4  1  0
  5  2  1  0
  5  6  2  0
  7  5  1  0
  8  7  1  0
  9 10  1  0
  8  9  1  1
 10 11  2  0
 11 12  1  0
 13 12  1  0
 14 13  2  0
 15 14  1  0
 16 17  1  0
 16 15  2  0
 17 18  2  0
 18 10  1  0
 18 13  1  0
 19 21  1  0
 19  8  1  0
 20 19  2  0
 22 21  1  0
 22 33  1  0
 22 23  1  1
 24 23  1  0
 25 24  2  0
 26 25  1  0
 27 26  1  0
 27 32  2  0
 28 29  2  0
 28 27  1  0
 29 30  1  0
 30 31  2  0
 32 31  1  0
 32 24  1  0
 33 34  2  0
 33 35  1  0
M  END
$$$$
