CWW.pdb
     RDKit          3D

 35 38  0  0  1  0  0  0  0  0999 V2000
    8.5306  -16.1865   18.0936 N   0  0  0  0  0  0  0  0  0  0  0  0
    8.1699  -16.9683   19.2622 C   0  0  1  0  0  0  0  0  0  0  0  0
    8.6630  -18.3908   19.0747 C   0  0  0  0  0  0  0  0  0  0  0  0
   10.4165  -18.4124   19.6016 S   0  0  0  0  0  0  0  0  0  0  0  0
    8.7150  -16.3272   20.4592 C   0  0  0  0  0  0  0  0  0  0  0  0
    9.6351  -15.4405   20.3645 O   0  0  0  0  0  0  0  0  0  0  0  0
    8.3019  -16.6067   21.7876 N   0  0  0  0  0  0  0  0  0  0  0  0
    8.8747  -15.9638   22.9669 C   0  0  1  0  0  0  0  0  0  0  0  0
    8.1197  -16.5156   24.1475 C   0  0  0  0  0  0  0  0  0  0  0  0
    7.1668  -15.5954   24.7937 C   0  0  0  0  0  0  0  0  0  0  0  0
    5.9901  -16.0385   25.3767 C   0  0  0  0  0  0  0  0  0  0  0  0
    5.3483  -14.9668   25.8214 N   0  0  0  0  0  0  0  0  0  0  0  0
    6.0200  -13.8438   25.5739 C   0  0  0  0  0  0  0  0  0  0  0  0
    5.7786  -12.4989   25.8524 C   0  0  0  0  0  0  0  0  0  0  0  0
    6.7142  -11.5635   25.4678 C   0  0  0  0  0  0  0  0  0  0  0  0
    7.8553  -11.9480   24.8264 C   0  0  0  0  0  0  0  0  0  0  0  0
    8.1081  -13.2706   24.5437 C   0  0  0  0  0  0  0  0  0  0  0  0
    7.1671  -14.2193   24.9285 C   0  0  0  0  0  0  0  0  0  0  0  0
   10.3107  -16.1696   23.1284 C   0  0  0  0  0  0  0  0  0  0  0  0
   11.0565  -15.2691   22.6693 O   0  0  0  0  0  0  0  0  0  0  0  0
   10.9200  -17.2645   23.7409 N   0  0  0  0  0  0  0  0  0  0  0  0
   12.1837  -17.3580   24.3419 C   0  0  1  0  0  0  0  0  0  0  0  0
   12.5442  -16.4322   25.4669 C   0  0  0  0  0  0  0  0  0  0  0  0
   11.8060  -16.6438   26.7235 C   0  0  0  0  0  0  0  0  0  0  0  0
   11.5417  -17.8013   27.3971 C   0  0  0  0  0  0  0  0  0  0  0  0
   10.8476  -17.5257   28.5377 N   0  0  0  0  0  0  0  0  0  0  0  0
   10.6491  -16.2150   28.6320 C   0  0  0  0  0  0  0  0  0  0  0  0
   10.0288  -15.4232   29.5562 C   0  0  0  0  0  0  0  0  0  0  0  0
    9.9633  -14.0415   29.4169 C   0  0  0  0  0  0  0  0  0  0  0  0
   10.5506  -13.4674   28.3004 C   0  0  0  0  0  0  0  0  0  0  0  0
   11.1859  -14.2727   27.3522 C   0  0  0  0  0  0  0  0  0  0  0  0
   11.2306  -15.6383   27.5236 C   0  0  0  0  0  0  0  0  0  0  0  0
   12.6755  -18.7159   24.6474 C   0  0  0  0  0  0  0  0  0  0  0  0
   13.7927  -18.9523   25.1299 O   0  0  0  0  0  0  0  0  0  0  0  0
   11.8006  -19.7793   24.3623 O   0  0  0  0  0  0  0  0  0  0  0  0
  2  1  1  6
  2  3  1  0
  3  4  1  0
  5  2  1  0
  5  6  2  0
  7  5  1  0
  8  7  1  0
  9 10  1  0
  8  9  1  1
 10 11  2  0
 11 12  1  0
 13 12  1  0
 14 13  2  0
 15 14  1  0
 16 17  1  0
 16 15  2  0
 17 18  2  0
 18 10  1  0
 18 13  1  0
 19 21  1  0
 19  8  1  0
 20 19  2  0
 22 21  1  0
 22 33  1  0
 22 23  1  1
 24 23  1  0
 25 24  2  0
 26 25  1  0
 27 26  1  0
 27 32  2  0
 28 29  2  0
 28 27  1  0
 29 30  1  0
 30 31  2  0
 32 31  1  0
 32 24  1  0
 33 34  2  0
 33 35  1  0
M  END
$$$$
