CWW.pdb
     RDKit          3D

 35 38  0  0  1  0  0  0  0  0999 V2000
    7.1957  -13.6998   19.0071 N   0  0  0  0  0  0  0  0  0  0  0  0
    7.0838  -14.9436   19.7469 C   0  0  1  0  0  0  0  0  0  0  0  0
    7.2362  -16.1054   18.7832 C   0  0  0  0  0  0  0  0  0  0  0  0
    9.0040  -16.1668   18.3101 S   0  0  0  0  0  0  0  0  0  0  0  0
    8.0770  -14.9576   20.8212 C   0  0  0  0  0  0  0  0  0  0  0  0
    9.1380  -14.2438   20.7401 O   0  0  0  0  0  0  0  0  0  0  0  0
    7.9749  -15.7267   22.0094 N   0  0  0  0  0  0  0  0  0  0  0  0
    9.0300  -15.8083   23.0153 C   0  0  1  0  0  0  0  0  0  0  0  0
    8.3728  -16.3367   24.2633 C   0  0  0  0  0  0  0  0  0  0  0  0
    7.3641  -15.4596   24.8843 C   0  0  0  0  0  0  0  0  0  0  0  0
    6.1285  -15.9312   25.2988 C   0  0  0  0  0  0  0  0  0  0  0  0
    5.4517  -14.8912   25.7664 N   0  0  0  0  0  0  0  0  0  0  0  0
    6.1550  -13.7628   25.6910 C   0  0  0  0  0  0  0  0  0  0  0  0
    5.8963  -12.4431   26.0600 C   0  0  0  0  0  0  0  0  0  0  0  0
    6.8750  -11.4942   25.8600 C   0  0  0  0  0  0  0  0  0  0  0  0
    8.0747  -11.8414   25.3108 C   0  0  0  0  0  0  0  0  0  0  0  0
    8.3454  -13.1387   24.9407 C   0  0  0  0  0  0  0  0  0  0  0  0
    7.3612  -14.1007   25.1392 C   0  0  0  0  0  0  0  0  0  0  0  0
   10.1639  -16.6445   22.6336 C   0  0  0  0  0  0  0  0  0  0  0  0
   10.4801  -16.6311   21.4180 O   0  0  0  0  0  0  0  0  0  0  0  0
   10.9184  -17.4464   23.4895 N   0  0  0  0  0  0  0  0  0  0  0  0
   12.0783  -17.1310   24.2121 C   0  0  1  0  0  0  0  0  0  0  0  0
   12.0361  -16.0531   25.2558 C   0  0  0  0  0  0  0  0  0  0  0  0
   11.3651  -16.4162   26.5154 C   0  0  0  0  0  0  0  0  0  0  0  0
   11.0819  -17.6482   27.0307 C   0  0  0  0  0  0  0  0  0  0  0  0
   10.4733  -17.5146   28.2433 N   0  0  0  0  0  0  0  0  0  0  0  0
   10.3495  -16.2249   28.5394 C   0  0  0  0  0  0  0  0  0  0  0  0
    9.8284  -15.5525   29.6081 C   0  0  0  0  0  0  0  0  0  0  0  0
    9.8269  -14.1638   29.6749 C   0  0  0  0  0  0  0  0  0  0  0  0
   10.3749  -13.4568   28.6162 C   0  0  0  0  0  0  0  0  0  0  0  0
   10.9088  -14.1397   27.5208 C   0  0  0  0  0  0  0  0  0  0  0  0
   10.8924  -15.5162   27.4895 C   0  0  0  0  0  0  0  0  0  0  0  0
   12.8798  -18.2657   24.7110 C   0  0  0  0  0  0  0  0  0  0  0  0
   12.4537  -19.4268   24.7947 O   0  0  0  0  0  0  0  0  0  0  0  0
   14.1983  -17.9774   25.1058 O   0  0  0  0  0  0  0  0  0  0  0  0
  2  1  1  6
  2  3  1  0
  3  4  1  0
  5  2  1  0
  5  6  2  0
  7  5  1  0
  8  7  1  0
  9 10  1  0
  8  9  1  1
 10 11  2  0
 11 12  1  0
 13 12  1  0
 14 13  2  0
 15 14  1  0
 16 17  1  0
 16 15  2  0
 17 18  2  0
 18 10  1  0
 18 13  1  0
 19 21  1  0
 19  8  1  0
 20 19  2  0
 22 21  1  0
 22 33  1  0
 22 23  1  1
 24 23  1  0
 25 24  2  0
 26 25  1  0
 27 26  1  0
 27 32  2  0
 28 29  2  0
 28 27  1  0
 29 30  1  0
 30 31  2  0
 32 31  1  0
 32 24  1  0
 33 34  2  0
 33 35  1  0
M  END
$$$$
