CWW.pdb
     RDKit          3D

 35 38  0  0  1  0  0  0  0  0999 V2000
    5.0459  -21.4294   25.3112 N   0  0  0  0  0  0  0  0  0  0  0  0
    6.3323  -21.2363   24.6672 C   0  0  1  0  0  0  0  0  0  0  0  0
    6.2920  -21.8658   23.2874 C   0  0  0  0  0  0  0  0  0  0  0  0
    8.0109  -22.3471   22.8794 S   0  0  0  0  0  0  0  0  0  0  0  0
    6.6466  -19.8076   24.6350 C   0  0  0  0  0  0  0  0  0  0  0  0
    5.8388  -18.9724   24.0949 O   0  0  0  0  0  0  0  0  0  0  0  0
    7.8232  -19.2243   25.1726 N   0  0  0  0  0  0  0  0  0  0  0  0
    8.1841  -17.8202   24.9989 C   0  0  1  0  0  0  0  0  0  0  0  0
    8.2221  -17.2278   26.3832 C   0  0  0  0  0  0  0  0  0  0  0  0
    7.3706  -16.0453   26.6045 C   0  0  0  0  0  0  0  0  0  0  0  0
    5.9921  -16.0902   26.4671 C   0  0  0  0  0  0  0  0  0  0  0  0
    5.5386  -14.8641   26.6889 N   0  0  0  0  0  0  0  0  0  0  0  0
    6.5224  -14.0100   26.9649 C   0  0  0  0  0  0  0  0  0  0  0  0
    6.5554  -12.6516   27.2785 C   0  0  0  0  0  0  0  0  0  0  0  0
    7.7722  -12.0602   27.5388 C   0  0  0  0  0  0  0  0  0  0  0  0
    8.9227  -12.7919   27.4902 C   0  0  0  0  0  0  0  0  0  0  0  0
    8.9073  -14.1327   27.1818 C   0  0  0  0  0  0  0  0  0  0  0  0
    7.6823  -14.7350   26.9171 C   0  0  0  0  0  0  0  0  0  0  0  0
    9.4518  -17.6042   24.3084 C   0  0  0  0  0  0  0  0  0  0  0  0
   10.4794  -18.0427   24.8826 O   0  0  0  0  0  0  0  0  0  0  0  0
    9.6204  -16.9624   23.0817 N   0  0  0  0  0  0  0  0  0  0  0  0
   10.3928  -15.8351   22.7663 C   0  0  1  0  0  0  0  0  0  0  0  0
    9.7186  -14.5216   22.4963 C   0  0  0  0  0  0  0  0  0  0  0  0
    8.5808  -14.5730   21.5627 C   0  0  0  0  0  0  0  0  0  0  0  0
    7.3479  -15.1378   21.7185 C   0  0  0  0  0  0  0  0  0  0  0  0
    6.5944  -14.9208   20.6031 N   0  0  0  0  0  0  0  0  0  0  0  0
    7.3008  -14.2263   19.7172 C   0  0  0  0  0  0  0  0  0  0  0  0
    7.0296  -13.7488   18.4664 C   0  0  0  0  0  0  0  0  0  0  0  0
    7.9664  -13.0286   17.7340 C   0  0  0  0  0  0  0  0  0  0  0  0
    9.2076  -12.7975   18.3059 C   0  0  0  0  0  0  0  0  0  0  0  0
    9.4901  -13.2839   19.5845 C   0  0  0  0  0  0  0  0  0  0  0  0
    8.5370  -13.9938   20.2801 C   0  0  0  0  0  0  0  0  0  0  0  0
   11.6009  -15.6075   23.5834 C   0  0  0  0  0  0  0  0  0  0  0  0
   11.6206  -14.9043   24.6041 O   0  0  0  0  0  0  0  0  0  0  0  0
   12.7800  -16.2395   23.1501 O   0  0  0  0  0  0  0  0  0  0  0  0
  2  1  1  6
  2  3  1  0
  3  4  1  0
  5  2  1  0
  5  6  2  0
  7  5  1  0
  8  7  1  0
  9 10  1  0
  8  9  1  1
 10 11  2  0
 11 12  1  0
 13 12  1  0
 14 13  2  0
 15 14  1  0
 16 17  1  0
 16 15  2  0
 17 18  2  0
 18 10  1  0
 18 13  1  0
 19 21  1  0
 19  8  1  0
 20 19  2  0
 22 21  1  0
 22 33  1  0
 22 23  1  1
 24 23  1  0
 25 24  2  0
 26 25  1  0
 27 26  1  0
 27 32  2  0
 28 29  2  0
 28 27  1  0
 29 30  1  0
 30 31  2  0
 32 31  1  0
 32 24  1  0
 33 34  2  0
 33 35  1  0
M  END
$$$$
