CWW.pdb
     RDKit          3D

 35 38  0  0  1  0  0  0  0  0999 V2000
   11.0376  -19.3075   19.2719 N   0  0  0  0  0  0  0  0  0  0  0  0
   10.2635  -19.2747   20.4993 C   0  0  1  0  0  0  0  0  0  0  0  0
   10.6967  -20.4271   21.3860 C   0  0  0  0  0  0  0  0  0  0  0  0
    9.1664  -21.1875   22.0437 S   0  0  0  0  0  0  0  0  0  0  0  0
   10.4268  -17.9686   21.1385 C   0  0  0  0  0  0  0  0  0  0  0  0
   11.5559  -17.3637   21.1107 O   0  0  0  0  0  0  0  0  0  0  0  0
    9.4007  -17.2679   21.8239 N   0  0  0  0  0  0  0  0  0  0  0  0
    9.5811  -15.9487   22.4233 C   0  0  1  0  0  0  0  0  0  0  0  0
    8.2162  -15.3120   22.4421 C   0  0  0  0  0  0  0  0  0  0  0  0
    7.6623  -14.9303   21.1307 C   0  0  0  0  0  0  0  0  0  0  0  0
    6.6739  -15.6706   20.5014 C   0  0  0  0  0  0  0  0  0  0  0  0
    6.4351  -15.0885   19.3342 N   0  0  0  0  0  0  0  0  0  0  0  0
    7.1970  -14.0123   19.1475 C   0  0  0  0  0  0  0  0  0  0  0  0
    7.3042  -13.0780   18.1179 C   0  0  0  0  0  0  0  0  0  0  0  0
    8.2027  -12.0423   18.2527 C   0  0  0  0  0  0  0  0  0  0  0  0
    8.9727  -11.9346   19.3738 C   0  0  0  0  0  0  0  0  0  0  0  0
    8.8796  -12.8484   20.3982 C   0  0  0  0  0  0  0  0  0  0  0  0
    7.9752  -13.8964   20.2676 C   0  0  0  0  0  0  0  0  0  0  0  0
   10.1614  -15.9690   23.7625 C   0  0  0  0  0  0  0  0  0  0  0  0
   10.9622  -15.0405   24.0355 O   0  0  0  0  0  0  0  0  0  0  0  0
    9.9076  -16.9167   24.7537 N   0  0  0  0  0  0  0  0  0  0  0  0
   10.2509  -16.8956   26.1134 C   0  0  1  0  0  0  0  0  0  0  0  0
    9.8021  -15.7535   26.9777 C   0  0  0  0  0  0  0  0  0  0  0  0
    8.4009  -15.3366   26.8004 C   0  0  0  0  0  0  0  0  0  0  0  0
    7.2954  -16.0865   26.5191 C   0  0  0  0  0  0  0  0  0  0  0  0
    6.1925  -15.2864   26.4717 N   0  0  0  0  0  0  0  0  0  0  0  0
    6.5446  -14.0283   26.7156 C   0  0  0  0  0  0  0  0  0  0  0  0
    5.8480  -12.8557   26.7904 C   0  0  0  0  0  0  0  0  0  0  0  0
    6.4713  -11.6455   27.0727 C   0  0  0  0  0  0  0  0  0  0  0  0
    7.8415  -11.6478   27.2819 C   0  0  0  0  0  0  0  0  0  0  0  0
    8.5586  -12.8442   27.2062 C   0  0  0  0  0  0  0  0  0  0  0  0
    7.9069  -14.0239   26.9238 C   0  0  0  0  0  0  0  0  0  0  0  0
   10.1000  -18.1619   26.8567 C   0  0  0  0  0  0  0  0  0  0  0  0
    9.5277  -19.1637   26.4032 O   0  0  0  0  0  0  0  0  0  0  0  0
   10.6487  -18.1993   28.1510 O   0  0  0  0  0  0  0  0  0  0  0  0
  2  1  1  6
  2  3  1  0
  3  4  1  0
  5  2  1  0
  5  6  2  0
  7  5  1  0
  8  7  1  0
  9 10  1  0
  8  9  1  1
 10 11  2  0
 11 12  1  0
 13 12  1  0
 14 13  2  0
 15 14  1  0
 16 17  1  0
 16 15  2  0
 17 18  2  0
 18 10  1  0
 18 13  1  0
 19 21  1  0
 19  8  1  0
 20 19  2  0
 22 21  1  0
 22 33  1  0
 22 23  1  1
 24 23  1  0
 25 24  2  0
 26 25  1  0
 27 26  1  0
 27 32  2  0
 28 29  2  0
 28 27  1  0
 29 30  1  0
 30 31  2  0
 32 31  1  0
 32 24  1  0
 33 34  2  0
 33 35  1  0
M  END
$$$$
