CWW.pdb
     RDKit          3D

 35 38  0  0  1  0  0  0  0  0999 V2000
   10.6282  -16.6626   17.8060 N   0  0  0  0  0  0  0  0  0  0  0  0
    9.7447  -17.2922   18.7703 C   0  0  1  0  0  0  0  0  0  0  0  0
   10.2281  -18.7063   19.0317 C   0  0  0  0  0  0  0  0  0  0  0  0
   11.8953  -18.5623   19.7748 S   0  0  0  0  0  0  0  0  0  0  0  0
    9.6900  -16.4734   19.9817 C   0  0  0  0  0  0  0  0  0  0  0  0
   10.5677  -15.5650   20.1971 O   0  0  0  0  0  0  0  0  0  0  0  0
    8.7063  -16.5934   20.9973 N   0  0  0  0  0  0  0  0  0  0  0  0
    8.7047  -15.7987   22.2223 C   0  0  1  0  0  0  0  0  0  0  0  0
    7.2806  -15.7962   22.7127 C   0  0  0  0  0  0  0  0  0  0  0  0
    7.0581  -15.2194   24.0507 C   0  0  0  0  0  0  0  0  0  0  0  0
    6.5879  -15.9751   25.1131 C   0  0  0  0  0  0  0  0  0  0  0  0
    6.4582  -15.1551   26.1470 N   0  0  0  0  0  0  0  0  0  0  0  0
    6.8115  -13.9077   25.8425 C   0  0  0  0  0  0  0  0  0  0  0  0
    6.8676  -12.7200   26.5712 C   0  0  0  0  0  0  0  0  0  0  0  0
    7.3131  -11.5771   25.9439 C   0  0  0  0  0  0  0  0  0  0  0  0
    7.6922  -11.6088   24.6337 C   0  0  0  0  0  0  0  0  0  0  0  0
    7.6422  -12.7721   23.9007 C   0  0  0  0  0  0  0  0  0  0  0  0
    7.1925  -13.9287   24.5280 C   0  0  0  0  0  0  0  0  0  0  0  0
    9.6086  -16.2870   23.2592 C   0  0  0  0  0  0  0  0  0  0  0  0
    9.3798  -17.4417   23.6975 O   0  0  0  0  0  0  0  0  0  0  0  0
   10.6912  -15.5929   23.7989 N   0  0  0  0  0  0  0  0  0  0  0  0
   11.6901  -16.0440   24.6739 C   0  0  1  0  0  0  0  0  0  0  0  0
   11.3216  -16.9126   25.8412 C   0  0  0  0  0  0  0  0  0  0  0  0
   10.1452  -16.4746   26.6111 C   0  0  0  0  0  0  0  0  0  0  0  0
    8.8609  -16.9361   26.5820 C   0  0  0  0  0  0  0  0  0  0  0  0
    8.1031  -16.2552   27.4882 N   0  0  0  0  0  0  0  0  0  0  0  0
    8.8572  -15.3573   28.1136 C   0  0  0  0  0  0  0  0  0  0  0  0
    8.6060  -14.4378   29.0920 C   0  0  0  0  0  0  0  0  0  0  0  0
    9.5986  -13.6000   29.5877 C   0  0  0  0  0  0  0  0  0  0  0  0
   10.8757  -13.7153   29.0616 C   0  0  0  0  0  0  0  0  0  0  0  0
   11.1378  -14.6538   28.0607 C   0  0  0  0  0  0  0  0  0  0  0  0
   10.1290  -15.4666   27.5941 C   0  0  0  0  0  0  0  0  0  0  0  0
   12.9332  -16.5498   24.0593 C   0  0  0  0  0  0  0  0  0  0  0  0
   13.8858  -17.0079   24.7070 O   0  0  0  0  0  0  0  0  0  0  0  0
   13.0077  -16.4938   22.6562 O   0  0  0  0  0  0  0  0  0  0  0  0
  2  1  1  6
  2  3  1  0
  3  4  1  0
  5  2  1  0
  5  6  2  0
  7  5  1  0
  8  7  1  0
  9 10  1  0
  8  9  1  1
 10 11  2  0
 11 12  1  0
 13 12  1  0
 14 13  2  0
 15 14  1  0
 16 17  1  0
 16 15  2  0
 17 18  2  0
 18 10  1  0
 18 13  1  0
 19 21  1  0
 19  8  1  0
 20 19  2  0
 22 21  1  0
 22 33  1  0
 22 23  1  6
 24 23  1  0
 25 24  2  0
 26 25  1  0
 27 26  1  0
 27 32  2  0
 28 29  2  0
 28 27  1  0
 29 30  1  0
 30 31  2  0
 32 31  1  0
 32 24  1  0
 33 34  2  0
 33 35  1  0
M  END
$$$$
