CWW.pdb
     RDKit          3D

 35 38  0  0  1  0  0  0  0  0999 V2000
    8.8270  -22.4373   21.7009 N   0  0  0  0  0  0  0  0  0  0  0  0
    8.5634  -21.4195   22.7015 C   0  0  1  0  0  0  0  0  0  0  0  0
    8.9612  -21.9538   24.0647 C   0  0  0  0  0  0  0  0  0  0  0  0
    8.6305  -20.6159   25.2701 S   0  0  0  0  0  0  0  0  0  0  0  0
    9.2721  -20.1915   22.3396 C   0  0  0  0  0  0  0  0  0  0  0  0
   10.5132  -20.2221   22.0227 O   0  0  0  0  0  0  0  0  0  0  0  0
    8.6874  -18.8991   22.3035 N   0  0  0  0  0  0  0  0  0  0  0  0
    9.4404  -17.6759   22.0411 C   0  0  1  0  0  0  0  0  0  0  0  0
    8.7245  -16.9829   20.9115 C   0  0  0  0  0  0  0  0  0  0  0  0
    7.8490  -15.8601   21.2924 C   0  0  0  0  0  0  0  0  0  0  0  0
    6.6677  -16.0478   21.9925 C   0  0  0  0  0  0  0  0  0  0  0  0
    6.1049  -14.8555   22.1334 N   0  0  0  0  0  0  0  0  0  0  0  0
    6.8333  -13.8903   21.5753 C   0  0  0  0  0  0  0  0  0  0  0  0
    6.6808  -12.5078   21.4748 C   0  0  0  0  0  0  0  0  0  0  0  0
    7.6569  -11.7775   20.8329 C   0  0  0  0  0  0  0  0  0  0  0  0
    8.7520  -12.3975   20.3058 C   0  0  0  0  0  0  0  0  0  0  0  0
    8.9171  -13.7605   20.3958 C   0  0  0  0  0  0  0  0  0  0  0  0
    7.9348  -14.5031   21.0417 C   0  0  0  0  0  0  0  0  0  0  0  0
    9.5707  -16.7889   23.1930 C   0  0  0  0  0  0  0  0  0  0  0  0
    8.6684  -15.9267   23.3356 O   0  0  0  0  0  0  0  0  0  0  0  0
   10.5960  -16.8148   24.1381 N   0  0  0  0  0  0  0  0  0  0  0  0
   10.8457  -15.9379   25.2038 C   0  0  1  0  0  0  0  0  0  0  0  0
    9.9007  -15.8930   26.3690 C   0  0  0  0  0  0  0  0  0  0  0  0
    8.5150  -15.5123   26.0472 C   0  0  0  0  0  0  0  0  0  0  0  0
    7.4271  -16.2998   25.8028 C   0  0  0  0  0  0  0  0  0  0  0  0
    6.3322  -15.5199   25.5752 N   0  0  0  0  0  0  0  0  0  0  0  0
    6.6724  -14.2383   25.6644 C   0  0  0  0  0  0  0  0  0  0  0  0
    5.9765  -13.0704   25.5318 C   0  0  0  0  0  0  0  0  0  0  0  0
    6.5848  -11.8295   25.6828 C   0  0  0  0  0  0  0  0  0  0  0  0
    7.9388  -11.7954   25.9768 C   0  0  0  0  0  0  0  0  0  0  0  0
    8.6552  -12.9869   26.1132 C   0  0  0  0  0  0  0  0  0  0  0  0
    8.0187  -14.1978   25.9561 C   0  0  0  0  0  0  0  0  0  0  0  0
   12.2355  -15.8696   25.6965 C   0  0  0  0  0  0  0  0  0  0  0  0
   12.5975  -15.1540   26.6418 O   0  0  0  0  0  0  0  0  0  0  0  0
   13.1773  -16.6755   25.0325 O   0  0  0  0  0  0  0  0  0  0  0  0
  2  1  1  6
  2  3  1  0
  3  4  1  0
  5  2  1  0
  5  6  2  0
  7  5  1  0
  8  7  1  0
  9 10  1  0
  8  9  1  6
 10 11  2  0
 11 12  1  0
 13 12  1  0
 14 13  2  0
 15 14  1  0
 16 17  1  0
 16 15  2  0
 17 18  2  0
 18 10  1  0
 18 13  1  0
 19 21  1  0
 19  8  1  0
 20 19  2  0
 22 21  1  0
 22 33  1  0
 22 23  1  1
 24 23  1  0
 25 24  2  0
 26 25  1  0
 27 26  1  0
 27 32  2  0
 28 29  2  0
 28 27  1  0
 29 30  1  0
 30 31  2  0
 32 31  1  0
 32 24  1  0
 33 34  2  0
 33 35  1  0
M  END
$$$$
