CWW.pdb
     RDKit          3D

 35 38  0  0  1  0  0  0  0  0999 V2000
   11.0541  -18.2157   18.6110 N   0  0  0  0  0  0  0  0  0  0  0  0
   10.9576  -18.7141   19.9708 C   0  0  1  0  0  0  0  0  0  0  0  0
   12.2741  -19.3649   20.3516 C   0  0  0  0  0  0  0  0  0  0  0  0
   12.0587  -20.0357   22.0417 S   0  0  0  0  0  0  0  0  0  0  0  0
   10.5838  -17.6157   20.8623 C   0  0  0  0  0  0  0  0  0  0  0  0
   11.0824  -16.4461   20.7035 O   0  0  0  0  0  0  0  0  0  0  0  0
    9.6732  -17.7249   21.9451 N   0  0  0  0  0  0  0  0  0  0  0  0
    9.3082  -16.6089   22.8130 C   0  0  1  0  0  0  0  0  0  0  0  0
    7.8208  -16.4311   22.6560 C   0  0  0  0  0  0  0  0  0  0  0  0
    7.3860  -15.5732   21.5392 C   0  0  0  0  0  0  0  0  0  0  0  0
    6.5190  -16.0222   20.5556 C   0  0  0  0  0  0  0  0  0  0  0  0
    6.3690  -15.0316   19.6870 N   0  0  0  0  0  0  0  0  0  0  0  0
    7.0767  -13.9564   20.0285 C   0  0  0  0  0  0  0  0  0  0  0  0
    7.2330  -12.6905   19.4649 C   0  0  0  0  0  0  0  0  0  0  0  0
    8.0448  -11.7768   20.1008 C   0  0  0  0  0  0  0  0  0  0  0  0
    8.6831  -12.1064   21.2607 C   0  0  0  0  0  0  0  0  0  0  0  0
    8.5399  -13.3511   21.8292 C   0  0  0  0  0  0  0  0  0  0  0  0
    7.7227  -14.2779   21.1916 C   0  0  0  0  0  0  0  0  0  0  0  0
    9.6620  -16.7957   24.2168 C   0  0  0  0  0  0  0  0  0  0  0  0
    9.1470  -17.7860   24.7928 O   0  0  0  0  0  0  0  0  0  0  0  0
   10.5117  -15.9816   24.9653 N   0  0  0  0  0  0  0  0  0  0  0  0
   10.7755  -15.9994   26.3426 C   0  0  1  0  0  0  0  0  0  0  0  0
    9.9551  -15.1507   27.2696 C   0  0  0  0  0  0  0  0  0  0  0  0
    8.5847  -14.8588   26.8162 C   0  0  0  0  0  0  0  0  0  0  0  0
    7.5648  -15.7134   26.5116 C   0  0  0  0  0  0  0  0  0  0  0  0
    6.4547  -15.0039   26.1608 N   0  0  0  0  0  0  0  0  0  0  0  0
    6.7186  -13.7030   26.2276 C   0  0  0  0  0  0  0  0  0  0  0  0
    5.9769  -12.5809   25.9898 C   0  0  0  0  0  0  0  0  0  0  0  0
    6.5042  -11.3036   26.1425 C   0  0  0  0  0  0  0  0  0  0  0  0
    7.8239  -11.1843   26.5491 C   0  0  0  0  0  0  0  0  0  0  0  0
    8.5868  -12.3288   26.7932 C   0  0  0  0  0  0  0  0  0  0  0  0
    8.0304  -13.5778   26.6309 C   0  0  0  0  0  0  0  0  0  0  0  0
   11.0014  -17.3215   26.9590 C   0  0  0  0  0  0  0  0  0  0  0  0
   11.2629  -17.4871   28.1594 O   0  0  0  0  0  0  0  0  0  0  0  0
   10.9071  -18.4360   26.1065 O   0  0  0  0  0  0  0  0  0  0  0  0
  2  1  1  6
  2  3  1  0
  3  4  1  0
  5  2  1  0
  5  6  2  0
  7  5  1  0
  8  7  1  0
  9 10  1  0
  8  9  1  1
 10 11  2  0
 11 12  1  0
 13 12  1  0
 14 13  2  0
 15 14  1  0
 16 17  1  0
 16 15  2  0
 17 18  2  0
 18 10  1  0
 18 13  1  0
 19 21  1  0
 19  8  1  0
 20 19  2  0
 22 21  1  0
 22 33  1  0
 22 23  1  1
 24 23  1  0
 25 24  2  0
 26 25  1  0
 27 26  1  0
 27 32  2  0
 28 29  2  0
 28 27  1  0
 29 30  1  0
 30 31  2  0
 32 31  1  0
 32 24  1  0
 33 34  2  0
 33 35  1  0
M  END
$$$$
