IKK.pdb
     RDKit          3D

 27 26  0  0  1  0  0  0  0  0999 V2000
    5.6998  -11.7871   27.2856 C   0  0  0  0  0  0  0  0  0  0  0  0
    6.4619  -13.0199   27.6465 C   0  0  0  0  0  0  0  0  0  0  0  0
    7.2201  -13.6160   26.4949 C   0  0  2  0  0  0  0  0  0  0  0  0
    8.0747  -12.6240   25.7611 C   0  0  0  0  0  0  0  0  0  0  0  0
    6.2558  -14.3486   25.5522 C   0  0  2  0  0  0  0  0  0  0  0  0
    5.7186  -15.4557   26.3160 N   0  0  0  0  0  0  0  0  0  0  0  0
    7.0397  -14.8643   24.4248 C   0  0  0  0  0  0  0  0  0  0  0  0
    7.6829  -15.9389   24.5430 O   0  0  0  0  0  0  0  0  0  0  0  0
    7.1274  -14.2111   23.1603 N   0  0  0  0  0  0  0  0  0  0  0  0
    7.9270  -14.6586   22.0664 C   0  0  1  0  0  0  0  0  0  0  0  0
    7.6641  -13.7177   20.8805 C   0  0  0  0  0  0  0  0  0  0  0  0
    8.3019  -14.2182   19.6357 C   0  0  0  0  0  0  0  0  0  0  0  0
    8.0403  -13.4193   18.3977 C   0  0  0  0  0  0  0  0  0  0  0  0
    8.6420  -13.9578   17.1528 C   0  0  0  0  0  0  0  0  0  0  0  0
    8.3255  -15.3262   16.8541 N   0  0  0  0  0  0  0  0  0  0  0  0
    9.3614  -14.7329   22.3642 C   0  0  0  0  0  0  0  0  0  0  0  0
    9.8381  -13.9951   23.2621 O   0  0  0  0  0  0  0  0  0  0  0  0
   10.2090  -15.6100   21.6673 N   0  0  0  0  0  0  0  0  0  0  0  0
   11.3144  -16.2372   22.3887 C   0  0  1  0  0  0  0  0  0  0  0  0
   10.8353  -17.0524   23.5310 C   0  0  0  0  0  0  0  0  0  0  0  0
   11.5478  -18.3689   23.6062 C   0  0  0  0  0  0  0  0  0  0  0  0
   11.0838  -19.2313   24.7588 C   0  0  0  0  0  0  0  0  0  0  0  0
   11.8034  -20.5664   24.6604 C   0  0  0  0  0  0  0  0  0  0  0  0
   11.3411  -21.4546   25.7226 N   0  0  0  0  0  0  0  0  0  0  0  0
   12.1107  -17.0789   21.4563 C   0  0  0  0  0  0  0  0  0  0  0  0
   11.6536  -17.6669   20.4604 O   0  0  0  0  0  0  0  0  0  0  0  0
   13.4920  -17.2578   21.6700 O   0  0  0  0  0  0  0  0  0  0  0  0
  1  2  1  0
  3  2  1  0
  3  4  1  6
  5  6  1  1
  5  3  1  0
  7  5  1  0
  8  7  2  0
  9  7  1  0
 10  9  1  0
 10 11  1  6
 11 12  1  0
 12 13  1  0
 14 13  1  0
 15 14  1  0
 16 18  1  0
 16 10  1  0
 17 16  2  0
 19 18  1  0
 20 21  1  0
 19 20  1  1
 21 22  1  0
 22 23  1  0
 23 24  1  0
 25 27  1  0
 25 19  1  0
 26 25  2  0
M  END
$$$$
