IKK.pdb
     RDKit          3D

 27 26  0  0  1  0  0  0  0  0999 V2000
    5.6049  -11.0679   27.0639 C   0  0  0  0  0  0  0  0  0  0  0  0
    5.4948  -12.2975   26.2232 C   0  0  0  0  0  0  0  0  0  0  0  0
    6.8091  -12.9869   25.9921 C   0  0  2  0  0  0  0  0  0  0  0  0
    7.8840  -12.0735   25.4790 C   0  0  0  0  0  0  0  0  0  0  0  0
    6.6114  -14.2062   25.0815 C   0  0  2  0  0  0  0  0  0  0  0  0
    5.2248  -14.5954   25.2349 N   0  0  0  0  0  0  0  0  0  0  0  0
    7.4803  -15.2790   25.5772 C   0  0  0  0  0  0  0  0  0  0  0  0
    8.6784  -15.0344   25.8726 O   0  0  0  0  0  0  0  0  0  0  0  0
    7.0481  -16.6263   25.7543 N   0  0  0  0  0  0  0  0  0  0  0  0
    7.9140  -17.7335   26.0003 C   0  0  1  0  0  0  0  0  0  0  0  0
    7.0379  -18.9867   26.1505 C   0  0  0  0  0  0  0  0  0  0  0  0
    7.8595  -20.2002   26.3943 C   0  0  0  0  0  0  0  0  0  0  0  0
    7.4870  -21.4145   25.6031 C   0  0  0  0  0  0  0  0  0  0  0  0
    8.3141  -22.6197   25.8582 C   0  0  0  0  0  0  0  0  0  0  0  0
    7.8649  -23.8251   25.2202 N   0  0  0  0  0  0  0  0  0  0  0  0
    8.9375  -17.9341   24.9688 C   0  0  0  0  0  0  0  0  0  0  0  0
    8.5810  -18.2638   23.8104 O   0  0  0  0  0  0  0  0  0  0  0  0
   10.3033  -17.7651   25.2504 N   0  0  0  0  0  0  0  0  0  0  0  0
   11.2791  -18.1043   24.2167 C   0  0  1  0  0  0  0  0  0  0  0  0
   11.5317  -16.9649   23.3018 C   0  0  0  0  0  0  0  0  0  0  0  0
   12.5917  -17.2918   22.2937 C   0  0  0  0  0  0  0  0  0  0  0  0
   12.8354  -16.1748   21.3036 C   0  0  0  0  0  0  0  0  0  0  0  0
   13.8197  -16.6821   20.2624 C   0  0  0  0  0  0  0  0  0  0  0  0
   13.8992  -15.7331   19.1561 N   0  0  0  0  0  0  0  0  0  0  0  0
   12.5505  -18.5452   24.8500 C   0  0  0  0  0  0  0  0  0  0  0  0
   12.8375  -18.3959   26.0508 O   0  0  0  0  0  0  0  0  0  0  0  0
   13.5398  -19.1858   24.0777 O   0  0  0  0  0  0  0  0  0  0  0  0
  1  2  1  0
  3  2  1  0
  3  4  1  6
  5  6  1  1
  5  3  1  0
  7  5  1  0
  8  7  2  0
  9  7  1  0
 10  9  1  0
 10 11  1  6
 11 12  1  0
 12 13  1  0
 14 13  1  0
 15 14  1  0
 16 18  1  0
 16 10  1  0
 17 16  2  0
 19 18  1  0
 20 21  1  0
 19 20  1  6
 21 22  1  0
 22 23  1  0
 23 24  1  0
 25 27  1  0
 25 19  1  0
 26 25  2  0
M  END
$$$$
