IKK.pdb
     RDKit          3D

 27 26  0  0  1  0  0  0  0  0999 V2000
    7.4239  -12.1310   19.3387 C   0  0  0  0  0  0  0  0  0  0  0  0
    7.5920  -13.6147   19.3707 C   0  0  0  0  0  0  0  0  0  0  0  0
    7.8745  -14.1578   20.7423 C   0  0  2  0  0  0  0  0  0  0  0  0
    9.0557  -13.5162   21.4104 C   0  0  0  0  0  0  0  0  0  0  0  0
    8.0087  -15.6856   20.6866 C   0  0  2  0  0  0  0  0  0  0  0  0
    6.7433  -16.1769   20.1818 N   0  0  0  0  0  0  0  0  0  0  0  0
    8.2105  -16.1660   22.0577 C   0  0  0  0  0  0  0  0  0  0  0  0
    7.2928  -16.0454   22.9097 O   0  0  0  0  0  0  0  0  0  0  0  0
    9.4150  -16.7815   22.5091 N   0  0  0  0  0  0  0  0  0  0  0  0
    9.5995  -17.3600   23.8004 C   0  0  1  0  0  0  0  0  0  0  0  0
   10.6073  -18.5107   23.6566 C   0  0  0  0  0  0  0  0  0  0  0  0
   10.8204  -19.2133   24.9481 C   0  0  0  0  0  0  0  0  0  0  0  0
   11.7944  -20.3492   24.9240 C   0  0  0  0  0  0  0  0  0  0  0  0
   11.9674  -21.0675   26.2107 C   0  0  0  0  0  0  0  0  0  0  0  0
   10.7702  -21.6249   26.7744 N   0  0  0  0  0  0  0  0  0  0  0  0
   10.0391  -16.4078   24.8260 C   0  0  0  0  0  0  0  0  0  0  0  0
   11.0165  -15.6570   24.5837 O   0  0  0  0  0  0  0  0  0  0  0  0
    9.3905  -16.3196   26.0689 N   0  0  0  0  0  0  0  0  0  0  0  0
    9.9415  -15.4252   27.0848 C   0  0  1  0  0  0  0  0  0  0  0  0
    8.8927  -14.5754   27.6986 C   0  0  0  0  0  0  0  0  0  0  0  0
    8.1909  -13.7381   26.6725 C   0  0  0  0  0  0  0  0  0  0  0  0
    7.0949  -12.8755   27.2573 C   0  0  0  0  0  0  0  0  0  0  0  0
    6.4614  -12.0924   26.1190 C   0  0  0  0  0  0  0  0  0  0  0  0
    5.3775  -11.2623   26.6356 N   0  0  0  0  0  0  0  0  0  0  0  0
   10.6355  -16.2205   28.1326 C   0  0  0  0  0  0  0  0  0  0  0  0
   11.2696  -15.7401   29.0885 O   0  0  0  0  0  0  0  0  0  0  0  0
   10.6045  -17.6285   28.0876 O   0  0  0  0  0  0  0  0  0  0  0  0
  1  2  1  0
  3  2  1  0
  3  4  1  6
  5  6  1  1
  5  3  1  0
  7  5  1  0
  8  7  2  0
  9  7  1  0
 10  9  1  0
 10 11  1  6
 11 12  1  0
 12 13  1  0
 14 13  1  0
 15 14  1  0
 16 18  1  0
 16 10  1  0
 17 16  2  0
 19 18  1  0
 20 21  1  0
 19 20  1  1
 21 22  1  0
 22 23  1  0
 23 24  1  0
 25 27  1  0
 25 19  1  0
 26 25  2  0
M  END
$$$$
