IKK.pdb
     RDKit          3D

 27 26  0  0  1  0  0  0  0  0999 V2000
    6.1962  -11.0454   26.7344 C   0  0  0  0  0  0  0  0  0  0  0  0
    5.6504  -12.2190   25.9890 C   0  0  0  0  0  0  0  0  0  0  0  0
    6.7043  -13.1958   25.5516 C   0  0  2  0  0  0  0  0  0  0  0  0
    7.8254  -12.5634   24.7793 C   0  0  0  0  0  0  0  0  0  0  0  0
    6.0601  -14.3551   24.7795 C   0  0  2  0  0  0  0  0  0  0  0  0
    5.1107  -14.9598   25.6909 N   0  0  0  0  0  0  0  0  0  0  0  0
    7.1174  -15.3203   24.4599 C   0  0  0  0  0  0  0  0  0  0  0  0
    7.5071  -16.1403   25.3307 O   0  0  0  0  0  0  0  0  0  0  0  0
    7.7569  -15.3977   23.1877 N   0  0  0  0  0  0  0  0  0  0  0  0
    8.6838  -16.4121   22.8028 C   0  0  1  0  0  0  0  0  0  0  0  0
    8.9675  -16.2401   21.3026 C   0  0  0  0  0  0  0  0  0  0  0  0
    9.8240  -17.3359   20.7806 C   0  0  0  0  0  0  0  0  0  0  0  0
   10.0641  -17.3339   19.3035 C   0  0  0  0  0  0  0  0  0  0  0  0
   11.1220  -18.2596   18.8287 C   0  0  0  0  0  0  0  0  0  0  0  0
   10.6708  -19.5638   18.4319 N   0  0  0  0  0  0  0  0  0  0  0  0
    9.9323  -16.4061   23.5729 C   0  0  0  0  0  0  0  0  0  0  0  0
   10.4658  -15.3065   23.8631 O   0  0  0  0  0  0  0  0  0  0  0  0
   10.5403  -17.6015   23.9905 N   0  0  0  0  0  0  0  0  0  0  0  0
   11.5385  -17.5448   25.0563 C   0  0  1  0  0  0  0  0  0  0  0  0
   11.2251  -18.4887   26.1561 C   0  0  0  0  0  0  0  0  0  0  0  0
   12.3372  -18.5561   27.1588 C   0  0  0  0  0  0  0  0  0  0  0  0
   12.0893  -19.5684   28.2547 C   0  0  0  0  0  0  0  0  0  0  0  0
   13.2957  -19.5584   29.1793 C   0  0  0  0  0  0  0  0  0  0  0  0
   13.0505  -20.4376   30.3185 N   0  0  0  0  0  0  0  0  0  0  0  0
   12.8866  -17.8358   24.4994 C   0  0  0  0  0  0  0  0  0  0  0  0
   13.9629  -17.5582   25.0572 O   0  0  0  0  0  0  0  0  0  0  0  0
   13.0122  -18.4726   23.2487 O   0  0  0  0  0  0  0  0  0  0  0  0
  1  2  1  0
  3  2  1  0
  3  4  1  6
  5  6  1  1
  5  3  1  0
  7  5  1  0
  8  7  2  0
  9  7  1  0
 10  9  1  0
 10 11  1  6
 11 12  1  0
 12 13  1  0
 14 13  1  0
 15 14  1  0
 16 18  1  0
 16 10  1  0
 17 16  2  0
 19 18  1  0
 20 21  1  0
 19 20  1  1
 21 22  1  0
 22 23  1  0
 23 24  1  0
 25 27  1  0
 25 19  1  0
 26 25  2  0
M  END
$$$$
