IKK.pdb
     RDKit          3D

 27 26  0  0  1  0  0  0  0  0999 V2000
    6.7319  -11.8834   27.9421 C   0  0  0  0  0  0  0  0  0  0  0  0
    6.0084  -12.9250   27.1531 C   0  0  0  0  0  0  0  0  0  0  0  0
    6.8471  -13.5543   26.0776 C   0  0  2  0  0  0  0  0  0  0  0  0
    7.4939  -12.5575   25.1605 C   0  0  0  0  0  0  0  0  0  0  0  0
    6.0211  -14.5913   25.3047 C   0  0  2  0  0  0  0  0  0  0  0  0
    5.6967  -15.6314   26.2589 N   0  0  0  0  0  0  0  0  0  0  0  0
    6.8750  -15.1437   24.2476 C   0  0  0  0  0  0  0  0  0  0  0  0
    7.4788  -16.2323   24.4289 O   0  0  0  0  0  0  0  0  0  0  0  0
    7.0761  -14.5122   22.9850 N   0  0  0  0  0  0  0  0  0  0  0  0
    7.9050  -15.0230   21.9419 C   0  0  1  0  0  0  0  0  0  0  0  0
    7.8148  -14.0508   20.7556 C   0  0  0  0  0  0  0  0  0  0  0  0
    8.6321  -14.5164   19.6057 C   0  0  0  0  0  0  0  0  0  0  0  0
    8.3839  -13.8252   18.3019 C   0  0  0  0  0  0  0  0  0  0  0  0
    9.1651  -14.3386   17.1497 C   0  0  0  0  0  0  0  0  0  0  0  0
    9.1581  -13.5086   15.9780 N   0  0  0  0  0  0  0  0  0  0  0  0
    9.3019  -15.2350   22.3364 C   0  0  0  0  0  0  0  0  0  0  0  0
    9.9389  -14.2880   22.8611 O   0  0  0  0  0  0  0  0  0  0  0  0
    9.9384  -16.4716   22.1396 N   0  0  0  0  0  0  0  0  0  0  0  0
   11.2164  -16.7156   22.8051 C   0  0  1  0  0  0  0  0  0  0  0  0
   11.2750  -18.0696   23.4068 C   0  0  0  0  0  0  0  0  0  0  0  0
   11.6906  -18.0159   24.8460 C   0  0  0  0  0  0  0  0  0  0  0  0
   11.8691  -19.3842   25.4649 C   0  0  0  0  0  0  0  0  0  0  0  0
   12.4548  -19.1939   26.8545 C   0  0  0  0  0  0  0  0  0  0  0  0
   12.6213  -20.4921   27.5009 N   0  0  0  0  0  0  0  0  0  0  0  0
   12.3306  -16.5362   21.8363 C   0  0  0  0  0  0  0  0  0  0  0  0
   13.3637  -15.8786   22.0526 O   0  0  0  0  0  0  0  0  0  0  0  0
   12.2628  -17.1347   20.5624 O   0  0  0  0  0  0  0  0  0  0  0  0
  1  2  1  0
  3  2  1  0
  3  4  1  6
  5  6  1  1
  5  3  1  0
  7  5  1  0
  8  7  2  0
  9  7  1  0
 10  9  1  0
 10 11  1  6
 11 12  1  0
 12 13  1  0
 14 13  1  0
 15 14  1  0
 16 18  1  0
 16 10  1  0
 17 16  2  0
 19 18  1  0
 20 21  1  0
 19 20  1  6
 21 22  1  0
 22 23  1  0
 23 24  1  0
 25 27  1  0
 25 19  1  0
 26 25  2  0
M  END
$$$$
