IKK.pdb
     RDKit          3D

 27 26  0  0  1  0  0  0  0  0999 V2000
    8.5187  -12.6224   27.1907 C   0  0  0  0  0  0  0  0  0  0  0  0
    7.8426  -13.8389   26.6488 C   0  0  0  0  0  0  0  0  0  0  0  0
    6.8861  -13.5457   25.5284 C   0  0  2  0  0  0  0  0  0  0  0  0
    5.8242  -12.5488   25.8911 C   0  0  0  0  0  0  0  0  0  0  0  0
    6.2854  -14.8525   24.9931 C   0  0  2  0  0  0  0  0  0  0  0  0
    5.7929  -15.5671   26.1526 N   0  0  0  0  0  0  0  0  0  0  0  0
    7.3689  -15.6184   24.3678 C   0  0  0  0  0  0  0  0  0  0  0  0
    7.9160  -16.5630   24.9932 O   0  0  0  0  0  0  0  0  0  0  0  0
    7.8632  -15.3592   23.0556 N   0  0  0  0  0  0  0  0  0  0  0  0
    8.8460  -16.1473   22.3854 C   0  0  1  0  0  0  0  0  0  0  0  0
    8.8703  -15.7095   20.9128 C   0  0  0  0  0  0  0  0  0  0  0  0
    7.8769  -16.4617   20.1039 C   0  0  0  0  0  0  0  0  0  0  0  0
    8.1435  -16.5273   18.6328 C   0  0  0  0  0  0  0  0  0  0  0  0
    7.0772  -17.1626   17.8198 C   0  0  0  0  0  0  0  0  0  0  0  0
    7.2718  -17.1150   16.3979 N   0  0  0  0  0  0  0  0  0  0  0  0
   10.1860  -16.0630   22.9760 C   0  0  0  0  0  0  0  0  0  0  0  0
   10.6231  -14.9437   23.3419 O   0  0  0  0  0  0  0  0  0  0  0  0
   10.9869  -17.2055   23.1397 N   0  0  0  0  0  0  0  0  0  0  0  0
   12.0485  -17.1789   24.1436 C   0  0  1  0  0  0  0  0  0  0  0  0
   11.7722  -18.1113   25.2631 C   0  0  0  0  0  0  0  0  0  0  0  0
   12.9997  -18.8736   25.6615 C   0  0  0  0  0  0  0  0  0  0  0  0
   12.7457  -19.8741   26.7669 C   0  0  0  0  0  0  0  0  0  0  0  0
   14.0654  -20.5553   27.0906 C   0  0  0  0  0  0  0  0  0  0  0  0
   13.8655  -21.5371   28.1522 N   0  0  0  0  0  0  0  0  0  0  0  0
   13.3510  -17.5127   23.5077 C   0  0  0  0  0  0  0  0  0  0  0  0
   14.4601  -17.4132   24.0612 O   0  0  0  0  0  0  0  0  0  0  0  0
   13.3894  -17.9816   22.1795 O   0  0  0  0  0  0  0  0  0  0  0  0
  1  2  1  0
  3  2  1  0
  3  4  1  1
  5  6  1  1
  5  3  1  0
  7  5  1  0
  8  7  2  0
  9  7  1  0
 10  9  1  0
 10 11  1  6
 11 12  1  0
 12 13  1  0
 14 13  1  0
 15 14  1  0
 16 18  1  0
 16 10  1  0
 17 16  2  0
 19 18  1  0
 20 21  1  0
 19 20  1  1
 21 22  1  0
 22 23  1  0
 23 24  1  0
 25 27  1  0
 25 19  1  0
 26 25  2  0
M  END
$$$$
