IKK.pdb
     RDKit          3D

 27 26  0  0  1  0  0  0  0  0999 V2000
    6.6895  -11.6839   27.8482 C   0  0  0  0  0  0  0  0  0  0  0  0
    5.9844  -12.7691   27.1025 C   0  0  0  0  0  0  0  0  0  0  0  0
    6.8402  -13.4398   26.0662 C   0  0  2  0  0  0  0  0  0  0  0  0
    7.5392  -12.4775   25.1506 C   0  0  0  0  0  0  0  0  0  0  0  0
    6.0132  -14.4721   25.2879 C   0  0  2  0  0  0  0  0  0  0  0  0
    5.6742  -15.5088   26.2408 N   0  0  0  0  0  0  0  0  0  0  0  0
    6.8716  -15.0316   24.2382 C   0  0  0  0  0  0  0  0  0  0  0  0
    7.5168  -16.0908   24.4489 O   0  0  0  0  0  0  0  0  0  0  0  0
    7.0320  -14.4393   22.9510 N   0  0  0  0  0  0  0  0  0  0  0  0
    7.8441  -14.9715   21.9054 C   0  0  1  0  0  0  0  0  0  0  0  0
    7.7384  -14.0211   20.7027 C   0  0  0  0  0  0  0  0  0  0  0  0
    8.4564  -14.5586   19.5184 C   0  0  0  0  0  0  0  0  0  0  0  0
    8.2400  -13.8257   18.2318 C   0  0  0  0  0  0  0  0  0  0  0  0
    8.8982  -14.4193   17.0418 C   0  0  0  0  0  0  0  0  0  0  0  0
    8.5538  -13.8227   15.7819 N   0  0  0  0  0  0  0  0  0  0  0  0
    9.2462  -15.1797   22.2829 C   0  0  0  0  0  0  0  0  0  0  0  0
    9.8140  -14.3318   23.0155 O   0  0  0  0  0  0  0  0  0  0  0  0
    9.9634  -16.3045   21.8429 N   0  0  0  0  0  0  0  0  0  0  0  0
   11.1907  -16.6721   22.5460 C   0  0  1  0  0  0  0  0  0  0  0  0
   11.0120  -17.8956   23.3644 C   0  0  0  0  0  0  0  0  0  0  0  0
   12.2755  -18.2711   24.0780 C   0  0  0  0  0  0  0  0  0  0  0  0
   12.1705  -19.5833   24.8225 C   0  0  0  0  0  0  0  0  0  0  0  0
   13.5296  -19.8816   25.4343 C   0  0  0  0  0  0  0  0  0  0  0  0
   13.4780  -21.1504   26.1542 N   0  0  0  0  0  0  0  0  0  0  0  0
   12.2928  -16.8667   21.5663 C   0  0  0  0  0  0  0  0  0  0  0  0
   12.1549  -17.3357   20.4228 O   0  0  0  0  0  0  0  0  0  0  0  0
   13.6126  -16.5099   21.9073 O   0  0  0  0  0  0  0  0  0  0  0  0
  1  2  1  0
  3  2  1  0
  3  4  1  6
  5  6  1  1
  5  3  1  0
  7  5  1  0
  8  7  2  0
  9  7  1  0
 10  9  1  0
 10 11  1  6
 11 12  1  0
 12 13  1  0
 14 13  1  0
 15 14  1  0
 16 18  1  0
 16 10  1  0
 17 16  2  0
 19 18  1  0
 20 21  1  0
 19 20  1  6
 21 22  1  0
 22 23  1  0
 23 24  1  0
 25 27  1  0
 25 19  1  0
 26 25  2  0
M  END
$$$$
