IKK.pdb
     RDKit          3D

 27 26  0  0  1  0  0  0  0  0999 V2000
    6.9732  -10.8890   26.5534 C   0  0  0  0  0  0  0  0  0  0  0  0
    7.4967  -12.2878   26.5692 C   0  0  0  0  0  0  0  0  0  0  0  0
    6.5529  -13.2893   25.9674 C   0  0  2  0  0  0  0  0  0  0  0  0
    5.1917  -13.2868   26.6001 C   0  0  0  0  0  0  0  0  0  0  0  0
    7.1880  -14.6863   25.9815 C   0  0  2  0  0  0  0  0  0  0  0  0
    8.4466  -14.5429   26.6836 N   0  0  0  0  0  0  0  0  0  0  0  0
    7.4432  -15.0744   24.5901 C   0  0  0  0  0  0  0  0  0  0  0  0
    6.5839  -15.7353   23.9519 O   0  0  0  0  0  0  0  0  0  0  0  0
    8.6379  -14.7441   23.8852 N   0  0  0  0  0  0  0  0  0  0  0  0
    8.9073  -15.0976   22.5292 C   0  0  1  0  0  0  0  0  0  0  0  0
    9.3600  -13.8253   21.7964 C   0  0  0  0  0  0  0  0  0  0  0  0
    8.3587  -13.3912   20.7885 C   0  0  0  0  0  0  0  0  0  0  0  0
    8.6768  -13.7205   19.3638 C   0  0  0  0  0  0  0  0  0  0  0  0
    7.6449  -13.3264   18.3730 C   0  0  0  0  0  0  0  0  0  0  0  0
    7.9139  -13.7066   17.0147 N   0  0  0  0  0  0  0  0  0  0  0  0
    9.8983  -16.1680   22.3749 C   0  0  0  0  0  0  0  0  0  0  0  0
   10.8822  -16.2068   23.1549 O   0  0  0  0  0  0  0  0  0  0  0  0
    9.7689  -17.1467   21.3756 N   0  0  0  0  0  0  0  0  0  0  0  0
   10.7006  -18.2726   21.3726 C   0  0  1  0  0  0  0  0  0  0  0  0
   10.0569  -19.5198   20.8943 C   0  0  0  0  0  0  0  0  0  0  0  0
   11.0459  -20.6397   20.7740 C   0  0  0  0  0  0  0  0  0  0  0  0
   10.4415  -21.9096   20.2177 C   0  0  0  0  0  0  0  0  0  0  0  0
   11.5275  -22.9729   20.1995 C   0  0  0  0  0  0  0  0  0  0  0  0
   10.9882  -24.2185   19.6623 N   0  0  0  0  0  0  0  0  0  0  0  0
   11.8802  -17.9473   20.5270 C   0  0  0  0  0  0  0  0  0  0  0  0
   12.9129  -18.6360   20.4498 O   0  0  0  0  0  0  0  0  0  0  0  0
   11.8814  -16.7831   19.7333 O   0  0  0  0  0  0  0  0  0  0  0  0
  1  2  1  0
  3  2  1  0
  3  4  1  1
  5  6  1  1
  5  3  1  0
  7  5  1  0
  8  7  2  0
  9  7  1  0
 10  9  1  0
 10 11  1  6
 11 12  1  0
 12 13  1  0
 14 13  1  0
 15 14  1  0
 16 18  1  0
 16 10  1  0
 17 16  2  0
 19 18  1  0
 20 21  1  0
 19 20  1  6
 21 22  1  0
 22 23  1  0
 23 24  1  0
 25 27  1  0
 25 19  1  0
 26 25  2  0
M  END
$$$$
