IKK.pdb
     RDKit          3D

 27 26  0  0  1  0  0  0  0  0999 V2000
    6.5783  -10.7643   26.9475 C   0  0  0  0  0  0  0  0  0  0  0  0
    7.1840  -12.1287   26.9930 C   0  0  0  0  0  0  0  0  0  0  0  0
    6.6643  -13.0525   25.9287 C   0  0  2  0  0  0  0  0  0  0  0  0
    5.1702  -13.1958   25.9356 C   0  0  0  0  0  0  0  0  0  0  0  0
    7.3701  -14.4121   26.0207 C   0  0  2  0  0  0  0  0  0  0  0  0
    8.7118  -14.1319   26.4885 N   0  0  0  0  0  0  0  0  0  0  0  0
    7.4294  -14.9764   24.6681 C   0  0  0  0  0  0  0  0  0  0  0  0
    6.7526  -15.9971   24.3802 O   0  0  0  0  0  0  0  0  0  0  0  0
    8.2276  -14.4312   23.6198 N   0  0  0  0  0  0  0  0  0  0  0  0
    8.3684  -15.0050   22.3209 C   0  0  1  0  0  0  0  0  0  0  0  0
    8.2635  -13.8669   21.2941 C   0  0  0  0  0  0  0  0  0  0  0  0
    8.3181  -14.3821   19.9018 C   0  0  0  0  0  0  0  0  0  0  0  0
    8.2837  -13.3501   18.8186 C   0  0  0  0  0  0  0  0  0  0  0  0
    8.2766  -13.8807   17.4330 C   0  0  0  0  0  0  0  0  0  0  0  0
    8.2735  -12.8921   16.3916 N   0  0  0  0  0  0  0  0  0  0  0  0
    9.6097  -15.7636   22.1326 C   0  0  0  0  0  0  0  0  0  0  0  0
   10.7075  -15.2151   22.4006 O   0  0  0  0  0  0  0  0  0  0  0  0
    9.5945  -17.0864   21.6603 N   0  0  0  0  0  0  0  0  0  0  0  0
   10.8306  -17.8641   21.7147 C   0  0  1  0  0  0  0  0  0  0  0  0
   10.6457  -19.1431   22.4419 C   0  0  0  0  0  0  0  0  0  0  0  0
   11.3510  -19.1325   23.7644 C   0  0  0  0  0  0  0  0  0  0  0  0
   11.0692  -20.3621   24.5986 C   0  0  0  0  0  0  0  0  0  0  0  0
   11.8564  -20.2372   25.8928 C   0  0  0  0  0  0  0  0  0  0  0  0
   11.5654  -21.3761   26.7583 N   0  0  0  0  0  0  0  0  0  0  0  0
   11.3224  -18.1247   20.3355 C   0  0  0  0  0  0  0  0  0  0  0  0
   12.4929  -18.4245   20.0414 O   0  0  0  0  0  0  0  0  0  0  0  0
   10.4380  -18.0393   19.2418 O   0  0  0  0  0  0  0  0  0  0  0  0
  1  2  1  0
  3  2  1  0
  3  4  1  1
  5  6  1  6
  5  3  1  0
  7  5  1  0
  8  7  2  0
  9  7  1  0
 10  9  1  0
 10 11  1  6
 11 12  1  0
 12 13  1  0
 14 13  1  0
 15 14  1  0
 16 18  1  0
 16 10  1  0
 17 16  2  0
 19 18  1  0
 20 21  1  0
 19 20  1  6
 21 22  1  0
 22 23  1  0
 23 24  1  0
 25 27  1  0
 25 19  1  0
 26 25  2  0
M  END
$$$$
