IKK.pdb
     RDKit          3D

 27 26  0  0  1  0  0  0  0  0999 V2000
    6.9472  -12.2938   18.4933 C   0  0  0  0  0  0  0  0  0  0  0  0
    8.2397  -12.9632   18.8281 C   0  0  0  0  0  0  0  0  0  0  0  0
    8.1517  -13.8802   20.0144 C   0  0  2  0  0  0  0  0  0  0  0  0
    7.6393  -13.2088   21.2553 C   0  0  0  0  0  0  0  0  0  0  0  0
    9.5039  -14.5660   20.2516 C   0  0  2  0  0  0  0  0  0  0  0  0
    9.8505  -15.2041   18.9984 N   0  0  0  0  0  0  0  0  0  0  0  0
    9.3106  -15.5879   21.2861 C   0  0  0  0  0  0  0  0  0  0  0  0
    8.8783  -15.2619   22.4216 O   0  0  0  0  0  0  0  0  0  0  0  0
    9.5876  -16.9727   21.0889 N   0  0  0  0  0  0  0  0  0  0  0  0
    9.4324  -17.9838   22.0837 C   0  0  1  0  0  0  0  0  0  0  0  0
    9.8724  -19.3193   21.4644 C   0  0  0  0  0  0  0  0  0  0  0  0
    9.6993  -20.4455   22.4176 C   0  0  0  0  0  0  0  0  0  0  0  0
    9.9993  -21.8103   21.8820 C   0  0  0  0  0  0  0  0  0  0  0  0
    9.8370  -22.9241   22.8487 C   0  0  0  0  0  0  0  0  0  0  0  0
   10.4646  -22.7316   24.1259 N   0  0  0  0  0  0  0  0  0  0  0  0
   10.1659  -17.7192   23.3262 C   0  0  0  0  0  0  0  0  0  0  0  0
   11.3465  -17.2953   23.2602 O   0  0  0  0  0  0  0  0  0  0  0  0
    9.5758  -17.9297   24.5835 N   0  0  0  0  0  0  0  0  0  0  0  0
   10.2443  -17.3976   25.7691 C   0  0  1  0  0  0  0  0  0  0  0  0
    9.3311  -16.5672   26.5908 C   0  0  0  0  0  0  0  0  0  0  0  0
    9.9871  -16.1187   27.8617 C   0  0  0  0  0  0  0  0  0  0  0  0
   10.0954  -14.6146   27.9764 C   0  0  0  0  0  0  0  0  0  0  0  0
   10.6975  -14.2933   29.3346 C   0  0  0  0  0  0  0  0  0  0  0  0
   10.7186  -12.8475   29.5345 N   0  0  0  0  0  0  0  0  0  0  0  0
   10.7920  -18.5159   26.5825 C   0  0  0  0  0  0  0  0  0  0  0  0
   10.3500  -19.6783   26.5846 O   0  0  0  0  0  0  0  0  0  0  0  0
   11.8947  -18.2977   27.4322 O   0  0  0  0  0  0  0  0  0  0  0  0
  1  2  1  0
  3  2  1  0
  3  4  1  1
  5  6  1  6
  5  3  1  0
  7  5  1  0
  8  7  2  0
  9  7  1  0
 10  9  1  0
 10 11  1  6
 11 12  1  0
 12 13  1  0
 14 13  1  0
 15 14  1  0
 16 18  1  0
 16 10  1  0
 17 16  2  0
 19 18  1  0
 20 21  1  0
 19 20  1  1
 21 22  1  0
 22 23  1  0
 23 24  1  0
 25 27  1  0
 25 19  1  0
 26 25  2  0
M  END
$$$$
