QYI.pdb
     RDKit          3D

 30 30  0  0  1  0  0  0  0  0999 V2000
    7.8896  -12.1649   18.4415 N   0  0  0  0  0  0  0  0  0  0  0  0
    7.6853  -13.4398   17.8515 C   0  0  0  0  0  0  0  0  0  0  0  0
    8.1101  -13.6492   16.6855 O   0  0  0  0  0  0  0  0  0  0  0  0
    6.9727  -14.5172   18.6120 C   0  0  0  0  0  0  0  0  0  0  0  0
    7.7960  -15.7968   18.6054 C   0  0  0  0  0  0  0  0  0  0  0  0
    8.8454  -15.7257   19.6897 C   0  0  2  0  0  0  0  0  0  0  0  0
    9.9062  -16.6851   19.4492 N   0  0  0  0  0  0  0  0  0  0  0  0
    8.2811  -15.9886   21.0385 C   0  0  0  0  0  0  0  0  0  0  0  0
    7.3632  -15.2462   21.5279 O   0  0  0  0  0  0  0  0  0  0  0  0
    7.5397  -19.9852   28.9717 O   0  0  0  0  0  0  0  0  0  0  0  0
    7.7932  -19.6599   27.6490 C   0  0  0  0  0  0  0  0  0  0  0  0
    6.7417  -19.5693   26.7526 C   0  0  0  0  0  0  0  0  0  0  0  0
    7.0309  -19.2408   25.4330 C   0  0  0  0  0  0  0  0  0  0  0  0
    8.3203  -19.0087   25.0105 C   0  0  0  0  0  0  0  0  0  0  0  0
    8.6486  -18.6617   23.6118 C   0  0  0  0  0  0  0  0  0  0  0  0
    8.2490  -17.2473   23.2345 C   0  0  2  0  0  0  0  0  0  0  0  0
    8.7084  -17.0589   21.8662 N   0  0  0  0  0  0  0  0  0  0  0  0
    8.8176  -16.2309   24.1440 C   0  0  0  0  0  0  0  0  0  0  0  0
   10.0275  -15.8926   24.1183 O   0  0  0  0  0  0  0  0  0  0  0  0
    9.3511  -19.1040   25.9183 C   0  0  0  0  0  0  0  0  0  0  0  0
    9.0950  -19.4326   27.2546 C   0  0  0  0  0  0  0  0  0  0  0  0
    5.6899  -12.1206   26.2479 C   0  0  0  0  0  0  0  0  0  0  0  0
    6.7954  -12.9182   25.5758 C   0  0  0  0  0  0  0  0  0  0  0  0
    7.5100  -13.6882   26.6398 C   0  0  2  0  0  0  0  0  0  0  0  0
    8.2294  -12.6874   27.5377 C   0  0  0  0  0  0  0  0  0  0  0  0
    8.5760  -14.5818   26.0468 C   0  0  2  0  0  0  0  0  0  0  0  0
    8.0111  -15.5544   25.1309 N   0  0  0  0  0  0  0  0  0  0  0  0
    9.2852  -15.2470   27.1401 C   0  0  0  0  0  0  0  0  0  0  0  0
    8.7569  -16.1561   27.8251 O   0  0  0  0  0  0  0  0  0  0  0  0
   10.5842  -14.8776   27.4477 O   0  0  0  0  0  0  0  0  0  0  0  0
  1  2  1  0
  2  4  1  0
  3  2  2  0
  4  5  1  0
  5  6  1  0
  6  7  1  6
  6  8  1  0
  8  9  2  0
  8 17  1  0
 10 11  1  0
 11 12  2  0
 12 13  1  0
 14 13  2  0
 14 15  1  0
 16 18  1  0
 16 15  1  1
 17 16  1  0
 18 19  2  0
 20 14  1  0
 21 11  1  0
 21 20  2  0
 22 23  1  0
 23 24  1  0
 24 26  1  0
 24 25  1  1
 26 28  1  0
 27 18  1  0
 26 27  1  6
 28 29  2  0
 28 30  1  0
M  END
$$$$
