QYI.pdb
     RDKit          3D

 30 30  0  0  1  0  0  0  0  0999 V2000
   13.6689  -17.1797   16.6212 N   0  0  0  0  0  0  0  0  0  0  0  0
   12.5944  -18.1058   16.6759 C   0  0  0  0  0  0  0  0  0  0  0  0
   12.4789  -18.9632   15.7619 O   0  0  0  0  0  0  0  0  0  0  0  0
   11.6145  -18.0578   17.8091 C   0  0  0  0  0  0  0  0  0  0  0  0
   12.0256  -16.9917   18.8139 C   0  0  0  0  0  0  0  0  0  0  0  0
   11.8325  -17.5201   20.2159 C   0  0  2  0  0  0  0  0  0  0  0  0
   10.9187  -18.6464   20.2249 N   0  0  0  0  0  0  0  0  0  0  0  0
   11.3007  -16.4857   21.1400 C   0  0  0  0  0  0  0  0  0  0  0  0
   11.9144  -15.3788   21.3178 O   0  0  0  0  0  0  0  0  0  0  0  0
    6.9230  -12.9947   17.7064 O   0  0  0  0  0  0  0  0  0  0  0  0
    7.2257  -13.6007   18.9151 C   0  0  0  0  0  0  0  0  0  0  0  0
    7.7439  -12.8416   19.9507 C   0  0  0  0  0  0  0  0  0  0  0  0
    8.0366  -13.4811   21.1501 C   0  0  0  0  0  0  0  0  0  0  0  0
    7.8240  -14.8302   21.3221 C   0  0  0  0  0  0  0  0  0  0  0  0
    8.1317  -15.5287   22.5877 C   0  0  0  0  0  0  0  0  0  0  0  0
    9.6198  -15.6713   22.8484 C   0  0  2  0  0  0  0  0  0  0  0  0
   10.0993  -16.6444   21.8779 N   0  0  0  0  0  0  0  0  0  0  0  0
    9.9196  -16.0908   24.2332 C   0  0  0  0  0  0  0  0  0  0  0  0
   10.4049  -17.2150   24.5157 O   0  0  0  0  0  0  0  0  0  0  0  0
    7.3079  -15.5662   20.2793 C   0  0  0  0  0  0  0  0  0  0  0  0
    7.0021  -14.9540   19.0583 C   0  0  0  0  0  0  0  0  0  0  0  0
   10.0591  -13.5467   29.9257 C   0  0  0  0  0  0  0  0  0  0  0  0
   10.3961  -14.7231   29.0244 C   0  0  0  0  0  0  0  0  0  0  0  0
    9.9924  -14.3577   27.6319 C   0  0  2  0  0  0  0  0  0  0  0  0
    8.4929  -14.0804   27.6375 C   0  0  0  0  0  0  0  0  0  0  0  0
   10.2160  -15.5086   26.6769 C   0  0  2  0  0  0  0  0  0  0  0  0
    9.6717  -15.2271   25.3621 N   0  0  0  0  0  0  0  0  0  0  0  0
    9.6054  -16.7100   27.2466 C   0  0  0  0  0  0  0  0  0  0  0  0
   10.1113  -17.3209   28.2190 O   0  0  0  0  0  0  0  0  0  0  0  0
    8.4292  -17.2083   26.7111 O   0  0  0  0  0  0  0  0  0  0  0  0
  1  2  1  0
  2  4  1  0
  3  2  2  0
  4  5  1  0
  5  6  1  0
  6  7  1  6
  6  8  1  0
  8  9  2  0
  8 17  1  0
 10 11  1  0
 11 12  2  0
 12 13  1  0
 14 13  2  0
 14 15  1  0
 16 18  1  0
 16 15  1  1
 17 16  1  0
 18 19  2  0
 20 14  1  0
 21 11  1  0
 21 20  2  0
 22 23  1  0
 23 24  1  0
 24 26  1  0
 24 25  1  1
 26 28  1  0
 27 18  1  0
 26 27  1  6
 28 29  2  0
 28 30  1  0
M  END
$$$$
