QYI.pdb
     RDKit          3D

 30 30  0  0  1  0  0  0  0  0999 V2000
   13.1296  -13.9549   16.9693 N   0  0  0  0  0  0  0  0  0  0  0  0
   13.9419  -15.1037   17.1583 C   0  0  0  0  0  0  0  0  0  0  0  0
   14.9213  -15.2932   16.3910 O   0  0  0  0  0  0  0  0  0  0  0  0
   13.6319  -16.0737   18.2583 C   0  0  0  0  0  0  0  0  0  0  0  0
   12.4091  -15.6114   19.0369 C   0  0  0  0  0  0  0  0  0  0  0  0
   12.1472  -16.5674   20.1769 C   0  0  2  0  0  0  0  0  0  0  0  0
   11.2263  -17.6136   19.7759 N   0  0  0  0  0  0  0  0  0  0  0  0
   11.5801  -15.8832   21.3673 C   0  0  0  0  0  0  0  0  0  0  0  0
   12.2594  -15.0202   22.0207 O   0  0  0  0  0  0  0  0  0  0  0  0
    7.0782  -12.7995   17.7228 O   0  0  0  0  0  0  0  0  0  0  0  0
    7.3562  -13.3978   18.9411 C   0  0  0  0  0  0  0  0  0  0  0  0
    7.7654  -12.6177   20.0095 C   0  0  0  0  0  0  0  0  0  0  0  0
    8.0362  -13.2498   21.2177 C   0  0  0  0  0  0  0  0  0  0  0  0
    7.9070  -14.6122   21.3671 C   0  0  0  0  0  0  0  0  0  0  0  0
    8.1932  -15.3031   22.6419 C   0  0  0  0  0  0  0  0  0  0  0  0
    9.6747  -15.3891   22.9588 C   0  0  2  0  0  0  0  0  0  0  0  0
   10.2718  -16.1304   21.8576 N   0  0  0  0  0  0  0  0  0  0  0  0
    9.9442  -16.0361   24.2597 C   0  0  0  0  0  0  0  0  0  0  0  0
   10.3444  -17.2229   24.3616 O   0  0  0  0  0  0  0  0  0  0  0  0
    7.4988  -15.3691   20.2920 C   0  0  0  0  0  0  0  0  0  0  0  0
    7.2178  -14.7647   19.0612 C   0  0  0  0  0  0  0  0  0  0  0  0
   10.0989  -12.7286   28.7839 C   0  0  0  0  0  0  0  0  0  0  0  0
   10.4626  -13.6584   27.6380 C   0  0  0  0  0  0  0  0  0  0  0  0
    9.8692  -14.9982   27.9355 C   0  0  2  0  0  0  0  0  0  0  0  0
   10.6135  -15.5841   29.1306 C   0  0  0  0  0  0  0  0  0  0  0  0
   10.0763  -15.9568   26.7845 C   0  0  2  0  0  0  0  0  0  0  0  0
    9.7631  -15.3390   25.5100 N   0  0  0  0  0  0  0  0  0  0  0  0
    9.2432  -17.1384   27.0088 C   0  0  0  0  0  0  0  0  0  0  0  0
    8.0331  -17.1764   26.6789 O   0  0  0  0  0  0  0  0  0  0  0  0
    9.7869  -18.2650   27.6037 O   0  0  0  0  0  0  0  0  0  0  0  0
  1  2  1  0
  2  4  1  0
  3  2  2  0
  4  5  1  0
  5  6  1  0
  6  7  1  6
  6  8  1  0
  8  9  2  0
  8 17  1  0
 10 11  1  0
 11 12  2  0
 12 13  1  0
 14 13  2  0
 14 15  1  0
 16 18  1  0
 16 15  1  6
 17 16  1  0
 18 19  2  0
 20 14  1  0
 21 11  1  0
 21 20  2  0
 22 23  1  0
 23 24  1  0
 24 26  1  0
 24 25  1  1
 26 28  1  0
 27 18  1  0
 26 27  1  6
 28 29  2  0
 28 30  1  0
M  END
$$$$
