QYI.pdb
     RDKit          3D

 30 30  0  0  1  0  0  0  0  0999 V2000
   14.3578  -17.9479   17.8369 N   0  0  0  0  0  0  0  0  0  0  0  0
   13.0930  -18.2439   17.2644 C   0  0  0  0  0  0  0  0  0  0  0  0
   13.0474  -18.8333   16.1533 O   0  0  0  0  0  0  0  0  0  0  0  0
   11.8330  -17.8572   17.9784 C   0  0  0  0  0  0  0  0  0  0  0  0
   12.1649  -17.1072   19.2601 C   0  0  0  0  0  0  0  0  0  0  0  0
   11.5014  -17.7933   20.4309 C   0  0  2  0  0  0  0  0  0  0  0  0
   10.2761  -18.4519   20.0205 N   0  0  0  0  0  0  0  0  0  0  0  0
   11.1724  -16.8460   21.5270 C   0  0  0  0  0  0  0  0  0  0  0  0
   12.0556  -16.0566   22.0066 O   0  0  0  0  0  0  0  0  0  0  0  0
    7.1267  -12.9684   17.8822 O   0  0  0  0  0  0  0  0  0  0  0  0
    7.3488  -13.5913   19.0997 C   0  0  0  0  0  0  0  0  0  0  0  0
    6.9578  -14.9078   19.2766 C   0  0  0  0  0  0  0  0  0  0  0  0
    7.1954  -15.5026   20.5105 C   0  0  0  0  0  0  0  0  0  0  0  0
    7.8011  -14.8180   21.5398 C   0  0  0  0  0  0  0  0  0  0  0  0
    8.0593  -15.4314   22.8594 C   0  0  0  0  0  0  0  0  0  0  0  0
    9.5248  -15.7427   23.1004 C   0  0  2  0  0  0  0  0  0  0  0  0
    9.8829  -16.7482   22.1107 N   0  0  0  0  0  0  0  0  0  0  0  0
    9.7903  -16.2141   24.4755 C   0  0  0  0  0  0  0  0  0  0  0  0
    9.8976  -17.4307   24.7710 O   0  0  0  0  0  0  0  0  0  0  0  0
    8.1820  -13.5098   21.3426 C   0  0  0  0  0  0  0  0  0  0  0  0
    7.9577  -12.8805   20.1126 C   0  0  0  0  0  0  0  0  0  0  0  0
   10.2164  -13.9664   30.2713 C   0  0  0  0  0  0  0  0  0  0  0  0
   10.4346  -15.1270   29.3145 C   0  0  0  0  0  0  0  0  0  0  0  0
   10.1173  -14.6435   27.9357 C   0  0  2  0  0  0  0  0  0  0  0  0
    8.6572  -14.2043   27.9187 C   0  0  0  0  0  0  0  0  0  0  0  0
   10.2458  -15.7577   26.9215 C   0  0  2  0  0  0  0  0  0  0  0  0
    9.9449  -15.2976   25.5791 N   0  0  0  0  0  0  0  0  0  0  0  0
    9.3494  -16.8463   27.3117 C   0  0  0  0  0  0  0  0  0  0  0  0
    8.1771  -16.9375   26.8732 O   0  0  0  0  0  0  0  0  0  0  0  0
    9.7876  -17.8205   28.1934 O   0  0  0  0  0  0  0  0  0  0  0  0
  1  2  1  0
  2  4  1  0
  3  2  2  0
  4  5  1  0
  5  6  1  0
  6  7  1  6
  6  8  1  0
  8  9  2  0
  8 17  1  0
 10 11  1  0
 11 12  2  0
 12 13  1  0
 14 13  2  0
 14 15  1  0
 16 18  1  0
 16 15  1  1
 17 16  1  0
 18 19  2  0
 20 14  1  0
 21 11  1  0
 21 20  2  0
 22 23  1  0
 23 24  1  0
 24 26  1  0
 24 25  1  1
 26 28  1  0
 27 18  1  0
 26 27  1  6
 28 29  2  0
 28 30  1  0
M  END
$$$$
