QYI.pdb
     RDKit          3D

 30 30  0  0  1  0  0  0  0  0999 V2000
    7.6366  -17.3435   16.3457 N   0  0  0  0  0  0  0  0  0  0  0  0
    7.5932  -18.6985   16.7667 C   0  0  0  0  0  0  0  0  0  0  0  0
    7.1610  -19.5726   15.9709 O   0  0  0  0  0  0  0  0  0  0  0  0
    8.0572  -19.0765   18.1410 C   0  0  0  0  0  0  0  0  0  0  0  0
    7.3475  -18.2287   19.1864 C   0  0  0  0  0  0  0  0  0  0  0  0
    8.1334  -18.2577   20.4761 C   0  0  2  0  0  0  0  0  0  0  0  0
    8.3077  -19.6183   20.9474 N   0  0  0  0  0  0  0  0  0  0  0  0
    7.4762  -17.4753   21.5545 C   0  0  0  0  0  0  0  0  0  0  0  0
    7.1024  -16.2684   21.3625 O   0  0  0  0  0  0  0  0  0  0  0  0
    9.4966  -21.5818   27.5682 O   0  0  0  0  0  0  0  0  0  0  0  0
    8.6128  -20.7746   26.8702 C   0  0  0  0  0  0  0  0  0  0  0  0
    8.3716  -21.0228   25.5295 C   0  0  0  0  0  0  0  0  0  0  0  0
    7.4793  -20.1938   24.8590 C   0  0  0  0  0  0  0  0  0  0  0  0
    6.8437  -19.1504   25.4933 C   0  0  0  0  0  0  0  0  0  0  0  0
    5.8947  -18.2563   24.7974 C   0  0  0  0  0  0  0  0  0  0  0  0
    6.5761  -17.2330   23.9079 C   0  0  2  0  0  0  0  0  0  0  0  0
    7.2198  -17.9965   22.8490 N   0  0  0  0  0  0  0  0  0  0  0  0
    7.5469  -16.3944   24.6413 C   0  0  0  0  0  0  0  0  0  0  0  0
    8.7885  -16.5793   24.5840 O   0  0  0  0  0  0  0  0  0  0  0  0
    7.0979  -18.9214   26.8269 C   0  0  0  0  0  0  0  0  0  0  0  0
    7.9907  -19.7368   27.5320 C   0  0  0  0  0  0  0  0  0  0  0  0
    5.7775  -11.2905   25.9639 C   0  0  0  0  0  0  0  0  0  0  0  0
    6.5664  -12.4427   25.3641 C   0  0  0  0  0  0  0  0  0  0  0  0
    7.3667  -13.0648   26.4633 C   0  0  2  0  0  0  0  0  0  0  0  0
    8.4591  -12.0785   26.8622 C   0  0  0  0  0  0  0  0  0  0  0  0
    8.0675  -14.3180   25.9888 C   0  0  2  0  0  0  0  0  0  0  0  0
    7.1268  -15.2976   25.4793 N   0  0  0  0  0  0  0  0  0  0  0  0
    8.8396  -14.8684   27.1031 C   0  0  0  0  0  0  0  0  0  0  0  0
    8.3736  -15.7434   27.8725 O   0  0  0  0  0  0  0  0  0  0  0  0
   10.1306  -14.4238   27.3361 O   0  0  0  0  0  0  0  0  0  0  0  0
  1  2  1  0
  2  4  1  0
  3  2  2  0
  4  5  1  0
  5  6  1  0
  6  7  1  1
  6  8  1  0
  8  9  2  0
  8 17  1  0
 10 11  1  0
 11 12  2  0
 12 13  1  0
 14 13  2  0
 14 15  1  0
 16 18  1  0
 16 15  1  1
 17 16  1  0
 18 19  2  0
 20 14  1  0
 21 11  1  0
 21 20  2  0
 22 23  1  0
 23 24  1  0
 24 26  1  0
 24 25  1  6
 26 28  1  0
 27 18  1  0
 26 27  1  1
 28 29  2  0
 28 30  1  0
M  END
$$$$
