QYI.pdb
     RDKit          3D

 30 30  0  0  1  0  0  0  0  0999 V2000
    8.3449  -12.3595   18.2190 N   0  0  0  0  0  0  0  0  0  0  0  0
    8.4542  -13.5685   17.4832 C   0  0  0  0  0  0  0  0  0  0  0  0
    9.4441  -13.7352   16.7241 O   0  0  0  0  0  0  0  0  0  0  0  0
    7.4018  -14.6280   17.6130 C   0  0  0  0  0  0  0  0  0  0  0  0
    6.9147  -14.7107   19.0522 C   0  0  0  0  0  0  0  0  0  0  0  0
    8.0638  -15.1033   19.9507 C   0  0  2  0  0  0  0  0  0  0  0  0
    8.8209  -16.1990   19.3766 N   0  0  0  0  0  0  0  0  0  0  0  0
    7.6068  -15.5153   21.3029 C   0  0  0  0  0  0  0  0  0  0  0  0
    6.7307  -14.8376   21.9403 O   0  0  0  0  0  0  0  0  0  0  0  0
    8.1286  -20.1028   28.9298 O   0  0  0  0  0  0  0  0  0  0  0  0
    8.1274  -19.6912   27.6068 C   0  0  0  0  0  0  0  0  0  0  0  0
    6.9250  -19.5495   26.9350 C   0  0  0  0  0  0  0  0  0  0  0  0
    6.9596  -19.1348   25.6084 C   0  0  0  0  0  0  0  0  0  0  0  0
    8.1463  -18.8680   24.9638 C   0  0  0  0  0  0  0  0  0  0  0  0
    8.2042  -18.4296   23.5536 C   0  0  0  0  0  0  0  0  0  0  0  0
    7.7699  -16.9893   23.3543 C   0  0  2  0  0  0  0  0  0  0  0  0
    8.0970  -16.6657   21.9733 N   0  0  0  0  0  0  0  0  0  0  0  0
    8.4218  -16.0598   24.3000 C   0  0  0  0  0  0  0  0  0  0  0  0
    9.6581  -15.8350   24.2930 O   0  0  0  0  0  0  0  0  0  0  0  0
    9.3305  -19.0154   25.6505 C   0  0  0  0  0  0  0  0  0  0  0  0
    9.3317  -19.4311   26.9871 C   0  0  0  0  0  0  0  0  0  0  0  0
    5.6244  -11.6456   26.1125 C   0  0  0  0  0  0  0  0  0  0  0  0
    6.6726  -12.5777   25.5274 C   0  0  0  0  0  0  0  0  0  0  0  0
    7.2862  -13.3374   26.6597 C   0  0  2  0  0  0  0  0  0  0  0  0
    8.0576  -12.3460   27.5242 C   0  0  0  0  0  0  0  0  0  0  0  0
    8.2924  -14.3490   26.1589 C   0  0  2  0  0  0  0  0  0  0  0  0
    7.6724  -15.3428   25.3031 N   0  0  0  0  0  0  0  0  0  0  0  0
    8.9293  -14.9817   27.3143 C   0  0  0  0  0  0  0  0  0  0  0  0
    9.8960  -14.4554   27.9169 O   0  0  0  0  0  0  0  0  0  0  0  0
    8.4666  -16.2027   27.7764 O   0  0  0  0  0  0  0  0  0  0  0  0
  1  2  1  0
  2  4  1  0
  3  2  2  0
  4  5  1  0
  5  6  1  0
  6  7  1  6
  6  8  1  0
  8  9  2  0
  8 17  1  0
 10 11  1  0
 11 12  2  0
 12 13  1  0
 14 13  2  0
 14 15  1  0
 16 18  1  0
 16 15  1  1
 17 16  1  0
 18 19  2  0
 20 14  1  0
 21 11  1  0
 21 20  2  0
 22 23  1  0
 23 24  1  0
 24 26  1  0
 24 25  1  1
 26 28  1  0
 27 18  1  0
 26 27  1  1
 28 29  2  0
 28 30  1  0
M  END
$$$$
