QYI.pdb
     RDKit          3D

 30 30  0  0  1  0  0  0  0  0999 V2000
    7.1859  -20.4361   17.3042 N   0  0  0  0  0  0  0  0  0  0  0  0
    8.3005  -19.5858   17.0812 C   0  0  0  0  0  0  0  0  0  0  0  0
    9.2517  -19.9987   16.3680 O   0  0  0  0  0  0  0  0  0  0  0  0
    8.3379  -18.2163   17.6895 C   0  0  0  0  0  0  0  0  0  0  0  0
    7.0816  -17.9731   18.5128 C   0  0  0  0  0  0  0  0  0  0  0  0
    7.2807  -16.7579   19.3879 C   0  0  2  0  0  0  0  0  0  0  0  0
    8.6305  -16.2426   19.2614 N   0  0  0  0  0  0  0  0  0  0  0  0
    7.0295  -17.0493   20.8228 C   0  0  0  0  0  0  0  0  0  0  0  0
    6.1816  -17.9366   21.1792 O   0  0  0  0  0  0  0  0  0  0  0  0
    8.1656  -19.8154   28.8183 O   0  0  0  0  0  0  0  0  0  0  0  0
    8.1563  -19.3971   27.4975 C   0  0  0  0  0  0  0  0  0  0  0  0
    9.3416  -19.0158   26.8917 C   0  0  0  0  0  0  0  0  0  0  0  0
    9.2968  -18.6014   25.5653 C   0  0  0  0  0  0  0  0  0  0  0  0
    8.1167  -18.5643   24.8577 C   0  0  0  0  0  0  0  0  0  0  0  0
    8.0478  -18.1238   23.4486 C   0  0  0  0  0  0  0  0  0  0  0  0
    7.5089  -16.7147   23.2856 C   0  0  2  0  0  0  0  0  0  0  0  0
    7.6963  -16.3802   21.8815 N   0  0  0  0  0  0  0  0  0  0  0  0
    8.1797  -15.7404   24.1712 C   0  0  0  0  0  0  0  0  0  0  0  0
    9.3887  -15.4224   24.0442 O   0  0  0  0  0  0  0  0  0  0  0  0
    6.9495  -18.9477   25.4793 C   0  0  0  0  0  0  0  0  0  0  0  0
    6.9590  -19.3703   26.8136 C   0  0  0  0  0  0  0  0  0  0  0  0
    5.2952  -11.4958   26.0550 C   0  0  0  0  0  0  0  0  0  0  0  0
    6.3397  -12.4158   25.4449 C   0  0  0  0  0  0  0  0  0  0  0  0
    7.0934  -13.0536   26.5678 C   0  0  2  0  0  0  0  0  0  0  0  0
    7.8804  -11.9606   27.2829 C   0  0  0  0  0  0  0  0  0  0  0  0
    8.1075  -14.0492   26.0509 C   0  0  2  0  0  0  0  0  0  0  0  0
    7.4818  -15.0845   25.2504 N   0  0  0  0  0  0  0  0  0  0  0  0
    8.8123  -14.6299   27.1940 C   0  0  0  0  0  0  0  0  0  0  0  0
    8.3989  -15.6579   27.7832 O   0  0  0  0  0  0  0  0  0  0  0  0
    9.9772  -14.0424   27.6592 O   0  0  0  0  0  0  0  0  0  0  0  0
  1  2  1  0
  2  4  1  0
  3  2  2  0
  4  5  1  0
  5  6  1  0
  6  7  1  1
  6  8  1  0
  8  9  2  0
  8 17  1  0
 10 11  1  0
 11 12  2  0
 12 13  1  0
 14 13  2  0
 14 15  1  0
 16 18  1  0
 16 15  1  6
 17 16  1  0
 18 19  2  0
 20 14  1  0
 21 11  1  0
 21 20  2  0
 22 23  1  0
 23 24  1  0
 24 26  1  0
 24 25  1  6
 26 28  1  0
 27 18  1  0
 26 27  1  1
 28 29  2  0
 28 30  1  0
M  END
$$$$
