QYI.pdb
     RDKit          3D

 30 30  0  0  1  0  0  0  0  0999 V2000
    7.5458  -12.6878   18.6165 N   0  0  0  0  0  0  0  0  0  0  0  0
    8.3900  -13.5959   17.9254 C   0  0  0  0  0  0  0  0  0  0  0  0
    9.0838  -13.1748   16.9634 O   0  0  0  0  0  0  0  0  0  0  0  0
    8.4498  -15.0350   18.3404 C   0  0  0  0  0  0  0  0  0  0  0  0
    7.5729  -15.2658   19.5623 C   0  0  0  0  0  0  0  0  0  0  0  0
    7.6088  -16.7284   19.9386 C   0  0  2  0  0  0  0  0  0  0  0  0
    6.7067  -17.5009   19.1060 N   0  0  0  0  0  0  0  0  0  0  0  0
    7.2354  -16.9545   21.3586 C   0  0  0  0  0  0  0  0  0  0  0  0
    6.0121  -16.9592   21.7284 O   0  0  0  0  0  0  0  0  0  0  0  0
    4.7783  -22.6599   22.6361 O   0  0  0  0  0  0  0  0  0  0  0  0
    5.6448  -21.6545   23.0337 C   0  0  0  0  0  0  0  0  0  0  0  0
    6.8179  -21.4434   22.3290 C   0  0  0  0  0  0  0  0  0  0  0  0
    7.6649  -20.4263   22.7547 C   0  0  0  0  0  0  0  0  0  0  0  0
    7.3630  -19.6408   23.8441 C   0  0  0  0  0  0  0  0  0  0  0  0
    8.2516  -18.5574   24.3141 C   0  0  0  0  0  0  0  0  0  0  0  0
    7.8487  -17.1864   23.8035 C   0  0  2  0  0  0  0  0  0  0  0  0
    8.1864  -17.1774   22.3877 N   0  0  0  0  0  0  0  0  0  0  0  0
    8.5177  -16.0870   24.5295 C   0  0  0  0  0  0  0  0  0  0  0  0
    9.7520  -15.8662   24.4466 O   0  0  0  0  0  0  0  0  0  0  0  0
    6.1913  -19.8678   24.5305 C   0  0  0  0  0  0  0  0  0  0  0  0
    5.3159  -20.8834   24.1288 C   0  0  0  0  0  0  0  0  0  0  0  0
    5.6314  -11.6109   26.0890 C   0  0  0  0  0  0  0  0  0  0  0  0
    6.6934  -12.5246   25.4999 C   0  0  0  0  0  0  0  0  0  0  0  0
    7.4789  -13.0980   26.6356 C   0  0  2  0  0  0  0  0  0  0  0  0
    8.3124  -11.9741   27.2419 C   0  0  0  0  0  0  0  0  0  0  0  0
    8.4543  -14.1476   26.1522 C   0  0  2  0  0  0  0  0  0  0  0  0
    7.7887  -15.1865   25.3895 N   0  0  0  0  0  0  0  0  0  0  0  0
    9.1408  -14.7135   27.3138 C   0  0  0  0  0  0  0  0  0  0  0  0
    8.6995  -15.7133   27.9304 O   0  0  0  0  0  0  0  0  0  0  0  0
   10.3192  -14.1431   27.7662 O   0  0  0  0  0  0  0  0  0  0  0  0
  1  2  1  0
  2  4  1  0
  3  2  2  0
  4  5  1  0
  5  6  1  0
  6  7  1  6
  6  8  1  0
  8  9  2  0
  8 17  1  0
 10 11  1  0
 11 12  2  0
 12 13  1  0
 14 13  2  0
 14 15  1  0
 16 18  1  0
 16 15  1  1
 17 16  1  0
 18 19  2  0
 20 14  1  0
 21 11  1  0
 21 20  2  0
 22 23  1  0
 23 24  1  0
 24 26  1  0
 24 25  1  6
 26 28  1  0
 27 18  1  0
 26 27  1  1
 28 29  2  0
 28 30  1  0
M  END
$$$$
