QYI.pdb
     RDKit          3D

 30 30  0  0  1  0  0  0  0  0999 V2000
    9.0266  -12.9989   16.3679 N   0  0  0  0  0  0  0  0  0  0  0  0
    8.9200  -14.3790   16.0531 C   0  0  0  0  0  0  0  0  0  0  0  0
    8.5443  -14.7161   14.9002 O   0  0  0  0  0  0  0  0  0  0  0  0
    9.2517  -15.4155   17.0839 C   0  0  0  0  0  0  0  0  0  0  0  0
    9.5529  -14.7505   18.4190 C   0  0  0  0  0  0  0  0  0  0  0  0
    9.9011  -15.8075   19.4405 C   0  0  2  0  0  0  0  0  0  0  0  0
    9.0136  -16.9492   19.3295 N   0  0  0  0  0  0  0  0  0  0  0  0
    9.8223  -15.2940   20.8323 C   0  0  0  0  0  0  0  0  0  0  0  0
   10.5916  -14.3569   21.2364 O   0  0  0  0  0  0  0  0  0  0  0  0
    5.7978  -11.9293   27.7331 O   0  0  0  0  0  0  0  0  0  0  0  0
    6.1370  -12.7266   26.6519 C   0  0  0  0  0  0  0  0  0  0  0  0
    5.7759  -14.0634   26.6471 C   0  0  0  0  0  0  0  0  0  0  0  0
    6.1318  -14.8352   25.5469 C   0  0  0  0  0  0  0  0  0  0  0  0
    6.8240  -14.3031   24.4826 C   0  0  0  0  0  0  0  0  0  0  0  0
    7.2143  -15.1075   23.3057 C   0  0  0  0  0  0  0  0  0  0  0  0
    8.7164  -15.1910   23.1069 C   0  0  2  0  0  0  0  0  0  0  0  0
    8.9084  -15.7935   21.7959 N   0  0  0  0  0  0  0  0  0  0  0  0
    9.3908  -15.9687   24.1671 C   0  0  0  0  0  0  0  0  0  0  0  0
    9.6936  -17.1812   24.0361 O   0  0  0  0  0  0  0  0  0  0  0  0
    7.1731  -12.9716   24.5077 C   0  0  0  0  0  0  0  0  0  0  0  0
    6.8305  -12.1660   25.5999 C   0  0  0  0  0  0  0  0  0  0  0  0
   10.2901  -13.4660   29.1624 C   0  0  0  0  0  0  0  0  0  0  0  0
   10.5447  -14.0279   27.7735 C   0  0  0  0  0  0  0  0  0  0  0  0
   10.2821  -15.4990   27.8245 C   0  0  2  0  0  0  0  0  0  0  0  0
   11.3361  -16.1310   28.7273 C   0  0  0  0  0  0  0  0  0  0  0  0
   10.4446  -16.1320   26.4608 C   0  0  2  0  0  0  0  0  0  0  0  0
    9.7487  -15.3793   25.4345 N   0  0  0  0  0  0  0  0  0  0  0  0
    9.9480  -17.5068   26.5249 C   0  0  0  0  0  0  0  0  0  0  0  0
    8.7224  -17.7754   26.5430 O   0  0  0  0  0  0  0  0  0  0  0  0
   10.8423  -18.5637   26.5679 O   0  0  0  0  0  0  0  0  0  0  0  0
  1  2  1  0
  2  4  1  0
  3  2  2  0
  4  5  1  0
  5  6  1  0
  6  7  1  1
  6  8  1  0
  8  9  2  0
  8 17  1  0
 10 11  1  0
 11 12  2  0
 12 13  1  0
 14 13  2  0
 14 15  1  0
 16 18  1  0
 16 15  1  1
 17 16  1  0
 18 19  2  0
 20 14  1  0
 21 11  1  0
 21 20  2  0
 22 23  1  0
 23 24  1  0
 24 26  1  0
 24 25  1  1
 26 28  1  0
 27 18  1  0
 26 27  1  6
 28 29  2  0
 28 30  1  0
M  END
$$$$
