QYI.pdb
     RDKit          3D

 30 30  0  0  1  0  0  0  0  0999 V2000
    6.1915  -17.5276   14.8977 N   0  0  0  0  0  0  0  0  0  0  0  0
    6.3162  -17.9012   16.2615 C   0  0  0  0  0  0  0  0  0  0  0  0
    5.4054  -18.5877   16.7933 O   0  0  0  0  0  0  0  0  0  0  0  0
    7.5186  -17.4806   17.0517 C   0  0  0  0  0  0  0  0  0  0  0  0
    7.3854  -17.9415   18.4956 C   0  0  0  0  0  0  0  0  0  0  0  0
    8.0699  -16.9491   19.4059 C   0  0  2  0  0  0  0  0  0  0  0  0
    9.5053  -17.1567   19.4145 N   0  0  0  0  0  0  0  0  0  0  0  0
    7.5813  -17.0383   20.8060 C   0  0  0  0  0  0  0  0  0  0  0  0
    6.3705  -16.7578   21.1035 O   0  0  0  0  0  0  0  0  0  0  0  0
    7.7183  -19.2795   29.3849 O   0  0  0  0  0  0  0  0  0  0  0  0
    7.8725  -19.1680   28.0125 C   0  0  0  0  0  0  0  0  0  0  0  0
    9.1230  -18.8955   27.4840 C   0  0  0  0  0  0  0  0  0  0  0  0
    9.2428  -18.7902   26.1028 C   0  0  0  0  0  0  0  0  0  0  0  0
    8.1599  -18.9491   25.2679 C   0  0  0  0  0  0  0  0  0  0  0  0
    8.2660  -18.8377   23.7980 C   0  0  0  0  0  0  0  0  0  0  0  0
    7.9492  -17.4482   23.2767 C   0  0  2  0  0  0  0  0  0  0  0  0
    8.4028  -17.4324   21.8937 N   0  0  0  0  0  0  0  0  0  0  0  0
    8.5897  -16.3799   24.0716 C   0  0  0  0  0  0  0  0  0  0  0  0
    9.7933  -16.0494   23.9262 O   0  0  0  0  0  0  0  0  0  0  0  0
    6.9255  -19.2196   25.8144 C   0  0  0  0  0  0  0  0  0  0  0  0
    6.7697  -19.3322   27.2008 C   0  0  0  0  0  0  0  0  0  0  0  0
    5.9037  -11.7867   25.0923 C   0  0  0  0  0  0  0  0  0  0  0  0
    6.9927  -12.7906   24.7515 C   0  0  0  0  0  0  0  0  0  0  0  0
    7.4448  -13.4204   26.0300 C   0  0  2  0  0  0  0  0  0  0  0  0
    8.1555  -12.3508   26.8523 C   0  0  0  0  0  0  0  0  0  0  0  0
    8.4579  -14.5134   25.7738 C   0  0  2  0  0  0  0  0  0  0  0  0
    7.8662  -15.6395   25.0768 N   0  0  0  0  0  0  0  0  0  0  0  0
    9.0221  -14.9336   27.0568 C   0  0  0  0  0  0  0  0  0  0  0  0
    8.4837  -15.8167   27.7674 O   0  0  0  0  0  0  0  0  0  0  0  0
   10.1890  -14.3510   27.5230 O   0  0  0  0  0  0  0  0  0  0  0  0
  1  2  1  0
  2  4  1  0
  3  2  2  0
  4  5  1  0
  5  6  1  0
  6  7  1  1
  6  8  1  0
  8  9  2  0
  8 17  1  0
 10 11  1  0
 11 12  2  0
 12 13  1  0
 14 13  2  0
 14 15  1  0
 16 18  1  0
 16 15  1  1
 17 16  1  0
 18 19  2  0
 20 14  1  0
 21 11  1  0
 21 20  2  0
 22 23  1  0
 23 24  1  0
 24 26  1  0
 24 25  1  1
 26 28  1  0
 27 18  1  0
 26 27  1  1
 28 29  2  0
 28 30  1  0
M  END
$$$$
