QYI.pdb
     RDKit          3D

 30 30  0  0  1  0  0  0  0  0999 V2000
   10.4202  -14.0303   17.3865 N   0  0  0  0  0  0  0  0  0  0  0  0
    9.9588  -13.2620   18.4873 C   0  0  0  0  0  0  0  0  0  0  0  0
   10.7696  -12.9500   19.3980 O   0  0  0  0  0  0  0  0  0  0  0  0
    8.5247  -12.8315   18.5582 C   0  0  0  0  0  0  0  0  0  0  0  0
    7.9104  -13.2677   19.8802 C   0  0  0  0  0  0  0  0  0  0  0  0
    7.6324  -14.7519   19.8405 C   0  0  2  0  0  0  0  0  0  0  0  0
    6.5415  -15.0518   18.9329 N   0  0  0  0  0  0  0  0  0  0  0  0
    7.2839  -15.2961   21.1782 C   0  0  0  0  0  0  0  0  0  0  0  0
    6.2060  -14.9519   21.7723 O   0  0  0  0  0  0  0  0  0  0  0  0
    8.2414  -20.3056   28.4786 O   0  0  0  0  0  0  0  0  0  0  0  0
    8.2401  -19.7681   27.2015 C   0  0  0  0  0  0  0  0  0  0  0  0
    7.0608  -19.7272   26.4771 C   0  0  0  0  0  0  0  0  0  0  0  0
    7.0946  -19.1813   25.1989 C   0  0  0  0  0  0  0  0  0  0  0  0
    8.2584  -18.6903   24.6517 C   0  0  0  0  0  0  0  0  0  0  0  0
    8.3156  -18.1094   23.2939 C   0  0  0  0  0  0  0  0  0  0  0  0
    7.8138  -16.6787   23.2313 C   0  0  2  0  0  0  0  0  0  0  0  0
    8.1022  -16.2178   21.8811 N   0  0  0  0  0  0  0  0  0  0  0  0
    8.4395  -15.8086   24.2485 C   0  0  0  0  0  0  0  0  0  0  0  0
    9.6278  -15.4082   24.1663 O   0  0  0  0  0  0  0  0  0  0  0  0
    9.4198  -18.7407   25.3894 C   0  0  0  0  0  0  0  0  0  0  0  0
    9.4211  -19.2837   26.6795 C   0  0  0  0  0  0  0  0  0  0  0  0
    5.9246  -11.5217   26.3025 C   0  0  0  0  0  0  0  0  0  0  0  0
    6.9514  -12.4989   25.7542 C   0  0  0  0  0  0  0  0  0  0  0  0
    7.3405  -13.4192   26.8665 C   0  0  2  0  0  0  0  0  0  0  0  0
    8.0658  -12.5940   27.9239 C   0  0  0  0  0  0  0  0  0  0  0  0
    8.3188  -14.4698   26.3913 C   0  0  2  0  0  0  0  0  0  0  0  0
    7.7185  -15.3580   25.4142 N   0  0  0  0  0  0  0  0  0  0  0  0
    8.7951  -15.2202   27.5535 C   0  0  0  0  0  0  0  0  0  0  0  0
    8.1798  -16.2164   28.0048 O   0  0  0  0  0  0  0  0  0  0  0  0
    9.9622  -14.8367   28.1934 O   0  0  0  0  0  0  0  0  0  0  0  0
  1  2  1  0
  2  4  1  0
  3  2  2  0
  4  5  1  0
  5  6  1  0
  6  7  1  6
  6  8  1  0
  8  9  2  0
  8 17  1  0
 10 11  1  0
 11 12  2  0
 12 13  1  0
 14 13  2  0
 14 15  1  0
 16 18  1  0
 16 15  1  6
 17 16  1  0
 18 19  2  0
 20 14  1  0
 21 11  1  0
 21 20  2  0
 22 23  1  0
 23 24  1  0
 24 26  1  0
 24 25  1  1
 26 28  1  0
 27 18  1  0
 26 27  1  6
 28 29  2  0
 28 30  1  0
M  END
$$$$
