QYI.pdb
     RDKit          3D

 30 30  0  0  1  0  0  0  0  0999 V2000
    9.9489  -14.2171   18.7895 N   0  0  0  0  0  0  0  0  0  0  0  0
    8.9306  -13.7599   17.9125 C   0  0  0  0  0  0  0  0  0  0  0  0
    9.2272  -13.4871   16.7203 O   0  0  0  0  0  0  0  0  0  0  0  0
    7.5235  -13.6062   18.4059 C   0  0  0  0  0  0  0  0  0  0  0  0
    7.4333  -14.0115   19.8698 C   0  0  0  0  0  0  0  0  0  0  0  0
    7.3921  -15.5180   19.9733 C   0  0  2  0  0  0  0  0  0  0  0  0
    6.3517  -16.0684   19.1258 N   0  0  0  0  0  0  0  0  0  0  0  0
    7.1492  -15.9811   21.3638 C   0  0  0  0  0  0  0  0  0  0  0  0
    6.0016  -15.8556   21.9120 O   0  0  0  0  0  0  0  0  0  0  0  0
    8.4793  -19.9707   29.1418 O   0  0  0  0  0  0  0  0  0  0  0  0
    8.5295  -19.5490   27.8230 C   0  0  0  0  0  0  0  0  0  0  0  0
    9.7354  -19.1372   27.2812 C   0  0  0  0  0  0  0  0  0  0  0  0
    9.7505  -18.7201   25.9550 C   0  0  0  0  0  0  0  0  0  0  0  0
    8.6087  -18.7097   25.1861 C   0  0  0  0  0  0  0  0  0  0  0  0
    8.6035  -18.2670   23.7761 C   0  0  0  0  0  0  0  0  0  0  0  0
    7.9589  -16.9079   23.5758 C   0  0  2  0  0  0  0  0  0  0  0  0
    8.1495  -16.5838   22.1697 N   0  0  0  0  0  0  0  0  0  0  0  0
    8.5315  -15.8685   24.4563 C   0  0  0  0  0  0  0  0  0  0  0  0
    9.6948  -15.4162   24.3109 O   0  0  0  0  0  0  0  0  0  0  0  0
    7.4202  -19.1233   25.7446 C   0  0  0  0  0  0  0  0  0  0  0  0
    7.3695  -19.5494   27.0769 C   0  0  0  0  0  0  0  0  0  0  0  0
    5.3978  -11.8921   26.5898 C   0  0  0  0  0  0  0  0  0  0  0  0
    6.5348  -12.6533   25.9282 C   0  0  0  0  0  0  0  0  0  0  0  0
    7.2715  -13.3901   27.0007 C   0  0  2  0  0  0  0  0  0  0  0  0
    7.9841  -12.3601   27.8705 C   0  0  0  0  0  0  0  0  0  0  0  0
    8.3453  -14.2795   26.4156 C   0  0  2  0  0  0  0  0  0  0  0  0
    7.7835  -15.3001   25.5513 N   0  0  0  0  0  0  0  0  0  0  0  0
    9.0968  -14.8850   27.5154 C   0  0  0  0  0  0  0  0  0  0  0  0
    9.9846  -14.2590   28.1436 O   0  0  0  0  0  0  0  0  0  0  0  0
    8.8368  -16.1919   27.8935 O   0  0  0  0  0  0  0  0  0  0  0  0
  1  2  1  0
  2  4  1  0
  3  2  2  0
  4  5  1  0
  5  6  1  0
  6  7  1  6
  6  8  1  0
  8  9  2  0
  8 17  1  0
 10 11  1  0
 11 12  2  0
 12 13  1  0
 14 13  2  0
 14 15  1  0
 16 18  1  0
 16 15  1  1
 17 16  1  0
 18 19  2  0
 20 14  1  0
 21 11  1  0
 21 20  2  0
 22 23  1  0
 23 24  1  0
 24 26  1  0
 24 25  1  1
 26 28  1  0
 27 18  1  0
 26 27  1  1
 28 29  2  0
 28 30  1  0
M  END
$$$$
