QYI.pdb
     RDKit          3D

 30 30  0  0  1  0  0  0  0  0999 V2000
   15.4851  -14.0150   18.2289 N   0  0  0  0  0  0  0  0  0  0  0  0
   14.4391  -14.6188   17.4830 C   0  0  0  0  0  0  0  0  0  0  0  0
   14.6567  -14.9621   16.2919 O   0  0  0  0  0  0  0  0  0  0  0  0
   13.0964  -14.8414   18.1111 C   0  0  0  0  0  0  0  0  0  0  0  0
   13.0923  -14.3195   19.5403 C   0  0  0  0  0  0  0  0  0  0  0  0
   12.3685  -15.3005   20.4323 C   0  0  2  0  0  0  0  0  0  0  0  0
   11.8538  -16.4182   19.6646 N   0  0  0  0  0  0  0  0  0  0  0  0
   11.2321  -14.6733   21.1548 C   0  0  0  0  0  0  0  0  0  0  0  0
   11.4010  -13.6336   21.8785 O   0  0  0  0  0  0  0  0  0  0  0  0
    7.6308  -13.2620   15.6144 O   0  0  0  0  0  0  0  0  0  0  0  0
    7.6119  -13.6978   16.9295 C   0  0  0  0  0  0  0  0  0  0  0  0
    7.6739  -15.0539   17.2023 C   0  0  0  0  0  0  0  0  0  0  0  0
    7.6527  -15.4570   18.5327 C   0  0  0  0  0  0  0  0  0  0  0  0
    7.5727  -14.5483   19.5636 C   0  0  0  0  0  0  0  0  0  0  0  0
    7.5457  -14.9569   20.9836 C   0  0  0  0  0  0  0  0  0  0  0  0
    8.7778  -14.5243   21.7565 C   0  0  2  0  0  0  0  0  0  0  0  0
    9.9040  -15.1693   21.0974 N   0  0  0  0  0  0  0  0  0  0  0  0
    8.7085  -14.8811   23.1887 C   0  0  0  0  0  0  0  0  0  0  0  0
    9.3981  -15.8004   23.6971 O   0  0  0  0  0  0  0  0  0  0  0  0
    7.5121  -13.2045   19.2700 C   0  0  0  0  0  0  0  0  0  0  0  0
    7.5313  -12.7643   17.9415 C   0  0  0  0  0  0  0  0  0  0  0  0
    7.3557  -11.6496   28.1937 C   0  0  0  0  0  0  0  0  0  0  0  0
    7.5884  -13.0670   27.6970 C   0  0  0  0  0  0  0  0  0  0  0  0
    7.3041  -13.0855   26.2292 C   0  0  2  0  0  0  0  0  0  0  0  0
    5.8232  -13.3981   26.0438 C   0  0  0  0  0  0  0  0  0  0  0  0
    8.0696  -14.1906   25.5369 C   0  0  2  0  0  0  0  0  0  0  0  0
    7.8350  -14.1893   24.1054 N   0  0  0  0  0  0  0  0  0  0  0  0
    7.6748  -15.4695   26.1278 C   0  0  0  0  0  0  0  0  0  0  0  0
    8.0177  -15.8052   27.2873 O   0  0  0  0  0  0  0  0  0  0  0  0
    6.8965  -16.3558   25.4017 O   0  0  0  0  0  0  0  0  0  0  0  0
  1  2  1  0
  2  4  1  0
  3  2  2  0
  4  5  1  0
  5  6  1  0
  6  7  1  6
  6  8  1  0
  8  9  2  0
  8 17  1  0
 10 11  1  0
 11 12  2  0
 12 13  1  0
 14 13  2  0
 14 15  1  0
 16 18  1  0
 16 15  1  6
 17 16  1  0
 18 19  2  0
 20 14  1  0
 21 11  1  0
 21 20  2  0
 22 23  1  0
 23 24  1  0
 24 26  1  0
 24 25  1  1
 26 28  1  0
 27 18  1  0
 26 27  1  6
 28 29  2  0
 28 30  1  0
M  END
$$$$
