YNE.pdb
     RDKit          3D

 30 30  0  0  1  0  0  0  0  0999 V2000
   22.7132  -15.0499  -21.8757 O   0  0  0  0  0  0  0  0  0  0  0  0
   22.2297  -13.9425  -21.1935 C   0  0  0  0  0  0  0  0  0  0  0  0
   21.0823  -13.2804  -21.5695 C   0  0  0  0  0  0  0  0  0  0  0  0
   20.6120  -12.1736  -20.8755 C   0  0  0  0  0  0  0  0  0  0  0  0
   21.2801  -11.6876  -19.7721 C   0  0  0  0  0  0  0  0  0  0  0  0
   20.7956  -10.5102  -19.0162 C   0  0  0  0  0  0  0  0  0  0  0  0
   20.5017  -10.8498  -17.5480 C   0  0  2  0  0  0  0  0  0  0  0  0
   19.3133  -11.7165  -17.5055 N   0  0  0  0  0  0  0  0  0  0  0  0
   20.0719   -9.5568  -16.9443 C   0  0  0  0  0  0  0  0  0  0  0  0
   18.9450   -9.1313  -17.2562 O   0  0  0  0  0  0  0  0  0  0  0  0
   22.4331  -12.3533  -19.3946 C   0  0  0  0  0  0  0  0  0  0  0  0
   22.8993  -13.4577  -20.0897 C   0  0  0  0  0  0  0  0  0  0  0  0
   18.7673   -9.0172  -13.7784 N   0  0  0  0  0  0  0  0  0  0  0  0
   19.8192   -8.3240  -13.1472 C   0  0  0  0  0  0  0  0  0  0  0  0
   19.8667   -8.4292  -11.8799 O   0  0  0  0  0  0  0  0  0  0  0  0
   20.7756   -7.5430  -13.9444 C   0  0  0  0  0  0  0  0  0  0  0  0
   20.4749   -7.5747  -15.4222 C   0  0  2  0  0  0  0  0  0  0  0  0
   20.8796   -8.8073  -16.0464 N   0  0  0  0  0  0  0  0  0  0  0  0
   21.0434   -6.3788  -16.0816 C   0  0  0  0  0  0  0  0  0  0  0  0
   22.2392   -6.2644  -16.4344 O   0  0  0  0  0  0  0  0  0  0  0  0
   20.1797   -5.2837  -16.3336 N   0  0  0  0  0  0  0  0  0  0  0  0
   20.6258   -4.0896  -17.0401 C   0  0  1  0  0  0  0  0  0  0  0  0
   19.4057   -3.2479  -17.3302 C   0  0  0  0  0  0  0  0  0  0  0  0
   18.5888   -4.0026  -18.3822 C   0  0  0  0  0  0  0  0  0  0  0  0
   17.3848   -3.1843  -18.6877 C   0  0  0  0  0  0  0  0  0  0  0  0
   16.3059   -3.3414  -18.0634 O   0  0  0  0  0  0  0  0  0  0  0  0
   21.4697   -3.3181  -16.0952 C   0  0  0  0  0  0  0  0  0  0  0  0
   21.5556   -3.6900  -14.9016 O   0  0  0  0  0  0  0  0  0  0  0  0
   17.4172   -2.2150  -19.6791 O   0  0  0  0  0  0  0  0  0  0  0  0
   22.1705   -2.1950  -16.4857 O   0  0  0  0  0  0  0  0  0  0  0  0
  2  1  1  0
  3  2  2  0
  4  3  1  0
  5  4  2  0
  5 11  1  0
  6  5  1  0
  7  6  1  0
  7  8  1  6
  9  7  1  0
  9 18  1  0
 10  9  2  0
 11 12  2  0
 12  2  1  0
 13 14  1  0
 14 15  2  0
 16 14  1  0
 17 16  1  1
 17 18  1  0
 19 17  1  0
 20 19  2  0
 21 19  1  0
 22 21  1  0
 22 27  1  0
 22 23  1  1
 24 23  1  0
 25 24  1  0
 26 25  2  0
 27 28  2  0
 27 30  1  0
 29 25  1  0
M  END
$$$$
