YNE.pdb
     RDKit          3D

 30 30  0  0  1  0  0  0  0  0999 V2000
   28.2123  -15.9300  -20.0130 O   0  0  0  0  0  0  0  0  0  0  0  0
   27.1260  -16.4487  -19.3228 C   0  0  0  0  0  0  0  0  0  0  0  0
   26.5432  -15.7994  -18.2575 C   0  0  0  0  0  0  0  0  0  0  0  0
   25.4562  -16.3325  -17.5777 C   0  0  0  0  0  0  0  0  0  0  0  0
   24.9109  -17.5442  -17.9444 C   0  0  0  0  0  0  0  0  0  0  0  0
   23.7510  -18.1304  -17.2348 C   0  0  0  0  0  0  0  0  0  0  0  0
   24.1689  -18.8480  -15.9433 C   0  0  2  0  0  0  0  0  0  0  0  0
   24.8951  -20.0733  -16.3124 N   0  0  0  0  0  0  0  0  0  0  0  0
   22.8867  -19.3121  -15.3423 C   0  0  0  0  0  0  0  0  0  0  0  0
   22.4719  -20.4339  -15.6855 O   0  0  0  0  0  0  0  0  0  0  0  0
   25.4969  -18.1964  -19.0150 C   0  0  0  0  0  0  0  0  0  0  0  0
   26.5817  -17.6612  -19.6910 C   0  0  0  0  0  0  0  0  0  0  0  0
   18.7661  -20.0125  -12.3776 N   0  0  0  0  0  0  0  0  0  0  0  0
   19.5652  -19.0550  -11.7219 C   0  0  0  0  0  0  0  0  0  0  0  0
   19.2078  -18.7564  -10.5376 O   0  0  0  0  0  0  0  0  0  0  0  0
   20.7272  -18.4673  -12.4035 C   0  0  0  0  0  0  0  0  0  0  0  0
   20.8963  -18.9674  -13.8165 C   0  0  2  0  0  0  0  0  0  0  0  0
   22.1356  -18.5421  -14.4131 N   0  0  0  0  0  0  0  0  0  0  0  0
   19.7117  -18.6093  -14.6268 C   0  0  0  0  0  0  0  0  0  0  0  0
   19.5468  -17.5047  -15.1925 O   0  0  0  0  0  0  0  0  0  0  0  0
   18.6894  -19.5796  -14.7765 N   0  0  0  0  0  0  0  0  0  0  0  0
   17.4936  -19.3312  -15.5716 C   0  0  1  0  0  0  0  0  0  0  0  0
   16.9319  -20.6716  -15.9829 C   0  0  0  0  0  0  0  0  0  0  0  0
   15.7818  -20.3892  -16.9530 C   0  0  0  0  0  0  0  0  0  0  0  0
   14.6521  -21.2831  -16.5825 C   0  0  0  0  0  0  0  0  0  0  0  0
   14.7141  -22.0438  -15.5845 O   0  0  0  0  0  0  0  0  0  0  0  0
   16.4978  -18.7022  -14.6699 C   0  0  0  0  0  0  0  0  0  0  0  0
   16.5887  -18.8798  -13.4327 O   0  0  0  0  0  0  0  0  0  0  0  0
   13.4864  -21.3038  -17.3336 O   0  0  0  0  0  0  0  0  0  0  0  0
   15.4648  -17.9214  -15.1476 O   0  0  0  0  0  0  0  0  0  0  0  0
  2  1  1  0
  3  2  2  0
  4  3  1  0
  5  4  2  0
  5 11  1  0
  6  5  1  0
  7  6  1  0
  7  8  1  6
  9  7  1  0
  9 18  1  0
 10  9  2  0
 11 12  2  0
 12  2  1  0
 13 14  1  0
 14 15  2  0
 16 14  1  0
 17 16  1  1
 17 18  1  0
 19 17  1  0
 20 19  2  0
 21 19  1  0
 22 21  1  0
 22 27  1  0
 22 23  1  1
 24 23  1  0
 25 24  1  0
 26 25  2  0
 27 28  2  0
 27 30  1  0
 29 25  1  0
M  END
$$$$
