YNE.pdb
     RDKit          3D

 30 30  0  0  1  0  0  0  0  0999 V2000
   17.6212  -16.0032  -17.4768 O   0  0  0  0  0  0  0  0  0  0  0  0
   18.2130  -14.8037  -17.1073 C   0  0  0  0  0  0  0  0  0  0  0  0
   19.0163  -14.0779  -17.9584 C   0  0  0  0  0  0  0  0  0  0  0  0
   19.6008  -12.8790  -17.5727 C   0  0  0  0  0  0  0  0  0  0  0  0
   19.3994  -12.3613  -16.3111 C   0  0  0  0  0  0  0  0  0  0  0  0
   20.0112  -11.0839  -15.8795 C   0  0  0  0  0  0  0  0  0  0  0  0
   21.4857  -10.9825  -16.2956 C   0  0  2  0  0  0  0  0  0  0  0  0
   22.2194  -12.0896  -15.6623 N   0  0  0  0  0  0  0  0  0  0  0  0
   21.9784   -9.7454  -15.6263 C   0  0  0  0  0  0  0  0  0  0  0  0
   23.0040   -9.8470  -14.9291 O   0  0  0  0  0  0  0  0  0  0  0  0
   18.5920  -13.0910  -15.4563 C   0  0  0  0  0  0  0  0  0  0  0  0
   18.0104  -14.2872  -15.8448 C   0  0  0  0  0  0  0  0  0  0  0  0
   23.4120   -4.8180  -15.5169 N   0  0  0  0  0  0  0  0  0  0  0  0
   23.9534   -5.8404  -16.3213 C   0  0  0  0  0  0  0  0  0  0  0  0
   25.0796   -5.5837  -16.8553 O   0  0  0  0  0  0  0  0  0  0  0  0
   23.2264   -7.1049  -16.5016 C   0  0  0  0  0  0  0  0  0  0  0  0
   22.0070   -7.2141  -15.6204 C   0  0  2  0  0  0  0  0  0  0  0  0
   21.3382   -8.4825  -15.7501 N   0  0  0  0  0  0  0  0  0  0  0  0
   21.1096   -6.0610  -15.8505 C   0  0  0  0  0  0  0  0  0  0  0  0
   21.4514   -4.8621  -15.7355 O   0  0  0  0  0  0  0  0  0  0  0  0
   19.7690   -6.3254  -16.2271 N   0  0  0  0  0  0  0  0  0  0  0  0
   18.7763   -5.2667  -16.3586 C   0  0  1  0  0  0  0  0  0  0  0  0
   17.7220   -5.4950  -15.3014 C   0  0  0  0  0  0  0  0  0  0  0  0
   17.2100   -6.9253  -15.4904 C   0  0  0  0  0  0  0  0  0  0  0  0
   16.0711   -7.1219  -14.5540 C   0  0  0  0  0  0  0  0  0  0  0  0
   15.0353   -6.4137  -14.6188 O   0  0  0  0  0  0  0  0  0  0  0  0
   19.4567   -3.9919  -16.0237 C   0  0  0  0  0  0  0  0  0  0  0  0
   20.6787   -4.0006  -15.7460 O   0  0  0  0  0  0  0  0  0  0  0  0
   16.1184   -8.1012  -13.5732 O   0  0  0  0  0  0  0  0  0  0  0  0
   18.7875   -2.7849  -16.0064 O   0  0  0  0  0  0  0  0  0  0  0  0
  2  1  1  0
  3  2  2  0
  4  3  1  0
  5  4  2  0
  5 11  1  0
  6  5  1  0
  7  6  1  0
  7  8  1  1
  9  7  1  0
  9 18  1  0
 10  9  2  0
 11 12  2  0
 12  2  1  0
 13 14  1  0
 14 15  2  0
 16 14  1  0
 17 16  1  6
 17 18  1  0
 19 17  1  0
 20 19  2  0
 21 19  1  0
 22 21  1  0
 22 27  1  0
 22 23  1  1
 24 23  1  0
 25 24  1  0
 26 25  2  0
 27 28  2  0
 27 30  1  0
 29 25  1  0
M  END
$$$$
