YNE.pdb
     RDKit          3D

 30 30  0  0  1  0  0  0  0  0999 V2000
   24.3675  -15.3561  -23.2691 O   0  0  0  0  0  0  0  0  0  0  0  0
   23.7093  -15.8328  -22.1443 C   0  0  0  0  0  0  0  0  0  0  0  0
   22.8657  -15.0493  -21.3888 C   0  0  0  0  0  0  0  0  0  0  0  0
   22.2146  -15.5422  -20.2659 C   0  0  0  0  0  0  0  0  0  0  0  0
   22.3872  -16.8475  -19.8575 C   0  0  0  0  0  0  0  0  0  0  0  0
   21.7015  -17.3944  -18.6646 C   0  0  0  0  0  0  0  0  0  0  0  0
   22.4510  -17.0609  -17.3666 C   0  0  2  0  0  0  0  0  0  0  0  0
   23.6726  -17.8795  -17.3177 N   0  0  0  0  0  0  0  0  0  0  0  0
   21.5750  -17.5898  -16.2832 C   0  0  0  0  0  0  0  0  0  0  0  0
   21.7768  -18.7595  -15.9099 O   0  0  0  0  0  0  0  0  0  0  0  0
   23.2350  -17.6344  -20.6172 C   0  0  0  0  0  0  0  0  0  0  0  0
   23.8831  -17.1389  -21.7372 C   0  0  0  0  0  0  0  0  0  0  0  0
   17.1673  -16.4165  -12.3224 N   0  0  0  0  0  0  0  0  0  0  0  0
   18.5169  -16.7771  -12.5064 C   0  0  0  0  0  0  0  0  0  0  0  0
   19.0012  -17.5654  -11.6325 O   0  0  0  0  0  0  0  0  0  0  0  0
   19.2754  -16.2508  -13.6500 C   0  0  0  0  0  0  0  0  0  0  0  0
   19.6705  -17.3205  -14.6373 C   0  0  2  0  0  0  0  0  0  0  0  0
   20.5417  -16.8284  -15.6725 N   0  0  0  0  0  0  0  0  0  0  0  0
   18.4641  -17.9923  -15.1677 C   0  0  0  0  0  0  0  0  0  0  0  0
   17.9104  -17.7031  -16.2527 O   0  0  0  0  0  0  0  0  0  0  0  0
   17.8910  -19.0360  -14.3989 N   0  0  0  0  0  0  0  0  0  0  0  0
   16.7833  -19.8449  -14.8915 C   0  0  1  0  0  0  0  0  0  0  0  0
   17.3348  -21.2043  -15.2510 C   0  0  0  0  0  0  0  0  0  0  0  0
   16.2156  -21.9575  -15.9746 C   0  0  0  0  0  0  0  0  0  0  0  0
   16.7572  -23.2806  -16.3849 C   0  0  0  0  0  0  0  0  0  0  0  0
   17.8764  -23.6873  -15.9843 O   0  0  0  0  0  0  0  0  0  0  0  0
   15.8524  -20.0421  -13.7536 C   0  0  0  0  0  0  0  0  0  0  0  0
   16.2829  -19.9408  -12.5811 O   0  0  0  0  0  0  0  0  0  0  0  0
   16.0369  -24.1125  -17.2291 O   0  0  0  0  0  0  0  0  0  0  0  0
   14.5168  -20.3359  -13.9402 O   0  0  0  0  0  0  0  0  0  0  0  0
  2  1  1  0
  3  2  2  0
  4  3  1  0
  5  4  2  0
  5 11  1  0
  6  5  1  0
  7  6  1  0
  7  8  1  6
  9  7  1  0
  9 18  1  0
 10  9  2  0
 11 12  2  0
 12  2  1  0
 13 14  1  0
 14 15  2  0
 16 14  1  0
 17 16  1  1
 17 18  1  0
 19 17  1  0
 20 19  2  0
 21 19  1  0
 22 21  1  0
 22 27  1  0
 22 23  1  1
 24 23  1  0
 25 24  1  0
 26 25  2  0
 27 28  2  0
 27 30  1  0
 29 25  1  0
M  END
$$$$
