YNE.pdb
     RDKit          3D

 30 30  0  0  1  0  0  0  0  0999 V2000
   32.7105  -26.4856  -19.4555 O   0  0  0  0  0  0  0  0  0  0  0  0
   31.7732  -25.9589  -18.5782 C   0  0  0  0  0  0  0  0  0  0  0  0
   32.0985  -25.5361  -17.3087 C   0  0  0  0  0  0  0  0  0  0  0  0
   31.1481  -25.0111  -16.4433 C   0  0  0  0  0  0  0  0  0  0  0  0
   29.8283  -24.8907  -16.8224 C   0  0  0  0  0  0  0  0  0  0  0  0
   28.7988  -24.3322  -15.9165 C   0  0  0  0  0  0  0  0  0  0  0  0
   28.1022  -23.1058  -16.5235 C   0  0  2  0  0  0  0  0  0  0  0  0
   29.0325  -21.9679  -16.4553 N   0  0  0  0  0  0  0  0  0  0  0  0
   27.0095  -22.7835  -15.5627 C   0  0  0  0  0  0  0  0  0  0  0  0
   27.3441  -22.3285  -14.4540 O   0  0  0  0  0  0  0  0  0  0  0  0
   29.5019  -25.3157  -18.0983 C   0  0  0  0  0  0  0  0  0  0  0  0
   30.4532  -25.8391  -18.9592 C   0  0  0  0  0  0  0  0  0  0  0  0
   22.6876  -21.7872  -13.0891 N   0  0  0  0  0  0  0  0  0  0  0  0
   23.5508  -20.7986  -13.6019 C   0  0  0  0  0  0  0  0  0  0  0  0
   23.4012  -19.6312  -13.1180 O   0  0  0  0  0  0  0  0  0  0  0  0
   24.5442  -21.1425  -14.6291 C   0  0  0  0  0  0  0  0  0  0  0  0
   24.5543  -22.6118  -14.9702 C   0  0  2  0  0  0  0  0  0  0  0  0
   25.6312  -22.9703  -15.8559 N   0  0  0  0  0  0  0  0  0  0  0  0
   23.2272  -23.0243  -15.4770 C   0  0  0  0  0  0  0  0  0  0  0  0
   22.6618  -24.1034  -15.1882 O   0  0  0  0  0  0  0  0  0  0  0  0
   22.5441  -22.1414  -16.3502 N   0  0  0  0  0  0  0  0  0  0  0  0
   21.2138  -22.4360  -16.8675 C   0  0  1  0  0  0  0  0  0  0  0  0
   20.6907  -21.1804  -17.5242 C   0  0  0  0  0  0  0  0  0  0  0  0
   19.2939  -21.5102  -18.0571 C   0  0  0  0  0  0  0  0  0  0  0  0
   18.7696  -20.2904  -18.7276 C   0  0  0  0  0  0  0  0  0  0  0  0
   19.3129  -19.8201  -19.7582 O   0  0  0  0  0  0  0  0  0  0  0  0
   21.3810  -23.4480  -17.9390 C   0  0  0  0  0  0  0  0  0  0  0  0
   22.2839  -23.2957  -18.7945 O   0  0  0  0  0  0  0  0  0  0  0  0
   17.6558  -19.6298  -18.2313 O   0  0  0  0  0  0  0  0  0  0  0  0
   20.5709  -24.5619  -18.0296 O   0  0  0  0  0  0  0  0  0  0  0  0
  2  1  1  0
  3  2  2  0
  4  3  1  0
  5  4  2  0
  5 11  1  0
  6  5  1  0
  7  6  1  0
  7  8  1  1
  9  7  1  0
  9 18  1  0
 10  9  2  0
 11 12  2  0
 12  2  1  0
 13 14  1  0
 14 15  2  0
 16 14  1  0
 17 16  1  6
 17 18  1  0
 19 17  1  0
 20 19  2  0
 21 19  1  0
 22 21  1  0
 22 27  1  0
 22 23  1  6
 24 23  1  0
 25 24  1  0
 26 25  2  0
 27 28  2  0
 27 30  1  0
 29 25  1  0
M  END
$$$$
