YNE.pdb
     RDKit          3D

 30 30  0  0  1  0  0  0  0  0999 V2000
   27.0319  -15.9751  -18.7537 O   0  0  0  0  0  0  0  0  0  0  0  0
   27.2046  -16.8083  -17.6576 C   0  0  0  0  0  0  0  0  0  0  0  0
   26.2243  -17.0034  -16.7104 C   0  0  0  0  0  0  0  0  0  0  0  0
   26.4136  -17.8409  -15.6192 C   0  0  0  0  0  0  0  0  0  0  0  0
   27.6008  -18.5174  -15.4376 C   0  0  0  0  0  0  0  0  0  0  0  0
   27.8235  -19.4167  -14.2826 C   0  0  0  0  0  0  0  0  0  0  0  0
   27.5836  -20.8894  -14.6451 C   0  0  2  0  0  0  0  0  0  0  0  0
   27.6779  -21.0242  -16.1073 N   0  0  0  0  0  0  0  0  0  0  0  0
   26.1496  -21.1262  -14.3162 C   0  0  0  0  0  0  0  0  0  0  0  0
   25.3457  -21.1507  -15.2656 O   0  0  0  0  0  0  0  0  0  0  0  0
   28.5856  -18.3210  -16.3897 C   0  0  0  0  0  0  0  0  0  0  0  0
   28.3930  -17.4843  -17.4774 C   0  0  0  0  0  0  0  0  0  0  0  0
   25.7973  -20.9456   -9.7495 N   0  0  0  0  0  0  0  0  0  0  0  0
   24.4744  -21.0506  -10.2231 C   0  0  0  0  0  0  0  0  0  0  0  0
   23.6420  -20.2295   -9.7206 O   0  0  0  0  0  0  0  0  0  0  0  0
   24.1268  -22.0597  -11.2336 C   0  0  0  0  0  0  0  0  0  0  0  0
   24.2967  -21.5609  -12.6470 C   0  0  2  0  0  0  0  0  0  0  0  0
   25.6740  -21.3212  -12.9910 N   0  0  0  0  0  0  0  0  0  0  0  0
   23.4299  -20.3847  -12.8777 C   0  0  0  0  0  0  0  0  0  0  0  0
   23.7086  -19.2173  -12.5214 O   0  0  0  0  0  0  0  0  0  0  0  0
   22.1975  -20.5871  -13.5478 N   0  0  0  0  0  0  0  0  0  0  0  0
   21.2846  -19.4899  -13.8424 C   0  0  1  0  0  0  0  0  0  0  0  0
   21.1236  -19.4199  -15.3426 C   0  0  0  0  0  0  0  0  0  0  0  0
   20.1345  -18.2868  -15.6279 C   0  0  0  0  0  0  0  0  0  0  0  0
   19.9557  -18.2076  -17.1024 C   0  0  0  0  0  0  0  0  0  0  0  0
   20.8529  -17.7455  -17.8509 O   0  0  0  0  0  0  0  0  0  0  0  0
   19.9633  -19.8644  -13.2818 C   0  0  0  0  0  0  0  0  0  0  0  0
   19.6919  -21.0743  -13.1005 O   0  0  0  0  0  0  0  0  0  0  0  0
   18.7836  -18.6452  -17.7006 O   0  0  0  0  0  0  0  0  0  0  0  0
   19.0126  -18.9206  -12.9495 O   0  0  0  0  0  0  0  0  0  0  0  0
  2  1  1  0
  3  2  2  0
  4  3  1  0
  5  4  2  0
  5 11  1  0
  6  5  1  0
  7  6  1  0
  7  8  1  6
  9  7  1  0
  9 18  1  0
 10  9  2  0
 11 12  2  0
 12  2  1  0
 13 14  1  0
 14 15  2  0
 16 14  1  0
 17 16  1  1
 17 18  1  0
 19 17  1  0
 20 19  2  0
 21 19  1  0
 22 21  1  0
 22 27  1  0
 22 23  1  6
 24 23  1  0
 25 24  1  0
 26 25  2  0
 27 28  2  0
 27 30  1  0
 29 25  1  0
M  END
$$$$
