YNE.pdb
     RDKit          3D

 30 30  0  0  1  0  0  0  0  0999 V2000
   28.9143  -18.8664   -3.5447 O   0  0  0  0  0  0  0  0  0  0  0  0
   28.4498  -19.1138   -4.8287 C   0  0  0  0  0  0  0  0  0  0  0  0
   27.7642  -20.2602   -5.1632 C   0  0  0  0  0  0  0  0  0  0  0  0
   27.3060  -20.4921   -6.4532 C   0  0  0  0  0  0  0  0  0  0  0  0
   27.5205  -19.5764   -7.4610 C   0  0  0  0  0  0  0  0  0  0  0  0
   27.0393  -19.8024   -8.8430 C   0  0  0  0  0  0  0  0  0  0  0  0
   27.4227  -21.1944   -9.3655 C   0  0  2  0  0  0  0  0  0  0  0  0
   28.8909  -21.2868   -9.3934 N   0  0  0  0  0  0  0  0  0  0  0  0
   26.9981  -21.1870  -10.7940 C   0  0  0  0  0  0  0  0  0  0  0  0
   27.8498  -21.5111  -11.6412 O   0  0  0  0  0  0  0  0  0  0  0  0
   28.2096  -18.4245   -7.1244 C   0  0  0  0  0  0  0  0  0  0  0  0
   28.6653  -18.1966   -5.8358 C   0  0  0  0  0  0  0  0  0  0  0  0
   25.3936  -23.5284  -14.9554 N   0  0  0  0  0  0  0  0  0  0  0  0
   24.5181  -23.1902  -13.9044 C   0  0  0  0  0  0  0  0  0  0  0  0
   23.2769  -23.2904  -14.1669 O   0  0  0  0  0  0  0  0  0  0  0  0
   25.0520  -22.7552  -12.6060 C   0  0  0  0  0  0  0  0  0  0  0  0
   25.0920  -21.2546  -12.4585 C   0  0  2  0  0  0  0  0  0  0  0  0
   25.6885  -20.8328  -11.2179 N   0  0  0  0  0  0  0  0  0  0  0  0
   23.7429  -20.6873  -12.6737 C   0  0  0  0  0  0  0  0  0  0  0  0
   22.8506  -20.6273  -11.7976 O   0  0  0  0  0  0  0  0  0  0  0  0
   23.4333  -20.1751  -13.9585 N   0  0  0  0  0  0  0  0  0  0  0  0
   22.3550  -19.2187  -14.1738 C   0  0  1  0  0  0  0  0  0  0  0  0
   22.3992  -18.7993  -15.6242 C   0  0  0  0  0  0  0  0  0  0  0  0
   23.2081  -17.5009  -15.6836 C   0  0  0  0  0  0  0  0  0  0  0  0
   23.2754  -17.0787  -17.1083 C   0  0  0  0  0  0  0  0  0  0  0  0
   22.8865  -17.8301  -18.0371 O   0  0  0  0  0  0  0  0  0  0  0  0
   21.0808  -19.9514  -13.9733 C   0  0  0  0  0  0  0  0  0  0  0  0
   20.9848  -21.1382  -14.3641 O   0  0  0  0  0  0  0  0  0  0  0  0
   23.7733  -15.8322  -17.4572 O   0  0  0  0  0  0  0  0  0  0  0  0
   19.9865  -19.3687  -13.3667 O   0  0  0  0  0  0  0  0  0  0  0  0
  2  1  1  0
  3  2  2  0
  4  3  1  0
  5  4  2  0
  5 11  1  0
  6  5  1  0
  7  6  1  0
  7  8  1  6
  9  7  1  0
  9 18  1  0
 10  9  2  0
 11 12  2  0
 12  2  1  0
 13 14  1  0
 14 15  2  0
 16 14  1  0
 17 16  1  1
 17 18  1  0
 19 17  1  0
 20 19  2  0
 21 19  1  0
 22 21  1  0
 22 27  1  0
 22 23  1  6
 24 23  1  0
 25 24  1  0
 26 25  2  0
 27 28  2  0
 27 30  1  0
 29 25  1  0
M  END
$$$$
