YNE.pdb
     RDKit          3D

 30 30  0  0  1  0  0  0  0  0999 V2000
   24.3407  -10.3502  -15.0689 O   0  0  0  0  0  0  0  0  0  0  0  0
   23.1986   -9.7501  -14.5581 C   0  0  0  0  0  0  0  0  0  0  0  0
   22.8585   -9.8129  -13.2253 C   0  0  0  0  0  0  0  0  0  0  0  0
   21.7116   -9.2065  -12.7304 C   0  0  0  0  0  0  0  0  0  0  0  0
   20.8588   -8.5106  -13.5602 C   0  0  0  0  0  0  0  0  0  0  0  0
   19.6317   -7.8548  -13.0537 C   0  0  0  0  0  0  0  0  0  0  0  0
   18.6261   -8.8705  -12.4925 C   0  0  2  0  0  0  0  0  0  0  0  0
   18.0908   -9.6561  -13.6155 N   0  0  0  0  0  0  0  0  0  0  0  0
   17.4866   -8.0402  -12.0099 C   0  0  0  0  0  0  0  0  0  0  0  0
   16.6214   -7.7225  -12.8459 O   0  0  0  0  0  0  0  0  0  0  0  0
   21.2011   -8.4477  -14.8996 C   0  0  0  0  0  0  0  0  0  0  0  0
   22.3465   -9.0542  -15.3897 C   0  0  0  0  0  0  0  0  0  0  0  0
   14.1674   -5.3216   -9.1035 N   0  0  0  0  0  0  0  0  0  0  0  0
   14.7396   -6.3173   -8.2870 C   0  0  0  0  0  0  0  0  0  0  0  0
   14.1640   -6.5114   -7.1687 O   0  0  0  0  0  0  0  0  0  0  0  0
   15.9253   -7.0574   -8.7414 C   0  0  0  0  0  0  0  0  0  0  0  0
   16.2818   -6.7731  -10.1792 C   0  0  2  0  0  0  0  0  0  0  0  0
   17.3513   -7.6067  -10.6630 N   0  0  0  0  0  0  0  0  0  0  0  0
   16.5470   -5.3292  -10.3604 C   0  0  0  0  0  0  0  0  0  0  0  0
   17.5300   -4.7225   -9.8776 O   0  0  0  0  0  0  0  0  0  0  0  0
   15.6283   -4.5753  -11.1326 N   0  0  0  0  0  0  0  0  0  0  0  0
   15.8669   -3.1800  -11.4794 C   0  0  1  0  0  0  0  0  0  0  0  0
   15.4890   -2.9988  -12.9305 C   0  0  0  0  0  0  0  0  0  0  0  0
   15.7895   -1.5404  -13.2860 C   0  0  0  0  0  0  0  0  0  0  0  0
   15.4670   -1.3537  -14.7260 C   0  0  0  0  0  0  0  0  0  0  0  0
   15.0268   -2.2966  -15.4301 O   0  0  0  0  0  0  0  0  0  0  0  0
   14.9180   -2.3673  -10.6797 C   0  0  0  0  0  0  0  0  0  0  0  0
   13.7559   -2.7934  -10.4836 O   0  0  0  0  0  0  0  0  0  0  0  0
   15.6438   -0.1228  -15.3401 O   0  0  0  0  0  0  0  0  0  0  0  0
   15.2709   -1.1476  -10.1387 O   0  0  0  0  0  0  0  0  0  0  0  0
  2  1  1  0
  3  2  2  0
  4  3  1  0
  5  4  2  0
  5 11  1  0
  6  5  1  0
  7  6  1  0
  7  8  1  6
  9  7  1  0
  9 18  1  0
 10  9  2  0
 11 12  2  0
 12  2  1  0
 13 14  1  0
 14 15  2  0
 16 14  1  0
 17 16  1  1
 17 18  1  0
 19 17  1  0
 20 19  2  0
 21 19  1  0
 22 21  1  0
 22 27  1  0
 22 23  1  6
 24 23  1  0
 25 24  1  0
 26 25  2  0
 27 28  2  0
 27 30  1  0
 29 25  1  0
M  END
$$$$
