GEL.pdb
     RDKit          3D

 22 21  0  0  1  0  0  0  0  0999 V2000
   28.2464  -18.6735  -15.5654 N   0  0  0  0  0  0  0  0  0  0  0  0
   28.4966  -19.4965  -14.4215 C   0  0  0  0  0  0  0  0  0  0  0  0
   27.4288  -19.3501  -13.3904 C   0  0  0  0  0  0  0  0  0  0  0  0
   27.0994  -18.1998  -13.0530 O   0  0  0  0  0  0  0  0  0  0  0  0
   26.8162  -20.4901  -12.8201 N   0  0  0  0  0  0  0  0  0  0  0  0
   25.6347  -20.3681  -11.9326 C   0  0  1  0  0  0  0  0  0  0  0  0
   24.5167  -21.1205  -12.5840 C   0  0  0  0  0  0  0  0  0  0  0  0
   23.1912  -21.0560  -11.9378 C   0  0  0  0  0  0  0  0  0  0  0  0
   22.1650  -20.3112  -12.6944 C   0  0  0  0  0  0  0  0  0  0  0  0
   21.6616  -19.2314  -12.3305 O   0  0  0  0  0  0  0  0  0  0  0  0
   26.0485  -20.8892  -10.6134 C   0  0  0  0  0  0  0  0  0  0  0  0
   26.5323  -22.0732  -10.5508 O   0  0  0  0  0  0  0  0  0  0  0  0
   21.7411  -20.8706  -13.8992 O   0  0  0  0  0  0  0  0  0  0  0  0
   28.3951  -18.4388   -6.3320 C   0  0  0  0  0  0  0  0  0  0  0  0
   28.0111  -19.4653   -7.3990 C   0  0  1  0  0  0  0  0  0  0  0  0
   28.9758  -20.6505   -7.2985 C   0  0  0  0  0  0  0  0  0  0  0  0
   26.6216  -19.9278   -7.1035 C   0  0  0  0  0  0  0  0  0  0  0  0
   26.1340  -20.9042   -8.1137 C   0  0  2  0  0  0  0  0  0  0  0  0
   25.9654  -20.2007   -9.3938 N   0  0  0  0  0  0  0  0  0  0  0  0
   24.8344  -21.4718   -7.7120 C   0  0  0  0  0  0  0  0  0  0  0  0
   24.6739  -22.3044   -6.7848 O   0  0  0  0  0  0  0  0  0  0  0  0
   23.6800  -21.0677   -8.4005 O   0  0  0  0  0  0  0  0  0  0  0  0
  1  2  1  0
  2  3  1  0
  3  4  2  0
  5  3  1  0
  5  6  1  0
  6 11  1  0
  6  7  1  6
  8  7  1  0
  9  8  1  0
 10  9  2  0
 11 19  1  0
 11 12  2  0
 13  9  1  0
 15 14  1  1
 15 16  1  0
 18 17  1  1
 17 15  1  0
 18 20  1  0
 19 18  1  0
 20 22  1  0
 21 20  2  0
M  END
$$$$
