GEL.pdb
     RDKit          3D

 22 21  0  0  1  0  0  0  0  0999 V2000
   28.8976  -17.9713  -17.2218 N   0  0  0  0  0  0  0  0  0  0  0  0
   28.4772  -19.2095  -16.6401 C   0  0  0  0  0  0  0  0  0  0  0  0
   27.3894  -19.0095  -15.6394 C   0  0  0  0  0  0  0  0  0  0  0  0
   27.0407  -17.8438  -15.3841 O   0  0  0  0  0  0  0  0  0  0  0  0
   26.7798  -20.1174  -15.0061 N   0  0  0  0  0  0  0  0  0  0  0  0
   25.5762  -19.9537  -14.1558 C   0  0  1  0  0  0  0  0  0  0  0  0
   24.4206  -20.5255  -14.9160 C   0  0  0  0  0  0  0  0  0  0  0  0
   23.0874  -20.4359  -14.2887 C   0  0  0  0  0  0  0  0  0  0  0  0
   22.3688  -19.1690  -14.5312 C   0  0  0  0  0  0  0  0  0  0  0  0
   22.5856  -18.4044  -15.4904 O   0  0  0  0  0  0  0  0  0  0  0  0
   25.8741  -20.6303  -12.8766 C   0  0  0  0  0  0  0  0  0  0  0  0
   26.2993  -21.8377  -12.9108 O   0  0  0  0  0  0  0  0  0  0  0  0
   21.3810  -18.8193  -13.6114 O   0  0  0  0  0  0  0  0  0  0  0  0
   28.0775  -18.5059   -8.4162 C   0  0  0  0  0  0  0  0  0  0  0  0
   27.7179  -19.4416   -9.5715 C   0  0  1  0  0  0  0  0  0  0  0  0
   28.7541  -20.5682   -9.6213 C   0  0  0  0  0  0  0  0  0  0  0  0
   26.3696  -20.0175   -9.2852 C   0  0  0  0  0  0  0  0  0  0  0  0
   25.8928  -20.8924  -10.3892 C   0  0  2  0  0  0  0  0  0  0  0  0
   25.7375  -20.0696  -11.5979 N   0  0  0  0  0  0  0  0  0  0  0  0
   24.5891  -21.4948  -10.0574 C   0  0  0  0  0  0  0  0  0  0  0  0
   23.4978  -21.1770  -10.5929 O   0  0  0  0  0  0  0  0  0  0  0  0
   24.5393  -22.4969   -9.0760 O   0  0  0  0  0  0  0  0  0  0  0  0
  1  2  1  0
  2  3  1  0
  3  4  2  0
  5  3  1  0
  5  6  1  0
  6 11  1  0
  6  7  1  6
  8  7  1  0
  9  8  1  0
 10  9  2  0
 11 19  1  0
 11 12  2  0
 13  9  1  0
 15 14  1  1
 15 16  1  0
 18 17  1  1
 17 15  1  0
 18 20  1  0
 19 18  1  0
 20 22  1  0
 21 20  2  0
M  END
$$$$
