GEL.pdb
     RDKit          3D

 22 21  0  0  1  0  0  0  0  0999 V2000
   23.9838  -11.8503  -22.6581 N   0  0  0  0  0  0  0  0  0  0  0  0
   24.1025  -11.8229  -21.2321 C   0  0  0  0  0  0  0  0  0  0  0  0
   24.4447  -10.4602  -20.7315 C   0  0  0  0  0  0  0  0  0  0  0  0
   25.0016   -9.6743  -21.5175 O   0  0  0  0  0  0  0  0  0  0  0  0
   24.1413  -10.0831  -19.4026 N   0  0  0  0  0  0  0  0  0  0  0  0
   24.5451   -8.7618  -18.8645 C   0  0  1  0  0  0  0  0  0  0  0  0
   23.5763   -8.4161  -17.7771 C   0  0  0  0  0  0  0  0  0  0  0  0
   23.7710   -7.1286  -17.0819 C   0  0  0  0  0  0  0  0  0  0  0  0
   22.7489   -6.8088  -16.0653 C   0  0  0  0  0  0  0  0  0  0  0  0
   22.8284   -7.1149  -14.8605 O   0  0  0  0  0  0  0  0  0  0  0  0
   25.9485   -8.9018  -18.4246 C   0  0  0  0  0  0  0  0  0  0  0  0
   26.5369   -7.8774  -17.9305 O   0  0  0  0  0  0  0  0  0  0  0  0
   21.6213   -6.1148  -16.5027 O   0  0  0  0  0  0  0  0  0  0  0  0
   27.5306  -13.4014  -16.0067 C   0  0  0  0  0  0  0  0  0  0  0  0
   27.1990  -11.9748  -16.4477 C   0  0  1  0  0  0  0  0  0  0  0  0
   27.2027  -11.0733  -15.2098 C   0  0  0  0  0  0  0  0  0  0  0  0
   28.2702  -11.5314  -17.3900 C   0  0  0  0  0  0  0  0  0  0  0  0
   28.0489  -10.1409  -17.8686 C   0  0  2  0  0  0  0  0  0  0  0  0
   26.7194  -10.0720  -18.4927 N   0  0  0  0  0  0  0  0  0  0  0  0
   29.0612   -9.7623  -18.8708 C   0  0  0  0  0  0  0  0  0  0  0  0
   28.8821   -9.7917  -20.1141 O   0  0  0  0  0  0  0  0  0  0  0  0
   30.3225   -9.3352  -18.4275 O   0  0  0  0  0  0  0  0  0  0  0  0
  1  2  1  0
  2  3  1  0
  3  4  2  0
  5  3  1  0
  5  6  1  0
  6 11  1  0
  6  7  1  1
  8  7  1  0
  9  8  1  0
 10  9  2  0
 11 19  1  0
 11 12  2  0
 13  9  1  0
 15 14  1  1
 15 16  1  0
 18 17  1  6
 17 15  1  0
 18 20  1  0
 19 18  1  0
 20 22  1  0
 21 20  2  0
M  END
$$$$
