GEL.pdb
     RDKit          3D

 22 21  0  0  1  0  0  0  0  0999 V2000
   16.2072  -13.2302  -16.7519 N   0  0  0  0  0  0  0  0  0  0  0  0
   16.3069  -11.9432  -16.1339 C   0  0  0  0  0  0  0  0  0  0  0  0
   17.5422  -11.2214  -16.5553 C   0  0  0  0  0  0  0  0  0  0  0  0
   18.6393  -11.7012  -16.2210 O   0  0  0  0  0  0  0  0  0  0  0  0
   17.4582  -10.0291  -17.3112 N   0  0  0  0  0  0  0  0  0  0  0  0
   18.6743   -9.2767  -17.7029 C   0  0  1  0  0  0  0  0  0  0  0  0
   18.3001   -8.4125  -18.8664 C   0  0  0  0  0  0  0  0  0  0  0  0
   19.3249   -7.4783  -19.3723 C   0  0  0  0  0  0  0  0  0  0  0  0
   18.8976   -6.6429  -20.5124 C   0  0  0  0  0  0  0  0  0  0  0  0
   18.7238   -5.4105  -20.4612 O   0  0  0  0  0  0  0  0  0  0  0  0
   19.1155   -8.5415  -16.4997 C   0  0  0  0  0  0  0  0  0  0  0  0
   18.2246   -8.1265  -15.6787 O   0  0  0  0  0  0  0  0  0  0  0  0
   18.6777   -7.2963  -21.7243 O   0  0  0  0  0  0  0  0  0  0  0  0
   23.2234   -9.9585  -13.4202 C   0  0  0  0  0  0  0  0  0  0  0  0
   21.8600   -9.4698  -13.9120 C   0  0  1  0  0  0  0  0  0  0  0  0
   20.8753   -9.5256  -12.7404 C   0  0  0  0  0  0  0  0  0  0  0  0
   22.0210   -8.0538  -14.3601 C   0  0  0  0  0  0  0  0  0  0  0  0
   20.7614   -7.5037  -14.9280 C   0  0  2  0  0  0  0  0  0  0  0  0
   20.4435   -8.2475  -16.1559 N   0  0  0  0  0  0  0  0  0  0  0  0
   20.9157   -6.0775  -15.2663 C   0  0  0  0  0  0  0  0  0  0  0  0
   20.9409   -5.6189  -16.4358 O   0  0  0  0  0  0  0  0  0  0  0  0
   21.0455   -5.1471  -14.2236 O   0  0  0  0  0  0  0  0  0  0  0  0
  1  2  1  0
  2  3  1  0
  3  4  2  0
  5  3  1  0
  5  6  1  0
  6 11  1  0
  6  7  1  6
  8  7  1  0
  9  8  1  0
 10  9  2  0
 11 19  1  0
 11 12  2  0
 13  9  1  0
 15 14  1  1
 15 16  1  0
 18 17  1  6
 17 15  1  0
 18 20  1  0
 19 18  1  0
 20 22  1  0
 21 20  2  0
M  END
$$$$
