GEL.pdb
     RDKit          3D

 22 21  0  0  1  0  0  0  0  0999 V2000
   14.9691   -5.9118  -16.9191 N   0  0  0  0  0  0  0  0  0  0  0  0
   16.3394   -5.6602  -16.5914 C   0  0  0  0  0  0  0  0  0  0  0  0
   16.8162   -6.5451  -15.4894 C   0  0  0  0  0  0  0  0  0  0  0  0
   16.2005   -6.5133  -14.4097 O   0  0  0  0  0  0  0  0  0  0  0  0
   17.9344   -7.3905  -15.6762 N   0  0  0  0  0  0  0  0  0  0  0  0
   18.4234   -8.2740  -14.5905 C   0  0  1  0  0  0  0  0  0  0  0  0
   18.5074   -9.6578  -15.1550 C   0  0  0  0  0  0  0  0  0  0  0  0
   17.2402  -10.3089  -15.5411 C   0  0  0  0  0  0  0  0  0  0  0  0
   17.3851  -11.6589  -16.1214 C   0  0  0  0  0  0  0  0  0  0  0  0
   18.4715  -12.2449  -16.2884 O   0  0  0  0  0  0  0  0  0  0  0  0
   19.7115   -7.7077  -14.1401 C   0  0  0  0  0  0  0  0  0  0  0  0
   20.2215   -8.1458  -13.0503 O   0  0  0  0  0  0  0  0  0  0  0  0
   16.2125  -12.3092  -16.5039 O   0  0  0  0  0  0  0  0  0  0  0  0
   23.6193   -6.7598  -17.5306 C   0  0  0  0  0  0  0  0  0  0  0  0
   22.7026   -7.1505  -16.3702 C   0  0  1  0  0  0  0  0  0  0  0  0
   23.3104   -8.3647  -15.6620 C   0  0  0  0  0  0  0  0  0  0  0  0
   22.6524   -5.9956  -15.4239 C   0  0  0  0  0  0  0  0  0  0  0  0
   21.7445   -6.2569  -14.2754 C   0  0  2  0  0  0  0  0  0  0  0  0
   20.4513   -6.7168  -14.8027 N   0  0  0  0  0  0  0  0  0  0  0  0
   21.5245   -5.0299  -13.4891 C   0  0  0  0  0  0  0  0  0  0  0  0
   20.4369   -4.4032  -13.4315 O   0  0  0  0  0  0  0  0  0  0  0  0
   22.5919   -4.5059  -12.7435 O   0  0  0  0  0  0  0  0  0  0  0  0
  1  2  1  0
  2  3  1  0
  3  4  2  0
  5  3  1  0
  5  6  1  0
  6 11  1  0
  6  7  1  6
  8  7  1  0
  9  8  1  0
 10  9  2  0
 11 19  1  0
 11 12  2  0
 13  9  1  0
 15 14  1  6
 15 16  1  0
 18 17  1  6
 17 15  1  0
 18 20  1  0
 19 18  1  0
 20 22  1  0
 21 20  2  0
M  END
$$$$
