GEL.pdb
     RDKit          3D

 22 21  0  0  1  0  0  0  0  0999 V2000
   21.2455  -20.9500  -15.0624 N   0  0  0  0  0  0  0  0  0  0  0  0
   20.1285  -20.2949  -15.6719 C   0  0  0  0  0  0  0  0  0  0  0  0
   20.5077  -18.9693  -16.2409 C   0  0  0  0  0  0  0  0  0  0  0  0
   21.3278  -18.9501  -17.1752 O   0  0  0  0  0  0  0  0  0  0  0  0
   19.9467  -17.7771  -15.7273 N   0  0  0  0  0  0  0  0  0  0  0  0
   20.1512  -16.4740  -16.4046 C   0  0  1  0  0  0  0  0  0  0  0  0
   18.9540  -15.6286  -16.1004 C   0  0  0  0  0  0  0  0  0  0  0  0
   18.9355  -14.2591  -16.6509 C   0  0  0  0  0  0  0  0  0  0  0  0
   17.7506  -13.4571  -16.2861 C   0  0  0  0  0  0  0  0  0  0  0  0
   16.5709  -13.8203  -16.4535 O   0  0  0  0  0  0  0  0  0  0  0  0
   21.4333  -15.9392  -15.9018 C   0  0  0  0  0  0  0  0  0  0  0  0
   21.5969  -15.8395  -14.6356 O   0  0  0  0  0  0  0  0  0  0  0  0
   17.9876  -12.2074  -15.7149 O   0  0  0  0  0  0  0  0  0  0  0  0
   26.4005  -15.0303  -14.6124 C   0  0  0  0  0  0  0  0  0  0  0  0
   26.1469  -14.8590  -16.1111 C   0  0  1  0  0  0  0  0  0  0  0  0
   27.3298  -15.4631  -16.8734 C   0  0  0  0  0  0  0  0  0  0  0  0
   24.9008  -15.6108  -16.4485 C   0  0  0  0  0  0  0  0  0  0  0  0
   23.6763  -14.8480  -16.0877 C   0  0  2  0  0  0  0  0  0  0  0  0
   22.5165  -15.5222  -16.6898 N   0  0  0  0  0  0  0  0  0  0  0  0
   23.7432  -13.4700  -16.6064 C   0  0  0  0  0  0  0  0  0  0  0  0
   23.3917  -13.1232  -17.7618 O   0  0  0  0  0  0  0  0  0  0  0  0
   24.2310  -12.4563  -15.7672 O   0  0  0  0  0  0  0  0  0  0  0  0
  1  2  1  0
  2  3  1  0
  3  4  2  0
  5  3  1  0
  5  6  1  0
  6 11  1  0
  6  7  1  1
  8  7  1  0
  9  8  1  0
 10  9  2  0
 11 19  1  0
 11 12  2  0
 13  9  1  0
 15 14  1  1
 15 16  1  0
 18 17  1  6
 17 15  1  0
 18 20  1  0
 19 18  1  0
 20 22  1  0
 21 20  2  0
M  END
$$$$
