GEL.pdb
     RDKit          3D

 22 21  0  0  1  0  0  0  0  0999 V2000
   33.2618  -12.2674  -18.0578 N   0  0  0  0  0  0  0  0  0  0  0  0
   32.2932  -11.4127  -17.4418 C   0  0  0  0  0  0  0  0  0  0  0  0
   32.6529   -9.9727  -17.5889 C   0  0  0  0  0  0  0  0  0  0  0  0
   33.7161   -9.6948  -18.1705 O   0  0  0  0  0  0  0  0  0  0  0  0
   31.8049   -8.9620  -17.0795 N   0  0  0  0  0  0  0  0  0  0  0  0
   32.0857   -7.5261  -17.3193 C   0  0  1  0  0  0  0  0  0  0  0  0
   30.7891   -6.8829  -17.7009 C   0  0  0  0  0  0  0  0  0  0  0  0
   30.2566   -7.1800  -19.0452 C   0  0  0  0  0  0  0  0  0  0  0  0
   29.0181   -6.4576  -19.3981 C   0  0  0  0  0  0  0  0  0  0  0  0
   28.9191   -5.6341  -20.3275 O   0  0  0  0  0  0  0  0  0  0  0  0
   32.6946   -7.0070  -16.0772 C   0  0  0  0  0  0  0  0  0  0  0  0
   32.0694   -7.1816  -14.9734 O   0  0  0  0  0  0  0  0  0  0  0  0
   27.8891   -6.7286  -18.6260 O   0  0  0  0  0  0  0  0  0  0  0  0
   38.0016   -5.6690  -15.1354 C   0  0  0  0  0  0  0  0  0  0  0  0
   36.6945   -6.2461  -15.6816 C   0  0  1  0  0  0  0  0  0  0  0  0
   37.0128   -7.5505  -16.4180 C   0  0  0  0  0  0  0  0  0  0  0  0
   35.8056   -6.5361  -14.5165 C   0  0  0  0  0  0  0  0  0  0  0  0
   34.4606   -5.9222  -14.6770 C   0  0  2  0  0  0  0  0  0  0  0  0
   33.9189   -6.3285  -15.9821 N   0  0  0  0  0  0  0  0  0  0  0  0
   34.5458   -4.4512  -14.6383 C   0  0  0  0  0  0  0  0  0  0  0  0
   34.3645   -3.6985  -15.6279 O   0  0  0  0  0  0  0  0  0  0  0  0
   34.8497   -3.8249  -13.4196 O   0  0  0  0  0  0  0  0  0  0  0  0
  1  2  1  0
  2  3  1  0
  3  4  2  0
  5  3  1  0
  5  6  1  0
  6 11  1  0
  6  7  1  1
  8  7  1  0
  9  8  1  0
 10  9  2  0
 11 19  1  0
 11 12  2  0
 13  9  1  0
 15 14  1  1
 15 16  1  0
 18 17  1  6
 17 15  1  0
 18 20  1  0
 19 18  1  0
 20 22  1  0
 21 20  2  0
M  END
$$$$
