GEL.pdb
     RDKit          3D

 22 21  0  0  1  0  0  0  0  0999 V2000
   27.8672  -19.7421  -17.7835 N   0  0  0  0  0  0  0  0  0  0  0  0
   26.4618  -19.9762  -17.9193 C   0  0  0  0  0  0  0  0  0  0  0  0
   25.6883  -19.3635  -16.8008 C   0  0  0  0  0  0  0  0  0  0  0  0
   26.3227  -18.7732  -15.9094 O   0  0  0  0  0  0  0  0  0  0  0  0
   24.2776  -19.4564  -16.7641 N   0  0  0  0  0  0  0  0  0  0  0  0
   23.4912  -18.8277  -15.6756 C   0  0  1  0  0  0  0  0  0  0  0  0
   22.2872  -18.2029  -16.3084 C   0  0  0  0  0  0  0  0  0  0  0  0
   22.4883  -16.9378  -17.0418 C   0  0  0  0  0  0  0  0  0  0  0  0
   21.2506  -16.2975  -17.5303 C   0  0  0  0  0  0  0  0  0  0  0  0
   20.1019  -16.7401  -17.3402 O   0  0  0  0  0  0  0  0  0  0  0  0
   23.1958  -19.8991  -14.7021 C   0  0  0  0  0  0  0  0  0  0  0  0
   22.8777  -21.0565  -15.1481 O   0  0  0  0  0  0  0  0  0  0  0  0
   21.3968  -15.1145  -18.2538 O   0  0  0  0  0  0  0  0  0  0  0  0
   25.8656  -20.2045  -10.0575 C   0  0  0  0  0  0  0  0  0  0  0  0
   25.2149  -20.5218  -11.4049 C   0  0  1  0  0  0  0  0  0  0  0  0
   25.8285  -21.8170  -11.9447 C   0  0  0  0  0  0  0  0  0  0  0  0
   23.7542  -20.7245  -11.1661 C   0  0  0  0  0  0  0  0  0  0  0  0
   23.0078  -20.9379  -12.4346 C   0  0  2  0  0  0  0  0  0  0  0  0
   23.2321  -19.7744  -13.3052 N   0  0  0  0  0  0  0  0  0  0  0  0
   21.5618  -21.0647  -12.1790 C   0  0  0  0  0  0  0  0  0  0  0  0
   21.0054  -22.0908  -11.7137 O   0  0  0  0  0  0  0  0  0  0  0  0
   20.7273  -19.9740  -12.4684 O   0  0  0  0  0  0  0  0  0  0  0  0
  1  2  1  0
  2  3  1  0
  3  4  2  0
  5  3  1  0
  5  6  1  0
  6 11  1  0
  6  7  1  6
  8  7  1  0
  9  8  1  0
 10  9  2  0
 11 19  1  0
 11 12  2  0
 13  9  1  0
 15 14  1  1
 15 16  1  0
 18 17  1  1
 17 15  1  0
 18 20  1  0
 19 18  1  0
 20 22  1  0
 21 20  2  0
M  END
$$$$
