GEL.pdb
     RDKit          3D

 22 21  0  0  1  0  0  0  0  0999 V2000
   15.8694  -12.3056  -15.6223 N   0  0  0  0  0  0  0  0  0  0  0  0
   16.1613  -11.0620  -14.9770 C   0  0  0  0  0  0  0  0  0  0  0  0
   17.2150  -10.2958  -15.7032 C   0  0  0  0  0  0  0  0  0  0  0  0
   18.2025  -10.9217  -16.1261 O   0  0  0  0  0  0  0  0  0  0  0  0
   17.0861   -8.9012  -15.8998 N   0  0  0  0  0  0  0  0  0  0  0  0
   18.1341   -8.1208  -16.6005 C   0  0  1  0  0  0  0  0  0  0  0  0
   17.4458   -6.9909  -17.3004 C   0  0  0  0  0  0  0  0  0  0  0  0
   16.6457   -7.3226  -18.4957 C   0  0  0  0  0  0  0  0  0  0  0  0
   16.0450   -6.1629  -19.1846 C   0  0  0  0  0  0  0  0  0  0  0  0
   15.9304   -6.0548  -20.4202 O   0  0  0  0  0  0  0  0  0  0  0  0
   19.1088   -7.7108  -15.5686 C   0  0  0  0  0  0  0  0  0  0  0  0
   18.6657   -7.3366  -14.4269 O   0  0  0  0  0  0  0  0  0  0  0  0
   15.5781   -5.1247  -18.3795 O   0  0  0  0  0  0  0  0  0  0  0  0
   23.9014  -10.1608  -15.0073 C   0  0  0  0  0  0  0  0  0  0  0  0
   22.5108   -9.5431  -14.8519 C   0  0  1  0  0  0  0  0  0  0  0  0
   21.8983  -10.0543  -13.5447 C   0  0  0  0  0  0  0  0  0  0  0  0
   22.6794   -8.0606  -14.7766 C   0  0  0  0  0  0  0  0  0  0  0  0
   21.3808   -7.3625  -14.5823 C   0  0  2  0  0  0  0  0  0  0  0  0
   20.5038   -7.6920  -15.7156 N   0  0  0  0  0  0  0  0  0  0  0  0
   21.5702   -5.9014  -14.5410 C   0  0  0  0  0  0  0  0  0  0  0  0
   21.2177   -5.1089  -15.4501 O   0  0  0  0  0  0  0  0  0  0  0  0
   22.1859   -5.3325  -13.4153 O   0  0  0  0  0  0  0  0  0  0  0  0
  1  2  1  0
  2  3  1  0
  3  4  2  0
  5  3  1  0
  5  6  1  0
  6 11  1  0
  6  7  1  1
  8  7  1  0
  9  8  1  0
 10  9  2  0
 11 19  1  0
 11 12  2  0
 13  9  1  0
 15 14  1  1
 15 16  1  0
 18 17  1  6
 17 15  1  0
 18 20  1  0
 19 18  1  0
 20 22  1  0
 21 20  2  0
M  END
$$$$
