GEL.pdb
     RDKit          3D

 22 21  0  0  1  0  0  0  0  0999 V2000
   15.7767  -13.5397  -16.7070 N   0  0  0  0  0  0  0  0  0  0  0  0
   15.4318  -12.3235  -16.0361 C   0  0  0  0  0  0  0  0  0  0  0  0
   16.3880  -11.2245  -16.3566 C   0  0  0  0  0  0  0  0  0  0  0  0
   17.3406  -11.4838  -17.1123 O   0  0  0  0  0  0  0  0  0  0  0  0
   16.2083   -9.9312  -15.8133 N   0  0  0  0  0  0  0  0  0  0  0  0
   17.1110   -8.8113  -16.1727 C   0  0  1  0  0  0  0  0  0  0  0  0
   16.3669   -7.5420  -15.8974 C   0  0  0  0  0  0  0  0  0  0  0  0
   17.0823   -6.2731  -16.1364 C   0  0  0  0  0  0  0  0  0  0  0  0
   16.2875   -5.0537  -15.8877 C   0  0  0  0  0  0  0  0  0  0  0  0
   15.9969   -4.6160  -14.7583 O   0  0  0  0  0  0  0  0  0  0  0  0
   18.3416   -8.9952  -15.3760 C   0  0  0  0  0  0  0  0  0  0  0  0
   18.2410   -9.5205  -14.2125 O   0  0  0  0  0  0  0  0  0  0  0  0
   15.8388   -4.3552  -17.0080 O   0  0  0  0  0  0  0  0  0  0  0  0
   23.7896   -9.4153  -15.2438 C   0  0  0  0  0  0  0  0  0  0  0  0
   22.7665  -10.4756  -14.8334 C   0  0  1  0  0  0  0  0  0  0  0  0
   22.5587  -10.3860  -13.3188 C   0  0  0  0  0  0  0  0  0  0  0  0
   21.4836  -10.1615  -15.5316 C   0  0  0  0  0  0  0  0  0  0  0  0
   20.8046   -8.9776  -14.9408 C   0  0  2  0  0  0  0  0  0  0  0  0
   19.6404   -8.6469  -15.7759 N   0  0  0  0  0  0  0  0  0  0  0  0
   21.7088   -7.8141  -14.9091 C   0  0  0  0  0  0  0  0  0  0  0  0
   21.8377   -6.9833  -15.8429 O   0  0  0  0  0  0  0  0  0  0  0  0
   22.4914   -7.5989  -13.7641 O   0  0  0  0  0  0  0  0  0  0  0  0
  1  2  1  0
  2  3  1  0
  3  4  2  0
  5  3  1  0
  5  6  1  0
  6 11  1  0
  6  7  1  1
  8  7  1  0
  9  8  1  0
 10  9  2  0
 11 19  1  0
 11 12  2  0
 13  9  1  0
 15 14  1  6
 15 16  1  0
 18 17  1  6
 17 15  1  0
 18 20  1  0
 19 18  1  0
 20 22  1  0
 21 20  2  0
M  END
$$$$
