GEL.pdb
     RDKit          3D

 22 21  0  0  1  0  0  0  0  0999 V2000
   15.8482  -12.8381  -18.3590 N   0  0  0  0  0  0  0  0  0  0  0  0
   15.9396  -11.6354  -17.5887 C   0  0  0  0  0  0  0  0  0  0  0  0
   17.1481  -10.8386  -17.9483 C   0  0  0  0  0  0  0  0  0  0  0  0
   18.0805  -11.4240  -18.5260 O   0  0  0  0  0  0  0  0  0  0  0  0
   17.2220   -9.4609  -17.6378 N   0  0  0  0  0  0  0  0  0  0  0  0
   18.4468   -8.6724  -17.9144 C   0  0  1  0  0  0  0  0  0  0  0  0
   18.0217   -7.2478  -18.0889 C   0  0  0  0  0  0  0  0  0  0  0  0
   19.0849   -6.2455  -18.2985 C   0  0  0  0  0  0  0  0  0  0  0  0
   18.6123   -4.8514  -18.4152 C   0  0  0  0  0  0  0  0  0  0  0  0
   19.3520   -3.8493  -18.3985 O   0  0  0  0  0  0  0  0  0  0  0  0
   19.3627   -8.9129  -16.7804 C   0  0  0  0  0  0  0  0  0  0  0  0
   18.8677   -8.9791  -15.6012 O   0  0  0  0  0  0  0  0  0  0  0  0
   17.2378   -4.6619  -18.5532 O   0  0  0  0  0  0  0  0  0  0  0  0
   23.0442  -11.2188  -13.9090 C   0  0  0  0  0  0  0  0  0  0  0  0
   23.7099  -10.2531  -14.8907 C   0  0  1  0  0  0  0  0  0  0  0  0
   25.0133  -10.8878  -15.3841 C   0  0  0  0  0  0  0  0  0  0  0  0
   22.7790  -10.0664  -16.0442 C   0  0  0  0  0  0  0  0  0  0  0  0
   21.5665   -9.2953  -15.6610 C   0  0  2  0  0  0  0  0  0  0  0  0
   20.7526   -9.0828  -16.8670 N   0  0  0  0  0  0  0  0  0  0  0  0
   21.9335   -7.9820  -15.1015 C   0  0  0  0  0  0  0  0  0  0  0  0
   22.2798   -6.9856  -15.7843 O   0  0  0  0  0  0  0  0  0  0  0  0
   21.9009   -7.8089  -13.7091 O   0  0  0  0  0  0  0  0  0  0  0  0
  1  2  1  0
  2  3  1  0
  3  4  2  0
  5  3  1  0
  5  6  1  0
  6 11  1  0
  6  7  1  1
  8  7  1  0
  9  8  1  0
 10  9  2  0
 11 19  1  0
 11 12  2  0
 13  9  1  0
 15 14  1  1
 15 16  1  0
 18 17  1  6
 17 15  1  0
 18 20  1  0
 19 18  1  0
 20 22  1  0
 21 20  2  0
M  END
$$$$
