GEL.pdb
     RDKit          3D

 22 21  0  0  1  0  0  0  0  0999 V2000
   20.2137  -16.4362  -17.7612 N   0  0  0  0  0  0  0  0  0  0  0  0
   21.0600  -15.3346  -18.1058 C   0  0  0  0  0  0  0  0  0  0  0  0
   22.1746  -15.1667  -17.1291 C   0  0  0  0  0  0  0  0  0  0  0  0
   21.8912  -14.7719  -15.9847 O   0  0  0  0  0  0  0  0  0  0  0  0
   23.5090  -15.4500  -17.5022 N   0  0  0  0  0  0  0  0  0  0  0  0
   24.6174  -15.3731  -16.5205 C   0  0  1  0  0  0  0  0  0  0  0  0
   25.3239  -16.6924  -16.5518 C   0  0  0  0  0  0  0  0  0  0  0  0
   24.6718  -17.8253  -15.8661 C   0  0  0  0  0  0  0  0  0  0  0  0
   25.4152  -19.0998  -15.9241 C   0  0  0  0  0  0  0  0  0  0  0  0
   26.5019  -19.2595  -16.5117 O   0  0  0  0  0  0  0  0  0  0  0  0
   25.4457  -14.2155  -16.9163 C   0  0  0  0  0  0  0  0  0  0  0  0
   25.5908  -13.9688  -18.1645 O   0  0  0  0  0  0  0  0  0  0  0  0
   24.8459  -20.1913  -15.2694 O   0  0  0  0  0  0  0  0  0  0  0  0
   25.7575   -9.4007  -14.3159 C   0  0  0  0  0  0  0  0  0  0  0  0
   25.6165  -10.4911  -15.3793 C   0  0  1  0  0  0  0  0  0  0  0  0
   25.2225   -9.8278  -16.7022 C   0  0  0  0  0  0  0  0  0  0  0  0
   26.9480  -11.1515  -15.5304 C   0  0  0  0  0  0  0  0  0  0  0  0
   26.9213  -12.2284  -16.5557 C   0  0  2  0  0  0  0  0  0  0  0  0
   26.1026  -13.3365  -16.0422 N   0  0  0  0  0  0  0  0  0  0  0  0
   28.2803  -12.7310  -16.8260 C   0  0  0  0  0  0  0  0  0  0  0  0
   28.7299  -13.8311  -16.4180 O   0  0  0  0  0  0  0  0  0  0  0  0
   29.1517  -11.9412  -17.5920 O   0  0  0  0  0  0  0  0  0  0  0  0
  1  2  1  0
  2  3  1  0
  3  4  2  0
  5  3  1  0
  5  6  1  0
  6 11  1  0
  6  7  1  6
  8  7  1  0
  9  8  1  0
 10  9  2  0
 11 19  1  0
 11 12  2  0
 13  9  1  0
 15 14  1  1
 15 16  1  0
 18 17  1  1
 17 15  1  0
 18 20  1  0
 19 18  1  0
 20 22  1  0
 21 20  2  0
M  END
$$$$
