GEL.pdb
     RDKit          3D

 22 21  0  0  1  0  0  0  0  0999 V2000
   28.2505  -18.5594  -14.7965 N   0  0  0  0  0  0  0  0  0  0  0  0
   27.8582  -19.7899  -14.1798 C   0  0  0  0  0  0  0  0  0  0  0  0
   26.9706  -19.5608  -13.0033 C   0  0  0  0  0  0  0  0  0  0  0  0
   26.7862  -18.3884  -12.6329 O   0  0  0  0  0  0  0  0  0  0  0  0
   26.3620  -20.6494  -12.3364 N   0  0  0  0  0  0  0  0  0  0  0  0
   25.4478  -20.4373  -11.1885 C   0  0  1  0  0  0  0  0  0  0  0  0
   24.2421  -21.2925  -11.4238 C   0  0  0  0  0  0  0  0  0  0  0  0
   23.3293  -20.8902  -12.5118 C   0  0  0  0  0  0  0  0  0  0  0  0
   22.0982  -20.2046  -12.0704 C   0  0  0  0  0  0  0  0  0  0  0  0
   21.7694  -19.0519  -12.4093 O   0  0  0  0  0  0  0  0  0  0  0  0
   26.2191  -20.7717   -9.9736 C   0  0  0  0  0  0  0  0  0  0  0  0
   26.7877  -21.9173   -9.9093 O   0  0  0  0  0  0  0  0  0  0  0  0
   21.2558  -20.9123  -11.2140 O   0  0  0  0  0  0  0  0  0  0  0  0
   29.1659  -18.5377   -5.1482 C   0  0  0  0  0  0  0  0  0  0  0  0
   28.3016  -19.6975   -5.6458 C   0  0  1  0  0  0  0  0  0  0  0  0
   27.1415  -19.8909   -4.6650 C   0  0  0  0  0  0  0  0  0  0  0  0
   27.7625  -19.3180   -6.9863 C   0  0  0  0  0  0  0  0  0  0  0  0
   27.0365  -20.4437   -7.6326 C   0  0  2  0  0  0  0  0  0  0  0  0
   26.3983  -19.9403   -8.8578 N   0  0  0  0  0  0  0  0  0  0  0  0
   25.9914  -20.9768   -6.7404 C   0  0  0  0  0  0  0  0  0  0  0  0
   24.8354  -20.4976   -6.6274 O   0  0  0  0  0  0  0  0  0  0  0  0
   26.2862  -22.0995   -5.9515 O   0  0  0  0  0  0  0  0  0  0  0  0
  1  2  1  0
  2  3  1  0
  3  4  2  0
  5  3  1  0
  5  6  1  0
  6 11  1  0
  6  7  1  6
  8  7  1  0
  9  8  1  0
 10  9  2  0
 11 19  1  0
 11 12  2  0
 13  9  1  0
 15 14  1  1
 15 16  1  0
 18 17  1  1
 17 15  1  0
 18 20  1  0
 19 18  1  0
 20 22  1  0
 21 20  2  0
M  END
$$$$
