LCR.pdb
     RDKit          3D

 26 25  0  0  1  0  0  0  0  0999 V2000
    6.7099  -12.2826   18.4757 C   0  0  0  0  0  0  0  0  0  0  0  0
    6.7995  -13.6042   19.2174 C   0  0  1  0  0  0  0  0  0  0  0  0
    7.1529  -14.6842   18.1810 C   0  0  0  0  0  0  0  0  0  0  0  0
    7.8899  -13.5081   20.2423 C   0  0  0  0  0  0  0  0  0  0  0  0
    7.9076  -14.6570   21.2256 C   0  0  2  0  0  0  0  0  0  0  0  0
    6.5604  -15.2078   21.2976 N   0  0  0  0  0  0  0  0  0  0  0  0
    8.4018  -14.2775   22.5658 C   0  0  0  0  0  0  0  0  0  0  0  0
    9.5283  -13.7550   22.7345 O   0  0  0  0  0  0  0  0  0  0  0  0
    7.6143  -14.4873   23.7554 N   0  0  0  0  0  0  0  0  0  0  0  0
    8.1681  -14.1797   25.0463 C   0  0  1  0  0  0  0  0  0  0  0  0
    7.0875  -13.5123   25.8727 C   0  0  0  0  0  0  0  0  0  0  0  0
    7.7808  -13.2161   27.5191 S   0  0  0  0  0  0  0  0  0  0  0  0
    8.7151  -15.3778   25.7317 C   0  0  0  0  0  0  0  0  0  0  0  0
    7.9100  -16.2305   26.1865 O   0  0  0  0  0  0  0  0  0  0  0  0
   15.2839  -15.1674   21.0103 N   0  0  0  0  0  0  0  0  0  0  0  0
   14.9230  -15.4897   22.3659 C   0  0  0  0  0  0  0  0  0  0  0  0
   15.7540  -15.3327   23.3214 N   0  0  0  0  0  0  0  0  0  0  0  0
   13.6098  -15.9833   22.5670 N   0  0  0  0  0  0  0  0  0  0  0  0
   13.3572  -16.9162   23.6612 C   0  0  0  0  0  0  0  0  0  0  0  0
   12.0986  -16.4944   24.3885 C   0  0  0  0  0  0  0  0  0  0  0  0
   11.7841  -17.3505   25.5568 C   0  0  0  0  0  0  0  0  0  0  0  0
   10.6202  -16.8923   26.3978 C   0  0  2  0  0  0  0  0  0  0  0  0
   10.0981  -15.6124   25.9009 N   0  0  0  0  0  0  0  0  0  0  0  0
   11.0923  -16.6641   27.7686 C   0  0  0  0  0  0  0  0  0  0  0  0
   11.4491  -17.7236   28.5671 O   0  0  0  0  0  0  0  0  0  0  0  0
   11.1720  -15.5036   28.2170 O   0  0  0  0  0  0  0  0  0  0  0  0
  2  3  1  6
  2  1  1  0
  4  2  1  0
  5  6  1  1
  5  4  1  0
  7  5  1  0
  8  7  2  0
  9  7  1  0
 10  9  1  0
 11 12  1  0
 10 11  1  1
 13 23  1  0
 13 10  1  0
 14 13  2  0
 16 15  1  0
 16 17  2  0
 18 16  1  0
 19 18  1  0
 20 19  1  0
 20 21  1  0
 22 21  1  6
 22 23  1  0
 24 22  1  0
 25 24  1  0
 26 24  2  0
M  END
$$$$
