LCR.pdb
     RDKit          3D

 26 25  0  0  1  0  0  0  0  0999 V2000
    6.2889  -13.3508   19.7334 C   0  0  0  0  0  0  0  0  0  0  0  0
    7.6472  -13.4829   19.0684 C   0  0  1  0  0  0  0  0  0  0  0  0
    7.8507  -12.2315   18.1976 C   0  0  0  0  0  0  0  0  0  0  0  0
    8.7015  -13.5372   20.1333 C   0  0  0  0  0  0  0  0  0  0  0  0
    8.9835  -14.9325   20.6437 C   0  0  2  0  0  0  0  0  0  0  0  0
    7.7209  -15.6586   20.6882 N   0  0  0  0  0  0  0  0  0  0  0  0
    9.6583  -14.9534   21.9584 C   0  0  0  0  0  0  0  0  0  0  0  0
   10.5378  -14.1155   22.2666 O   0  0  0  0  0  0  0  0  0  0  0  0
    9.3419  -15.9400   22.9613 N   0  0  0  0  0  0  0  0  0  0  0  0
   10.1331  -16.0256   24.1589 C   0  0  1  0  0  0  0  0  0  0  0  0
    9.3054  -15.4844   25.3070 C   0  0  0  0  0  0  0  0  0  0  0  0
    7.7654  -16.4359   25.3500 S   0  0  0  0  0  0  0  0  0  0  0  0
   10.6054  -17.4064   24.4323 C   0  0  0  0  0  0  0  0  0  0  0  0
    9.7968  -18.3587   24.2852 O   0  0  0  0  0  0  0  0  0  0  0  0
   17.3601  -16.4984   21.7671 N   0  0  0  0  0  0  0  0  0  0  0  0
   17.6018  -16.3100   23.1734 C   0  0  0  0  0  0  0  0  0  0  0  0
   18.5710  -15.5874   23.5817 N   0  0  0  0  0  0  0  0  0  0  0  0
   16.7106  -16.9664   24.0586 N   0  0  0  0  0  0  0  0  0  0  0  0
   15.6396  -17.7935   23.5106 C   0  0  0  0  0  0  0  0  0  0  0  0
   14.8103  -18.3454   24.6502 C   0  0  0  0  0  0  0  0  0  0  0  0
   13.7158  -19.2368   24.1981 C   0  0  0  0  0  0  0  0  0  0  0  0
   12.4143  -19.0896   24.9437 C   0  0  2  0  0  0  0  0  0  0  0  0
   11.9205  -17.7093   24.8505 N   0  0  0  0  0  0  0  0  0  0  0  0
   12.6528  -19.3687   26.3648 C   0  0  0  0  0  0  0  0  0  0  0  0
   12.9877  -20.6353   26.7785 O   0  0  0  0  0  0  0  0  0  0  0  0
   12.5523  -18.4546   27.2066 O   0  0  0  0  0  0  0  0  0  0  0  0
  2  3  1  6
  2  1  1  0
  4  2  1  0
  5  6  1  1
  5  4  1  0
  7  5  1  0
  8  7  2  0
  9  7  1  0
 10  9  1  0
 11 12  1  0
 10 11  1  1
 13 23  1  0
 13 10  1  0
 14 13  2  0
 16 15  1  0
 16 17  2  0
 18 16  1  0
 19 18  1  0
 20 19  1  0
 20 21  1  0
 22 21  1  6
 22 23  1  0
 24 22  1  0
 25 24  1  0
 26 24  2  0
M  END
$$$$
