LCR.pdb
     RDKit          3D

 26 25  0  0  1  0  0  0  0  0999 V2000
    7.5535  -11.6811   18.3727 C   0  0  0  0  0  0  0  0  0  0  0  0
    7.2946  -12.9835   19.1085 C   0  0  1  0  0  0  0  0  0  0  0  0
    7.4393  -14.1212   18.0837 C   0  0  0  0  0  0  0  0  0  0  0  0
    8.3232  -13.1391   20.1884 C   0  0  0  0  0  0  0  0  0  0  0  0
    8.0702  -14.3118   21.1092 C   0  0  2  0  0  0  0  0  0  0  0  0
    6.6504  -14.6337   21.0474 N   0  0  0  0  0  0  0  0  0  0  0  0
    8.5032  -14.0712   22.5016 C   0  0  0  0  0  0  0  0  0  0  0  0
    9.6492  -13.6446   22.7762 O   0  0  0  0  0  0  0  0  0  0  0  0
    7.6303  -14.3141   23.6233 N   0  0  0  0  0  0  0  0  0  0  0  0
    8.1769  -14.4157   24.9495 C   0  0  1  0  0  0  0  0  0  0  0  0
    7.2049  -13.7586   25.9085 C   0  0  0  0  0  0  0  0  0  0  0  0
    5.5890  -14.5317   25.6442 S   0  0  0  0  0  0  0  0  0  0  0  0
    8.4634  -15.8188   25.3416 C   0  0  0  0  0  0  0  0  0  0  0  0
    7.6466  -16.7152   25.0077 O   0  0  0  0  0  0  0  0  0  0  0  0
   11.1792  -16.2074   20.9029 N   0  0  0  0  0  0  0  0  0  0  0  0
   12.5520  -16.1181   21.3262 C   0  0  0  0  0  0  0  0  0  0  0  0
   13.3286  -15.2242   20.8508 N   0  0  0  0  0  0  0  0  0  0  0  0
   12.9775  -17.0693   22.2868 N   0  0  0  0  0  0  0  0  0  0  0  0
   11.9921  -17.9548   22.9002 C   0  0  0  0  0  0  0  0  0  0  0  0
   11.4878  -17.3211   24.1789 C   0  0  0  0  0  0  0  0  0  0  0  0
   10.4885  -18.1541   24.8892 C   0  0  0  0  0  0  0  0  0  0  0  0
   10.0160  -17.6073   26.2119 C   0  0  2  0  0  0  0  0  0  0  0  0
    9.6097  -16.2025   26.0730 N   0  0  0  0  0  0  0  0  0  0  0  0
   11.1348  -17.6422   27.1612 C   0  0  0  0  0  0  0  0  0  0  0  0
   11.6376  -18.8430   27.6003 O   0  0  0  0  0  0  0  0  0  0  0  0
   11.6362  -16.5787   27.5756 O   0  0  0  0  0  0  0  0  0  0  0  0
  2  3  1  6
  2  1  1  0
  4  2  1  0
  5  6  1  1
  5  4  1  0
  7  5  1  0
  8  7  2  0
  9  7  1  0
 10  9  1  0
 11 12  1  0
 10 11  1  1
 13 23  1  0
 13 10  1  0
 14 13  2  0
 16 15  1  0
 16 17  2  0
 18 16  1  0
 19 18  1  0
 20 19  1  0
 20 21  1  0
 22 21  1  6
 22 23  1  0
 24 22  1  0
 25 24  1  0
 26 24  2  0
M  END
$$$$
