LCR.pdb
     RDKit          3D

 26 25  0  0  1  0  0  0  0  0999 V2000
    6.0977  -17.7134   20.4371 C   0  0  0  0  0  0  0  0  0  0  0  0
    6.5282  -16.2589   20.3751 C   0  0  1  0  0  0  0  0  0  0  0  0
    5.3344  -15.4541   19.8341 C   0  0  0  0  0  0  0  0  0  0  0  0
    6.8653  -15.7970   21.7613 C   0  0  0  0  0  0  0  0  0  0  0  0
    7.4307  -14.3955   21.8181 C   0  0  2  0  0  0  0  0  0  0  0  0
    8.2673  -14.2004   20.6411 N   0  0  0  0  0  0  0  0  0  0  0  0
    8.1812  -14.1132   23.0596 C   0  0  0  0  0  0  0  0  0  0  0  0
    9.4053  -14.3600   23.1661 O   0  0  0  0  0  0  0  0  0  0  0  0
    7.5462  -13.5373   24.2191 N   0  0  0  0  0  0  0  0  0  0  0  0
    8.1844  -13.6247   25.5047 C   0  0  1  0  0  0  0  0  0  0  0  0
    7.5366  -12.6052   26.4197 C   0  0  0  0  0  0  0  0  0  0  0  0
    5.7492  -12.8877   26.3532 S   0  0  0  0  0  0  0  0  0  0  0  0
    8.1199  -14.9915   26.0810 C   0  0  0  0  0  0  0  0  0  0  0  0
    7.2174  -15.7709   25.6808 O   0  0  0  0  0  0  0  0  0  0  0  0
   11.9618  -19.9332   22.1764 N   0  0  0  0  0  0  0  0  0  0  0  0
   12.4412  -20.3149   23.4788 C   0  0  0  0  0  0  0  0  0  0  0  0
   12.3542  -21.5224   23.8822 N   0  0  0  0  0  0  0  0  0  0  0  0
   13.0053  -19.2827   24.2692 N   0  0  0  0  0  0  0  0  0  0  0  0
   12.3102  -18.0033   24.3751 C   0  0  0  0  0  0  0  0  0  0  0  0
   11.3973  -18.0362   25.5821 C   0  0  0  0  0  0  0  0  0  0  0  0
   10.6510  -16.7718   25.7849 C   0  0  0  0  0  0  0  0  0  0  0  0
    9.6877  -16.7702   26.9442 C   0  0  2  0  0  0  0  0  0  0  0  0
    9.0224  -15.4656   27.0592 N   0  0  0  0  0  0  0  0  0  0  0  0
   10.4444  -16.9808   28.1840 C   0  0  0  0  0  0  0  0  0  0  0  0
   10.6698  -15.9363   29.0476 O   0  0  0  0  0  0  0  0  0  0  0  0
   10.8882  -18.1125   28.4607 O   0  0  0  0  0  0  0  0  0  0  0  0
  2  3  1  1
  2  1  1  0
  4  2  1  0
  5  6  1  6
  5  4  1  0
  7  5  1  0
  8  7  2  0
  9  7  1  0
 10  9  1  0
 11 12  1  0
 10 11  1  1
 13 23  1  0
 13 10  1  0
 14 13  2  0
 16 15  1  0
 16 17  2  0
 18 16  1  0
 19 18  1  0
 20 19  1  0
 20 21  1  0
 22 21  1  6
 22 23  1  0
 24 22  1  0
 25 24  1  0
 26 24  2  0
M  END
$$$$
