LCR.pdb
     RDKit          3D

 26 25  0  0  1  0  0  0  0  0999 V2000
    7.6325  -12.0698   18.7862 C   0  0  0  0  0  0  0  0  0  0  0  0
    7.4311  -13.4305   19.4284 C   0  0  1  0  0  0  0  0  0  0  0  0
    7.5012  -14.4785   18.3048 C   0  0  0  0  0  0  0  0  0  0  0  0
    8.5373  -13.6668   20.4128 C   0  0  0  0  0  0  0  0  0  0  0  0
    8.1765  -14.6350   21.5171 C   0  0  2  0  0  0  0  0  0  0  0  0
    6.7932  -15.0480   21.3186 N   0  0  0  0  0  0  0  0  0  0  0  0
    8.3799  -14.0838   22.8732 C   0  0  0  0  0  0  0  0  0  0  0  0
    9.4725  -13.5841   23.2297 O   0  0  0  0  0  0  0  0  0  0  0  0
    7.3313  -14.0900   23.8630 N   0  0  0  0  0  0  0  0  0  0  0  0
    7.6006  -13.6253   25.1969 C   0  0  1  0  0  0  0  0  0  0  0  0
    6.3964  -12.8366   25.6704 C   0  0  0  0  0  0  0  0  0  0  0  0
    6.7320  -12.3208   27.3734 S   0  0  0  0  0  0  0  0  0  0  0  0
    7.9272  -14.7325   26.1307 C   0  0  0  0  0  0  0  0  0  0  0  0
    7.0200  -15.5480   26.4373 O   0  0  0  0  0  0  0  0  0  0  0  0
   13.9698  -19.8371   24.1877 N   0  0  0  0  0  0  0  0  0  0  0  0
   12.5848  -19.6544   23.8411 C   0  0  0  0  0  0  0  0  0  0  0  0
   12.1482  -19.9819   22.6876 N   0  0  0  0  0  0  0  0  0  0  0  0
   11.7530  -19.0979   24.8446 N   0  0  0  0  0  0  0  0  0  0  0  0
   12.3406  -18.7030   26.1213 C   0  0  0  0  0  0  0  0  0  0  0  0
   11.2615  -18.1013   26.9958 C   0  0  0  0  0  0  0  0  0  0  0  0
   10.7166  -16.8310   26.4606 C   0  0  0  0  0  0  0  0  0  0  0  0
    9.6249  -16.1991   27.2856 C   0  0  2  0  0  0  0  0  0  0  0  0
    9.2086  -14.9198   26.6958 N   0  0  0  0  0  0  0  0  0  0  0  0
   10.1557  -15.9068   28.6224 C   0  0  0  0  0  0  0  0  0  0  0  0
   10.4978  -16.9291   29.4740 O   0  0  0  0  0  0  0  0  0  0  0  0
   10.2993  -14.7252   28.9931 O   0  0  0  0  0  0  0  0  0  0  0  0
  2  3  1  6
  2  1  1  0
  4  2  1  0
  5  6  1  6
  5  4  1  0
  7  5  1  0
  8  7  2  0
  9  7  1  0
 10  9  1  0
 11 12  1  0
 10 11  1  1
 13 23  1  0
 13 10  1  0
 14 13  2  0
 16 15  1  0
 16 17  2  0
 18 16  1  0
 19 18  1  0
 20 19  1  0
 20 21  1  0
 22 21  1  6
 22 23  1  0
 24 22  1  0
 25 24  1  0
 26 24  2  0
M  END
$$$$
