LCR.pdb
     RDKit          3D

 26 25  0  0  1  0  0  0  0  0999 V2000
    5.5773  -12.5888   27.3962 C   0  0  0  0  0  0  0  0  0  0  0  0
    6.3589  -12.2384   26.1429 C   0  0  1  0  0  0  0  0  0  0  0  0
    6.6456  -10.7281   26.1931 C   0  0  0  0  0  0  0  0  0  0  0  0
    7.6502  -13.0007   26.1518 C   0  0  0  0  0  0  0  0  0  0  0  0
    7.6214  -14.2617   25.3175 C   0  0  2  0  0  0  0  0  0  0  0  0
    6.5907  -15.1367   25.8610 N   0  0  0  0  0  0  0  0  0  0  0  0
    8.9263  -14.9521   25.2487 C   0  0  0  0  0  0  0  0  0  0  0  0
    9.9685  -14.3659   24.8733 O   0  0  0  0  0  0  0  0  0  0  0  0
    9.0735  -16.3402   25.6101 N   0  0  0  0  0  0  0  0  0  0  0  0
   10.3683  -16.9633   25.5540 C   0  0  1  0  0  0  0  0  0  0  0  0
   10.3666  -18.1349   26.5149 C   0  0  0  0  0  0  0  0  0  0  0  0
   10.2726  -17.4521   28.1893 S   0  0  0  0  0  0  0  0  0  0  0  0
   10.7374  -17.3872   24.1797 C   0  0  0  0  0  0  0  0  0  0  0  0
   10.0903  -18.3241   23.6453 O   0  0  0  0  0  0  0  0  0  0  0  0
    9.0964  -12.2713   18.9844 N   0  0  0  0  0  0  0  0  0  0  0  0
    8.2910  -13.4591   18.8742 C   0  0  0  0  0  0  0  0  0  0  0  0
    7.2176  -13.4625   18.1844 N   0  0  0  0  0  0  0  0  0  0  0  0
    8.7583  -14.6029   19.5684 N   0  0  0  0  0  0  0  0  0  0  0  0
    9.9829  -14.5087   20.3575 C   0  0  0  0  0  0  0  0  0  0  0  0
   10.2841  -15.8623   20.9643 C   0  0  0  0  0  0  0  0  0  0  0  0
   11.7353  -16.1411   21.0796 C   0  0  0  0  0  0  0  0  0  0  0  0
   12.1092  -17.2148   22.0690 C   0  0  2  0  0  0  0  0  0  0  0  0
   11.7813  -16.7916   23.4369 N   0  0  0  0  0  0  0  0  0  0  0  0
   13.5619  -17.4177   22.0155 C   0  0  0  0  0  0  0  0  0  0  0  0
   14.1402  -18.0237   20.9265 O   0  0  0  0  0  0  0  0  0  0  0  0
   14.2809  -17.0398   22.9613 O   0  0  0  0  0  0  0  0  0  0  0  0
  2  3  1  1
  2  1  1  0
  4  2  1  0
  5  6  1  1
  5  4  1  0
  7  5  1  0
  8  7  2  0
  9  7  1  0
 10  9  1  0
 11 12  1  0
 10 11  1  1
 13 23  1  0
 13 10  1  0
 14 13  2  0
 16 15  1  0
 16 17  2  0
 18 16  1  0
 19 18  1  0
 20 19  1  0
 20 21  1  0
 22 21  1  6
 22 23  1  0
 24 22  1  0
 25 24  1  0
 26 24  2  0
M  END
$$$$
