LCR.pdb
     RDKit          3D

 26 25  0  0  1  0  0  0  0  0999 V2000
    2.0956  -20.8275   20.1179 C   0  0  0  0  0  0  0  0  0  0  0  0
    2.2308  -19.5250   20.8859 C   0  0  1  0  0  0  0  0  0  0  0  0
    2.3500  -19.8861   22.3762 C   0  0  0  0  0  0  0  0  0  0  0  0
    3.4770  -18.8254   20.4318 C   0  0  0  0  0  0  0  0  0  0  0  0
    4.3270  -18.2941   21.5643 C   0  0  2  0  0  0  0  0  0  0  0  0
    3.4766  -17.4755   22.4187 N   0  0  0  0  0  0  0  0  0  0  0  0
    5.5112  -17.5374   21.1068 C   0  0  0  0  0  0  0  0  0  0  0  0
    6.4038  -18.0637   20.4019 O   0  0  0  0  0  0  0  0  0  0  0  0
    5.7058  -16.1495   21.4461 N   0  0  0  0  0  0  0  0  0  0  0  0
    6.9160  -15.4780   21.0561 C   0  0  1  0  0  0  0  0  0  0  0  0
    6.5343  -14.1602   20.4129 C   0  0  0  0  0  0  0  0  0  0  0  0
    8.0737  -13.3253   19.9521 S   0  0  0  0  0  0  0  0  0  0  0  0
    7.8487  -15.2781   22.1939 C   0  0  0  0  0  0  0  0  0  0  0  0
    7.4385  -14.6520   23.2048 O   0  0  0  0  0  0  0  0  0  0  0  0
    9.6381  -18.3014   29.0483 N   0  0  0  0  0  0  0  0  0  0  0  0
   10.6025  -17.2414   29.1820 C   0  0  0  0  0  0  0  0  0  0  0  0
   11.2632  -17.0877   30.2628 N   0  0  0  0  0  0  0  0  0  0  0  0
   10.7678  -16.3954   28.0571 N   0  0  0  0  0  0  0  0  0  0  0  0
    9.7700  -16.4206   26.9917 C   0  0  0  0  0  0  0  0  0  0  0  0
   10.4710  -16.6107   25.6637 C   0  0  0  0  0  0  0  0  0  0  0  0
    9.5591  -16.5001   24.5005 C   0  0  0  0  0  0  0  0  0  0  0  0
   10.0506  -15.6245   23.3764 C   0  0  2  0  0  0  0  0  0  0  0  0
    9.1783  -15.7559   22.2019 N   0  0  0  0  0  0  0  0  0  0  0  0
   11.3870  -16.0803   22.9760 C   0  0  0  0  0  0  0  0  0  0  0  0
   12.5070  -15.5817   23.5961 O   0  0  0  0  0  0  0  0  0  0  0  0
   11.5131  -16.9250   22.0678 O   0  0  0  0  0  0  0  0  0  0  0  0
  2  3  1  1
  2  1  1  0
  4  2  1  0
  5  6  1  1
  5  4  1  0
  7  5  1  0
  8  7  2  0
  9  7  1  0
 10  9  1  0
 11 12  1  0
 10 11  1  1
 13 23  1  0
 13 10  1  0
 14 13  2  0
 16 15  1  0
 16 17  2  0
 18 16  1  0
 19 18  1  0
 20 19  1  0
 20 21  1  0
 22 21  1  1
 22 23  1  0
 24 22  1  0
 25 24  1  0
 26 24  2  0
M  END
$$$$
