LCR.pdb
     RDKit          3D

 26 25  0  0  1  0  0  0  0  0999 V2000
    7.5056  -11.4792   18.8198 C   0  0  0  0  0  0  0  0  0  0  0  0
    7.3794  -12.9402   19.2125 C   0  0  1  0  0  0  0  0  0  0  0  0
    8.0223  -13.7703   18.0885 C   0  0  0  0  0  0  0  0  0  0  0  0
    8.1241  -13.1600   20.4953 C   0  0  0  0  0  0  0  0  0  0  0  0
    7.9860  -14.5601   21.0502 C   0  0  2  0  0  0  0  0  0  0  0  0
    6.6087  -14.9903   20.8469 N   0  0  0  0  0  0  0  0  0  0  0  0
    8.3761  -14.6714   22.4714 C   0  0  0  0  0  0  0  0  0  0  0  0
    9.5493  -14.4575   22.8565 O   0  0  0  0  0  0  0  0  0  0  0  0
    7.4274  -15.0326   23.4955 N   0  0  0  0  0  0  0  0  0  0  0  0
    7.8688  -15.2105   24.8524 C   0  0  1  0  0  0  0  0  0  0  0  0
    6.6629  -15.0717   25.7594 C   0  0  0  0  0  0  0  0  0  0  0  0
    6.0591  -13.3731   25.5888 S   0  0  0  0  0  0  0  0  0  0  0  0
    8.5601  -16.5078   25.0611 C   0  0  0  0  0  0  0  0  0  0  0  0
    7.8670  -17.5557   25.1210 O   0  0  0  0  0  0  0  0  0  0  0  0
   13.1529  -14.4890   19.5472 N   0  0  0  0  0  0  0  0  0  0  0  0
   13.0650  -15.7536   20.2287 C   0  0  0  0  0  0  0  0  0  0  0  0
   13.7654  -16.7518   19.8530 N   0  0  0  0  0  0  0  0  0  0  0  0
   12.1671  -15.8174   21.3235 N   0  0  0  0  0  0  0  0  0  0  0  0
   12.5801  -16.4981   22.5472 C   0  0  0  0  0  0  0  0  0  0  0  0
   11.4694  -17.4234   22.9958 C   0  0  0  0  0  0  0  0  0  0  0  0
   11.7338  -18.0605   24.3077 C   0  0  0  0  0  0  0  0  0  0  0  0
   10.6264  -17.9322   25.3221 C   0  0  2  0  0  0  0  0  0  0  0  0
    9.9613  -16.6285   25.1964 N   0  0  0  0  0  0  0  0  0  0  0  0
   11.2118  -17.9915   26.6667 C   0  0  0  0  0  0  0  0  0  0  0  0
   11.0998  -16.9222   27.5220 O   0  0  0  0  0  0  0  0  0  0  0  0
   11.8157  -19.0160   27.0407 O   0  0  0  0  0  0  0  0  0  0  0  0
  2  3  1  6
  2  1  1  0
  4  2  1  0
  5  6  1  1
  5  4  1  0
  7  5  1  0
  8  7  2  0
  9  7  1  0
 10  9  1  0
 11 12  1  0
 10 11  1  1
 13 23  1  0
 13 10  1  0
 14 13  2  0
 16 15  1  0
 16 17  2  0
 18 16  1  0
 19 18  1  0
 20 19  1  0
 20 21  1  0
 22 21  1  6
 22 23  1  0
 24 22  1  0
 25 24  1  0
 26 24  2  0
M  END
$$$$
