LCR.pdb
     RDKit          3D

 26 25  0  0  1  0  0  0  0  0999 V2000
    7.2760  -11.9159   18.3157 C   0  0  0  0  0  0  0  0  0  0  0  0
    7.2633  -13.3404   18.8405 C   0  0  1  0  0  0  0  0  0  0  0  0
    7.6619  -14.2587   17.6728 C   0  0  0  0  0  0  0  0  0  0  0  0
    8.2717  -13.4560   19.9442 C   0  0  0  0  0  0  0  0  0  0  0  0
    8.2021  -14.7632   20.7014 C   0  0  2  0  0  0  0  0  0  0  0  0
    6.7987  -15.1334   20.8310 N   0  0  0  0  0  0  0  0  0  0  0  0
    8.8660  -14.7154   22.0210 C   0  0  0  0  0  0  0  0  0  0  0  0
   10.0957  -14.5040   22.1382 O   0  0  0  0  0  0  0  0  0  0  0  0
    8.1350  -14.9095   23.2487 N   0  0  0  0  0  0  0  0  0  0  0  0
    8.8418  -15.0072   24.4971 C   0  0  1  0  0  0  0  0  0  0  0  0
    7.8774  -14.6517   25.6106 C   0  0  0  0  0  0  0  0  0  0  0  0
    6.5294  -15.8594   25.5552 S   0  0  0  0  0  0  0  0  0  0  0  0
    9.4448  -16.3476   24.7070 C   0  0  0  0  0  0  0  0  0  0  0  0
    8.7093  -17.3619   24.5962 O   0  0  0  0  0  0  0  0  0  0  0  0
   13.9241  -17.2542   20.1880 N   0  0  0  0  0  0  0  0  0  0  0  0
   13.9522  -15.8314   20.4035 C   0  0  0  0  0  0  0  0  0  0  0  0
   13.8974  -15.0177   19.4221 N   0  0  0  0  0  0  0  0  0  0  0  0
   14.0430  -15.4006   21.7507 N   0  0  0  0  0  0  0  0  0  0  0  0
   14.1145  -16.3966   22.8157 C   0  0  0  0  0  0  0  0  0  0  0  0
   12.7200  -16.9077   23.1075 C   0  0  0  0  0  0  0  0  0  0  0  0
   12.6787  -17.8941   24.2131 C   0  0  0  0  0  0  0  0  0  0  0  0
   11.4212  -17.8797   25.0438 C   0  0  2  0  0  0  0  0  0  0  0  0
   10.8070  -16.5455   25.0256 N   0  0  0  0  0  0  0  0  0  0  0  0
   11.7754  -18.1740   26.4374 C   0  0  0  0  0  0  0  0  0  0  0  0
   11.5085  -17.2629   27.4305 O   0  0  0  0  0  0  0  0  0  0  0  0
   12.3222  -19.2560   26.7281 O   0  0  0  0  0  0  0  0  0  0  0  0
  2  3  1  6
  2  1  1  0
  4  2  1  0
  5  6  1  1
  5  4  1  0
  7  5  1  0
  8  7  2  0
  9  7  1  0
 10  9  1  0
 11 12  1  0
 10 11  1  1
 13 23  1  0
 13 10  1  0
 14 13  2  0
 16 15  1  0
 16 17  2  0
 18 16  1  0
 19 18  1  0
 20 19  1  0
 20 21  1  0
 22 21  1  6
 22 23  1  0
 24 22  1  0
 25 24  1  0
 26 24  2  0
M  END
$$$$
