LCR.pdb
     RDKit          3D

 26 25  0  0  1  0  0  0  0  0999 V2000
    6.2300  -21.9200   20.3958 C   0  0  0  0  0  0  0  0  0  0  0  0
    6.1689  -21.2492   21.7563 C   0  0  1  0  0  0  0  0  0  0  0  0
    7.4520  -20.4152   21.9100 C   0  0  0  0  0  0  0  0  0  0  0  0
    4.9705  -20.3489   21.7959 C   0  0  0  0  0  0  0  0  0  0  0  0
    4.8422  -19.5578   23.0784 C   0  0  2  0  0  0  0  0  0  0  0  0
    3.4308  -19.2586   23.2826 N   0  0  0  0  0  0  0  0  0  0  0  0
    5.6573  -18.3251   23.0939 C   0  0  0  0  0  0  0  0  0  0  0  0
    5.5976  -17.4781   22.1721 O   0  0  0  0  0  0  0  0  0  0  0  0
    6.5676  -18.0275   24.1719 N   0  0  0  0  0  0  0  0  0  0  0  0
    7.3334  -16.8107   24.1495 C   0  0  1  0  0  0  0  0  0  0  0  0
    7.2112  -16.1550   25.5101 C   0  0  0  0  0  0  0  0  0  0  0  0
    7.7904  -17.3558   26.7355 S   0  0  0  0  0  0  0  0  0  0  0  0
    8.7536  -17.0381   23.7807 C   0  0  0  0  0  0  0  0  0  0  0  0
    9.2821  -18.1410   24.0748 O   0  0  0  0  0  0  0  0  0  0  0  0
    8.5869  -11.8866   18.9823 N   0  0  0  0  0  0  0  0  0  0  0  0
    8.4794  -13.2258   18.4662 C   0  0  0  0  0  0  0  0  0  0  0  0
    7.5381  -13.5477   17.6671 N   0  0  0  0  0  0  0  0  0  0  0  0
    9.4680  -14.1466   18.8947 N   0  0  0  0  0  0  0  0  0  0  0  0
    9.8348  -14.1950   20.3070 C   0  0  0  0  0  0  0  0  0  0  0  0
   10.8735  -15.2771   20.5101 C   0  0  0  0  0  0  0  0  0  0  0  0
   11.4810  -15.2574   21.8619 C   0  0  0  0  0  0  0  0  0  0  0  0
   10.9667  -16.3052   22.8155 C   0  0  2  0  0  0  0  0  0  0  0  0
    9.5466  -16.0775   23.1139 N   0  0  0  0  0  0  0  0  0  0  0  0
   11.6992  -16.1877   24.0820 C   0  0  0  0  0  0  0  0  0  0  0  0
   13.0573  -16.3912   24.1218 O   0  0  0  0  0  0  0  0  0  0  0  0
   11.0904  -15.9019   25.1317 O   0  0  0  0  0  0  0  0  0  0  0  0
  2  3  1  6
  2  1  1  0
  4  2  1  0
  5  6  1  6
  5  4  1  0
  7  5  1  0
  8  7  2  0
  9  7  1  0
 10  9  1  0
 11 12  1  0
 10 11  1  1
 13 23  1  0
 13 10  1  0
 14 13  2  0
 16 15  1  0
 16 17  2  0
 18 16  1  0
 19 18  1  0
 20 19  1  0
 20 21  1  0
 22 21  1  6
 22 23  1  0
 24 22  1  0
 25 24  1  0
 26 24  2  0
M  END
$$$$
