LCR.pdb
     RDKit          3D

 26 25  0  0  1  0  0  0  0  0999 V2000
    6.7512  -11.8859   19.3867 C   0  0  0  0  0  0  0  0  0  0  0  0
    7.1507  -13.3502   19.4138 C   0  0  1  0  0  0  0  0  0  0  0  0
    8.0077  -13.6109   18.1635 C   0  0  0  0  0  0  0  0  0  0  0  0
    7.9632  -13.6048   20.6481 C   0  0  0  0  0  0  0  0  0  0  0  0
    8.4001  -15.0440   20.8064 C   0  0  2  0  0  0  0  0  0  0  0  0
    7.2117  -15.8845   20.7391 N   0  0  0  0  0  0  0  0  0  0  0  0
    9.1622  -15.2949   22.0475 C   0  0  0  0  0  0  0  0  0  0  0  0
   10.2520  -14.7232   22.2845 O   0  0  0  0  0  0  0  0  0  0  0  0
    8.6939  -16.2125   23.0564 N   0  0  0  0  0  0  0  0  0  0  0  0
    9.4797  -16.4419   24.2385 C   0  0  1  0  0  0  0  0  0  0  0  0
    8.5291  -16.6550   25.3992 C   0  0  0  0  0  0  0  0  0  0  0  0
    9.5339  -17.1058   26.8365 S   0  0  0  0  0  0  0  0  0  0  0  0
   10.4174  -17.5831   24.0867 C   0  0  0  0  0  0  0  0  0  0  0  0
    9.9539  -18.7004   23.7418 O   0  0  0  0  0  0  0  0  0  0  0  0
   17.3562  -18.4958   20.2721 N   0  0  0  0  0  0  0  0  0  0  0  0
   16.7757  -19.7865   20.0103 C   0  0  0  0  0  0  0  0  0  0  0  0
   17.4540  -20.7093   19.4476 N   0  0  0  0  0  0  0  0  0  0  0  0
   15.4275  -19.9631   20.4101 N   0  0  0  0  0  0  0  0  0  0  0  0
   14.7255  -18.8611   21.0613 C   0  0  0  0  0  0  0  0  0  0  0  0
   14.7358  -19.0856   22.5582 C   0  0  0  0  0  0  0  0  0  0  0  0
   13.9608  -18.0679   23.3070 C   0  0  0  0  0  0  0  0  0  0  0  0
   12.7329  -18.5830   24.0130 C   0  0  2  0  0  0  0  0  0  0  0  0
   11.8088  -17.4804   24.3098 N   0  0  0  0  0  0  0  0  0  0  0  0
   13.1390  -19.1648   25.2978 C   0  0  0  0  0  0  0  0  0  0  0  0
   13.8887  -20.3156   25.3346 O   0  0  0  0  0  0  0  0  0  0  0  0
   12.8045  -18.6159   26.3660 O   0  0  0  0  0  0  0  0  0  0  0  0
  2  3  1  6
  2  1  1  0
  4  2  1  0
  5  6  1  1
  5  4  1  0
  7  5  1  0
  8  7  2  0
  9  7  1  0
 10  9  1  0
 11 12  1  0
 10 11  1  1
 13 23  1  0
 13 10  1  0
 14 13  2  0
 16 15  1  0
 16 17  2  0
 18 16  1  0
 19 18  1  0
 20 19  1  0
 20 21  1  0
 22 21  1  1
 22 23  1  0
 24 22  1  0
 25 24  1  0
 26 24  2  0
M  END
$$$$
