LCR.pdb
     RDKit          3D

 26 25  0  0  1  0  0  0  0  0999 V2000
    7.6036  -12.2249   19.2437 C   0  0  0  0  0  0  0  0  0  0  0  0
    7.9340  -13.6437   19.6709 C   0  0  1  0  0  0  0  0  0  0  0  0
    9.1169  -14.1145   18.8080 C   0  0  0  0  0  0  0  0  0  0  0  0
    8.3333  -13.6307   21.1161 C   0  0  0  0  0  0  0  0  0  0  0  0
    8.7387  -14.9862   21.6506 C   0  0  2  0  0  0  0  0  0  0  0  0
    7.5869  -15.8728   21.5473 N   0  0  0  0  0  0  0  0  0  0  0  0
    9.2571  -14.9427   23.0339 C   0  0  0  0  0  0  0  0  0  0  0  0
   10.3252  -14.3552   23.3244 O   0  0  0  0  0  0  0  0  0  0  0  0
    8.5618  -15.5745   24.1278 N   0  0  0  0  0  0  0  0  0  0  0  0
    9.0992  -15.4985   25.4594 C   0  0  1  0  0  0  0  0  0  0  0  0
    8.0963  -14.7670   26.3285 C   0  0  0  0  0  0  0  0  0  0  0  0
    8.8399  -14.5918   27.9702 S   0  0  0  0  0  0  0  0  0  0  0  0
    9.4303  -16.8341   26.0172 C   0  0  0  0  0  0  0  0  0  0  0  0
    8.4994  -17.6631   26.1856 O   0  0  0  0  0  0  0  0  0  0  0  0
   13.5006  -20.0127   31.0618 N   0  0  0  0  0  0  0  0  0  0  0  0
   14.2271  -21.1516   30.5653 C   0  0  0  0  0  0  0  0  0  0  0  0
   14.4905  -22.1436   31.3234 N   0  0  0  0  0  0  0  0  0  0  0  0
   14.6236  -21.1011   29.2055 N   0  0  0  0  0  0  0  0  0  0  0  0
   14.3541  -19.8957   28.4272 C   0  0  0  0  0  0  0  0  0  0  0  0
   12.8843  -19.8590   28.0678 C   0  0  0  0  0  0  0  0  0  0  0  0
   12.4966  -18.6411   27.3172 C   0  0  0  0  0  0  0  0  0  0  0  0
   11.0313  -18.5287   26.9825 C   0  0  2  0  0  0  0  0  0  0  0  0
   10.7412  -17.2253   26.3703 N   0  0  0  0  0  0  0  0  0  0  0  0
   10.2579  -18.6035   28.2277 C   0  0  0  0  0  0  0  0  0  0  0  0
   10.3078  -17.5779   29.1405 O   0  0  0  0  0  0  0  0  0  0  0  0
    9.5494  -19.6017   28.4643 O   0  0  0  0  0  0  0  0  0  0  0  0
  2  3  1  6
  2  1  1  0
  4  2  1  0
  5  6  1  1
  5  4  1  0
  7  5  1  0
  8  7  2  0
  9  7  1  0
 10  9  1  0
 11 12  1  0
 10 11  1  1
 13 23  1  0
 13 10  1  0
 14 13  2  0
 16 15  1  0
 16 17  2  0
 18 16  1  0
 19 18  1  0
 20 19  1  0
 20 21  1  0
 22 21  1  1
 22 23  1  0
 24 22  1  0
 25 24  1  0
 26 24  2  0
M  END
$$$$
