LCR.pdb
     RDKit          3D

 26 25  0  0  1  0  0  0  0  0999 V2000
    7.2693  -11.7408   18.1279 C   0  0  0  0  0  0  0  0  0  0  0  0
    7.4064  -13.2108   18.4812 C   0  0  1  0  0  0  0  0  0  0  0  0
    7.8710  -13.9424   17.2105 C   0  0  0  0  0  0  0  0  0  0  0  0
    8.4420  -13.3532   19.5562 C   0  0  0  0  0  0  0  0  0  0  0  0
    8.5133  -14.7393   20.1568 C   0  0  2  0  0  0  0  0  0  0  0  0
    7.2003  -15.3564   20.0200 N   0  0  0  0  0  0  0  0  0  0  0  0
    8.9639  -14.7488   21.5642 C   0  0  0  0  0  0  0  0  0  0  0  0
   10.1358  -14.4447   21.8881 O   0  0  0  0  0  0  0  0  0  0  0  0
    8.0795  -15.1089   22.6447 N   0  0  0  0  0  0  0  0  0  0  0  0
    8.5874  -15.2050   23.9865 C   0  0  1  0  0  0  0  0  0  0  0  0
    7.4343  -14.9730   24.9418 C   0  0  0  0  0  0  0  0  0  0  0  0
    8.0985  -15.1009   26.6215 S   0  0  0  0  0  0  0  0  0  0  0  0
    9.2593  -16.5026   24.2497 C   0  0  0  0  0  0  0  0  0  0  0  0
    8.6432  -17.5649   23.9773 O   0  0  0  0  0  0  0  0  0  0  0  0
   16.3788  -19.5443   21.6521 N   0  0  0  0  0  0  0  0  0  0  0  0
   16.0838  -20.6382   22.5398 C   0  0  0  0  0  0  0  0  0  0  0  0
   16.9100  -21.5981   22.6957 N   0  0  0  0  0  0  0  0  0  0  0  0
   14.8399  -20.5815   23.2167 N   0  0  0  0  0  0  0  0  0  0  0  0
   13.9757  -19.4203   23.0269 C   0  0  0  0  0  0  0  0  0  0  0  0
   13.5785  -18.8742   24.3815 C   0  0  0  0  0  0  0  0  0  0  0  0
   12.7000  -17.6835   24.2968 C   0  0  0  0  0  0  0  0  0  0  0  0
   11.2979  -17.8780   24.8144 C   0  0  2  0  0  0  0  0  0  0  0  0
   10.5597  -16.6083   24.7920 N   0  0  0  0  0  0  0  0  0  0  0  0
   11.3701  -18.3118   26.2147 C   0  0  0  0  0  0  0  0  0  0  0  0
   10.8462  -17.5278   27.2139 O   0  0  0  0  0  0  0  0  0  0  0  0
   11.9092  -19.3977   26.5055 O   0  0  0  0  0  0  0  0  0  0  0  0
  2  3  1  6
  2  1  1  0
  4  2  1  0
  5  6  1  1
  5  4  1  0
  7  5  1  0
  8  7  2  0
  9  7  1  0
 10  9  1  0
 11 12  1  0
 10 11  1  1
 13 23  1  0
 13 10  1  0
 14 13  2  0
 16 15  1  0
 16 17  2  0
 18 16  1  0
 19 18  1  0
 20 19  1  0
 20 21  1  0
 22 21  1  1
 22 23  1  0
 24 22  1  0
 25 24  1  0
 26 24  2  0
M  END
$$$$
