LCR.pdb
     RDKit          3D

 26 25  0  0  1  0  0  0  0  0999 V2000
    6.7432  -12.5944   19.4674 C   0  0  0  0  0  0  0  0  0  0  0  0
    7.5706  -13.8668   19.4989 C   0  0  1  0  0  0  0  0  0  0  0  0
    8.3211  -13.9543   18.1592 C   0  0  0  0  0  0  0  0  0  0  0  0
    8.5543  -13.7736   20.6267 C   0  0  0  0  0  0  0  0  0  0  0  0
    8.3561  -14.8215   21.6990 C   0  0  2  0  0  0  0  0  0  0  0  0
    6.9789  -15.2909   21.6195 N   0  0  0  0  0  0  0  0  0  0  0  0
    8.6791  -14.3410   23.0588 C   0  0  0  0  0  0  0  0  0  0  0  0
    9.8221  -13.9264   23.3623 O   0  0  0  0  0  0  0  0  0  0  0  0
    7.6958  -14.3223   24.1133 N   0  0  0  0  0  0  0  0  0  0  0  0
    8.0625  -13.8717   25.4287 C   0  0  1  0  0  0  0  0  0  0  0  0
    6.9123  -13.0547   25.9817 C   0  0  0  0  0  0  0  0  0  0  0  0
    7.3870  -12.5228   27.6463 S   0  0  0  0  0  0  0  0  0  0  0  0
    8.4197  -14.9917   26.3356 C   0  0  0  0  0  0  0  0  0  0  0  0
    7.5099  -15.7748   26.7113 O   0  0  0  0  0  0  0  0  0  0  0  0
   11.1324  -17.1068   23.1071 N   0  0  0  0  0  0  0  0  0  0  0  0
   11.8791  -18.3335   23.0095 C   0  0  0  0  0  0  0  0  0  0  0  0
   12.5106  -18.6343   21.9423 N   0  0  0  0  0  0  0  0  0  0  0  0
   11.8678  -19.1698   24.1536 N   0  0  0  0  0  0  0  0  0  0  0  0
   12.1724  -18.5959   25.4610 C   0  0  0  0  0  0  0  0  0  0  0  0
   10.9586  -17.8450   25.9650 C   0  0  0  0  0  0  0  0  0  0  0  0
   11.2013  -17.1319   27.2416 C   0  0  0  0  0  0  0  0  0  0  0  0
   10.0476  -16.3043   27.7475 C   0  0  2  0  0  0  0  0  0  0  0  0
    9.7330  -15.2260   26.8009 N   0  0  0  0  0  0  0  0  0  0  0  0
   10.4431  -15.6697   29.0104 C   0  0  0  0  0  0  0  0  0  0  0  0
   10.6715  -16.4318   30.1305 O   0  0  0  0  0  0  0  0  0  0  0  0
   10.5741  -14.4315   29.0734 O   0  0  0  0  0  0  0  0  0  0  0  0
  2  3  1  6
  2  1  1  0
  4  2  1  0
  5  6  1  1
  5  4  1  0
  7  5  1  0
  8  7  2  0
  9  7  1  0
 10  9  1  0
 11 12  1  0
 10 11  1  1
 13 23  1  0
 13 10  1  0
 14 13  2  0
 16 15  1  0
 16 17  2  0
 18 16  1  0
 19 18  1  0
 20 19  1  0
 20 21  1  0
 22 21  1  6
 22 23  1  0
 24 22  1  0
 25 24  1  0
 26 24  2  0
M  END
$$$$
