LCR.pdb
     RDKit          3D

 26 25  0  0  1  0  0  0  0  0999 V2000
    6.8433  -13.2201   19.8426 C   0  0  0  0  0  0  0  0  0  0  0  0
    7.7482  -14.3463   19.3764 C   0  0  1  0  0  0  0  0  0  0  0  0
    8.3149  -13.9367   18.0065 C   0  0  0  0  0  0  0  0  0  0  0  0
    8.8671  -14.5043   20.3620 C   0  0  0  0  0  0  0  0  0  0  0  0
    8.5149  -15.3661   21.5538 C   0  0  2  0  0  0  0  0  0  0  0  0
    7.1236  -15.7768   21.4160 N   0  0  0  0  0  0  0  0  0  0  0  0
    8.7491  -14.6998   22.8520 C   0  0  0  0  0  0  0  0  0  0  0  0
    9.8653  -14.2206   23.1605 O   0  0  0  0  0  0  0  0  0  0  0  0
    7.7052  -14.5635   23.8374 N   0  0  0  0  0  0  0  0  0  0  0  0
    7.9799  -13.9102   25.0886 C   0  0  1  0  0  0  0  0  0  0  0  0
    6.7165  -13.2026   25.5350 C   0  0  0  0  0  0  0  0  0  0  0  0
    7.1000  -12.3544   27.0882 S   0  0  0  0  0  0  0  0  0  0  0  0
    8.4722  -14.8510   26.1264 C   0  0  0  0  0  0  0  0  0  0  0  0
    7.6833  -15.7253   26.5684 O   0  0  0  0  0  0  0  0  0  0  0  0
   11.8050  -21.0579   29.1401 N   0  0  0  0  0  0  0  0  0  0  0  0
   12.0541  -20.2183   30.2824 C   0  0  0  0  0  0  0  0  0  0  0  0
   12.0166  -20.6927   31.4663 N   0  0  0  0  0  0  0  0  0  0  0  0
   12.3383  -18.8563   30.0123 N   0  0  0  0  0  0  0  0  0  0  0  0
   11.8512  -18.2571   28.7733 C   0  0  0  0  0  0  0  0  0  0  0  0
   12.2543  -16.7986   28.7390 C   0  0  0  0  0  0  0  0  0  0  0  0
   11.6664  -16.0566   27.5985 C   0  0  0  0  0  0  0  0  0  0  0  0
   10.2136  -15.6852   27.7507 C   0  0  2  0  0  0  0  0  0  0  0  0
    9.7855  -14.8165   26.6462 N   0  0  0  0  0  0  0  0  0  0  0  0
   10.0523  -14.9183   28.9917 C   0  0  0  0  0  0  0  0  0  0  0  0
   10.0938  -13.5452   28.9716 O   0  0  0  0  0  0  0  0  0  0  0  0
    9.8763  -15.5112   30.0742 O   0  0  0  0  0  0  0  0  0  0  0  0
  2  3  1  6
  2  1  1  0
  4  2  1  0
  5  6  1  6
  5  4  1  0
  7  5  1  0
  8  7  2  0
  9  7  1  0
 10  9  1  0
 11 12  1  0
 10 11  1  1
 13 23  1  0
 13 10  1  0
 14 13  2  0
 16 15  1  0
 16 17  2  0
 18 16  1  0
 19 18  1  0
 20 19  1  0
 20 21  1  0
 22 21  1  6
 22 23  1  0
 24 22  1  0
 25 24  1  0
 26 24  2  0
M  END
$$$$
