SVA.pdb
     RDKit          3D

 19 18  0  0  1  0  0  0  0  0999 V2000
   14.9189   -9.2532  -16.3302 O   0  0  0  0  0  0  0  0  0  0  0  0
   16.0737   -9.0754  -15.6083 C   0  0  0  0  0  0  0  0  0  0  0  0
   17.1411  -10.0804  -16.0283 C   0  0  2  0  0  0  0  0  0  0  0  0
   16.7443  -11.3593  -15.5271 N   0  0  0  0  0  0  0  0  0  0  0  0
   18.4814   -9.6726  -15.5193 C   0  0  0  0  0  0  0  0  0  0  0  0
   18.7993   -9.9101  -14.3403 O   0  0  0  0  0  0  0  0  0  0  0  0
   21.9078  -10.5124  -17.1474 C   0  0  0  0  0  0  0  0  0  0  0  0
   21.7144   -9.0479  -16.9589 C   0  0  2  0  0  0  0  0  0  0  0  0
   23.0703   -8.4276  -16.6070 C   0  0  0  0  0  0  0  0  0  0  0  0
   20.7742   -8.6528  -15.8478 C   0  0  2  0  0  0  0  0  0  0  0  0
   19.4268   -9.0110  -16.3446 N   0  0  0  0  0  0  0  0  0  0  0  0
   20.8694   -7.2065  -15.6219 C   0  0  0  0  0  0  0  0  0  0  0  0
   20.5930   -6.4324  -16.6022 O   0  0  0  0  0  0  0  0  0  0  0  0
   21.4491   -4.7418  -12.8490 C   0  0  0  0  0  0  0  0  0  0  0  0
   21.2744   -5.0835  -14.3333 C   0  0  2  0  0  0  0  0  0  0  0  0
   21.2349   -6.5527  -14.4270 N   0  0  0  0  0  0  0  0  0  0  0  0
   22.4341   -4.5338  -15.0449 C   0  0  0  0  0  0  0  0  0  0  0  0
   23.4212   -5.2714  -15.2600 O   0  0  0  0  0  0  0  0  0  0  0  0
   22.4516   -3.2244  -15.4772 O   0  0  0  0  0  0  0  0  0  0  0  0
  2  1  1  0
  3  2  1  0
  3  4  1  1
  5 11  1  0
  5  3  1  0
  6  5  2  0
  8  7  1  1
  8 10  1  0
  9  8  1  0
 10 12  1  0
 10 11  1  6
 12 16  1  0
 13 12  2  0
 15 14  1  1
 16 15  1  0
 17 15  1  0
 17 19  1  0
 18 17  2  0
M  END
$$$$
