SVA.pdb
     RDKit          3D

 19 18  0  0  1  0  0  0  0  0999 V2000
   21.9231  -10.7484  -21.3734 O   0  0  0  0  0  0  0  0  0  0  0  0
   21.1862  -10.3891  -20.2714 C   0  0  0  0  0  0  0  0  0  0  0  0
   21.5633  -11.2371  -19.0613 C   0  0  2  0  0  0  0  0  0  0  0  0
   21.0377  -12.5489  -19.2786 N   0  0  0  0  0  0  0  0  0  0  0  0
   21.0419  -10.6278  -17.8049 C   0  0  0  0  0  0  0  0  0  0  0  0
   19.8886  -10.8875  -17.4179 O   0  0  0  0  0  0  0  0  0  0  0  0
   22.8237  -10.5254  -14.3685 C   0  0  0  0  0  0  0  0  0  0  0  0
   22.4135   -9.1602  -14.7991 C   0  0  2  0  0  0  0  0  0  0  0  0
   21.9234   -8.3963  -13.5648 C   0  0  0  0  0  0  0  0  0  0  0  0
   21.2859   -9.1040  -15.7991 C   0  0  2  0  0  0  0  0  0  0  0  0
   21.8266   -9.7456  -17.0182 N   0  0  0  0  0  0  0  0  0  0  0  0
   20.9428   -7.7030  -16.0664 C   0  0  0  0  0  0  0  0  0  0  0  0
   21.8862   -6.9191  -16.4300 O   0  0  0  0  0  0  0  0  0  0  0  0
   18.2420   -5.5552  -17.1448 C   0  0  0  0  0  0  0  0  0  0  0  0
   19.4711   -5.6690  -16.2356 C   0  0  2  0  0  0  0  0  0  0  0  0
   19.6697   -7.1040  -15.9707 N   0  0  0  0  0  0  0  0  0  0  0  0
   19.1679   -4.9349  -15.0016 C   0  0  0  0  0  0  0  0  0  0  0  0
   18.6310   -5.5425  -14.0490 O   0  0  0  0  0  0  0  0  0  0  0  0
   19.4642   -3.5938  -14.8775 O   0  0  0  0  0  0  0  0  0  0  0  0
  2  1  1  0
  3  2  1  0
  3  4  1  6
  5 11  1  0
  5  3  1  0
  6  5  2  0
  8  7  1  1
  8 10  1  0
  9  8  1  0
 10 12  1  0
 10 11  1  6
 12 16  1  0
 13 12  2  0
 15 14  1  6
 16 15  1  0
 17 15  1  0
 17 19  1  0
 18 17  2  0
M  END
$$$$
