SVA.pdb
     RDKit          3D

 19 18  0  0  1  0  0  0  0  0999 V2000
   17.2089   -9.9215  -19.5619 O   0  0  0  0  0  0  0  0  0  0  0  0
   17.5449   -9.4851  -18.3037 C   0  0  0  0  0  0  0  0  0  0  0  0
   18.1143  -10.6237  -17.4640 C   0  0  2  0  0  0  0  0  0  0  0  0
   17.0236  -11.4747  -17.1028 N   0  0  0  0  0  0  0  0  0  0  0  0
   18.8285  -10.0933  -16.2679 C   0  0  0  0  0  0  0  0  0  0  0  0
   18.2147   -9.9253  -15.1990 O   0  0  0  0  0  0  0  0  0  0  0  0
   22.1106  -11.5075  -14.8131 C   0  0  0  0  0  0  0  0  0  0  0  0
   22.2234  -10.0487  -15.0897 C   0  0  2  0  0  0  0  0  0  0  0  0
   23.0771   -9.4169  -13.9854 C   0  0  0  0  0  0  0  0  0  0  0  0
   20.9228   -9.2851  -15.0996 C   0  0  2  0  0  0  0  0  0  0  0  0
   20.2086   -9.7665  -16.3031 N   0  0  0  0  0  0  0  0  0  0  0  0
   21.2030   -7.8494  -15.2099 C   0  0  0  0  0  0  0  0  0  0  0  0
   21.9913   -7.4676  -16.1424 O   0  0  0  0  0  0  0  0  0  0  0  0
   19.8081   -4.5839  -14.1860 C   0  0  0  0  0  0  0  0  0  0  0  0
   21.0176   -5.4029  -14.6514 C   0  0  2  0  0  0  0  0  0  0  0  0
   20.6949   -6.8167  -14.3949 N   0  0  0  0  0  0  0  0  0  0  0  0
   22.1705   -4.9653  -13.8557 C   0  0  0  0  0  0  0  0  0  0  0  0
   22.4221   -5.5487  -12.7781 O   0  0  0  0  0  0  0  0  0  0  0  0
   22.9752   -3.9272  -14.2757 O   0  0  0  0  0  0  0  0  0  0  0  0
  2  1  1  0
  3  2  1  0
  3  4  1  1
  5 11  1  0
  5  3  1  0
  6  5  2  0
  8  7  1  1
  8 10  1  0
  9  8  1  0
 10 12  1  0
 10 11  1  6
 12 16  1  0
 13 12  2  0
 15 14  1  1
 16 15  1  0
 17 15  1  0
 17 19  1  0
 18 17  2  0
M  END
$$$$
