SVA.pdb
     RDKit          3D

 19 18  0  0  1  0  0  0  0  0999 V2000
   25.2525  -11.2082  -15.3670 O   0  0  0  0  0  0  0  0  0  0  0  0
   24.8385  -12.1287  -16.2985 C   0  0  0  0  0  0  0  0  0  0  0  0
   23.3422  -12.3963  -16.1753 C   0  0  2  0  0  0  0  0  0  0  0  0
   23.0215  -13.4542  -17.0821 N   0  0  0  0  0  0  0  0  0  0  0  0
   22.5585  -11.1607  -16.4592 C   0  0  0  0  0  0  0  0  0  0  0  0
   22.4216  -10.7646  -17.6305 O   0  0  0  0  0  0  0  0  0  0  0  0
   18.9704  -10.3842  -15.8453 C   0  0  0  0  0  0  0  0  0  0  0  0
   19.8249   -9.4051  -15.1182 C   0  0  2  0  0  0  0  0  0  0  0  0
   19.1148   -8.0476  -15.1319 C   0  0  0  0  0  0  0  0  0  0  0  0
   21.1913   -9.1669  -15.7106 C   0  0  2  0  0  0  0  0  0  0  0  0
   21.9508  -10.4044  -15.4241 N   0  0  0  0  0  0  0  0  0  0  0  0
   21.8152   -8.0173  -15.0466 C   0  0  0  0  0  0  0  0  0  0  0  0
   22.0163   -8.0963  -13.7857 O   0  0  0  0  0  0  0  0  0  0  0  0
   23.2608   -4.6385  -15.8460 C   0  0  0  0  0  0  0  0  0  0  0  0
   22.8274   -5.7218  -14.8516 C   0  0  2  0  0  0  0  0  0  0  0  0
   22.2310   -6.8098  -15.6449 N   0  0  0  0  0  0  0  0  0  0  0  0
   21.8407   -5.1146  -13.9508 C   0  0  0  0  0  0  0  0  0  0  0  0
   22.2394   -4.5125  -12.9294 O   0  0  0  0  0  0  0  0  0  0  0  0
   20.4892   -5.1976  -14.2121 O   0  0  0  0  0  0  0  0  0  0  0  0
  2  1  1  0
  3  2  1  0
  3  4  1  6
  5 11  1  0
  5  3  1  0
  6  5  2  0
  8  7  1  6
  8 10  1  0
  9  8  1  0
 10 12  1  0
 10 11  1  1
 12 16  1  0
 13 12  2  0
 15 14  1  6
 16 15  1  0
 17 15  1  0
 17 19  1  0
 18 17  2  0
M  END
$$$$
