SVA.pdb
     RDKit          3D

 19 18  0  0  1  0  0  0  0  0999 V2000
   20.7855  -11.8795  -21.4945 O   0  0  0  0  0  0  0  0  0  0  0  0
   20.6443  -11.5930  -20.1587 C   0  0  0  0  0  0  0  0  0  0  0  0
   21.3732  -10.3035  -19.7961 C   0  0  2  0  0  0  0  0  0  0  0  0
   22.7533  -10.4871  -20.1211 N   0  0  0  0  0  0  0  0  0  0  0  0
   21.1780   -9.9722  -18.3559 C   0  0  0  0  0  0  0  0  0  0  0  0
   20.0306   -9.8116  -17.9031 O   0  0  0  0  0  0  0  0  0  0  0  0
   23.0548  -11.8096  -15.4776 C   0  0  0  0  0  0  0  0  0  0  0  0
   23.1382  -10.3315  -15.3172 C   0  0  2  0  0  0  0  0  0  0  0  0
   22.9896  -10.0027  -13.8282 C   0  0  0  0  0  0  0  0  0  0  0  0
   22.0707   -9.5379  -16.0280 C   0  0  2  0  0  0  0  0  0  0  0  0
   22.2727   -9.8305  -17.4647 N   0  0  0  0  0  0  0  0  0  0  0  0
   22.2699   -8.1090  -15.7631 C   0  0  0  0  0  0  0  0  0  0  0  0
   23.4291   -7.6182  -15.9912 O   0  0  0  0  0  0  0  0  0  0  0  0
   20.3289   -4.9903  -15.2851 C   0  0  0  0  0  0  0  0  0  0  0  0
   21.6388   -5.7651  -15.1001 C   0  0  2  0  0  0  0  0  0  0  0  0
   21.3155   -7.1907  -15.2785 N   0  0  0  0  0  0  0  0  0  0  0  0
   22.1165   -5.4918  -13.7397 C   0  0  0  0  0  0  0  0  0  0  0  0
   22.7453   -4.4336  -13.5171 O   0  0  0  0  0  0  0  0  0  0  0  0
   21.8839   -6.3788  -12.7096 O   0  0  0  0  0  0  0  0  0  0  0  0
  2  1  1  0
  3  2  1  0
  3  4  1  1
  5 11  1  0
  5  3  1  0
  6  5  2  0
  8  7  1  1
  8 10  1  0
  9  8  1  0
 10 12  1  0
 10 11  1  6
 12 16  1  0
 13 12  2  0
 15 14  1  1
 16 15  1  0
 17 15  1  0
 17 19  1  0
 18 17  2  0
M  END
$$$$
