SVA.pdb
     RDKit          3D

 19 18  0  0  1  0  0  0  0  0999 V2000
   19.8807  -14.0547  -16.4164 O   0  0  0  0  0  0  0  0  0  0  0  0
   18.8484  -13.1593  -16.2790 C   0  0  0  0  0  0  0  0  0  0  0  0
   17.9517  -13.5349  -15.1040 C   0  0  2  0  0  0  0  0  0  0  0  0
   17.1544  -14.6487  -15.5142 N   0  0  0  0  0  0  0  0  0  0  0  0
   17.1158  -12.3745  -14.6840 C   0  0  0  0  0  0  0  0  0  0  0  0
   15.9876  -12.2067  -15.1805 O   0  0  0  0  0  0  0  0  0  0  0  0
   16.1032  -11.4796  -11.1406 C   0  0  0  0  0  0  0  0  0  0  0  0
   16.7743  -10.3186  -11.7880 C   0  0  2  0  0  0  0  0  0  0  0  0
   16.0724   -9.0391  -11.3215 C   0  0  0  0  0  0  0  0  0  0  0  0
   16.7252  -10.2952  -13.2952 C   0  0  2  0  0  0  0  0  0  0  0  0
   17.5669  -11.4358  -13.7207 N   0  0  0  0  0  0  0  0  0  0  0  0
   17.2909   -9.0317  -13.7804 C   0  0  0  0  0  0  0  0  0  0  0  0
   18.4239   -8.6685  -13.3102 O   0  0  0  0  0  0  0  0  0  0  0  0
   16.6729   -6.3814  -16.3624 C   0  0  0  0  0  0  0  0  0  0  0  0
   17.4003   -6.9030  -15.1177 C   0  0  2  0  0  0  0  0  0  0  0  0
   16.7244   -8.1512  -14.7251 N   0  0  0  0  0  0  0  0  0  0  0  0
   17.2719   -5.8759  -14.0774 C   0  0  0  0  0  0  0  0  0  0  0  0
   16.3007   -5.9255  -13.2907 O   0  0  0  0  0  0  0  0  0  0  0  0
   18.2003   -4.8635  -13.9552 O   0  0  0  0  0  0  0  0  0  0  0  0
  2  1  1  0
  3  2  1  0
  3  4  1  6
  5 11  1  0
  5  3  1  0
  6  5  2  0
  8  7  1  1
  8 10  1  0
  9  8  1  0
 10 12  1  0
 10 11  1  6
 12 16  1  0
 13 12  2  0
 15 14  1  6
 16 15  1  0
 17 15  1  0
 17 19  1  0
 18 17  2  0
M  END
$$$$
