SVA.pdb
     RDKit          3D

 19 18  0  0  1  0  0  0  0  0999 V2000
   19.3789  -10.0736  -20.7930 O   0  0  0  0  0  0  0  0  0  0  0  0
   19.1687   -9.6650  -19.4986 C   0  0  0  0  0  0  0  0  0  0  0  0
   19.4321  -10.8019  -18.5169 C   0  0  2  0  0  0  0  0  0  0  0  0
   18.2994  -11.6733  -18.5586 N   0  0  0  0  0  0  0  0  0  0  0  0
   19.6778  -10.2709  -17.1459 C   0  0  0  0  0  0  0  0  0  0  0  0
   18.7203  -10.0379  -16.3868 O   0  0  0  0  0  0  0  0  0  0  0  0
   22.9341   -9.8176  -13.4605 C   0  0  0  0  0  0  0  0  0  0  0  0
   22.4371  -10.2281  -14.8028 C   0  0  2  0  0  0  0  0  0  0  0  0
   23.5478   -9.9660  -15.8250 C   0  0  0  0  0  0  0  0  0  0  0  0
   21.2249   -9.4840  -15.3042 C   0  0  2  0  0  0  0  0  0  0  0  0
   20.9879  -10.0162  -16.6647 N   0  0  0  0  0  0  0  0  0  0  0  0
   21.5243   -8.0490  -15.3602 C   0  0  0  0  0  0  0  0  0  0  0  0
   22.3548   -7.6494  -16.2474 O   0  0  0  0  0  0  0  0  0  0  0  0
   20.1581   -4.7823  -14.7485 C   0  0  0  0  0  0  0  0  0  0  0  0
   21.4300   -5.6338  -14.6606 C   0  0  2  0  0  0  0  0  0  0  0  0
   20.9931   -7.0347  -14.5368 N   0  0  0  0  0  0  0  0  0  0  0  0
   22.1643   -5.1957  -13.4680 C   0  0  0  0  0  0  0  0  0  0  0  0
   22.0264   -5.8335  -12.4007 O   0  0  0  0  0  0  0  0  0  0  0  0
   22.9987   -4.0985  -13.5062 O   0  0  0  0  0  0  0  0  0  0  0  0
  2  1  1  0
  3  2  1  0
  3  4  1  1
  5 11  1  0
  5  3  1  0
  6  5  2  0
  8  7  1  1
  8 10  1  0
  9  8  1  0
 10 12  1  0
 10 11  1  6
 12 16  1  0
 13 12  2  0
 15 14  1  1
 16 15  1  0
 17 15  1  0
 17 19  1  0
 18 17  2  0
M  END
$$$$
