SVA.pdb
     RDKit          3D

 19 18  0  0  1  0  0  0  0  0999 V2000
   28.4217  -19.3314  -16.9030 O   0  0  0  0  0  0  0  0  0  0  0  0
   27.3729  -19.9746  -16.2925 C   0  0  0  0  0  0  0  0  0  0  0  0
   27.8706  -20.9242  -15.2080 C   0  0  2  0  0  0  0  0  0  0  0  0
   28.5177  -22.0183  -15.8625 N   0  0  0  0  0  0  0  0  0  0  0  0
   26.7438  -21.3779  -14.3440 C   0  0  0  0  0  0  0  0  0  0  0  0
   26.1312  -22.4254  -14.6174 O   0  0  0  0  0  0  0  0  0  0  0  0
   26.6783  -20.8707  -10.2969 C   0  0  0  0  0  0  0  0  0  0  0  0
   25.4455  -20.4417  -11.0135 C   0  0  2  0  0  0  0  0  0  0  0  0
   24.2366  -20.8046  -10.1451 C   0  0  0  0  0  0  0  0  0  0  0  0
   25.2089  -21.0958  -12.3517 C   0  0  2  0  0  0  0  0  0  0  0  0
   26.3357  -20.6459  -13.1992 N   0  0  0  0  0  0  0  0  0  0  0  0
   23.9333  -20.6263  -12.9034 C   0  0  0  0  0  0  0  0  0  0  0  0
   23.7653  -19.3635  -13.0206 O   0  0  0  0  0  0  0  0  0  0  0  0
   21.1059  -21.7152  -14.9731 C   0  0  0  0  0  0  0  0  0  0  0  0
   21.6052  -20.8109  -13.8402 C   0  0  2  0  0  0  0  0  0  0  0  0
   22.8471  -21.4173  -13.3314 N   0  0  0  0  0  0  0  0  0  0  0  0
   20.5605  -20.7885  -12.8099 C   0  0  0  0  0  0  0  0  0  0  0  0
   20.6533  -21.5642  -11.8329 O   0  0  0  0  0  0  0  0  0  0  0  0
   19.4848  -19.9306  -12.9024 O   0  0  0  0  0  0  0  0  0  0  0  0
  2  1  1  0
  3  2  1  0
  3  4  1  6
  5 11  1  0
  5  3  1  0
  6  5  2  0
  8  7  1  1
  8 10  1  0
  9  8  1  0
 10 12  1  0
 10 11  1  6
 12 16  1  0
 13 12  2  0
 15 14  1  6
 16 15  1  0
 17 15  1  0
 17 19  1  0
 18 17  2  0
M  END
$$$$
