SVA.pdb
     RDKit          3D

 19 18  0  0  1  0  0  0  0  0999 V2000
   18.4177  -11.8549  -19.0170 O   0  0  0  0  0  0  0  0  0  0  0  0
   18.9902  -11.2644  -17.9170 C   0  0  0  0  0  0  0  0  0  0  0  0
   20.1206  -12.1240  -17.3612 C   0  0  2  0  0  0  0  0  0  0  0  0
   19.5353  -13.3303  -16.8646 N   0  0  0  0  0  0  0  0  0  0  0  0
   20.8715  -11.3909  -16.3027 C   0  0  0  0  0  0  0  0  0  0  0  0
   20.4493  -11.3801  -15.1326 O   0  0  0  0  0  0  0  0  0  0  0  0
   24.7517  -11.4258  -15.4903 C   0  0  0  0  0  0  0  0  0  0  0  0
   24.2242  -10.0706  -15.8104 C   0  0  2  0  0  0  0  0  0  0  0  0
   24.9493   -9.0532  -14.9236 C   0  0  0  0  0  0  0  0  0  0  0  0
   22.7511   -9.8686  -15.5579 C   0  0  2  0  0  0  0  0  0  0  0  0
   22.0731  -10.6913  -16.5846 N   0  0  0  0  0  0  0  0  0  0  0  0
   22.4176   -8.4511  -15.7347 C   0  0  0  0  0  0  0  0  0  0  0  0
   22.6880   -7.9132  -16.8636 O   0  0  0  0  0  0  0  0  0  0  0  0
   20.0281   -5.9817  -14.6744 C   0  0  0  0  0  0  0  0  0  0  0  0
   21.4781   -6.1984  -15.1226 C   0  0  2  0  0  0  0  0  0  0  0  0
   21.8196   -7.5918  -14.7898 N   0  0  0  0  0  0  0  0  0  0  0  0
   22.3107   -5.2507  -14.3728 C   0  0  0  0  0  0  0  0  0  0  0  0
   22.8402   -5.6216  -13.3018 O   0  0  0  0  0  0  0  0  0  0  0  0
   22.5166   -3.9655  -14.8285 O   0  0  0  0  0  0  0  0  0  0  0  0
  2  1  1  0
  3  2  1  0
  3  4  1  1
  5 11  1  0
  5  3  1  0
  6  5  2  0
  8  7  1  1
  8 10  1  0
  9  8  1  0
 10 12  1  0
 10 11  1  6
 12 16  1  0
 13 12  2  0
 15 14  1  1
 16 15  1  0
 17 15  1  0
 17 19  1  0
 18 17  2  0
M  END
$$$$
