DYT.pdb
     RDKit          3D

 28 28  0  0  1  0  0  0  0  0999 V2000
   12.4023  -17.1238   18.3337 N   0  0  0  0  0  0  0  0  0  0  0  0
   13.2462  -15.9342   18.5359 C   0  0  1  0  0  0  0  0  0  0  0  0
   13.2631  -15.0963   17.3017 C   0  0  0  0  0  0  0  0  0  0  0  0
   14.1035  -15.6068   16.2176 C   0  0  0  0  0  0  0  0  0  0  0  0
   14.2157  -16.8077   15.9159 O   0  0  0  0  0  0  0  0  0  0  0  0
   12.6263  -15.1895   19.6911 C   0  0  0  0  0  0  0  0  0  0  0  0
   13.1085  -14.1160   20.0685 O   0  0  0  0  0  0  0  0  0  0  0  0
   14.8577  -14.7089   15.4325 O   0  0  0  0  0  0  0  0  0  0  0  0
    7.4247  -12.6783   16.7020 O   0  0  0  0  0  0  0  0  0  0  0  0
    7.9236  -13.2069   17.8821 C   0  0  0  0  0  0  0  0  0  0  0  0
    8.5393  -12.4071   18.8522 C   0  0  0  0  0  0  0  0  0  0  0  0
    9.0099  -13.0022   19.9978 C   0  0  0  0  0  0  0  0  0  0  0  0
    8.8952  -14.3766   20.2272 C   0  0  0  0  0  0  0  0  0  0  0  0
    9.4500  -14.9310   21.4400 C   0  0  0  0  0  0  0  0  0  0  0  0
   10.9236  -15.0545   21.5743 C   0  0  2  0  0  0  0  0  0  0  0  0
   11.4737  -15.7105   20.3667 N   0  0  0  0  0  0  0  0  0  0  0  0
   11.3587  -15.8711   22.7061 C   0  0  0  0  0  0  0  0  0  0  0  0
   10.9420  -15.5548   23.8787 O   0  0  0  0  0  0  0  0  0  0  0  0
    8.2817  -15.1361   19.2480 C   0  0  0  0  0  0  0  0  0  0  0  0
    7.8017  -14.5662   18.0923 C   0  0  0  0  0  0  0  0  0  0  0  0
   10.8246  -19.5566   23.1056 C   0  0  0  0  0  0  0  0  0  0  0  0
   12.2610  -19.3097   23.5194 C   0  0  1  0  0  0  0  0  0  0  0  0
   13.0880  -19.6166   22.4365 O   0  0  0  0  0  0  0  0  0  0  0  0
   12.4393  -17.8375   23.8484 C   0  0  2  0  0  0  0  0  0  0  0  0
   12.2015  -17.0081   22.6867 N   0  0  0  0  0  0  0  0  0  0  0  0
   13.6919  -17.5603   24.5352 C   0  0  0  0  0  0  0  0  0  0  0  0
   13.9932  -18.0335   25.7877 O   0  0  0  0  0  0  0  0  0  0  0  0
   14.5933  -16.8434   23.9869 O   0  0  0  0  0  0  0  0  0  0  0  0
  2  1  1  6
  2  3  1  0
  4  3  1  0
  4  8  1  0
  5  4  2  0
  6  7  2  0
  6  2  1  0
  9 10  1  0
 10 11  2  0
 11 12  1  0
 13 12  2  0
 13 14  1  0
 15 14  1  6
 15 16  1  0
 16  6  1  0
 17 18  2  0
 17 15  1  0
 19 13  1  0
 20 10  1  0
 20 19  2  0
 22 21  1  6
 22 23  1  0
 24 22  1  0
 24 25  1  6
 25 17  1  0
 26 24  1  0
 27 26  1  0
 28 26  2  0
M  END
$$$$
