DYT.pdb
     RDKit          3D

 28 28  0  0  1  0  0  0  0  0999 V2000
    9.1479  -15.3319   20.6123 N   0  0  0  0  0  0  0  0  0  0  0  0
    9.4694  -16.6128   21.2636 C   0  0  1  0  0  0  0  0  0  0  0  0
   10.7514  -17.1574   20.7291 C   0  0  0  0  0  0  0  0  0  0  0  0
   10.7754  -17.3781   19.2824 C   0  0  0  0  0  0  0  0  0  0  0  0
   11.7597  -17.1701   18.5519 O   0  0  0  0  0  0  0  0  0  0  0  0
    9.5813  -16.3022   22.7348 C   0  0  0  0  0  0  0  0  0  0  0  0
   10.5373  -15.6443   23.1598 O   0  0  0  0  0  0  0  0  0  0  0  0
    9.6223  -17.8605   18.6273 O   0  0  0  0  0  0  0  0  0  0  0  0
    6.5207  -10.3196   25.8503 O   0  0  0  0  0  0  0  0  0  0  0  0
    6.7090  -11.6915   25.7935 C   0  0  0  0  0  0  0  0  0  0  0  0
    7.1711  -12.4239   26.8935 C   0  0  0  0  0  0  0  0  0  0  0  0
    7.3334  -13.7820   26.7622 C   0  0  0  0  0  0  0  0  0  0  0  0
    7.0535  -14.4561   25.5696 C   0  0  0  0  0  0  0  0  0  0  0  0
    7.2871  -15.8798   25.5008 C   0  0  0  0  0  0  0  0  0  0  0  0
    8.6241  -16.3774   25.0890 C   0  0  2  0  0  0  0  0  0  0  0  0
    8.5864  -16.7615   23.6599 N   0  0  0  0  0  0  0  0  0  0  0  0
    9.0725  -17.5667   25.8110 C   0  0  0  0  0  0  0  0  0  0  0  0
    8.2127  -18.4885   26.0557 O   0  0  0  0  0  0  0  0  0  0  0  0
    6.5991  -13.7016   24.5037 C   0  0  0  0  0  0  0  0  0  0  0  0
    6.4276  -12.3413   24.6080 C   0  0  0  0  0  0  0  0  0  0  0  0
   11.4648  -20.1916   24.9927 C   0  0  0  0  0  0  0  0  0  0  0  0
   11.8413  -19.8117   26.4102 C   0  0  1  0  0  0  0  0  0  0  0  0
   12.9490  -18.9624   26.3569 O   0  0  0  0  0  0  0  0  0  0  0  0
   10.6909  -19.0493   27.0447 C   0  0  2  0  0  0  0  0  0  0  0  0
   10.3726  -17.8566   26.2896 N   0  0  0  0  0  0  0  0  0  0  0  0
   10.8817  -18.8223   28.4693 C   0  0  0  0  0  0  0  0  0  0  0  0
   10.9938  -19.8322   29.3919 O   0  0  0  0  0  0  0  0  0  0  0  0
   10.9556  -17.6385   28.9385 O   0  0  0  0  0  0  0  0  0  0  0  0
  2  1  1  6
  2  3  1  0
  4  3  1  0
  4  8  1  0
  5  4  2  0
  6  7  2  0
  6  2  1  0
  9 10  1  0
 10 11  2  0
 11 12  1  0
 13 12  2  0
 13 14  1  0
 15 14  1  1
 15 16  1  0
 16  6  1  0
 17 18  2  0
 17 15  1  0
 19 13  1  0
 20 10  1  0
 20 19  2  0
 22 21  1  6
 22 23  1  0
 24 22  1  0
 24 25  1  6
 25 17  1  0
 26 24  1  0
 27 26  1  0
 28 26  2  0
M  END
$$$$
