DYT.pdb
     RDKit          3D

 28 28  0  0  1  0  0  0  0  0999 V2000
   10.1036  -16.6187   18.5538 N   0  0  0  0  0  0  0  0  0  0  0  0
    9.0349  -16.9955   19.4941 C   0  0  1  0  0  0  0  0  0  0  0  0
    9.0621  -18.4657   19.7459 C   0  0  0  0  0  0  0  0  0  0  0  0
    8.6652  -19.2965   18.6081 C   0  0  0  0  0  0  0  0  0  0  0  0
    7.5448  -19.2695   18.0700 O   0  0  0  0  0  0  0  0  0  0  0  0
    9.3155  -16.2217   20.7574 C   0  0  0  0  0  0  0  0  0  0  0  0
   10.4792  -16.0595   21.1409 O   0  0  0  0  0  0  0  0  0  0  0  0
    9.5870  -20.2073   18.0494 O   0  0  0  0  0  0  0  0  0  0  0  0
    6.9762  -12.1215   28.4141 O   0  0  0  0  0  0  0  0  0  0  0  0
    7.0303  -12.6423   27.1309 C   0  0  0  0  0  0  0  0  0  0  0  0
    6.2768  -13.7592   26.7504 C   0  0  0  0  0  0  0  0  0  0  0  0
    6.3823  -14.2191   25.4598 C   0  0  0  0  0  0  0  0  0  0  0  0
    7.2150  -13.6108   24.5156 C   0  0  0  0  0  0  0  0  0  0  0  0
    7.2991  -14.1784   23.1901 C   0  0  0  0  0  0  0  0  0  0  0  0
    8.4959  -14.9734   22.8150 C   0  0  2  0  0  0  0  0  0  0  0  0
    8.2440  -15.6638   21.5300 N   0  0  0  0  0  0  0  0  0  0  0  0
    8.8453  -16.0227   23.7709 C   0  0  0  0  0  0  0  0  0  0  0  0
    8.0800  -17.0507   23.8507 O   0  0  0  0  0  0  0  0  0  0  0  0
    7.9447  -12.5102   24.9258 C   0  0  0  0  0  0  0  0  0  0  0  0
    7.8578  -12.0292   26.2110 C   0  0  0  0  0  0  0  0  0  0  0  0
   11.8130  -18.9907   26.1242 C   0  0  0  0  0  0  0  0  0  0  0  0
   11.5292  -17.8777   25.1361 C   0  0  1  0  0  0  0  0  0  0  0  0
   11.3622  -18.4465   23.8714 O   0  0  0  0  0  0  0  0  0  0  0  0
   10.2311  -17.1888   25.5200 C   0  0  2  0  0  0  0  0  0  0  0  0
    9.9551  -16.0671   24.6484 N   0  0  0  0  0  0  0  0  0  0  0  0
   10.1561  -16.8762   26.9392 C   0  0  0  0  0  0  0  0  0  0  0  0
   10.6997  -15.7471   27.4989 O   0  0  0  0  0  0  0  0  0  0  0  0
    9.5636  -17.6615   27.7511 O   0  0  0  0  0  0  0  0  0  0  0  0
  2  1  1  6
  2  3  1  0
  4  3  1  0
  4  8  1  0
  5  4  2  0
  6  7  2  0
  6  2  1  0
  9 10  1  0
 10 11  2  0
 11 12  1  0
 13 12  2  0
 13 14  1  0
 15 14  1  1
 15 16  1  0
 16  6  1  0
 17 18  2  0
 17 15  1  0
 19 13  1  0
 20 10  1  0
 20 19  2  0
 22 21  1  1
 22 23  1  0
 24 22  1  0
 24 25  1  6
 25 17  1  0
 26 24  1  0
 27 26  1  0
 28 26  2  0
M  END
$$$$
