DYT.pdb
     RDKit          3D

 28 28  0  0  1  0  0  0  0  0999 V2000
    7.8841  -17.2232   19.3140 N   0  0  0  0  0  0  0  0  0  0  0  0
    9.3314  -17.2571   19.5831 C   0  0  1  0  0  0  0  0  0  0  0  0
   10.0839  -16.6612   18.4411 C   0  0  0  0  0  0  0  0  0  0  0  0
   10.0101  -17.4160   17.1893 C   0  0  0  0  0  0  0  0  0  0  0  0
    9.0413  -18.1125   16.8399 O   0  0  0  0  0  0  0  0  0  0  0  0
    9.5280  -16.4529   20.8433 C   0  0  0  0  0  0  0  0  0  0  0  0
   10.6678  -16.2243   21.2629 O   0  0  0  0  0  0  0  0  0  0  0  0
   11.0920  -17.3802   16.2839 O   0  0  0  0  0  0  0  0  0  0  0  0
    6.8742  -11.6582   27.9676 O   0  0  0  0  0  0  0  0  0  0  0  0
    6.9746  -12.3326   26.7609 C   0  0  0  0  0  0  0  0  0  0  0  0
    6.4755  -13.6295   26.5912 C   0  0  0  0  0  0  0  0  0  0  0  0
    6.6115  -14.2349   25.3652 C   0  0  0  0  0  0  0  0  0  0  0  0
    7.2304  -13.6009   24.2835 C   0  0  0  0  0  0  0  0  0  0  0  0
    7.3684  -14.3200   23.0384 C   0  0  0  0  0  0  0  0  0  0  0  0
    8.5788  -15.1487   22.8085 C   0  0  2  0  0  0  0  0  0  0  0  0
    8.4029  -15.9425   21.5715 N   0  0  0  0  0  0  0  0  0  0  0  0
    8.8561  -16.1164   23.8685 C   0  0  0  0  0  0  0  0  0  0  0  0
    8.0794  -17.1328   23.9811 O   0  0  0  0  0  0  0  0  0  0  0  0
    7.7118  -12.3207   24.4866 C   0  0  0  0  0  0  0  0  0  0  0  0
    7.5887  -11.6917   25.7031 C   0  0  0  0  0  0  0  0  0  0  0  0
   12.6509  -17.1059   24.9908 C   0  0  0  0  0  0  0  0  0  0  0  0
   11.4266  -17.9979   25.0190 C   0  0  1  0  0  0  0  0  0  0  0  0
   11.7029  -19.0960   25.8368 O   0  0  0  0  0  0  0  0  0  0  0  0
   10.2658  -17.2327   25.6308 C   0  0  2  0  0  0  0  0  0  0  0  0
    9.9046  -16.0906   24.8189 N   0  0  0  0  0  0  0  0  0  0  0  0
   10.4716  -16.9252   27.0381 C   0  0  0  0  0  0  0  0  0  0  0  0
   10.4297  -15.6536   27.5526 O   0  0  0  0  0  0  0  0  0  0  0  0
   10.7072  -17.8521   27.8821 O   0  0  0  0  0  0  0  0  0  0  0  0
  2  1  1  6
  2  3  1  0
  4  3  1  0
  4  8  1  0
  5  4  2  0
  6  7  2  0
  6  2  1  0
  9 10  1  0
 10 11  2  0
 11 12  1  0
 13 12  2  0
 13 14  1  0
 15 14  1  1
 15 16  1  0
 16  6  1  0
 17 18  2  0
 17 15  1  0
 19 13  1  0
 20 10  1  0
 20 19  2  0
 22 21  1  1
 22 23  1  0
 24 22  1  0
 24 25  1  6
 25 17  1  0
 26 24  1  0
 27 26  1  0
 28 26  2  0
M  END
$$$$
