DYT.pdb
     RDKit          3D

 28 28  0  0  1  0  0  0  0  0999 V2000
    9.4445  -17.9081   25.8086 N   0  0  0  0  0  0  0  0  0  0  0  0
    8.0339  -18.3156   25.9196 C   0  0  1  0  0  0  0  0  0  0  0  0
    7.5615  -18.1660   27.3268 C   0  0  0  0  0  0  0  0  0  0  0  0
    8.1388  -19.1165   28.2784 C   0  0  0  0  0  0  0  0  0  0  0  0
    8.9237  -20.0318   27.9752 O   0  0  0  0  0  0  0  0  0  0  0  0
    7.2744  -17.4027   24.9905 C   0  0  0  0  0  0  0  0  0  0  0  0
    6.0386  -17.4182   24.9774 O   0  0  0  0  0  0  0  0  0  0  0  0
    7.8095  -19.0256   29.6476 O   0  0  0  0  0  0  0  0  0  0  0  0
    6.9532  -12.2416   28.6454 O   0  0  0  0  0  0  0  0  0  0  0  0
    7.1112  -12.7478   27.3649 C   0  0  0  0  0  0  0  0  0  0  0  0
    8.3370  -13.2488   26.9104 C   0  0  0  0  0  0  0  0  0  0  0  0
    8.4176  -13.7346   25.6276 C   0  0  0  0  0  0  0  0  0  0  0  0
    7.3193  -13.7454   24.7624 C   0  0  0  0  0  0  0  0  0  0  0  0
    7.4958  -14.2377   23.4160 C   0  0  0  0  0  0  0  0  0  0  0  0
    7.2426  -15.6722   23.1281 C   0  0  2  0  0  0  0  0  0  0  0  0
    7.9685  -16.5063   24.1123 N   0  0  0  0  0  0  0  0  0  0  0  0
    7.7041  -16.1129   21.8130 C   0  0  0  0  0  0  0  0  0  0  0  0
    7.1183  -15.6383   20.7735 O   0  0  0  0  0  0  0  0  0  0  0  0
    6.1246  -13.2430   25.2442 C   0  0  0  0  0  0  0  0  0  0  0  0
    6.0162  -12.7510   26.5236 C   0  0  0  0  0  0  0  0  0  0  0  0
    9.0321  -17.2672   17.7684 C   0  0  0  0  0  0  0  0  0  0  0  0
    8.8793  -16.5805   19.1103 C   0  0  1  0  0  0  0  0  0  0  0  0
    7.6258  -15.9656   19.1477 O   0  0  0  0  0  0  0  0  0  0  0  0
    8.9273  -17.6240   20.2130 C   0  0  2  0  0  0  0  0  0  0  0  0
    8.7501  -17.0189   21.5155 N   0  0  0  0  0  0  0  0  0  0  0  0
   10.0858  -18.4988   20.1124 C   0  0  0  0  0  0  0  0  0  0  0  0
   10.9393  -18.7534   21.1565 O   0  0  0  0  0  0  0  0  0  0  0  0
   10.3681  -19.0861   19.0158 O   0  0  0  0  0  0  0  0  0  0  0  0
  2  1  1  1
  2  3  1  0
  4  3  1  0
  4  8  1  0
  5  4  2  0
  6  7  2  0
  6  2  1  0
  9 10  1  0
 10 11  2  0
 11 12  1  0
 13 12  2  0
 13 14  1  0
 15 14  1  1
 15 16  1  0
 16  6  1  0
 17 18  2  0
 17 15  1  0
 19 13  1  0
 20 10  1  0
 20 19  2  0
 22 21  1  6
 22 23  1  0
 24 22  1  0
 24 25  1  1
 25 17  1  0
 26 24  1  0
 27 26  1  0
 28 26  2  0
M  END
$$$$
