DYT.pdb
     RDKit          3D

 28 28  0  0  1  0  0  0  0  0999 V2000
    9.1381  -17.4338   19.6958 N   0  0  0  0  0  0  0  0  0  0  0  0
   10.5116  -17.3364   20.2176 C   0  0  1  0  0  0  0  0  0  0  0  0
   11.4111  -16.7268   19.1953 C   0  0  0  0  0  0  0  0  0  0  0  0
   11.4743  -17.4423   17.9201 C   0  0  0  0  0  0  0  0  0  0  0  0
   10.8349  -18.4755   17.6569 O   0  0  0  0  0  0  0  0  0  0  0  0
   10.4173  -16.4682   21.4467 C   0  0  0  0  0  0  0  0  0  0  0  0
   11.4447  -16.0601   21.9993 O   0  0  0  0  0  0  0  0  0  0  0  0
   12.3067  -16.9618   16.8868 O   0  0  0  0  0  0  0  0  0  0  0  0
    6.2103  -11.5531   27.7218 O   0  0  0  0  0  0  0  0  0  0  0  0
    6.6234  -12.2686   26.6090 C   0  0  0  0  0  0  0  0  0  0  0  0
    7.6870  -11.8420   25.8047 C   0  0  0  0  0  0  0  0  0  0  0  0
    8.0400  -12.6040   24.7171 C   0  0  0  0  0  0  0  0  0  0  0  0
    7.3744  -13.7884   24.3868 C   0  0  0  0  0  0  0  0  0  0  0  0
    7.7815  -14.5120   23.2049 C   0  0  0  0  0  0  0  0  0  0  0  0
    9.0322  -15.3117   23.2378 C   0  0  2  0  0  0  0  0  0  0  0  0
    9.1420  -16.1031   21.9916 N   0  0  0  0  0  0  0  0  0  0  0  0
    9.1001  -16.2782   24.3324 C   0  0  0  0  0  0  0  0  0  0  0  0
    8.3093  -17.2893   24.2997 O   0  0  0  0  0  0  0  0  0  0  0  0
    6.3289  -14.1796   25.2028 C   0  0  0  0  0  0  0  0  0  0  0  0
    5.9550  -13.4360   26.2974 C   0  0  0  0  0  0  0  0  0  0  0  0
   10.9339  -18.7979   24.5978 C   0  0  0  0  0  0  0  0  0  0  0  0
   11.1666  -18.3100   26.0132 C   0  0  1  0  0  0  0  0  0  0  0  0
   12.3731  -17.6067   26.0416 O   0  0  0  0  0  0  0  0  0  0  0  0
   10.0523  -17.3532   26.4006 C   0  0  2  0  0  0  0  0  0  0  0  0
    9.9530  -16.2564   25.4619 N   0  0  0  0  0  0  0  0  0  0  0  0
   10.1198  -16.9430   27.7951 C   0  0  0  0  0  0  0  0  0  0  0  0
   10.2007  -15.6340   28.1995 O   0  0  0  0  0  0  0  0  0  0  0  0
   10.1062  -17.8080   28.7324 O   0  0  0  0  0  0  0  0  0  0  0  0
  2  1  1  6
  2  3  1  0
  4  3  1  0
  4  8  1  0
  5  4  2  0
  6  7  2  0
  6  2  1  0
  9 10  1  0
 10 11  2  0
 11 12  1  0
 13 12  2  0
 13 14  1  0
 15 14  1  6
 15 16  1  0
 16  6  1  0
 17 18  2  0
 17 15  1  0
 19 13  1  0
 20 10  1  0
 20 19  2  0
 22 21  1  6
 22 23  1  0
 24 22  1  0
 24 25  1  6
 25 17  1  0
 26 24  1  0
 27 26  1  0
 28 26  2  0
M  END
$$$$
