DYT.pdb
     RDKit          3D

 28 28  0  0  1  0  0  0  0  0999 V2000
    8.9026  -15.2860   19.0787 N   0  0  0  0  0  0  0  0  0  0  0  0
    8.4289  -16.2349   20.1003 C   0  0  1  0  0  0  0  0  0  0  0  0
    8.7136  -17.6365   19.6758 C   0  0  0  0  0  0  0  0  0  0  0  0
    7.7380  -18.2137   18.7500 C   0  0  0  0  0  0  0  0  0  0  0  0
    6.8114  -17.5810   18.2145 O   0  0  0  0  0  0  0  0  0  0  0  0
    9.1813  -15.8838   21.3589 C   0  0  0  0  0  0  0  0  0  0  0  0
   10.3840  -15.6045   21.3062 O   0  0  0  0  0  0  0  0  0  0  0  0
    7.8159  -19.5816   18.4121 O   0  0  0  0  0  0  0  0  0  0  0  0
    9.9438  -14.1223   30.1367 O   0  0  0  0  0  0  0  0  0  0  0  0
    9.5211  -14.3256   28.8325 C   0  0  0  0  0  0  0  0  0  0  0  0
    9.0834  -15.5760   28.3801 C   0  0  0  0  0  0  0  0  0  0  0  0
    8.6791  -15.7015   27.0729 C   0  0  0  0  0  0  0  0  0  0  0  0
    8.6900  -14.6248   26.1808 C   0  0  0  0  0  0  0  0  0  0  0  0
    8.2857  -14.8478   24.8122 C   0  0  0  0  0  0  0  0  0  0  0  0
    9.2345  -15.4946   23.8708 C   0  0  2  0  0  0  0  0  0  0  0  0
    8.5181  -15.8676   22.6303 N   0  0  0  0  0  0  0  0  0  0  0  0
    9.8334  -16.7297   24.3735 C   0  0  0  0  0  0  0  0  0  0  0  0
    9.0851  -17.7678   24.4800 O   0  0  0  0  0  0  0  0  0  0  0  0
    9.1283  -13.4047   26.6614 C   0  0  0  0  0  0  0  0  0  0  0  0
    9.5383  -13.2514   27.9649 C   0  0  0  0  0  0  0  0  0  0  0  0
   12.2090  -19.0189   23.0466 C   0  0  0  0  0  0  0  0  0  0  0  0
   12.7412  -18.8043   24.4488 C   0  0  1  0  0  0  0  0  0  0  0  0
   13.7927  -17.8873   24.3830 O   0  0  0  0  0  0  0  0  0  0  0  0
   11.6446  -18.2053   25.3124 C   0  0  2  0  0  0  0  0  0  0  0  0
   11.1750  -16.9497   24.7674 N   0  0  0  0  0  0  0  0  0  0  0  0
   12.0031  -18.1491   26.7216 C   0  0  0  0  0  0  0  0  0  0  0  0
   12.2288  -19.2610   27.4937 O   0  0  0  0  0  0  0  0  0  0  0  0
   12.1277  -17.0297   27.3202 O   0  0  0  0  0  0  0  0  0  0  0  0
  2  1  1  6
  2  3  1  0
  4  3  1  0
  4  8  1  0
  5  4  2  0
  6  7  2  0
  6  2  1  0
  9 10  1  0
 10 11  2  0
 11 12  1  0
 13 12  2  0
 13 14  1  0
 15 14  1  1
 15 16  1  0
 16  6  1  0
 17 18  2  0
 17 15  1  0
 19 13  1  0
 20 10  1  0
 20 19  2  0
 22 21  1  6
 22 23  1  0
 24 22  1  0
 24 25  1  6
 25 17  1  0
 26 24  1  0
 27 26  1  0
 28 26  2  0
M  END
$$$$
