DYT.pdb
     RDKit          3D

 28 28  0  0  1  0  0  0  0  0999 V2000
    9.0304  -18.5619   25.3461 N   0  0  0  0  0  0  0  0  0  0  0  0
    7.6289  -18.6153   25.7947 C   0  0  1  0  0  0  0  0  0  0  0  0
    7.5659  -18.7728   27.2769 C   0  0  0  0  0  0  0  0  0  0  0  0
    8.2402  -19.9607   27.8029 C   0  0  0  0  0  0  0  0  0  0  0  0
    8.8103  -20.8170   27.1049 O   0  0  0  0  0  0  0  0  0  0  0  0
    7.0144  -17.3090   25.3595 C   0  0  0  0  0  0  0  0  0  0  0  0
    5.8558  -17.0284   25.6856 O   0  0  0  0  0  0  0  0  0  0  0  0
    8.2705  -20.1912   29.1948 O   0  0  0  0  0  0  0  0  0  0  0  0
    9.2475  -13.6607   29.9629 O   0  0  0  0  0  0  0  0  0  0  0  0
    8.8994  -13.7130   28.6224 C   0  0  0  0  0  0  0  0  0  0  0  0
    7.7041  -13.1636   28.1436 C   0  0  0  0  0  0  0  0  0  0  0  0
    7.4265  -13.2536   26.8008 C   0  0  0  0  0  0  0  0  0  0  0  0
    8.2955  -13.8742   25.8982 C   0  0  0  0  0  0  0  0  0  0  0  0
    7.9129  -13.9616   24.5082 C   0  0  0  0  0  0  0  0  0  0  0  0
    7.1379  -15.1388   24.0408 C   0  0  2  0  0  0  0  0  0  0  0  0
    7.7593  -16.3757   24.5654 N   0  0  0  0  0  0  0  0  0  0  0  0
    7.0992  -15.2959   22.5880 C   0  0  0  0  0  0  0  0  0  0  0  0
    5.9544  -15.4290   22.0219 O   0  0  0  0  0  0  0  0  0  0  0  0
    9.4667  -14.4059   26.4057 C   0  0  0  0  0  0  0  0  0  0  0  0
    9.7692  -14.3295   27.7448 C   0  0  0  0  0  0  0  0  0  0  0  0
    8.4177  -12.5707   20.5038 C   0  0  0  0  0  0  0  0  0  0  0  0
    7.4324  -13.6372   20.0712 C   0  0  1  0  0  0  0  0  0  0  0  0
    7.1815  -13.4746   18.7068 O   0  0  0  0  0  0  0  0  0  0  0  0
    8.0567  -15.0064   20.2774 C   0  0  2  0  0  0  0  0  0  0  0  0
    8.1889  -15.3159   21.6848 N   0  0  0  0  0  0  0  0  0  0  0  0
    9.2771  -15.1922   19.5068 C   0  0  0  0  0  0  0  0  0  0  0  0
   10.4948  -15.4823   20.0694 O   0  0  0  0  0  0  0  0  0  0  0  0
    9.2691  -15.0909   18.2354 O   0  0  0  0  0  0  0  0  0  0  0  0
  2  1  1  1
  2  3  1  0
  4  3  1  0
  4  8  1  0
  5  4  2  0
  6  7  2  0
  6  2  1  0
  9 10  1  0
 10 11  2  0
 11 12  1  0
 13 12  2  0
 13 14  1  0
 15 14  1  6
 15 16  1  0
 16  6  1  0
 17 18  2  0
 17 15  1  0
 19 13  1  0
 20 10  1  0
 20 19  2  0
 22 21  1  6
 22 23  1  0
 24 22  1  0
 24 25  1  1
 25 17  1  0
 26 24  1  0
 27 26  1  0
 28 26  2  0
M  END
$$$$
