DYT.pdb
     RDKit          3D

 28 28  0  0  1  0  0  0  0  0999 V2000
    9.1157  -18.1697   20.6494 N   0  0  0  0  0  0  0  0  0  0  0  0
   10.4638  -17.7107   21.0239 C   0  0  1  0  0  0  0  0  0  0  0  0
   11.1468  -17.0981   19.8475 C   0  0  0  0  0  0  0  0  0  0  0  0
   11.0827  -17.8848   18.6149 C   0  0  0  0  0  0  0  0  0  0  0  0
   10.5036  -18.9794   18.5043 O   0  0  0  0  0  0  0  0  0  0  0  0
   10.2564  -16.6977   22.1213 C   0  0  0  0  0  0  0  0  0  0  0  0
   11.2148  -16.0530   22.5608 O   0  0  0  0  0  0  0  0  0  0  0  0
   11.7082  -17.4060   17.4440 O   0  0  0  0  0  0  0  0  0  0  0  0
    7.4342  -12.6294   18.0517 O   0  0  0  0  0  0  0  0  0  0  0  0
    7.4832  -13.0882   19.3586 C   0  0  0  0  0  0  0  0  0  0  0  0
    8.4156  -12.6009   20.2822 C   0  0  0  0  0  0  0  0  0  0  0  0
    8.4039  -13.1037   21.5610 C   0  0  0  0  0  0  0  0  0  0  0  0
    7.4944  -14.0836   21.9702 C   0  0  0  0  0  0  0  0  0  0  0  0
    7.5724  -14.5880   23.3214 C   0  0  0  0  0  0  0  0  0  0  0  0
    8.7229  -15.4412   23.7130 C   0  0  2  0  0  0  0  0  0  0  0  0
    8.9517  -16.4662   22.6697 N   0  0  0  0  0  0  0  0  0  0  0  0
    8.5292  -16.1773   24.9610 C   0  0  0  0  0  0  0  0  0  0  0  0
    8.1410  -15.5250   25.9967 O   0  0  0  0  0  0  0  0  0  0  0  0
    6.5879  -14.5420   21.0321 C   0  0  0  0  0  0  0  0  0  0  0  0
    6.5776  -14.0560   19.7459 C   0  0  0  0  0  0  0  0  0  0  0  0
    7.1746  -19.9771   27.6348 C   0  0  0  0  0  0  0  0  0  0  0  0
    7.5809  -19.4443   26.2759 C   0  0  1  0  0  0  0  0  0  0  0  0
    6.4232  -19.0858   25.5817 O   0  0  0  0  0  0  0  0  0  0  0  0
    8.4265  -18.1963   26.4618 C   0  0  2  0  0  0  0  0  0  0  0  0
    8.7109  -17.5618   25.1928 N   0  0  0  0  0  0  0  0  0  0  0  0
    9.5996  -18.4276   27.2913 C   0  0  0  0  0  0  0  0  0  0  0  0
    9.5476  -18.5928   28.6527 O   0  0  0  0  0  0  0  0  0  0  0  0
   10.7640  -18.4891   26.7741 O   0  0  0  0  0  0  0  0  0  0  0  0
  2  1  1  6
  2  3  1  0
  4  3  1  0
  4  8  1  0
  5  4  2  0
  6  7  2  0
  6  2  1  0
  9 10  1  0
 10 11  2  0
 11 12  1  0
 13 12  2  0
 13 14  1  0
 15 14  1  6
 15 16  1  0
 16  6  1  0
 17 18  2  0
 17 15  1  0
 19 13  1  0
 20 10  1  0
 20 19  2  0
 22 21  1  1
 22 23  1  0
 24 22  1  0
 24 25  1  6
 25 17  1  0
 26 24  1  0
 27 26  1  0
 28 26  2  0
M  END
$$$$
