DYT.pdb
     RDKit          3D

 28 28  0  0  1  0  0  0  0  0999 V2000
   12.3777  -16.2612   18.4075 N   0  0  0  0  0  0  0  0  0  0  0  0
   13.3713  -15.5981   19.2685 C   0  0  1  0  0  0  0  0  0  0  0  0
   13.7860  -14.2954   18.6712 C   0  0  0  0  0  0  0  0  0  0  0  0
   14.7478  -14.3958   17.5725 C   0  0  0  0  0  0  0  0  0  0  0  0
   15.0246  -15.4471   16.9694 O   0  0  0  0  0  0  0  0  0  0  0  0
   12.6856  -15.3947   20.5958 C   0  0  0  0  0  0  0  0  0  0  0  0
   13.2183  -14.7029   21.4706 O   0  0  0  0  0  0  0  0  0  0  0  0
   15.4332  -13.2433   17.1329 O   0  0  0  0  0  0  0  0  0  0  0  0
    8.1148  -11.7987   17.5903 O   0  0  0  0  0  0  0  0  0  0  0  0
    8.4066  -12.6978   18.6039 C   0  0  0  0  0  0  0  0  0  0  0  0
    8.5260  -14.0722   18.3659 C   0  0  0  0  0  0  0  0  0  0  0  0
    8.8174  -14.9028   19.4210 C   0  0  0  0  0  0  0  0  0  0  0  0
    8.9981  -14.4230   20.7218 C   0  0  0  0  0  0  0  0  0  0  0  0
    9.2639  -15.3659   21.7832 C   0  0  0  0  0  0  0  0  0  0  0  0
   10.6700  -15.7109   22.1129 C   0  0  2  0  0  0  0  0  0  0  0  0
   11.4116  -15.9960   20.8639 N   0  0  0  0  0  0  0  0  0  0  0  0
   10.8179  -16.9025   22.9465 C   0  0  0  0  0  0  0  0  0  0  0  0
   10.6416  -18.0512   22.4005 O   0  0  0  0  0  0  0  0  0  0  0  0
    8.8728  -13.0604   20.9206 C   0  0  0  0  0  0  0  0  0  0  0  0
    8.5821  -12.2068   19.8826 C   0  0  0  0  0  0  0  0  0  0  0  0
   12.7599  -19.0806   23.2931 C   0  0  0  0  0  0  0  0  0  0  0  0
   12.5852  -18.8942   24.7865 C   0  0  1  0  0  0  0  0  0  0  0  0
   13.6026  -18.0544   25.2453 O   0  0  0  0  0  0  0  0  0  0  0  0
   11.2539  -18.2129   25.0518 C   0  0  2  0  0  0  0  0  0  0  0  0
   11.1470  -16.9681   24.3216 N   0  0  0  0  0  0  0  0  0  0  0  0
   10.9492  -18.1023   26.4705 C   0  0  0  0  0  0  0  0  0  0  0  0
   10.7730  -16.9058   27.1193 O   0  0  0  0  0  0  0  0  0  0  0  0
   10.8284  -19.1442   27.1963 O   0  0  0  0  0  0  0  0  0  0  0  0
  2  1  1  6
  2  3  1  0
  4  3  1  0
  4  8  1  0
  5  4  2  0
  6  7  2  0
  6  2  1  0
  9 10  1  0
 10 11  2  0
 11 12  1  0
 13 12  2  0
 13 14  1  0
 15 14  1  6
 15 16  1  0
 16  6  1  0
 17 18  2  0
 17 15  1  0
 19 13  1  0
 20 10  1  0
 20 19  2  0
 22 21  1  6
 22 23  1  0
 24 22  1  0
 24 25  1  1
 25 17  1  0
 26 24  1  0
 27 26  1  0
 28 26  2  0
M  END
$$$$
