DYT.pdb
     RDKit          3D

 28 28  0  0  1  0  0  0  0  0999 V2000
    9.1269  -17.9657   20.2342 N   0  0  0  0  0  0  0  0  0  0  0  0
   10.2984  -17.9919   21.1259 C   0  0  1  0  0  0  0  0  0  0  0  0
   11.5453  -17.7309   20.3495 C   0  0  0  0  0  0  0  0  0  0  0  0
   11.7913  -18.6567   19.2428 C   0  0  0  0  0  0  0  0  0  0  0  0
   12.7000  -18.5299   18.4039 O   0  0  0  0  0  0  0  0  0  0  0  0
   10.0553  -16.9084   22.1458 C   0  0  0  0  0  0  0  0  0  0  0  0
   10.9947  -16.2154   22.5517 O   0  0  0  0  0  0  0  0  0  0  0  0
   10.9634  -19.7874   19.0772 O   0  0  0  0  0  0  0  0  0  0  0  0
    8.0457  -12.4803   17.8984 O   0  0  0  0  0  0  0  0  0  0  0  0
    7.8869  -13.0432   19.1549 C   0  0  0  0  0  0  0  0  0  0  0  0
    7.0963  -14.1793   19.3652 C   0  0  0  0  0  0  0  0  0  0  0  0
    6.9860  -14.6811   20.6396 C   0  0  0  0  0  0  0  0  0  0  0  0
    7.6349  -14.0966   21.7315 C   0  0  0  0  0  0  0  0  0  0  0  0
    7.4370  -14.6619   23.0458 C   0  0  0  0  0  0  0  0  0  0  0  0
    8.4717  -15.5641   23.6118 C   0  0  2  0  0  0  0  0  0  0  0  0
    8.7384  -16.6647   22.6584 N   0  0  0  0  0  0  0  0  0  0  0  0
    8.0884  -16.2069   24.8674 C   0  0  0  0  0  0  0  0  0  0  0  0
    6.8506  -16.4972   25.0478 O   0  0  0  0  0  0  0  0  0  0  0  0
    8.4072  -12.9759   21.4875 C   0  0  0  0  0  0  0  0  0  0  0  0
    8.5349  -12.4533   20.2221 C   0  0  0  0  0  0  0  0  0  0  0  0
    6.7934  -18.3632   25.4481 C   0  0  0  0  0  0  0  0  0  0  0  0
    7.8993  -18.7481   26.4096 C   0  0  1  0  0  0  0  0  0  0  0  0
    8.8891  -19.4231   25.6916 O   0  0  0  0  0  0  0  0  0  0  0  0
    8.5144  -17.4877   26.9929 C   0  0  2  0  0  0  0  0  0  0  0  0
    8.9246  -16.5731   25.9492 N   0  0  0  0  0  0  0  0  0  0  0  0
    9.5445  -17.7678   27.9818 C   0  0  0  0  0  0  0  0  0  0  0  0
    9.3046  -18.4176   29.1665 O   0  0  0  0  0  0  0  0  0  0  0  0
   10.7534  -17.4111   27.7855 O   0  0  0  0  0  0  0  0  0  0  0  0
  2  1  1  6
  2  3  1  0
  4  3  1  0
  4  8  1  0
  5  4  2  0
  6  7  2  0
  6  2  1  0
  9 10  1  0
 10 11  2  0
 11 12  1  0
 13 12  2  0
 13 14  1  0
 15 14  1  6
 15 16  1  0
 16  6  1  0
 17 18  2  0
 17 15  1  0
 19 13  1  0
 20 10  1  0
 20 19  2  0
 22 21  1  6
 22 23  1  0
 24 22  1  0
 24 25  1  6
 25 17  1  0
 26 24  1  0
 27 26  1  0
 28 26  2  0
M  END
$$$$
