EMP.pdb
     RDKit          3D

 25 25  0  0  1  0  0  0  0  0999 V2000
   10.0389  -15.4633   20.0029 N   0  0  0  0  0  0  0  0  0  0  0  0
   10.0094  -16.4540   21.0693 C   0  0  1  0  0  0  0  0  0  0  0  0
   11.2872  -17.2201   21.0368 C   0  0  0  0  0  0  0  0  0  0  0  0
   11.4713  -18.2091   22.1313 C   0  0  0  0  0  0  0  0  0  0  0  0
   12.3468  -19.3223   21.7372 C   0  0  0  0  0  0  0  0  0  0  0  0
   13.3158  -19.7037   22.4228 O   0  0  0  0  0  0  0  0  0  0  0  0
    9.8232  -15.6843   22.3468 C   0  0  0  0  0  0  0  0  0  0  0  0
   10.5523  -14.6671   22.5542 O   0  0  0  0  0  0  0  0  0  0  0  0
   12.1313  -20.0300   20.5396 O   0  0  0  0  0  0  0  0  0  0  0  0
    6.3856  -11.4514   26.9126 C   0  0  0  0  0  0  0  0  0  0  0  0
    6.7279  -12.5052   25.4743 S   0  0  0  0  0  0  0  0  0  0  0  0
    6.9144  -14.2491   25.9995 C   0  0  0  0  0  0  0  0  0  0  0  0
    7.2029  -15.0649   24.7770 C   0  0  0  0  0  0  0  0  0  0  0  0
    8.6936  -15.2435   24.5384 C   0  0  2  0  0  0  0  0  0  0  0  0
    8.8667  -16.0564   23.3185 N   0  0  0  0  0  0  0  0  0  0  0  0
    9.3732  -15.9108   25.6647 C   0  0  0  0  0  0  0  0  0  0  0  0
    9.6187  -17.1626   25.4747 O   0  0  0  0  0  0  0  0  0  0  0  0
    9.7688  -15.3338   26.8812 N   0  0  0  0  0  0  0  0  0  0  0  0
    9.3315  -14.0193   27.3147 C   0  0  0  0  0  0  0  0  0  0  0  0
   10.5790  -13.4907   27.9859 C   0  0  0  0  0  0  0  0  0  0  0  0
   10.8779  -14.6963   28.8951 C   0  0  0  0  0  0  0  0  0  0  0  0
   10.5980  -15.8649   27.9202 C   0  0  1  0  0  0  0  0  0  0  0  0
    9.8100  -16.9191   28.6595 C   0  0  0  0  0  0  0  0  0  0  0  0
   10.5566  -17.7236   29.5197 O   0  0  0  0  0  0  0  0  0  0  0  0
    8.5903  -17.0214   28.4802 O   0  0  0  0  0  0  0  0  0  0  0  0
  2  1  1  6
  2  7  1  0
  3  2  1  0
  4  3  1  0
  5  4  1  0
  6  5  2  0
  7  8  2  0
  9  5  1  0
 11 10  1  0
 11 12  1  0
 13 12  1  0
 14 13  1  1
 14 16  1  0
 15 14  1  0
 15  7  1  0
 16 17  2  0
 18 19  1  0
 18 16  1  0
 20 21  1  0
 20 19  1  0
 22 21  1  0
 22 18  1  0
 22 23  1  1
 24 23  1  0
 25 23  2  0
M  END
$$$$
