EMP.pdb
     RDKit          3D

 25 25  0  0  1  0  0  0  0  0999 V2000
    8.3042  -15.7838   19.1943 N   0  0  0  0  0  0  0  0  0  0  0  0
    7.3427  -15.7250   20.2859 C   0  0  1  0  0  0  0  0  0  0  0  0
    6.6324  -17.0329   20.3597 C   0  0  0  0  0  0  0  0  0  0  0  0
    7.1056  -18.0754   19.4113 C   0  0  0  0  0  0  0  0  0  0  0  0
    6.3182  -19.3134   19.5032 C   0  0  0  0  0  0  0  0  0  0  0  0
    6.5565  -20.3259   18.8159 O   0  0  0  0  0  0  0  0  0  0  0  0
    8.1381  -15.4225   21.5248 C   0  0  0  0  0  0  0  0  0  0  0  0
    9.3788  -15.6867   21.5290 O   0  0  0  0  0  0  0  0  0  0  0  0
    5.2313  -19.4214   20.3912 O   0  0  0  0  0  0  0  0  0  0  0  0
    5.6778  -12.4572   27.0022 C   0  0  0  0  0  0  0  0  0  0  0  0
    7.4049  -11.9177   26.8530 S   0  0  0  0  0  0  0  0  0  0  0  0
    8.3850  -13.1787   25.9579 C   0  0  0  0  0  0  0  0  0  0  0  0
    7.6375  -13.5356   24.7100 C   0  0  0  0  0  0  0  0  0  0  0  0
    8.3789  -14.5572   23.8629 C   0  0  2  0  0  0  0  0  0  0  0  0
    7.5501  -14.8561   22.6785 N   0  0  0  0  0  0  0  0  0  0  0  0
    8.6500  -15.8104   24.5922 C   0  0  0  0  0  0  0  0  0  0  0  0
    7.6026  -16.5197   24.8437 O   0  0  0  0  0  0  0  0  0  0  0  0
    9.8964  -16.2915   25.0215 N   0  0  0  0  0  0  0  0  0  0  0  0
   11.1429  -15.5864   24.7848 C   0  0  0  0  0  0  0  0  0  0  0  0
   12.0915  -16.7312   24.5096 C   0  0  0  0  0  0  0  0  0  0  0  0
   11.7575  -17.6040   25.7328 C   0  0  0  0  0  0  0  0  0  0  0  0
   10.2160  -17.4727   25.7642 C   0  0  1  0  0  0  0  0  0  0  0  0
    9.7888  -17.2590   27.1962 C   0  0  0  0  0  0  0  0  0  0  0  0
    9.8062  -18.4002   27.9973 O   0  0  0  0  0  0  0  0  0  0  0  0
    9.4561  -16.1319   27.5827 O   0  0  0  0  0  0  0  0  0  0  0  0
  2  1  1  6
  2  7  1  0
  3  2  1  0
  4  3  1  0
  5  4  1  0
  6  5  2  0
  7  8  2  0
  9  5  1  0
 11 10  1  0
 11 12  1  0
 13 12  1  0
 14 13  1  1
 14 16  1  0
 15 14  1  0
 15  7  1  0
 16 17  2  0
 18 19  1  0
 18 16  1  0
 20 21  1  0
 20 19  1  0
 22 21  1  0
 22 18  1  0
 22 23  1  1
 24 23  1  0
 25 23  2  0
M  END
$$$$
