EMP.pdb
     RDKit          3D

 25 25  0  0  1  0  0  0  0  0999 V2000
    8.1122  -15.5989   19.0748 N   0  0  0  0  0  0  0  0  0  0  0  0
    7.1530  -15.8054   20.1504 C   0  0  1  0  0  0  0  0  0  0  0  0
    6.7088  -17.2275   20.1196 C   0  0  0  0  0  0  0  0  0  0  0  0
    7.7922  -18.2412   20.2122 C   0  0  0  0  0  0  0  0  0  0  0  0
    7.2696  -19.6140   20.2708 C   0  0  0  0  0  0  0  0  0  0  0  0
    6.0561  -19.8861   20.1823 O   0  0  0  0  0  0  0  0  0  0  0  0
    7.8698  -15.4457   21.4216 C   0  0  0  0  0  0  0  0  0  0  0  0
    9.1359  -15.5194   21.4460 O   0  0  0  0  0  0  0  0  0  0  0  0
    8.1311  -20.7153   20.4335 O   0  0  0  0  0  0  0  0  0  0  0  0
    6.5547  -10.7699   26.5467 C   0  0  0  0  0  0  0  0  0  0  0  0
    6.4466  -12.5307   26.9761 S   0  0  0  0  0  0  0  0  0  0  0  0
    7.6597  -13.4941   26.0005 C   0  0  0  0  0  0  0  0  0  0  0  0
    7.0072  -13.8711   24.7061 C   0  0  0  0  0  0  0  0  0  0  0  0
    7.9323  -14.6699   23.8023 C   0  0  2  0  0  0  0  0  0  0  0  0
    7.1810  -15.0301   22.5837 N   0  0  0  0  0  0  0  0  0  0  0  0
    8.4305  -15.9007   24.4447 C   0  0  0  0  0  0  0  0  0  0  0  0
    7.5340  -16.8103   24.6244 O   0  0  0  0  0  0  0  0  0  0  0  0
    9.7429  -16.1703   24.8621 N   0  0  0  0  0  0  0  0  0  0  0  0
   10.8072  -15.1842   24.8188 C   0  0  0  0  0  0  0  0  0  0  0  0
   11.9915  -16.0335   24.4159 C   0  0  0  0  0  0  0  0  0  0  0  0
   11.8326  -17.1561   25.4570 C   0  0  0  0  0  0  0  0  0  0  0  0
   10.2999  -17.3659   25.4182 C   0  0  1  0  0  0  0  0  0  0  0  0
    9.8051  -17.5004   26.8380 C   0  0  0  0  0  0  0  0  0  0  0  0
   10.0677  -18.7284   27.4442 O   0  0  0  0  0  0  0  0  0  0  0  0
    9.2140  -16.5588   27.3807 O   0  0  0  0  0  0  0  0  0  0  0  0
  2  1  1  6
  2  7  1  0
  3  2  1  0
  4  3  1  0
  5  4  1  0
  6  5  2  0
  7  8  2  0
  9  5  1  0
 11 10  1  0
 11 12  1  0
 13 12  1  0
 14 13  1  1
 14 16  1  0
 15 14  1  0
 15  7  1  0
 16 17  2  0
 18 19  1  0
 18 16  1  0
 20 21  1  0
 20 19  1  0
 22 21  1  0
 22 18  1  0
 22 23  1  1
 24 23  1  0
 25 23  2  0
M  END
$$$$
