EMP.pdb
     RDKit          3D

 25 25  0  0  1  0  0  0  0  0999 V2000
    5.1368  -20.3154   24.0422 N   0  0  0  0  0  0  0  0  0  0  0  0
    6.3862  -19.7362   24.5145 C   0  0  1  0  0  0  0  0  0  0  0  0
    7.5165  -20.5066   23.9231 C   0  0  0  0  0  0  0  0  0  0  0  0
    8.8754  -19.9783   24.2133 C   0  0  0  0  0  0  0  0  0  0  0  0
    9.4502  -20.5565   25.4366 C   0  0  0  0  0  0  0  0  0  0  0  0
    9.8003  -19.8695   26.4165 O   0  0  0  0  0  0  0  0  0  0  0  0
    6.3691  -18.2981   24.0782 C   0  0  0  0  0  0  0  0  0  0  0  0
    5.8472  -18.0098   22.9585 O   0  0  0  0  0  0  0  0  0  0  0  0
    9.6388  -21.9453   25.5674 O   0  0  0  0  0  0  0  0  0  0  0  0
    7.1308  -10.7376   26.3060 C   0  0  0  0  0  0  0  0  0  0  0  0
    7.3156  -12.5043   26.6817 S   0  0  0  0  0  0  0  0  0  0  0  0
    7.0726  -13.5010   25.1654 C   0  0  0  0  0  0  0  0  0  0  0  0
    7.0849  -14.9451   25.5624 C   0  0  0  0  0  0  0  0  0  0  0  0
    6.9326  -15.8750   24.3695 C   0  0  2  0  0  0  0  0  0  0  0  0
    6.9131  -17.2629   24.8720 N   0  0  0  0  0  0  0  0  0  0  0  0
    8.0281  -15.7298   23.3925 C   0  0  0  0  0  0  0  0  0  0  0  0
    9.0359  -16.5073   23.6001 O   0  0  0  0  0  0  0  0  0  0  0  0
    8.0767  -14.8589   22.2931 N   0  0  0  0  0  0  0  0  0  0  0  0
    7.1276  -13.7788   22.0945 C   0  0  0  0  0  0  0  0  0  0  0  0
    6.9442  -13.8083   20.5939 C   0  0  0  0  0  0  0  0  0  0  0  0
    8.4273  -13.8040   20.1821 C   0  0  0  0  0  0  0  0  0  0  0  0
    9.0117  -14.8014   21.2107 C   0  0  1  0  0  0  0  0  0  0  0  0
   10.3075  -14.2332   21.7369 C   0  0  0  0  0  0  0  0  0  0  0  0
   11.3784  -14.2726   20.8447 O   0  0  0  0  0  0  0  0  0  0  0  0
   10.3637  -13.7768   22.8854 O   0  0  0  0  0  0  0  0  0  0  0  0
  2  1  1  6
  2  7  1  0
  3  2  1  0
  4  3  1  0
  5  4  1  0
  6  5  2  0
  7  8  2  0
  9  5  1  0
 11 10  1  0
 11 12  1  0
 13 12  1  0
 14 13  1  1
 14 16  1  0
 15 14  1  0
 15  7  1  0
 16 17  2  0
 18 19  1  0
 18 16  1  0
 20 21  1  0
 20 19  1  0
 22 21  1  0
 22 18  1  0
 22 23  1  1
 24 23  1  0
 25 23  2  0
M  END
$$$$
