EMP.pdb
     RDKit          3D

 25 25  0  0  1  0  0  0  0  0999 V2000
   10.5862  -15.8306   20.3431 N   0  0  0  0  0  0  0  0  0  0  0  0
    9.4692  -16.3133   21.1423 C   0  0  1  0  0  0  0  0  0  0  0  0
    9.5540  -17.7989   21.2226 C   0  0  0  0  0  0  0  0  0  0  0  0
   10.9072  -18.3515   21.4939 C   0  0  0  0  0  0  0  0  0  0  0  0
   10.9031  -19.8185   21.5884 C   0  0  0  0  0  0  0  0  0  0  0  0
   10.6844  -20.4329   22.6510 O   0  0  0  0  0  0  0  0  0  0  0  0
    9.5996  -15.6483   22.4839 C   0  0  0  0  0  0  0  0  0  0  0  0
   10.7334  -15.1965   22.8295 O   0  0  0  0  0  0  0  0  0  0  0  0
   11.1514  -20.6221   20.4596 O   0  0  0  0  0  0  0  0  0  0  0  0
    5.7391  -10.9981   26.2069 C   0  0  0  0  0  0  0  0  0  0  0  0
    5.6962  -12.7634   26.6288 S   0  0  0  0  0  0  0  0  0  0  0  0
    7.3419  -13.5179   26.3561 C   0  0  0  0  0  0  0  0  0  0  0  0
    7.3054  -14.2268   25.0372 C   0  0  0  0  0  0  0  0  0  0  0  0
    8.6644  -14.7791   24.6387 C   0  0  2  0  0  0  0  0  0  0  0  0
    8.5047  -15.5116   23.3671 N   0  0  0  0  0  0  0  0  0  0  0  0
    9.2274  -15.6894   25.6537 C   0  0  0  0  0  0  0  0  0  0  0  0
    9.1223  -16.9421   25.3652 O   0  0  0  0  0  0  0  0  0  0  0  0
    9.8490  -15.3361   26.8612 N   0  0  0  0  0  0  0  0  0  0  0  0
    9.7679  -14.0053   27.4351 C   0  0  0  0  0  0  0  0  0  0  0  0
   11.1569  -13.8369   28.0084 C   0  0  0  0  0  0  0  0  0  0  0  0
   11.2443  -15.1609   28.7887 C   0  0  0  0  0  0  0  0  0  0  0  0
   10.6180  -16.1373   27.7644 C   0  0  1  0  0  0  0  0  0  0  0  0
    9.6731  -17.0546   28.5022 C   0  0  0  0  0  0  0  0  0  0  0  0
   10.2851  -18.0029   29.3212 O   0  0  0  0  0  0  0  0  0  0  0  0
    8.4506  -16.9331   28.3568 O   0  0  0  0  0  0  0  0  0  0  0  0
  2  1  1  6
  2  7  1  0
  3  2  1  0
  4  3  1  0
  5  4  1  0
  6  5  2  0
  7  8  2  0
  9  5  1  0
 11 10  1  0
 11 12  1  0
 13 12  1  0
 14 13  1  1
 14 16  1  0
 15 14  1  0
 15  7  1  0
 16 17  2  0
 18 19  1  0
 18 16  1  0
 20 21  1  0
 20 19  1  0
 22 21  1  0
 22 18  1  0
 22 23  1  1
 24 23  1  0
 25 23  2  0
M  END
$$$$
