EMP.pdb
     RDKit          3D

 25 25  0  0  1  0  0  0  0  0999 V2000
    9.8915  -15.6988   20.0020 N   0  0  0  0  0  0  0  0  0  0  0  0
   10.2049  -16.6031   21.0991 C   0  0  1  0  0  0  0  0  0  0  0  0
   11.6234  -17.0383   20.9610 C   0  0  0  0  0  0  0  0  0  0  0  0
   12.1320  -17.9233   22.0418 C   0  0  0  0  0  0  0  0  0  0  0  0
   12.5527  -19.2380   21.5360 C   0  0  0  0  0  0  0  0  0  0  0  0
   13.5985  -19.4138   20.8804 O   0  0  0  0  0  0  0  0  0  0  0  0
    9.9530  -15.8279   22.3619 C   0  0  0  0  0  0  0  0  0  0  0  0
   10.5200  -14.7023   22.5062 O   0  0  0  0  0  0  0  0  0  0  0  0
   11.7796  -20.3906   21.7711 O   0  0  0  0  0  0  0  0  0  0  0  0
    6.4523  -11.9541   27.0990 C   0  0  0  0  0  0  0  0  0  0  0  0
    6.8640  -12.9141   25.6139 S   0  0  0  0  0  0  0  0  0  0  0  0
    6.9282  -14.6995   26.0140 C   0  0  0  0  0  0  0  0  0  0  0  0
    7.3201  -15.4320   24.7678 C   0  0  0  0  0  0  0  0  0  0  0  0
    8.8268  -15.4756   24.5712 C   0  0  2  0  0  0  0  0  0  0  0  0
    9.1090  -16.3111   23.3874 N   0  0  0  0  0  0  0  0  0  0  0  0
    9.5359  -16.0345   25.7376 C   0  0  0  0  0  0  0  0  0  0  0  0
    9.8674  -17.2751   25.6175 O   0  0  0  0  0  0  0  0  0  0  0  0
    9.8768  -15.3682   26.9247 N   0  0  0  0  0  0  0  0  0  0  0  0
    9.3897  -14.0419   27.2575 C   0  0  0  0  0  0  0  0  0  0  0  0
   10.6003  -13.4339   27.9292 C   0  0  0  0  0  0  0  0  0  0  0  0
   10.9036  -14.5684   28.9243 C   0  0  0  0  0  0  0  0  0  0  0  0
   10.6872  -15.8057   28.0205 C   0  0  1  0  0  0  0  0  0  0  0  0
    9.9058  -16.8327   28.8040 C   0  0  0  0  0  0  0  0  0  0  0  0
   10.6275  -17.4987   29.7939 O   0  0  0  0  0  0  0  0  0  0  0  0
    8.7122  -17.0321   28.5475 O   0  0  0  0  0  0  0  0  0  0  0  0
  2  1  1  6
  2  7  1  0
  3  2  1  0
  4  3  1  0
  5  4  1  0
  6  5  2  0
  7  8  2  0
  9  5  1  0
 11 10  1  0
 11 12  1  0
 13 12  1  0
 14 13  1  1
 14 16  1  0
 15 14  1  0
 15  7  1  0
 16 17  2  0
 18 19  1  0
 18 16  1  0
 20 21  1  0
 20 19  1  0
 22 21  1  0
 22 18  1  0
 22 23  1  1
 24 23  1  0
 25 23  2  0
M  END
$$$$
