EMP.pdb
     RDKit          3D

 25 25  0  0  1  0  0  0  0  0999 V2000
   10.3212  -16.0651   20.3353 N   0  0  0  0  0  0  0  0  0  0  0  0
    9.1858  -16.3235   21.2091 C   0  0  1  0  0  0  0  0  0  0  0  0
    9.0436  -17.7977   21.3743 C   0  0  0  0  0  0  0  0  0  0  0  0
   10.2766  -18.5928   21.1348 C   0  0  0  0  0  0  0  0  0  0  0  0
   10.0333  -20.0402   21.2188 C   0  0  0  0  0  0  0  0  0  0  0  0
   10.9373  -20.8915   21.1066 O   0  0  0  0  0  0  0  0  0  0  0  0
    9.4869  -15.6181   22.5017 C   0  0  0  0  0  0  0  0  0  0  0  0
   10.6993  -15.4100   22.8113 O   0  0  0  0  0  0  0  0  0  0  0  0
    8.7392  -20.5502   21.4350 O   0  0  0  0  0  0  0  0  0  0  0  0
    4.8420  -12.9229   26.5333 C   0  0  0  0  0  0  0  0  0  0  0  0
    6.3356  -11.8982   26.6571 S   0  0  0  0  0  0  0  0  0  0  0  0
    7.8247  -12.9099   26.3241 C   0  0  0  0  0  0  0  0  0  0  0  0
    7.6140  -13.6155   25.0199 C   0  0  0  0  0  0  0  0  0  0  0  0
    8.8132  -14.4585   24.6171 C   0  0  2  0  0  0  0  0  0  0  0  0
    8.4672  -15.1821   23.3779 N   0  0  0  0  0  0  0  0  0  0  0  0
    9.1966  -15.4334   25.6554 C   0  0  0  0  0  0  0  0  0  0  0  0
    8.7331  -16.6225   25.4693 O   0  0  0  0  0  0  0  0  0  0  0  0
    9.9938  -15.2011   26.7868 N   0  0  0  0  0  0  0  0  0  0  0  0
   10.3144  -13.8710   27.2713 C   0  0  0  0  0  0  0  0  0  0  0  0
   11.7444  -14.0512   27.7284 C   0  0  0  0  0  0  0  0  0  0  0  0
   11.5520  -15.3120   28.5902 C   0  0  0  0  0  0  0  0  0  0  0  0
   10.6039  -16.1341   27.6847 C   0  0  1  0  0  0  0  0  0  0  0  0
    9.5216  -16.7308   28.5516 C   0  0  0  0  0  0  0  0  0  0  0  0
    9.9278  -17.7893   29.3634 O   0  0  0  0  0  0  0  0  0  0  0  0
    8.3715  -16.2771   28.5082 O   0  0  0  0  0  0  0  0  0  0  0  0
  2  1  1  6
  2  7  1  0
  3  2  1  0
  4  3  1  0
  5  4  1  0
  6  5  2  0
  7  8  2  0
  9  5  1  0
 11 10  1  0
 11 12  1  0
 13 12  1  0
 14 13  1  1
 14 16  1  0
 15 14  1  0
 15  7  1  0
 16 17  2  0
 18 19  1  0
 18 16  1  0
 20 21  1  0
 20 19  1  0
 22 21  1  0
 22 18  1  0
 22 23  1  1
 24 23  1  0
 25 23  2  0
M  END
$$$$
