EMP.pdb
     RDKit          3D

 25 25  0  0  1  0  0  0  0  0999 V2000
   10.0188  -15.5965   20.2551 N   0  0  0  0  0  0  0  0  0  0  0  0
    9.4382  -16.4720   21.2630 C   0  0  1  0  0  0  0  0  0  0  0  0
   10.2045  -17.7500   21.2756 C   0  0  0  0  0  0  0  0  0  0  0  0
   10.9451  -18.0673   20.0262 C   0  0  0  0  0  0  0  0  0  0  0  0
   12.2608  -18.6661   20.2933 C   0  0  0  0  0  0  0  0  0  0  0  0
   12.4114  -19.8525   20.6461 O   0  0  0  0  0  0  0  0  0  0  0  0
    9.5282  -15.7252   22.5643 C   0  0  0  0  0  0  0  0  0  0  0  0
   10.4621  -14.8801   22.7156 O   0  0  0  0  0  0  0  0  0  0  0  0
   13.4437  -17.9146   20.1615 O   0  0  0  0  0  0  0  0  0  0  0  0
    5.6618  -11.1186   26.6538 C   0  0  0  0  0  0  0  0  0  0  0  0
    5.9552  -12.9104   26.6561 S   0  0  0  0  0  0  0  0  0  0  0  0
    6.9646  -13.3866   25.2048 C   0  0  0  0  0  0  0  0  0  0  0  0
    7.3103  -14.8371   25.3463 C   0  0  0  0  0  0  0  0  0  0  0  0
    8.7177  -15.1469   24.8626 C   0  0  2  0  0  0  0  0  0  0  0  0
    8.6101  -15.9339   23.6183 N   0  0  0  0  0  0  0  0  0  0  0  0
    9.5029  -15.9099   25.8510 C   0  0  0  0  0  0  0  0  0  0  0  0
    9.7180  -17.1400   25.5281 O   0  0  0  0  0  0  0  0  0  0  0  0
   10.0247  -15.4416   27.0666 N   0  0  0  0  0  0  0  0  0  0  0  0
    9.7439  -14.1183   27.5927 C   0  0  0  0  0  0  0  0  0  0  0  0
   11.0747  -13.7475   28.2073 C   0  0  0  0  0  0  0  0  0  0  0  0
   11.3087  -15.0248   29.0339 C   0  0  0  0  0  0  0  0  0  0  0  0
   10.8588  -16.1056   28.0218 C   0  0  1  0  0  0  0  0  0  0  0  0
   10.0177  -17.1209   28.7570 C   0  0  0  0  0  0  0  0  0  0  0  0
   10.7246  -17.9806   29.5969 O   0  0  0  0  0  0  0  0  0  0  0  0
    8.7919  -17.1473   28.5918 O   0  0  0  0  0  0  0  0  0  0  0  0
  2  1  1  6
  2  7  1  0
  3  2  1  0
  4  3  1  0
  5  4  1  0
  6  5  2  0
  7  8  2  0
  9  5  1  0
 11 10  1  0
 11 12  1  0
 13 12  1  0
 14 13  1  1
 14 16  1  0
 15 14  1  0
 15  7  1  0
 16 17  2  0
 18 19  1  0
 18 16  1  0
 20 21  1  0
 20 19  1  0
 22 21  1  0
 22 18  1  0
 22 23  1  1
 24 23  1  0
 25 23  2  0
M  END
$$$$
