EMP.pdb
     RDKit          3D

 25 25  0  0  1  0  0  0  0  0999 V2000
   10.4391  -15.9964   20.3100 N   0  0  0  0  0  0  0  0  0  0  0  0
    9.7962  -16.7640   21.3669 C   0  0  1  0  0  0  0  0  0  0  0  0
   10.5645  -18.0249   21.5681 C   0  0  0  0  0  0  0  0  0  0  0  0
   10.4895  -19.0075   20.4550 C   0  0  0  0  0  0  0  0  0  0  0  0
   11.2533  -20.2314   20.7376 C   0  0  0  0  0  0  0  0  0  0  0  0
   10.7776  -21.2052   21.3539 O   0  0  0  0  0  0  0  0  0  0  0  0
    9.7974  -15.8800   22.5825 C   0  0  0  0  0  0  0  0  0  0  0  0
   10.8039  -15.1366   22.7912 O   0  0  0  0  0  0  0  0  0  0  0  0
   12.5897  -20.3695   20.3177 O   0  0  0  0  0  0  0  0  0  0  0  0
    5.8114  -11.2017   26.4357 C   0  0  0  0  0  0  0  0  0  0  0  0
    5.6885  -13.0128   26.4704 S   0  0  0  0  0  0  0  0  0  0  0  0
    7.3528  -13.7614   26.3244 C   0  0  0  0  0  0  0  0  0  0  0  0
    7.4150  -14.4822   25.0129 C   0  0  0  0  0  0  0  0  0  0  0  0
    8.8024  -15.0286   24.7176 C   0  0  2  0  0  0  0  0  0  0  0  0
    8.7184  -15.8514   23.4949 N   0  0  0  0  0  0  0  0  0  0  0  0
    9.3348  -15.8524   25.8192 C   0  0  0  0  0  0  0  0  0  0  0  0
    9.2129  -17.1242   25.6427 O   0  0  0  0  0  0  0  0  0  0  0  0
    9.9444  -15.4014   27.0001 N   0  0  0  0  0  0  0  0  0  0  0  0
    9.8201  -14.0395   27.4864 C   0  0  0  0  0  0  0  0  0  0  0  0
   11.2028  -13.7895   28.0450 C   0  0  0  0  0  0  0  0  0  0  0  0
   11.3327  -15.0564   28.9095 C   0  0  0  0  0  0  0  0  0  0  0  0
   10.7386  -16.1170   27.9520 C   0  0  1  0  0  0  0  0  0  0  0  0
    9.8236  -17.0145   28.7496 C   0  0  0  0  0  0  0  0  0  0  0  0
   10.4653  -17.8803   29.6346 O   0  0  0  0  0  0  0  0  0  0  0  0
    8.5983  -16.9481   28.5927 O   0  0  0  0  0  0  0  0  0  0  0  0
  2  1  1  6
  2  7  1  0
  3  2  1  0
  4  3  1  0
  5  4  1  0
  6  5  2  0
  7  8  2  0
  9  5  1  0
 11 10  1  0
 11 12  1  0
 13 12  1  0
 14 13  1  1
 14 16  1  0
 15 14  1  0
 15  7  1  0
 16 17  2  0
 18 19  1  0
 18 16  1  0
 20 21  1  0
 20 19  1  0
 22 21  1  0
 22 18  1  0
 22 23  1  1
 24 23  1  0
 25 23  2  0
M  END
$$$$
