EMP.pdb
     RDKit          3D

 25 25  0  0  1  0  0  0  0  0999 V2000
   10.0865  -16.1921   20.2304 N   0  0  0  0  0  0  0  0  0  0  0  0
    9.6780  -17.0414   21.3400 C   0  0  1  0  0  0  0  0  0  0  0  0
   10.6779  -18.1362   21.4890 C   0  0  0  0  0  0  0  0  0  0  0  0
   10.8710  -18.9971   20.2925 C   0  0  0  0  0  0  0  0  0  0  0  0
   12.2903  -19.1644   19.9476 C   0  0  0  0  0  0  0  0  0  0  0  0
   13.2148  -18.6147   20.5782 O   0  0  0  0  0  0  0  0  0  0  0  0
    9.6093  -16.1463   22.5455 C   0  0  0  0  0  0  0  0  0  0  0  0
   10.5693  -15.3460   22.7625 O   0  0  0  0  0  0  0  0  0  0  0  0
   12.6868  -19.9714   18.8646 O   0  0  0  0  0  0  0  0  0  0  0  0
    6.1332  -11.3713   27.0722 C   0  0  0  0  0  0  0  0  0  0  0  0
    6.1866  -12.5322   25.6773 S   0  0  0  0  0  0  0  0  0  0  0  0
    6.9599  -14.1082   26.1970 C   0  0  0  0  0  0  0  0  0  0  0  0
    7.0725  -14.9818   24.9856 C   0  0  0  0  0  0  0  0  0  0  0  0
    8.5165  -15.3035   24.6357 C   0  0  2  0  0  0  0  0  0  0  0  0
    8.5147  -16.1683   23.4394 N   0  0  0  0  0  0  0  0  0  0  0  0
    9.2260  -15.9929   25.7298 C   0  0  0  0  0  0  0  0  0  0  0  0
    9.4038  -17.2560   25.5390 O   0  0  0  0  0  0  0  0  0  0  0  0
    9.7135  -15.4256   26.9171 N   0  0  0  0  0  0  0  0  0  0  0  0
    9.3589  -14.0902   27.3619 C   0  0  0  0  0  0  0  0  0  0  0  0
   10.6636  -13.6125   27.9583 C   0  0  0  0  0  0  0  0  0  0  0  0
   10.9597  -14.8239   28.8607 C   0  0  0  0  0  0  0  0  0  0  0  0
   10.5752  -15.9856   27.9135 C   0  0  1  0  0  0  0  0  0  0  0  0
    9.7843  -16.9990   28.7051 C   0  0  0  0  0  0  0  0  0  0  0  0
   10.5208  -17.7306   29.6361 O   0  0  0  0  0  0  0  0  0  0  0  0
    8.5709  -17.1327   28.5045 O   0  0  0  0  0  0  0  0  0  0  0  0
  2  1  1  6
  2  7  1  0
  3  2  1  0
  4  3  1  0
  5  4  1  0
  6  5  2  0
  7  8  2  0
  9  5  1  0
 11 10  1  0
 11 12  1  0
 13 12  1  0
 14 13  1  1
 14 16  1  0
 15 14  1  0
 15  7  1  0
 16 17  2  0
 18 19  1  0
 18 16  1  0
 20 21  1  0
 20 19  1  0
 22 21  1  0
 22 18  1  0
 22 23  1  1
 24 23  1  0
 25 23  2  0
M  END
$$$$
