EMP.pdb
     RDKit          3D

 25 25  0  0  1  0  0  0  0  0999 V2000
    9.6456  -18.5047   21.6808 N   0  0  0  0  0  0  0  0  0  0  0  0
   10.9453  -17.9133   21.9643 C   0  0  1  0  0  0  0  0  0  0  0  0
   11.5947  -17.5591   20.6707 C   0  0  0  0  0  0  0  0  0  0  0  0
   10.6774  -17.4149   19.5097 C   0  0  0  0  0  0  0  0  0  0  0  0
   11.3846  -17.0120   18.2855 C   0  0  0  0  0  0  0  0  0  0  0  0
   12.2597  -17.7137   17.7410 O   0  0  0  0  0  0  0  0  0  0  0  0
   10.6767  -16.7141   22.8297 C   0  0  0  0  0  0  0  0  0  0  0  0
   11.6335  -15.9199   23.0800 O   0  0  0  0  0  0  0  0  0  0  0  0
   11.1040  -15.7870   17.6516 O   0  0  0  0  0  0  0  0  0  0  0  0
    5.9171  -12.1916   26.9795 C   0  0  0  0  0  0  0  0  0  0  0  0
    6.4490  -13.7743   26.2663 S   0  0  0  0  0  0  0  0  0  0  0  0
    7.6834  -13.4882   24.9449 C   0  0  0  0  0  0  0  0  0  0  0  0
    7.8484  -14.7712   24.1898 C   0  0  0  0  0  0  0  0  0  0  0  0
    9.2282  -15.3808   24.3781 C   0  0  2  0  0  0  0  0  0  0  0  0
    9.3985  -16.4454   23.3699 N   0  0  0  0  0  0  0  0  0  0  0  0
    9.4169  -15.9545   25.7238 C   0  0  0  0  0  0  0  0  0  0  0  0
    9.1196  -17.2059   25.8178 O   0  0  0  0  0  0  0  0  0  0  0  0
    9.8769  -15.2932   26.8730 N   0  0  0  0  0  0  0  0  0  0  0  0
    9.6697  -13.8760   27.1088 C   0  0  0  0  0  0  0  0  0  0  0  0
   10.9733  -13.4843   27.7670 C   0  0  0  0  0  0  0  0  0  0  0  0
   11.0284  -14.5870   28.8396 C   0  0  0  0  0  0  0  0  0  0  0  0
   10.5705  -15.8121   28.0126 C   0  0  1  0  0  0  0  0  0  0  0  0
    9.5880  -16.6024   28.8427 C   0  0  0  0  0  0  0  0  0  0  0  0
   10.1500  -17.3426   29.8822 O   0  0  0  0  0  0  0  0  0  0  0  0
    8.3800  -16.5628   28.5788 O   0  0  0  0  0  0  0  0  0  0  0  0
  2  1  1  6
  2  7  1  0
  3  2  1  0
  4  3  1  0
  5  4  1  0
  6  5  2  0
  7  8  2  0
  9  5  1  0
 11 10  1  0
 11 12  1  0
 13 12  1  0
 14 13  1  1
 14 16  1  0
 15 14  1  0
 15  7  1  0
 16 17  2  0
 18 19  1  0
 18 16  1  0
 20 21  1  0
 20 19  1  0
 22 21  1  0
 22 18  1  0
 22 23  1  1
 24 23  1  0
 25 23  2  0
M  END
$$$$
