EMP.pdb
     RDKit          3D

 25 25  0  0  1  0  0  0  0  0999 V2000
    8.5779  -17.2675   21.2185 N   0  0  0  0  0  0  0  0  0  0  0  0
    9.9925  -16.9515   21.3549 C   0  0  1  0  0  0  0  0  0  0  0  0
   10.4747  -16.3805   20.0656 C   0  0  0  0  0  0  0  0  0  0  0  0
    9.6443  -16.6949   18.8733 C   0  0  0  0  0  0  0  0  0  0  0  0
   10.4064  -17.3982   17.8313 C   0  0  0  0  0  0  0  0  0  0  0  0
   10.1070  -18.5358   17.4179 O   0  0  0  0  0  0  0  0  0  0  0  0
   10.0933  -15.9798   22.4971 C   0  0  0  0  0  0  0  0  0  0  0  0
   11.2047  -15.4063   22.7096 O   0  0  0  0  0  0  0  0  0  0  0  0
   11.5376  -16.8107   17.2340 O   0  0  0  0  0  0  0  0  0  0  0  0
    5.0842  -13.6038   26.6842 C   0  0  0  0  0  0  0  0  0  0  0  0
    6.3402  -12.3887   26.1919 S   0  0  0  0  0  0  0  0  0  0  0  0
    7.9660  -13.2066   25.9930 C   0  0  0  0  0  0  0  0  0  0  0  0
    7.8914  -14.0795   24.7781 C   0  0  0  0  0  0  0  0  0  0  0  0
    9.1812  -14.8468   24.5362 C   0  0  2  0  0  0  0  0  0  0  0  0
    8.9948  -15.6868   23.3368 N   0  0  0  0  0  0  0  0  0  0  0  0
    9.5530  -15.7065   25.6757 C   0  0  0  0  0  0  0  0  0  0  0  0
    9.3985  -16.9695   25.4650 O   0  0  0  0  0  0  0  0  0  0  0  0
   10.0457  -15.2970   26.9243 N   0  0  0  0  0  0  0  0  0  0  0  0
    9.9617  -13.9282   27.3997 C   0  0  0  0  0  0  0  0  0  0  0  0
   11.2808  -13.7769   28.1232 C   0  0  0  0  0  0  0  0  0  0  0  0
   11.2134  -15.0473   28.9898 C   0  0  0  0  0  0  0  0  0  0  0  0
   10.6650  -16.0651   27.9613 C   0  0  1  0  0  0  0  0  0  0  0  0
    9.5978  -16.8918   28.6370 C   0  0  0  0  0  0  0  0  0  0  0  0
   10.0669  -17.8300   29.5557 O   0  0  0  0  0  0  0  0  0  0  0  0
    8.4056  -16.7112   28.3607 O   0  0  0  0  0  0  0  0  0  0  0  0
  2  1  1  6
  2  7  1  0
  3  2  1  0
  4  3  1  0
  5  4  1  0
  6  5  2  0
  7  8  2  0
  9  5  1  0
 11 10  1  0
 11 12  1  0
 13 12  1  0
 14 13  1  1
 14 16  1  0
 15 14  1  0
 15  7  1  0
 16 17  2  0
 18 19  1  0
 18 16  1  0
 20 21  1  0
 20 19  1  0
 22 21  1  0
 22 18  1  0
 22 23  1  1
 24 23  1  0
 25 23  2  0
M  END
$$$$
