EMP.pdb
     RDKit          3D

 25 25  0  0  1  0  0  0  0  0999 V2000
   10.0823  -15.8323   20.5408 N   0  0  0  0  0  0  0  0  0  0  0  0
    9.0198  -16.3706   21.3780 C   0  0  1  0  0  0  0  0  0  0  0  0
    9.1989  -17.8467   21.4764 C   0  0  0  0  0  0  0  0  0  0  0  0
   10.5558  -18.3529   21.1409 C   0  0  0  0  0  0  0  0  0  0  0  0
   10.5961  -19.0169   19.8299 C   0  0  0  0  0  0  0  0  0  0  0  0
    9.8352  -18.7160   18.8892 O   0  0  0  0  0  0  0  0  0  0  0  0
    9.1454  -15.6780   22.7060 C   0  0  0  0  0  0  0  0  0  0  0  0
   10.2775  -15.2172   23.0453 O   0  0  0  0  0  0  0  0  0  0  0  0
   11.5158  -20.0488   19.5637 O   0  0  0  0  0  0  0  0  0  0  0  0
    5.5869  -11.2999   25.9960 C   0  0  0  0  0  0  0  0  0  0  0  0
    7.1525  -12.0625   26.5096 S   0  0  0  0  0  0  0  0  0  0  0  0
    6.9212  -13.8584   26.7798 C   0  0  0  0  0  0  0  0  0  0  0  0
    6.8528  -14.5163   25.4359 C   0  0  0  0  0  0  0  0  0  0  0  0
    8.2287  -14.8600   24.8886 C   0  0  2  0  0  0  0  0  0  0  0  0
    8.0479  -15.5250   23.5832 N   0  0  0  0  0  0  0  0  0  0  0  0
    8.9898  -15.7513   25.7841 C   0  0  0  0  0  0  0  0  0  0  0  0
    8.9248  -17.0018   25.4751 O   0  0  0  0  0  0  0  0  0  0  0  0
    9.7557  -15.3824   26.9007 N   0  0  0  0  0  0  0  0  0  0  0  0
    9.7084  -14.0576   27.4920 C   0  0  0  0  0  0  0  0  0  0  0  0
   11.1553  -13.8448   27.8757 C   0  0  0  0  0  0  0  0  0  0  0  0
   11.3901  -15.1684   28.6256 C   0  0  0  0  0  0  0  0  0  0  0  0
   10.6648  -16.1610   27.6857 C   0  0  1  0  0  0  0  0  0  0  0  0
    9.8580  -17.1130   28.5353 C   0  0  0  0  0  0  0  0  0  0  0  0
    8.4775  -16.9211   28.4936 O   0  0  0  0  0  0  0  0  0  0  0  0
   10.4284  -17.9843   29.2029 O   0  0  0  0  0  0  0  0  0  0  0  0
  2  1  1  6
  2  7  1  0
  3  2  1  0
  4  3  1  0
  5  4  1  0
  6  5  2  0
  7  8  2  0
  9  5  1  0
 11 10  1  0
 11 12  1  0
 13 12  1  0
 14 13  1  1
 14 16  1  0
 15 14  1  0
 15  7  1  0
 16 17  2  0
 18 19  1  0
 18 16  1  0
 20 21  1  0
 20 19  1  0
 22 21  1  0
 22 18  1  0
 22 23  1  1
 24 23  1  0
 25 23  2  0
M  END
$$$$
