EMP.pdb
     RDKit          3D

 25 25  0  0  1  0  0  0  0  0999 V2000
    9.0646  -18.1800   21.7079 N   0  0  0  0  0  0  0  0  0  0  0  0
   10.3730  -17.5505   21.8140 C   0  0  1  0  0  0  0  0  0  0  0  0
   10.7319  -16.9815   20.4843 C   0  0  0  0  0  0  0  0  0  0  0  0
   11.6091  -17.8317   19.6372 C   0  0  0  0  0  0  0  0  0  0  0  0
   12.4738  -17.0363   18.7536 C   0  0  0  0  0  0  0  0  0  0  0  0
   12.3633  -17.0353   17.5116 O   0  0  0  0  0  0  0  0  0  0  0  0
   10.2441  -16.5008   22.8820 C   0  0  0  0  0  0  0  0  0  0  0  0
   11.2517  -15.7768   23.1461 O   0  0  0  0  0  0  0  0  0  0  0  0
   13.4928  -16.2174   19.2755 O   0  0  0  0  0  0  0  0  0  0  0  0
    5.8977  -12.4054   26.4281 C   0  0  0  0  0  0  0  0  0  0  0  0
    7.0514  -12.4199   25.0263 S   0  0  0  0  0  0  0  0  0  0  0  0
    6.9684  -14.0290   24.1570 C   0  0  0  0  0  0  0  0  0  0  0  0
    7.5534  -15.0676   25.0639 C   0  0  0  0  0  0  0  0  0  0  0  0
    9.0089  -15.3646   24.7413 C   0  0  2  0  0  0  0  0  0  0  0  0
    9.0421  -16.2964   23.5968 N   0  0  0  0  0  0  0  0  0  0  0  0
    9.7307  -15.9682   25.8773 C   0  0  0  0  0  0  0  0  0  0  0  0
   10.1040  -17.1878   25.6861 O   0  0  0  0  0  0  0  0  0  0  0  0
   10.0436  -15.3626   27.1040 N   0  0  0  0  0  0  0  0  0  0  0  0
    9.5917  -14.0326   27.4699 C   0  0  0  0  0  0  0  0  0  0  0  0
   10.7932  -13.4986   28.2164 C   0  0  0  0  0  0  0  0  0  0  0  0
   11.0108  -14.6822   29.1762 C   0  0  0  0  0  0  0  0  0  0  0  0
   10.7887  -15.8738   28.2142 C   0  0  1  0  0  0  0  0  0  0  0  0
    9.9365  -16.8998   28.9213 C   0  0  0  0  0  0  0  0  0  0  0  0
   10.5876  -17.6276   29.9167 O   0  0  0  0  0  0  0  0  0  0  0  0
    8.7500  -17.0461   28.6034 O   0  0  0  0  0  0  0  0  0  0  0  0
  2  1  1  6
  2  7  1  0
  3  2  1  0
  4  3  1  0
  5  4  1  0
  6  5  2  0
  7  8  2  0
  9  5  1  0
 11 10  1  0
 11 12  1  0
 13 12  1  0
 14 13  1  1
 14 16  1  0
 15 14  1  0
 15  7  1  0
 16 17  2  0
 18 19  1  0
 18 16  1  0
 20 21  1  0
 20 19  1  0
 22 21  1  0
 22 18  1  0
 22 23  1  1
 24 23  1  0
 25 23  2  0
M  END
$$$$
