LAV.pdb
     RDKit          3D

 21 20  0  0  1  0  0  0  0  0999 V2000
   26.3453  -23.3013  -14.7794 C   0  0  0  0  0  0  0  0  0  0  0  0
   26.1445  -21.8293  -14.7301 C   0  0  2  0  0  0  0  0  0  0  0  0
   26.7913  -21.2221  -15.9859 C   0  0  0  0  0  0  0  0  0  0  0  0
   26.5339  -21.1062  -13.5116 C   0  0  0  0  0  0  0  0  0  0  0  0
   26.1525  -21.6685  -12.1909 C   0  0  2  0  0  0  0  0  0  0  0  0
   24.6943  -21.9553  -12.2436 N   0  0  0  0  0  0  0  0  0  0  0  0
   26.4692  -20.9118  -10.9902 C   0  0  0  0  0  0  0  0  0  0  0  0
   27.5613  -20.3179  -10.8686 O   0  0  0  0  0  0  0  0  0  0  0  0
   24.4567  -19.2619   -8.3103 C   0  0  0  0  0  0  0  0  0  0  0  0
   25.7591  -19.8510   -8.8056 C   0  0  2  0  0  0  0  0  0  0  0  0
   25.5826  -20.7841   -9.8729 N   0  0  0  0  0  0  0  0  0  0  0  0
   26.5010  -20.4571   -7.6496 C   0  0  0  0  0  0  0  0  0  0  0  0
   26.2498  -21.6266   -7.2651 O   0  0  0  0  0  0  0  0  0  0  0  0
   30.2944  -20.4524   -7.1200 C   0  0  0  0  0  0  0  0  0  0  0  0
   29.6429  -20.0087   -5.8533 C   0  0  1  0  0  0  0  0  0  0  0  0
   29.8485  -18.5186   -5.6983 C   0  0  0  0  0  0  0  0  0  0  0  0
   28.1641  -20.3293   -5.8148 C   0  0  2  0  0  0  0  0  0  0  0  0
   27.5132  -19.7359   -6.9462 N   0  0  0  0  0  0  0  0  0  0  0  0
   27.5762  -19.8672   -4.5284 C   0  0  0  0  0  0  0  0  0  0  0  0
   27.8952  -20.5045   -3.3146 O   0  0  0  0  0  0  0  0  0  0  0  0
   26.7804  -18.8997   -4.4794 O   0  0  0  0  0  0  0  0  0  0  0  0
  2  1  1  1
  3  2  1  0
  4  2  1  0
  5  4  1  0
  5  7  1  0
  5  6  1  6
  7  8  2  0
  7 11  1  0
 10  9  1  1
 10 12  1  0
 11 10  1  0
 12 18  1  0
 12 13  2  0
 15 17  1  0
 15 14  1  6
 16 15  1  0
 17 19  1  0
 17 18  1  6
 19 20  1  0
 21 19  2  0
M  END
$$$$
