LAV.pdb
     RDKit          3D

 21 20  0  0  1  0  0  0  0  0999 V2000
   27.8685  -20.2600  -15.3051 C   0  0  0  0  0  0  0  0  0  0  0  0
   26.5519  -19.7150  -14.8820 C   0  0  2  0  0  0  0  0  0  0  0  0
   26.1429  -18.6305  -15.8923 C   0  0  0  0  0  0  0  0  0  0  0  0
   26.3927  -19.2569  -13.4949 C   0  0  0  0  0  0  0  0  0  0  0  0
   26.6831  -20.2044  -12.3886 C   0  0  2  0  0  0  0  0  0  0  0  0
   25.9454  -21.4609  -12.6857 N   0  0  0  0  0  0  0  0  0  0  0  0
   26.4229  -19.7843  -11.0210 C   0  0  0  0  0  0  0  0  0  0  0  0
   26.4079  -18.5756  -10.7069 O   0  0  0  0  0  0  0  0  0  0  0  0
   24.6742  -20.9766   -8.0169 C   0  0  0  0  0  0  0  0  0  0  0  0
   25.8921  -20.2945   -8.6003 C   0  0  2  0  0  0  0  0  0  0  0  0
   26.1683  -20.6933   -9.9441 N   0  0  0  0  0  0  0  0  0  0  0  0
   27.0689  -20.5218   -7.6962 C   0  0  0  0  0  0  0  0  0  0  0  0
   27.8155  -21.5206   -7.8496 O   0  0  0  0  0  0  0  0  0  0  0  0
   28.4551  -17.6265   -4.7434 C   0  0  0  0  0  0  0  0  0  0  0  0
   29.2524  -18.6782   -5.4390 C   0  0  1  0  0  0  0  0  0  0  0  0
   30.4509  -19.0231   -4.5838 C   0  0  0  0  0  0  0  0  0  0  0  0
   28.4475  -19.9283   -5.7223 C   0  0  2  0  0  0  0  0  0  0  0  0
   27.3850  -19.6204   -6.6346 N   0  0  0  0  0  0  0  0  0  0  0  0
   27.9384  -20.5058   -4.4490 C   0  0  0  0  0  0  0  0  0  0  0  0
   28.8046  -21.1552   -3.5496 O   0  0  0  0  0  0  0  0  0  0  0  0
   26.7271  -20.4353   -4.1333 O   0  0  0  0  0  0  0  0  0  0  0  0
  2  1  1  6
  3  2  1  0
  4  2  1  0
  5  4  1  0
  5  7  1  0
  5  6  1  6
  7  8  2  0
  7 11  1  0
 10  9  1  1
 10 12  1  0
 11 10  1  0
 12 18  1  0
 12 13  2  0
 15 17  1  0
 15 14  1  1
 16 15  1  0
 17 19  1  0
 17 18  1  6
 19 20  1  0
 21 19  2  0
M  END
$$$$
