LAV.pdb
     RDKit          3D

 21 20  0  0  1  0  0  0  0  0999 V2000
   28.7313  -17.9938  -17.3469 C   0  0  0  0  0  0  0  0  0  0  0  0
   27.4841  -17.2994  -16.9325 C   0  0  2  0  0  0  0  0  0  0  0  0
   27.5170  -15.8789  -17.5200 C   0  0  0  0  0  0  0  0  0  0  0  0
   27.1221  -17.2929  -15.5084 C   0  0  0  0  0  0  0  0  0  0  0  0
   27.1497  -18.5727  -14.7553 C   0  0  2  0  0  0  0  0  0  0  0  0
   26.7357  -19.6438  -15.7002 N   0  0  0  0  0  0  0  0  0  0  0  0
   26.3883  -18.6748  -13.5206 C   0  0  0  0  0  0  0  0  0  0  0  0
   26.3971  -17.7540  -12.6768 O   0  0  0  0  0  0  0  0  0  0  0  0
   23.5686  -20.7783  -12.1621 C   0  0  0  0  0  0  0  0  0  0  0  0
   24.7873  -19.8986  -11.9905 C   0  0  2  0  0  0  0  0  0  0  0  0
   25.5841  -19.8075  -13.1728 N   0  0  0  0  0  0  0  0  0  0  0  0
   25.5854  -20.3803  -10.8138 C   0  0  0  0  0  0  0  0  0  0  0  0
   26.3631  -21.3613  -10.9211 O   0  0  0  0  0  0  0  0  0  0  0  0
   27.1599  -19.8498   -6.1812 C   0  0  0  0  0  0  0  0  0  0  0  0
   26.4657  -19.2934   -7.3788 C   0  0  1  0  0  0  0  0  0  0  0  0
   27.3650  -18.2644   -8.0262 C   0  0  0  0  0  0  0  0  0  0  0  0
   26.0976  -20.3601   -8.3876 C   0  0  2  0  0  0  0  0  0  0  0  0
   25.4943  -19.7492   -9.5359 N   0  0  0  0  0  0  0  0  0  0  0  0
   25.2025  -21.3687   -7.7586 C   0  0  0  0  0  0  0  0  0  0  0  0
   25.7247  -22.4068   -6.9643 O   0  0  0  0  0  0  0  0  0  0  0  0
   23.9589  -21.3306   -7.9123 O   0  0  0  0  0  0  0  0  0  0  0  0
  2  1  1  1
  3  2  1  0
  4  2  1  0
  5  4  1  0
  5  7  1  0
  5  6  1  6
  7  8  2  0
  7 11  1  0
 10  9  1  6
 10 12  1  0
 11 10  1  0
 12 18  1  0
 12 13  2  0
 15 17  1  0
 15 14  1  1
 16 15  1  0
 17 19  1  0
 17 18  1  6
 19 20  1  0
 21 19  2  0
M  END
$$$$
