LAV.pdb
     RDKit          3D

 21 20  0  0  1  0  0  0  0  0999 V2000
   13.9579  -11.1836  -15.4870 C   0  0  0  0  0  0  0  0  0  0  0  0
   14.0664  -12.1503  -14.3631 C   0  0  2  0  0  0  0  0  0  0  0  0
   12.7439  -12.9303  -14.2818 C   0  0  0  0  0  0  0  0  0  0  0  0
   14.4894  -11.6542  -13.0463 C   0  0  0  0  0  0  0  0  0  0  0  0
   15.7304  -10.8440  -12.9497 C   0  0  2  0  0  0  0  0  0  0  0  0
   16.8737  -11.7698  -13.1671 N   0  0  0  0  0  0  0  0  0  0  0  0
   15.9544  -10.0466  -11.7545 C   0  0  0  0  0  0  0  0  0  0  0  0
   15.3323  -10.2776  -10.6963 O   0  0  0  0  0  0  0  0  0  0  0  0
   18.3807   -7.3635  -10.5738 C   0  0  0  0  0  0  0  0  0  0  0  0
   17.0833   -8.1405  -10.5320 C   0  0  2  0  0  0  0  0  0  0  0  0
   16.8813   -8.9570  -11.6868 N   0  0  0  0  0  0  0  0  0  0  0  0
   15.9424   -7.1897  -10.3125 C   0  0  0  0  0  0  0  0  0  0  0  0
   15.2999   -6.7193  -11.2845 O   0  0  0  0  0  0  0  0  0  0  0  0
   13.1735   -7.3712   -7.4056 C   0  0  0  0  0  0  0  0  0  0  0  0
   13.8134   -6.0273   -7.5071 C   0  0  1  0  0  0  0  0  0  0  0  0
   14.8096   -5.8781   -6.3793 C   0  0  0  0  0  0  0  0  0  0  0  0
   14.5059   -5.8100   -8.8354 C   0  0  2  0  0  0  0  0  0  0  0  0
   15.5442   -6.7847   -9.0023 N   0  0  0  0  0  0  0  0  0  0  0  0
   15.0294   -4.4195   -8.9154 C   0  0  0  0  0  0  0  0  0  0  0  0
   16.4069   -4.1551   -8.7982 O   0  0  0  0  0  0  0  0  0  0  0  0
   14.2673   -3.4392   -9.0889 O   0  0  0  0  0  0  0  0  0  0  0  0
  2  1  1  6
  3  2  1  0
  4  2  1  0
  5  4  1  0
  5  7  1  0
  5  6  1  1
  7  8  2  0
  7 11  1  0
 10  9  1  6
 10 12  1  0
 11 10  1  0
 12 18  1  0
 12 13  2  0
 15 17  1  0
 15 14  1  6
 16 15  1  0
 17 19  1  0
 17 18  1  1
 19 20  1  0
 21 19  2  0
M  END
$$$$
