LAV.pdb
     RDKit          3D

 21 20  0  0  1  0  0  0  0  0999 V2000
   19.6648  -21.7710  -15.7204 C   0  0  0  0  0  0  0  0  0  0  0  0
   19.2583  -20.8021  -14.6691 C   0  0  2  0  0  0  0  0  0  0  0  0
   18.0432  -20.0190  -15.1929 C   0  0  0  0  0  0  0  0  0  0  0  0
   20.2789  -19.9104  -14.1012 C   0  0  0  0  0  0  0  0  0  0  0  0
   21.5996  -20.4779  -13.7272 C   0  0  2  0  0  0  0  0  0  0  0  0
   21.4615  -21.0372  -12.3563 N   0  0  0  0  0  0  0  0  0  0  0  0
   22.7745  -19.6246  -13.8021 C   0  0  0  0  0  0  0  0  0  0  0  0
   22.8598  -18.5794  -13.1236 O   0  0  0  0  0  0  0  0  0  0  0  0
   26.3386  -19.8561  -14.9610 C   0  0  0  0  0  0  0  0  0  0  0  0
   25.0679  -19.0722  -14.7174 C   0  0  2  0  0  0  0  0  0  0  0  0
   23.9056  -19.8991  -14.6365 N   0  0  0  0  0  0  0  0  0  0  0  0
   24.9284  -18.0129  -15.7720 C   0  0  0  0  0  0  0  0  0  0  0  0
   24.3110  -18.2458  -16.8412 O   0  0  0  0  0  0  0  0  0  0  0  0
   24.0455  -14.1804  -15.1408 C   0  0  0  0  0  0  0  0  0  0  0  0
   25.2471  -14.3461  -16.0094 C   0  0  1  0  0  0  0  0  0  0  0  0
   26.4845  -14.0836  -15.1808 C   0  0  0  0  0  0  0  0  0  0  0  0
   25.3302  -15.7225  -16.6336 C   0  0  2  0  0  0  0  0  0  0  0  0
   25.4867  -16.7091  -15.6049 N   0  0  0  0  0  0  0  0  0  0  0  0
   26.4416  -15.7674  -17.6219 C   0  0  0  0  0  0  0  0  0  0  0  0
   26.2352  -15.3933  -18.9630 O   0  0  0  0  0  0  0  0  0  0  0  0
   27.5947  -16.1377  -17.2979 O   0  0  0  0  0  0  0  0  0  0  0  0
  2  1  1  6
  3  2  1  0
  4  2  1  0
  5  4  1  0
  5  7  1  0
  5  6  1  1
  7  8  2  0
  7 11  1  0
 10  9  1  6
 10 12  1  0
 11 10  1  0
 12 18  1  0
 12 13  2  0
 15 17  1  0
 15 14  1  1
 16 15  1  0
 17 19  1  0
 17 18  1  1
 19 20  1  0
 21 19  2  0
M  END
$$$$
