LAV.pdb
     RDKit          3D

 21 20  0  0  1  0  0  0  0  0999 V2000
   16.3787  -13.0663  -17.5149 C   0  0  0  0  0  0  0  0  0  0  0  0
   16.8685  -13.1629  -16.1148 C   0  0  2  0  0  0  0  0  0  0  0  0
   15.8094  -13.9180  -15.2950 C   0  0  0  0  0  0  0  0  0  0  0  0
   17.3106  -11.9361  -15.4376 C   0  0  0  0  0  0  0  0  0  0  0  0
   18.2708  -11.0400  -16.1311 C   0  0  2  0  0  0  0  0  0  0  0  0
   19.5316  -11.8075  -16.3113 N   0  0  0  0  0  0  0  0  0  0  0  0
   18.5577   -9.7381  -15.5504 C   0  0  0  0  0  0  0  0  0  0  0  0
   17.6432   -9.0093  -15.1116 O   0  0  0  0  0  0  0  0  0  0  0  0
   21.6183   -7.7455  -14.4847 C   0  0  0  0  0  0  0  0  0  0  0  0
   20.1703   -7.9020  -14.8942 C   0  0  2  0  0  0  0  0  0  0  0  0
   19.8764   -9.1919  -15.4336 N   0  0  0  0  0  0  0  0  0  0  0  0
   19.8018   -6.8006  -15.8455 C   0  0  0  0  0  0  0  0  0  0  0  0
   20.0835   -6.8835  -17.0671 O   0  0  0  0  0  0  0  0  0  0  0  0
   16.3494   -5.3343  -16.3331 C   0  0  0  0  0  0  0  0  0  0  0  0
   17.3057   -4.2101  -16.1155 C   0  0  1  0  0  0  0  0  0  0  0  0
   17.1415   -3.7005  -14.7013 C   0  0  0  0  0  0  0  0  0  0  0  0
   18.7451   -4.6150  -16.3510 C   0  0  2  0  0  0  0  0  0  0  0  0
   19.1222   -5.6243  -15.4050 N   0  0  0  0  0  0  0  0  0  0  0  0
   19.6293   -3.4208  -16.2734 C   0  0  0  0  0  0  0  0  0  0  0  0
   19.7392   -2.5280  -17.3560 O   0  0  0  0  0  0  0  0  0  0  0  0
   20.3042   -3.1682  -15.2474 O   0  0  0  0  0  0  0  0  0  0  0  0
  2  1  1  6
  3  2  1  0
  4  2  1  0
  5  4  1  0
  5  7  1  0
  5  6  1  1
  7  8  2  0
  7 11  1  0
 10  9  1  6
 10 12  1  0
 11 10  1  0
 12 18  1  0
 12 13  2  0
 15 17  1  0
 15 14  1  1
 16 15  1  0
 17 19  1  0
 17 18  1  1
 19 20  1  0
 21 19  2  0
M  END
$$$$
