LAV.pdb
     RDKit          3D

 21 20  0  0  1  0  0  0  0  0999 V2000
   26.8620  -14.2713  -16.7087 C   0  0  0  0  0  0  0  0  0  0  0  0
   25.4834  -14.7180  -16.3781 C   0  0  2  0  0  0  0  0  0  0  0  0
   24.7888  -13.5795  -15.6130 C   0  0  0  0  0  0  0  0  0  0  0  0
   25.3049  -16.0139  -15.7087 C   0  0  0  0  0  0  0  0  0  0  0  0
   26.0956  -17.1796  -16.1798 C   0  0  2  0  0  0  0  0  0  0  0  0
   25.5464  -17.5724  -17.5048 N   0  0  0  0  0  0  0  0  0  0  0  0
   26.2034  -18.3462  -15.3186 C   0  0  0  0  0  0  0  0  0  0  0  0
   25.1978  -19.0221  -15.0153 O   0  0  0  0  0  0  0  0  0  0  0  0
   28.9743  -20.3318  -13.5971 C   0  0  0  0  0  0  0  0  0  0  0  0
   27.5454  -19.8954  -13.8349 C   0  0  2  0  0  0  0  0  0  0  0  0
   27.4367  -18.8103  -14.7579 N   0  0  0  0  0  0  0  0  0  0  0  0
   26.8982  -19.5769  -12.5183 C   0  0  0  0  0  0  0  0  0  0  0  0
   27.0150  -18.4374  -12.0021 O   0  0  0  0  0  0  0  0  0  0  0  0
   23.3544  -19.8748  -11.4716 C   0  0  0  0  0  0  0  0  0  0  0  0
   24.1534  -20.5813  -10.4285 C   0  0  1  0  0  0  0  0  0  0  0  0
   23.9587  -22.0716  -10.5950 C   0  0  0  0  0  0  0  0  0  0  0  0
   25.6278  -20.2459  -10.4965 C   0  0  2  0  0  0  0  0  0  0  0  0
   26.1303  -20.5471  -11.8052 N   0  0  0  0  0  0  0  0  0  0  0  0
   26.3668  -20.9798   -9.4337 C   0  0  0  0  0  0  0  0  0  0  0  0
   26.2773  -20.5874   -8.0850 O   0  0  0  0  0  0  0  0  0  0  0  0
   27.0912  -21.9679   -9.6996 O   0  0  0  0  0  0  0  0  0  0  0  0
  2  1  1  1
  3  2  1  0
  4  2  1  0
  5  4  1  0
  5  7  1  0
  5  6  1  6
  7  8  2  0
  7 11  1  0
 10  9  1  1
 10 12  1  0
 11 10  1  0
 12 18  1  0
 12 13  2  0
 15 17  1  0
 15 14  1  6
 16 15  1  0
 17 19  1  0
 17 18  1  6
 19 20  1  0
 21 19  2  0
M  END
$$$$
