LAV.pdb
     RDKit          3D

 21 20  0  0  1  0  0  0  0  0999 V2000
   13.8238  -14.5097  -15.4501 C   0  0  0  0  0  0  0  0  0  0  0  0
   14.8142  -14.2673  -16.5316 C   0  0  2  0  0  0  0  0  0  0  0  0
   14.6651  -15.3920  -17.5692 C   0  0  0  0  0  0  0  0  0  0  0  0
   16.2195  -14.0477  -16.1627 C   0  0  0  0  0  0  0  0  0  0  0  0
   17.2307  -13.9061  -17.2414 C   0  0  2  0  0  0  0  0  0  0  0  0
   17.9784  -15.1897  -17.3094 N   0  0  0  0  0  0  0  0  0  0  0  0
   18.1603  -12.7893  -17.1870 C   0  0  0  0  0  0  0  0  0  0  0  0
   19.1699  -12.8227  -16.4522 O   0  0  0  0  0  0  0  0  0  0  0  0
   18.6756   -9.4927  -19.0407 C   0  0  0  0  0  0  0  0  0  0  0  0
   18.9381  -10.5048  -17.9473 C   0  0  2  0  0  0  0  0  0  0  0  0
   18.0053  -11.5868  -17.9491 N   0  0  0  0  0  0  0  0  0  0  0  0
   18.9784   -9.8031  -16.6207 C   0  0  0  0  0  0  0  0  0  0  0  0
   17.9551   -9.7394  -15.8944 O   0  0  0  0  0  0  0  0  0  0  0  0
   22.6913   -8.5908  -14.7099 C   0  0  0  0  0  0  0  0  0  0  0  0
   21.4232   -9.0613  -14.0803 C   0  0  1  0  0  0  0  0  0  0  0  0
   21.3760   -8.5625  -12.6535 C   0  0  0  0  0  0  0  0  0  0  0  0
   20.1927   -8.5946  -14.8279 C   0  0  2  0  0  0  0  0  0  0  0  0
   20.1704   -9.1848  -16.1344 N   0  0  0  0  0  0  0  0  0  0  0  0
   20.1664   -7.1080  -14.8878 C   0  0  0  0  0  0  0  0  0  0  0  0
   19.6325   -6.3488  -13.8297 O   0  0  0  0  0  0  0  0  0  0  0  0
   20.6159   -6.4821  -15.8767 O   0  0  0  0  0  0  0  0  0  0  0  0
  2  1  1  1
  3  2  1  0
  4  2  1  0
  5  4  1  0
  5  7  1  0
  5  6  1  1
  7  8  2  0
  7 11  1  0
 10  9  1  6
 10 12  1  0
 11 10  1  0
 12 18  1  0
 12 13  2  0
 15 17  1  0
 15 14  1  6
 16 15  1  0
 17 19  1  0
 17 18  1  6
 19 20  1  0
 21 19  2  0
M  END
$$$$
