LAV.pdb
     RDKit          3D

 21 20  0  0  1  0  0  0  0  0999 V2000
   18.5039   -8.9487  -21.4967 C   0  0  0  0  0  0  0  0  0  0  0  0
   18.6997   -9.8506  -20.3315 C   0  0  2  0  0  0  0  0  0  0  0  0
   17.7155  -11.0235  -20.4715 C   0  0  0  0  0  0  0  0  0  0  0  0
   18.6710   -9.2721  -18.9811 C   0  0  0  0  0  0  0  0  0  0  0  0
   18.9690  -10.1477  -17.8190 C   0  0  2  0  0  0  0  0  0  0  0  0
   17.7239  -10.8990  -17.5083 N   0  0  0  0  0  0  0  0  0  0  0  0
   19.5040   -9.5458  -16.6082 C   0  0  0  0  0  0  0  0  0  0  0  0
   18.7721   -8.9011  -15.8279 O   0  0  0  0  0  0  0  0  0  0  0  0
   22.7553   -9.5998  -14.6331 C   0  0  0  0  0  0  0  0  0  0  0  0
   21.4273   -9.0098  -15.0539 C   0  0  2  0  0  0  0  0  0  0  0  0
   20.8779   -9.6363  -16.2144 N   0  0  0  0  0  0  0  0  0  0  0  0
   21.5786   -7.5274  -15.2371 C   0  0  0  0  0  0  0  0  0  0  0  0
   21.9705   -7.0503  -16.3314 O   0  0  0  0  0  0  0  0  0  0  0  0
   20.2300   -3.0143  -14.2489 C   0  0  0  0  0  0  0  0  0  0  0  0
   20.1193   -4.4995  -14.1604 C   0  0  1  0  0  0  0  0  0  0  0  0
   19.1007   -4.9712  -15.1735 C   0  0  0  0  0  0  0  0  0  0  0  0
   21.4409   -5.1979  -14.3983 C   0  0  2  0  0  0  0  0  0  0  0  0
   21.2859   -6.6073  -14.1848 N   0  0  0  0  0  0  0  0  0  0  0  0
   22.4909   -4.6139  -13.5205 C   0  0  0  0  0  0  0  0  0  0  0  0
   23.2723   -3.5249  -13.9502 O   0  0  0  0  0  0  0  0  0  0  0  0
   22.7162   -5.0679  -12.3738 O   0  0  0  0  0  0  0  0  0  0  0  0
  2  1  1  6
  3  2  1  0
  4  2  1  0
  5  4  1  0
  5  7  1  0
  5  6  1  1
  7  8  2  0
  7 11  1  0
 10  9  1  6
 10 12  1  0
 11 10  1  0
 12 18  1  0
 12 13  2  0
 15 17  1  0
 15 14  1  6
 16 15  1  0
 17 19  1  0
 17 18  1  1
 19 20  1  0
 21 19  2  0
M  END
$$$$
