LAV.pdb
     RDKit          3D

 21 20  0  0  1  0  0  0  0  0999 V2000
   13.9359  -14.3199  -15.5422 C   0  0  0  0  0  0  0  0  0  0  0  0
   15.2503  -15.0084  -15.4549 C   0  0  2  0  0  0  0  0  0  0  0  0
   15.3052  -15.7529  -14.1108 C   0  0  0  0  0  0  0  0  0  0  0  0
   16.4713  -14.2273  -15.6966 C   0  0  0  0  0  0  0  0  0  0  0  0
   16.5991  -13.4709  -16.9684 C   0  0  2  0  0  0  0  0  0  0  0  0
   16.7472  -14.4718  -18.0582 N   0  0  0  0  0  0  0  0  0  0  0  0
   17.6352  -12.4566  -17.0783 C   0  0  0  0  0  0  0  0  0  0  0  0
   18.8363  -12.7704  -17.2161 O   0  0  0  0  0  0  0  0  0  0  0  0
   17.7989   -8.6874  -17.5636 C   0  0  0  0  0  0  0  0  0  0  0  0
   18.3759  -10.0408  -17.2115 C   0  0  2  0  0  0  0  0  0  0  0  0
   17.3777  -11.0484  -17.0394 N   0  0  0  0  0  0  0  0  0  0  0  0
   19.2506   -9.9071  -15.9988 C   0  0  0  0  0  0  0  0  0  0  0  0
   18.7807  -10.0681  -14.8447 O   0  0  0  0  0  0  0  0  0  0  0  0
   23.6631  -10.0737  -13.9449 C   0  0  0  0  0  0  0  0  0  0  0  0
   22.7880  -10.1236  -15.1521 C   0  0  1  0  0  0  0  0  0  0  0  0
   22.5941  -11.5692  -15.5512 C   0  0  0  0  0  0  0  0  0  0  0  0
   21.4423   -9.4693  -14.9244 C   0  0  2  0  0  0  0  0  0  0  0  0
   20.6399   -9.5944  -16.1062 N   0  0  0  0  0  0  0  0  0  0  0  0
   21.6279   -8.0480  -14.5251 C   0  0  0  0  0  0  0  0  0  0  0  0
   21.5608   -7.6594  -13.1740 O   0  0  0  0  0  0  0  0  0  0  0  0
   21.8494   -7.1509  -15.3724 O   0  0  0  0  0  0  0  0  0  0  0  0
  2  1  1  1
  3  2  1  0
  4  2  1  0
  5  4  1  0
  5  7  1  0
  5  6  1  6
  7  8  2  0
  7 11  1  0
 10  9  1  1
 10 12  1  0
 11 10  1  0
 12 18  1  0
 12 13  2  0
 15 17  1  0
 15 14  1  1
 16 15  1  0
 17 19  1  0
 17 18  1  6
 19 20  1  0
 21 19  2  0
M  END
$$$$
