LAV.pdb
     RDKit          3D

 21 20  0  0  1  0  0  0  0  0999 V2000
   29.2475  -20.3521   -5.4765 C   0  0  0  0  0  0  0  0  0  0  0  0
   27.8348  -19.9258   -5.2979 C   0  0  2  0  0  0  0  0  0  0  0  0
   27.2997  -20.5887   -4.0179 C   0  0  0  0  0  0  0  0  0  0  0  0
   26.9044  -20.0835   -6.4242 C   0  0  0  0  0  0  0  0  0  0  0  0
   27.2931  -19.5524   -7.7557 C   0  0  2  0  0  0  0  0  0  0  0  0
   27.5140  -18.0907   -7.5946 N   0  0  0  0  0  0  0  0  0  0  0  0
   26.4201  -19.8030   -8.8913 C   0  0  0  0  0  0  0  0  0  0  0  0
   25.3379  -19.1935   -9.0227 O   0  0  0  0  0  0  0  0  0  0  0  0
   26.6958  -21.7296  -12.1779 C   0  0  0  0  0  0  0  0  0  0  0  0
   26.0328  -20.8022  -11.1834 C   0  0  2  0  0  0  0  0  0  0  0  0
   26.7154  -20.7440   -9.9297 N   0  0  0  0  0  0  0  0  0  0  0  0
   24.5939  -21.1975  -11.0191 C   0  0  0  0  0  0  0  0  0  0  0  0
   24.2252  -21.8955  -10.0416 O   0  0  0  0  0  0  0  0  0  0  0  0
   21.6489  -19.0624  -10.6595 C   0  0  0  0  0  0  0  0  0  0  0  0
   21.3269  -20.0084  -11.7673 C   0  0  1  0  0  0  0  0  0  0  0  0
   21.4356  -19.2702  -13.0825 C   0  0  0  0  0  0  0  0  0  0  0  0
   22.2346  -21.2196  -11.7822 C   0  0  2  0  0  0  0  0  0  0  0  0
   23.5943  -20.8001  -11.9585 N   0  0  0  0  0  0  0  0  0  0  0  0
   21.8019  -22.1672  -12.8447 C   0  0  0  0  0  0  0  0  0  0  0  0
   20.6536  -22.9646  -12.6817 O   0  0  0  0  0  0  0  0  0  0  0  0
   22.4406  -22.2889  -13.9167 O   0  0  0  0  0  0  0  0  0  0  0  0
  2  1  1  6
  3  2  1  0
  4  2  1  0
  5  4  1  0
  5  7  1  0
  5  6  1  1
  7  8  2  0
  7 11  1  0
 10  9  1  6
 10 12  1  0
 11 10  1  0
 12 18  1  0
 12 13  2  0
 15 17  1  0
 15 14  1  1
 16 15  1  0
 17 19  1  0
 17 18  1  6
 19 20  1  0
 21 19  2  0
M  END
$$$$
