LAV.pdb
     RDKit          3D

 21 20  0  0  1  0  0  0  0  0999 V2000
   25.8049  -19.7634   -9.9839 C   0  0  0  0  0  0  0  0  0  0  0  0
   25.1610  -20.9927  -10.5166 C   0  0  2  0  0  0  0  0  0  0  0  0
   26.1540  -21.6677  -11.4770 C   0  0  0  0  0  0  0  0  0  0  0  0
   23.8190  -20.8855  -11.1055 C   0  0  0  0  0  0  0  0  0  0  0  0
   22.7750  -20.1201  -10.3774 C   0  0  2  0  0  0  0  0  0  0  0  0
   22.5850  -20.7852   -9.0610 N   0  0  0  0  0  0  0  0  0  0  0  0
   21.4878  -19.9071  -11.0194 C   0  0  0  0  0  0  0  0  0  0  0  0
   20.5815  -20.7640  -10.9527 O   0  0  0  0  0  0  0  0  0  0  0  0
   19.6462  -17.0459  -12.7203 C   0  0  0  0  0  0  0  0  0  0  0  0
   19.8906  -18.5016  -12.3890 C   0  0  2  0  0  0  0  0  0  0  0  0
   21.1547  -18.7298  -11.7636 N   0  0  0  0  0  0  0  0  0  0  0  0
   19.7238  -19.3281  -13.6311 C   0  0  0  0  0  0  0  0  0  0  0  0
   20.7192  -19.6613  -14.3216 O   0  0  0  0  0  0  0  0  0  0  0  0
   17.1028  -22.5057  -16.2539 C   0  0  0  0  0  0  0  0  0  0  0  0
   17.2772  -21.6345  -15.0555 C   0  0  1  0  0  0  0  0  0  0  0  0
   17.6641  -22.5009  -13.8781 C   0  0  0  0  0  0  0  0  0  0  0  0
   18.3198  -20.5573  -15.2642 C   0  0  2  0  0  0  0  0  0  0  0  0
   18.4387  -19.7654  -14.0748 N   0  0  0  0  0  0  0  0  0  0  0  0
   17.9679  -19.7310  -16.4506 C   0  0  0  0  0  0  0  0  0  0  0  0
   18.4283  -20.0739  -17.7357 O   0  0  0  0  0  0  0  0  0  0  0  0
   17.2532  -18.7060  -16.3490 O   0  0  0  0  0  0  0  0  0  0  0  0
  2  1  1  6
  3  2  1  0
  4  2  1  0
  5  4  1  0
  5  7  1  0
  5  6  1  1
  7  8  2  0
  7 11  1  0
 10  9  1  6
 10 12  1  0
 11 10  1  0
 12 18  1  0
 12 13  2  0
 15 17  1  0
 15 14  1  6
 16 15  1  0
 17 19  1  0
 17 18  1  1
 19 20  1  0
 21 19  2  0
M  END
$$$$
