MQE.pdb
     RDKit          3D

 27 26  0  0  1  0  0  0  0  0999 V2000
    7.3504  -11.4865   19.6170 C   0  0  0  0  0  0  0  0  0  0  0  0
    7.6945  -12.8245   18.4131 S   0  0  0  0  0  0  0  0  0  0  0  0
    6.9116  -14.3407   19.0389 C   0  0  0  0  0  0  0  0  0  0  0  0
    7.1143  -14.3771   20.5227 C   0  0  0  0  0  0  0  0  0  0  0  0
    8.1594  -15.3826   20.9472 C   0  0  2  0  0  0  0  0  0  0  0  0
    7.6842  -16.7303   20.8365 N   0  0  0  0  0  0  0  0  0  0  0  0
    8.6778  -15.1527   22.3120 C   0  0  0  0  0  0  0  0  0  0  0  0
    9.4670  -14.2016   22.5126 O   0  0  0  0  0  0  0  0  0  0  0  0
    7.1052  -12.9857   26.4536 N   0  0  0  0  0  0  0  0  0  0  0  0
    7.6108  -13.8795   27.4271 C   0  0  0  0  0  0  0  0  0  0  0  0
    7.8199  -13.4847   28.5896 O   0  0  0  0  0  0  0  0  0  0  0  0
    7.8945  -15.2821   27.0773 C   0  0  0  0  0  0  0  0  0  0  0  0
    7.5997  -15.4950   25.6349 C   0  0  0  0  0  0  0  0  0  0  0  0
    8.8142  -15.6965   24.7671 C   0  0  2  0  0  0  0  0  0  0  0  0
    8.3272  -15.9603   23.4275 N   0  0  0  0  0  0  0  0  0  0  0  0
    9.6752  -16.7993   25.1910 C   0  0  0  0  0  0  0  0  0  0  0  0
    9.2809  -17.9936   25.2683 O   0  0  0  0  0  0  0  0  0  0  0  0
   11.0258  -16.5446   25.5393 N   0  0  0  0  0  0  0  0  0  0  0  0
   11.8815  -17.6396   25.9573 C   0  0  1  0  0  0  0  0  0  0  0  0
   13.3030  -17.2653   25.6459 C   0  0  0  0  0  0  0  0  0  0  0  0
   13.4774  -17.1262   24.1620 C   0  0  0  0  0  0  0  0  0  0  0  0
   14.6983  -16.3387   23.8479 C   0  0  0  0  0  0  0  0  0  0  0  0
   15.4217  -15.8149   24.7299 O   0  0  0  0  0  0  0  0  0  0  0  0
   11.7165  -17.8133   27.4205 C   0  0  0  0  0  0  0  0  0  0  0  0
   12.3747  -18.8559   28.0645 O   0  0  0  0  0  0  0  0  0  0  0  0
   15.0488  -16.1792   22.5197 O   0  0  0  0  0  0  0  0  0  0  0  0
   10.9983  -17.0400   28.0791 O   0  0  0  0  0  0  0  0  0  0  0  0
  1  2  1  0
  3  2  1  0
  4  3  1  0
  5  6  1  1
  5  4  1  0
  7  8  2  0
  7  5  1  0
  9 10  1  0
 10 12  1  0
 11 10  2  0
 13 12  1  0
 14 15  1  0
 14 13  1  1
 15  7  1  0
 16 14  1  0
 17 16  2  0
 18 16  1  0
 19 18  1  0
 20 21  1  0
 19 20  1  1
 22 21  1  0
 22 23  2  0
 24 25  1  0
 24 19  1  0
 26 22  1  0
 27 24  2  0
M  END
$$$$
