MQE.pdb
     RDKit          3D

 27 26  0  0  1  0  0  0  0  0999 V2000
    5.2966  -11.5329   27.0358 C   0  0  0  0  0  0  0  0  0  0  0  0
    7.0441  -12.0278   26.7920 S   0  0  0  0  0  0  0  0  0  0  0  0
    7.2645  -13.6602   27.5605 C   0  0  0  0  0  0  0  0  0  0  0  0
    7.8739  -14.5661   26.5349 C   0  0  0  0  0  0  0  0  0  0  0  0
    6.8575  -15.1189   25.5627 C   0  0  2  0  0  0  0  0  0  0  0  0
    6.0201  -16.1122   26.1682 N   0  0  0  0  0  0  0  0  0  0  0  0
    7.4596  -15.6663   24.3291 C   0  0  0  0  0  0  0  0  0  0  0  0
    7.9645  -16.8118   24.3529 O   0  0  0  0  0  0  0  0  0  0  0  0
    8.3987  -12.4317   18.6493 N   0  0  0  0  0  0  0  0  0  0  0  0
    8.2594  -13.8337   18.5180 C   0  0  0  0  0  0  0  0  0  0  0  0
    7.7267  -14.3165   17.5010 O   0  0  0  0  0  0  0  0  0  0  0  0
    8.7413  -14.7346   19.5792 C   0  0  0  0  0  0  0  0  0  0  0  0
    7.9825  -14.4659   20.8300 C   0  0  0  0  0  0  0  0  0  0  0  0
    8.3166  -15.3816   21.9782 C   0  0  2  0  0  0  0  0  0  0  0  0
    7.4991  -14.9577   23.0978 N   0  0  0  0  0  0  0  0  0  0  0  0
    9.7238  -15.3551   22.3738 C   0  0  0  0  0  0  0  0  0  0  0  0
   10.2512  -14.3888   22.9870 O   0  0  0  0  0  0  0  0  0  0  0  0
   10.5627  -16.4560   22.0665 N   0  0  0  0  0  0  0  0  0  0  0  0
   11.9557  -16.4365   22.4726 C   0  0  1  0  0  0  0  0  0  0  0  0
   12.3384  -17.8276   22.8921 C   0  0  0  0  0  0  0  0  0  0  0  0
   11.7300  -18.1400   24.2278 C   0  0  0  0  0  0  0  0  0  0  0  0
   12.1377  -19.4935   24.6874 C   0  0  0  0  0  0  0  0  0  0  0  0
   13.2872  -19.7531   25.1197 O   0  0  0  0  0  0  0  0  0  0  0  0
   12.7658  -16.0241   21.3013 C   0  0  0  0  0  0  0  0  0  0  0  0
   14.1058  -15.6951   21.4773 O   0  0  0  0  0  0  0  0  0  0  0  0
   11.2023  -20.5107   24.6337 O   0  0  0  0  0  0  0  0  0  0  0  0
   12.2636  -15.9685   20.1645 O   0  0  0  0  0  0  0  0  0  0  0  0
  1  2  1  0
  3  2  1  0
  4  3  1  0
  5  6  1  1
  5  4  1  0
  7  8  2  0
  7  5  1  0
  9 10  1  0
 10 12  1  0
 11 10  2  0
 13 12  1  0
 14 15  1  0
 14 13  1  6
 15  7  1  0
 16 14  1  0
 17 16  2  0
 18 16  1  0
 19 18  1  0
 20 21  1  0
 19 20  1  6
 22 21  1  0
 22 23  2  0
 24 25  1  0
 24 19  1  0
 26 22  1  0
 27 24  2  0
M  END
$$$$
