MQE.pdb
     RDKit          3D

 27 26  0  0  1  0  0  0  0  0999 V2000
    5.4897  -10.7522   27.0618 C   0  0  0  0  0  0  0  0  0  0  0  0
    6.4680  -11.9737   26.1084 S   0  0  0  0  0  0  0  0  0  0  0  0
    6.6708  -13.4485   27.1512 C   0  0  0  0  0  0  0  0  0  0  0  0
    7.5203  -14.4248   26.3965 C   0  0  0  0  0  0  0  0  0  0  0  0
    6.8223  -14.9938   25.1830 C   0  0  2  0  0  0  0  0  0  0  0  0
    5.7896  -15.9204   25.5428 N   0  0  0  0  0  0  0  0  0  0  0  0
    7.7432  -15.6313   24.2189 C   0  0  0  0  0  0  0  0  0  0  0  0
    8.1989  -16.7697   24.4716 O   0  0  0  0  0  0  0  0  0  0  0  0
    7.3437  -12.4243   18.9899 N   0  0  0  0  0  0  0  0  0  0  0  0
    7.8499  -13.7446   19.0420 C   0  0  0  0  0  0  0  0  0  0  0  0
    8.4125  -14.2381   18.0465 O   0  0  0  0  0  0  0  0  0  0  0  0
    7.7175  -14.5471   20.2702 C   0  0  0  0  0  0  0  0  0  0  0  0
    9.0705  -14.8124   20.8286 C   0  0  0  0  0  0  0  0  0  0  0  0
    9.0813  -15.6424   22.0854 C   0  0  2  0  0  0  0  0  0  0  0  0
    8.1479  -15.0182   23.0023 N   0  0  0  0  0  0  0  0  0  0  0  0
   10.3917  -15.7395   22.7261 C   0  0  0  0  0  0  0  0  0  0  0  0
   10.9110  -14.7982   23.3836 O   0  0  0  0  0  0  0  0  0  0  0  0
   11.1402  -16.9390   22.6205 N   0  0  0  0  0  0  0  0  0  0  0  0
   12.4080  -17.0614   23.3160 C   0  0  1  0  0  0  0  0  0  0  0  0
   12.4421  -18.4041   23.9898 C   0  0  0  0  0  0  0  0  0  0  0  0
   12.1020  -18.2509   25.4433 C   0  0  0  0  0  0  0  0  0  0  0  0
   11.5977  -19.5322   26.0029 C   0  0  0  0  0  0  0  0  0  0  0  0
   11.3628  -19.7014   27.2243 O   0  0  0  0  0  0  0  0  0  0  0  0
   13.4909  -16.9780   22.3068 C   0  0  0  0  0  0  0  0  0  0  0  0
   14.8176  -16.9789   22.7247 O   0  0  0  0  0  0  0  0  0  0  0  0
   11.3788  -20.5840   25.1320 O   0  0  0  0  0  0  0  0  0  0  0  0
   13.2291  -16.9073   21.0927 O   0  0  0  0  0  0  0  0  0  0  0  0
  1  2  1  0
  3  2  1  0
  4  3  1  0
  5  6  1  1
  5  4  1  0
  7  8  2  0
  7  5  1  0
  9 10  1  0
 10 12  1  0
 11 10  2  0
 13 12  1  0
 14 15  1  0
 14 13  1  6
 15  7  1  0
 16 14  1  0
 17 16  2  0
 18 16  1  0
 19 18  1  0
 20 21  1  0
 19 20  1  6
 22 21  1  0
 22 23  2  0
 24 25  1  0
 24 19  1  0
 26 22  1  0
 27 24  2  0
M  END
$$$$
