MQE.pdb
     RDKit          3D

 27 26  0  0  1  0  0  0  0  0999 V2000
    7.8907  -11.4280   20.5740 C   0  0  0  0  0  0  0  0  0  0  0  0
    7.3849  -12.1902   18.9862 S   0  0  0  0  0  0  0  0  0  0  0  0
    7.7745  -13.9631   19.0797 C   0  0  0  0  0  0  0  0  0  0  0  0
    7.7705  -14.3531   20.5260 C   0  0  0  0  0  0  0  0  0  0  0  0
    8.0490  -15.8232   20.7377 C   0  0  2  0  0  0  0  0  0  0  0  0
    7.3944  -16.6402   19.7587 N   0  0  0  0  0  0  0  0  0  0  0  0
    7.6989  -16.2999   22.0921 C   0  0  0  0  0  0  0  0  0  0  0  0
    7.8913  -15.5460   23.0729 O   0  0  0  0  0  0  0  0  0  0  0  0
    2.6528  -19.1595   21.3485 N   0  0  0  0  0  0  0  0  0  0  0  0
    3.8349  -19.4441   22.0723 C   0  0  0  0  0  0  0  0  0  0  0  0
    4.3312  -20.5858   22.0349 O   0  0  0  0  0  0  0  0  0  0  0  0
    4.4893  -18.3966   22.8752 C   0  0  0  0  0  0  0  0  0  0  0  0
    5.6689  -18.9789   23.5696 C   0  0  0  0  0  0  0  0  0  0  0  0
    6.8498  -18.0517   23.6897 C   0  0  2  0  0  0  0  0  0  0  0  0
    7.1475  -17.5841   22.3503 N   0  0  0  0  0  0  0  0  0  0  0  0
    8.0440  -18.6756   24.2571 C   0  0  0  0  0  0  0  0  0  0  0  0
    8.6648  -19.6176   23.6955 O   0  0  0  0  0  0  0  0  0  0  0  0
    8.5536  -18.2207   25.4995 N   0  0  0  0  0  0  0  0  0  0  0  0
    9.8487  -18.6850   25.9611 C   0  0  1  0  0  0  0  0  0  0  0  0
   10.8804  -17.6731   25.5494 C   0  0  0  0  0  0  0  0  0  0  0  0
   11.7395  -18.2402   24.4576 C   0  0  0  0  0  0  0  0  0  0  0  0
   12.8210  -17.2884   24.0918 C   0  0  0  0  0  0  0  0  0  0  0  0
   12.9648  -16.1698   24.6429 O   0  0  0  0  0  0  0  0  0  0  0  0
    9.7983  -18.7780   27.4400 C   0  0  0  0  0  0  0  0  0  0  0  0
    8.6415  -18.3953   28.1110 O   0  0  0  0  0  0  0  0  0  0  0  0
   13.7074  -17.6580   23.0968 O   0  0  0  0  0  0  0  0  0  0  0  0
   10.7757  -19.1934   28.0880 O   0  0  0  0  0  0  0  0  0  0  0  0
  1  2  1  0
  3  2  1  0
  4  3  1  0
  5  6  1  6
  5  4  1  0
  7  8  2  0
  7  5  1  0
  9 10  1  0
 10 12  1  0
 11 10  2  0
 13 12  1  0
 14 15  1  0
 14 13  1  6
 15  7  1  0
 16 14  1  0
 17 16  2  0
 18 16  1  0
 19 18  1  0
 20 21  1  0
 19 20  1  1
 22 21  1  0
 22 23  2  0
 24 25  1  0
 24 19  1  0
 26 22  1  0
 27 24  2  0
M  END
$$$$
