MQE.pdb
     RDKit          3D

 27 26  0  0  1  0  0  0  0  0999 V2000
    7.8730  -11.4787   27.1995 C   0  0  0  0  0  0  0  0  0  0  0  0
    6.0465  -11.6087   27.2706 S   0  0  0  0  0  0  0  0  0  0  0  0
    5.5755  -13.1685   26.4651 C   0  0  0  0  0  0  0  0  0  0  0  0
    6.7404  -13.6233   25.6404 C   0  0  0  0  0  0  0  0  0  0  0  0
    6.4413  -14.8699   24.8403 C   0  0  2  0  0  0  0  0  0  0  0  0
    6.1419  -15.9900   25.6831 N   0  0  0  0  0  0  0  0  0  0  0  0
    7.5178  -15.2364   23.8964 C   0  0  0  0  0  0  0  0  0  0  0  0
    8.1312  -16.3155   24.0598 O   0  0  0  0  0  0  0  0  0  0  0  0
    8.7377  -13.4945   17.7606 N   0  0  0  0  0  0  0  0  0  0  0  0
    7.8023  -14.1157   18.6216 C   0  0  0  0  0  0  0  0  0  0  0  0
    7.1215  -15.0765   18.2160 O   0  0  0  0  0  0  0  0  0  0  0  0
    7.6242  -13.6345   20.0025 C   0  0  0  0  0  0  0  0  0  0  0  0
    8.9046  -13.7912   20.7432 C   0  0  0  0  0  0  0  0  0  0  0  0
    8.8852  -14.8463   21.8179 C   0  0  2  0  0  0  0  0  0  0  0  0
    7.9032  -14.4230   22.7966 N   0  0  0  0  0  0  0  0  0  0  0  0
   10.1716  -15.0453   22.4833 C   0  0  0  0  0  0  0  0  0  0  0  0
   10.7085  -14.1779   23.2231 O   0  0  0  0  0  0  0  0  0  0  0  0
   10.8746  -16.2639   22.3071 N   0  0  0  0  0  0  0  0  0  0  0  0
   12.1669  -16.4489   22.9410 C   0  0  1  0  0  0  0  0  0  0  0  0
   12.1391  -17.7551   23.6832 C   0  0  0  0  0  0  0  0  0  0  0  0
   11.3223  -17.6106   24.9337 C   0  0  0  0  0  0  0  0  0  0  0  0
   10.5195  -18.8367   25.1817 C   0  0  0  0  0  0  0  0  0  0  0  0
    9.9090  -19.4514   24.2734 O   0  0  0  0  0  0  0  0  0  0  0  0
   13.1946  -16.4993   21.8735 C   0  0  0  0  0  0  0  0  0  0  0  0
   14.5397  -16.5695   22.2211 O   0  0  0  0  0  0  0  0  0  0  0  0
   10.4454  -19.3182   26.4759 O   0  0  0  0  0  0  0  0  0  0  0  0
   12.8704  -16.4795   20.6727 O   0  0  0  0  0  0  0  0  0  0  0  0
  1  2  1  0
  3  2  1  0
  4  3  1  0
  5  6  1  1
  5  4  1  0
  7  8  2  0
  7  5  1  0
  9 10  1  0
 10 12  1  0
 11 10  2  0
 13 12  1  0
 14 15  1  0
 14 13  1  6
 15  7  1  0
 16 14  1  0
 17 16  2  0
 18 16  1  0
 19 18  1  0
 20 21  1  0
 19 20  1  6
 22 21  1  0
 22 23  2  0
 24 25  1  0
 24 19  1  0
 26 22  1  0
 27 24  2  0
M  END
$$$$
