MQE.pdb
     RDKit          3D

 27 26  0  0  1  0  0  0  0  0999 V2000
    8.1300  -21.3201   24.4782 C   0  0  0  0  0  0  0  0  0  0  0  0
    6.3485  -21.6981   24.2750 S   0  0  0  0  0  0  0  0  0  0  0  0
    5.6109  -20.3562   23.2958 C   0  0  0  0  0  0  0  0  0  0  0  0
    6.5102  -19.1637   23.4100 C   0  0  0  0  0  0  0  0  0  0  0  0
    6.0012  -17.9692   22.6368 C   0  0  2  0  0  0  0  0  0  0  0  0
    5.9854  -18.2111   21.2241 N   0  0  0  0  0  0  0  0  0  0  0  0
    6.7482  -16.7250   22.9161 C   0  0  0  0  0  0  0  0  0  0  0  0
    7.5856  -16.3154   22.0803 O   0  0  0  0  0  0  0  0  0  0  0  0
    6.5162  -10.8084   27.3772 N   0  0  0  0  0  0  0  0  0  0  0  0
    6.0909  -11.9563   26.6675 C   0  0  0  0  0  0  0  0  0  0  0  0
    4.9636  -12.4409   26.8805 O   0  0  0  0  0  0  0  0  0  0  0  0
    6.9740  -12.5886   25.6723 C   0  0  0  0  0  0  0  0  0  0  0  0
    6.4339  -13.9296   25.3221 C   0  0  0  0  0  0  0  0  0  0  0  0
    7.2566  -14.6980   24.3215 C   0  0  2  0  0  0  0  0  0  0  0  0
    6.5685  -15.9538   24.0963 N   0  0  0  0  0  0  0  0  0  0  0  0
    8.6251  -14.9716   24.7572 C   0  0  0  0  0  0  0  0  0  0  0  0
    9.4572  -14.0659   25.0315 O   0  0  0  0  0  0  0  0  0  0  0  0
    9.0681  -16.3121   24.8871 N   0  0  0  0  0  0  0  0  0  0  0  0
   10.4561  -16.5846   25.2114 C   0  0  1  0  0  0  0  0  0  0  0  0
   10.5270  -16.9843   26.6581 C   0  0  0  0  0  0  0  0  0  0  0  0
    9.6246  -18.1576   26.9049 C   0  0  0  0  0  0  0  0  0  0  0  0
    9.7641  -18.6429   28.3029 C   0  0  0  0  0  0  0  0  0  0  0  0
   10.1758  -17.9188   29.2419 O   0  0  0  0  0  0  0  0  0  0  0  0
   10.9113  -17.7076   24.3569 C   0  0  0  0  0  0  0  0  0  0  0  0
   12.2622  -18.0375   24.3224 O   0  0  0  0  0  0  0  0  0  0  0  0
    9.4228  -19.9550   28.5758 O   0  0  0  0  0  0  0  0  0  0  0  0
   10.1022  -18.3579   23.6714 O   0  0  0  0  0  0  0  0  0  0  0  0
  1  2  1  0
  3  2  1  0
  4  3  1  0
  5  6  1  6
  5  4  1  0
  7  8  2  0
  7  5  1  0
  9 10  1  0
 10 12  1  0
 11 10  2  0
 13 12  1  0
 14 15  1  0
 14 13  1  1
 15  7  1  0
 16 14  1  0
 17 16  2  0
 18 16  1  0
 19 18  1  0
 20 21  1  0
 19 20  1  1
 22 21  1  0
 22 23  2  0
 24 25  1  0
 24 19  1  0
 26 22  1  0
 27 24  2  0
M  END
$$$$
