MQE.pdb
     RDKit          3D

 27 26  0  0  1  0  0  0  0  0999 V2000
    5.9460  -11.1695   26.2367 C   0  0  0  0  0  0  0  0  0  0  0  0
    7.1327  -12.4392   25.6557 S   0  0  0  0  0  0  0  0  0  0  0  0
    6.4266  -14.0686   26.0434 C   0  0  0  0  0  0  0  0  0  0  0  0
    7.4146  -15.1068   25.6074 C   0  0  0  0  0  0  0  0  0  0  0  0
    7.2212  -15.5335   24.1707 C   0  0  2  0  0  0  0  0  0  0  0  0
    5.9601  -16.1839   23.9688 N   0  0  0  0  0  0  0  0  0  0  0  0
    8.3082  -16.3953   23.6609 C   0  0  0  0  0  0  0  0  0  0  0  0
    8.3256  -17.6066   23.9771 O   0  0  0  0  0  0  0  0  0  0  0  0
   12.1635  -19.6476   20.2937 N   0  0  0  0  0  0  0  0  0  0  0  0
   11.3393  -18.5408   19.9810 C   0  0  0  0  0  0  0  0  0  0  0  0
   10.2251  -18.7201   19.4542 O   0  0  0  0  0  0  0  0  0  0  0  0
   11.7885  -17.1688   20.2742 C   0  0  0  0  0  0  0  0  0  0  0  0
   10.6776  -16.4183   20.9185 C   0  0  0  0  0  0  0  0  0  0  0  0
   10.4324  -16.7724   22.3618 C   0  0  2  0  0  0  0  0  0  0  0  0
    9.3510  -15.9222   22.8192 N   0  0  0  0  0  0  0  0  0  0  0  0
   11.5934  -16.5813   23.2296 C   0  0  0  0  0  0  0  0  0  0  0  0
   12.2717  -15.5195   23.2526 O   0  0  0  0  0  0  0  0  0  0  0  0
   12.0016  -17.6237   24.0995 N   0  0  0  0  0  0  0  0  0  0  0  0
   13.2232  -17.4828   24.8702 C   0  0  1  0  0  0  0  0  0  0  0  0
   13.3119  -18.6441   25.8195 C   0  0  0  0  0  0  0  0  0  0  0  0
   12.1139  -18.6532   26.7231 C   0  0  0  0  0  0  0  0  0  0  0  0
   12.1672  -19.8100   27.6549 C   0  0  0  0  0  0  0  0  0  0  0  0
   13.2344  -20.2314   28.1640 O   0  0  0  0  0  0  0  0  0  0  0  0
   14.3647  -17.5184   23.9247 C   0  0  0  0  0  0  0  0  0  0  0  0
   15.4655  -16.6981   24.1494 O   0  0  0  0  0  0  0  0  0  0  0  0
   10.9821  -20.4481   27.9723 O   0  0  0  0  0  0  0  0  0  0  0  0
   14.3512  -18.2710   22.9343 O   0  0  0  0  0  0  0  0  0  0  0  0
  1  2  1  0
  3  2  1  0
  4  3  1  0
  5  6  1  1
  5  4  1  0
  7  8  2  0
  7  5  1  0
  9 10  1  0
 10 12  1  0
 11 10  2  0
 13 12  1  0
 14 15  1  0
 14 13  1  6
 15  7  1  0
 16 14  1  0
 17 16  2  0
 18 16  1  0
 19 18  1  0
 20 21  1  0
 19 20  1  1
 22 21  1  0
 22 23  2  0
 24 25  1  0
 24 19  1  0
 26 22  1  0
 27 24  2  0
M  END
$$$$
