MQE.pdb
     RDKit          3D

 27 26  0  0  1  0  0  0  0  0999 V2000
    7.2891  -11.2429   27.8326 C   0  0  0  0  0  0  0  0  0  0  0  0
    5.9364  -11.6405   26.6622 S   0  0  0  0  0  0  0  0  0  0  0  0
    5.4926  -13.3858   26.9088 C   0  0  0  0  0  0  0  0  0  0  0  0
    5.9426  -14.1441   25.6978 C   0  0  0  0  0  0  0  0  0  0  0  0
    7.2726  -14.8331   25.8982 C   0  0  2  0  0  0  0  0  0  0  0  0
    8.2702  -13.9377   26.4054 N   0  0  0  0  0  0  0  0  0  0  0  0
    7.7803  -15.4990   24.6805 C   0  0  0  0  0  0  0  0  0  0  0  0
    7.2722  -16.5857   24.3224 O   0  0  0  0  0  0  0  0  0  0  0  0
    5.9103  -15.2341   20.9973 N   0  0  0  0  0  0  0  0  0  0  0  0
    7.2538  -15.0505   20.5930 C   0  0  0  0  0  0  0  0  0  0  0  0
    7.7243  -15.7289   19.6605 O   0  0  0  0  0  0  0  0  0  0  0  0
    8.1079  -14.0583   21.2684 C   0  0  0  0  0  0  0  0  0  0  0  0
    9.4155  -14.6848   21.6006 C   0  0  0  0  0  0  0  0  0  0  0  0
    9.3692  -15.6750   22.7346 C   0  0  2  0  0  0  0  0  0  0  0  0
    8.8277  -14.9693   23.8792 N   0  0  0  0  0  0  0  0  0  0  0  0
   10.6708  -16.2384   23.0894 C   0  0  0  0  0  0  0  0  0  0  0  0
   11.4961  -15.6523   23.8399 O   0  0  0  0  0  0  0  0  0  0  0  0
   11.0525  -17.5050   22.5796 N   0  0  0  0  0  0  0  0  0  0  0  0
   12.3043  -18.1051   23.0027 C   0  0  1  0  0  0  0  0  0  0  0  0
   12.0995  -19.5905   23.1004 C   0  0  0  0  0  0  0  0  0  0  0  0
   11.1171  -19.8962   24.1927 C   0  0  0  0  0  0  0  0  0  0  0  0
   10.8970  -21.3618   24.3064 C   0  0  0  0  0  0  0  0  0  0  0  0
   10.8670  -21.9670   25.4057 O   0  0  0  0  0  0  0  0  0  0  0  0
   13.3249  -17.8054   21.9698 C   0  0  0  0  0  0  0  0  0  0  0  0
   14.6622  -18.0895   22.2262 O   0  0  0  0  0  0  0  0  0  0  0  0
   10.7174  -22.0875   23.1430 O   0  0  0  0  0  0  0  0  0  0  0  0
   13.0015  -17.3039   20.8782 O   0  0  0  0  0  0  0  0  0  0  0  0
  1  2  1  0
  3  2  1  0
  4  3  1  0
  5  6  1  6
  5  4  1  0
  7  8  2  0
  7  5  1  0
  9 10  1  0
 10 12  1  0
 11 10  2  0
 13 12  1  0
 14 15  1  0
 14 13  1  6
 15  7  1  0
 16 14  1  0
 17 16  2  0
 18 16  1  0
 19 18  1  0
 20 21  1  0
 19 20  1  6
 22 21  1  0
 22 23  2  0
 24 25  1  0
 24 19  1  0
 26 22  1  0
 27 24  2  0
M  END
$$$$
