MQE.pdb
     RDKit          3D

 27 26  0  0  1  0  0  0  0  0999 V2000
    6.9797  -10.8011   27.4108 C   0  0  0  0  0  0  0  0  0  0  0  0
    5.8637  -12.1922   26.9895 S   0  0  0  0  0  0  0  0  0  0  0  0
    6.8675  -13.4774   26.1868 C   0  0  0  0  0  0  0  0  0  0  0  0
    5.9594  -14.6217   25.8553 C   0  0  0  0  0  0  0  0  0  0  0  0
    6.6878  -15.7834   25.2200 C   0  0  2  0  0  0  0  0  0  0  0  0
    7.8907  -16.1138   25.9260 N   0  0  0  0  0  0  0  0  0  0  0  0
    6.9966  -15.5738   23.7900 C   0  0  0  0  0  0  0  0  0  0  0  0
    6.0639  -15.5940   22.9551 O   0  0  0  0  0  0  0  0  0  0  0  0
    6.8665  -14.9419   18.9744 N   0  0  0  0  0  0  0  0  0  0  0  0
    7.7657  -13.8494   18.9749 C   0  0  0  0  0  0  0  0  0  0  0  0
    8.1173  -13.3287   17.8995 O   0  0  0  0  0  0  0  0  0  0  0  0
    8.2941  -13.3177   20.2430 C   0  0  0  0  0  0  0  0  0  0  0  0
    7.7219  -14.0952   21.3747 C   0  0  0  0  0  0  0  0  0  0  0  0
    8.6040  -15.2032   21.8871 C   0  0  2  0  0  0  0  0  0  0  0  0
    8.3110  -15.3467   23.2995 N   0  0  0  0  0  0  0  0  0  0  0  0
   10.0347  -14.9556   21.7162 C   0  0  0  0  0  0  0  0  0  0  0  0
   10.5788  -13.8468   21.9657 O   0  0  0  0  0  0  0  0  0  0  0  0
   10.8782  -15.9945   21.2478 N   0  0  0  0  0  0  0  0  0  0  0  0
   11.8522  -16.5913   22.1429 C   0  0  1  0  0  0  0  0  0  0  0  0
   11.1061  -17.2918   23.2432 C   0  0  0  0  0  0  0  0  0  0  0  0
   12.0798  -17.9410   24.1825 C   0  0  0  0  0  0  0  0  0  0  0  0
   11.3651  -18.6031   25.3051 C   0  0  0  0  0  0  0  0  0  0  0  0
   10.1139  -18.6780   25.3719 O   0  0  0  0  0  0  0  0  0  0  0  0
   12.6419  -17.5761   21.3652 C   0  0  0  0  0  0  0  0  0  0  0  0
   13.9163  -17.9268   21.7984 O   0  0  0  0  0  0  0  0  0  0  0  0
   12.1195  -19.1611   26.3210 O   0  0  0  0  0  0  0  0  0  0  0  0
   12.1804  -18.0923   20.3316 O   0  0  0  0  0  0  0  0  0  0  0  0
  1  2  1  0
  3  2  1  0
  4  3  1  0
  5  6  1  1
  5  4  1  0
  7  8  2  0
  7  5  1  0
  9 10  1  0
 10 12  1  0
 11 10  2  0
 13 12  1  0
 14 15  1  0
 14 13  1  1
 15  7  1  0
 16 14  1  0
 17 16  2  0
 18 16  1  0
 19 18  1  0
 20 21  1  0
 19 20  1  1
 22 21  1  0
 22 23  2  0
 24 25  1  0
 24 19  1  0
 26 22  1  0
 27 24  2  0
M  END
$$$$
