MQE.pdb
     RDKit          3D

 27 26  0  0  1  0  0  0  0  0999 V2000
    7.7563  -12.5091   20.6474 C   0  0  0  0  0  0  0  0  0  0  0  0
    7.6396  -13.3399   19.0183 S   0  0  0  0  0  0  0  0  0  0  0  0
    7.3646  -15.1105   19.3236 C   0  0  0  0  0  0  0  0  0  0  0  0
    7.2330  -15.3008   20.8036 C   0  0  0  0  0  0  0  0  0  0  0  0
    6.8982  -16.7245   21.1843 C   0  0  2  0  0  0  0  0  0  0  0  0
    5.6883  -17.1762   20.5626 N   0  0  0  0  0  0  0  0  0  0  0  0
    6.8130  -16.9393   22.6440 C   0  0  0  0  0  0  0  0  0  0  0  0
    5.7500  -16.6553   23.2414 O   0  0  0  0  0  0  0  0  0  0  0  0
    6.5085  -21.9001   26.8875 N   0  0  0  0  0  0  0  0  0  0  0  0
    7.1723  -21.2134   25.8434 C   0  0  0  0  0  0  0  0  0  0  0  0
    8.0763  -21.7782   25.1994 O   0  0  0  0  0  0  0  0  0  0  0  0
    6.8025  -19.8274   25.5080 C   0  0  0  0  0  0  0  0  0  0  0  0
    8.0309  -19.0655   25.1570 C   0  0  0  0  0  0  0  0  0  0  0  0
    7.8037  -17.6062   24.8611 C   0  0  2  0  0  0  0  0  0  0  0  0
    7.8837  -17.4579   23.4214 N   0  0  0  0  0  0  0  0  0  0  0  0
    8.7729  -16.7109   25.4907 C   0  0  0  0  0  0  0  0  0  0  0  0
    9.9657  -16.5987   25.1000 O   0  0  0  0  0  0  0  0  0  0  0  0
    8.3820  -15.9165   26.5981 N   0  0  0  0  0  0  0  0  0  0  0  0
    9.3359  -15.0072   27.2057 C   0  0  1  0  0  0  0  0  0  0  0  0
    8.6233  -13.7202   27.5116 C   0  0  0  0  0  0  0  0  0  0  0  0
    7.9305  -13.2187   26.2786 C   0  0  0  0  0  0  0  0  0  0  0  0
    7.1017  -12.0248   26.5903 C   0  0  0  0  0  0  0  0  0  0  0  0
    6.9874  -11.5532   27.7479 O   0  0  0  0  0  0  0  0  0  0  0  0
    9.8173  -15.6264   28.4640 C   0  0  0  0  0  0  0  0  0  0  0  0
   10.9105  -15.0746   29.1238 O   0  0  0  0  0  0  0  0  0  0  0  0
    6.4271  -11.4090   25.5520 O   0  0  0  0  0  0  0  0  0  0  0  0
    9.2573  -16.6315   28.9368 O   0  0  0  0  0  0  0  0  0  0  0  0
  1  2  1  0
  3  2  1  0
  4  3  1  0
  5  6  1  6
  5  4  1  0
  7  8  2  0
  7  5  1  0
  9 10  1  0
 10 12  1  0
 11 10  2  0
 13 12  1  0
 14 15  1  0
 14 13  1  6
 15  7  1  0
 16 14  1  0
 17 16  2  0
 18 16  1  0
 19 18  1  0
 20 21  1  0
 19 20  1  1
 22 21  1  0
 22 23  2  0
 24 25  1  0
 24 19  1  0
 26 22  1  0
 27 24  2  0
M  END
$$$$
