MQE.pdb
     RDKit          3D

 27 26  0  0  1  0  0  0  0  0999 V2000
    7.0260  -11.1985   18.8683 C   0  0  0  0  0  0  0  0  0  0  0  0
    8.0158  -12.6645   18.3897 S   0  0  0  0  0  0  0  0  0  0  0  0
    7.9339  -13.8538   19.7618 C   0  0  0  0  0  0  0  0  0  0  0  0
    8.6896  -15.0787   19.3465 C   0  0  0  0  0  0  0  0  0  0  0  0
    8.6248  -16.1843   20.3746 C   0  0  2  0  0  0  0  0  0  0  0  0
    7.2942  -16.6927   20.5335 N   0  0  0  0  0  0  0  0  0  0  0  0
    9.1648  -15.7941   21.6938 C   0  0  0  0  0  0  0  0  0  0  0  0
   10.3818  -15.5191   21.7978 O   0  0  0  0  0  0  0  0  0  0  0  0
    5.5687  -13.6190   26.1540 N   0  0  0  0  0  0  0  0  0  0  0  0
    6.8338  -13.3538   26.7296 C   0  0  0  0  0  0  0  0  0  0  0  0
    6.9208  -12.6400   27.7465 O   0  0  0  0  0  0  0  0  0  0  0  0
    8.0579  -13.9171   26.1342 C   0  0  0  0  0  0  0  0  0  0  0  0
    7.7252  -14.5275   24.8192 C   0  0  0  0  0  0  0  0  0  0  0  0
    8.8830  -15.1936   24.1233 C   0  0  2  0  0  0  0  0  0  0  0  0
    8.3709  -15.7110   22.8697 N   0  0  0  0  0  0  0  0  0  0  0  0
    9.4879  -16.2867   24.8826 C   0  0  0  0  0  0  0  0  0  0  0  0
    8.8960  -17.3735   25.1203 O   0  0  0  0  0  0  0  0  0  0  0  0
   10.8043  -16.1474   25.3903 N   0  0  0  0  0  0  0  0  0  0  0  0
   11.4925  -17.3025   25.9364 C   0  0  1  0  0  0  0  0  0  0  0  0
   12.9690  -17.0261   25.8991 C   0  0  0  0  0  0  0  0  0  0  0  0
   13.6486  -18.0203   25.0038 C   0  0  0  0  0  0  0  0  0  0  0  0
   14.7622  -17.3794   24.2565 C   0  0  0  0  0  0  0  0  0  0  0  0
   14.9594  -16.1398   24.2504 O   0  0  0  0  0  0  0  0  0  0  0  0
   11.0489  -17.4749   27.3406 C   0  0  0  0  0  0  0  0  0  0  0  0
   10.1304  -16.5820   27.8828 O   0  0  0  0  0  0  0  0  0  0  0  0
   15.6181  -18.1921   23.5359 O   0  0  0  0  0  0  0  0  0  0  0  0
   11.4867  -18.4062   28.0395 O   0  0  0  0  0  0  0  0  0  0  0  0
  1  2  1  0
  3  2  1  0
  4  3  1  0
  5  6  1  1
  5  4  1  0
  7  8  2  0
  7  5  1  0
  9 10  1  0
 10 12  1  0
 11 10  2  0
 13 12  1  0
 14 15  1  0
 14 13  1  1
 15  7  1  0
 16 14  1  0
 17 16  2  0
 18 16  1  0
 19 18  1  0
 20 21  1  0
 19 20  1  1
 22 21  1  0
 22 23  2  0
 24 25  1  0
 24 19  1  0
 26 22  1  0
 27 24  2  0
M  END
$$$$
