MQE.pdb
     RDKit          3D

 27 26  0  0  1  0  0  0  0  0999 V2000
    6.5448  -20.5481   25.9814 C   0  0  0  0  0  0  0  0  0  0  0  0
    5.4954  -21.7765   25.1167 S   0  0  0  0  0  0  0  0  0  0  0  0
    5.0869  -21.0954   23.4818 C   0  0  0  0  0  0  0  0  0  0  0  0
    6.1039  -20.0432   23.1613 C   0  0  0  0  0  0  0  0  0  0  0  0
    5.8554  -19.3738   21.8295 C   0  0  2  0  0  0  0  0  0  0  0  0
    5.7587  -20.3240   20.7607 N   0  0  0  0  0  0  0  0  0  0  0  0
    6.8636  -18.3485   21.4885 C   0  0  0  0  0  0  0  0  0  0  0  0
    7.8759  -18.6829   20.8320 O   0  0  0  0  0  0  0  0  0  0  0  0
    8.8987  -12.3117   19.2456 N   0  0  0  0  0  0  0  0  0  0  0  0
    8.2823  -13.4548   19.8075 C   0  0  0  0  0  0  0  0  0  0  0  0
    7.9845  -14.4238   19.0840 O   0  0  0  0  0  0  0  0  0  0  0  0
    7.9872  -13.5111   21.2497 C   0  0  0  0  0  0  0  0  0  0  0  0
    7.0860  -14.6634   21.5192 C   0  0  0  0  0  0  0  0  0  0  0  0
    7.7743  -16.0020   21.5721 C   0  0  2  0  0  0  0  0  0  0  0  0
    6.7493  -16.9836   21.8677 N   0  0  0  0  0  0  0  0  0  0  0  0
    8.8300  -16.0918   22.5795 C   0  0  0  0  0  0  0  0  0  0  0  0
    8.6034  -16.3020   23.8011 O   0  0  0  0  0  0  0  0  0  0  0  0
   10.1858  -15.9388   22.1943 N   0  0  0  0  0  0  0  0  0  0  0  0
   11.2380  -16.5006   23.0209 C   0  0  1  0  0  0  0  0  0  0  0  0
   12.5597  -16.1154   22.4187 C   0  0  0  0  0  0  0  0  0  0  0  0
   13.6776  -16.6343   23.2748 C   0  0  0  0  0  0  0  0  0  0  0  0
   14.9945  -16.3601   22.6425 C   0  0  0  0  0  0  0  0  0  0  0  0
   15.5362  -15.2279   22.6507 O   0  0  0  0  0  0  0  0  0  0  0  0
   11.1137  -15.9142   24.3770 C   0  0  0  0  0  0  0  0  0  0  0  0
   10.3363  -14.7757   24.5618 O   0  0  0  0  0  0  0  0  0  0  0  0
   15.6490  -17.4056   22.0172 O   0  0  0  0  0  0  0  0  0  0  0  0
   11.6947  -16.4263   25.3506 O   0  0  0  0  0  0  0  0  0  0  0  0
  1  2  1  0
  3  2  1  0
  4  3  1  0
  5  6  1  6
  5  4  1  0
  7  8  2  0
  7  5  1  0
  9 10  1  0
 10 12  1  0
 11 10  2  0
 13 12  1  0
 14 15  1  0
 14 13  1  1
 15  7  1  0
 16 14  1  0
 17 16  2  0
 18 16  1  0
 19 18  1  0
 20 21  1  0
 19 20  1  6
 22 21  1  0
 22 23  2  0
 24 25  1  0
 24 19  1  0
 26 22  1  0
 27 24  2  0
M  END
$$$$
