MQE.pdb
     RDKit          3D

 27 26  0  0  1  0  0  0  0  0999 V2000
    7.6379  -11.2840   26.3491 C   0  0  0  0  0  0  0  0  0  0  0  0
    6.5350  -12.3660   27.3344 S   0  0  0  0  0  0  0  0  0  0  0  0
    5.8860  -13.6478   26.2210 C   0  0  0  0  0  0  0  0  0  0  0  0
    7.0453  -14.4744   25.7559 C   0  0  0  0  0  0  0  0  0  0  0  0
    6.6440  -15.5418   24.7642 C   0  0  2  0  0  0  0  0  0  0  0  0
    5.7568  -16.5069   25.3437 N   0  0  0  0  0  0  0  0  0  0  0  0
    7.7943  -16.2360   24.1484 C   0  0  0  0  0  0  0  0  0  0  0  0
    8.2483  -17.2670   24.6946 O   0  0  0  0  0  0  0  0  0  0  0  0
    9.7275  -17.4992   18.5480 N   0  0  0  0  0  0  0  0  0  0  0  0
    8.4138  -17.2066   18.9850 C   0  0  0  0  0  0  0  0  0  0  0  0
    7.4331  -17.6327   18.3465 O   0  0  0  0  0  0  0  0  0  0  0  0
    8.1926  -16.3976   20.1961 C   0  0  0  0  0  0  0  0  0  0  0  0
    9.4968  -16.1631   20.8718 C   0  0  0  0  0  0  0  0  0  0  0  0
    9.5199  -16.5164   22.3358 C   0  0  2  0  0  0  0  0  0  0  0  0
    8.4248  -15.7950   22.9535 N   0  0  0  0  0  0  0  0  0  0  0  0
   10.7673  -16.1692   23.0147 C   0  0  0  0  0  0  0  0  0  0  0  0
   11.2101  -14.9916   23.0870 O   0  0  0  0  0  0  0  0  0  0  0  0
   11.5397  -17.1854   23.6318 N   0  0  0  0  0  0  0  0  0  0  0  0
   12.8105  -16.8513   24.2478 C   0  0  1  0  0  0  0  0  0  0  0  0
   13.0693  -17.8408   25.3486 C   0  0  0  0  0  0  0  0  0  0  0  0
   12.0197  -17.7023   26.4121 C   0  0  0  0  0  0  0  0  0  0  0  0
   12.2665  -18.6599   27.5219 C   0  0  0  0  0  0  0  0  0  0  0  0
   13.3990  -19.1380   27.7754 O   0  0  0  0  0  0  0  0  0  0  0  0
   13.8636  -16.9667   23.2106 C   0  0  0  0  0  0  0  0  0  0  0  0
   15.1570  -16.5434   23.4982 O   0  0  0  0  0  0  0  0  0  0  0  0
   11.1940  -19.0381   28.3087 O   0  0  0  0  0  0  0  0  0  0  0  0
   13.6062  -17.4366   22.0878 O   0  0  0  0  0  0  0  0  0  0  0  0
  1  2  1  0
  3  2  1  0
  4  3  1  0
  5  6  1  1
  5  4  1  0
  7  8  2  0
  7  5  1  0
  9 10  1  0
 10 12  1  0
 11 10  2  0
 13 12  1  0
 14 15  1  0
 14 13  1  6
 15  7  1  0
 16 14  1  0
 17 16  2  0
 18 16  1  0
 19 18  1  0
 20 21  1  0
 19 20  1  1
 22 21  1  0
 22 23  2  0
 24 25  1  0
 24 19  1  0
 26 22  1  0
 27 24  2  0
M  END
$$$$
