FAH.pdb
     RDKit          3D

 27 28  0  0  1  0  0  0  0  0999 V2000
    7.3362  -16.8079   26.7451 N   0  0  0  0  0  0  0  0  0  0  0  0
    7.2225  -16.1370   25.4649 C   0  0  1  0  0  0  0  0  0  0  0  0
    8.1168  -14.9169   25.4942 C   0  0  0  0  0  0  0  0  0  0  0  0
    7.2938  -13.7548   25.8629 C   0  0  0  0  0  0  0  0  0  0  0  0
    7.2138  -12.6599   25.0401 C   0  0  0  0  0  0  0  0  0  0  0  0
    6.4392  -11.5512   25.3740 C   0  0  0  0  0  0  0  0  0  0  0  0
    5.7459  -11.5766   26.5627 C   0  0  0  0  0  0  0  0  0  0  0  0
    5.8019  -12.6745   27.4285 C   0  0  0  0  0  0  0  0  0  0  0  0
    6.5962  -13.7608   27.0419 C   0  0  0  0  0  0  0  0  0  0  0  0
    7.5834  -17.0573   24.3447 C   0  0  0  0  0  0  0  0  0  0  0  0
    8.2629  -18.0990   24.5247 O   0  0  0  0  0  0  0  0  0  0  0  0
    6.5087  -17.3188   20.7070 C   0  0  0  0  0  0  0  0  0  0  0  0
    7.3250  -17.6665   21.9053 C   0  0  2  0  0  0  0  0  0  0  0  0
    7.1629  -16.7801   23.0167 N   0  0  0  0  0  0  0  0  0  0  0  0
    8.7609  -17.7859   21.5162 C   0  0  0  0  0  0  0  0  0  0  0  0
    9.5960  -18.4110   22.2125 O   0  0  0  0  0  0  0  0  0  0  0  0
    9.2146  -17.1770   20.3198 N   0  0  0  0  0  0  0  0  0  0  0  0
   10.3994  -16.2726   20.4115 C   0  0  1  0  0  0  0  0  0  0  0  0
    9.8810  -15.0640   21.1356 C   0  0  0  0  0  0  0  0  0  0  0  0
    9.1856  -14.1483   20.2201 C   0  0  0  0  0  0  0  0  0  0  0  0
    8.9089  -14.1970   18.8748 C   0  0  0  0  0  0  0  0  0  0  0  0
    8.1609  -13.1208   18.4935 N   0  0  0  0  0  0  0  0  0  0  0  0
    7.9830  -12.4198   19.6117 C   0  0  0  0  0  0  0  0  0  0  0  0
    8.5806  -13.0077   20.6517 N   0  0  0  0  0  0  0  0  0  0  0  0
   11.3442  -16.9533   21.3620 C   0  0  0  0  0  0  0  0  0  0  0  0
   12.5318  -17.5039   20.9928 O   0  0  0  0  0  0  0  0  0  0  0  0
   10.9783  -16.9988   22.5899 O   0  0  0  0  0  0  0  0  0  0  0  0
  2  1  1  1
  3  4  1  0
  3  2  1  0
  4  5  2  0
  4  9  1  0
  5  6  1  0
  6  7  2  0
  8  7  1  0
  9  8  2  0
 10 11  2  0
 10  2  1  0
 13 12  1  6
 13 14  1  0
 14 10  1  0
 15 13  1  0
 15 17  1  0
 16 15  2  0
 18 17  1  0
 18 25  1  0
 18 19  1  1
 20 21  2  0
 20 19  1  0
 22 21  1  0
 23 24  2  0
 23 22  1  0
 24 20  1  0
 25 26  1  0
 27 25  2  0
M  END
$$$$
