FAH.pdb
     RDKit          3D

 27 28  0  0  1  0  0  0  0  0999 V2000
    6.9583  -17.0142   21.8814 N   0  0  0  0  0  0  0  0  0  0  0  0
    7.3763  -15.9890   22.8174 C   0  0  1  0  0  0  0  0  0  0  0  0
    6.5453  -14.7513   22.5588 C   0  0  0  0  0  0  0  0  0  0  0  0
    7.0934  -14.0711   21.3753 C   0  0  0  0  0  0  0  0  0  0  0  0
    6.5370  -14.2588   20.1354 C   0  0  0  0  0  0  0  0  0  0  0  0
    7.0435  -13.6225   19.0044 C   0  0  0  0  0  0  0  0  0  0  0  0
    8.1285  -12.7898   19.1579 C   0  0  0  0  0  0  0  0  0  0  0  0
    8.7238  -12.5726   20.4057 C   0  0  0  0  0  0  0  0  0  0  0  0
    8.1730  -13.2383   21.5075 C   0  0  0  0  0  0  0  0  0  0  0  0
    7.2350  -16.4623   24.2275 C   0  0  0  0  0  0  0  0  0  0  0  0
    6.1888  -16.2721   24.8973 O   0  0  0  0  0  0  0  0  0  0  0  0
    7.0453  -18.6599   26.3580 C   0  0  0  0  0  0  0  0  0  0  0  0
    8.2166  -17.7583   26.1628 C   0  0  2  0  0  0  0  0  0  0  0  0
    8.2969  -17.1546   24.8680 N   0  0  0  0  0  0  0  0  0  0  0  0
    9.4738  -18.4909   26.4946 C   0  0  0  0  0  0  0  0  0  0  0  0
    9.6475  -19.0619   27.5977 O   0  0  0  0  0  0  0  0  0  0  0  0
   10.5197  -18.5537   25.5407 N   0  0  0  0  0  0  0  0  0  0  0  0
   11.6825  -19.4389   25.8481 C   0  0  1  0  0  0  0  0  0  0  0  0
   12.1478  -19.9117   24.5014 C   0  0  0  0  0  0  0  0  0  0  0  0
   11.0830  -20.6326   23.7895 C   0  0  0  0  0  0  0  0  0  0  0  0
   10.7962  -20.8064   22.4568 C   0  0  0  0  0  0  0  0  0  0  0  0
    9.7231  -21.6343   22.2949 N   0  0  0  0  0  0  0  0  0  0  0  0
    9.3606  -21.9637   23.5332 C   0  0  0  0  0  0  0  0  0  0  0  0
   10.1515  -21.3830   24.4396 N   0  0  0  0  0  0  0  0  0  0  0  0
   12.7558  -18.5191   26.3596 C   0  0  0  0  0  0  0  0  0  0  0  0
   13.9498  -18.9419   26.8549 O   0  0  0  0  0  0  0  0  0  0  0  0
   12.4981  -17.2642   26.3100 O   0  0  0  0  0  0  0  0  0  0  0  0
  2  1  1  6
  3  4  1  0
  3  2  1  0
  4  5  2  0
  4  9  1  0
  5  6  1  0
  6  7  2  0
  8  7  1  0
  9  8  2  0
 10 11  2  0
 10  2  1  0
 13 12  1  6
 13 14  1  0
 14 10  1  0
 15 13  1  0
 15 17  1  0
 16 15  2  0
 18 17  1  0
 18 25  1  0
 18 19  1  6
 20 21  2  0
 20 19  1  0
 22 21  1  0
 23 24  2  0
 23 22  1  0
 24 20  1  0
 25 26  1  0
 27 25  2  0
M  END
$$$$
