FAH.pdb
     RDKit          3D

 27 28  0  0  1  0  0  0  0  0999 V2000
    7.7162  -14.6604   21.4300 N   0  0  0  0  0  0  0  0  0  0  0  0
    7.8277  -14.4258   22.8564 C   0  0  1  0  0  0  0  0  0  0  0  0
    7.1069  -13.1346   23.1766 C   0  0  0  0  0  0  0  0  0  0  0  0
    7.1875  -12.9132   24.6286 C   0  0  0  0  0  0  0  0  0  0  0  0
    6.1121  -13.1717   25.4404 C   0  0  0  0  0  0  0  0  0  0  0  0
    6.1714  -12.9676   26.8171 C   0  0  0  0  0  0  0  0  0  0  0  0
    7.3471  -12.4949   27.3543 C   0  0  0  0  0  0  0  0  0  0  0  0
    8.4655  -12.2195   26.5597 C   0  0  0  0  0  0  0  0  0  0  0  0
    8.3489  -12.4432   25.1824 C   0  0  0  0  0  0  0  0  0  0  0  0
    7.2708  -15.5744   23.6327 C   0  0  0  0  0  0  0  0  0  0  0  0
    6.0636  -15.9145   23.5544 O   0  0  0  0  0  0  0  0  0  0  0  0
    7.6487  -18.6484   23.8047 C   0  0  0  0  0  0  0  0  0  0  0  0
    7.8392  -17.6752   24.9180 C   0  0  2  0  0  0  0  0  0  0  0  0
    8.1021  -16.3323   24.4997 N   0  0  0  0  0  0  0  0  0  0  0  0
    8.9030  -18.1704   25.8401 C   0  0  0  0  0  0  0  0  0  0  0  0
    8.9169  -19.3444   26.2811 O   0  0  0  0  0  0  0  0  0  0  0  0
    9.9431  -17.2960   26.2423 N   0  0  0  0  0  0  0  0  0  0  0  0
   11.0008  -17.8482   27.1403 C   0  0  1  0  0  0  0  0  0  0  0  0
   12.1991  -16.9866   26.8661 C   0  0  0  0  0  0  0  0  0  0  0  0
   12.4638  -16.8802   25.4242 C   0  0  0  0  0  0  0  0  0  0  0  0
   11.8381  -17.3960   24.3146 C   0  0  0  0  0  0  0  0  0  0  0  0
   12.4289  -16.9443   23.1700 N   0  0  0  0  0  0  0  0  0  0  0  0
   13.4138  -16.1517   23.5883 C   0  0  0  0  0  0  0  0  0  0  0  0
   13.4566  -16.0956   24.9222 N   0  0  0  0  0  0  0  0  0  0  0  0
   10.5539  -17.5074   28.5345 C   0  0  0  0  0  0  0  0  0  0  0  0
   11.2530  -17.8227   29.6577 O   0  0  0  0  0  0  0  0  0  0  0  0
    9.4411  -16.8788   28.6354 O   0  0  0  0  0  0  0  0  0  0  0  0
  2  1  1  6
  3  4  1  0
  3  2  1  0
  4  5  2  0
  4  9  1  0
  5  6  1  0
  6  7  2  0
  8  7  1  0
  9  8  2  0
 10 11  2  0
 10  2  1  0
 13 12  1  6
 13 14  1  0
 14 10  1  0
 15 13  1  0
 15 17  1  0
 16 15  2  0
 18 17  1  0
 18 25  1  0
 18 19  1  6
 20 21  2  0
 20 19  1  0
 22 21  1  0
 23 24  2  0
 23 22  1  0
 24 20  1  0
 25 26  1  0
 27 25  2  0
M  END
$$$$
