FAH.pdb
     RDKit          3D

 27 28  0  0  1  0  0  0  0  0999 V2000
    7.1126  -16.4412   22.6114 N   0  0  0  0  0  0  0  0  0  0  0  0
    8.4838  -16.0123   22.8064 C   0  0  1  0  0  0  0  0  0  0  0  0
    8.4855  -14.5082   22.9701 C   0  0  0  0  0  0  0  0  0  0  0  0
    8.0838  -13.9077   21.6888 C   0  0  0  0  0  0  0  0  0  0  0  0
    6.7633  -13.6593   21.4115 C   0  0  0  0  0  0  0  0  0  0  0  0
    6.3658  -13.0913   20.2033 C   0  0  0  0  0  0  0  0  0  0  0  0
    7.3379  -12.7798   19.2802 C   0  0  0  0  0  0  0  0  0  0  0  0
    8.6948  -13.0178   19.5258 C   0  0  0  0  0  0  0  0  0  0  0  0
    9.0365  -13.5905   20.7570 C   0  0  0  0  0  0  0  0  0  0  0  0
    9.0954  -16.6953   23.9861 C   0  0  0  0  0  0  0  0  0  0  0  0
    8.5787  -16.6485   25.1306 O   0  0  0  0  0  0  0  0  0  0  0  0
   10.5521  -19.5650   25.0512 C   0  0  0  0  0  0  0  0  0  0  0  0
   10.9546  -18.1362   24.9110 C   0  0  2  0  0  0  0  0  0  0  0  0
   10.3017  -17.4326   23.8499 N   0  0  0  0  0  0  0  0  0  0  0  0
   12.4389  -18.0437   24.7856 C   0  0  0  0  0  0  0  0  0  0  0  0
   13.2126  -18.8532   25.3505 O   0  0  0  0  0  0  0  0  0  0  0  0
   13.0121  -17.0101   24.0039 N   0  0  0  0  0  0  0  0  0  0  0  0
   14.4348  -17.1728   23.5802 C   0  0  1  0  0  0  0  0  0  0  0  0
   14.3782  -18.2194   22.5053 C   0  0  0  0  0  0  0  0  0  0  0  0
   14.5741  -19.5668   23.0588 C   0  0  0  0  0  0  0  0  0  0  0  0
   14.8288  -20.0329   24.3263 C   0  0  0  0  0  0  0  0  0  0  0  0
   14.8565  -21.3975   24.3456 N   0  0  0  0  0  0  0  0  0  0  0  0
   14.6161  -21.7580   23.0864 C   0  0  0  0  0  0  0  0  0  0  0  0
   14.4443  -20.6907   22.3017 N   0  0  0  0  0  0  0  0  0  0  0  0
   14.7916  -15.8863   22.8895 C   0  0  0  0  0  0  0  0  0  0  0  0
   13.9121  -14.8745   22.6605 O   0  0  0  0  0  0  0  0  0  0  0  0
   16.0093  -15.7671   22.5066 O   0  0  0  0  0  0  0  0  0  0  0  0
  2  1  1  1
  3  4  1  0
  3  2  1  0
  4  5  2  0
  4  9  1  0
  5  6  1  0
  6  7  2  0
  8  7  1  0
  9  8  2  0
 10 11  2  0
 10  2  1  0
 13 12  1  6
 13 14  1  0
 14 10  1  0
 15 13  1  0
 15 17  1  0
 16 15  2  0
 18 17  1  0
 18 25  1  0
 18 19  1  6
 20 21  2  0
 20 19  1  0
 22 21  1  0
 23 24  2  0
 23 22  1  0
 24 20  1  0
 25 26  1  0
 27 25  2  0
M  END
$$$$
