FAH.pdb
     RDKit          3D

 27 28  0  0  1  0  0  0  0  0999 V2000
    7.2579  -18.1632   26.9994 N   0  0  0  0  0  0  0  0  0  0  0  0
    7.1355  -16.9995   26.1433 C   0  0  1  0  0  0  0  0  0  0  0  0
    8.2116  -16.0120   26.5383 C   0  0  0  0  0  0  0  0  0  0  0  0
    7.6484  -14.6568   26.4383 C   0  0  0  0  0  0  0  0  0  0  0  0
    8.2673  -13.6914   25.6852 C   0  0  0  0  0  0  0  0  0  0  0  0
    7.7474  -12.4033   25.5799 C   0  0  0  0  0  0  0  0  0  0  0  0
    6.5840  -12.1144   26.2559 C   0  0  0  0  0  0  0  0  0  0  0  0
    5.9233  -13.0715   27.0341 C   0  0  0  0  0  0  0  0  0  0  0  0
    6.4911  -14.3495   27.1039 C   0  0  0  0  0  0  0  0  0  0  0  0
    7.2406  -17.3816   24.7028 C   0  0  0  0  0  0  0  0  0  0  0  0
    7.9695  -18.3273   24.3111 O   0  0  0  0  0  0  0  0  0  0  0  0
    5.3131  -16.4362   21.5745 C   0  0  0  0  0  0  0  0  0  0  0  0
    6.4567  -17.0282   22.3260 C   0  0  2  0  0  0  0  0  0  0  0  0
    6.5075  -16.6760   23.7120 N   0  0  0  0  0  0  0  0  0  0  0  0
    7.7371  -16.6917   21.6372 C   0  0  0  0  0  0  0  0  0  0  0  0
    7.9617  -17.0078   20.4444 O   0  0  0  0  0  0  0  0  0  0  0  0
    8.7469  -15.9898   22.3412 N   0  0  0  0  0  0  0  0  0  0  0  0
   10.0236  -15.7085   21.6193 C   0  0  1  0  0  0  0  0  0  0  0  0
    9.9643  -14.2361   21.3326 C   0  0  0  0  0  0  0  0  0  0  0  0
    9.2407  -13.9625   20.0828 C   0  0  0  0  0  0  0  0  0  0  0  0
    8.6350  -14.7724   19.1523 C   0  0  0  0  0  0  0  0  0  0  0  0
    8.0228  -14.0282   18.1857 N   0  0  0  0  0  0  0  0  0  0  0  0
    8.2572  -12.7642   18.5333 C   0  0  0  0  0  0  0  0  0  0  0  0
    8.9778  -12.6967   19.6560 N   0  0  0  0  0  0  0  0  0  0  0  0
   11.1067  -15.8889   22.6459 C   0  0  0  0  0  0  0  0  0  0  0  0
   12.4365  -15.7984   22.3751 O   0  0  0  0  0  0  0  0  0  0  0  0
   10.7185  -16.1410   23.8414 O   0  0  0  0  0  0  0  0  0  0  0  0
  2  1  1  1
  3  4  1  0
  3  2  1  0
  4  5  2  0
  4  9  1  0
  5  6  1  0
  6  7  2  0
  8  7  1  0
  9  8  2  0
 10 11  2  0
 10  2  1  0
 13 12  1  6
 13 14  1  0
 14 10  1  0
 15 13  1  0
 15 17  1  0
 16 15  2  0
 18 17  1  0
 18 25  1  0
 18 19  1  1
 20 21  2  0
 20 19  1  0
 22 21  1  0
 23 24  2  0
 23 22  1  0
 24 20  1  0
 25 26  1  0
 27 25  2  0
M  END
$$$$
