FAH.pdb
     RDKit          3D

 27 28  0  0  1  0  0  0  0  0999 V2000
    8.7207  -18.1472   20.3168 N   0  0  0  0  0  0  0  0  0  0  0  0
    8.8199  -16.9150   21.0744 C   0  0  1  0  0  0  0  0  0  0  0  0
    7.4167  -16.4373   21.3779 C   0  0  0  0  0  0  0  0  0  0  0  0
    7.3928  -14.9726   21.2440 C   0  0  0  0  0  0  0  0  0  0  0  0
    7.3935  -14.1646   22.3528 C   0  0  0  0  0  0  0  0  0  0  0  0
    7.3711  -12.7760   22.2438 C   0  0  0  0  0  0  0  0  0  0  0  0
    7.3477  -12.2230   20.9837 C   0  0  0  0  0  0  0  0  0  0  0  0
    7.3462  -13.0133   19.8289 C   0  0  0  0  0  0  0  0  0  0  0  0
    7.3694  -14.4029   19.9984 C   0  0  0  0  0  0  0  0  0  0  0  0
    9.6148  -17.1173   22.3232 C   0  0  0  0  0  0  0  0  0  0  0  0
   10.4463  -18.0515   22.4451 O   0  0  0  0  0  0  0  0  0  0  0  0
   10.1427  -14.7817   25.2863 C   0  0  0  0  0  0  0  0  0  0  0  0
   10.4918  -15.8887   24.3505 C   0  0  2  0  0  0  0  0  0  0  0  0
    9.4537  -16.2450   23.4323 N   0  0  0  0  0  0  0  0  0  0  0  0
   10.9539  -17.0756   25.1283 C   0  0  0  0  0  0  0  0  0  0  0  0
   11.9929  -17.0556   25.8306 O   0  0  0  0  0  0  0  0  0  0  0  0
   10.2039  -18.2770   25.0833 N   0  0  0  0  0  0  0  0  0  0  0  0
   10.6456  -19.4001   25.9629 C   0  0  1  0  0  0  0  0  0  0  0  0
   12.1267  -19.4836   25.7326 C   0  0  0  0  0  0  0  0  0  0  0  0
   12.4349  -20.1804   24.4757 C   0  0  0  0  0  0  0  0  0  0  0  0
   11.6561  -20.6302   23.4366 C   0  0  0  0  0  0  0  0  0  0  0  0
   12.4292  -21.1596   22.4440 N   0  0  0  0  0  0  0  0  0  0  0  0
   13.6795  -21.0280   22.8831 C   0  0  0  0  0  0  0  0  0  0  0  0
   13.7114  -20.4494   24.0866 N   0  0  0  0  0  0  0  0  0  0  0  0
   10.4711  -18.8947   27.3678 C   0  0  0  0  0  0  0  0  0  0  0  0
    9.9735  -17.6681   27.6804 O   0  0  0  0  0  0  0  0  0  0  0  0
   10.8214  -19.6951   28.3060 O   0  0  0  0  0  0  0  0  0  0  0  0
  2  1  1  1
  3  4  1  0
  3  2  1  0
  4  5  2  0
  4  9  1  0
  5  6  1  0
  6  7  2  0
  8  7  1  0
  9  8  2  0
 10 11  2  0
 10  2  1  0
 13 12  1  1
 13 14  1  0
 14 10  1  0
 15 13  1  0
 15 17  1  0
 16 15  2  0
 18 17  1  0
 18 25  1  0
 18 19  1  6
 20 21  2  0
 20 19  1  0
 22 21  1  0
 23 24  2  0
 23 22  1  0
 24 20  1  0
 25 26  1  0
 27 25  2  0
M  END
$$$$
