FAH.pdb
     RDKit          3D

 27 28  0  0  1  0  0  0  0  0999 V2000
    4.9610  -19.4783   21.6746 N   0  0  0  0  0  0  0  0  0  0  0  0
    6.0454  -18.6572   22.1763 C   0  0  1  0  0  0  0  0  0  0  0  0
    5.5024  -17.7969   23.2962 C   0  0  0  0  0  0  0  0  0  0  0  0
    6.5106  -16.7755   23.6190 C   0  0  0  0  0  0  0  0  0  0  0  0
    6.9797  -15.9205   22.6540 C   0  0  0  0  0  0  0  0  0  0  0  0
    7.9342  -14.9478   22.9426 C   0  0  0  0  0  0  0  0  0  0  0  0
    8.4038  -14.8603   24.2333 C   0  0  0  0  0  0  0  0  0  0  0  0
    7.9501  -15.7139   25.2451 C   0  0  0  0  0  0  0  0  0  0  0  0
    6.9904  -16.6725   24.8979 C   0  0  0  0  0  0  0  0  0  0  0  0
    7.1882  -19.5028   22.6362 C   0  0  0  0  0  0  0  0  0  0  0  0
    7.0661  -20.3553   23.5513 O   0  0  0  0  0  0  0  0  0  0  0  0
   10.4093  -20.6524   21.2374 C   0  0  0  0  0  0  0  0  0  0  0  0
    9.6212  -20.1441   22.3965 C   0  0  2  0  0  0  0  0  0  0  0  0
    8.4719  -19.3682   22.0436 N   0  0  0  0  0  0  0  0  0  0  0  0
   10.5182  -19.3892   23.3200 C   0  0  0  0  0  0  0  0  0  0  0  0
   11.5870  -19.8731   23.7632 O   0  0  0  0  0  0  0  0  0  0  0  0
   10.1650  -18.0768   23.7211 N   0  0  0  0  0  0  0  0  0  0  0  0
   11.1406  -17.3275   24.5678 C   0  0  1  0  0  0  0  0  0  0  0  0
   11.0303  -15.9104   24.0848 C   0  0  0  0  0  0  0  0  0  0  0  0
   11.4817  -15.7826   22.6918 C   0  0  0  0  0  0  0  0  0  0  0  0
   12.7243  -15.7723   22.1051 C   0  0  0  0  0  0  0  0  0  0  0  0
   12.6192  -15.7008   20.7460 N   0  0  0  0  0  0  0  0  0  0  0  0
   11.3090  -15.6694   20.5098 C   0  0  0  0  0  0  0  0  0  0  0  0
   10.6108  -15.7171   21.6475 N   0  0  0  0  0  0  0  0  0  0  0  0
   10.5555  -17.3415   25.9523 C   0  0  0  0  0  0  0  0  0  0  0  0
   11.2062  -16.8936   27.0595 O   0  0  0  0  0  0  0  0  0  0  0  0
    9.3671  -17.8099   26.0610 O   0  0  0  0  0  0  0  0  0  0  0  0
  2  1  1  1
  3  4  1  0
  3  2  1  0
  4  5  2  0
  4  9  1  0
  5  6  1  0
  6  7  2  0
  8  7  1  0
  9  8  2  0
 10 11  2  0
 10  2  1  0
 13 12  1  6
 13 14  1  0
 14 10  1  0
 15 13  1  0
 15 17  1  0
 16 15  2  0
 18 17  1  0
 18 25  1  0
 18 19  1  6
 20 21  2  0
 20 19  1  0
 22 21  1  0
 23 24  2  0
 23 22  1  0
 24 20  1  0
 25 26  1  0
 27 25  2  0
M  END
$$$$
