FAH.pdb
     RDKit          3D

 27 28  0  0  1  0  0  0  0  0999 V2000
    5.6208  -17.5104   24.0350 N   0  0  0  0  0  0  0  0  0  0  0  0
    6.6092  -16.4501   24.0038 C   0  0  1  0  0  0  0  0  0  0  0  0
    6.7778  -15.9250   25.4127 C   0  0  0  0  0  0  0  0  0  0  0  0
    6.7262  -14.4558   25.3629 C   0  0  0  0  0  0  0  0  0  0  0  0
    7.8372  -13.7237   25.0282 C   0  0  0  0  0  0  0  0  0  0  0  0
    7.8056  -12.3320   24.9763 C   0  0  0  0  0  0  0  0  0  0  0  0
    6.6208  -11.6970   25.2718 C   0  0  0  0  0  0  0  0  0  0  0  0
    5.4664  -12.4084   25.6175 C   0  0  0  0  0  0  0  0  0  0  0  0
    5.5562  -13.8052   25.6537 C   0  0  0  0  0  0  0  0  0  0  0  0
    7.9030  -16.9412   23.4407 C   0  0  0  0  0  0  0  0  0  0  0  0
    8.3299  -18.1034   23.6554 O   0  0  0  0  0  0  0  0  0  0  0  0
   10.6507  -15.4187   21.2832 C   0  0  0  0  0  0  0  0  0  0  0  0
   10.0842  -16.3273   22.3208 C   0  0  2  0  0  0  0  0  0  0  0  0
    8.7065  -16.0956   22.6304 N   0  0  0  0  0  0  0  0  0  0  0  0
   10.9291  -16.2731   23.5497 C   0  0  0  0  0  0  0  0  0  0  0  0
   12.1671  -16.4727   23.5233 O   0  0  0  0  0  0  0  0  0  0  0  0
   10.3276  -15.9871   24.8005 N   0  0  0  0  0  0  0  0  0  0  0  0
   11.2111  -15.9730   26.0044 C   0  0  1  0  0  0  0  0  0  0  0  0
   10.3027  -15.5414   27.1190 C   0  0  0  0  0  0  0  0  0  0  0  0
   10.9347  -15.7374   28.4314 C   0  0  0  0  0  0  0  0  0  0  0  0
   11.8369  -16.6566   28.9108 C   0  0  0  0  0  0  0  0  0  0  0  0
   12.1804  -16.3726   30.2010 N   0  0  0  0  0  0  0  0  0  0  0  0
   11.4854  -15.2775   30.5024 C   0  0  0  0  0  0  0  0  0  0  0  0
   10.7379  -14.8790   29.4696 N   0  0  0  0  0  0  0  0  0  0  0  0
   11.5400  -17.4153   26.2709 C   0  0  0  0  0  0  0  0  0  0  0  0
   10.6830  -18.4470   26.0447 O   0  0  0  0  0  0  0  0  0  0  0  0
   12.7097  -17.6531   26.7387 O   0  0  0  0  0  0  0  0  0  0  0  0
  2  1  1  1
  3  4  1  0
  3  2  1  0
  4  5  2  0
  4  9  1  0
  5  6  1  0
  6  7  2  0
  8  7  1  0
  9  8  2  0
 10 11  2  0
 10  2  1  0
 13 12  1  6
 13 14  1  0
 14 10  1  0
 15 13  1  0
 15 17  1  0
 16 15  2  0
 18 17  1  0
 18 25  1  0
 18 19  1  1
 20 21  2  0
 20 19  1  0
 22 21  1  0
 23 24  2  0
 23 22  1  0
 24 20  1  0
 25 26  1  0
 27 25  2  0
M  END
$$$$
