FAH.pdb
     RDKit          3D

 27 28  0  0  1  0  0  0  0  0999 V2000
    5.6504  -17.6492   25.4210 N   0  0  0  0  0  0  0  0  0  0  0  0
    6.2625  -16.3494   25.2261 C   0  0  1  0  0  0  0  0  0  0  0  0
    6.8952  -15.9285   26.5345 C   0  0  0  0  0  0  0  0  0  0  0  0
    6.8376  -14.4611   26.6196 C   0  0  0  0  0  0  0  0  0  0  0  0
    7.9841  -13.7182   26.7462 C   0  0  0  0  0  0  0  0  0  0  0  0
    7.9475  -12.3281   26.8281 C   0  0  0  0  0  0  0  0  0  0  0  0
    6.7209  -11.7059   26.7788 C   0  0  0  0  0  0  0  0  0  0  0  0
    5.5295  -12.4285   26.6502 C   0  0  0  0  0  0  0  0  0  0  0  0
    5.6263  -13.8231   26.5723 C   0  0  0  0  0  0  0  0  0  0  0  0
    7.2641  -16.3904   24.1183 C   0  0  0  0  0  0  0  0  0  0  0  0
    8.1432  -17.2851   24.0416 O   0  0  0  0  0  0  0  0  0  0  0  0
    7.9751  -14.1959   21.0785 C   0  0  0  0  0  0  0  0  0  0  0  0
    8.1806  -15.3430   22.0084 C   0  0  2  0  0  0  0  0  0  0  0  0
    7.2552  -15.4023   23.0981 N   0  0  0  0  0  0  0  0  0  0  0  0
    9.5904  -15.3450   22.4980 C   0  0  0  0  0  0  0  0  0  0  0  0
   10.0133  -14.5090   23.3319 O   0  0  0  0  0  0  0  0  0  0  0  0
   10.4980  -16.3196   22.0138 N   0  0  0  0  0  0  0  0  0  0  0  0
   11.9120  -16.2424   22.4880 C   0  0  1  0  0  0  0  0  0  0  0  0
   12.1858  -17.6096   23.0443 C   0  0  0  0  0  0  0  0  0  0  0  0
   11.6924  -17.7356   24.4230 C   0  0  0  0  0  0  0  0  0  0  0  0
   11.1618  -16.8357   25.3160 C   0  0  0  0  0  0  0  0  0  0  0  0
   10.7796  -17.4616   26.4672 N   0  0  0  0  0  0  0  0  0  0  0  0
   11.0783  -18.7442   26.2696 C   0  0  0  0  0  0  0  0  0  0  0  0
   11.6210  -18.9346   25.0639 N   0  0  0  0  0  0  0  0  0  0  0  0
   12.7421  -16.1273   21.2401 C   0  0  0  0  0  0  0  0  0  0  0  0
   14.0643  -15.8088   21.2308 O   0  0  0  0  0  0  0  0  0  0  0  0
   12.1357  -16.3512   20.1330 O   0  0  0  0  0  0  0  0  0  0  0  0
  2  1  1  1
  3  4  1  0
  3  2  1  0
  4  5  2  0
  4  9  1  0
  5  6  1  0
  6  7  2  0
  8  7  1  0
  9  8  2  0
 10 11  2  0
 10  2  1  0
 13 12  1  1
 13 14  1  0
 14 10  1  0
 15 13  1  0
 15 17  1  0
 16 15  2  0
 18 17  1  0
 18 25  1  0
 18 19  1  6
 20 21  2  0
 20 19  1  0
 22 21  1  0
 23 24  2  0
 23 22  1  0
 24 20  1  0
 25 26  1  0
 27 25  2  0
M  END
$$$$
