FAH.pdb
     RDKit          3D

 27 28  0  0  1  0  0  0  0  0999 V2000
    8.2854  -15.5424   21.5165 N   0  0  0  0  0  0  0  0  0  0  0  0
    9.4666  -14.9473   22.1101 C   0  0  1  0  0  0  0  0  0  0  0  0
    9.5513  -13.5099   21.6452 C   0  0  0  0  0  0  0  0  0  0  0  0
    8.7029  -13.3639   20.4524 C   0  0  0  0  0  0  0  0  0  0  0  0
    7.3730  -13.0477   20.5694 C   0  0  0  0  0  0  0  0  0  0  0  0
    6.5556  -12.9056   19.4504 C   0  0  0  0  0  0  0  0  0  0  0  0
    7.1167  -13.0914   18.2075 C   0  0  0  0  0  0  0  0  0  0  0  0
    8.4687  -13.4147   18.0470 C   0  0  0  0  0  0  0  0  0  0  0  0
    9.2427  -13.5448   19.2065 C   0  0  0  0  0  0  0  0  0  0  0  0
    9.4221  -15.0422   23.6005 C   0  0  0  0  0  0  0  0  0  0  0  0
   10.4429  -14.8752   24.3141 O   0  0  0  0  0  0  0  0  0  0  0  0
    6.7027  -15.1107   26.2083 C   0  0  0  0  0  0  0  0  0  0  0  0
    8.0587  -15.4500   25.6894 C   0  0  2  0  0  0  0  0  0  0  0  0
    8.2034  -15.3291   24.2709 N   0  0  0  0  0  0  0  0  0  0  0  0
    8.4475  -16.8131   26.1564 C   0  0  0  0  0  0  0  0  0  0  0  0
    8.3327  -17.1715   27.3528 O   0  0  0  0  0  0  0  0  0  0  0  0
    8.9669  -17.7492   25.2281 N   0  0  0  0  0  0  0  0  0  0  0  0
    9.3844  -19.0834   25.7531 C   0  0  1  0  0  0  0  0  0  0  0  0
    9.5552  -19.9237   24.5209 C   0  0  0  0  0  0  0  0  0  0  0  0
   10.1169  -21.2425   24.8455 C   0  0  0  0  0  0  0  0  0  0  0  0
   10.4498  -21.8553   26.0297 C   0  0  0  0  0  0  0  0  0  0  0  0
   10.8758  -23.1337   25.8121 N   0  0  0  0  0  0  0  0  0  0  0  0
   10.7988  -23.2955   24.4926 C   0  0  0  0  0  0  0  0  0  0  0  0
   10.3509  -22.1882   23.8945 N   0  0  0  0  0  0  0  0  0  0  0  0
   10.7654  -18.8754   26.3092 C   0  0  0  0  0  0  0  0  0  0  0  0
   11.6964  -18.0557   25.7514 O   0  0  0  0  0  0  0  0  0  0  0  0
   11.0504  -19.5248   27.3772 O   0  0  0  0  0  0  0  0  0  0  0  0
  2  1  1  6
  3  4  1  0
  3  2  1  0
  4  5  2  0
  4  9  1  0
  5  6  1  0
  6  7  2  0
  8  7  1  0
  9  8  2  0
 10 11  2  0
 10  2  1  0
 13 12  1  6
 13 14  1  0
 14 10  1  0
 15 13  1  0
 15 17  1  0
 16 15  2  0
 18 17  1  0
 18 25  1  0
 18 19  1  6
 20 21  2  0
 20 19  1  0
 22 21  1  0
 23 24  2  0
 23 22  1  0
 24 20  1  0
 25 26  1  0
 27 25  2  0
M  END
$$$$
