FAH.pdb
     RDKit          3D

 27 28  0  0  1  0  0  0  0  0999 V2000
    7.2006  -16.8703   26.7830 N   0  0  0  0  0  0  0  0  0  0  0  0
    7.0070  -16.1978   25.5133 C   0  0  1  0  0  0  0  0  0  0  0  0
    8.0172  -15.0753   25.4188 C   0  0  0  0  0  0  0  0  0  0  0  0
    7.5098  -13.9360   26.1988 C   0  0  0  0  0  0  0  0  0  0  0  0
    8.3033  -13.3091   27.1260 C   0  0  0  0  0  0  0  0  0  0  0  0
    7.8387  -12.2291   27.8730 C   0  0  0  0  0  0  0  0  0  0  0  0
    6.5495  -11.7972   27.6594 C   0  0  0  0  0  0  0  0  0  0  0  0
    5.7095  -12.4103   26.7229 C   0  0  0  0  0  0  0  0  0  0  0  0
    6.2294  -13.4913   26.0007 C   0  0  0  0  0  0  0  0  0  0  0  0
    7.1405  -17.1559   24.3746 C   0  0  0  0  0  0  0  0  0  0  0  0
    7.7274  -18.2607   24.4929 O   0  0  0  0  0  0  0  0  0  0  0  0
    5.6199  -17.5035   20.9409 C   0  0  0  0  0  0  0  0  0  0  0  0
    6.7181  -17.6678   21.9358 C   0  0  2  0  0  0  0  0  0  0  0  0
    6.5988  -16.8437   23.0994 N   0  0  0  0  0  0  0  0  0  0  0  0
    8.0361  -17.4661   21.2654 C   0  0  0  0  0  0  0  0  0  0  0  0
    8.4106  -18.1669   20.2950 O   0  0  0  0  0  0  0  0  0  0  0  0
    8.9088  -16.4504   21.7288 N   0  0  0  0  0  0  0  0  0  0  0  0
   10.1575  -16.2036   20.9478 C   0  0  1  0  0  0  0  0  0  0  0  0
   10.1572  -14.7201   20.7179 C   0  0  0  0  0  0  0  0  0  0  0  0
    9.1262  -14.3288   19.7462 C   0  0  0  0  0  0  0  0  0  0  0  0
    8.2106  -15.0425   19.0106 C   0  0  0  0  0  0  0  0  0  0  0  0
    7.4073  -14.2057   18.2912 N   0  0  0  0  0  0  0  0  0  0  0  0
    7.8370  -12.9821   18.5937 C   0  0  0  0  0  0  0  0  0  0  0  0
    8.8564  -13.0265   19.4557 N   0  0  0  0  0  0  0  0  0  0  0  0
   11.2836  -16.4757   21.9056 C   0  0  0  0  0  0  0  0  0  0  0  0
   11.1116  -16.9392   23.1727 O   0  0  0  0  0  0  0  0  0  0  0  0
   12.4671  -16.2477   21.4688 O   0  0  0  0  0  0  0  0  0  0  0  0
  2  1  1  1
  3  4  1  0
  3  2  1  0
  4  5  2  0
  4  9  1  0
  5  6  1  0
  6  7  2  0
  8  7  1  0
  9  8  2  0
 10 11  2  0
 10  2  1  0
 13 12  1  6
 13 14  1  0
 14 10  1  0
 15 13  1  0
 15 17  1  0
 16 15  2  0
 18 17  1  0
 18 25  1  0
 18 19  1  1
 20 21  2  0
 20 19  1  0
 22 21  1  0
 23 24  2  0
 23 22  1  0
 24 20  1  0
 25 26  1  0
 27 25  2  0
M  END
$$$$
