FAH.pdb
     RDKit          3D

 27 28  0  0  1  0  0  0  0  0999 V2000
    5.4429  -18.5460   22.6224 N   0  0  0  0  0  0  0  0  0  0  0  0
    5.9790  -17.3066   23.1501 C   0  0  1  0  0  0  0  0  0  0  0  0
    6.0278  -17.4215   24.6580 C   0  0  0  0  0  0  0  0  0  0  0  0
    6.5233  -16.1463   25.1985 C   0  0  0  0  0  0  0  0  0  0  0  0
    7.6153  -16.1108   26.0282 C   0  0  0  0  0  0  0  0  0  0  0  0
    8.0976  -14.9120   26.5487 C   0  0  0  0  0  0  0  0  0  0  0  0
    7.4473  -13.7475   26.2092 C   0  0  0  0  0  0  0  0  0  0  0  0
    6.3305  -13.7425   25.3661 C   0  0  0  0  0  0  0  0  0  0  0  0
    5.8898  -14.9764   24.8723 C   0  0  0  0  0  0  0  0  0  0  0  0
    7.3281  -17.0198   22.5758 C   0  0  0  0  0  0  0  0  0  0  0  0
    8.2338  -17.8894   22.5240 O   0  0  0  0  0  0  0  0  0  0  0  0
    8.9350  -13.9969   20.8973 C   0  0  0  0  0  0  0  0  0  0  0  0
    8.9081  -15.3462   21.5312 C   0  0  2  0  0  0  0  0  0  0  0  0
    7.6362  -15.7325   22.0608 N   0  0  0  0  0  0  0  0  0  0  0  0
    9.9740  -15.4321   22.5722 C   0  0  0  0  0  0  0  0  0  0  0  0
   11.1811  -15.2056   22.3182 O   0  0  0  0  0  0  0  0  0  0  0  0
    9.6276  -15.7811   23.9012 N   0  0  0  0  0  0  0  0  0  0  0  0
   10.6583  -15.5708   24.9613 C   0  0  1  0  0  0  0  0  0  0  0  0
    9.9143  -14.8683   26.0597 C   0  0  0  0  0  0  0  0  0  0  0  0
   10.7251  -14.7767   27.2823 C   0  0  0  0  0  0  0  0  0  0  0  0
   12.0324  -15.0904   27.5672 C   0  0  0  0  0  0  0  0  0  0  0  0
   12.3444  -14.7510   28.8519 N   0  0  0  0  0  0  0  0  0  0  0  0
   11.2231  -14.2289   29.3453 C   0  0  0  0  0  0  0  0  0  0  0  0
   10.2462  -14.2317   28.4342 N   0  0  0  0  0  0  0  0  0  0  0  0
   10.9733  -16.9442   25.4848 C   0  0  0  0  0  0  0  0  0  0  0  0
   12.0038  -17.2207   26.3283 O   0  0  0  0  0  0  0  0  0  0  0  0
   10.2023  -17.8909   25.0936 O   0  0  0  0  0  0  0  0  0  0  0  0
  2  1  1  6
  3  4  1  0
  3  2  1  0
  4  5  2  0
  4  9  1  0
  5  6  1  0
  6  7  2  0
  8  7  1  0
  9  8  2  0
 10 11  2  0
 10  2  1  0
 13 12  1  1
 13 14  1  0
 14 10  1  0
 15 13  1  0
 15 17  1  0
 16 15  2  0
 18 17  1  0
 18 25  1  0
 18 19  1  1
 20 21  2  0
 20 19  1  0
 22 21  1  0
 23 24  2  0
 23 22  1  0
 24 20  1  0
 25 26  1  0
 27 25  2  0
M  END
$$$$
