FAH.pdb
     RDKit          3D

 27 28  0  0  1  0  0  0  0  0999 V2000
    7.9241  -16.6277   19.2184 N   0  0  0  0  0  0  0  0  0  0  0  0
    9.3199  -16.5773   19.6071 C   0  0  1  0  0  0  0  0  0  0  0  0
    9.7461  -15.1258   19.6363 C   0  0  0  0  0  0  0  0  0  0  0  0
    8.8014  -14.3883   20.4892 C   0  0  0  0  0  0  0  0  0  0  0  0
    7.6280  -13.8955   19.9769 C   0  0  0  0  0  0  0  0  0  0  0  0
    6.7225  -13.1951   20.7706 C   0  0  0  0  0  0  0  0  0  0  0  0
    7.0329  -13.0045   22.0978 C   0  0  0  0  0  0  0  0  0  0  0  0
    8.2194  -13.4916   22.6574 C   0  0  0  0  0  0  0  0  0  0  0  0
    9.0923  -14.1882   21.8128 C   0  0  0  0  0  0  0  0  0  0  0  0
    9.5313  -17.2398   20.9294 C   0  0  0  0  0  0  0  0  0  0  0  0
    8.5962  -17.4100   21.7516 O   0  0  0  0  0  0  0  0  0  0  0  0
   12.4177  -19.2251   22.3980 C   0  0  0  0  0  0  0  0  0  0  0  0
   11.0838  -18.5594   22.4251 C   0  0  2  0  0  0  0  0  0  0  0  0
   10.8183  -17.7071   21.3068 N   0  0  0  0  0  0  0  0  0  0  0  0
   10.9159  -17.8256   23.7137 C   0  0  0  0  0  0  0  0  0  0  0  0
   11.4978  -16.7398   23.9494 O   0  0  0  0  0  0  0  0  0  0  0  0
   10.0724  -18.3605   24.7188 N   0  0  0  0  0  0  0  0  0  0  0  0
    9.9910  -17.6245   26.0157 C   0  0  1  0  0  0  0  0  0  0  0  0
    8.5194  -17.5552   26.3046 C   0  0  0  0  0  0  0  0  0  0  0  0
    7.8991  -16.3948   25.6496 C   0  0  0  0  0  0  0  0  0  0  0  0
    8.4006  -15.3713   24.8817 C   0  0  0  0  0  0  0  0  0  0  0  0
    7.3963  -14.5610   24.4367 N   0  0  0  0  0  0  0  0  0  0  0  0
    6.2839  -15.0967   24.9355 C   0  0  0  0  0  0  0  0  0  0  0  0
    6.5538  -16.1865   25.6591 N   0  0  0  0  0  0  0  0  0  0  0  0
   10.5719  -18.5601   27.0388 C   0  0  0  0  0  0  0  0  0  0  0  0
   10.9704  -19.8322   26.7693 O   0  0  0  0  0  0  0  0  0  0  0  0
   10.6866  -18.0981   28.2292 O   0  0  0  0  0  0  0  0  0  0  0  0
  2  1  1  1
  3  4  1  0
  3  2  1  0
  4  5  2  0
  4  9  1  0
  5  6  1  0
  6  7  2  0
  8  7  1  0
  9  8  2  0
 10 11  2  0
 10  2  1  0
 13 12  1  6
 13 14  1  0
 14 10  1  0
 15 13  1  0
 15 17  1  0
 16 15  2  0
 18 17  1  0
 18 25  1  0
 18 19  1  1
 20 21  2  0
 20 19  1  0
 22 21  1  0
 23 24  2  0
 23 22  1  0
 24 20  1  0
 25 26  1  0
 27 25  2  0
M  END
$$$$
