DYY.pdb
     RDKit          3D

 33 34  0  0  1  0  0  0  0  0999 V2000
   10.3016  -17.6529   18.3024 N   0  0  0  0  0  0  0  0  0  0  0  0
    9.6766  -18.0244   19.5456 C   0  0  1  0  0  0  0  0  0  0  0  0
   10.3021  -19.2490   20.1633 C   0  0  0  0  0  0  0  0  0  0  0  0
   10.1209  -20.3827   19.2233 C   0  0  0  0  0  0  0  0  0  0  0  0
    8.9925  -20.8354   18.9361 O   0  0  0  0  0  0  0  0  0  0  0  0
    9.7457  -16.9099   20.5427 C   0  0  0  0  0  0  0  0  0  0  0  0
   10.6907  -16.0781   20.4851 O   0  0  0  0  0  0  0  0  0  0  0  0
   11.2173  -20.9968   18.6145 O   0  0  0  0  0  0  0  0  0  0  0  0
    6.0539  -11.6059   26.7170 O   0  0  0  0  0  0  0  0  0  0  0  0
    6.3840  -12.5539   25.7555 C   0  0  0  0  0  0  0  0  0  0  0  0
    6.0443  -13.8643   25.9800 C   0  0  0  0  0  0  0  0  0  0  0  0
    6.3689  -14.8032   25.0322 C   0  0  0  0  0  0  0  0  0  0  0  0
    7.0297  -14.4294   23.8674 C   0  0  0  0  0  0  0  0  0  0  0  0
    7.3614  -15.4842   22.9234 C   0  0  0  0  0  0  0  0  0  0  0  0
    8.7840  -15.5712   22.4666 C   0  0  2  0  0  0  0  0  0  0  0  0
    8.7948  -16.7430   21.5548 N   0  0  0  0  0  0  0  0  0  0  0  0
    9.7770  -15.8919   23.5049 C   0  0  0  0  0  0  0  0  0  0  0  0
   10.8258  -15.1658   23.6740 O   0  0  0  0  0  0  0  0  0  0  0  0
    7.3614  -13.1107   23.6606 C   0  0  0  0  0  0  0  0  0  0  0  0
    7.0376  -12.1792   24.6043 C   0  0  0  0  0  0  0  0  0  0  0  0
   10.5938  -12.4409   29.3335 O   0  0  0  0  0  0  0  0  0  0  0  0
   10.5718  -13.6785   28.6764 C   0  0  0  0  0  0  0  0  0  0  0  0
    9.4256  -14.4354   28.6951 C   0  0  0  0  0  0  0  0  0  0  0  0
    9.3833  -15.6540   28.0560 C   0  0  0  0  0  0  0  0  0  0  0  0
   10.4786  -16.1827   27.3661 C   0  0  0  0  0  0  0  0  0  0  0  0
   10.4237  -17.4922   26.6912 C   0  0  0  0  0  0  0  0  0  0  0  0
   10.8733  -17.3570   25.2488 C   0  0  2  0  0  0  0  0  0  0  0  0
    9.7071  -16.9906   24.4171 N   0  0  0  0  0  0  0  0  0  0  0  0
   11.3745  -18.6456   24.7848 C   0  0  0  0  0  0  0  0  0  0  0  0
   12.4445  -19.1634   25.1936 O   0  0  0  0  0  0  0  0  0  0  0  0
   11.6202  -15.3899   27.3683 C   0  0  0  0  0  0  0  0  0  0  0  0
   11.6644  -14.1698   28.0071 C   0  0  0  0  0  0  0  0  0  0  0  0
   10.6683  -19.3720   23.8479 O   0  0  0  0  0  0  0  0  0  0  0  0
  2  1  1  6
  2  3  1  0
  4  8  1  0
  4  3  1  0
  5  4  2  0
  6 16  1  0
  6  2  1  0
  7  6  2  0
  9 10  1  0
 10 11  2  0
 11 12  1  0
 13 12  2  0
 13 14  1  0
 15 14  1  1
 15 16  1  0
 17 28  1  0
 17 15  1  0
 18 17  2  0
 19 13  1  0
 20 10  1  0
 20 19  2  0
 21 22  1  0
 22 23  2  0
 23 24  1  0
 25 24  2  0
 25 26  1  0
 27 26  1  1
 27 29  1  0
 27 28  1  0
 29 33  1  0
 30 29  2  0
 31 25  1  0
 32 22  1  0
 32 31  2  0
M  END
$$$$
