DYY.pdb
     RDKit          3D

 33 34  0  0  1  0  0  0  0  0999 V2000
    9.2641  -18.6381   20.3491 N   0  0  0  0  0  0  0  0  0  0  0  0
   10.3738  -17.8543   19.8711 C   0  0  1  0  0  0  0  0  0  0  0  0
   10.4181  -17.7734   18.3665 C   0  0  0  0  0  0  0  0  0  0  0  0
   10.9030  -19.0768   17.8491 C   0  0  0  0  0  0  0  0  0  0  0  0
   10.3961  -19.6257   16.8479 O   0  0  0  0  0  0  0  0  0  0  0  0
   10.3277  -16.4599   20.4138 C   0  0  0  0  0  0  0  0  0  0  0  0
   11.2462  -15.6467   20.1249 O   0  0  0  0  0  0  0  0  0  0  0  0
   11.9581  -19.7505   18.4677 O   0  0  0  0  0  0  0  0  0  0  0  0
    6.6286  -13.7664   15.9200 O   0  0  0  0  0  0  0  0  0  0  0  0
    6.9440  -13.8468   17.2714 C   0  0  0  0  0  0  0  0  0  0  0  0
    6.6614  -15.0084   17.9449 C   0  0  0  0  0  0  0  0  0  0  0  0
    6.9717  -15.0910   19.2797 C   0  0  0  0  0  0  0  0  0  0  0  0
    7.5616  -14.0153   19.9340 C   0  0  0  0  0  0  0  0  0  0  0  0
    7.8371  -14.1700   21.3531 C   0  0  0  0  0  0  0  0  0  0  0  0
    9.2149  -14.6094   21.7387 C   0  0  2  0  0  0  0  0  0  0  0  0
    9.2959  -16.0064   21.2419 N   0  0  0  0  0  0  0  0  0  0  0  0
    9.4807  -14.7069   23.1834 C   0  0  0  0  0  0  0  0  0  0  0  0
    8.8622  -13.9596   24.0288 O   0  0  0  0  0  0  0  0  0  0  0  0
    7.8374  -12.8595   19.2413 C   0  0  0  0  0  0  0  0  0  0  0  0
    7.5279  -12.7798   17.9144 C   0  0  0  0  0  0  0  0  0  0  0  0
   10.5528  -15.1562   31.6214 O   0  0  0  0  0  0  0  0  0  0  0  0
   10.2876  -15.3042   30.2533 C   0  0  0  0  0  0  0  0  0  0  0  0
   10.0780  -14.1891   29.4791 C   0  0  0  0  0  0  0  0  0  0  0  0
    9.8159  -14.3127   28.1333 C   0  0  0  0  0  0  0  0  0  0  0  0
    9.7483  -15.5516   27.4885 C   0  0  0  0  0  0  0  0  0  0  0  0
    9.4600  -15.6721   26.0477 C   0  0  0  0  0  0  0  0  0  0  0  0
   10.7299  -15.4768   25.2415 C   0  0  2  0  0  0  0  0  0  0  0  0
   10.4075  -15.6013   23.8040 N   0  0  0  0  0  0  0  0  0  0  0  0
   11.6782  -16.5299   25.5865 C   0  0  0  0  0  0  0  0  0  0  0  0
   12.5611  -16.4072   26.4729 O   0  0  0  0  0  0  0  0  0  0  0  0
    9.9655  -16.6570   28.3025 C   0  0  0  0  0  0  0  0  0  0  0  0
   10.2283  -16.5352   29.6497 C   0  0  0  0  0  0  0  0  0  0  0  0
   11.6404  -17.7439   24.9318 O   0  0  0  0  0  0  0  0  0  0  0  0
  2  1  1  6
  2  3  1  0
  4  8  1  0
  4  3  1  0
  5  4  2  0
  6 16  1  0
  6  2  1  0
  7  6  2  0
  9 10  1  0
 10 11  2  0
 11 12  1  0
 13 12  2  0
 13 14  1  0
 15 14  1  1
 15 16  1  0
 17 28  1  0
 17 15  1  0
 18 17  2  0
 19 13  1  0
 20 10  1  0
 20 19  2  0
 21 22  1  0
 22 23  2  0
 23 24  1  0
 25 24  2  0
 25 26  1  0
 27 26  1  1
 27 29  1  0
 27 28  1  0
 29 33  1  0
 30 29  2  0
 31 25  1  0
 32 22  1  0
 32 31  2  0
M  END
$$$$
