DYY.pdb
     RDKit          3D

 33 34  0  0  1  0  0  0  0  0999 V2000
   10.1425  -18.3269   19.0513 N   0  0  0  0  0  0  0  0  0  0  0  0
   10.7462  -17.0199   19.0115 C   0  0  1  0  0  0  0  0  0  0  0  0
   10.3143  -16.2205   17.8087 C   0  0  0  0  0  0  0  0  0  0  0  0
   10.7925  -16.9234   16.5925 C   0  0  0  0  0  0  0  0  0  0  0  0
   10.1723  -16.8758   15.5091 O   0  0  0  0  0  0  0  0  0  0  0  0
   10.4164  -16.2315   20.2406 C   0  0  0  0  0  0  0  0  0  0  0  0
   10.9619  -15.1111   20.4289 O   0  0  0  0  0  0  0  0  0  0  0  0
   11.9690  -17.6752   16.6100 O   0  0  0  0  0  0  0  0  0  0  0  0
    5.4335  -12.6961   26.4688 O   0  0  0  0  0  0  0  0  0  0  0  0
    6.0006  -13.5075   25.4929 C   0  0  0  0  0  0  0  0  0  0  0  0
    6.7526  -12.9218   24.5059 C   0  0  0  0  0  0  0  0  0  0  0  0
    7.3140  -13.7204   23.5405 C   0  0  0  0  0  0  0  0  0  0  0  0
    7.1221  -15.0972   23.5657 C   0  0  0  0  0  0  0  0  0  0  0  0
    7.7275  -15.8728   22.4953 C   0  0  0  0  0  0  0  0  0  0  0  0
    9.2224  -15.9330   22.4550 C   0  0  2  0  0  0  0  0  0  0  0  0
    9.5156  -16.6860   21.2092 N   0  0  0  0  0  0  0  0  0  0  0  0
    9.8663  -16.7108   23.5262 C   0  0  0  0  0  0  0  0  0  0  0  0
   10.8188  -17.5378   23.2719 O   0  0  0  0  0  0  0  0  0  0  0  0
    6.3651  -15.6655   24.5636 C   0  0  0  0  0  0  0  0  0  0  0  0
    5.8080  -14.8695   25.5221 C   0  0  0  0  0  0  0  0  0  0  0  0
   11.0355  -11.8830   28.7083 O   0  0  0  0  0  0  0  0  0  0  0  0
   10.6814  -13.1913   28.3518 C   0  0  0  0  0  0  0  0  0  0  0  0
   11.5762  -14.2140   28.5524 C   0  0  0  0  0  0  0  0  0  0  0  0
   11.2480  -15.5061   28.2090 C   0  0  0  0  0  0  0  0  0  0  0  0
   10.0135  -15.8473   27.6481 C   0  0  0  0  0  0  0  0  0  0  0  0
    9.6756  -17.2338   27.2778 C   0  0  0  0  0  0  0  0  0  0  0  0
   10.1980  -17.5467   25.8885 C   0  0  2  0  0  0  0  0  0  0  0  0
    9.5391  -16.6483   24.9166 N   0  0  0  0  0  0  0  0  0  0  0  0
    9.8463  -18.9204   25.5472 C   0  0  0  0  0  0  0  0  0  0  0  0
   10.5814  -19.9089   25.7978 O   0  0  0  0  0  0  0  0  0  0  0  0
    9.1339  -14.7878   27.4598 C   0  0  0  0  0  0  0  0  0  0  0  0
    9.4606  -13.4939   27.8032 C   0  0  0  0  0  0  0  0  0  0  0  0
    8.6513  -19.1977   24.9155 O   0  0  0  0  0  0  0  0  0  0  0  0
  2  1  1  1
  2  3  1  0
  4  8  1  0
  4  3  1  0
  5  4  2  0
  6 16  1  0
  6  2  1  0
  7  6  2  0
  9 10  1  0
 10 11  2  0
 11 12  1  0
 13 12  2  0
 13 14  1  0
 15 14  1  1
 15 16  1  0
 17 28  1  0
 17 15  1  0
 18 17  2  0
 19 13  1  0
 20 10  1  0
 20 19  2  0
 21 22  1  0
 22 23  2  0
 23 24  1  0
 25 24  2  0
 25 26  1  0
 27 26  1  1
 27 29  1  0
 27 28  1  0
 29 33  1  0
 30 29  2  0
 31 25  1  0
 32 22  1  0
 32 31  2  0
M  END
$$$$
