DYY.pdb
     RDKit          3D

 33 34  0  0  1  0  0  0  0  0999 V2000
    8.9548  -18.5924   20.4746 N   0  0  0  0  0  0  0  0  0  0  0  0
   10.2296  -17.9675   20.2323 C   0  0  1  0  0  0  0  0  0  0  0  0
   10.4627  -17.6782   18.7714 C   0  0  0  0  0  0  0  0  0  0  0  0
   10.6046  -18.9738   18.0622 C   0  0  0  0  0  0  0  0  0  0  0  0
   10.6068  -20.0669   18.6669 O   0  0  0  0  0  0  0  0  0  0  0  0
   10.3577  -16.6829   20.9903 C   0  0  0  0  0  0  0  0  0  0  0  0
   11.4313  -16.0257   20.9283 O   0  0  0  0  0  0  0  0  0  0  0  0
   10.7429  -19.0241   16.6736 O   0  0  0  0  0  0  0  0  0  0  0  0
    7.2622  -13.0778   16.7633 O   0  0  0  0  0  0  0  0  0  0  0  0
    7.4661  -13.3676   18.1074 C   0  0  0  0  0  0  0  0  0  0  0  0
    8.1621  -12.4688   18.8758 C   0  0  0  0  0  0  0  0  0  0  0  0
    8.3652  -12.7520   20.2038 C   0  0  0  0  0  0  0  0  0  0  0  0
    7.8732  -13.9290   20.7566 C   0  0  0  0  0  0  0  0  0  0  0  0
    8.1504  -14.1698   22.1634 C   0  0  0  0  0  0  0  0  0  0  0  0
    9.4293  -14.8714   22.4985 C   0  0  2  0  0  0  0  0  0  0  0  0
    9.3248  -16.1662   21.7792 N   0  0  0  0  0  0  0  0  0  0  0  0
    9.6127  -15.2390   23.9121 C   0  0  0  0  0  0  0  0  0  0  0  0
   10.3109  -14.5075   24.7079 O   0  0  0  0  0  0  0  0  0  0  0  0
    7.1777  -14.8173   19.9699 C   0  0  0  0  0  0  0  0  0  0  0  0
    6.9771  -14.5335   18.6500 C   0  0  0  0  0  0  0  0  0  0  0  0
    6.3718  -10.9412   27.0310 O   0  0  0  0  0  0  0  0  0  0  0  0
    6.7048  -12.2986   26.9288 C   0  0  0  0  0  0  0  0  0  0  0  0
    7.9429  -12.7258   27.3430 C   0  0  0  0  0  0  0  0  0  0  0  0
    8.2898  -14.0548   27.2509 C   0  0  0  0  0  0  0  0  0  0  0  0
    7.4235  -15.0271   26.7418 C   0  0  0  0  0  0  0  0  0  0  0  0
    7.8085  -16.4467   26.6416 C   0  0  0  0  0  0  0  0  0  0  0  0
    9.1847  -16.5730   26.0161 C   0  0  2  0  0  0  0  0  0  0  0  0
    9.0634  -16.3926   24.5537 N   0  0  0  0  0  0  0  0  0  0  0  0
    9.6988  -17.9147   26.2665 C   0  0  0  0  0  0  0  0  0  0  0  0
    9.8641  -18.3921   27.4175 O   0  0  0  0  0  0  0  0  0  0  0  0
    6.1804  -14.5590   26.3328 C   0  0  0  0  0  0  0  0  0  0  0  0
    5.8313  -13.2291   26.4245 C   0  0  0  0  0  0  0  0  0  0  0  0
   10.0339  -18.7407   25.2132 O   0  0  0  0  0  0  0  0  0  0  0  0
  2  1  1  6
  2  3  1  0
  4  8  1  0
  4  3  1  0
  5  4  2  0
  6 16  1  0
  6  2  1  0
  7  6  2  0
  9 10  1  0
 10 11  2  0
 11 12  1  0
 13 12  2  0
 13 14  1  0
 15 14  1  1
 15 16  1  0
 17 28  1  0
 17 15  1  0
 18 17  2  0
 19 13  1  0
 20 10  1  0
 20 19  2  0
 21 22  1  0
 22 23  2  0
 23 24  1  0
 25 24  2  0
 25 26  1  0
 27 26  1  1
 27 29  1  0
 27 28  1  0
 29 33  1  0
 30 29  2  0
 31 25  1  0
 32 22  1  0
 32 31  2  0
M  END
$$$$
