DYY.pdb
     RDKit          3D

 33 34  0  0  1  0  0  0  0  0999 V2000
    9.2842  -18.5879   19.5589 N   0  0  0  0  0  0  0  0  0  0  0  0
    8.8402  -18.3434   20.9070 C   0  0  1  0  0  0  0  0  0  0  0  0
    9.2921  -19.4141   21.8671 C   0  0  0  0  0  0  0  0  0  0  0  0
    8.7742  -20.7170   21.3812 C   0  0  0  0  0  0  0  0  0  0  0  0
    8.1515  -20.8256   20.3036 O   0  0  0  0  0  0  0  0  0  0  0  0
    9.3350  -17.0235   21.4110 C   0  0  0  0  0  0  0  0  0  0  0  0
   10.5380  -16.6960   21.2271 O   0  0  0  0  0  0  0  0  0  0  0  0
    8.9643  -21.8882   22.1173 O   0  0  0  0  0  0  0  0  0  0  0  0
    7.5508  -12.8355   16.7659 O   0  0  0  0  0  0  0  0  0  0  0  0
    7.6948  -13.0727   18.1279 C   0  0  0  0  0  0  0  0  0  0  0  0
    6.7865  -13.8893   18.7531 C   0  0  0  0  0  0  0  0  0  0  0  0
    6.9260  -14.1255   20.0983 C   0  0  0  0  0  0  0  0  0  0  0  0
    7.9700  -13.5465   20.8110 C   0  0  0  0  0  0  0  0  0  0  0  0
    8.0364  -13.8240   22.2366 C   0  0  0  0  0  0  0  0  0  0  0  0
    9.0201  -14.8579   22.6874 C   0  0  2  0  0  0  0  0  0  0  0  0
    8.5121  -16.1184   22.0892 N   0  0  0  0  0  0  0  0  0  0  0  0
    9.0645  -15.1187   24.1356 C   0  0  0  0  0  0  0  0  0  0  0  0
    8.8751  -14.1761   24.9907 O   0  0  0  0  0  0  0  0  0  0  0  0
    8.8706  -12.7311   20.1662 C   0  0  0  0  0  0  0  0  0  0  0  0
    8.7297  -12.4976   18.8288 C   0  0  0  0  0  0  0  0  0  0  0  0
    6.3906  -10.8832   26.9520 O   0  0  0  0  0  0  0  0  0  0  0  0
    6.7171  -12.2437   26.8711 C   0  0  0  0  0  0  0  0  0  0  0  0
    7.8709  -12.6999   27.4605 C   0  0  0  0  0  0  0  0  0  0  0  0
    8.2099  -14.0324   27.3924 C   0  0  0  0  0  0  0  0  0  0  0  0
    7.4193  -14.9794   26.7344 C   0  0  0  0  0  0  0  0  0  0  0  0
    7.7960  -16.4029   26.6620 C   0  0  0  0  0  0  0  0  0  0  0  0
    9.2400  -16.5404   26.2182 C   0  0  2  0  0  0  0  0  0  0  0  0
    9.3052  -16.3875   24.7491 N   0  0  0  0  0  0  0  0  0  0  0  0
    9.7157  -17.8769   26.5567 C   0  0  0  0  0  0  0  0  0  0  0  0
    9.8208  -18.2993   27.7360 O   0  0  0  0  0  0  0  0  0  0  0  0
    6.2602  -14.4822   26.1503 C   0  0  0  0  0  0  0  0  0  0  0  0
    5.9191  -13.1488   26.2177 C   0  0  0  0  0  0  0  0  0  0  0  0
   10.0799  -18.7602   25.5612 O   0  0  0  0  0  0  0  0  0  0  0  0
  2  1  1  6
  2  3  1  0
  4  8  1  0
  4  3  1  0
  5  4  2  0
  6 16  1  0
  6  2  1  0
  7  6  2  0
  9 10  1  0
 10 11  2  0
 11 12  1  0
 13 12  2  0
 13 14  1  0
 15 14  1  1
 15 16  1  0
 17 28  1  0
 17 15  1  0
 18 17  2  0
 19 13  1  0
 20 10  1  0
 20 19  2  0
 21 22  1  0
 22 23  2  0
 23 24  1  0
 25 24  2  0
 25 26  1  0
 27 26  1  6
 27 29  1  0
 27 28  1  0
 29 33  1  0
 30 29  2  0
 31 25  1  0
 32 22  1  0
 32 31  2  0
M  END
$$$$
