DYY.pdb
     RDKit          3D

 33 34  0  0  1  0  0  0  0  0999 V2000
    9.4579  -16.3449   18.8903 N   0  0  0  0  0  0  0  0  0  0  0  0
    8.7625  -15.2397   19.4979 C   0  0  1  0  0  0  0  0  0  0  0  0
    7.5945  -14.7670   18.6704 C   0  0  0  0  0  0  0  0  0  0  0  0
    7.7787  -15.2670   17.2856 C   0  0  0  0  0  0  0  0  0  0  0  0
    8.4429  -16.2943   17.0316 O   0  0  0  0  0  0  0  0  0  0  0  0
    8.2562  -15.5992   20.8601 C   0  0  0  0  0  0  0  0  0  0  0  0
    7.5529  -14.7741   21.5027 O   0  0  0  0  0  0  0  0  0  0  0  0
    7.2105  -14.6018   16.1973 O   0  0  0  0  0  0  0  0  0  0  0  0
    7.7711  -21.1423   27.8726 O   0  0  0  0  0  0  0  0  0  0  0  0
    7.8699  -20.5136   26.6368 C   0  0  0  0  0  0  0  0  0  0  0  0
    6.7173  -20.1198   26.0050 C   0  0  0  0  0  0  0  0  0  0  0  0
    6.8115  -19.4986   24.7843 C   0  0  0  0  0  0  0  0  0  0  0  0
    8.0539  -19.2740   24.2019 C   0  0  0  0  0  0  0  0  0  0  0  0
    8.0705  -18.6334   22.8969 C   0  0  0  0  0  0  0  0  0  0  0  0
    8.1539  -17.1393   22.8690 C   0  0  2  0  0  0  0  0  0  0  0  0
    8.5307  -16.8292   21.4666 N   0  0  0  0  0  0  0  0  0  0  0  0
    9.2188  -16.5368   23.6876 C   0  0  0  0  0  0  0  0  0  0  0  0
   10.4353  -16.4876   23.2711 O   0  0  0  0  0  0  0  0  0  0  0  0
    9.1979  -19.6759   24.8511 C   0  0  0  0  0  0  0  0  0  0  0  0
    9.1016  -20.2934   26.0645 C   0  0  0  0  0  0  0  0  0  0  0  0
    5.2337  -11.8305   27.4420 O   0  0  0  0  0  0  0  0  0  0  0  0
    6.4529  -12.3586   26.9965 C   0  0  0  0  0  0  0  0  0  0  0  0
    7.5556  -12.3004   27.8135 C   0  0  0  0  0  0  0  0  0  0  0  0
    8.7626  -12.8133   27.3948 C   0  0  0  0  0  0  0  0  0  0  0  0
    8.9350  -13.4099   26.1420 C   0  0  0  0  0  0  0  0  0  0  0  0
   10.2343  -13.9496   25.7015 C   0  0  0  0  0  0  0  0  0  0  0  0
   10.2147  -15.4656   25.7492 C   0  0  2  0  0  0  0  0  0  0  0  0
    9.0489  -15.9529   24.9816 N   0  0  0  0  0  0  0  0  0  0  0  0
   10.0577  -15.8952   27.1340 C   0  0  0  0  0  0  0  0  0  0  0  0
    9.0291  -16.4708   27.5709 O   0  0  0  0  0  0  0  0  0  0  0  0
    7.7986  -13.4512   25.3428 C   0  0  0  0  0  0  0  0  0  0  0  0
    6.5896  -12.9386   25.7604 C   0  0  0  0  0  0  0  0  0  0  0  0
   11.0676  -15.6803   28.0495 O   0  0  0  0  0  0  0  0  0  0  0  0
  2  1  1  6
  2  3  1  0
  4  8  1  0
  4  3  1  0
  5  4  2  0
  6 16  1  0
  6  2  1  0
  7  6  2  0
  9 10  1  0
 10 11  2  0
 11 12  1  0
 13 12  2  0
 13 14  1  0
 15 14  1  6
 15 16  1  0
 17 28  1  0
 17 15  1  0
 18 17  2  0
 19 13  1  0
 20 10  1  0
 20 19  2  0
 21 22  1  0
 22 23  2  0
 23 24  1  0
 25 24  2  0
 25 26  1  0
 27 26  1  1
 27 29  1  0
 27 28  1  0
 29 33  1  0
 30 29  2  0
 31 25  1  0
 32 22  1  0
 32 31  2  0
M  END
$$$$
