DYY.pdb
     RDKit          3D

 33 34  0  0  1  0  0  0  0  0999 V2000
    8.6946  -18.7718   20.6124 N   0  0  0  0  0  0  0  0  0  0  0  0
    9.8399  -18.1044   20.0493 C   0  0  1  0  0  0  0  0  0  0  0  0
    9.8614  -18.1654   18.5433 C   0  0  0  0  0  0  0  0  0  0  0  0
    9.7013  -19.5836   18.1373 C   0  0  0  0  0  0  0  0  0  0  0  0
    9.7900  -20.5241   18.9549 O   0  0  0  0  0  0  0  0  0  0  0  0
    9.8869  -16.6657   20.4604 C   0  0  0  0  0  0  0  0  0  0  0  0
   10.8449  -15.9392   20.0826 O   0  0  0  0  0  0  0  0  0  0  0  0
    9.4420  -19.9284   16.8093 O   0  0  0  0  0  0  0  0  0  0  0  0
    6.6382  -13.4103   15.9708 O   0  0  0  0  0  0  0  0  0  0  0  0
    6.8826  -13.5955   17.3266 C   0  0  0  0  0  0  0  0  0  0  0  0
    7.4941  -12.5875   18.0285 C   0  0  0  0  0  0  0  0  0  0  0  0
    7.7370  -12.7674   19.3678 C   0  0  0  0  0  0  0  0  0  0  0  0
    7.3685  -13.9506   19.9982 C   0  0  0  0  0  0  0  0  0  0  0  0
    7.6816  -14.0761   21.4124 C   0  0  0  0  0  0  0  0  0  0  0  0
    9.0008  -14.6861   21.7696 C   0  0  2  0  0  0  0  0  0  0  0  0
    8.9009  -16.0767   21.2586 N   0  0  0  0  0  0  0  0  0  0  0  0
    9.2762  -14.8319   23.2084 C   0  0  0  0  0  0  0  0  0  0  0  0
    8.6290  -14.1480   24.0855 O   0  0  0  0  0  0  0  0  0  0  0  0
    6.7562  -14.9492   19.2773 C   0  0  0  0  0  0  0  0  0  0  0  0
    6.5159  -14.7681   17.9461 C   0  0  0  0  0  0  0  0  0  0  0  0
   10.9310  -15.3618   31.5761 O   0  0  0  0  0  0  0  0  0  0  0  0
   10.5583  -15.4142   30.2262 C   0  0  0  0  0  0  0  0  0  0  0  0
   10.4113  -16.6333   29.6106 C   0  0  0  0  0  0  0  0  0  0  0  0
   10.0460  -16.7067   28.2853 C   0  0  0  0  0  0  0  0  0  0  0  0
    9.8086  -15.5715   27.5042 C   0  0  0  0  0  0  0  0  0  0  0  0
    9.4245  -15.6622   26.0837 C   0  0  0  0  0  0  0  0  0  0  0  0
   10.6534  -15.5539   25.2012 C   0  0  2  0  0  0  0  0  0  0  0  0
   10.2433  -15.7101   23.7893 N   0  0  0  0  0  0  0  0  0  0  0  0
   11.5711  -16.6389   25.5296 C   0  0  0  0  0  0  0  0  0  0  0  0
   11.5070  -17.7836   25.0140 O   0  0  0  0  0  0  0  0  0  0  0  0
    9.9666  -14.3562   28.1598 C   0  0  0  0  0  0  0  0  0  0  0  0
   10.3319  -14.2809   29.4863 C   0  0  0  0  0  0  0  0  0  0  0  0
   12.5808  -16.4436   26.4496 O   0  0  0  0  0  0  0  0  0  0  0  0
  2  1  1  6
  2  3  1  0
  4  8  1  0
  4  3  1  0
  5  4  2  0
  6 16  1  0
  6  2  1  0
  7  6  2  0
  9 10  1  0
 10 11  2  0
 11 12  1  0
 13 12  2  0
 13 14  1  0
 15 14  1  1
 15 16  1  0
 17 28  1  0
 17 15  1  0
 18 17  2  0
 19 13  1  0
 20 10  1  0
 20 19  2  0
 21 22  1  0
 22 23  2  0
 23 24  1  0
 25 24  2  0
 25 26  1  0
 27 26  1  1
 27 29  1  0
 27 28  1  0
 29 33  1  0
 30 29  2  0
 31 25  1  0
 32 22  1  0
 32 31  2  0
M  END
$$$$
