DYY.pdb
     RDKit          3D

 33 34  0  0  1  0  0  0  0  0999 V2000
   12.5348  -15.6545   16.1462 N   0  0  0  0  0  0  0  0  0  0  0  0
   13.7408  -16.3775   15.8347 C   0  0  1  0  0  0  0  0  0  0  0  0
   14.3127  -15.9962   14.4931 C   0  0  0  0  0  0  0  0  0  0  0  0
   13.3070  -16.3261   13.4531 C   0  0  0  0  0  0  0  0  0  0  0  0
   12.3768  -17.1341   13.6593 O   0  0  0  0  0  0  0  0  0  0  0  0
   14.7940  -16.1507   16.8742 C   0  0  0  0  0  0  0  0  0  0  0  0
   15.9122  -16.7218   16.7652 O   0  0  0  0  0  0  0  0  0  0  0  0
   13.3604  -15.7397   12.1870 O   0  0  0  0  0  0  0  0  0  0  0  0
   19.1096  -11.2127   15.2713 O   0  0  0  0  0  0  0  0  0  0  0  0
   18.2505  -11.7828   16.2035 C   0  0  0  0  0  0  0  0  0  0  0  0
   18.7832  -12.5661   17.1962 C   0  0  0  0  0  0  0  0  0  0  0  0
   17.9373  -13.1307   18.1185 C   0  0  0  0  0  0  0  0  0  0  0  0
   16.5665  -12.9106   18.0451 C   0  0  0  0  0  0  0  0  0  0  0  0
   15.7338  -13.5629   19.0426 C   0  0  0  0  0  0  0  0  0  0  0  0
   15.6493  -15.0563   18.9929 C   0  0  2  0  0  0  0  0  0  0  0  0
   14.5944  -15.3204   17.9818 N   0  0  0  0  0  0  0  0  0  0  0  0
   15.1709  -15.7170   20.2184 C   0  0  0  0  0  0  0  0  0  0  0  0
   14.2214  -15.2104   20.9239 O   0  0  0  0  0  0  0  0  0  0  0  0
   16.0517  -12.1221   17.0426 C   0  0  0  0  0  0  0  0  0  0  0  0
   16.8946  -11.5619   16.1268 C   0  0  0  0  0  0  0  0  0  0  0  0
    9.9738  -18.1103   18.1968 O   0  0  0  0  0  0  0  0  0  0  0  0
   11.0618  -18.2875   19.0623 C   0  0  0  0  0  0  0  0  0  0  0  0
   12.2934  -18.6086   18.5456 C   0  0  0  0  0  0  0  0  0  0  0  0
   13.3749  -18.7871   19.3786 C   0  0  0  0  0  0  0  0  0  0  0  0
   13.2869  -18.6560   20.7679 C   0  0  0  0  0  0  0  0  0  0  0  0
   14.4506  -18.8563   21.6507 C   0  0  0  0  0  0  0  0  0  0  0  0
   15.0890  -17.5219   21.9862 C   0  0  2  0  0  0  0  0  0  0  0  0
   15.6682  -16.9458   20.7538 N   0  0  0  0  0  0  0  0  0  0  0  0
   16.1726  -17.7397   22.9378 C   0  0  0  0  0  0  0  0  0  0  0  0
   16.0036  -18.2278   24.0839 O   0  0  0  0  0  0  0  0  0  0  0  0
   12.0264  -18.3306   21.2548 C   0  0  0  0  0  0  0  0  0  0  0  0
   10.9429  -18.1512   20.4226 C   0  0  0  0  0  0  0  0  0  0  0  0
   17.4700  -17.4084   22.6048 O   0  0  0  0  0  0  0  0  0  0  0  0
  2  1  1  1
  2  3  1  0
  4  8  1  0
  4  3  1  0
  5  4  2  0
  6 16  1  0
  6  2  1  0
  7  6  2  0
  9 10  1  0
 10 11  2  0
 11 12  1  0
 13 12  2  0
 13 14  1  0
 15 14  1  1
 15 16  1  0
 17 28  1  0
 17 15  1  0
 18 17  2  0
 19 13  1  0
 20 10  1  0
 20 19  2  0
 21 22  1  0
 22 23  2  0
 23 24  1  0
 25 24  2  0
 25 26  1  0
 27 26  1  6
 27 29  1  0
 27 28  1  0
 29 33  1  0
 30 29  2  0
 31 25  1  0
 32 22  1  0
 32 31  2  0
M  END
$$$$
