DYY.pdb
     RDKit          3D

 33 34  0  0  1  0  0  0  0  0999 V2000
    8.8951  -18.4774   19.7257 N   0  0  0  0  0  0  0  0  0  0  0  0
   10.1607  -17.7900   19.7318 C   0  0  1  0  0  0  0  0  0  0  0  0
   10.5412  -17.2682   18.3697 C   0  0  0  0  0  0  0  0  0  0  0  0
   10.4600  -18.3935   17.4061 C   0  0  0  0  0  0  0  0  0  0  0  0
    9.5211  -18.5040   16.5893 O   0  0  0  0  0  0  0  0  0  0  0  0
   10.1487  -16.6381   20.6879 C   0  0  0  0  0  0  0  0  0  0  0  0
   11.1514  -15.8783   20.7628 O   0  0  0  0  0  0  0  0  0  0  0  0
   11.4412  -19.3864   17.3728 O   0  0  0  0  0  0  0  0  0  0  0  0
    6.2096  -11.5573   26.9001 O   0  0  0  0  0  0  0  0  0  0  0  0
    6.5488  -12.4327   25.8750 C   0  0  0  0  0  0  0  0  0  0  0  0
    7.0238  -11.9138   24.6969 C   0  0  0  0  0  0  0  0  0  0  0  0
    7.3596  -12.7759   23.6825 C   0  0  0  0  0  0  0  0  0  0  0  0
    7.2199  -14.1491   23.8494 C   0  0  0  0  0  0  0  0  0  0  0  0
    7.5725  -14.9954   22.7211 C   0  0  0  0  0  0  0  0  0  0  0  0
    9.0298  -15.2025   22.4501 C   0  0  2  0  0  0  0  0  0  0  0  0
    9.0586  -16.3583   21.5183 N   0  0  0  0  0  0  0  0  0  0  0  0
    9.8467  -15.6245   23.5998 C   0  0  0  0  0  0  0  0  0  0  0  0
   10.0930  -14.8221   24.5752 O   0  0  0  0  0  0  0  0  0  0  0  0
    6.7423  -14.6499   25.0380 C   0  0  0  0  0  0  0  0  0  0  0  0
    6.4090  -13.7909   26.0450 C   0  0  0  0  0  0  0  0  0  0  0  0
   10.3158  -13.6355   30.2659 O   0  0  0  0  0  0  0  0  0  0  0  0
   10.1879  -14.5598   29.2204 C   0  0  0  0  0  0  0  0  0  0  0  0
   10.2446  -15.9047   29.4941 C   0  0  0  0  0  0  0  0  0  0  0  0
   10.1213  -16.8291   28.4814 C   0  0  0  0  0  0  0  0  0  0  0  0
    9.9359  -16.4634   27.1446 C   0  0  0  0  0  0  0  0  0  0  0  0
    9.8121  -17.4623   26.0673 C   0  0  0  0  0  0  0  0  0  0  0  0
   10.9674  -17.3280   25.0936 C   0  0  2  0  0  0  0  0  0  0  0  0
   10.4371  -16.9145   23.7769 N   0  0  0  0  0  0  0  0  0  0  0  0
   11.6093  -18.6281   24.9360 C   0  0  0  0  0  0  0  0  0  0  0  0
   11.4460  -19.3669   23.9321 O   0  0  0  0  0  0  0  0  0  0  0  0
    9.8834  -15.0953   26.9052 C   0  0  0  0  0  0  0  0  0  0  0  0
   10.0063  -14.1687   27.9176 C   0  0  0  0  0  0  0  0  0  0  0  0
   12.4508  -19.1135   25.9160 O   0  0  0  0  0  0  0  0  0  0  0  0
  2  1  1  6
  2  3  1  0
  4  8  1  0
  4  3  1  0
  5  4  2  0
  6 16  1  0
  6  2  1  0
  7  6  2  0
  9 10  1  0
 10 11  2  0
 11 12  1  0
 13 12  2  0
 13 14  1  0
 15 14  1  1
 15 16  1  0
 17 28  1  0
 17 15  1  0
 18 17  2  0
 19 13  1  0
 20 10  1  0
 20 19  2  0
 21 22  1  0
 22 23  2  0
 23 24  1  0
 25 24  2  0
 25 26  1  0
 27 26  1  1
 27 29  1  0
 27 28  1  0
 29 33  1  0
 30 29  2  0
 31 25  1  0
 32 22  1  0
 32 31  2  0
M  END
$$$$
