DYY.pdb
     RDKit          3D

 33 34  0  0  1  0  0  0  0  0999 V2000
   10.2801  -18.0514   21.1108 N   0  0  0  0  0  0  0  0  0  0  0  0
    9.1264  -17.1946   21.2064 C   0  0  1  0  0  0  0  0  0  0  0  0
    8.0402  -17.5778   20.2340 C   0  0  0  0  0  0  0  0  0  0  0  0
    8.6311  -17.6122   18.8734 C   0  0  0  0  0  0  0  0  0  0  0  0
    9.8533  -17.4470   18.6741 O   0  0  0  0  0  0  0  0  0  0  0  0
    8.5475  -17.2149   22.5868 C   0  0  0  0  0  0  0  0  0  0  0  0
    7.4745  -16.5975   22.8231 O   0  0  0  0  0  0  0  0  0  0  0  0
    7.8356  -17.8332   17.7472 O   0  0  0  0  0  0  0  0  0  0  0  0
    4.7955  -22.7496   22.9522 O   0  0  0  0  0  0  0  0  0  0  0  0
    5.7196  -21.9073   23.5593 C   0  0  0  0  0  0  0  0  0  0  0  0
    7.0066  -21.8908   23.0837 C   0  0  0  0  0  0  0  0  0  0  0  0
    7.9218  -21.0599   23.6812 C   0  0  0  0  0  0  0  0  0  0  0  0
    7.5479  -20.2511   24.7485 C   0  0  0  0  0  0  0  0  0  0  0  0
    8.5792  -19.4174   25.3443 C   0  0  0  0  0  0  0  0  0  0  0  0
    8.5591  -17.9591   25.0085 C   0  0  2  0  0  0  0  0  0  0  0  0
    9.1505  -17.8982   23.6478 N   0  0  0  0  0  0  0  0  0  0  0  0
    9.4197  -17.0948   25.8328 C   0  0  0  0  0  0  0  0  0  0  0  0
   10.6928  -17.0502   25.6506 O   0  0  0  0  0  0  0  0  0  0  0  0
    6.2528  -20.2817   25.2107 C   0  0  0  0  0  0  0  0  0  0  0  0
    5.3449  -21.1086   24.6151 C   0  0  0  0  0  0  0  0  0  0  0  0
    6.1863  -11.6108   24.1505 O   0  0  0  0  0  0  0  0  0  0  0  0
    6.9504  -12.2517   25.1351 C   0  0  0  0  0  0  0  0  0  0  0  0
    6.3953  -12.5043   26.3659 C   0  0  0  0  0  0  0  0  0  0  0  0
    7.1289  -13.1327   27.3468 C   0  0  0  0  0  0  0  0  0  0  0  0
    8.4521  -13.5416   27.1543 C   0  0  0  0  0  0  0  0  0  0  0  0
    9.2303  -14.2076   28.2146 C   0  0  0  0  0  0  0  0  0  0  0  0
    9.9443  -15.4233   27.6549 C   0  0  2  0  0  0  0  0  0  0  0  0
    8.9768  -16.2330   26.8840 N   0  0  0  0  0  0  0  0  0  0  0  0
   10.4363  -16.2363   28.7613 C   0  0  0  0  0  0  0  0  0  0  0  0
    9.9802  -17.3728   29.0453 O   0  0  0  0  0  0  0  0  0  0  0  0
    8.9804  -13.2700   25.8977 C   0  0  0  0  0  0  0  0  0  0  0  0
    8.2475  -12.6414   24.9146 C   0  0  0  0  0  0  0  0  0  0  0  0
   11.4576  -15.7741   29.5658 O   0  0  0  0  0  0  0  0  0  0  0  0
  2  1  1  1
  2  3  1  0
  4  8  1  0
  4  3  1  0
  5  4  2  0
  6 16  1  0
  6  2  1  0
  7  6  2  0
  9 10  1  0
 10 11  2  0
 11 12  1  0
 13 12  2  0
 13 14  1  0
 15 14  1  1
 15 16  1  0
 17 28  1  0
 17 15  1  0
 18 17  2  0
 19 13  1  0
 20 10  1  0
 20 19  2  0
 21 22  1  0
 22 23  2  0
 23 24  1  0
 25 24  2  0
 25 26  1  0
 27 26  1  1
 27 29  1  0
 27 28  1  0
 29 33  1  0
 30 29  2  0
 31 25  1  0
 32 22  1  0
 32 31  2  0
M  END
$$$$
