DYY.pdb
     RDKit          3D

 33 34  0  0  1  0  0  0  0  0999 V2000
   10.9182  -16.8390   18.4361 N   0  0  0  0  0  0  0  0  0  0  0  0
   10.2592  -17.3691   19.6018 C   0  0  1  0  0  0  0  0  0  0  0  0
   10.9676  -18.5732   20.1683 C   0  0  0  0  0  0  0  0  0  0  0  0
   10.7884  -19.7010   19.2210 C   0  0  0  0  0  0  0  0  0  0  0  0
   11.2799  -19.6901   18.0725 O   0  0  0  0  0  0  0  0  0  0  0  0
   10.1524  -16.3378   20.6817 C   0  0  0  0  0  0  0  0  0  0  0  0
   11.0635  -15.4773   20.8157 O   0  0  0  0  0  0  0  0  0  0  0  0
   10.0544  -20.8336   19.5791 O   0  0  0  0  0  0  0  0  0  0  0  0
    5.5527  -11.8384   26.8689 O   0  0  0  0  0  0  0  0  0  0  0  0
    6.0219  -12.6489   25.8418 C   0  0  0  0  0  0  0  0  0  0  0  0
    6.6129  -12.0568   24.7542 C   0  0  0  0  0  0  0  0  0  0  0  0
    7.0774  -12.8546   23.7380 C   0  0  0  0  0  0  0  0  0  0  0  0
    6.9497  -14.2370   23.8128 C   0  0  0  0  0  0  0  0  0  0  0  0
    7.4430  -15.0124   22.6863 C   0  0  0  0  0  0  0  0  0  0  0  0
    8.9225  -15.2184   22.5928 C   0  0  2  0  0  0  0  0  0  0  0  0
    9.0705  -16.2810   21.5663 N   0  0  0  0  0  0  0  0  0  0  0  0
    9.5759  -15.7616   23.7949 C   0  0  0  0  0  0  0  0  0  0  0  0
    9.6384  -17.0293   24.0067 O   0  0  0  0  0  0  0  0  0  0  0  0
    6.3544  -14.8118   24.9115 C   0  0  0  0  0  0  0  0  0  0  0  0
    5.8935  -14.0165   25.9205 C   0  0  0  0  0  0  0  0  0  0  0  0
   11.6724  -17.2005   32.1949 O   0  0  0  0  0  0  0  0  0  0  0  0
   11.3703  -16.5956   30.9674 C   0  0  0  0  0  0  0  0  0  0  0  0
   11.9164  -15.3727   30.6619 C   0  0  0  0  0  0  0  0  0  0  0  0
   11.6322  -14.7615   29.4615 C   0  0  0  0  0  0  0  0  0  0  0  0
   10.7901  -15.3347   28.5037 C   0  0  0  0  0  0  0  0  0  0  0  0
   10.4875  -14.6675   27.2244 C   0  0  0  0  0  0  0  0  0  0  0  0
   10.6650  -15.6386   26.0727 C   0  0  2  0  0  0  0  0  0  0  0  0
   10.1990  -14.9929   24.8269 N   0  0  0  0  0  0  0  0  0  0  0  0
    9.8365  -16.8149   26.3113 C   0  0  0  0  0  0  0  0  0  0  0  0
    8.5869  -16.8243   26.1748 O   0  0  0  0  0  0  0  0  0  0  0  0
   10.2562  -16.5713   28.8466 C   0  0  0  0  0  0  0  0  0  0  0  0
   10.5398  -17.1847   30.0475 C   0  0  0  0  0  0  0  0  0  0  0  0
   10.4123  -18.0043   26.7083 O   0  0  0  0  0  0  0  0  0  0  0  0
  2  1  1  6
  2  3  1  0
  4  8  1  0
  4  3  1  0
  5  4  2  0
  6 16  1  0
  6  2  1  0
  7  6  2  0
  9 10  1  0
 10 11  2  0
 11 12  1  0
 13 12  2  0
 13 14  1  0
 15 14  1  1
 15 16  1  0
 17 28  1  0
 17 15  1  0
 18 17  2  0
 19 13  1  0
 20 10  1  0
 20 19  2  0
 21 22  1  0
 22 23  2  0
 23 24  1  0
 25 24  2  0
 25 26  1  0
 27 26  1  1
 27 29  1  0
 27 28  1  0
 29 33  1  0
 30 29  2  0
 31 25  1  0
 32 22  1  0
 32 31  2  0
M  END
$$$$
