DYY.pdb
     RDKit          3D

 33 34  0  0  1  0  0  0  0  0999 V2000
   11.0616  -18.1022   20.1646 N   0  0  0  0  0  0  0  0  0  0  0  0
   11.8177  -17.0908   20.8571 C   0  0  1  0  0  0  0  0  0  0  0  0
   12.4023  -16.0642   19.9208 C   0  0  0  0  0  0  0  0  0  0  0  0
   13.5930  -16.6616   19.2674 C   0  0  0  0  0  0  0  0  0  0  0  0
   13.5733  -17.8057   18.7660 O   0  0  0  0  0  0  0  0  0  0  0  0
   10.9733  -16.3770   21.8664 C   0  0  0  0  0  0  0  0  0  0  0  0
   11.4666  -15.4298   22.5354 O   0  0  0  0  0  0  0  0  0  0  0  0
   14.7981  -15.9610   19.1856 O   0  0  0  0  0  0  0  0  0  0  0  0
    7.5528  -12.5848   17.7894 O   0  0  0  0  0  0  0  0  0  0  0  0
    7.5488  -13.3603   18.9430 C   0  0  0  0  0  0  0  0  0  0  0  0
    7.4384  -14.7224   18.8196 C   0  0  0  0  0  0  0  0  0  0  0  0
    7.4341  -15.4912   19.9571 C   0  0  0  0  0  0  0  0  0  0  0  0
    7.5400  -14.8970   21.2096 C   0  0  0  0  0  0  0  0  0  0  0  0
    7.5028  -15.7753   22.3676 C   0  0  0  0  0  0  0  0  0  0  0  0
    8.7904  -16.0021   23.0962 C   0  0  2  0  0  0  0  0  0  0  0  0
    9.6382  -16.7163   22.1082 N   0  0  0  0  0  0  0  0  0  0  0  0
    8.7245  -16.9035   24.2582 C   0  0  0  0  0  0  0  0  0  0  0  0
    9.2211  -18.0897   24.2130 O   0  0  0  0  0  0  0  0  0  0  0  0
    7.6501  -13.5299   21.3125 C   0  0  0  0  0  0  0  0  0  0  0  0
    7.6540  -12.7678   20.1802 C   0  0  0  0  0  0  0  0  0  0  0  0
   12.0583  -13.6748   29.6445 O   0  0  0  0  0  0  0  0  0  0  0  0
   11.0007  -14.4923   29.2235 C   0  0  0  0  0  0  0  0  0  0  0  0
    9.9729  -13.9480   28.4926 C   0  0  0  0  0  0  0  0  0  0  0  0
    8.9246  -14.7337   28.0696 C   0  0  0  0  0  0  0  0  0  0  0  0
    8.8444  -16.1008   28.3521 C   0  0  0  0  0  0  0  0  0  0  0  0
    7.7132  -16.9310   27.8997 C   0  0  0  0  0  0  0  0  0  0  0  0
    8.0567  -17.6148   26.5900 C   0  0  2  0  0  0  0  0  0  0  0  0
    8.1367  -16.5934   25.5241 N   0  0  0  0  0  0  0  0  0  0  0  0
    6.9885  -18.5464   26.2463 C   0  0  0  0  0  0  0  0  0  0  0  0
    6.1339  -18.3246   25.3515 O   0  0  0  0  0  0  0  0  0  0  0  0
    9.9011  -16.6168   29.0930 C   0  0  0  0  0  0  0  0  0  0  0  0
   10.9514  -15.8319   29.5170 C   0  0  0  0  0  0  0  0  0  0  0  0
    6.8716  -19.7495   26.9119 O   0  0  0  0  0  0  0  0  0  0  0  0
  2  1  1  6
  2  3  1  0
  4  8  1  0
  4  3  1  0
  5  4  2  0
  6 16  1  0
  6  2  1  0
  7  6  2  0
  9 10  1  0
 10 11  2  0
 11 12  1  0
 13 12  2  0
 13 14  1  0
 15 14  1  6
 15 16  1  0
 17 28  1  0
 17 15  1  0
 18 17  2  0
 19 13  1  0
 20 10  1  0
 20 19  2  0
 21 22  1  0
 22 23  2  0
 23 24  1  0
 25 24  2  0
 25 26  1  0
 27 26  1  1
 27 29  1  0
 27 28  1  0
 29 33  1  0
 30 29  2  0
 31 25  1  0
 32 22  1  0
 32 31  2  0
M  END
$$$$
