DYY.pdb
     RDKit          3D

 33 34  0  0  1  0  0  0  0  0999 V2000
    9.6090  -16.8479   17.9939 N   0  0  0  0  0  0  0  0  0  0  0  0
   10.5024  -17.3004   19.0288 C   0  0  1  0  0  0  0  0  0  0  0  0
   11.9394  -17.3400   18.5749 C   0  0  0  0  0  0  0  0  0  0  0  0
   12.0251  -18.2349   17.3945 C   0  0  0  0  0  0  0  0  0  0  0  0
   12.3351  -17.8128   16.2603 O   0  0  0  0  0  0  0  0  0  0  0  0
   10.4181  -16.4251   20.2404 C   0  0  0  0  0  0  0  0  0  0  0  0
   11.4648  -15.8985   20.7044 O   0  0  0  0  0  0  0  0  0  0  0  0
   11.7596  -19.6014   17.5050 O   0  0  0  0  0  0  0  0  0  0  0  0
    6.0462  -12.5365   26.9975 O   0  0  0  0  0  0  0  0  0  0  0  0
    6.4506  -13.1623   25.8241 C   0  0  0  0  0  0  0  0  0  0  0  0
    6.2262  -14.5089   25.6857 C   0  0  0  0  0  0  0  0  0  0  0  0
    6.6246  -15.1300   24.5278 C   0  0  0  0  0  0  0  0  0  0  0  0
    7.2437  -14.4046   23.5161 C   0  0  0  0  0  0  0  0  0  0  0  0
    7.6591  -15.1374   22.3311 C   0  0  0  0  0  0  0  0  0  0  0  0
    9.1286  -15.3395   22.1316 C   0  0  2  0  0  0  0  0  0  0  0  0
    9.2116  -16.1579   20.8955 N   0  0  0  0  0  0  0  0  0  0  0  0
    9.8158  -16.1382   23.1597 C   0  0  0  0  0  0  0  0  0  0  0  0
   11.0999  -16.2089   23.2036 O   0  0  0  0  0  0  0  0  0  0  0  0
    7.4596  -13.0554   23.6737 C   0  0  0  0  0  0  0  0  0  0  0  0
    7.0627  -12.4403   24.8256 C   0  0  0  0  0  0  0  0  0  0  0  0
   11.6819  -15.3722   31.4457 O   0  0  0  0  0  0  0  0  0  0  0  0
   11.1710  -15.3805   30.1408 C   0  0  0  0  0  0  0  0  0  0  0  0
   11.4973  -16.4099   29.2918 C   0  0  0  0  0  0  0  0  0  0  0  0
   11.0061  -16.4367   28.0060 C   0  0  0  0  0  0  0  0  0  0  0  0
   10.1657  -15.4412   27.4985 C   0  0  0  0  0  0  0  0  0  0  0  0
    9.6513  -15.4769   26.1173 C   0  0  0  0  0  0  0  0  0  0  0  0
    9.7163  -16.8904   25.5708 C   0  0  2  0  0  0  0  0  0  0  0  0
    9.1805  -16.8952   24.1928 N   0  0  0  0  0  0  0  0  0  0  0  0
    8.8729  -17.7549   26.3884 C   0  0  0  0  0  0  0  0  0  0  0  0
    7.6198  -17.7919   26.2966 O   0  0  0  0  0  0  0  0  0  0  0  0
    9.8569  -14.4162   28.3850 C   0  0  0  0  0  0  0  0  0  0  0  0
   10.3474  -14.3879   29.6724 C   0  0  0  0  0  0  0  0  0  0  0  0
    9.4376  -18.5956   27.3256 O   0  0  0  0  0  0  0  0  0  0  0  0
  2  1  1  6
  2  3  1  0
  4  8  1  0
  4  3  1  0
  5  4  2  0
  6 16  1  0
  6  2  1  0
  7  6  2  0
  9 10  1  0
 10 11  2  0
 11 12  1  0
 13 12  2  0
 13 14  1  0
 15 14  1  1
 15 16  1  0
 17 28  1  0
 17 15  1  0
 18 17  2  0
 19 13  1  0
 20 10  1  0
 20 19  2  0
 21 22  1  0
 22 23  2  0
 23 24  1  0
 25 24  2  0
 25 26  1  0
 27 26  1  1
 27 29  1  0
 27 28  1  0
 29 33  1  0
 30 29  2  0
 31 25  1  0
 32 22  1  0
 32 31  2  0
M  END
$$$$
