DYY.pdb
     RDKit          3D

 33 34  0  0  1  0  0  0  0  0999 V2000
   10.5552  -17.1367   14.0779 N   0  0  0  0  0  0  0  0  0  0  0  0
   11.7784  -16.4926   14.4822 C   0  0  1  0  0  0  0  0  0  0  0  0
   12.3896  -15.6684   13.3779 C   0  0  0  0  0  0  0  0  0  0  0  0
   13.7337  -16.2218   13.0800 C   0  0  0  0  0  0  0  0  0  0  0  0
   14.1658  -17.2550   13.6336 O   0  0  0  0  0  0  0  0  0  0  0  0
   11.5579  -15.6013   15.6646 C   0  0  0  0  0  0  0  0  0  0  0  0
   12.5171  -14.9253   16.1245 O   0  0  0  0  0  0  0  0  0  0  0  0
   14.5801  -15.6027   12.1579 O   0  0  0  0  0  0  0  0  0  0  0  0
    6.5679  -12.5008   22.4060 O   0  0  0  0  0  0  0  0  0  0  0  0
    7.0805  -13.0444   21.2339 C   0  0  0  0  0  0  0  0  0  0  0  0
    7.5447  -12.1940   20.2623 C   0  0  0  0  0  0  0  0  0  0  0  0
    8.0517  -12.7278   19.1034 C   0  0  0  0  0  0  0  0  0  0  0  0
    8.0926  -14.1056   18.9211 C   0  0  0  0  0  0  0  0  0  0  0  0
    8.6203  -14.5938   17.6574 C   0  0  0  0  0  0  0  0  0  0  0  0
   10.1089  -14.6605   17.5175 C   0  0  2  0  0  0  0  0  0  0  0  0
   10.3161  -15.4794   16.2964 N   0  0  0  0  0  0  0  0  0  0  0  0
   10.8257  -15.3821   18.5817 C   0  0  0  0  0  0  0  0  0  0  0  0
   10.9715  -16.6600   18.5416 O   0  0  0  0  0  0  0  0  0  0  0  0
    7.6226  -14.9416   19.9070 C   0  0  0  0  0  0  0  0  0  0  0  0
    7.1191  -14.4085   21.0582 C   0  0  0  0  0  0  0  0  0  0  0  0
   17.0632  -15.2264   16.6876 O   0  0  0  0  0  0  0  0  0  0  0  0
   16.1810  -15.1793   17.7755 C   0  0  0  0  0  0  0  0  0  0  0  0
   15.3052  -14.1276   17.8928 C   0  0  0  0  0  0  0  0  0  0  0  0
   14.4306  -14.0624   18.9539 C   0  0  0  0  0  0  0  0  0  0  0  0
   14.3824  -15.0394   19.9530 C   0  0  0  0  0  0  0  0  0  0  0  0
   13.4461  -14.9554   21.0887 C   0  0  0  0  0  0  0  0  0  0  0  0
   12.1308  -15.6221   20.7331 C   0  0  2  0  0  0  0  0  0  0  0  0
   11.4269  -14.7887   19.7351 N   0  0  0  0  0  0  0  0  0  0  0  0
   11.2985  -15.6983   21.9284 C   0  0  0  0  0  0  0  0  0  0  0  0
   11.6014  -16.3737   22.9444 O   0  0  0  0  0  0  0  0  0  0  0  0
   15.2821  -16.0879   19.8018 C   0  0  0  0  0  0  0  0  0  0  0  0
   16.1580  -16.1550   18.7402 C   0  0  0  0  0  0  0  0  0  0  0  0
   10.1062  -15.0067   21.9930 O   0  0  0  0  0  0  0  0  0  0  0  0
  2  1  1  6
  2  3  1  0
  4  8  1  0
  4  3  1  0
  5  4  2  0
  6 16  1  0
  6  2  1  0
  7  6  2  0
  9 10  1  0
 10 11  2  0
 11 12  1  0
 13 12  2  0
 13 14  1  0
 15 14  1  1
 15 16  1  0
 17 28  1  0
 17 15  1  0
 18 17  2  0
 19 13  1  0
 20 10  1  0
 20 19  2  0
 21 22  1  0
 22 23  2  0
 23 24  1  0
 25 24  2  0
 25 26  1  0
 27 26  1  1
 27 29  1  0
 27 28  1  0
 29 33  1  0
 30 29  2  0
 31 25  1  0
 32 22  1  0
 32 31  2  0
M  END
$$$$
