HTW.pdb
     RDKit          3D

 32 34  0  0  1  0  0  0  0  0999 V2000
   19.1211  -13.0095  -17.9032 N   0  0  0  0  0  0  0  0  0  0  0  0
   18.6237  -11.8595  -17.1334 C   0  0  1  0  0  0  0  0  0  0  0  0
   18.6522  -12.3277  -15.6804 C   0  0  0  0  0  0  0  0  0  0  0  0
   17.5270  -13.2631  -15.4249 C   0  0  0  0  0  0  0  0  0  0  0  0
   16.3978  -13.0676  -14.6647 C   0  0  0  0  0  0  0  0  0  0  0  0
   15.6249  -14.1740  -14.6935 N   0  0  0  0  0  0  0  0  0  0  0  0
   16.2576  -15.0755  -15.4701 C   0  0  0  0  0  0  0  0  0  0  0  0
   17.4017  -14.5267  -15.9097 N   0  0  0  0  0  0  0  0  0  0  0  0
   19.5539  -10.7192  -17.3359 C   0  0  0  0  0  0  0  0  0  0  0  0
   20.7909  -10.9480  -17.3577 O   0  0  0  0  0  0  0  0  0  0  0  0
   19.5110   -8.3283  -20.1270 C   0  0  0  0  0  0  0  0  0  0  0  0
   19.4797   -7.4244  -18.9127 C   0  0  1  0  0  0  0  0  0  0  0  0
   18.2429   -6.8689  -18.6960 O   0  0  0  0  0  0  0  0  0  0  0  0
   19.9610   -8.2603  -17.7335 C   0  0  2  0  0  0  0  0  0  0  0  0
   19.0982   -9.3933  -17.5042 N   0  0  0  0  0  0  0  0  0  0  0  0
   20.1331   -7.4183  -16.5400 C   0  0  0  0  0  0  0  0  0  0  0  0
   19.2923   -7.3759  -15.6053 O   0  0  0  0  0  0  0  0  0  0  0  0
   21.2942   -6.6081  -16.4174 N   0  0  0  0  0  0  0  0  0  0  0  0
   21.5613   -5.7643  -15.2726 C   0  0  1  0  0  0  0  0  0  0  0  0
   22.5583   -6.4255  -14.3247 C   0  0  0  0  0  0  0  0  0  0  0  0
   23.7746   -6.8081  -15.0883 C   0  0  0  0  0  0  0  0  0  0  0  0
   24.5382   -6.0166  -15.9355 C   0  0  0  0  0  0  0  0  0  0  0  0
   25.5425   -6.7275  -16.4251 N   0  0  0  0  0  0  0  0  0  0  0  0
   25.5051   -8.0039  -15.9426 C   0  0  0  0  0  0  0  0  0  0  0  0
   26.2974   -9.1170  -16.1325 C   0  0  0  0  0  0  0  0  0  0  0  0
   26.0186  -10.3103  -15.5015 C   0  0  0  0  0  0  0  0  0  0  0  0
   24.9141  -10.3464  -14.6718 C   0  0  0  0  0  0  0  0  0  0  0  0
   24.1165   -9.2387  -14.4758 C   0  0  0  0  0  0  0  0  0  0  0  0
   24.4033   -8.0426  -15.1136 C   0  0  0  0  0  0  0  0  0  0  0  0
   22.0240   -4.4203  -15.6701 C   0  0  0  0  0  0  0  0  0  0  0  0
   22.2814   -4.1827  -16.8932 O   0  0  0  0  0  0  0  0  0  0  0  0
   22.2027   -3.3718  -14.7844 O   0  0  0  0  0  0  0  0  0  0  0  0
  2  3  1  0
  2  1  1  6
  4  5  2  0
  4  3  1  0
  6  5  1  0
  7  8  2  0
  7  6  1  0
  8  4  1  0
  9  2  1  0
 10  9  2  0
 12 14  1  0
 12 11  1  6
 13 12  1  0
 14 15  1  1
 15  9  1  0
 16 14  1  0
 16 17  2  0
 18 16  1  0
 19 18  1  0
 19 20  1  1
 21 20  1  0
 21 22  2  0
 23 22  1  0
 24 23  1  0
 25 24  2  0
 26 25  1  0
 27 26  2  0
 27 28  1  0
 28 29  2  0
 29 24  1  0
 29 21  1  0
 30 19  1  0
 31 30  2  0
 32 30  1  0
M  END
$$$$
