HTW.pdb
     RDKit          3D

 32 34  0  0  1  0  0  0  0  0999 V2000
   22.8717  -22.0851  -16.8412 N   0  0  0  0  0  0  0  0  0  0  0  0
   22.8754  -21.2428  -15.6358 C   0  0  1  0  0  0  0  0  0  0  0  0
   21.5059  -21.4729  -15.0012 C   0  0  0  0  0  0  0  0  0  0  0  0
   20.4625  -20.7394  -15.7625 C   0  0  0  0  0  0  0  0  0  0  0  0
   20.1790  -19.3937  -15.7614 C   0  0  0  0  0  0  0  0  0  0  0  0
   19.1491  -19.1384  -16.5959 N   0  0  0  0  0  0  0  0  0  0  0  0
   18.7742  -20.3175  -17.1300 C   0  0  0  0  0  0  0  0  0  0  0  0
   19.5648  -21.2800  -16.6282 N   0  0  0  0  0  0  0  0  0  0  0  0
   23.9576  -21.7150  -14.7345 C   0  0  0  0  0  0  0  0  0  0  0  0
   24.7767  -22.5645  -15.1709 O   0  0  0  0  0  0  0  0  0  0  0  0
   26.5829  -21.8522  -14.5982 C   0  0  0  0  0  0  0  0  0  0  0  0
   26.5387  -21.0557  -13.3113 C   0  0  1  0  0  0  0  0  0  0  0  0
   26.6150  -19.7011  -13.5223 O   0  0  0  0  0  0  0  0  0  0  0  0
   25.2616  -21.4646  -12.5881 C   0  0  2  0  0  0  0  0  0  0  0  0
   24.0973  -21.2442  -13.4105 N   0  0  0  0  0  0  0  0  0  0  0  0
   25.1745  -20.8003  -11.2789 C   0  0  0  0  0  0  0  0  0  0  0  0
   24.4886  -19.7646  -11.0812 O   0  0  0  0  0  0  0  0  0  0  0  0
   25.8900  -21.3360  -10.1740 N   0  0  0  0  0  0  0  0  0  0  0  0
   25.9411  -20.7030   -8.8737 C   0  0  1  0  0  0  0  0  0  0  0  0
   26.7647  -21.5325   -7.8921 C   0  0  0  0  0  0  0  0  0  0  0  0
   27.1881  -20.6672   -6.7604 C   0  0  0  0  0  0  0  0  0  0  0  0
   26.4283  -19.7399   -6.0605 C   0  0  0  0  0  0  0  0  0  0  0  0
   27.1708  -19.1725   -5.1220 N   0  0  0  0  0  0  0  0  0  0  0  0
   28.4384  -19.6786   -5.1436 C   0  0  0  0  0  0  0  0  0  0  0  0
   29.5731  -19.4362   -4.3977 C   0  0  0  0  0  0  0  0  0  0  0  0
   30.7495  -20.1108   -4.6442 C   0  0  0  0  0  0  0  0  0  0  0  0
   30.7462  -21.0389   -5.6679 C   0  0  0  0  0  0  0  0  0  0  0  0
   29.6167  -21.2880   -6.4188 C   0  0  0  0  0  0  0  0  0  0  0  0
   28.4378  -20.6059   -6.1649 C   0  0  0  0  0  0  0  0  0  0  0  0
   26.4492  -19.3194   -8.9499 C   0  0  0  0  0  0  0  0  0  0  0  0
   27.4707  -19.0657   -9.6648 O   0  0  0  0  0  0  0  0  0  0  0  0
   25.8792  -18.2496   -8.2820 O   0  0  0  0  0  0  0  0  0  0  0  0
  2  3  1  0
  2  1  1  6
  4  5  2  0
  4  3  1  0
  6  5  1  0
  7  8  2  0
  7  6  1  0
  8  4  1  0
  9  2  1  0
 10  9  2  0
 12 14  1  0
 12 11  1  6
 13 12  1  0
 14 15  1  6
 15  9  1  0
 16 14  1  0
 16 17  2  0
 18 16  1  0
 19 18  1  0
 19 20  1  1
 21 20  1  0
 21 22  2  0
 23 22  1  0
 24 23  1  0
 25 24  2  0
 26 25  1  0
 27 26  2  0
 27 28  1  0
 28 29  2  0
 29 24  1  0
 29 21  1  0
 30 19  1  0
 31 30  2  0
 32 30  1  0
M  END
$$$$
