HTW.pdb
     RDKit          3D

 32 34  0  0  1  0  0  0  0  0999 V2000
   27.6579  -20.9599  -18.3719 N   0  0  0  0  0  0  0  0  0  0  0  0
   27.6578  -21.7660  -17.1420 C   0  0  1  0  0  0  0  0  0  0  0  0
   29.0340  -22.4267  -17.1147 C   0  0  0  0  0  0  0  0  0  0  0  0
   29.1268  -23.4539  -18.1835 C   0  0  0  0  0  0  0  0  0  0  0  0
   29.8788  -23.4361  -19.3348 C   0  0  0  0  0  0  0  0  0  0  0  0
   29.6727  -24.5697  -20.0382 N   0  0  0  0  0  0  0  0  0  0  0  0
   28.7910  -25.3115  -19.3390 C   0  0  0  0  0  0  0  0  0  0  0  0
   28.4632  -24.6395  -18.2236 N   0  0  0  0  0  0  0  0  0  0  0  0
   27.4900  -20.8544  -15.9813 C   0  0  0  0  0  0  0  0  0  0  0  0
   28.2329  -19.8424  -15.8983 O   0  0  0  0  0  0  0  0  0  0  0  0
   25.4263  -18.4155  -15.3197 C   0  0  0  0  0  0  0  0  0  0  0  0
   25.0603  -19.3036  -14.1493 C   0  0  1  0  0  0  0  0  0  0  0  0
   23.9175  -20.0313  -14.3719 O   0  0  0  0  0  0  0  0  0  0  0  0
   26.2718  -20.1854  -13.8744 C   0  0  2  0  0  0  0  0  0  0  0  0
   26.5287  -21.0845  -14.9728 N   0  0  0  0  0  0  0  0  0  0  0  0
   26.1236  -20.8794  -12.5863 C   0  0  0  0  0  0  0  0  0  0  0  0
   25.7066  -22.0623  -12.4902 O   0  0  0  0  0  0  0  0  0  0  0  0
   26.4608  -20.2012  -11.3838 N   0  0  0  0  0  0  0  0  0  0  0  0
   26.3245  -20.7914  -10.0696 C   0  0  1  0  0  0  0  0  0  0  0  0
   27.4917  -20.3978   -9.1682 C   0  0  0  0  0  0  0  0  0  0  0  0
   27.0514  -20.4558   -7.7498 C   0  0  0  0  0  0  0  0  0  0  0  0
   25.9103  -21.0524   -7.2310 C   0  0  0  0  0  0  0  0  0  0  0  0
   25.8779  -20.8856   -5.9176 N   0  0  0  0  0  0  0  0  0  0  0  0
   26.9710  -20.1843   -5.4972 C   0  0  0  0  0  0  0  0  0  0  0  0
   27.4079  -19.7527   -4.2621 C   0  0  0  0  0  0  0  0  0  0  0  0
   28.5819  -19.0434   -4.1256 C   0  0  0  0  0  0  0  0  0  0  0  0
   29.3028  -18.7825   -5.2753 C   0  0  0  0  0  0  0  0  0  0  0  0
   28.8739  -19.2100   -6.5142 C   0  0  0  0  0  0  0  0  0  0  0  0
   27.6927  -19.9226   -6.6433 C   0  0  0  0  0  0  0  0  0  0  0  0
   25.0341  -20.4505   -9.4396 C   0  0  0  0  0  0  0  0  0  0  0  0
   24.4356  -19.3798   -9.7773 O   0  0  0  0  0  0  0  0  0  0  0  0
   24.4115  -21.2327   -8.4824 O   0  0  0  0  0  0  0  0  0  0  0  0
  2  3  1  0
  2  1  1  6
  4  5  2  0
  4  3  1  0
  6  5  1  0
  7  8  2  0
  7  6  1  0
  8  4  1  0
  9  2  1  0
 10  9  2  0
 12 14  1  0
 12 11  1  6
 13 12  1  0
 14 15  1  6
 15  9  1  0
 16 14  1  0
 16 17  2  0
 18 16  1  0
 19 18  1  0
 19 20  1  1
 21 20  1  0
 21 22  2  0
 23 22  1  0
 24 23  1  0
 25 24  2  0
 26 25  1  0
 27 26  2  0
 27 28  1  0
 28 29  2  0
 29 24  1  0
 29 21  1  0
 30 19  1  0
 31 30  2  0
 32 30  1  0
M  END
$$$$
