HTW.pdb
     RDKit          3D

 32 34  0  0  1  0  0  0  0  0999 V2000
   21.1207  -19.5655  -15.9002 N   0  0  0  0  0  0  0  0  0  0  0  0
   22.1556  -18.8133  -15.1753 C   0  0  1  0  0  0  0  0  0  0  0  0
   21.4293  -17.5853  -14.6317 C   0  0  0  0  0  0  0  0  0  0  0  0
   21.1135  -16.6485  -15.7402 C   0  0  0  0  0  0  0  0  0  0  0  0
   21.9456  -15.7654  -16.3874 C   0  0  0  0  0  0  0  0  0  0  0  0
   21.2594  -15.0971  -17.3385 N   0  0  0  0  0  0  0  0  0  0  0  0
   19.9911  -15.5512  -17.3005 C   0  0  0  0  0  0  0  0  0  0  0  0
   19.9043  -16.4844  -16.3388 N   0  0  0  0  0  0  0  0  0  0  0  0
   22.6610  -19.6592  -14.0637 C   0  0  0  0  0  0  0  0  0  0  0  0
   21.8333  -20.1312  -13.2421 O   0  0  0  0  0  0  0  0  0  0  0  0
   24.2035  -22.7873  -14.2163 C   0  0  0  0  0  0  0  0  0  0  0  0
   25.2560  -22.0237  -13.4407 C   0  0  1  0  0  0  0  0  0  0  0  0
   26.3497  -21.7014  -14.2056 O   0  0  0  0  0  0  0  0  0  0  0  0
   24.5656  -20.7963  -12.8596 C   0  0  2  0  0  0  0  0  0  0  0  0
   24.0330  -19.9501  -13.8993 N   0  0  0  0  0  0  0  0  0  0  0  0
   25.4673  -20.0823  -11.9432 C   0  0  0  0  0  0  0  0  0  0  0  0
   25.6868  -18.8463  -12.0237 O   0  0  0  0  0  0  0  0  0  0  0  0
   26.1311  -20.8023  -10.9133 N   0  0  0  0  0  0  0  0  0  0  0  0
   27.0569  -20.1930   -9.9829 C   0  0  1  0  0  0  0  0  0  0  0  0
   26.3288  -19.2678   -9.0114 C   0  0  0  0  0  0  0  0  0  0  0  0
   26.4938  -19.7878   -7.6289 C   0  0  0  0  0  0  0  0  0  0  0  0
   25.8442  -20.8609   -7.0343 C   0  0  0  0  0  0  0  0  0  0  0  0
   26.2690  -21.0042   -5.7881 N   0  0  0  0  0  0  0  0  0  0  0  0
   27.2042  -20.0559   -5.4893 C   0  0  0  0  0  0  0  0  0  0  0  0
   27.9421  -19.7692   -4.3596 C   0  0  0  0  0  0  0  0  0  0  0  0
   28.8389  -18.7228   -4.3368 C   0  0  0  0  0  0  0  0  0  0  0  0
   28.9688  -17.9732   -5.4903 C   0  0  0  0  0  0  0  0  0  0  0  0
   28.2355  -18.2524   -6.6243 C   0  0  0  0  0  0  0  0  0  0  0  0
   27.3360  -19.3060   -6.6396 C   0  0  0  0  0  0  0  0  0  0  0  0
   27.8542  -21.1992   -9.2547 C   0  0  0  0  0  0  0  0  0  0  0  0
   27.3289  -22.3192   -8.9572 O   0  0  0  0  0  0  0  0  0  0  0  0
   29.1674  -21.0071   -8.8617 O   0  0  0  0  0  0  0  0  0  0  0  0
  2  3  1  0
  2  1  1  1
  4  5  2  0
  4  3  1  0
  6  5  1  0
  7  8  2  0
  7  6  1  0
  8  4  1  0
  9  2  1  0
 10  9  2  0
 12 14  1  0
 12 11  1  6
 13 12  1  0
 14 15  1  6
 15  9  1  0
 16 14  1  0
 16 17  2  0
 18 16  1  0
 19 18  1  0
 19 20  1  1
 21 20  1  0
 21 22  2  0
 23 22  1  0
 24 23  1  0
 25 24  2  0
 26 25  1  0
 27 26  2  0
 27 28  1  0
 28 29  2  0
 29 24  1  0
 29 21  1  0
 30 19  1  0
 31 30  2  0
 32 30  1  0
M  END
$$$$
