HTW.pdb
     RDKit          3D

 32 34  0  0  1  0  0  0  0  0999 V2000
   27.8570  -22.0285  -18.8690 N   0  0  0  0  0  0  0  0  0  0  0  0
   26.7322  -21.7773  -17.9557 C   0  0  1  0  0  0  0  0  0  0  0  0
   25.9132  -23.0654  -17.9903 C   0  0  0  0  0  0  0  0  0  0  0  0
   24.9485  -23.0251  -19.1190 C   0  0  0  0  0  0  0  0  0  0  0  0
   23.6423  -22.5951  -19.1230 C   0  0  0  0  0  0  0  0  0  0  0  0
   23.1166  -22.7276  -20.3593 N   0  0  0  0  0  0  0  0  0  0  0  0
   24.0838  -23.2410  -21.1449 C   0  0  0  0  0  0  0  0  0  0  0  0
   25.1854  -23.4196  -20.3980 N   0  0  0  0  0  0  0  0  0  0  0  0
   27.2755  -21.5371  -16.5942 C   0  0  0  0  0  0  0  0  0  0  0  0
   28.3176  -22.1497  -16.2452 O   0  0  0  0  0  0  0  0  0  0  0  0
   28.5771  -18.5426  -15.1395 C   0  0  0  0  0  0  0  0  0  0  0  0
   27.4592  -18.8852  -14.1775 C   0  0  1  0  0  0  0  0  0  0  0  0
   26.3462  -18.1014  -14.3559 O   0  0  0  0  0  0  0  0  0  0  0  0
   27.1657  -20.3690  -14.3595 C   0  0  2  0  0  0  0  0  0  0  0  0
   26.6644  -20.6481  -15.6830 N   0  0  0  0  0  0  0  0  0  0  0  0
   26.2756  -20.8537  -13.2939 C   0  0  0  0  0  0  0  0  0  0  0  0
   25.0431  -21.0393  -13.4633 O   0  0  0  0  0  0  0  0  0  0  0  0
   26.8116  -21.1307  -12.0072 N   0  0  0  0  0  0  0  0  0  0  0  0
   26.0034  -21.5283  -10.8747 C   0  0  1  0  0  0  0  0  0  0  0  0
   26.8782  -21.8990   -9.6800 C   0  0  0  0  0  0  0  0  0  0  0  0
   26.8610  -20.7819   -8.6998 C   0  0  0  0  0  0  0  0  0  0  0  0
   25.9070  -19.7838   -8.5554 C   0  0  0  0  0  0  0  0  0  0  0  0
   26.2541  -18.9752   -7.5658 N   0  0  0  0  0  0  0  0  0  0  0  0
   27.4324  -19.3799   -7.0080 C   0  0  0  0  0  0  0  0  0  0  0  0
   28.2112  -18.9004   -5.9753 C   0  0  0  0  0  0  0  0  0  0  0  0
   29.3864  -19.5243   -5.6156 C   0  0  0  0  0  0  0  0  0  0  0  0
   29.7525  -20.6487   -6.3306 C   0  0  0  0  0  0  0  0  0  0  0  0
   28.9803  -21.1353   -7.3643 C   0  0  0  0  0  0  0  0  0  0  0  0
   27.8002  -20.5027   -7.7200 C   0  0  0  0  0  0  0  0  0  0  0  0
   25.0185  -20.4930  -10.5053 C   0  0  0  0  0  0  0  0  0  0  0  0
   25.2990  -19.2662  -10.6927 O   0  0  0  0  0  0  0  0  0  0  0  0
   23.7786  -20.7679   -9.9551 O   0  0  0  0  0  0  0  0  0  0  0  0
  2  3  1  0
  2  1  1  6
  4  5  2  0
  4  3  1  0
  6  5  1  0
  7  8  2  0
  7  6  1  0
  8  4  1  0
  9  2  1  0
 10  9  2  0
 12 14  1  0
 12 11  1  6
 13 12  1  0
 14 15  1  6
 15  9  1  0
 16 14  1  0
 16 17  2  0
 18 16  1  0
 19 18  1  0
 19 20  1  1
 21 20  1  0
 21 22  2  0
 23 22  1  0
 24 23  1  0
 25 24  2  0
 26 25  1  0
 27 26  2  0
 27 28  1  0
 28 29  2  0
 29 24  1  0
 29 21  1  0
 30 19  1  0
 31 30  2  0
 32 30  1  0
M  END
$$$$
