HTW.pdb
     RDKit          3D

 32 34  0  0  1  0  0  0  0  0999 V2000
   28.3244  -21.6141  -18.0351 N   0  0  0  0  0  0  0  0  0  0  0  0
   27.2916  -21.1086  -17.1185 C   0  0  1  0  0  0  0  0  0  0  0  0
   26.2124  -22.1887  -17.1215 C   0  0  0  0  0  0  0  0  0  0  0  0
   25.2186  -21.9123  -18.1902 C   0  0  0  0  0  0  0  0  0  0  0  0
   24.9669  -22.6238  -19.3399 C   0  0  0  0  0  0  0  0  0  0  0  0
   23.9803  -22.0295  -20.0438 N   0  0  0  0  0  0  0  0  0  0  0  0
   23.6011  -20.9402  -19.3467 C   0  0  0  0  0  0  0  0  0  0  0  0
   24.3465  -20.8705  -18.2319 N   0  0  0  0  0  0  0  0  0  0  0  0
   27.8899  -20.9681  -15.7662 C   0  0  0  0  0  0  0  0  0  0  0  0
   29.0921  -20.6087  -15.6742 O   0  0  0  0  0  0  0  0  0  0  0  0
   28.6473  -18.8515  -14.4804 C   0  0  0  0  0  0  0  0  0  0  0  0
   27.5776  -19.0991  -13.4378 C   0  0  1  0  0  0  0  0  0  0  0  0
   26.3896  -18.4797  -13.7383 O   0  0  0  0  0  0  0  0  0  0  0  0
   27.4340  -20.6103  -13.3097 C   0  0  2  0  0  0  0  0  0  0  0  0
   27.1576  -21.2230  -14.5860 N   0  0  0  0  0  0  0  0  0  0  0  0
   26.4380  -20.9489  -12.2820 C   0  0  0  0  0  0  0  0  0  0  0  0
   25.2050  -21.0200  -12.5209 O   0  0  0  0  0  0  0  0  0  0  0  0
   26.8664  -21.2110  -10.9526 N   0  0  0  0  0  0  0  0  0  0  0  0
   25.9700  -21.6120   -9.8897 C   0  0  1  0  0  0  0  0  0  0  0  0
   26.7390  -21.8969   -8.6022 C   0  0  0  0  0  0  0  0  0  0  0  0
   26.9633  -20.6191   -7.8772 C   0  0  0  0  0  0  0  0  0  0  0  0
   26.4613  -19.3614   -8.1829 C   0  0  0  0  0  0  0  0  0  0  0  0
   26.8927  -18.4808   -7.2929 N   0  0  0  0  0  0  0  0  0  0  0  0
   27.6886  -19.0886   -6.3653 C   0  0  0  0  0  0  0  0  0  0  0  0
   28.3733  -18.6373   -5.2561 C   0  0  0  0  0  0  0  0  0  0  0  0
   29.1205  -19.4952   -4.4779 C   0  0  0  0  0  0  0  0  0  0  0  0
   29.1558  -20.8246   -4.8536 C   0  0  0  0  0  0  0  0  0  0  0  0
   28.4745  -21.2848   -5.9607 C   0  0  0  0  0  0  0  0  0  0  0  0
   27.7255  -20.4162   -6.7379 C   0  0  0  0  0  0  0  0  0  0  0  0
   24.9045  -20.6174   -9.6577 C   0  0  0  0  0  0  0  0  0  0  0  0
   23.8270  -20.9760   -9.0841 O   0  0  0  0  0  0  0  0  0  0  0  0
   24.9957  -19.2872  -10.0290 O   0  0  0  0  0  0  0  0  0  0  0  0
  2  3  1  0
  2  1  1  6
  4  5  2  0
  4  3  1  0
  6  5  1  0
  7  8  2  0
  7  6  1  0
  8  4  1  0
  9  2  1  0
 10  9  2  0
 12 14  1  0
 12 11  1  6
 13 12  1  0
 14 15  1  6
 15  9  1  0
 16 14  1  0
 16 17  2  0
 18 16  1  0
 19 18  1  0
 19 20  1  1
 21 20  1  0
 21 22  2  0
 23 22  1  0
 24 23  1  0
 25 24  2  0
 26 25  1  0
 27 26  2  0
 27 28  1  0
 28 29  2  0
 29 24  1  0
 29 21  1  0
 30 19  1  0
 31 30  2  0
 32 30  1  0
M  END
$$$$
