HTW.pdb
     RDKit          3D

 32 34  0  0  1  0  0  0  0  0999 V2000
   38.0832  -32.8040    0.1166 N   0  0  0  0  0  0  0  0  0  0  0  0
   36.7915  -32.9616    0.8015 C   0  0  1  0  0  0  0  0  0  0  0  0
   36.5364  -34.4669    0.8004 C   0  0  0  0  0  0  0  0  0  0  0  0
   36.1275  -34.9129   -0.5561 C   0  0  0  0  0  0  0  0  0  0  0  0
   35.9005  -34.1560   -1.6816 C   0  0  0  0  0  0  0  0  0  0  0  0
   35.5433  -34.9540   -2.7101 N   0  0  0  0  0  0  0  0  0  0  0  0
   35.5417  -36.2187   -2.2444 C   0  0  0  0  0  0  0  0  0  0  0  0
   35.8933  -36.1930   -0.9486 N   0  0  0  0  0  0  0  0  0  0  0  0
   36.9298  -32.4536    2.1904 C   0  0  0  0  0  0  0  0  0  0  0  0
   38.0265  -31.9449    2.5391 O   0  0  0  0  0  0  0  0  0  0  0  0
   37.6039  -30.3447    3.6025 C   0  0  0  0  0  0  0  0  0  0  0  0
   36.2592  -30.4016    4.2961 C   0  0  1  0  0  0  0  0  0  0  0  0
   35.2957  -29.6697    3.6472 O   0  0  0  0  0  0  0  0  0  0  0  0
   35.8924  -31.8753    4.4175 C   0  0  2  0  0  0  0  0  0  0  0  0
   35.8761  -32.5218    3.1282 N   0  0  0  0  0  0  0  0  0  0  0  0
   34.6306  -32.0340    5.1559 C   0  0  0  0  0  0  0  0  0  0  0  0
   33.5445  -32.3364    4.5980 O   0  0  0  0  0  0  0  0  0  0  0  0
   34.6153  -31.8412    6.5638 N   0  0  0  0  0  0  0  0  0  0  0  0
   33.4346  -32.0203    7.3811 C   0  0  1  0  0  0  0  0  0  0  0  0
   33.7878  -32.6573    8.7225 C   0  0  0  0  0  0  0  0  0  0  0  0
   34.3488  -34.0128    8.4842 C   0  0  0  0  0  0  0  0  0  0  0  0
   33.8484  -35.0148    7.6641 C   0  0  0  0  0  0  0  0  0  0  0  0
   34.6382  -36.0761    7.7241 N   0  0  0  0  0  0  0  0  0  0  0  0
   35.6856  -35.8459    8.5687 C   0  0  0  0  0  0  0  0  0  0  0  0
   36.7649  -36.6027    8.9751 C   0  0  0  0  0  0  0  0  0  0  0  0
   37.6947  -36.1049    9.8626 C   0  0  0  0  0  0  0  0  0  0  0  0
   37.5020  -34.8182   10.3282 C   0  0  0  0  0  0  0  0  0  0  0  0
   36.4262  -34.0543    9.9275 C   0  0  0  0  0  0  0  0  0  0  0  0
   35.4957  -34.5616    9.0350 C   0  0  0  0  0  0  0  0  0  0  0  0
   32.6979  -30.7564    7.5759 C   0  0  0  0  0  0  0  0  0  0  0  0
   33.1368  -29.6871    7.0442 O   0  0  0  0  0  0  0  0  0  0  0  0
   31.5327  -30.6477    8.3149 O   0  0  0  0  0  0  0  0  0  0  0  0
  2  3  1  0
  2  1  1  6
  4  5  2  0
  4  3  1  0
  6  5  1  0
  7  8  2  0
  7  6  1  0
  8  4  1  0
  9  2  1  0
 10  9  2  0
 12 14  1  0
 12 11  1  6
 13 12  1  0
 14 15  1  6
 15  9  1  0
 16 14  1  0
 16 17  2  0
 18 16  1  0
 19 18  1  0
 19 20  1  1
 21 20  1  0
 21 22  2  0
 23 22  1  0
 24 23  1  0
 25 24  2  0
 26 25  1  0
 27 26  2  0
 27 28  1  0
 28 29  2  0
 29 24  1  0
 29 21  1  0
 30 19  1  0
 31 30  2  0
 32 30  1  0
M  END
$$$$
