HTW.pdb
     RDKit          3D

 32 34  0  0  1  0  0  0  0  0999 V2000
   18.1842  -14.6759  -18.5536 N   0  0  0  0  0  0  0  0  0  0  0  0
   18.6425  -14.0528  -17.3029 C   0  0  1  0  0  0  0  0  0  0  0  0
   20.0224  -14.6574  -17.0549 C   0  0  0  0  0  0  0  0  0  0  0  0
   19.8900  -16.0831  -16.6597 C   0  0  0  0  0  0  0  0  0  0  0  0
   20.1254  -17.2119  -17.4091 C   0  0  0  0  0  0  0  0  0  0  0  0
   19.8828  -18.3153  -16.6702 N   0  0  0  0  0  0  0  0  0  0  0  0
   19.4932  -17.8940  -15.4508 C   0  0  0  0  0  0  0  0  0  0  0  0
   19.4978  -16.5512  -15.4454 N   0  0  0  0  0  0  0  0  0  0  0  0
   18.7426  -12.5862  -17.5163 C   0  0  0  0  0  0  0  0  0  0  0  0
   19.3467  -12.1663  -18.5369 O   0  0  0  0  0  0  0  0  0  0  0  0
   16.2468  -10.2975  -18.2530 C   0  0  0  0  0  0  0  0  0  0  0  0
   16.8036   -9.6634  -16.9958 C   0  0  1  0  0  0  0  0  0  0  0  0
   16.0041   -9.8688  -15.8986 O   0  0  0  0  0  0  0  0  0  0  0  0
   18.2084  -10.2229  -16.8097 C   0  0  2  0  0  0  0  0  0  0  0  0
   18.1846  -11.6521  -16.6163 N   0  0  0  0  0  0  0  0  0  0  0  0
   18.9098   -9.5088  -15.7323 C   0  0  0  0  0  0  0  0  0  0  0  0
   19.1481  -10.0257  -14.6106 O   0  0  0  0  0  0  0  0  0  0  0  0
   19.3464   -8.1735  -15.9471 N   0  0  0  0  0  0  0  0  0  0  0  0
   20.0304   -7.3864  -14.9439 C   0  0  1  0  0  0  0  0  0  0  0  0
   21.4864   -7.1461  -15.3342 C   0  0  0  0  0  0  0  0  0  0  0  0
   21.9159   -5.8206  -14.8170 C   0  0  0  0  0  0  0  0  0  0  0  0
   21.9663   -5.3915  -13.4977 C   0  0  0  0  0  0  0  0  0  0  0  0
   22.4048   -4.1428  -13.4515 N   0  0  0  0  0  0  0  0  0  0  0  0
   22.6653   -3.6803  -14.7092 C   0  0  0  0  0  0  0  0  0  0  0  0
   23.1283   -2.4792  -15.2049 C   0  0  0  0  0  0  0  0  0  0  0  0
   23.3016   -2.2823  -16.5581 C   0  0  0  0  0  0  0  0  0  0  0  0
   22.9929   -3.3359  -17.3972 C   0  0  0  0  0  0  0  0  0  0  0  0
   22.5295   -4.5401  -16.9107 C   0  0  0  0  0  0  0  0  0  0  0  0
   22.3580   -4.7305  -15.5491 C   0  0  0  0  0  0  0  0  0  0  0  0
   19.3399   -6.1101  -14.6743 C   0  0  0  0  0  0  0  0  0  0  0  0
   18.7014   -5.5332  -15.6115 O   0  0  0  0  0  0  0  0  0  0  0  0
   19.3366   -5.4790  -13.4425 O   0  0  0  0  0  0  0  0  0  0  0  0
  2  3  1  0
  2  1  1  6
  4  5  2  0
  4  3  1  0
  6  5  1  0
  7  8  2  0
  7  6  1  0
  8  4  1  0
  9  2  1  0
 10  9  2  0
 12 14  1  0
 12 11  1  6
 13 12  1  0
 14 15  1  1
 15  9  1  0
 16 14  1  0
 16 17  2  0
 18 16  1  0
 19 18  1  0
 19 20  1  6
 21 20  1  0
 21 22  2  0
 23 22  1  0
 24 23  1  0
 25 24  2  0
 26 25  1  0
 27 26  2  0
 27 28  1  0
 28 29  2  0
 29 24  1  0
 29 21  1  0
 30 19  1  0
 31 30  2  0
 32 30  1  0
M  END
$$$$
