HTW.pdb
     RDKit          3D

 32 34  0  0  1  0  0  0  0  0999 V2000
   23.4844  -16.2667  -18.3503 N   0  0  0  0  0  0  0  0  0  0  0  0
   24.7993  -16.7529  -17.9063 C   0  0  1  0  0  0  0  0  0  0  0  0
   25.7262  -15.5492  -18.0583 C   0  0  0  0  0  0  0  0  0  0  0  0
   26.0059  -15.3004  -19.4957 C   0  0  0  0  0  0  0  0  0  0  0  0
   26.7635  -16.0451  -20.3690 C   0  0  0  0  0  0  0  0  0  0  0  0
   26.7623  -15.4676  -21.5892 N   0  0  0  0  0  0  0  0  0  0  0  0
   26.0059  -14.3560  -21.4973 C   0  0  0  0  0  0  0  0  0  0  0  0
   25.5513  -14.2562  -20.2377 N   0  0  0  0  0  0  0  0  0  0  0  0
   24.6950  -17.1585  -16.4812 C   0  0  0  0  0  0  0  0  0  0  0  0
   24.5681  -16.2618  -15.6078 O   0  0  0  0  0  0  0  0  0  0  0  0
   22.2737  -18.0109  -14.5804 C   0  0  0  0  0  0  0  0  0  0  0  0
   23.0493  -19.3076  -14.4832 C   0  0  1  0  0  0  0  0  0  0  0  0
   22.5868  -20.2691  -15.3474 O   0  0  0  0  0  0  0  0  0  0  0  0
   24.5131  -18.9601  -14.7229 C   0  0  2  0  0  0  0  0  0  0  0  0
   24.7328  -18.5107  -16.0758 N   0  0  0  0  0  0  0  0  0  0  0  0
   25.3798  -20.0861  -14.3435 C   0  0  0  0  0  0  0  0  0  0  0  0
   25.9717  -20.8083  -15.1863 O   0  0  0  0  0  0  0  0  0  0  0  0
   25.5704  -20.3892  -12.9682 N   0  0  0  0  0  0  0  0  0  0  0  0
   26.3273  -21.5302  -12.5000 C   0  0  1  0  0  0  0  0  0  0  0  0
   27.3605  -21.1122  -11.4571 C   0  0  0  0  0  0  0  0  0  0  0  0
   26.6566  -20.6803  -10.2214 C   0  0  0  0  0  0  0  0  0  0  0  0
   25.2983  -20.4551  -10.0438 C   0  0  0  0  0  0  0  0  0  0  0  0
   25.0681  -20.0810   -8.7945 N   0  0  0  0  0  0  0  0  0  0  0  0
   26.2338  -20.0369   -8.0856 C   0  0  0  0  0  0  0  0  0  0  0  0
   26.5425  -19.7168   -6.7798 C   0  0  0  0  0  0  0  0  0  0  0  0
   27.8413  -19.7583   -6.3204 C   0  0  0  0  0  0  0  0  0  0  0  0
   28.8209  -20.1331   -7.2201 C   0  0  0  0  0  0  0  0  0  0  0  0
   28.5218  -20.4549   -8.5272 C   0  0  0  0  0  0  0  0  0  0  0  0
   27.2136  -20.4110   -8.9816 C   0  0  0  0  0  0  0  0  0  0  0  0
   25.4536  -22.5987  -11.9771 C   0  0  0  0  0  0  0  0  0  0  0  0
   24.2194  -22.3592  -11.7817 O   0  0  0  0  0  0  0  0  0  0  0  0
   25.8919  -23.8766  -11.6762 O   0  0  0  0  0  0  0  0  0  0  0  0
  2  3  1  0
  2  1  1  1
  4  5  2  0
  4  3  1  0
  6  5  1  0
  7  8  2  0
  7  6  1  0
  8  4  1  0
  9  2  1  0
 10  9  2  0
 12 14  1  0
 12 11  1  6
 13 12  1  0
 14 15  1  6
 15  9  1  0
 16 14  1  0
 16 17  2  0
 18 16  1  0
 19 18  1  0
 19 20  1  1
 21 20  1  0
 21 22  2  0
 23 22  1  0
 24 23  1  0
 25 24  2  0
 26 25  1  0
 27 26  2  0
 27 28  1  0
 28 29  2  0
 29 24  1  0
 29 21  1  0
 30 19  1  0
 31 30  2  0
 32 30  1  0
M  END
$$$$
