HTW.pdb
     RDKit          3D

 32 34  0  0  1  0  0  0  0  0999 V2000
   19.1909  -12.0838  -17.9760 N   0  0  0  0  0  0  0  0  0  0  0  0
   20.0543  -10.9103  -18.1760 C   0  0  1  0  0  0  0  0  0  0  0  0
   19.3099  -10.0546  -19.1982 C   0  0  0  0  0  0  0  0  0  0  0  0
   19.3235  -10.7204  -20.5258 C   0  0  0  0  0  0  0  0  0  0  0  0
   20.2652  -10.6355  -21.5244 C   0  0  0  0  0  0  0  0  0  0  0  0
   19.8951  -11.3996  -22.5739 N   0  0  0  0  0  0  0  0  0  0  0  0
   18.7195  -11.9723  -22.2482 C   0  0  0  0  0  0  0  0  0  0  0  0
   18.3764  -11.5633  -21.0160 N   0  0  0  0  0  0  0  0  0  0  0  0
   20.1800  -10.1919  -16.8820 C   0  0  0  0  0  0  0  0  0  0  0  0
   19.2411  -10.2826  -16.0494 O   0  0  0  0  0  0  0  0  0  0  0  0
   22.3467  -10.6147  -14.1801 C   0  0  0  0  0  0  0  0  0  0  0  0
   22.6352   -9.1650  -14.5082 C   0  0  1  0  0  0  0  0  0  0  0  0
   23.8392   -8.9943  -15.1457 O   0  0  0  0  0  0  0  0  0  0  0  0
   21.4585   -8.6617  -15.3347 C   0  0  2  0  0  0  0  0  0  0  0  0
   21.3131   -9.4145  -16.5565 N   0  0  0  0  0  0  0  0  0  0  0  0
   21.5696   -7.2130  -15.5621 C   0  0  0  0  0  0  0  0  0  0  0  0
   22.1297   -6.7201  -16.5748 O   0  0  0  0  0  0  0  0  0  0  0  0
   21.0268   -6.3116  -14.6068 N   0  0  0  0  0  0  0  0  0  0  0  0
   21.1992   -4.8765  -14.6757 C   0  0  1  0  0  0  0  0  0  0  0  0
   19.9147   -4.1506  -14.2843 C   0  0  0  0  0  0  0  0  0  0  0  0
   20.1293   -2.6848  -14.4034 C   0  0  0  0  0  0  0  0  0  0  0  0
   20.8649   -1.8562  -13.5671 C   0  0  0  0  0  0  0  0  0  0  0  0
   20.8119   -0.6108  -14.0143 N   0  0  0  0  0  0  0  0  0  0  0  0
   20.0549   -0.5414  -15.1481 C   0  0  0  0  0  0  0  0  0  0  0  0
   19.6913    0.4904  -15.9884 C   0  0  0  0  0  0  0  0  0  0  0  0
   18.8956    0.2685  -17.0918 C   0  0  0  0  0  0  0  0  0  0  0  0
   18.4774   -1.0282  -17.3221 C   0  0  0  0  0  0  0  0  0  0  0  0
   18.8360   -2.0659  -16.4877 C   0  0  0  0  0  0  0  0  0  0  0  0
   19.6361   -1.8350  -15.3804 C   0  0  0  0  0  0  0  0  0  0  0  0
   22.3361   -4.4144  -13.8560 C   0  0  0  0  0  0  0  0  0  0  0  0
   23.1053   -3.5066  -14.3067 O   0  0  0  0  0  0  0  0  0  0  0  0
   22.6337   -4.9104  -12.5986 O   0  0  0  0  0  0  0  0  0  0  0  0
  2  3  1  0
  2  1  1  1
  4  5  2  0
  4  3  1  0
  6  5  1  0
  7  8  2  0
  7  6  1  0
  8  4  1  0
  9  2  1  0
 10  9  2  0
 12 14  1  0
 12 11  1  6
 13 12  1  0
 14 15  1  6
 15  9  1  0
 16 14  1  0
 16 17  2  0
 18 16  1  0
 19 18  1  0
 19 20  1  1
 21 20  1  0
 21 22  2  0
 23 22  1  0
 24 23  1  0
 25 24  2  0
 26 25  1  0
 27 26  2  0
 27 28  1  0
 28 29  2  0
 29 24  1  0
 29 21  1  0
 30 19  1  0
 31 30  2  0
 32 30  1  0
M  END
$$$$
