HTW.pdb
     RDKit          3D

 32 34  0  0  1  0  0  0  0  0999 V2000
   28.7269  -19.4651  -20.1131 N   0  0  0  0  0  0  0  0  0  0  0  0
   28.7776  -19.0704  -18.6974 C   0  0  1  0  0  0  0  0  0  0  0  0
   28.2973  -17.6211  -18.6846 C   0  0  0  0  0  0  0  0  0  0  0  0
   29.4190  -16.7101  -19.0278 C   0  0  0  0  0  0  0  0  0  0  0  0
   30.7419  -17.0147  -19.2482 C   0  0  0  0  0  0  0  0  0  0  0  0
   31.4330  -15.8908  -19.5335 N   0  0  0  0  0  0  0  0  0  0  0  0
   30.5549  -14.8691  -19.4960 C   0  0  0  0  0  0  0  0  0  0  0  0
   29.3437  -15.3629  -19.1917 N   0  0  0  0  0  0  0  0  0  0  0  0
   27.8462  -19.9388  -17.9327 C   0  0  0  0  0  0  0  0  0  0  0  0
   26.8196  -20.3781  -18.5124 O   0  0  0  0  0  0  0  0  0  0  0  0
   27.1471  -22.6968  -17.7756 C   0  0  0  0  0  0  0  0  0  0  0  0
   27.5073  -22.6546  -16.3056 C   0  0  1  0  0  0  0  0  0  0  0  0
   28.7882  -23.0838  -16.0602 O   0  0  0  0  0  0  0  0  0  0  0  0
   27.2694  -21.2241  -15.8385 C   0  0  2  0  0  0  0  0  0  0  0  0
   28.0738  -20.2865  -16.5830 N   0  0  0  0  0  0  0  0  0  0  0  0
   27.4607  -21.1175  -14.3843 C   0  0  0  0  0  0  0  0  0  0  0  0
   28.5627  -20.8138  -13.8593 O   0  0  0  0  0  0  0  0  0  0  0  0
   26.3641  -21.3649  -13.5148 N   0  0  0  0  0  0  0  0  0  0  0  0
   26.4669  -21.3332  -12.0717 C   0  0  1  0  0  0  0  0  0  0  0  0
   25.9372  -20.0151  -11.5132 C   0  0  0  0  0  0  0  0  0  0  0  0
   24.5270  -19.8353  -11.9466 C   0  0  0  0  0  0  0  0  0  0  0  0
   23.3700  -20.1885  -11.2655 C   0  0  0  0  0  0  0  0  0  0  0  0
   22.3097  -19.8616  -11.9885 N   0  0  0  0  0  0  0  0  0  0  0  0
   22.6922  -19.2854  -13.1654 C   0  0  0  0  0  0  0  0  0  0  0  0
   22.0009  -18.7784  -14.2461 C   0  0  0  0  0  0  0  0  0  0  0  0
   22.6611  -18.2416  -15.3304 C   0  0  0  0  0  0  0  0  0  0  0  0
   24.0423  -18.2319  -15.2912 C   0  0  0  0  0  0  0  0  0  0  0  0
   24.7418  -18.7363  -14.2151 C   0  0  0  0  0  0  0  0  0  0  0  0
   24.0711  -19.2742  -13.1287 C   0  0  0  0  0  0  0  0  0  0  0  0
   25.7885  -22.4827  -11.4419 C   0  0  0  0  0  0  0  0  0  0  0  0
   25.9763  -22.7208  -10.2062 O   0  0  0  0  0  0  0  0  0  0  0  0
   24.9400  -23.3432  -12.1166 O   0  0  0  0  0  0  0  0  0  0  0  0
  2  3  1  0
  2  1  1  6
  4  5  2  0
  4  3  1  0
  6  5  1  0
  7  8  2  0
  7  6  1  0
  8  4  1  0
  9  2  1  0
 10  9  2  0
 12 14  1  0
 12 11  1  6
 13 12  1  0
 14 15  1  6
 15  9  1  0
 16 14  1  0
 16 17  2  0
 18 16  1  0
 19 18  1  0
 19 20  1  1
 21 20  1  0
 21 22  2  0
 23 22  1  0
 24 23  1  0
 25 24  2  0
 26 25  1  0
 27 26  2  0
 27 28  1  0
 28 29  2  0
 29 24  1  0
 29 21  1  0
 30 19  1  0
 31 30  2  0
 32 30  1  0
M  END
$$$$
