HTW.pdb
     RDKit          3D

 32 34  0  0  1  0  0  0  0  0999 V2000
   16.1637  -24.1205    2.0864 N   0  0  0  0  0  0  0  0  0  0  0  0
   15.0728  -23.2841    1.5642 C   0  0  1  0  0  0  0  0  0  0  0  0
   13.8302  -24.1656    1.6645 C   0  0  0  0  0  0  0  0  0  0  0  0
   13.8863  -25.2426    0.6431 C   0  0  0  0  0  0  0  0  0  0  0  0
   14.5383  -26.4522    0.6992 C   0  0  0  0  0  0  0  0  0  0  0  0
   14.3349  -27.1395   -0.4446 N   0  0  0  0  0  0  0  0  0  0  0  0
   13.5547  -26.3720   -1.2311 C   0  0  0  0  0  0  0  0  0  0  0  0
   13.2853  -25.2312   -0.5760 N   0  0  0  0  0  0  0  0  0  0  0  0
   14.9391  -22.0874    2.4340 C   0  0  0  0  0  0  0  0  0  0  0  0
   13.9626  -21.3156    2.2501 O   0  0  0  0  0  0  0  0  0  0  0  0
   15.4242  -19.9751    6.6919 C   0  0  0  0  0  0  0  0  0  0  0  0
   15.4132  -21.1901    5.7885 C   0  0  1  0  0  0  0  0  0  0  0  0
   14.2309  -21.8857    5.8486 O   0  0  0  0  0  0  0  0  0  0  0  0
   15.7292  -20.6929    4.3836 C   0  0  2  0  0  0  0  0  0  0  0  0
   15.8669  -21.7887    3.4558 N   0  0  0  0  0  0  0  0  0  0  0  0
   16.9013  -19.8048    4.4019 C   0  0  0  0  0  0  0  0  0  0  0  0
   18.0719  -20.2203    4.6000 O   0  0  0  0  0  0  0  0  0  0  0  0
   16.7257  -18.4107    4.1886 N   0  0  0  0  0  0  0  0  0  0  0  0
   17.7887  -17.4403    4.3381 C   0  0  1  0  0  0  0  0  0  0  0  0
   17.8593  -16.5135    3.1273 C   0  0  0  0  0  0  0  0  0  0  0  0
   18.5787  -17.2060    2.0265 C   0  0  0  0  0  0  0  0  0  0  0  0
   18.1227  -18.2440    1.2252 C   0  0  0  0  0  0  0  0  0  0  0  0
   19.0642  -18.5847    0.3585 N   0  0  0  0  0  0  0  0  0  0  0  0
   20.1753  -17.8104    0.5298 C   0  0  0  0  0  0  0  0  0  0  0  0
   21.4039  -17.7568   -0.0950 C   0  0  0  0  0  0  0  0  0  0  0  0
   22.3660  -16.8498    0.2942 C   0  0  0  0  0  0  0  0  0  0  0  0
   22.0502  -15.9970    1.3348 C   0  0  0  0  0  0  0  0  0  0  0  0
   20.8246  -16.0433    1.9652 C   0  0  0  0  0  0  0  0  0  0  0  0
   19.8625  -16.9579    1.5682 C   0  0  0  0  0  0  0  0  0  0  0  0
   17.6607  -16.6655    5.5877 C   0  0  0  0  0  0  0  0  0  0  0  0
   18.5664  -15.8290    5.9017 O   0  0  0  0  0  0  0  0  0  0  0  0
   16.5979  -16.7866    6.4660 O   0  0  0  0  0  0  0  0  0  0  0  0
  2  3  1  0
  2  1  1  1
  4  5  2  0
  4  3  1  0
  6  5  1  0
  7  8  2  0
  7  6  1  0
  8  4  1  0
  9  2  1  0
 10  9  2  0
 12 14  1  0
 12 11  1  1
 13 12  1  0
 14 15  1  6
 15  9  1  0
 16 14  1  0
 16 17  2  0
 18 16  1  0
 19 18  1  0
 19 20  1  6
 21 20  1  0
 21 22  2  0
 23 22  1  0
 24 23  1  0
 25 24  2  0
 26 25  1  0
 27 26  2  0
 27 28  1  0
 28 29  2  0
 29 24  1  0
 29 21  1  0
 30 19  1  0
 31 30  2  0
 32 30  1  0
M  END
$$$$
