HTW.pdb
     RDKit          3D

 32 34  0  0  1  0  0  0  0  0999 V2000
   23.6028  -18.6834  -16.4511 N   0  0  0  0  0  0  0  0  0  0  0  0
   23.9111  -18.2497  -15.0803 C   0  0  1  0  0  0  0  0  0  0  0  0
   22.7464  -17.3417  -14.6927 C   0  0  0  0  0  0  0  0  0  0  0  0
   22.8082  -16.0760  -15.4675 C   0  0  0  0  0  0  0  0  0  0  0  0
   23.8133  -15.1383  -15.5103 C   0  0  0  0  0  0  0  0  0  0  0  0
   23.4703  -14.1317  -16.3418 N   0  0  0  0  0  0  0  0  0  0  0  0
   22.2488  -14.4242  -16.8303 C   0  0  0  0  0  0  0  0  0  0  0  0
   21.8513  -15.5938  -16.3039 N   0  0  0  0  0  0  0  0  0  0  0  0
   23.9552  -19.4493  -14.2053 C   0  0  0  0  0  0  0  0  0  0  0  0
   22.8784  -20.0476  -13.9493 O   0  0  0  0  0  0  0  0  0  0  0  0
   25.1717  -22.5631  -14.8289 C   0  0  0  0  0  0  0  0  0  0  0  0
   25.9988  -22.2406  -13.6024 C   0  0  1  0  0  0  0  0  0  0  0  0
   27.2923  -21.8973  -13.9093 O   0  0  0  0  0  0  0  0  0  0  0  0
   25.2612  -21.1359  -12.8562 C   0  0  2  0  0  0  0  0  0  0  0  0
   25.1598  -19.9385  -13.6542 N   0  0  0  0  0  0  0  0  0  0  0  0
   25.8776  -20.9000  -11.5420 C   0  0  0  0  0  0  0  0  0  0  0  0
   26.8577  -20.1297  -11.3740 O   0  0  0  0  0  0  0  0  0  0  0  0
   25.3582  -21.5627  -10.3971 N   0  0  0  0  0  0  0  0  0  0  0  0
   25.7570  -21.2463   -9.0425 C   0  0  1  0  0  0  0  0  0  0  0  0
   26.5679  -19.9539   -8.9973 C   0  0  0  0  0  0  0  0  0  0  0  0
   27.8659  -20.2179   -8.3232 C   0  0  0  0  0  0  0  0  0  0  0  0
   28.9859  -20.8541   -8.8408 C   0  0  0  0  0  0  0  0  0  0  0  0
   29.9407  -20.8919   -7.9240 N   0  0  0  0  0  0  0  0  0  0  0  0
   29.5199  -20.2964   -6.7700 C   0  0  0  0  0  0  0  0  0  0  0  0
   30.1099  -20.0747   -5.5430 C   0  0  0  0  0  0  0  0  0  0  0  0
   29.4336  -19.4307   -4.5293 C   0  0  0  0  0  0  0  0  0  0  0  0
   28.1417  -19.0164   -4.7917 C   0  0  0  0  0  0  0  0  0  0  0  0
   27.5438  -19.2335   -6.0152 C   0  0  0  0  0  0  0  0  0  0  0  0
   28.2301  -19.8816   -7.0293 C   0  0  0  0  0  0  0  0  0  0  0  0
   24.6019  -21.1757   -8.1264 C   0  0  0  0  0  0  0  0  0  0  0  0
   24.7887  -21.2885   -6.8730 O   0  0  0  0  0  0  0  0  0  0  0  0
   23.2953  -20.9905   -8.5439 O   0  0  0  0  0  0  0  0  0  0  0  0
  2  3  1  0
  2  1  1  6
  4  5  2  0
  4  3  1  0
  6  5  1  0
  7  8  2  0
  7  6  1  0
  8  4  1  0
  9  2  1  0
 10  9  2  0
 12 14  1  0
 12 11  1  6
 13 12  1  0
 14 15  1  6
 15  9  1  0
 16 14  1  0
 16 17  2  0
 18 16  1  0
 19 18  1  0
 19 20  1  6
 21 20  1  0
 21 22  2  0
 23 22  1  0
 24 23  1  0
 25 24  2  0
 26 25  1  0
 27 26  2  0
 27 28  1  0
 28 29  2  0
 29 24  1  0
 29 21  1  0
 30 19  1  0
 31 30  2  0
 32 30  1  0
M  END
$$$$
