HTW.pdb
     RDKit          3D

 32 34  0  0  1  0  0  0  0  0999 V2000
   20.3304  -20.8455  -14.5769 N   0  0  0  0  0  0  0  0  0  0  0  0
   21.4086  -20.0295  -13.9991 C   0  0  1  0  0  0  0  0  0  0  0  0
   20.6909  -19.0191  -13.1073 C   0  0  0  0  0  0  0  0  0  0  0  0
   20.0537  -17.9673  -13.9403 C   0  0  0  0  0  0  0  0  0  0  0  0
   20.6462  -17.0607  -14.7878 C   0  0  0  0  0  0  0  0  0  0  0  0
   19.7056  -16.2759  -15.3548 N   0  0  0  0  0  0  0  0  0  0  0  0
   18.5138  -16.6791  -14.8717 C   0  0  0  0  0  0  0  0  0  0  0  0
   18.7242  -17.6965  -14.0210 N   0  0  0  0  0  0  0  0  0  0  0  0
   22.2864  -20.9134  -13.1899 C   0  0  0  0  0  0  0  0  0  0  0  0
   21.7511  -21.7347  -12.4013 O   0  0  0  0  0  0  0  0  0  0  0  0
   24.5072  -23.5596  -13.9057 C   0  0  0  0  0  0  0  0  0  0  0  0
   25.4509  -22.5724  -13.2520 C   0  0  1  0  0  0  0  0  0  0  0  0
   26.2459  -21.9170  -14.1595 O   0  0  0  0  0  0  0  0  0  0  0  0
   24.5884  -21.6198  -12.4337 C   0  0  2  0  0  0  0  0  0  0  0  0
   23.6950  -20.8630  -13.2762 N   0  0  0  0  0  0  0  0  0  0  0  0
   25.4285  -20.7695  -11.5770 C   0  0  0  0  0  0  0  0  0  0  0  0
   25.7454  -19.5911  -11.8824 O   0  0  0  0  0  0  0  0  0  0  0  0
   25.9152  -21.2829  -10.3444 N   0  0  0  0  0  0  0  0  0  0  0  0
   26.7359  -20.5186   -9.4300 C   0  0  1  0  0  0  0  0  0  0  0  0
   26.3104  -20.7545   -7.9832 C   0  0  0  0  0  0  0  0  0  0  0  0
   27.0380  -19.8048   -7.1015 C   0  0  0  0  0  0  0  0  0  0  0  0
   27.0318  -18.4173   -7.1473 C   0  0  0  0  0  0  0  0  0  0  0  0
   27.8099  -17.9361   -6.1898 N   0  0  0  0  0  0  0  0  0  0  0  0
   28.3657  -18.9531   -5.4686 C   0  0  0  0  0  0  0  0  0  0  0  0
   29.2277  -18.9967   -4.3926 C   0  0  0  0  0  0  0  0  0  0  0  0
   29.6364  -20.1965   -3.8508 C   0  0  0  0  0  0  0  0  0  0  0  0
   29.1480  -21.3528   -4.4288 C   0  0  0  0  0  0  0  0  0  0  0  0
   28.2859  -21.3189   -5.5045 C   0  0  0  0  0  0  0  0  0  0  0  0
   27.8796  -20.1089   -6.0436 C   0  0  0  0  0  0  0  0  0  0  0  0
   28.1739  -20.7989   -9.6085 C   0  0  0  0  0  0  0  0  0  0  0  0
   28.5511  -21.9797   -9.8952 O   0  0  0  0  0  0  0  0  0  0  0  0
   29.1682  -19.8442   -9.4834 O   0  0  0  0  0  0  0  0  0  0  0  0
  2  3  1  0
  2  1  1  1
  4  5  2  0
  4  3  1  0
  6  5  1  0
  7  8  2  0
  7  6  1  0
  8  4  1  0
  9  2  1  0
 10  9  2  0
 12 14  1  0
 12 11  1  6
 13 12  1  0
 14 15  1  6
 15  9  1  0
 16 14  1  0
 16 17  2  0
 18 16  1  0
 19 18  1  0
 19 20  1  1
 21 20  1  0
 21 22  2  0
 23 22  1  0
 24 23  1  0
 25 24  2  0
 26 25  1  0
 27 26  2  0
 27 28  1  0
 28 29  2  0
 29 24  1  0
 29 21  1  0
 30 19  1  0
 31 30  2  0
 32 30  1  0
M  END
$$$$
