HTW.pdb
     RDKit          3D

 32 34  0  0  1  0  0  0  0  0999 V2000
   28.2323  -21.2251  -17.9617 N   0  0  0  0  0  0  0  0  0  0  0  0
   27.1585  -21.3821  -16.9693 C   0  0  1  0  0  0  0  0  0  0  0  0
   26.6284  -22.7958  -17.1963 C   0  0  0  0  0  0  0  0  0  0  0  0
   25.6370  -22.7961  -18.3024 C   0  0  0  0  0  0  0  0  0  0  0  0
   24.2785  -22.5904  -18.2439 C   0  0  0  0  0  0  0  0  0  0  0  0
   23.7451  -22.6760  -19.4810 N   0  0  0  0  0  0  0  0  0  0  0  0
   24.7595  -22.9358  -20.3294 C   0  0  0  0  0  0  0  0  0  0  0  0
   25.8971  -23.0078  -19.6196 N   0  0  0  0  0  0  0  0  0  0  0  0
   27.7490  -21.2546  -15.6122 C   0  0  0  0  0  0  0  0  0  0  0  0
   28.9717  -20.9755  -15.5115 O   0  0  0  0  0  0  0  0  0  0  0  0
   28.5131  -19.0784  -14.4049 C   0  0  0  0  0  0  0  0  0  0  0  0
   27.4193  -19.2687  -13.3754 C   0  0  1  0  0  0  0  0  0  0  0  0
   26.2450  -18.6505  -13.7279 O   0  0  0  0  0  0  0  0  0  0  0  0
   27.2556  -20.7713  -13.1846 C   0  0  2  0  0  0  0  0  0  0  0  0
   26.9873  -21.4349  -14.4369 N   0  0  0  0  0  0  0  0  0  0  0  0
   26.2431  -21.0538  -12.1561 C   0  0  0  0  0  0  0  0  0  0  0  0
   25.0334  -21.2671  -12.4269 O   0  0  0  0  0  0  0  0  0  0  0  0
   26.6274  -21.0917  -10.7884 N   0  0  0  0  0  0  0  0  0  0  0  0
   25.7760  -21.5989   -9.7340 C   0  0  1  0  0  0  0  0  0  0  0  0
   26.5812  -21.8858   -8.4694 C   0  0  0  0  0  0  0  0  0  0  0  0
   26.9239  -20.5992   -7.8091 C   0  0  0  0  0  0  0  0  0  0  0  0
   26.4972  -19.3223   -8.1479 C   0  0  0  0  0  0  0  0  0  0  0  0
   27.0259  -18.4397   -7.3142 N   0  0  0  0  0  0  0  0  0  0  0  0
   27.8169  -19.0648   -6.3939 C   0  0  0  0  0  0  0  0  0  0  0  0
   28.5779  -18.6193   -5.3331 C   0  0  0  0  0  0  0  0  0  0  0  0
   29.2967  -19.4962   -4.5494 C   0  0  0  0  0  0  0  0  0  0  0  0
   29.2242  -20.8386   -4.8692 C   0  0  0  0  0  0  0  0  0  0  0  0
   28.4661  -21.2932   -5.9276 C   0  0  0  0  0  0  0  0  0  0  0  0
   27.7462  -20.4055   -6.7107 C   0  0  0  0  0  0  0  0  0  0  0  0
   24.6488  -20.6907   -9.4461 C   0  0  0  0  0  0  0  0  0  0  0  0
   24.6661  -19.5050   -9.9072 O   0  0  0  0  0  0  0  0  0  0  0  0
   23.5447  -21.0455   -8.6905 O   0  0  0  0  0  0  0  0  0  0  0  0
  2  3  1  0
  2  1  1  6
  4  5  2  0
  4  3  1  0
  6  5  1  0
  7  8  2  0
  7  6  1  0
  8  4  1  0
  9  2  1  0
 10  9  2  0
 12 14  1  0
 12 11  1  6
 13 12  1  0
 14 15  1  6
 15  9  1  0
 16 14  1  0
 16 17  2  0
 18 16  1  0
 19 18  1  0
 19 20  1  1
 21 20  1  0
 21 22  2  0
 23 22  1  0
 24 23  1  0
 25 24  2  0
 26 25  1  0
 27 26  2  0
 27 28  1  0
 28 29  2  0
 29 24  1  0
 29 21  1  0
 30 19  1  0
 31 30  2  0
 32 30  1  0
M  END
$$$$
