CTN.pdb
     RDKit          3D

 22 21  0  0  1  0  0  0  0  0999 V2000
    7.5564  -14.6501   15.6887 N   0  0  0  0  0  0  0  0  0  0  0  0
    8.2995  -14.3231   16.8699 C   0  0  1  0  0  0  0  0  0  0  0  0
    7.7294  -13.0444   17.4557 C   0  0  0  0  0  0  0  0  0  0  0  0
    7.8571  -11.6696   16.2824 S   0  0  0  0  0  0  0  0  0  0  0  0
    8.2350  -15.3740   17.9083 C   0  0  0  0  0  0  0  0  0  0  0  0
    7.2033  -16.1106   17.9002 O   0  0  0  0  0  0  0  0  0  0  0  0
    7.8107  -18.1281   18.2391 C   0  0  0  0  0  0  0  0  0  0  0  0
    9.0431  -18.0446   19.1082 C   0  0  1  0  0  0  0  0  0  0  0  0
   10.2051  -18.2997   18.3664 O   0  0  0  0  0  0  0  0  0  0  0  0
    9.1800  -16.7341   19.8070 C   0  0  2  0  0  0  0  0  0  0  0  0
    9.2035  -15.6228   18.8886 N   0  0  0  0  0  0  0  0  0  0  0  0
   10.3129  -16.6912   20.7630 C   0  0  0  0  0  0  0  0  0  0  0  0
   11.3913  -16.1299   20.4452 O   0  0  0  0  0  0  0  0  0  0  0  0
   11.7467  -17.7450   26.6093 N   0  0  0  0  0  0  0  0  0  0  0  0
   11.7061  -16.9416   25.4162 C   0  0  0  0  0  0  0  0  0  0  0  0
   12.6025  -16.0908   25.3142 O   0  0  0  0  0  0  0  0  0  0  0  0
   10.6731  -17.1191   24.3910 C   0  0  0  0  0  0  0  0  0  0  0  0
   11.2300  -17.1393   23.0105 C   0  0  2  0  0  0  0  0  0  0  0  0
   10.1363  -17.2968   22.0266 N   0  0  0  0  0  0  0  0  0  0  0  0
   12.0959  -18.3622   22.8542 C   0  0  0  0  0  0  0  0  0  0  0  0
   11.5571  -19.5282   22.8521 O   0  0  0  0  0  0  0  0  0  0  0  0
   13.4497  -18.2141   22.7148 O   0  0  0  0  0  0  0  0  0  0  0  0
  2  1  1  6
  2  5  1  0
  3  2  1  0
  4  3  1  0
  5  6  2  0
  8  7  1  6
  8  9  1  0
  8 10  1  0
 10 12  1  0
 11  5  1  0
 10 11  1  6
 12 19  1  0
 13 12  2  0
 15 14  1  0
 16 15  2  0
 17 15  1  0
 18 17  1  1
 19 18  1  0
 20 18  1  0
 20 22  1  0
 21 20  2  0
M  END
$$$$
