CTN.pdb
     RDKit          3D

 22 21  0  0  1  0  0  0  0  0999 V2000
    7.5629  -14.7574   16.4757 N   0  0  0  0  0  0  0  0  0  0  0  0
    8.4332  -14.3837   17.5515 C   0  0  1  0  0  0  0  0  0  0  0  0
    7.8593  -13.1512   18.2258 C   0  0  0  0  0  0  0  0  0  0  0  0
    6.6288  -12.3386   17.1730 S   0  0  0  0  0  0  0  0  0  0  0  0
    8.5820  -15.4411   18.5746 C   0  0  0  0  0  0  0  0  0  0  0  0
    7.5124  -15.9908   18.9755 O   0  0  0  0  0  0  0  0  0  0  0  0
    9.3026  -18.7593   18.5654 C   0  0  0  0  0  0  0  0  0  0  0  0
   10.2988  -18.2253   19.5672 C   0  0  1  0  0  0  0  0  0  0  0  0
   11.5789  -18.1231   19.0043 O   0  0  0  0  0  0  0  0  0  0  0  0
    9.9039  -16.9065   20.1408 C   0  0  2  0  0  0  0  0  0  0  0  0
    9.7883  -15.8824   19.1325 N   0  0  0  0  0  0  0  0  0  0  0  0
   10.7573  -16.4777   21.2754 C   0  0  0  0  0  0  0  0  0  0  0  0
   11.5955  -15.5535   21.1260 O   0  0  0  0  0  0  0  0  0  0  0  0
   12.8057  -16.1213   26.0301 N   0  0  0  0  0  0  0  0  0  0  0  0
   11.4212  -16.5050   26.1107 C   0  0  0  0  0  0  0  0  0  0  0  0
   10.9586  -16.5985   27.2575 O   0  0  0  0  0  0  0  0  0  0  0  0
   10.6135  -16.7672   24.9155 C   0  0  0  0  0  0  0  0  0  0  0  0
   11.3948  -16.6426   23.6544 C   0  0  2  0  0  0  0  0  0  0  0  0
   10.5945  -17.1384   22.5130 N   0  0  0  0  0  0  0  0  0  0  0  0
   12.5940  -17.5509   23.7344 C   0  0  0  0  0  0  0  0  0  0  0  0
   12.4584  -18.8070   23.5021 O   0  0  0  0  0  0  0  0  0  0  0  0
   13.8165  -17.0240   24.0535 O   0  0  0  0  0  0  0  0  0  0  0  0
  2  1  1  6
  2  5  1  0
  3  2  1  0
  4  3  1  0
  5  6  2  0
  8  7  1  6
  8  9  1  0
  8 10  1  0
 10 12  1  0
 11  5  1  0
 10 11  1  6
 12 19  1  0
 13 12  2  0
 15 14  1  0
 16 15  2  0
 17 15  1  0
 18 17  1  1
 19 18  1  0
 20 18  1  0
 20 22  1  0
 21 20  2  0
M  END
$$$$
