CTN.pdb
     RDKit          3D

 22 21  0  0  1  0  0  0  0  0999 V2000
    8.2716  -13.7932   17.6085 N   0  0  0  0  0  0  0  0  0  0  0  0
    9.1388  -13.4517   18.6974 C   0  0  1  0  0  0  0  0  0  0  0  0
    8.2837  -13.1527   19.9151 C   0  0  0  0  0  0  0  0  0  0  0  0
    7.6413  -11.4593   19.8676 S   0  0  0  0  0  0  0  0  0  0  0  0
   10.0825  -14.5337   19.0518 C   0  0  0  0  0  0  0  0  0  0  0  0
    9.6322  -15.7169   18.9872 O   0  0  0  0  0  0  0  0  0  0  0  0
   13.0210  -15.4846   17.2411 C   0  0  0  0  0  0  0  0  0  0  0  0
   13.4800  -15.4060   18.6779 C   0  0  1  0  0  0  0  0  0  0  0  0
   14.2549  -14.2590   18.9008 O   0  0  0  0  0  0  0  0  0  0  0  0
   12.3544  -15.4403   19.6557 C   0  0  2  0  0  0  0  0  0  0  0  0
   11.4151  -14.3662   19.4484 N   0  0  0  0  0  0  0  0  0  0  0  0
   12.8018  -15.5248   21.0671 C   0  0  0  0  0  0  0  0  0  0  0  0
   13.0172  -14.4785   21.7289 O   0  0  0  0  0  0  0  0  0  0  0  0
   12.7488  -18.6439   26.0706 N   0  0  0  0  0  0  0  0  0  0  0  0
   13.6373  -18.3894   24.9678 C   0  0  0  0  0  0  0  0  0  0  0  0
   14.8406  -18.3128   25.2578 O   0  0  0  0  0  0  0  0  0  0  0  0
   13.1503  -18.2319   23.5939 C   0  0  0  0  0  0  0  0  0  0  0  0
   13.4076  -16.8724   23.0445 C   0  0  2  0  0  0  0  0  0  0  0  0
   12.9744  -16.8080   21.6312 N   0  0  0  0  0  0  0  0  0  0  0  0
   14.8944  -16.6301   23.0248 C   0  0  0  0  0  0  0  0  0  0  0  0
   15.5956  -17.0524   22.0348 O   0  0  0  0  0  0  0  0  0  0  0  0
   15.4803  -15.9600   24.0648 O   0  0  0  0  0  0  0  0  0  0  0  0
  2  1  1  6
  2  5  1  0
  3  2  1  0
  4  3  1  0
  5  6  2  0
  8  7  1  6
  8  9  1  0
  8 10  1  0
 10 12  1  0
 11  5  1  0
 10 11  1  1
 12 19  1  0
 13 12  2  0
 15 14  1  0
 16 15  2  0
 17 15  1  0
 18 17  1  6
 19 18  1  0
 20 18  1  0
 20 22  1  0
 21 20  2  0
M  END
$$$$
