CTN.pdb
     RDKit          3D

 22 21  0  0  1  0  0  0  0  0999 V2000
    5.3261  -13.6538   26.5882 N   0  0  0  0  0  0  0  0  0  0  0  0
    6.3367  -13.1577   25.7011 C   0  0  1  0  0  0  0  0  0  0  0  0
    7.3322  -12.3498   26.5133 C   0  0  0  0  0  0  0  0  0  0  0  0
    6.7866  -10.6325   26.7025 S   0  0  0  0  0  0  0  0  0  0  0  0
    7.0759  -14.2307   25.0019 C   0  0  0  0  0  0  0  0  0  0  0  0
    7.3548  -15.2604   25.6867 O   0  0  0  0  0  0  0  0  0  0  0  0
    8.8546  -16.2523   20.7826 C   0  0  0  0  0  0  0  0  0  0  0  0
    8.1559  -15.1265   21.5076 C   0  0  1  0  0  0  0  0  0  0  0  0
    6.8366  -14.9750   21.0576 O   0  0  0  0  0  0  0  0  0  0  0  0
    8.1570  -15.2936   22.9896 C   0  0  2  0  0  0  0  0  0  0  0  0
    7.4900  -14.2079   23.6643 N   0  0  0  0  0  0  0  0  0  0  0  0
    9.5038  -15.5561   23.5523 C   0  0  0  0  0  0  0  0  0  0  0  0
   10.2813  -14.6032   23.8100 O   0  0  0  0  0  0  0  0  0  0  0  0
    9.2928  -19.1560   26.5830 N   0  0  0  0  0  0  0  0  0  0  0  0
   10.4895  -18.3887   26.3602 C   0  0  0  0  0  0  0  0  0  0  0  0
   10.8562  -17.6825   27.3114 O   0  0  0  0  0  0  0  0  0  0  0  0
   11.2246  -18.4402   25.0927 C   0  0  0  0  0  0  0  0  0  0  0  0
   11.2125  -17.1402   24.3673 C   0  0  2  0  0  0  0  0  0  0  0  0
    9.8742  -16.8991   23.7843 N   0  0  0  0  0  0  0  0  0  0  0  0
   12.1556  -17.2291   23.1959 C   0  0  0  0  0  0  0  0  0  0  0  0
   11.7233  -17.6451   22.0601 O   0  0  0  0  0  0  0  0  0  0  0  0
   13.4648  -16.8631   23.3575 O   0  0  0  0  0  0  0  0  0  0  0  0
  2  1  1  1
  2  5  1  0
  3  2  1  0
  4  3  1  0
  5  6  2  0
  8  7  1  6
  8  9  1  0
  8 10  1  0
 10 12  1  0
 11  5  1  0
 10 11  1  1
 12 19  1  0
 13 12  2  0
 15 14  1  0
 16 15  2  0
 17 15  1  0
 18 17  1  6
 19 18  1  0
 20 18  1  0
 20 22  1  0
 21 20  2  0
M  END
$$$$
