CTN.pdb
     RDKit          3D

 22 21  0  0  1  0  0  0  0  0999 V2000
    8.0660  -13.7877   17.4772 N   0  0  0  0  0  0  0  0  0  0  0  0
    9.2838  -13.9130   18.2226 C   0  0  1  0  0  0  0  0  0  0  0  0
    9.6366  -12.5528   18.7958 C   0  0  0  0  0  0  0  0  0  0  0  0
   10.7164  -11.6264   17.6739 S   0  0  0  0  0  0  0  0  0  0  0  0
    9.1848  -14.8732   19.3429 C   0  0  0  0  0  0  0  0  0  0  0  0
    8.1180  -14.8326   20.0265 O   0  0  0  0  0  0  0  0  0  0  0  0
    8.4827  -18.2928   19.7151 C   0  0  0  0  0  0  0  0  0  0  0  0
    9.8004  -18.1128   20.4311 C   0  0  1  0  0  0  0  0  0  0  0  0
   10.8695  -18.5721   19.6488 O   0  0  0  0  0  0  0  0  0  0  0  0
   10.0573  -16.7019   20.8404 C   0  0  2  0  0  0  0  0  0  0  0  0
   10.1565  -15.8124   19.7100 N   0  0  0  0  0  0  0  0  0  0  0  0
   11.2065  -16.5566   21.7665 C   0  0  0  0  0  0  0  0  0  0  0  0
   12.3083  -16.1206   21.3482 O   0  0  0  0  0  0  0  0  0  0  0  0
   10.9673  -18.8634   26.2312 N   0  0  0  0  0  0  0  0  0  0  0  0
   10.6559  -17.5234   25.8092 C   0  0  0  0  0  0  0  0  0  0  0  0
    9.4500  -17.2350   25.7930 O   0  0  0  0  0  0  0  0  0  0  0  0
   11.6967  -16.5650   25.4248 C   0  0  0  0  0  0  0  0  0  0  0  0
   12.1734  -16.7625   24.0283 C   0  0  2  0  0  0  0  0  0  0  0  0
   11.0183  -16.9221   23.1177 N   0  0  0  0  0  0  0  0  0  0  0  0
   12.9319  -18.0620   23.9535 C   0  0  0  0  0  0  0  0  0  0  0  0
   14.0382  -18.1915   24.5933 O   0  0  0  0  0  0  0  0  0  0  0  0
   12.4301  -19.0913   23.2033 O   0  0  0  0  0  0  0  0  0  0  0  0
  2  1  1  1
  2  5  1  0
  3  2  1  0
  4  3  1  0
  5  6  2  0
  8  7  1  6
  8  9  1  0
  8 10  1  0
 10 12  1  0
 11  5  1  0
 10 11  1  6
 12 19  1  0
 13 12  2  0
 15 14  1  0
 16 15  2  0
 17 15  1  0
 18 17  1  1
 19 18  1  0
 20 18  1  0
 20 22  1  0
 21 20  2  0
M  END
$$$$
