CTN.pdb
     RDKit          3D

 22 21  0  0  1  0  0  0  0  0999 V2000
    9.6176  -16.3331   15.7457 N   0  0  0  0  0  0  0  0  0  0  0  0
    8.6652  -16.5529   16.7940 C   0  0  1  0  0  0  0  0  0  0  0  0
    8.5088  -18.0494   16.9929 C   0  0  0  0  0  0  0  0  0  0  0  0
    7.4275  -18.7710   15.7308 S   0  0  0  0  0  0  0  0  0  0  0  0
    9.0717  -15.9569   18.0848 C   0  0  0  0  0  0  0  0  0  0  0  0
   10.3171  -15.9133   18.3173 O   0  0  0  0  0  0  0  0  0  0  0  0
    7.2555  -12.7379   19.9162 C   0  0  0  0  0  0  0  0  0  0  0  0
    7.5907  -13.8894   20.8343 C   0  0  1  0  0  0  0  0  0  0  0  0
    6.4466  -14.6354   21.1507 O   0  0  0  0  0  0  0  0  0  0  0  0
    8.6353  -14.7973   20.2787 C   0  0  2  0  0  0  0  0  0  0  0  0
    8.2099  -15.4427   19.0615 N   0  0  0  0  0  0  0  0  0  0  0  0
    9.1609  -15.7676   21.2696 C   0  0  0  0  0  0  0  0  0  0  0  0
    8.8679  -16.9864   21.1823 O   0  0  0  0  0  0  0  0  0  0  0  0
   12.3316  -17.7058   21.6664 N   0  0  0  0  0  0  0  0  0  0  0  0
   12.8476  -16.7789   22.6385 C   0  0  0  0  0  0  0  0  0  0  0  0
   14.0833  -16.6846   22.6835 O   0  0  0  0  0  0  0  0  0  0  0  0
   11.9693  -15.9991   23.5160 C   0  0  0  0  0  0  0  0  0  0  0  0
   10.5254  -16.2624   23.2661 C   0  0  2  0  0  0  0  0  0  0  0  0
    9.9914  -15.2764   22.3009 N   0  0  0  0  0  0  0  0  0  0  0  0
    9.7619  -16.0337   24.5445 C   0  0  0  0  0  0  0  0  0  0  0  0
    9.0778  -14.9568   24.6939 O   0  0  0  0  0  0  0  0  0  0  0  0
    9.8064  -16.9799   25.5328 O   0  0  0  0  0  0  0  0  0  0  0  0
  2  1  1  6
  2  5  1  0
  3  2  1  0
  4  3  1  0
  5  6  2  0
  8  7  1  6
  8  9  1  0
  8 10  1  0
 10 12  1  0
 11  5  1  0
 10 11  1  6
 12 19  1  0
 13 12  2  0
 15 14  1  0
 16 15  2  0
 17 15  1  0
 18 17  1  1
 19 18  1  0
 20 18  1  0
 20 22  1  0
 21 20  2  0
M  END
$$$$
