CTN.pdb
     RDKit          3D

 22 21  0  0  1  0  0  0  0  0999 V2000
    8.7156  -14.6934   13.8303 N   0  0  0  0  0  0  0  0  0  0  0  0
    8.4665  -15.4377   15.0296 C   0  0  1  0  0  0  0  0  0  0  0  0
    8.8974  -16.8746   14.7997 C   0  0  0  0  0  0  0  0  0  0  0  0
   10.6572  -16.9742   14.3803 S   0  0  0  0  0  0  0  0  0  0  0  0
    9.2035  -14.9179   16.2015 C   0  0  0  0  0  0  0  0  0  0  0  0
   10.2337  -14.2214   15.9550 O   0  0  0  0  0  0  0  0  0  0  0  0
    7.6353  -12.7972   18.9401 C   0  0  0  0  0  0  0  0  0  0  0  0
    8.4876  -13.8600   19.5921 C   0  0  1  0  0  0  0  0  0  0  0  0
    7.6959  -14.8766   20.1448 O   0  0  0  0  0  0  0  0  0  0  0  0
    9.4874  -14.4614   18.6630 C   0  0  2  0  0  0  0  0  0  0  0  0
    8.8661  -15.1262   17.5446 N   0  0  0  0  0  0  0  0  0  0  0  0
   10.4797  -15.3273   19.3449 C   0  0  0  0  0  0  0  0  0  0  0  0
   10.5175  -16.5603   19.1057 O   0  0  0  0  0  0  0  0  0  0  0  0
   14.4360  -13.6846   18.9605 N   0  0  0  0  0  0  0  0  0  0  0  0
   14.3332  -14.9031   19.7189 C   0  0  0  0  0  0  0  0  0  0  0  0
   14.8473  -15.9030   19.1958 O   0  0  0  0  0  0  0  0  0  0  0  0
   13.6649  -14.9564   21.0228 C   0  0  0  0  0  0  0  0  0  0  0  0
   12.3273  -15.6069   20.9577 C   0  0  2  0  0  0  0  0  0  0  0  0
   11.3682  -14.7218   20.2607 N   0  0  0  0  0  0  0  0  0  0  0  0
   11.7937  -15.7609   22.3582 C   0  0  0  0  0  0  0  0  0  0  0  0
   10.7623  -15.0885   22.7244 O   0  0  0  0  0  0  0  0  0  0  0  0
   12.4163  -16.6190   23.2243 O   0  0  0  0  0  0  0  0  0  0  0  0
  2  1  1  6
  2  5  1  0
  3  2  1  0
  4  3  1  0
  5  6  2  0
  8  7  1  6
  8  9  1  0
  8 10  1  0
 10 12  1  0
 11  5  1  0
 10 11  1  6
 12 19  1  0
 13 12  2  0
 15 14  1  0
 16 15  2  0
 17 15  1  0
 18 17  1  1
 19 18  1  0
 20 18  1  0
 20 22  1  0
 21 20  2  0
M  END
$$$$
