CTN.pdb
     RDKit          3D

 22 21  0  0  1  0  0  0  0  0999 V2000
    8.1136  -13.3259   16.0232 N   0  0  0  0  0  0  0  0  0  0  0  0
    8.1729  -14.5687   16.7348 C   0  0  1  0  0  0  0  0  0  0  0  0
    9.1624  -15.4777   16.0292 C   0  0  0  0  0  0  0  0  0  0  0  0
    8.6110  -15.8713   14.3488 S   0  0  0  0  0  0  0  0  0  0  0  0
    8.6091  -14.4154   18.1394 C   0  0  0  0  0  0  0  0  0  0  0  0
    9.5267  -13.5676   18.3545 O   0  0  0  0  0  0  0  0  0  0  0  0
    6.5862  -13.4360   21.1364 C   0  0  0  0  0  0  0  0  0  0  0  0
    7.3822  -14.6602   21.5224 C   0  0  1  0  0  0  0  0  0  0  0  0
    6.5639  -15.7966   21.5903 O   0  0  0  0  0  0  0  0  0  0  0  0
    8.5267  -14.9288   20.6047 C   0  0  2  0  0  0  0  0  0  0  0  0
    8.1024  -15.1179   19.2398 N   0  0  0  0  0  0  0  0  0  0  0  0
    9.4113  -16.0243   21.0702 C   0  0  0  0  0  0  0  0  0  0  0  0
    9.7333  -16.9556   20.2905 O   0  0  0  0  0  0  0  0  0  0  0  0
   13.5542  -17.9364   23.3899 N   0  0  0  0  0  0  0  0  0  0  0  0
   13.5024  -16.9248   22.3679 C   0  0  0  0  0  0  0  0  0  0  0  0
   14.5777  -16.6850   21.7986 O   0  0  0  0  0  0  0  0  0  0  0  0
   12.2602  -16.2259   22.0243 C   0  0  0  0  0  0  0  0  0  0  0  0
   11.0733  -16.7807   22.7312 C   0  0  2  0  0  0  0  0  0  0  0  0
    9.8715  -15.9818   22.4048 N   0  0  0  0  0  0  0  0  0  0  0  0
   11.2748  -16.6230   24.2158 C   0  0  0  0  0  0  0  0  0  0  0  0
   10.6076  -15.7330   24.8582 O   0  0  0  0  0  0  0  0  0  0  0  0
   12.1683  -17.4336   24.8629 O   0  0  0  0  0  0  0  0  0  0  0  0
  2  1  1  6
  2  5  1  0
  3  2  1  0
  4  3  1  0
  5  6  2  0
  8  7  1  6
  8  9  1  0
  8 10  1  0
 10 12  1  0
 11  5  1  0
 10 11  1  6
 12 19  1  0
 13 12  2  0
 15 14  1  0
 16 15  2  0
 17 15  1  0
 18 17  1  6
 19 18  1  0
 20 18  1  0
 20 22  1  0
 21 20  2  0
M  END
$$$$
