CTN.pdb
     RDKit          3D

 22 21  0  0  1  0  0  0  0  0999 V2000
    7.5214  -14.8398   18.3034 N   0  0  0  0  0  0  0  0  0  0  0  0
    8.2994  -14.3102   19.3844 C   0  0  1  0  0  0  0  0  0  0  0  0
    7.9598  -12.8396   19.5433 C   0  0  0  0  0  0  0  0  0  0  0  0
    8.6252  -11.8592   18.1726 S   0  0  0  0  0  0  0  0  0  0  0  0
    8.0395  -14.9848   20.6744 C   0  0  0  0  0  0  0  0  0  0  0  0
    6.8233  -15.1904   20.9670 O   0  0  0  0  0  0  0  0  0  0  0  0
    7.6385  -18.0440   21.8288 C   0  0  0  0  0  0  0  0  0  0  0  0
    8.7040  -17.5243   22.7648 C   0  0  1  0  0  0  0  0  0  0  0  0
    9.9745  -17.9865   22.3935 O   0  0  0  0  0  0  0  0  0  0  0  0
    8.7268  -16.0360   22.8585 C   0  0  2  0  0  0  0  0  0  0  0  0
    9.0093  -15.4110   21.5903 N   0  0  0  0  0  0  0  0  0  0  0  0
    9.6059  -15.5268   23.9389 C   0  0  0  0  0  0  0  0  0  0  0  0
   10.7843  -15.1720   23.6849 O   0  0  0  0  0  0  0  0  0  0  0  0
    7.1877  -14.2997   26.4067 N   0  0  0  0  0  0  0  0  0  0  0  0
    8.1919  -13.5552   27.1192 C   0  0  0  0  0  0  0  0  0  0  0  0
    7.7689  -12.8095   28.0152 O   0  0  0  0  0  0  0  0  0  0  0  0
    9.6192  -13.6723   26.8051 C   0  0  0  0  0  0  0  0  0  0  0  0
    9.9934  -15.0312   26.3258 C   0  0  2  0  0  0  0  0  0  0  0  0
    9.0758  -15.4568   25.2461 N   0  0  0  0  0  0  0  0  0  0  0  0
    9.7855  -16.0157   27.4470 C   0  0  0  0  0  0  0  0  0  0  0  0
    8.8816  -16.9221   27.3394 O   0  0  0  0  0  0  0  0  0  0  0  0
   10.5657  -15.9321   28.5687 O   0  0  0  0  0  0  0  0  0  0  0  0
  2  1  1  6
  2  5  1  0
  3  2  1  0
  4  3  1  0
  5  6  2  0
  8  7  1  6
  8  9  1  0
  8 10  1  0
 10 12  1  0
 11  5  1  0
 10 11  1  6
 12 19  1  0
 13 12  2  0
 15 14  1  0
 16 15  2  0
 17 15  1  0
 18 17  1  1
 19 18  1  0
 20 18  1  0
 20 22  1  0
 21 20  2  0
M  END
$$$$
