CTN.pdb
     RDKit          3D

 22 21  0  0  1  0  0  0  0  0999 V2000
    5.3175  -13.6940   26.3491 N   0  0  0  0  0  0  0  0  0  0  0  0
    6.3498  -13.1776   25.4994 C   0  0  1  0  0  0  0  0  0  0  0  0
    7.2790  -12.3217   26.3404 C   0  0  0  0  0  0  0  0  0  0  0  0
    6.5362  -10.7105   26.7078 S   0  0  0  0  0  0  0  0  0  0  0  0
    7.1565  -14.2356   24.8539 C   0  0  0  0  0  0  0  0  0  0  0  0
    7.3988  -15.2645   25.5537 O   0  0  0  0  0  0  0  0  0  0  0  0
    9.1317  -16.2640   20.7324 C   0  0  0  0  0  0  0  0  0  0  0  0
    8.4166  -15.1288   21.4260 C   0  0  1  0  0  0  0  0  0  0  0  0
    7.1166  -14.9675   20.9264 O   0  0  0  0  0  0  0  0  0  0  0  0
    8.3608  -15.2893   22.9077 C   0  0  2  0  0  0  0  0  0  0  0  0
    7.6703  -14.1995   23.5517 N   0  0  0  0  0  0  0  0  0  0  0  0
    9.6846  -15.5514   23.5227 C   0  0  0  0  0  0  0  0  0  0  0  0
   10.4997  -14.6117   23.7005 O   0  0  0  0  0  0  0  0  0  0  0  0
   10.6320  -17.2065   27.3452 N   0  0  0  0  0  0  0  0  0  0  0  0
   10.5924  -18.3656   26.4936 C   0  0  0  0  0  0  0  0  0  0  0  0
    9.9033  -19.3098   26.9079 O   0  0  0  0  0  0  0  0  0  0  0  0
   11.3187  -18.4242   25.2214 C   0  0  0  0  0  0  0  0  0  0  0  0
   11.3192  -17.1226   24.4986 C   0  0  2  0  0  0  0  0  0  0  0  0
    9.9902  -16.8788   23.8956 N   0  0  0  0  0  0  0  0  0  0  0  0
   12.2801  -17.2101   23.3416 C   0  0  0  0  0  0  0  0  0  0  0  0
   11.9863  -17.9353   22.3229 O   0  0  0  0  0  0  0  0  0  0  0  0
   13.4570  -16.5125   23.3907 O   0  0  0  0  0  0  0  0  0  0  0  0
  2  1  1  1
  2  5  1  0
  3  2  1  0
  4  3  1  0
  5  6  2  0
  8  7  1  6
  8  9  1  0
  8 10  1  0
 10 12  1  0
 11  5  1  0
 10 11  1  1
 12 19  1  0
 13 12  2  0
 15 14  1  0
 16 15  2  0
 17 15  1  0
 18 17  1  6
 19 18  1  0
 20 18  1  0
 20 22  1  0
 21 20  2  0
M  END
$$$$
