CTN.pdb
     RDKit          3D

 22 21  0  0  1  0  0  0  0  0999 V2000
    8.2963  -16.5516   15.5815 N   0  0  0  0  0  0  0  0  0  0  0  0
    7.6904  -16.8800   16.8383 C   0  0  1  0  0  0  0  0  0  0  0  0
    7.6030  -18.3912   16.9474 C   0  0  0  0  0  0  0  0  0  0  0  0
    7.0037  -18.8989   18.5802 S   0  0  0  0  0  0  0  0  0  0  0  0
    8.4530  -16.3777   18.0015 C   0  0  0  0  0  0  0  0  0  0  0  0
    9.7159  -16.4520   17.9211 O   0  0  0  0  0  0  0  0  0  0  0  0
    7.4100  -13.0804   20.1348 C   0  0  0  0  0  0  0  0  0  0  0  0
    7.8925  -14.2218   20.9983 C   0  0  1  0  0  0  0  0  0  0  0  0
    6.8237  -14.8476   21.6554 O   0  0  0  0  0  0  0  0  0  0  0  0
    8.6724  -15.2418   20.2397 C   0  0  2  0  0  0  0  0  0  0  0  0
    7.9070  -15.8336   19.1706 N   0  0  0  0  0  0  0  0  0  0  0  0
    9.3033  -16.2663   21.1067 C   0  0  0  0  0  0  0  0  0  0  0  0
    8.8001  -17.4137   21.2038 O   0  0  0  0  0  0  0  0  0  0  0  0
   14.0972  -15.4770   23.3308 N   0  0  0  0  0  0  0  0  0  0  0  0
   13.2842  -15.8979   22.2207 C   0  0  0  0  0  0  0  0  0  0  0  0
   13.2740  -15.1321   21.2453 O   0  0  0  0  0  0  0  0  0  0  0  0
   12.5201  -17.1490   22.2434 C   0  0  0  0  0  0  0  0  0  0  0  0
   11.1025  -16.9500   22.6523 C   0  0  2  0  0  0  0  0  0  0  0  0
   10.4748  -15.9083   21.8097 N   0  0  0  0  0  0  0  0  0  0  0  0
   11.0740  -16.4073   24.0574 C   0  0  0  0  0  0  0  0  0  0  0  0
   10.6408  -15.2172   24.2719 O   0  0  0  0  0  0  0  0  0  0  0  0
   11.5104  -17.1924   25.0904 O   0  0  0  0  0  0  0  0  0  0  0  0
  2  1  1  6
  2  5  1  0
  3  2  1  0
  4  3  1  0
  5  6  2  0
  8  7  1  6
  8  9  1  0
  8 10  1  0
 10 12  1  0
 11  5  1  0
 10 11  1  6
 12 19  1  0
 13 12  2  0
 15 14  1  0
 16 15  2  0
 17 15  1  0
 18 17  1  6
 19 18  1  0
 20 18  1  0
 20 22  1  0
 21 20  2  0
M  END
$$$$
