CTN.pdb
     RDKit          3D

 22 21  0  0  1  0  0  0  0  0999 V2000
    8.0139  -13.0322   17.1760 N   0  0  0  0  0  0  0  0  0  0  0  0
    8.6005  -13.0249   18.4837 C   0  0  1  0  0  0  0  0  0  0  0  0
    7.4856  -12.9207   19.5081 C   0  0  0  0  0  0  0  0  0  0  0  0
    8.1379  -12.9748   21.1976 S   0  0  0  0  0  0  0  0  0  0  0  0
    9.3835  -14.2444   18.7778 C   0  0  0  0  0  0  0  0  0  0  0  0
    9.1647  -15.2469   18.0334 O   0  0  0  0  0  0  0  0  0  0  0  0
   12.8277  -14.1289   18.1944 C   0  0  0  0  0  0  0  0  0  0  0  0
   12.1361  -15.4293   18.5288 C   0  0  1  0  0  0  0  0  0  0  0  0
   13.0481  -16.4935   18.5675 O   0  0  0  0  0  0  0  0  0  0  0  0
   11.3808  -15.3781   19.8138 C   0  0  2  0  0  0  0  0  0  0  0  0
   10.3346  -14.3861   19.7958 N   0  0  0  0  0  0  0  0  0  0  0  0
   12.2533  -15.2463   21.0058 C   0  0  0  0  0  0  0  0  0  0  0  0
   12.7396  -14.1302   21.3167 O   0  0  0  0  0  0  0  0  0  0  0  0
   10.4675  -18.2960   23.9937 N   0  0  0  0  0  0  0  0  0  0  0  0
   11.3744  -17.2345   24.3421 C   0  0  0  0  0  0  0  0  0  0  0  0
   10.8670  -16.2722   24.9374 O   0  0  0  0  0  0  0  0  0  0  0  0
   12.8024  -17.2893   24.0143 C   0  0  0  0  0  0  0  0  0  0  0  0
   13.2144  -16.2255   23.0577 C   0  0  2  0  0  0  0  0  0  0  0  0
   12.5135  -16.4069   21.7674 N   0  0  0  0  0  0  0  0  0  0  0  0
   14.6800  -16.3903   22.7503 C   0  0  0  0  0  0  0  0  0  0  0  0
   15.5493  -16.2165   23.6798 O   0  0  0  0  0  0  0  0  0  0  0  0
   15.0672  -16.7251   21.4806 O   0  0  0  0  0  0  0  0  0  0  0  0
  2  1  1  6
  2  5  1  0
  3  2  1  0
  4  3  1  0
  5  6  2  0
  8  7  1  1
  8  9  1  0
  8 10  1  0
 10 12  1  0
 11  5  1  0
 10 11  1  6
 12 19  1  0
 13 12  2  0
 15 14  1  0
 16 15  2  0
 17 15  1  0
 18 17  1  1
 19 18  1  0
 20 18  1  0
 20 22  1  0
 21 20  2  0
M  END
$$$$
