CTN.pdb
     RDKit          3D

 22 21  0  0  1  0  0  0  0  0999 V2000
    8.3900  -14.3371   18.4569 N   0  0  0  0  0  0  0  0  0  0  0  0
    9.4580  -14.2951   19.4119 C   0  0  1  0  0  0  0  0  0  0  0  0
    9.7390  -12.8430   19.7525 C   0  0  0  0  0  0  0  0  0  0  0  0
    8.2507  -12.0118   20.3664 S   0  0  0  0  0  0  0  0  0  0  0  0
    9.1449  -15.0103   20.6678 C   0  0  0  0  0  0  0  0  0  0  0  0
    7.9188  -15.0905   20.9792 O   0  0  0  0  0  0  0  0  0  0  0  0
    9.0479  -18.3410   21.2350 C   0  0  0  0  0  0  0  0  0  0  0  0
    9.8861  -17.8695   22.3996 C   0  0  1  0  0  0  0  0  0  0  0  0
   11.2414  -18.1707   22.2039 O   0  0  0  0  0  0  0  0  0  0  0  0
    9.7383  -16.4114   22.6760 C   0  0  2  0  0  0  0  0  0  0  0  0
   10.0751  -15.5997   21.5329 N   0  0  0  0  0  0  0  0  0  0  0  0
   10.4461  -15.9689   23.9018 C   0  0  0  0  0  0  0  0  0  0  0  0
   11.4840  -15.2655   23.8171 O   0  0  0  0  0  0  0  0  0  0  0  0
   10.7143  -13.5256   28.7772 N   0  0  0  0  0  0  0  0  0  0  0  0
   10.1708  -14.8415   28.5686 C   0  0  0  0  0  0  0  0  0  0  0  0
   10.2290  -15.6044   29.5444 O   0  0  0  0  0  0  0  0  0  0  0  0
    9.5877  -15.2505   27.2871 C   0  0  0  0  0  0  0  0  0  0  0  0
   10.5906  -15.8476   26.3630 C   0  0  2  0  0  0  0  0  0  0  0  0
    9.9170  -16.3628   25.1506 N   0  0  0  0  0  0  0  0  0  0  0  0
   11.2070  -17.0511   27.0274 C   0  0  0  0  0  0  0  0  0  0  0  0
   12.1038  -16.8894   27.9327 O   0  0  0  0  0  0  0  0  0  0  0  0
   10.8010  -18.3050   26.6574 O   0  0  0  0  0  0  0  0  0  0  0  0
  2  1  1  6
  2  5  1  0
  3  2  1  0
  4  3  1  0
  5  6  2  0
  8  7  1  6
  8  9  1  0
  8 10  1  0
 10 12  1  0
 11  5  1  0
 10 11  1  6
 12 19  1  0
 13 12  2  0
 15 14  1  0
 16 15  2  0
 17 15  1  0
 18 17  1  1
 19 18  1  0
 20 18  1  0
 20 22  1  0
 21 20  2  0
M  END
$$$$
