CTN.pdb
     RDKit          3D

 22 21  0  0  1  0  0  0  0  0999 V2000
    4.7854  -19.1263   19.4868 N   0  0  0  0  0  0  0  0  0  0  0  0
    4.4869  -18.0198   20.3475 C   0  0  1  0  0  0  0  0  0  0  0  0
    3.5500  -18.5019   21.4399 C   0  0  0  0  0  0  0  0  0  0  0  0
    1.8919  -18.8289   20.7870 S   0  0  0  0  0  0  0  0  0  0  0  0
    5.6864  -17.4424   20.9913 C   0  0  0  0  0  0  0  0  0  0  0  0
    6.6744  -18.2221   21.1426 O   0  0  0  0  0  0  0  0  0  0  0  0
    8.3889  -13.5475   22.5043 C   0  0  0  0  0  0  0  0  0  0  0  0
    7.1773  -14.1327   21.8181 C   0  0  1  0  0  0  0  0  0  0  0  0
    7.2222  -13.9120   20.4342 O   0  0  0  0  0  0  0  0  0  0  0  0
    7.0014  -15.5901   22.0812 C   0  0  2  0  0  0  0  0  0  0  0  0
    5.8237  -16.1241   21.4434 N   0  0  0  0  0  0  0  0  0  0  0  0
    7.0634  -15.9411   23.5207 C   0  0  0  0  0  0  0  0  0  0  0  0
    6.0137  -15.9818   24.2104 O   0  0  0  0  0  0  0  0  0  0  0  0
    8.7644  -20.4097   26.2857 N   0  0  0  0  0  0  0  0  0  0  0  0
    7.9246  -19.2413   26.2695 C   0  0  0  0  0  0  0  0  0  0  0  0
    7.2989  -19.0185   27.3167 O   0  0  0  0  0  0  0  0  0  0  0  0
    7.8177  -18.3738   25.0924 C   0  0  0  0  0  0  0  0  0  0  0  0
    8.3547  -17.0066   25.3346 C   0  0  2  0  0  0  0  0  0  0  0  0
    8.3293  -16.2238   24.0794 N   0  0  0  0  0  0  0  0  0  0  0  0
    9.8082  -17.1163   25.7153 C   0  0  0  0  0  0  0  0  0  0  0  0
   10.1350  -17.2478   26.9506 O   0  0  0  0  0  0  0  0  0  0  0  0
   10.7646  -17.0754   24.7367 O   0  0  0  0  0  0  0  0  0  0  0  0
  2  1  1  6
  2  5  1  0
  3  2  1  0
  4  3  1  0
  5  6  2  0
  8  7  1  1
  8  9  1  0
  8 10  1  0
 10 12  1  0
 11  5  1  0
 10 11  1  1
 12 19  1  0
 13 12  2  0
 15 14  1  0
 16 15  2  0
 17 15  1  0
 18 17  1  6
 19 18  1  0
 20 18  1  0
 20 22  1  0
 21 20  2  0
M  END
$$$$
