CTN.pdb
     RDKit          3D

 22 21  0  0  1  0  0  0  0  0999 V2000
   11.0197  -17.2555   16.0083 N   0  0  0  0  0  0  0  0  0  0  0  0
    9.7496  -17.1467   16.6636 C   0  0  1  0  0  0  0  0  0  0  0  0
    9.3517  -18.5217   17.1681 C   0  0  0  0  0  0  0  0  0  0  0  0
    8.9551  -19.6362   15.7957 S   0  0  0  0  0  0  0  0  0  0  0  0
    9.7662  -16.2204   17.8162 C   0  0  0  0  0  0  0  0  0  0  0  0
   10.8583  -16.1352   18.4541 O   0  0  0  0  0  0  0  0  0  0  0  0
    7.6591  -12.6693   20.6227 C   0  0  0  0  0  0  0  0  0  0  0  0
    7.5770  -13.6412   19.4694 C   0  0  1  0  0  0  0  0  0  0  0  0
    7.5185  -12.9673   18.2414 O   0  0  0  0  0  0  0  0  0  0  0  0
    8.7038  -14.6179   19.4445 C   0  0  2  0  0  0  0  0  0  0  0  0
    8.6921  -15.4384   18.2589 N   0  0  0  0  0  0  0  0  0  0  0  0
    8.8090  -15.4284   20.6820 C   0  0  0  0  0  0  0  0  0  0  0  0
    8.2335  -16.5426   20.7626 O   0  0  0  0  0  0  0  0  0  0  0  0
   10.6925  -18.2916   22.6557 N   0  0  0  0  0  0  0  0  0  0  0  0
   11.5342  -17.2548   23.1917 C   0  0  0  0  0  0  0  0  0  0  0  0
   12.6988  -17.5929   23.4510 O   0  0  0  0  0  0  0  0  0  0  0  0
   11.0454  -15.8908   23.4152 C   0  0  0  0  0  0  0  0  0  0  0  0
    9.6291  -15.7106   22.9931 C   0  0  2  0  0  0  0  0  0  0  0  0
    9.5699  -14.9076   21.7518 N   0  0  0  0  0  0  0  0  0  0  0  0
    8.9109  -14.8968   24.0378 C   0  0  0  0  0  0  0  0  0  0  0  0
    8.8337  -13.6210   23.9095 O   0  0  0  0  0  0  0  0  0  0  0  0
    8.3472  -15.5297   25.1129 O   0  0  0  0  0  0  0  0  0  0  0  0
  2  1  1  1
  2  5  1  0
  3  2  1  0
  4  3  1  0
  5  6  2  0
  8  7  1  1
  8  9  1  0
  8 10  1  0
 10 12  1  0
 11  5  1  0
 10 11  1  6
 12 19  1  0
 13 12  2  0
 15 14  1  0
 16 15  2  0
 17 15  1  0
 18 17  1  1
 19 18  1  0
 20 18  1  0
 20 22  1  0
 21 20  2  0
M  END
$$$$
