CTN.pdb
     RDKit          3D

 22 21  0  0  1  0  0  0  0  0999 V2000
    6.1558  -18.4210   17.2617 N   0  0  0  0  0  0  0  0  0  0  0  0
    6.1165  -17.7252   18.5142 C   0  0  1  0  0  0  0  0  0  0  0  0
    5.9648  -18.7476   19.6255 C   0  0  0  0  0  0  0  0  0  0  0  0
    5.8454  -17.9449   21.2455 S   0  0  0  0  0  0  0  0  0  0  0  0
    7.3375  -16.9342   18.7797 C   0  0  0  0  0  0  0  0  0  0  0  0
    8.4397  -17.4810   18.4745 O   0  0  0  0  0  0  0  0  0  0  0  0
    7.5121  -12.7766   20.3719 C   0  0  0  0  0  0  0  0  0  0  0  0
    8.3896  -13.4301   19.3307 C   0  0  1  0  0  0  0  0  0  0  0  0
    9.6395  -12.7995   19.2525 O   0  0  0  0  0  0  0  0  0  0  0  0
    8.5858  -14.8903   19.5620 C   0  0  2  0  0  0  0  0  0  0  0  0
    7.3810  -15.6485   19.3329 N   0  0  0  0  0  0  0  0  0  0  0  0
    9.1991  -15.2020   20.8758 C   0  0  0  0  0  0  0  0  0  0  0  0
    8.4749  -15.4138   21.8807 O   0  0  0  0  0  0  0  0  0  0  0  0
   11.3857  -18.7350   24.3690 N   0  0  0  0  0  0  0  0  0  0  0  0
   10.8622  -17.4738   23.9153 C   0  0  0  0  0  0  0  0  0  0  0  0
   10.4725  -16.7052   24.8070 O   0  0  0  0  0  0  0  0  0  0  0  0
   10.7953  -17.1231   22.4933 C   0  0  0  0  0  0  0  0  0  0  0  0
   11.1993  -15.7149   22.2283 C   0  0  2  0  0  0  0  0  0  0  0  0
   10.6084  -15.2508   20.9537 N   0  0  0  0  0  0  0  0  0  0  0  0
   12.6913  -15.6680   22.0250 C   0  0  0  0  0  0  0  0  0  0  0  0
   13.1986  -16.1017   20.9275 O   0  0  0  0  0  0  0  0  0  0  0  0
   13.4892  -15.1610   23.0151 O   0  0  0  0  0  0  0  0  0  0  0  0
  2  1  1  6
  2  5  1  0
  3  2  1  0
  4  3  1  0
  5  6  2  0
  8  7  1  1
  8  9  1  0
  8 10  1  0
 10 12  1  0
 11  5  1  0
 10 11  1  1
 12 19  1  0
 13 12  2  0
 15 14  1  0
 16 15  2  0
 17 15  1  0
 18 17  1  6
 19 18  1  0
 20 18  1  0
 20 22  1  0
 21 20  2  0
M  END
$$$$
