CTN.pdb
     RDKit          3D

 22 21  0  0  1  0  0  0  0  0999 V2000
    8.0637  -14.5348   17.0514 N   0  0  0  0  0  0  0  0  0  0  0  0
    8.8694  -13.8800   18.0394 C   0  0  1  0  0  0  0  0  0  0  0  0
    7.9723  -13.4660   19.1914 C   0  0  0  0  0  0  0  0  0  0  0  0
    6.6704  -12.3343   18.6371 S   0  0  0  0  0  0  0  0  0  0  0  0
    9.9439  -14.7410   18.5790 C   0  0  0  0  0  0  0  0  0  0  0  0
    9.6655  -15.9703   18.7142 O   0  0  0  0  0  0  0  0  0  0  0  0
   13.3755  -15.1067   17.2025 C   0  0  0  0  0  0  0  0  0  0  0  0
   13.5472  -15.0243   18.7008 C   0  0  1  0  0  0  0  0  0  0  0  0
   14.1540  -13.8174   19.0762 O   0  0  0  0  0  0  0  0  0  0  0  0
   12.2665  -15.1872   19.4475 C   0  0  2  0  0  0  0  0  0  0  0  0
   11.2273  -14.3206   18.9494 N   0  0  0  0  0  0  0  0  0  0  0  0
   12.4238  -15.0805   20.9183 C   0  0  0  0  0  0  0  0  0  0  0  0
   11.7529  -14.2410   21.5697 O   0  0  0  0  0  0  0  0  0  0  0  0
   11.2301  -18.4803   25.0402 N   0  0  0  0  0  0  0  0  0  0  0  0
   11.6081  -17.1478   24.6503 C   0  0  0  0  0  0  0  0  0  0  0  0
   11.7493  -16.3390   25.5797 O   0  0  0  0  0  0  0  0  0  0  0  0
   11.8123  -16.7737   23.2475 C   0  0  0  0  0  0  0  0  0  0  0  0
   13.1584  -16.1888   22.9980 C   0  0  2  0  0  0  0  0  0  0  0  0
   13.3436  -15.9460   21.5503 N   0  0  0  0  0  0  0  0  0  0  0  0
   14.2062  -17.2028   23.3769 C   0  0  0  0  0  0  0  0  0  0  0  0
   14.8402  -17.0791   24.4872 O   0  0  0  0  0  0  0  0  0  0  0  0
   14.4688  -18.2466   22.5310 O   0  0  0  0  0  0  0  0  0  0  0  0
  2  1  1  6
  2  5  1  0
  3  2  1  0
  4  3  1  0
  5  6  2  0
  8  7  1  6
  8  9  1  0
  8 10  1  0
 10 12  1  0
 11  5  1  0
 10 11  1  6
 12 19  1  0
 13 12  2  0
 15 14  1  0
 16 15  2  0
 17 15  1  0
 18 17  1  6
 19 18  1  0
 20 18  1  0
 20 22  1  0
 21 20  2  0
M  END
$$$$
