QQS.pdb
     RDKit          3D

 25 24  0  0  1  0  0  0  0  0999 V2000
    9.9345  -14.5856   15.3823 N   0  0  0  0  0  0  0  0  0  0  0  0
    8.6198  -14.1592   15.0657 C   0  0  0  0  0  0  0  0  0  0  0  0
    8.3678  -13.8813   13.8677 O   0  0  0  0  0  0  0  0  0  0  0  0
    7.5542  -14.0314   16.0718 C   0  0  0  0  0  0  0  0  0  0  0  0
    8.0143  -14.3803   17.4595 C   0  0  0  0  0  0  0  0  0  0  0  0
    8.0380  -15.8857   17.5988 C   0  0  2  0  0  0  0  0  0  0  0  0
    6.7940  -16.4012   17.0756 N   0  0  0  0  0  0  0  0  0  0  0  0
    8.2852  -16.3065   19.0007 C   0  0  0  0  0  0  0  0  0  0  0  0
    7.3118  -16.4108   19.7614 O   0  0  0  0  0  0  0  0  0  0  0  0
   13.5540  -19.6299   20.6820 N   0  0  0  0  0  0  0  0  0  0  0  0
   12.8105  -19.5011   21.8807 C   0  0  0  0  0  0  0  0  0  0  0  0
   13.1689  -20.1219   22.8981 O   0  0  0  0  0  0  0  0  0  0  0  0
   11.5857  -18.6275   21.9773 C   0  0  0  0  0  0  0  0  0  0  0  0
   11.2347  -17.9553   20.7113 C   0  0  0  0  0  0  0  0  0  0  0  0
   10.0312  -17.0737   20.6885 C   0  0  2  0  0  0  0  0  0  0  0  0
    9.6003  -16.5739   19.4290 N   0  0  0  0  0  0  0  0  0  0  0  0
   10.1348  -16.0661   21.7671 C   0  0  0  0  0  0  0  0  0  0  0  0
   10.8226  -15.0090   21.6264 O   0  0  0  0  0  0  0  0  0  0  0  0
    7.4833  -14.1709   23.2940 O   0  0  0  0  0  0  0  0  0  0  0  0
    8.1563  -14.6613   24.3859 C   0  0  0  0  0  0  0  0  0  0  0  0
    9.5160  -15.2092   24.0476 C   0  0  2  0  0  0  0  0  0  0  0  0
    9.4714  -16.2235   23.0201 N   0  0  0  0  0  0  0  0  0  0  0  0
   10.1986  -15.7058   25.2950 C   0  0  0  0  0  0  0  0  0  0  0  0
   10.5750  -16.8954   25.3419 O   0  0  0  0  0  0  0  0  0  0  0  0
   10.4198  -14.8917   26.3819 O   0  0  0  0  0  0  0  0  0  0  0  0
  1  2  1  0
  2  4  1  0
  3  2  2  0
  4  5  1  0
  6  7  1  1
  6  5  1  0
  8  6  1  0
  8  9  2  0
 10 11  1  0
 11 13  1  0
 12 11  2  0
 13 14  1  0
 15 14  1  6
 15 16  1  0
 15 17  1  0
 16  8  1  0
 17 22  1  0
 17 18  2  0
 20 19  1  0
 21 20  1  1
 22 21  1  0
 23 25  1  0
 23 21  1  0
 24 23  2  0
M  END
$$$$
