QQS.pdb
     RDKit          3D

 25 24  0  0  1  0  0  0  0  0999 V2000
   16.8269  -12.9305   17.4293 N   0  0  0  0  0  0  0  0  0  0  0  0
   16.3939  -14.0880   16.7339 C   0  0  0  0  0  0  0  0  0  0  0  0
   17.1428  -14.5450   15.8361 O   0  0  0  0  0  0  0  0  0  0  0  0
   15.1193  -14.7648   17.0192 C   0  0  0  0  0  0  0  0  0  0  0  0
   14.4899  -14.3099   18.3061 C   0  0  0  0  0  0  0  0  0  0  0  0
   13.5755  -15.4027   18.8120 C   0  0  2  0  0  0  0  0  0  0  0  0
   12.7746  -15.8630   17.7013 N   0  0  0  0  0  0  0  0  0  0  0  0
   12.7513  -14.9458   19.9589 C   0  0  0  0  0  0  0  0  0  0  0  0
   13.3346  -14.5553   20.9808 O   0  0  0  0  0  0  0  0  0  0  0  0
    6.7709  -12.5399   19.5447 N   0  0  0  0  0  0  0  0  0  0  0  0
    7.5499  -13.2236   18.5792 C   0  0  0  0  0  0  0  0  0  0  0  0
    7.2117  -13.1949   17.3818 O   0  0  0  0  0  0  0  0  0  0  0  0
    8.7922  -13.9941   18.9474 C   0  0  0  0  0  0  0  0  0  0  0  0
    9.1541  -13.8903   20.3743 C   0  0  0  0  0  0  0  0  0  0  0  0
   10.3908  -14.5812   20.8425 C   0  0  2  0  0  0  0  0  0  0  0  0
   11.3461  -14.9657   19.8621 N   0  0  0  0  0  0  0  0  0  0  0  0
   10.0313  -15.6309   21.8214 C   0  0  0  0  0  0  0  0  0  0  0  0
    8.9303  -16.2579   21.7506 O   0  0  0  0  0  0  0  0  0  0  0  0
   12.5949  -18.2889   23.4340 O   0  0  0  0  0  0  0  0  0  0  0  0
   11.2242  -18.3629   23.4689 C   0  0  0  0  0  0  0  0  0  0  0  0
   10.5684  -17.0556   23.8213 C   0  0  2  0  0  0  0  0  0  0  0  0
   10.8963  -15.9968   22.8951 N   0  0  0  0  0  0  0  0  0  0  0  0
   10.8973  -16.6783   25.2419 C   0  0  0  0  0  0  0  0  0  0  0  0
   11.5039  -15.6080   25.4551 O   0  0  0  0  0  0  0  0  0  0  0  0
   10.5512  -17.4741   26.3096 O   0  0  0  0  0  0  0  0  0  0  0  0
  1  2  1  0
  2  4  1  0
  3  2  2  0
  4  5  1  0
  6  7  1  6
  6  5  1  0
  8  6  1  0
  8  9  2  0
 10 11  1  0
 11 13  1  0
 12 11  2  0
 13 14  1  0
 15 14  1  6
 15 16  1  0
 15 17  1  0
 16  8  1  0
 17 22  1  0
 17 18  2  0
 20 19  1  0
 21 20  1  6
 22 21  1  0
 23 25  1  0
 23 21  1  0
 24 23  2  0
M  END
$$$$
