QQS.pdb
     RDKit          3D

 25 24  0  0  1  0  0  0  0  0999 V2000
    8.6713  -12.4166   18.6522 N   0  0  0  0  0  0  0  0  0  0  0  0
    7.4908  -13.1394   18.3449 C   0  0  0  0  0  0  0  0  0  0  0  0
    6.5294  -12.5044   17.8464 O   0  0  0  0  0  0  0  0  0  0  0  0
    7.3501  -14.5842   18.5839 C   0  0  0  0  0  0  0  0  0  0  0  0
    8.5572  -15.1887   19.2446 C   0  0  0  0  0  0  0  0  0  0  0  0
    9.4485  -15.7822   18.1770 C   0  0  2  0  0  0  0  0  0  0  0  0
    8.7663  -16.9226   17.6105 N   0  0  0  0  0  0  0  0  0  0  0  0
   10.7913  -16.1265   18.7077 C   0  0  0  0  0  0  0  0  0  0  0  0
   10.9315  -17.2139   19.2864 O   0  0  0  0  0  0  0  0  0  0  0  0
   16.1637  -12.5969   17.4701 N   0  0  0  0  0  0  0  0  0  0  0  0
   16.4941  -13.3693   18.6106 C   0  0  0  0  0  0  0  0  0  0  0  0
   17.6147  -13.2427   19.1372 O   0  0  0  0  0  0  0  0  0  0  0  0
   15.5287  -14.3514   19.2239 C   0  0  0  0  0  0  0  0  0  0  0  0
   14.1963  -14.3490   18.5895 C   0  0  0  0  0  0  0  0  0  0  0  0
   13.1627  -15.2900   19.1112 C   0  0  2  0  0  0  0  0  0  0  0  0
   11.8603  -15.2237   18.5445 N   0  0  0  0  0  0  0  0  0  0  0  0
   13.2090  -15.3063   20.5901 C   0  0  0  0  0  0  0  0  0  0  0  0
   12.6134  -14.4266   21.2842 O   0  0  0  0  0  0  0  0  0  0  0  0
   13.0712  -17.5338   24.6755 O   0  0  0  0  0  0  0  0  0  0  0  0
   13.0234  -17.4321   23.3070 C   0  0  0  0  0  0  0  0  0  0  0  0
   13.9207  -16.3552   22.7606 C   0  0  2  0  0  0  0  0  0  0  0  0
   13.9214  -16.3057   21.3170 N   0  0  0  0  0  0  0  0  0  0  0  0
   15.3121  -16.5101   23.3161 C   0  0  0  0  0  0  0  0  0  0  0  0
   16.2431  -16.7974   22.5353 O   0  0  0  0  0  0  0  0  0  0  0  0
   15.5888  -16.3454   24.6537 O   0  0  0  0  0  0  0  0  0  0  0  0
  1  2  1  0
  2  4  1  0
  3  2  2  0
  4  5  1  0
  6  7  1  1
  6  5  1  0
  8  6  1  0
  8  9  2  0
 10 11  1  0
 11 13  1  0
 12 11  2  0
 13 14  1  0
 15 14  1  1
 15 16  1  0
 15 17  1  0
 16  8  1  0
 17 22  1  0
 17 18  2  0
 20 19  1  0
 21 20  1  6
 22 21  1  0
 23 25  1  0
 23 21  1  0
 24 23  2  0
M  END
$$$$
