QQS.pdb
     RDKit          3D

 25 24  0  0  1  0  0  0  0  0999 V2000
    6.3393  -12.1034   18.6112 N   0  0  0  0  0  0  0  0  0  0  0  0
    7.3539  -12.9995   19.0332 C   0  0  0  0  0  0  0  0  0  0  0  0
    7.1984  -13.5823   20.1341 O   0  0  0  0  0  0  0  0  0  0  0  0
    8.5649  -13.2694   18.2426 C   0  0  0  0  0  0  0  0  0  0  0  0
    8.6396  -14.6880   17.7517 C   0  0  0  0  0  0  0  0  0  0  0  0
   10.0099  -14.9247   17.1582 C   0  0  2  0  0  0  0  0  0  0  0  0
    9.8510  -15.7573   15.9883 N   0  0  0  0  0  0  0  0  0  0  0  0
   10.9479  -15.5076   18.1500 C   0  0  0  0  0  0  0  0  0  0  0  0
   10.9315  -16.7354   18.3208 O   0  0  0  0  0  0  0  0  0  0  0  0
   16.9942  -13.6762   19.5290 N   0  0  0  0  0  0  0  0  0  0  0  0
   16.2562  -14.0007   18.3643 C   0  0  0  0  0  0  0  0  0  0  0  0
   16.7138  -13.7105   17.2439 O   0  0  0  0  0  0  0  0  0  0  0  0
   14.9201  -14.6962   18.4267 C   0  0  0  0  0  0  0  0  0  0  0  0
   14.1719  -14.4339   19.6713 C   0  0  0  0  0  0  0  0  0  0  0  0
   12.8121  -15.0300   19.8182 C   0  0  2  0  0  0  0  0  0  0  0  0
   11.8226  -14.6655   18.8642 N   0  0  0  0  0  0  0  0  0  0  0  0
   12.3864  -14.9502   21.2330 C   0  0  0  0  0  0  0  0  0  0  0  0
   11.6197  -14.0272   21.6462 O   0  0  0  0  0  0  0  0  0  0  0  0
    9.8064  -17.5534   23.5345 O   0  0  0  0  0  0  0  0  0  0  0  0
   10.6702  -17.0414   22.5979 C   0  0  0  0  0  0  0  0  0  0  0  0
   11.9100  -16.4393   23.2011 C   0  0  2  0  0  0  0  0  0  0  0  0
   12.8107  -15.9002   22.2089 N   0  0  0  0  0  0  0  0  0  0  0  0
   12.5936  -17.4449   24.0900 C   0  0  0  0  0  0  0  0  0  0  0  0
   13.2897  -18.3379   23.5639 O   0  0  0  0  0  0  0  0  0  0  0  0
   12.4752  -17.4104   25.4604 O   0  0  0  0  0  0  0  0  0  0  0  0
  1  2  1  0
  2  4  1  0
  3  2  2  0
  4  5  1  0
  6  7  1  6
  6  5  1  0
  8  6  1  0
  8  9  2  0
 10 11  1  0
 11 13  1  0
 12 11  2  0
 13 14  1  0
 15 14  1  1
 15 16  1  0
 15 17  1  0
 16  8  1  0
 17 22  1  0
 17 18  2  0
 20 19  1  0
 21 20  1  6
 22 21  1  0
 23 25  1  0
 23 21  1  0
 24 23  2  0
M  END
$$$$
