QQS.pdb
     RDKit          3D

 25 24  0  0  1  0  0  0  0  0999 V2000
    7.1957  -16.6342   14.5700 N   0  0  0  0  0  0  0  0  0  0  0  0
    8.4054  -15.9011   14.4708 C   0  0  0  0  0  0  0  0  0  0  0  0
    9.4717  -16.5487   14.3306 O   0  0  0  0  0  0  0  0  0  0  0  0
    8.4595  -14.4320   14.5250 C   0  0  0  0  0  0  0  0  0  0  0  0
    9.4691  -13.9193   15.5134 C   0  0  0  0  0  0  0  0  0  0  0  0
    9.0353  -14.3236   16.9043 C   0  0  2  0  0  0  0  0  0  0  0  0
    7.8170  -13.6122   17.2154 N   0  0  0  0  0  0  0  0  0  0  0  0
   10.1049  -14.0885   17.9063 C   0  0  0  0  0  0  0  0  0  0  0  0
   10.7648  -13.0422   17.8244 O   0  0  0  0  0  0  0  0  0  0  0  0
   10.1306  -16.7745   23.7440 N   0  0  0  0  0  0  0  0  0  0  0  0
   11.4506  -16.2784   23.6105 C   0  0  0  0  0  0  0  0  0  0  0  0
   12.2520  -16.3965   24.5555 O   0  0  0  0  0  0  0  0  0  0  0  0
   11.9332  -15.6054   22.3508 C   0  0  0  0  0  0  0  0  0  0  0  0
   10.9011  -15.5000   21.3014 C   0  0  0  0  0  0  0  0  0  0  0  0
   11.3095  -15.0045   19.9547 C   0  0  2  0  0  0  0  0  0  0  0  0
   10.3427  -15.0449   18.9128 N   0  0  0  0  0  0  0  0  0  0  0  0
   12.6381  -15.5548   19.6063 C   0  0  0  0  0  0  0  0  0  0  0  0
   12.8162  -16.7978   19.4227 O   0  0  0  0  0  0  0  0  0  0  0  0
   15.5058  -13.0574   18.1786 O   0  0  0  0  0  0  0  0  0  0  0  0
   15.7566  -14.3984   18.0234 C   0  0  0  0  0  0  0  0  0  0  0  0
   15.0718  -15.2531   19.0549 C   0  0  2  0  0  0  0  0  0  0  0  0
   13.7890  -14.7253   19.4577 N   0  0  0  0  0  0  0  0  0  0  0  0
   15.9830  -15.4704   20.2344 C   0  0  0  0  0  0  0  0  0  0  0  0
   15.5637  -15.1940   21.3775 O   0  0  0  0  0  0  0  0  0  0  0  0
   17.2598  -15.9627   20.0921 O   0  0  0  0  0  0  0  0  0  0  0  0
  1  2  1  0
  2  4  1  0
  3  2  2  0
  4  5  1  0
  6  7  1  1
  6  5  1  0
  8  6  1  0
  8  9  2  0
 10 11  1  0
 11 13  1  0
 12 11  2  0
 13 14  1  0
 15 14  1  1
 15 16  1  0
 15 17  1  0
 16  8  1  0
 17 22  1  0
 17 18  2  0
 20 19  1  0
 21 20  1  6
 22 21  1  0
 23 25  1  0
 23 21  1  0
 24 23  2  0
M  END
$$$$
