QQS.pdb
     RDKit          3D

 25 24  0  0  1  0  0  0  0  0999 V2000
    9.5969  -13.2580   16.3879 N   0  0  0  0  0  0  0  0  0  0  0  0
    8.2064  -13.4335   16.1726 C   0  0  0  0  0  0  0  0  0  0  0  0
    7.7887  -13.3972   14.9894 O   0  0  0  0  0  0  0  0  0  0  0  0
    7.2472  -13.6535   17.2662 C   0  0  0  0  0  0  0  0  0  0  0  0
    7.9055  -13.7342   18.6150 C   0  0  0  0  0  0  0  0  0  0  0  0
    8.5524  -15.0933   18.7587 C   0  0  2  0  0  0  0  0  0  0  0  0
    7.6231  -16.0834   18.2657 N   0  0  0  0  0  0  0  0  0  0  0  0
    8.9786  -15.3567   20.1560 C   0  0  0  0  0  0  0  0  0  0  0  0
    9.6670  -14.5002   20.7300 O   0  0  0  0  0  0  0  0  0  0  0  0
    5.3918  -20.0161   22.6947 N   0  0  0  0  0  0  0  0  0  0  0  0
    6.0232  -19.0192   23.4782 C   0  0  0  0  0  0  0  0  0  0  0  0
    5.9655  -19.0827   24.7198 O   0  0  0  0  0  0  0  0  0  0  0  0
    6.7763  -17.8684   22.8608 C   0  0  0  0  0  0  0  0  0  0  0  0
    8.2192  -18.1265   22.6903 C   0  0  0  0  0  0  0  0  0  0  0  0
    9.0521  -17.0791   22.0306 C   0  0  2  0  0  0  0  0  0  0  0  0
    8.5971  -16.5559   20.7891 N   0  0  0  0  0  0  0  0  0  0  0  0
   10.4748  -17.4845   22.0628 C   0  0  0  0  0  0  0  0  0  0  0  0
   11.0126  -18.1032   21.0941 O   0  0  0  0  0  0  0  0  0  0  0  0
   13.7574  -15.6588   22.0657 O   0  0  0  0  0  0  0  0  0  0  0  0
   13.4461  -16.9925   21.9666 C   0  0  0  0  0  0  0  0  0  0  0  0
   12.7278  -17.5253   23.1764 C   0  0  2  0  0  0  0  0  0  0  0  0
   11.3194  -17.2050   23.1779 N   0  0  0  0  0  0  0  0  0  0  0  0
   13.4107  -17.0529   24.4331 C   0  0  0  0  0  0  0  0  0  0  0  0
   12.7480  -16.4074   25.2716 O   0  0  0  0  0  0  0  0  0  0  0  0
   14.7385  -17.3098   24.6855 O   0  0  0  0  0  0  0  0  0  0  0  0
  1  2  1  0
  2  4  1  0
  3  2  2  0
  4  5  1  0
  6  7  1  1
  6  5  1  0
  8  6  1  0
  8  9  2  0
 10 11  1  0
 11 13  1  0
 12 11  2  0
 13 14  1  0
 15 14  1  6
 15 16  1  0
 15 17  1  0
 16  8  1  0
 17 22  1  0
 17 18  2  0
 20 19  1  0
 21 20  1  6
 22 21  1  0
 23 25  1  0
 23 21  1  0
 24 23  2  0
M  END
$$$$
