QQS.pdb
     RDKit          3D

 25 24  0  0  1  0  0  0  0  0999 V2000
   11.5210  -18.8559   16.1062 N   0  0  0  0  0  0  0  0  0  0  0  0
   12.3053  -18.7884   17.2856 C   0  0  0  0  0  0  0  0  0  0  0  0
   12.8678  -19.8411   17.6747 O   0  0  0  0  0  0  0  0  0  0  0  0
   12.4834  -17.5506   18.0604 C   0  0  0  0  0  0  0  0  0  0  0  0
   11.5990  -16.4312   17.5870 C   0  0  0  0  0  0  0  0  0  0  0  0
   12.3479  -15.1259   17.7337 C   0  0  2  0  0  0  0  0  0  0  0  0
   13.7569  -15.4293   17.8321 N   0  0  0  0  0  0  0  0  0  0  0  0
   11.8534  -14.3323   18.8865 C   0  0  0  0  0  0  0  0  0  0  0  0
   12.6820  -13.9136   19.7082 O   0  0  0  0  0  0  0  0  0  0  0  0
    8.8037  -13.2383   16.9314 N   0  0  0  0  0  0  0  0  0  0  0  0
    7.6871  -13.7914   17.6048 C   0  0  0  0  0  0  0  0  0  0  0  0
    6.8550  -14.4641   16.9690 O   0  0  0  0  0  0  0  0  0  0  0  0
    7.4629  -13.5983   19.0830 C   0  0  0  0  0  0  0  0  0  0  0  0
    8.4834  -12.7535   19.7329 C   0  0  0  0  0  0  0  0  0  0  0  0
    9.8073  -13.3628   20.0525 C   0  0  2  0  0  0  0  0  0  0  0  0
   10.4745  -14.0765   19.0194 N   0  0  0  0  0  0  0  0  0  0  0  0
    9.7300  -14.0604   21.3551 C   0  0  0  0  0  0  0  0  0  0  0  0
    8.7163  -13.9493   22.1103 O   0  0  0  0  0  0  0  0  0  0  0  0
    9.9537  -17.7803   21.6807 O   0  0  0  0  0  0  0  0  0  0  0  0
    9.5519  -16.8667   22.6238 C   0  0  0  0  0  0  0  0  0  0  0  0
   10.5953  -15.8247   22.9224 C   0  0  2  0  0  0  0  0  0  0  0  0
   10.7841  -14.8933   21.8347 N   0  0  0  0  0  0  0  0  0  0  0  0
   11.8875  -16.4866   23.3233 C   0  0  0  0  0  0  0  0  0  0  0  0
   11.9033  -17.2072   24.3428 O   0  0  0  0  0  0  0  0  0  0  0  0
   13.0482  -16.3226   22.6030 O   0  0  0  0  0  0  0  0  0  0  0  0
  1  2  1  0
  2  4  1  0
  3  2  2  0
  4  5  1  0
  6  7  1  1
  6  5  1  0
  8  6  1  0
  8  9  2  0
 10 11  1  0
 11 13  1  0
 12 11  2  0
 13 14  1  0
 15 14  1  6
 15 16  1  0
 15 17  1  0
 16  8  1  0
 17 22  1  0
 17 18  2  0
 20 19  1  0
 21 20  1  6
 22 21  1  0
 23 25  1  0
 23 21  1  0
 24 23  2  0
M  END
$$$$
