QQS.pdb
     RDKit          3D

 25 24  0  0  1  0  0  0  0  0999 V2000
    9.4674  -12.4316   19.2928 N   0  0  0  0  0  0  0  0  0  0  0  0
    8.4783  -13.0680   18.5007 C   0  0  0  0  0  0  0  0  0  0  0  0
    8.5240  -12.8952   17.2582 O   0  0  0  0  0  0  0  0  0  0  0  0
    7.4155  -13.9111   19.0697 C   0  0  0  0  0  0  0  0  0  0  0  0
    7.5607  -14.1155   20.5517 C   0  0  0  0  0  0  0  0  0  0  0  0
    8.7130  -15.0625   20.8004 C   0  0  2  0  0  0  0  0  0  0  0  0
    8.6142  -16.1442   19.8480 N   0  0  0  0  0  0  0  0  0  0  0  0
    8.7414  -15.5403   22.2054 C   0  0  0  0  0  0  0  0  0  0  0  0
    7.8285  -15.1832   22.9643 O   0  0  0  0  0  0  0  0  0  0  0  0
   10.3339  -20.5943   24.8609 N   0  0  0  0  0  0  0  0  0  0  0  0
   10.8327  -19.7026   25.8419 C   0  0  0  0  0  0  0  0  0  0  0  0
   10.7969  -20.0252   27.0434 O   0  0  0  0  0  0  0  0  0  0  0  0
   11.4166  -18.3593   25.4850 C   0  0  0  0  0  0  0  0  0  0  0  0
   11.0840  -17.9115   24.1188 C   0  0  0  0  0  0  0  0  0  0  0  0
   10.0561  -16.8425   23.9552 C   0  0  2  0  0  0  0  0  0  0  0  0
    9.7892  -16.3763   22.6387 N   0  0  0  0  0  0  0  0  0  0  0  0
   10.2745  -15.7863   24.9682 C   0  0  0  0  0  0  0  0  0  0  0  0
   11.3173  -15.0631   24.9613 O   0  0  0  0  0  0  0  0  0  0  0  0
    8.4350  -12.6660   28.1405 O   0  0  0  0  0  0  0  0  0  0  0  0
    8.2580  -13.6929   27.2463 C   0  0  0  0  0  0  0  0  0  0  0  0
    9.5216  -14.4597   26.9660 C   0  0  2  0  0  0  0  0  0  0  0  0
    9.3313  -15.5211   26.0049 N   0  0  0  0  0  0  0  0  0  0  0  0
   10.1134  -14.9700   28.2536 C   0  0  0  0  0  0  0  0  0  0  0  0
    9.9972  -16.1820   28.5304 O   0  0  0  0  0  0  0  0  0  0  0  0
   10.7764  -14.1447   29.1323 O   0  0  0  0  0  0  0  0  0  0  0  0
  1  2  1  0
  2  4  1  0
  3  2  2  0
  4  5  1  0
  6  7  1  6
  6  5  1  0
  8  6  1  0
  8  9  2  0
 10 11  1  0
 11 13  1  0
 12 11  2  0
 13 14  1  0
 15 14  1  6
 15 16  1  0
 15 17  1  0
 16  8  1  0
 17 22  1  0
 17 18  2  0
 20 19  1  0
 21 20  1  1
 22 21  1  0
 23 25  1  0
 23 21  1  0
 24 23  2  0
M  END
$$$$
