QEV.pdb
     RDKit          3D

 26 25  0  0  1  0  0  0  0  0999 V2000
    8.0664  -12.4305   18.3747 N   0  0  0  0  0  0  0  0  0  0  0  0
    8.3984  -13.4565   17.4701 C   0  0  0  0  0  0  0  0  0  0  0  0
    8.7204  -13.1720   16.3015 O   0  0  0  0  0  0  0  0  0  0  0  0
    8.3629  -14.8620   17.9118 C   0  0  0  0  0  0  0  0  0  0  0  0
    7.8990  -14.9569   19.3297 C   0  0  0  0  0  0  0  0  0  0  0  0
    7.9822  -16.3102   19.9388 C   0  0  2  0  0  0  0  0  0  0  0  0
    7.0437  -17.2073   19.2871 N   0  0  0  0  0  0  0  0  0  0  0  0
    7.7611  -16.3711   21.3857 C   0  0  0  0  0  0  0  0  0  0  0  0
    6.6237  -16.1540   21.8581 O   0  0  0  0  0  0  0  0  0  0  0  0
    8.7835  -16.6705   22.3222 N   0  0  0  0  0  0  0  0  0  0  0  0
    8.5514  -16.6978   23.7824 C   0  0  1  0  0  0  0  0  0  0  0  0
    9.4424  -17.7890   24.3238 C   0  0  0  0  0  0  0  0  0  0  0  0
    9.4342  -17.8545   25.8118 C   0  0  0  0  0  0  0  0  0  0  0  0
   10.3345  -18.8567   26.4083 C   0  0  0  0  0  0  0  0  0  0  0  0
   11.5820  -18.8401   26.3424 O   0  0  0  0  0  0  0  0  0  0  0  0
    8.7858  -15.3739   24.3668 C   0  0  0  0  0  0  0  0  0  0  0  0
    9.7995  -14.6731   24.1484 O   0  0  0  0  0  0  0  0  0  0  0  0
    9.7953  -19.9453   27.1236 O   0  0  0  0  0  0  0  0  0  0  0  0
    5.7962  -13.2797   26.7184 C   0  0  0  0  0  0  0  0  0  0  0  0
    6.8765  -12.6132   25.8964 C   0  0  1  0  0  0  0  0  0  0  0  0
    7.2164  -11.2921   26.5800 C   0  0  0  0  0  0  0  0  0  0  0  0
    8.0889  -13.5193   25.9077 C   0  0  2  0  0  0  0  0  0  0  0  0
    7.8181  -14.7848   25.2626 N   0  0  0  0  0  0  0  0  0  0  0  0
    8.4855  -13.7702   27.3128 C   0  0  0  0  0  0  0  0  0  0  0  0
    8.4212  -15.0505   27.8220 O   0  0  0  0  0  0  0  0  0  0  0  0
    8.8866  -12.8487   28.0773 O   0  0  0  0  0  0  0  0  0  0  0  0
  2  4  1  0
  2  1  1  0
  3  2  2  0
  5  4  1  0
  6  5  1  0
  6  8  1  0
  6  7  1  6
  8 10  1  0
  9  8  2  0
 10 11  1  0
 11 12  1  1
 11 16  1  0
 12 13  1  0
 13 14  1  0
 14 18  1  0
 14 15  2  0
 16 17  2  0
 20 19  1  1
 20 22  1  0
 21 20  1  0
 22 24  1  0
 22 23  1  1
 23 16  1  0
 24 25  1  0
 26 24  2  0
M  END
$$$$
