QEV.pdb
     RDKit          3D

 26 25  0  0  1  0  0  0  0  0999 V2000
    7.5689  -12.3941   18.4988 N   0  0  0  0  0  0  0  0  0  0  0  0
    8.5552  -12.5970   19.4823 C   0  0  0  0  0  0  0  0  0  0  0  0
    9.2694  -11.6452   19.8491 O   0  0  0  0  0  0  0  0  0  0  0  0
    8.7367  -13.9351   20.0723 C   0  0  0  0  0  0  0  0  0  0  0  0
    7.6674  -14.8677   19.6017 C   0  0  0  0  0  0  0  0  0  0  0  0
    7.7095  -16.2336   20.1864 C   0  0  2  0  0  0  0  0  0  0  0  0
    6.6210  -17.0355   19.6553 N   0  0  0  0  0  0  0  0  0  0  0  0
    7.6708  -16.3008   21.6493 C   0  0  0  0  0  0  0  0  0  0  0  0
    6.5982  -16.1000   22.2601 O   0  0  0  0  0  0  0  0  0  0  0  0
    8.8055  -16.5886   22.4503 N   0  0  0  0  0  0  0  0  0  0  0  0
    8.7379  -16.7135   23.9223 C   0  0  1  0  0  0  0  0  0  0  0  0
    9.7018  -17.8150   24.2899 C   0  0  0  0  0  0  0  0  0  0  0  0
    9.8631  -17.9720   25.7622 C   0  0  0  0  0  0  0  0  0  0  0  0
   10.8830  -18.9459   26.1891 C   0  0  0  0  0  0  0  0  0  0  0  0
   12.0927  -18.6939   26.3735 O   0  0  0  0  0  0  0  0  0  0  0  0
    9.0136  -15.4239   24.5625 C   0  0  0  0  0  0  0  0  0  0  0  0
    9.9832  -14.6853   24.2784 O   0  0  0  0  0  0  0  0  0  0  0  0
   10.5168  -20.2871   26.4226 O   0  0  0  0  0  0  0  0  0  0  0  0
    6.8040  -12.4079   25.1972 C   0  0  0  0  0  0  0  0  0  0  0  0
    7.3160  -12.8205   26.5590 C   0  0  1  0  0  0  0  0  0  0  0  0
    6.1944  -13.5892   27.2514 C   0  0  0  0  0  0  0  0  0  0  0  0
    8.5041  -13.7339   26.3470 C   0  0  2  0  0  0  0  0  0  0  0  0
    8.1436  -14.9172   25.5981 N   0  0  0  0  0  0  0  0  0  0  0  0
    9.0346  -14.1433   27.6682 C   0  0  0  0  0  0  0  0  0  0  0  0
    9.6118  -13.2009   28.4938 O   0  0  0  0  0  0  0  0  0  0  0  0
    8.9807  -15.3362   28.0787 O   0  0  0  0  0  0  0  0  0  0  0  0
  2  4  1  0
  2  1  1  0
  3  2  2  0
  5  4  1  0
  6  5  1  0
  6  8  1  0
  6  7  1  6
  8 10  1  0
  9  8  2  0
 10 11  1  0
 11 12  1  1
 11 16  1  0
 12 13  1  0
 13 14  1  0
 14 18  1  0
 14 15  2  0
 16 17  2  0
 20 19  1  6
 20 22  1  0
 21 20  1  0
 22 24  1  0
 22 23  1  6
 23 16  1  0
 24 25  1  0
 26 24  2  0
M  END
$$$$
