QEV.pdb
     RDKit          3D

 26 25  0  0  1  0  0  0  0  0999 V2000
    9.5833  -13.0682   17.5261 N   0  0  0  0  0  0  0  0  0  0  0  0
    8.2894  -13.4325   17.1086 C   0  0  0  0  0  0  0  0  0  0  0  0
    8.0552  -13.6082   15.8984 O   0  0  0  0  0  0  0  0  0  0  0  0
    7.2189  -13.6039   18.1069 C   0  0  0  0  0  0  0  0  0  0  0  0
    7.7529  -13.4116   19.4899 C   0  0  0  0  0  0  0  0  0  0  0  0
    8.4848  -14.5737   20.0584 C   0  0  2  0  0  0  0  0  0  0  0  0
    8.3060  -15.7380   19.2084 N   0  0  0  0  0  0  0  0  0  0  0  0
    8.1311  -14.9378   21.4326 C   0  0  0  0  0  0  0  0  0  0  0  0
    7.2046  -14.3404   22.0231 O   0  0  0  0  0  0  0  0  0  0  0  0
    8.7892  -15.9577   22.1666 N   0  0  0  0  0  0  0  0  0  0  0  0
    8.4408  -16.2928   23.5641 C   0  0  1  0  0  0  0  0  0  0  0  0
    9.0267  -17.6595   23.8215 C   0  0  0  0  0  0  0  0  0  0  0  0
    9.0981  -18.4968   22.5918 C   0  0  0  0  0  0  0  0  0  0  0  0
    9.6891  -19.8350   22.7680 C   0  0  0  0  0  0  0  0  0  0  0  0
   10.8006  -20.1993   22.3290 O   0  0  0  0  0  0  0  0  0  0  0  0
    8.9104  -15.2468   24.4777 C   0  0  0  0  0  0  0  0  0  0  0  0
   10.0260  -14.6852   24.3974 O   0  0  0  0  0  0  0  0  0  0  0  0
    8.9835  -20.8239   23.4832 O   0  0  0  0  0  0  0  0  0  0  0  0
    7.1339  -12.0475   25.3673 C   0  0  0  0  0  0  0  0  0  0  0  0
    7.4464  -12.7080   26.6913 C   0  0  1  0  0  0  0  0  0  0  0  0
    6.1718  -13.4009   27.1644 C   0  0  0  0  0  0  0  0  0  0  0  0
    8.5267  -13.7397   26.4478 C   0  0  2  0  0  0  0  0  0  0  0  0
    8.0745  -14.7908   25.5637 N   0  0  0  0  0  0  0  0  0  0  0  0
    8.9187  -14.3373   27.7454 C   0  0  0  0  0  0  0  0  0  0  0  0
    9.5005  -13.5455   28.7136 O   0  0  0  0  0  0  0  0  0  0  0  0
    8.7408  -15.5594   28.0086 O   0  0  0  0  0  0  0  0  0  0  0  0
  2  4  1  0
  2  1  1  0
  3  2  2  0
  5  4  1  0
  6  5  1  0
  6  8  1  0
  6  7  1  6
  8 10  1  0
  9  8  2  0
 10 11  1  0
 11 12  1  1
 11 16  1  0
 12 13  1  0
 13 14  1  0
 14 18  1  0
 14 15  2  0
 16 17  2  0
 20 19  1  6
 20 22  1  0
 21 20  1  0
 22 24  1  0
 22 23  1  6
 23 16  1  0
 24 25  1  0
 26 24  2  0
M  END
$$$$
