QEV.pdb
     RDKit          3D

 26 25  0  0  1  0  0  0  0  0999 V2000
    6.7657  -12.6731   16.3048 N   0  0  0  0  0  0  0  0  0  0  0  0
    7.1437  -14.0283   16.2630 C   0  0  0  0  0  0  0  0  0  0  0  0
    6.9161  -14.7039   15.2421 O   0  0  0  0  0  0  0  0  0  0  0  0
    7.8069  -14.6398   17.4284 C   0  0  0  0  0  0  0  0  0  0  0  0
    7.8719  -13.6716   18.5654 C   0  0  0  0  0  0  0  0  0  0  0  0
    8.9629  -13.9116   19.5460 C   0  0  2  0  0  0  0  0  0  0  0  0
    9.9617  -14.7964   18.9718 N   0  0  0  0  0  0  0  0  0  0  0  0
    8.5458  -14.4536   20.8415 C   0  0  0  0  0  0  0  0  0  0  0  0
    7.5607  -13.9675   21.4392 O   0  0  0  0  0  0  0  0  0  0  0  0
    9.2043  -15.5306   21.4885 N   0  0  0  0  0  0  0  0  0  0  0  0
    8.7264  -16.1162   22.7595 C   0  0  1  0  0  0  0  0  0  0  0  0
    9.3251  -17.4997   22.8299 C   0  0  0  0  0  0  0  0  0  0  0  0
   10.8099  -17.4800   22.9456 C   0  0  0  0  0  0  0  0  0  0  0  0
   11.4602  -18.8009   23.0018 C   0  0  0  0  0  0  0  0  0  0  0  0
   12.6900  -18.9992   23.0967 O   0  0  0  0  0  0  0  0  0  0  0  0
    9.0683  -15.2463   23.8889 C   0  0  0  0  0  0  0  0  0  0  0  0
   10.1497  -14.6268   24.0034 O   0  0  0  0  0  0  0  0  0  0  0  0
   10.6757  -19.9710   22.9476 O   0  0  0  0  0  0  0  0  0  0  0  0
    6.0492  -13.6257   26.4177 C   0  0  0  0  0  0  0  0  0  0  0  0
    7.3758  -12.9918   26.0640 C   0  0  1  0  0  0  0  0  0  0  0  0
    7.7186  -12.0063   27.1773 C   0  0  0  0  0  0  0  0  0  0  0  0
    8.4146  -14.0917   26.0195 C   0  0  2  0  0  0  0  0  0  0  0  0
    8.1353  -15.0507   24.9739 N   0  0  0  0  0  0  0  0  0  0  0  0
    8.4259  -14.7921   27.3249 C   0  0  0  0  0  0  0  0  0  0  0  0
    8.9252  -14.1507   28.4394 O   0  0  0  0  0  0  0  0  0  0  0  0
    7.9914  -15.9695   27.4646 O   0  0  0  0  0  0  0  0  0  0  0  0
  2  4  1  0
  2  1  1  0
  3  2  2  0
  5  4  1  0
  6  5  1  0
  6  8  1  0
  6  7  1  6
  8 10  1  0
  9  8  2  0
 10 11  1  0
 11 12  1  1
 11 16  1  0
 12 13  1  0
 13 14  1  0
 14 18  1  0
 14 15  2  0
 16 17  2  0
 20 19  1  1
 20 22  1  0
 21 20  1  0
 22 24  1  0
 22 23  1  6
 23 16  1  0
 24 25  1  0
 26 24  2  0
M  END
$$$$
