QEV.pdb
     RDKit          3D

 26 25  0  0  1  0  0  0  0  0999 V2000
    7.8317  -12.0461   18.4146 N   0  0  0  0  0  0  0  0  0  0  0  0
    7.9506  -13.2391   17.6771 C   0  0  0  0  0  0  0  0  0  0  0  0
    7.4627  -13.3121   16.5339 O   0  0  0  0  0  0  0  0  0  0  0  0
    8.6521  -14.3952   18.2628 C   0  0  0  0  0  0  0  0  0  0  0  0
    7.9824  -14.8333   19.5254 C   0  0  0  0  0  0  0  0  0  0  0  0
    8.5154  -16.0822   20.1300 C   0  0  2  0  0  0  0  0  0  0  0  0
    8.0380  -17.2366   19.3885 N   0  0  0  0  0  0  0  0  0  0  0  0
    8.2147  -16.2801   21.5500 C   0  0  0  0  0  0  0  0  0  0  0  0
    7.0403  -16.4993   21.9199 O   0  0  0  0  0  0  0  0  0  0  0  0
    9.1979  -16.2398   22.5717 N   0  0  0  0  0  0  0  0  0  0  0  0
    8.8730  -16.4039   24.0050 C   0  0  1  0  0  0  0  0  0  0  0  0
    9.6359  -17.6214   24.4666 C   0  0  0  0  0  0  0  0  0  0  0  0
    9.2416  -18.8591   23.7378 C   0  0  0  0  0  0  0  0  0  0  0  0
   10.0384  -20.0593   24.0470 C   0  0  0  0  0  0  0  0  0  0  0  0
   10.3184  -20.4669   25.1943 O   0  0  0  0  0  0  0  0  0  0  0  0
    9.1778  -15.1766   24.7466 C   0  0  0  0  0  0  0  0  0  0  0  0
   10.2400  -14.5248   24.6310 O   0  0  0  0  0  0  0  0  0  0  0  0
   10.5515  -20.8490   22.9980 O   0  0  0  0  0  0  0  0  0  0  0  0
    7.3505  -11.9576   25.0216 C   0  0  0  0  0  0  0  0  0  0  0  0
    7.4824  -12.4273   26.4530 C   0  0  1  0  0  0  0  0  0  0  0  0
    6.1474  -13.0501   26.8507 C   0  0  0  0  0  0  0  0  0  0  0  0
    8.5683  -13.4809   26.4939 C   0  0  2  0  0  0  0  0  0  0  0  0
    8.2279  -14.6329   25.6890 N   0  0  0  0  0  0  0  0  0  0  0  0
    8.7620  -13.9141   27.8973 C   0  0  0  0  0  0  0  0  0  0  0  0
    9.2785  -13.0284   28.8200 O   0  0  0  0  0  0  0  0  0  0  0  0
    8.4701  -15.0773   28.2925 O   0  0  0  0  0  0  0  0  0  0  0  0
  2  4  1  0
  2  1  1  0
  3  2  2  0
  5  4  1  0
  6  5  1  0
  6  8  1  0
  6  7  1  6
  8 10  1  0
  9  8  2  0
 10 11  1  0
 11 12  1  1
 11 16  1  0
 12 13  1  0
 13 14  1  0
 14 18  1  0
 14 15  2  0
 16 17  2  0
 20 19  1  6
 20 22  1  0
 21 20  1  0
 22 24  1  0
 22 23  1  6
 23 16  1  0
 24 25  1  0
 26 24  2  0
M  END
$$$$
