QEV.pdb
     RDKit          3D

 26 25  0  0  1  0  0  0  0  0999 V2000
    8.3000  -13.6585   15.3032 N   0  0  0  0  0  0  0  0  0  0  0  0
    7.6773  -14.7368   15.9595 C   0  0  0  0  0  0  0  0  0  0  0  0
    6.8295  -15.4222   15.3579 O   0  0  0  0  0  0  0  0  0  0  0  0
    8.0326  -15.0482   17.3554 C   0  0  0  0  0  0  0  0  0  0  0  0
    7.4012  -14.0679   18.2908 C   0  0  0  0  0  0  0  0  0  0  0  0
    8.2613  -13.6140   19.4149 C   0  0  2  0  0  0  0  0  0  0  0  0
    9.6539  -13.6020   19.0020 N   0  0  0  0  0  0  0  0  0  0  0  0
    8.1467  -14.3854   20.6551 C   0  0  0  0  0  0  0  0  0  0  0  0
    7.0335  -14.5277   21.2069 O   0  0  0  0  0  0  0  0  0  0  0  0
    9.2497  -15.0050   21.2966 N   0  0  0  0  0  0  0  0  0  0  0  0
    9.1141  -15.8000   22.5361 C   0  0  1  0  0  0  0  0  0  0  0  0
   10.1724  -16.8732   22.4585 C   0  0  0  0  0  0  0  0  0  0  0  0
   10.2160  -17.7286   23.6770 C   0  0  0  0  0  0  0  0  0  0  0  0
   11.2475  -18.7807   23.6777 C   0  0  0  0  0  0  0  0  0  0  0  0
   11.5944  -19.4556   22.6852 O   0  0  0  0  0  0  0  0  0  0  0  0
    9.2086  -14.9355   23.7162 C   0  0  0  0  0  0  0  0  0  0  0  0
   10.1617  -14.1589   23.9505 O   0  0  0  0  0  0  0  0  0  0  0  0
   11.9305  -19.0916   24.8712 O   0  0  0  0  0  0  0  0  0  0  0  0
    7.1441  -12.3414   27.2182 C   0  0  0  0  0  0  0  0  0  0  0  0
    6.9909  -13.1961   25.9801 C   0  0  1  0  0  0  0  0  0  0  0  0
    6.8927  -12.2511   24.7861 C   0  0  0  0  0  0  0  0  0  0  0  0
    8.2342  -14.0499   25.8531 C   0  0  2  0  0  0  0  0  0  0  0  0
    8.1622  -14.9349   24.7118 N   0  0  0  0  0  0  0  0  0  0  0  0
    8.3848  -14.8616   27.0832 C   0  0  0  0  0  0  0  0  0  0  0  0
    8.9629  -14.3021   28.2037 O   0  0  0  0  0  0  0  0  0  0  0  0
    8.0009  -16.0626   27.1523 O   0  0  0  0  0  0  0  0  0  0  0  0
  2  4  1  0
  2  1  1  0
  3  2  2  0
  5  4  1  0
  6  5  1  0
  6  8  1  0
  6  7  1  6
  8 10  1  0
  9  8  2  0
 10 11  1  0
 11 12  1  1
 11 16  1  0
 12 13  1  0
 13 14  1  0
 14 18  1  0
 14 15  2  0
 16 17  2  0
 20 19  1  1
 20 22  1  0
 21 20  1  0
 22 24  1  0
 22 23  1  6
 23 16  1  0
 24 25  1  0
 26 24  2  0
M  END
$$$$
