QEV.pdb
     RDKit          3D

 26 25  0  0  1  0  0  0  0  0999 V2000
    8.6862  -13.8368   16.5393 N   0  0  0  0  0  0  0  0  0  0  0  0
    8.8198  -13.3326   17.8467 C   0  0  0  0  0  0  0  0  0  0  0  0
    9.9266  -13.3718   18.4158 O   0  0  0  0  0  0  0  0  0  0  0  0
    7.6484  -12.7611   18.5345 C   0  0  0  0  0  0  0  0  0  0  0  0
    7.6013  -13.2134   19.9585 C   0  0  0  0  0  0  0  0  0  0  0  0
    7.7269  -14.6798   20.1666 C   0  0  2  0  0  0  0  0  0  0  0  0
    6.6615  -15.3745   19.4648 N   0  0  0  0  0  0  0  0  0  0  0  0
    7.7377  -15.1256   21.5620 C   0  0  0  0  0  0  0  0  0  0  0  0
    6.6983  -15.0532   22.2536 O   0  0  0  0  0  0  0  0  0  0  0  0
    8.8857  -15.6533   22.2067 N   0  0  0  0  0  0  0  0  0  0  0  0
    8.8568  -16.1901   23.5843 C   0  0  1  0  0  0  0  0  0  0  0  0
    9.8283  -17.3448   23.6001 C   0  0  0  0  0  0  0  0  0  0  0  0
    9.9440  -17.9824   24.9412 C   0  0  0  0  0  0  0  0  0  0  0  0
   10.8913  -19.1074   25.0300 C   0  0  0  0  0  0  0  0  0  0  0  0
   11.8340  -19.1977   25.8449 O   0  0  0  0  0  0  0  0  0  0  0  0
    9.1515  -15.1328   24.5561 C   0  0  0  0  0  0  0  0  0  0  0  0
   10.1548  -14.3862   24.5075 O   0  0  0  0  0  0  0  0  0  0  0  0
   10.7686  -20.1983   24.1455 O   0  0  0  0  0  0  0  0  0  0  0  0
    7.1673  -12.1946   25.5545 C   0  0  0  0  0  0  0  0  0  0  0  0
    7.4108  -12.9221   26.8577 C   0  0  1  0  0  0  0  0  0  0  0  0
    6.1487  -13.7188   27.1749 C   0  0  0  0  0  0  0  0  0  0  0  0
    8.5718  -13.8699   26.6463 C   0  0  2  0  0  0  0  0  0  0  0  0
    8.2614  -14.8874   25.6668 N   0  0  0  0  0  0  0  0  0  0  0  0
    8.8955  -14.5249   27.9350 C   0  0  0  0  0  0  0  0  0  0  0  0
    9.3797  -13.7690   28.9823 O   0  0  0  0  0  0  0  0  0  0  0  0
    8.7450  -15.7649   28.1201 O   0  0  0  0  0  0  0  0  0  0  0  0
  2  4  1  0
  2  1  1  0
  3  2  2  0
  5  4  1  0
  6  5  1  0
  6  8  1  0
  6  7  1  6
  8 10  1  0
  9  8  2  0
 10 11  1  0
 11 12  1  6
 11 16  1  0
 12 13  1  0
 13 14  1  0
 14 18  1  0
 14 15  2  0
 16 17  2  0
 20 19  1  6
 20 22  1  0
 21 20  1  0
 22 24  1  0
 22 23  1  6
 23 16  1  0
 24 25  1  0
 26 24  2  0
M  END
$$$$
