QEV.pdb
     RDKit          3D

 26 25  0  0  1  0  0  0  0  0999 V2000
   10.0347  -12.3485   18.9346 N   0  0  0  0  0  0  0  0  0  0  0  0
    9.0485  -12.9528   18.1324 C   0  0  0  0  0  0  0  0  0  0  0  0
    9.3706  -13.4998   17.0612 O   0  0  0  0  0  0  0  0  0  0  0  0
    7.6400  -12.9345   18.5653 C   0  0  0  0  0  0  0  0  0  0  0  0
    7.5042  -13.5046   19.9405 C   0  0  0  0  0  0  0  0  0  0  0  0
    7.9826  -14.9027   20.1015 C   0  0  2  0  0  0  0  0  0  0  0  0
    7.2099  -15.7933   19.2529 N   0  0  0  0  0  0  0  0  0  0  0  0
    7.9661  -15.4271   21.4693 C   0  0  0  0  0  0  0  0  0  0  0  0
    6.8827  -15.7390   22.0105 O   0  0  0  0  0  0  0  0  0  0  0  0
    9.1352  -15.6133   22.2507 N   0  0  0  0  0  0  0  0  0  0  0  0
    9.1039  -16.1628   23.6233 C   0  0  1  0  0  0  0  0  0  0  0  0
   10.0823  -17.3117   23.6326 C   0  0  0  0  0  0  0  0  0  0  0  0
    9.7102  -18.3934   22.6787 C   0  0  0  0  0  0  0  0  0  0  0  0
   10.6349  -19.5392   22.6255 C   0  0  0  0  0  0  0  0  0  0  0  0
   10.9059  -20.2962   23.5818 O   0  0  0  0  0  0  0  0  0  0  0  0
    9.3882  -15.1126   24.6058 C   0  0  0  0  0  0  0  0  0  0  0  0
   10.4443  -14.4419   24.6397 O   0  0  0  0  0  0  0  0  0  0  0  0
   11.2954  -19.8512   21.4197 O   0  0  0  0  0  0  0  0  0  0  0  0
    7.3588  -12.0929   25.5311 C   0  0  0  0  0  0  0  0  0  0  0  0
    7.5794  -12.8250   26.8358 C   0  0  1  0  0  0  0  0  0  0  0  0
    6.3027  -13.6031   27.1406 C   0  0  0  0  0  0  0  0  0  0  0  0
    8.7280  -13.7898   26.6342 C   0  0  2  0  0  0  0  0  0  0  0  0
    8.4232  -14.7834   25.6288 N   0  0  0  0  0  0  0  0  0  0  0  0
    9.0091  -14.4739   27.9178 C   0  0  0  0  0  0  0  0  0  0  0  0
    9.4922  -13.7481   28.9866 O   0  0  0  0  0  0  0  0  0  0  0  0
    8.8226  -15.7123   28.0792 O   0  0  0  0  0  0  0  0  0  0  0  0
  2  4  1  0
  2  1  1  0
  3  2  2  0
  5  4  1  0
  6  5  1  0
  6  8  1  0
  6  7  1  6
  8 10  1  0
  9  8  2  0
 10 11  1  0
 11 12  1  6
 11 16  1  0
 12 13  1  0
 13 14  1  0
 14 18  1  0
 14 15  2  0
 16 17  2  0
 20 19  1  6
 20 22  1  0
 21 20  1  0
 22 24  1  0
 22 23  1  6
 23 16  1  0
 24 25  1  0
 26 24  2  0
M  END
$$$$
