QEV.pdb
     RDKit          3D

 26 25  0  0  1  0  0  0  0  0999 V2000
    8.0217  -12.0009   18.9776 N   0  0  0  0  0  0  0  0  0  0  0  0
    8.3138  -12.9273   17.9590 C   0  0  0  0  0  0  0  0  0  0  0  0
    8.4889  -12.5303   16.7919 O   0  0  0  0  0  0  0  0  0  0  0  0
    8.4109  -14.3624   18.2801 C   0  0  0  0  0  0  0  0  0  0  0  0
    8.1364  -14.5972   19.7306 C   0  0  0  0  0  0  0  0  0  0  0  0
    8.1537  -16.0198   20.1609 C   0  0  2  0  0  0  0  0  0  0  0  0
    7.1151  -16.7617   19.4673 N   0  0  0  0  0  0  0  0  0  0  0  0
    8.0125  -16.2506   21.6007 C   0  0  0  0  0  0  0  0  0  0  0  0
    6.8761  -16.3310   22.1165 O   0  0  0  0  0  0  0  0  0  0  0  0
    9.1142  -16.3952   22.4824 N   0  0  0  0  0  0  0  0  0  0  0  0
    8.9555  -16.5933   23.9392 C   0  0  1  0  0  0  0  0  0  0  0  0
    9.8225  -17.7765   24.2939 C   0  0  0  0  0  0  0  0  0  0  0  0
    9.8270  -18.0706   25.7540 C   0  0  0  0  0  0  0  0  0  0  0  0
   10.7180  -19.1644   26.1789 C   0  0  0  0  0  0  0  0  0  0  0  0
   11.5436  -19.1039   27.1146 O   0  0  0  0  0  0  0  0  0  0  0  0
    9.2789  -15.3616   24.6654 C   0  0  0  0  0  0  0  0  0  0  0  0
   10.4148  -14.8372   24.6994 O   0  0  0  0  0  0  0  0  0  0  0  0
   10.6761  -20.4032   25.5074 O   0  0  0  0  0  0  0  0  0  0  0  0
    7.1360  -12.0526   25.0427 C   0  0  0  0  0  0  0  0  0  0  0  0
    7.4736  -12.5711   26.4226 C   0  0  1  0  0  0  0  0  0  0  0  0
    6.2361  -13.2896   26.9524 C   0  0  0  0  0  0  0  0  0  0  0  0
    8.6125  -13.5574   26.2781 C   0  0  2  0  0  0  0  0  0  0  0  0
    8.2603  -14.6595   25.4108 N   0  0  0  0  0  0  0  0  0  0  0  0
    8.9573  -14.0895   27.6170 C   0  0  0  0  0  0  0  0  0  0  0  0
    9.4527  -13.2384   28.5829 O   0  0  0  0  0  0  0  0  0  0  0  0
    8.8153  -15.3076   27.9180 O   0  0  0  0  0  0  0  0  0  0  0  0
  2  4  1  0
  2  1  1  0
  3  2  2  0
  5  4  1  0
  6  5  1  0
  6  8  1  0
  6  7  1  6
  8 10  1  0
  9  8  2  0
 10 11  1  0
 11 12  1  1
 11 16  1  0
 12 13  1  0
 13 14  1  0
 14 18  1  0
 14 15  2  0
 16 17  2  0
 20 19  1  6
 20 22  1  0
 21 20  1  0
 22 24  1  0
 22 23  1  6
 23 16  1  0
 24 25  1  0
 26 24  2  0
M  END
$$$$
