QEV.pdb
     RDKit          3D

 26 25  0  0  1  0  0  0  0  0999 V2000
   10.5390  -12.3797   18.9698 N   0  0  0  0  0  0  0  0  0  0  0  0
    9.4897  -12.8532   18.1599 C   0  0  0  0  0  0  0  0  0  0  0  0
    9.7477  -13.4689   17.1088 O   0  0  0  0  0  0  0  0  0  0  0  0
    8.0914  -12.6172   18.5609 C   0  0  0  0  0  0  0  0  0  0  0  0
    7.8050  -13.2638   19.8779 C   0  0  0  0  0  0  0  0  0  0  0  0
    8.2023  -14.6920   19.9872 C   0  0  2  0  0  0  0  0  0  0  0  0
    7.3731  -15.5067   19.1160 N   0  0  0  0  0  0  0  0  0  0  0  0
    8.1649  -15.2611   21.3366 C   0  0  0  0  0  0  0  0  0  0  0  0
    7.0688  -15.5196   21.8802 O   0  0  0  0  0  0  0  0  0  0  0  0
    9.3269  -15.5506   22.0968 N   0  0  0  0  0  0  0  0  0  0  0  0
    9.2722  -16.1019   23.4679 C   0  0  1  0  0  0  0  0  0  0  0  0
   10.3663  -17.1386   23.5422 C   0  0  0  0  0  0  0  0  0  0  0  0
   10.1990  -18.2261   22.5384 C   0  0  0  0  0  0  0  0  0  0  0  0
   11.2145  -19.2927   22.5823 C   0  0  0  0  0  0  0  0  0  0  0  0
   11.4030  -20.0744   23.5385 O   0  0  0  0  0  0  0  0  0  0  0  0
    9.3817  -15.0283   24.4601 C   0  0  0  0  0  0  0  0  0  0  0  0
   10.2657  -14.1424   24.4501 O   0  0  0  0  0  0  0  0  0  0  0  0
   12.0709  -19.4905   21.4801 O   0  0  0  0  0  0  0  0  0  0  0  0
    6.9819  -12.4065   25.4993 C   0  0  0  0  0  0  0  0  0  0  0  0
    7.2963  -13.1477   26.7794 C   0  0  1  0  0  0  0  0  0  0  0  0
    6.1513  -14.1245   27.0306 C   0  0  0  0  0  0  0  0  0  0  0  0
    8.5827  -13.9153   26.5632 C   0  0  2  0  0  0  0  0  0  0  0  0
    8.4350  -14.9332   25.5467 N   0  0  0  0  0  0  0  0  0  0  0  0
    8.9746  -14.5608   27.8377 C   0  0  0  0  0  0  0  0  0  0  0  0
    9.0044  -15.9371   27.9249 O   0  0  0  0  0  0  0  0  0  0  0  0
    9.2878  -13.8958   28.8644 O   0  0  0  0  0  0  0  0  0  0  0  0
  2  4  1  0
  2  1  1  0
  3  2  2  0
  5  4  1  0
  6  5  1  0
  6  8  1  0
  6  7  1  6
  8 10  1  0
  9  8  2  0
 10 11  1  0
 11 12  1  6
 11 16  1  0
 12 13  1  0
 13 14  1  0
 14 18  1  0
 14 15  2  0
 16 17  2  0
 20 19  1  6
 20 22  1  0
 21 20  1  0
 22 24  1  0
 22 23  1  6
 23 16  1  0
 24 25  1  0
 26 24  2  0
M  END
$$$$
