QEV.pdb
     RDKit          3D

 26 25  0  0  1  0  0  0  0  0999 V2000
    4.9904  -18.9238   18.5469 N   0  0  0  0  0  0  0  0  0  0  0  0
    6.3711  -19.1557   18.6918 C   0  0  0  0  0  0  0  0  0  0  0  0
    6.8648  -20.2269   18.2927 O   0  0  0  0  0  0  0  0  0  0  0  0
    7.2247  -18.1289   19.3155 C   0  0  0  0  0  0  0  0  0  0  0  0
    6.4290  -16.9033   19.6309 C   0  0  0  0  0  0  0  0  0  0  0  0
    7.1847  -15.8032   20.2852 C   0  0  2  0  0  0  0  0  0  0  0  0
    8.4974  -15.6715   19.6773 N   0  0  0  0  0  0  0  0  0  0  0  0
    7.3497  -15.9201   21.7362 C   0  0  0  0  0  0  0  0  0  0  0  0
    6.3992  -15.6466   22.5015 O   0  0  0  0  0  0  0  0  0  0  0  0
    8.5553  -16.3376   22.3561 N   0  0  0  0  0  0  0  0  0  0  0  0
    8.6951  -16.4853   23.8208 C   0  0  1  0  0  0  0  0  0  0  0  0
    9.7548  -17.5389   24.0323 C   0  0  0  0  0  0  0  0  0  0  0  0
   10.0938  -17.7349   25.4693 C   0  0  0  0  0  0  0  0  0  0  0  0
   11.1550  -18.7199   25.7428 C   0  0  0  0  0  0  0  0  0  0  0  0
   12.3807  -18.4788   25.7566 O   0  0  0  0  0  0  0  0  0  0  0  0
    8.9897  -15.1914   24.4439 C   0  0  0  0  0  0  0  0  0  0  0  0
    9.9989  -14.4964   24.1893 O   0  0  0  0  0  0  0  0  0  0  0  0
   10.8134  -20.0597   26.0178 O   0  0  0  0  0  0  0  0  0  0  0  0
    7.0654  -12.0296   24.6894 C   0  0  0  0  0  0  0  0  0  0  0  0
    7.3267  -12.4092   26.1297 C   0  0  1  0  0  0  0  0  0  0  0  0
    6.0507  -13.0490   26.6688 C   0  0  0  0  0  0  0  0  0  0  0  0
    8.4498  -13.4238   26.1421 C   0  0  2  0  0  0  0  0  0  0  0  0
    8.0924  -14.6277   25.4253 N   0  0  0  0  0  0  0  0  0  0  0  0
    8.7620  -13.7747   27.5471 C   0  0  0  0  0  0  0  0  0  0  0  0
    9.2727  -12.8127   28.3936 O   0  0  0  0  0  0  0  0  0  0  0  0
    8.5781  -14.9344   28.0115 O   0  0  0  0  0  0  0  0  0  0  0  0
  2  4  1  0
  2  1  1  0
  3  2  2  0
  5  4  1  0
  6  5  1  0
  6  8  1  0
  6  7  1  6
  8 10  1  0
  9  8  2  0
 10 11  1  0
 11 12  1  6
 11 16  1  0
 12 13  1  0
 13 14  1  0
 14 18  1  0
 14 15  2  0
 16 17  2  0
 20 19  1  6
 20 22  1  0
 21 20  1  0
 22 24  1  0
 22 23  1  6
 23 16  1  0
 24 25  1  0
 26 24  2  0
M  END
$$$$
