QEV.pdb
     RDKit          3D

 26 25  0  0  1  0  0  0  0  0999 V2000
    6.6144  -13.5391   17.5753 N   0  0  0  0  0  0  0  0  0  0  0  0
    7.9065  -13.6797   17.0351 C   0  0  0  0  0  0  0  0  0  0  0  0
    8.2009  -13.0994   15.9735 O   0  0  0  0  0  0  0  0  0  0  0  0
    8.9038  -14.5134   17.7296 C   0  0  0  0  0  0  0  0  0  0  0  0
    9.2030  -13.9576   19.0847 C   0  0  0  0  0  0  0  0  0  0  0  0
    9.6466  -14.9506   20.0977 C   0  0  2  0  0  0  0  0  0  0  0  0
    9.6343  -16.2853   19.5243 N   0  0  0  0  0  0  0  0  0  0  0  0
    8.8815  -14.9701   21.3469 C   0  0  0  0  0  0  0  0  0  0  0  0
    8.3132  -13.9327   21.7528 O   0  0  0  0  0  0  0  0  0  0  0  0
    8.7342  -16.1250   22.1570 N   0  0  0  0  0  0  0  0  0  0  0  0
    7.9281  -16.1382   23.3968 C   0  0  1  0  0  0  0  0  0  0  0  0
    7.7645  -17.5913   23.7699 C   0  0  0  0  0  0  0  0  0  0  0  0
    8.9812  -18.1619   24.4121 C   0  0  0  0  0  0  0  0  0  0  0  0
    8.8754  -19.5694   24.8349 C   0  0  0  0  0  0  0  0  0  0  0  0
    9.2083  -20.0167   25.9529 O   0  0  0  0  0  0  0  0  0  0  0  0
    8.5580  -15.3110   24.4303 C   0  0  0  0  0  0  0  0  0  0  0  0
    9.7933  -15.2205   24.6091 O   0  0  0  0  0  0  0  0  0  0  0  0
    8.3625  -20.5325   23.9423 O   0  0  0  0  0  0  0  0  0  0  0  0
    7.3929  -11.6832   25.2644 C   0  0  0  0  0  0  0  0  0  0  0  0
    7.5451  -12.4217   26.5752 C   0  0  1  0  0  0  0  0  0  0  0  0
    6.1469  -12.8267   27.0326 C   0  0  0  0  0  0  0  0  0  0  0  0
    8.3739  -13.6606   26.3124 C   0  0  2  0  0  0  0  0  0  0  0  0
    7.7514  -14.5243   25.3338 N   0  0  0  0  0  0  0  0  0  0  0  0
    8.5336  -14.4076   27.5817 C   0  0  0  0  0  0  0  0  0  0  0  0
    9.2524  -13.8478   28.6173 O   0  0  0  0  0  0  0  0  0  0  0  0
    8.0323  -15.5527   27.7603 O   0  0  0  0  0  0  0  0  0  0  0  0
  2  4  1  0
  2  1  1  0
  3  2  2  0
  5  4  1  0
  6  5  1  0
  6  8  1  0
  6  7  1  6
  8 10  1  0
  9  8  2  0
 10 11  1  0
 11 12  1  1
 11 16  1  0
 12 13  1  0
 13 14  1  0
 14 18  1  0
 14 15  2  0
 16 17  2  0
 20 19  1  6
 20 22  1  0
 21 20  1  0
 22 24  1  0
 22 23  1  6
 23 16  1  0
 24 25  1  0
 26 24  2  0
M  END
$$$$
