SWT.pdb
     RDKit          3D

 28 29  0  0  1  0  0  0  0  0999 V2000
   28.7218  -17.8844  -15.1514 O   0  0  0  0  0  0  0  0  0  0  0  0
   28.1456  -19.0438  -15.6113 C   0  0  0  0  0  0  0  0  0  0  0  0
   28.8126  -20.2816  -14.9976 C   0  0  2  0  0  0  0  0  0  0  0  0
   29.1490  -21.1444  -16.1004 N   0  0  0  0  0  0  0  0  0  0  0  0
   27.8954  -20.9369  -14.0294 C   0  0  0  0  0  0  0  0  0  0  0  0
   26.9703  -21.6685  -14.4638 O   0  0  0  0  0  0  0  0  0  0  0  0
   28.0132  -20.7760  -12.6196 N   0  0  0  0  0  0  0  0  0  0  0  0
   27.0804  -21.3607  -11.6898 C   0  0  1  0  0  0  0  0  0  0  0  0
   27.6612  -21.6206  -10.3416 C   0  0  0  0  0  0  0  0  0  0  0  0
   26.9370  -21.0117   -9.2074 C   0  0  0  0  0  0  0  0  0  0  0  0
   25.5688  -20.7062   -9.1688 C   0  0  0  0  0  0  0  0  0  0  0  0
   25.2562  -20.1436   -7.9892 N   0  0  0  0  0  0  0  0  0  0  0  0
   26.3752  -20.0615   -7.2312 C   0  0  0  0  0  0  0  0  0  0  0  0
   26.5622  -19.5722   -5.9558 C   0  0  0  0  0  0  0  0  0  0  0  0
   27.8424  -19.6362   -5.4423 C   0  0  0  0  0  0  0  0  0  0  0  0
   28.8994  -20.1576   -6.1461 C   0  0  0  0  0  0  0  0  0  0  0  0
   28.6725  -20.6337   -7.4110 C   0  0  0  0  0  0  0  0  0  0  0  0
   27.4104  -20.5939   -7.9744 C   0  0  0  0  0  0  0  0  0  0  0  0
   25.8204  -20.5779  -11.6710 C   0  0  0  0  0  0  0  0  0  0  0  0
   25.8382  -19.3381  -11.4258 O   0  0  0  0  0  0  0  0  0  0  0  0
   23.3116  -21.8116  -14.3938 C   0  0  0  0  0  0  0  0  0  0  0  0
   23.3677  -20.4076  -13.8610 C   0  0  1  0  0  0  0  0  0  0  0  0
   22.2876  -19.6509  -14.3079 O   0  0  0  0  0  0  0  0  0  0  0  0
   23.4000  -20.3703  -12.3323 C   0  0  2  0  0  0  0  0  0  0  0  0
   24.5482  -21.1518  -11.9208 N   0  0  0  0  0  0  0  0  0  0  0  0
   22.1802  -21.0625  -11.8821 C   0  0  0  0  0  0  0  0  0  0  0  0
   22.1928  -22.3656  -11.4067 O   0  0  0  0  0  0  0  0  0  0  0  0
   21.0840  -20.4660  -11.9243 O   0  0  0  0  0  0  0  0  0  0  0  0
  2  1  1  0
  2  3  1  0
  3  5  1  0
  3  4  1  6
  5  6  2  0
  7  8  1  0
  7  5  1  0
  8  9  1  1
  9 10  1  0
 10 18  1  0
 11 10  2  0
 11 12  1  0
 12 13  1  0
 13 14  1  0
 14 15  2  0
 16 15  1  0
 17 16  2  0
 18 13  2  0
 18 17  1  0
 19 25  1  0
 19  8  1  0
 20 19  2  0
 22 21  1  1
 23 22  1  0
 24 25  1  1
 24 22  1  0
 26 24  1  0
 27 26  1  0
 28 26  2  0
M  END
$$$$
