SWT.pdb
     RDKit          3D

 28 29  0  0  1  0  0  0  0  0999 V2000
   28.1371  -19.1061  -17.2567 O   0  0  0  0  0  0  0  0  0  0  0  0
   27.3500  -20.1652  -16.8738 C   0  0  0  0  0  0  0  0  0  0  0  0
   28.1138  -21.1254  -15.9527 C   0  0  2  0  0  0  0  0  0  0  0  0
   28.3269  -22.3283  -16.7153 N   0  0  0  0  0  0  0  0  0  0  0  0
   27.3388  -21.3763  -14.7100 C   0  0  0  0  0  0  0  0  0  0  0  0
   26.2786  -22.0481  -14.7767 O   0  0  0  0  0  0  0  0  0  0  0  0
   27.7411  -20.8890  -13.4341 N   0  0  0  0  0  0  0  0  0  0  0  0
   26.9639  -21.1030  -12.2398 C   0  0  1  0  0  0  0  0  0  0  0  0
   27.7472  -20.9539  -10.9801 C   0  0  0  0  0  0  0  0  0  0  0  0
   26.9512  -20.9001   -9.7371 C   0  0  0  0  0  0  0  0  0  0  0  0
   25.7043  -21.5069   -9.5273 C   0  0  0  0  0  0  0  0  0  0  0  0
   25.2624  -21.2335   -8.2880 N   0  0  0  0  0  0  0  0  0  0  0  0
   26.1764  -20.4596   -7.6562 C   0  0  0  0  0  0  0  0  0  0  0  0
   26.1800  -19.9323   -6.3824 C   0  0  0  0  0  0  0  0  0  0  0  0
   27.2787  -19.1784   -6.0200 C   0  0  0  0  0  0  0  0  0  0  0  0
   28.3334  -18.9482   -6.8680 C   0  0  0  0  0  0  0  0  0  0  0  0
   28.2920  -19.4897   -8.1262 C   0  0  0  0  0  0  0  0  0  0  0  0
   27.2160  -20.2523   -8.5416 C   0  0  0  0  0  0  0  0  0  0  0  0
   25.7229  -20.2915  -12.2864 C   0  0  0  0  0  0  0  0  0  0  0  0
   25.7812  -19.0289  -12.2970 O   0  0  0  0  0  0  0  0  0  0  0  0
   23.5179  -19.4971  -14.8470 C   0  0  0  0  0  0  0  0  0  0  0  0
   22.6859  -20.2361  -13.8370 C   0  0  1  0  0  0  0  0  0  0  0  0
   22.6159  -21.5949  -14.1328 O   0  0  0  0  0  0  0  0  0  0  0  0
   23.2186  -20.0657  -12.4135 C   0  0  2  0  0  0  0  0  0  0  0  0
   24.4254  -20.8618  -12.3223 N   0  0  0  0  0  0  0  0  0  0  0  0
   22.2029  -20.6564  -11.5251 C   0  0  0  0  0  0  0  0  0  0  0  0
   21.0003  -20.0259  -11.2418 O   0  0  0  0  0  0  0  0  0  0  0  0
   22.4188  -21.7679  -10.9984 O   0  0  0  0  0  0  0  0  0  0  0  0
  2  1  1  0
  2  3  1  0
  3  5  1  0
  3  4  1  6
  5  6  2  0
  7  8  1  0
  7  5  1  0
  8  9  1  1
  9 10  1  0
 10 18  1  0
 11 10  2  0
 11 12  1  0
 12 13  1  0
 13 14  1  0
 14 15  2  0
 16 15  1  0
 17 16  2  0
 18 13  2  0
 18 17  1  0
 19 25  1  0
 19  8  1  0
 20 19  2  0
 22 21  1  6
 23 22  1  0
 24 25  1  6
 24 22  1  0
 26 24  1  0
 27 26  1  0
 28 26  2  0
M  END
$$$$
