SWT.pdb
     RDKit          3D

 28 29  0  0  1  0  0  0  0  0999 V2000
   27.6832  -20.4545  -16.0567 O   0  0  0  0  0  0  0  0  0  0  0  0
   27.3659  -20.0020  -14.7988 C   0  0  0  0  0  0  0  0  0  0  0  0
   28.0498  -20.8427  -13.7129 C   0  0  2  0  0  0  0  0  0  0  0  0
   28.5349  -22.0288  -14.3699 N   0  0  0  0  0  0  0  0  0  0  0  0
   27.0917  -21.1557  -12.6210 C   0  0  0  0  0  0  0  0  0  0  0  0
   26.4442  -22.2320  -12.6667 O   0  0  0  0  0  0  0  0  0  0  0  0
   26.8681  -20.2886  -11.5141 N   0  0  0  0  0  0  0  0  0  0  0  0
   25.8039  -20.4977  -10.5653 C   0  0  1  0  0  0  0  0  0  0  0  0
   26.0648  -19.8916   -9.2285 C   0  0  0  0  0  0  0  0  0  0  0  0
   27.3244  -20.3038   -8.5765 C   0  0  0  0  0  0  0  0  0  0  0  0
   28.2927  -21.1620   -9.1177 C   0  0  0  0  0  0  0  0  0  0  0  0
   29.2974  -21.3324   -8.2417 N   0  0  0  0  0  0  0  0  0  0  0  0
   29.0339  -20.6130   -7.1253 C   0  0  0  0  0  0  0  0  0  0  0  0
   29.7591  -20.4612   -5.9626 C   0  0  0  0  0  0  0  0  0  0  0  0
   29.2216  -19.6386   -4.9924 C   0  0  0  0  0  0  0  0  0  0  0  0
   28.0227  -18.9890   -5.1508 C   0  0  0  0  0  0  0  0  0  0  0  0
   27.3319  -19.1659   -6.3211 C   0  0  0  0  0  0  0  0  0  0  0  0
   27.8234  -19.9788   -7.3259 C   0  0  0  0  0  0  0  0  0  0  0  0
   24.5026  -20.1144  -11.1656 C   0  0  0  0  0  0  0  0  0  0  0  0
   24.2522  -18.9059  -11.4383 O   0  0  0  0  0  0  0  0  0  0  0  0
   23.1023  -21.2291  -14.4332 C   0  0  0  0  0  0  0  0  0  0  0  0
   22.1203  -21.5911  -13.3548 C   0  0  1  0  0  0  0  0  0  0  0  0
   22.2715  -22.9159  -12.9537 O   0  0  0  0  0  0  0  0  0  0  0  0
   22.2476  -20.6848  -12.1294 C   0  0  2  0  0  0  0  0  0  0  0  0
   23.4822  -21.0518  -11.4663 N   0  0  0  0  0  0  0  0  0  0  0  0
   21.1226  -21.0348  -11.2453 C   0  0  0  0  0  0  0  0  0  0  0  0
   19.8093  -20.6970  -11.5378 O   0  0  0  0  0  0  0  0  0  0  0  0
   21.3439  -21.6598  -10.1871 O   0  0  0  0  0  0  0  0  0  0  0  0
  2  1  1  0
  2  3  1  0
  3  5  1  0
  3  4  1  6
  5  6  2  0
  7  8  1  0
  7  5  1  0
  8  9  1  1
  9 10  1  0
 10 18  1  0
 11 10  2  0
 11 12  1  0
 12 13  1  0
 13 14  1  0
 14 15  2  0
 16 15  1  0
 17 16  2  0
 18 13  2  0
 18 17  1  0
 19 25  1  0
 19  8  1  0
 20 19  2  0
 22 21  1  6
 23 22  1  0
 24 25  1  1
 24 22  1  0
 26 24  1  0
 27 26  1  0
 28 26  2  0
M  END
$$$$
