SWT.pdb
     RDKit          3D

 28 29  0  0  1  0  0  0  0  0999 V2000
   26.5870  -20.7113  -17.6975 O   0  0  0  0  0  0  0  0  0  0  0  0
   27.2934  -21.8895  -17.6724 C   0  0  0  0  0  0  0  0  0  0  0  0
   28.2133  -21.9643  -16.4469 C   0  0  2  0  0  0  0  0  0  0  0  0
   28.9103  -23.2207  -16.5445 N   0  0  0  0  0  0  0  0  0  0  0  0
   27.4183  -21.8570  -15.1961 C   0  0  0  0  0  0  0  0  0  0  0  0
   26.9288  -22.8993  -14.6924 O   0  0  0  0  0  0  0  0  0  0  0  0
   27.1809  -20.6199  -14.5325 N   0  0  0  0  0  0  0  0  0  0  0  0
   26.3826  -20.5195  -13.3371 C   0  0  1  0  0  0  0  0  0  0  0  0
   26.9279  -19.5647  -12.3305 C   0  0  0  0  0  0  0  0  0  0  0  0
   27.7651  -20.1639  -11.2715 C   0  0  0  0  0  0  0  0  0  0  0  0
   28.9908  -20.8194  -11.4588 C   0  0  0  0  0  0  0  0  0  0  0  0
   29.4638  -21.2560  -10.2792 N   0  0  0  0  0  0  0  0  0  0  0  0
   28.5918  -20.9131   -9.3018 C   0  0  0  0  0  0  0  0  0  0  0  0
   28.6372  -21.1297   -7.9410 C   0  0  0  0  0  0  0  0  0  0  0  0
   27.5832  -20.6421   -7.1939 C   0  0  0  0  0  0  0  0  0  0  0  0
   26.5256  -19.9690   -7.7533 C   0  0  0  0  0  0  0  0  0  0  0  0
   26.5174  -19.7741   -9.1098 C   0  0  0  0  0  0  0  0  0  0  0  0
   27.5468  -20.2415   -9.9058 C   0  0  0  0  0  0  0  0  0  0  0  0
   24.9609  -20.2872  -13.6911 C   0  0  0  0  0  0  0  0  0  0  0  0
   24.6129  -19.2309  -14.2919 O   0  0  0  0  0  0  0  0  0  0  0  0
   22.6164  -22.4162  -15.8310 C   0  0  0  0  0  0  0  0  0  0  0  0
   22.0621  -22.2698  -14.4419 C   0  0  1  0  0  0  0  0  0  0  0  0
   22.3978  -23.3599  -13.6433 O   0  0  0  0  0  0  0  0  0  0  0  0
   22.5438  -20.9886  -13.7594 C   0  0  2  0  0  0  0  0  0  0  0  0
   23.9267  -21.2088  -13.3888 N   0  0  0  0  0  0  0  0  0  0  0  0
   21.7467  -20.8588  -12.5275 C   0  0  0  0  0  0  0  0  0  0  0  0
   20.3908  -20.5665  -12.5422 O   0  0  0  0  0  0  0  0  0  0  0  0
   22.2993  -21.0150  -11.4186 O   0  0  0  0  0  0  0  0  0  0  0  0
  2  1  1  0
  2  3  1  0
  3  5  1  0
  3  4  1  1
  5  6  2  0
  7  8  1  0
  7  5  1  0
  8  9  1  1
  9 10  1  0
 10 18  1  0
 11 10  2  0
 11 12  1  0
 12 13  1  0
 13 14  1  0
 14 15  2  0
 16 15  1  0
 17 16  2  0
 18 13  2  0
 18 17  1  0
 19 25  1  0
 19  8  1  0
 20 19  2  0
 22 21  1  6
 23 22  1  0
 24 25  1  1
 24 22  1  0
 26 24  1  0
 27 26  1  0
 28 26  2  0
M  END
$$$$
