SWT.pdb
     RDKit          3D

 28 29  0  0  1  0  0  0  0  0999 V2000
   29.7750  -21.1784  -13.7095 O   0  0  0  0  0  0  0  0  0  0  0  0
   29.2655  -20.2628  -12.8207 C   0  0  0  0  0  0  0  0  0  0  0  0
   29.7033  -20.5748  -11.3838 C   0  0  2  0  0  0  0  0  0  0  0  0
   30.7790  -21.5263  -11.4898 N   0  0  0  0  0  0  0  0  0  0  0  0
   28.5587  -21.1039  -10.5976 C   0  0  0  0  0  0  0  0  0  0  0  0
   28.5779  -22.3036  -10.2232 O   0  0  0  0  0  0  0  0  0  0  0  0
   27.4298  -20.3120  -10.2435 N   0  0  0  0  0  0  0  0  0  0  0  0
   26.1446  -20.8851   -9.9336 C   0  0  1  0  0  0  0  0  0  0  0  0
   25.5981  -20.4541   -8.6152 C   0  0  0  0  0  0  0  0  0  0  0  0
   26.5754  -19.8507   -7.6866 C   0  0  0  0  0  0  0  0  0  0  0  0
   27.1578  -18.5809   -7.8102 C   0  0  0  0  0  0  0  0  0  0  0  0
   28.0158  -18.3679   -6.7982 N   0  0  0  0  0  0  0  0  0  0  0  0
   28.0281  -19.4582   -5.9955 C   0  0  0  0  0  0  0  0  0  0  0  0
   28.7338  -19.7144   -4.8391 C   0  0  0  0  0  0  0  0  0  0  0  0
   28.5203  -20.9367   -4.2331 C   0  0  0  0  0  0  0  0  0  0  0  0
   27.6514  -21.8729   -4.7361 C   0  0  0  0  0  0  0  0  0  0  0  0
   26.9687  -21.5804   -5.8879 C   0  0  0  0  0  0  0  0  0  0  0  0
   27.1446  -20.3718   -6.5363 C   0  0  0  0  0  0  0  0  0  0  0  0
   25.2129  -20.6942  -11.0721 C   0  0  0  0  0  0  0  0  0  0  0  0
   25.1776  -19.5954  -11.6958 O   0  0  0  0  0  0  0  0  0  0  0  0
   22.4729  -22.9344  -14.5365 C   0  0  0  0  0  0  0  0  0  0  0  0
   23.4290  -22.9182  -13.3772 C   0  0  1  0  0  0  0  0  0  0  0  0
   24.7128  -23.2856  -13.7721 O   0  0  0  0  0  0  0  0  0  0  0  0
   23.4921  -21.5488  -12.6992 C   0  0  2  0  0  0  0  0  0  0  0  0
   24.3259  -21.7034  -11.5248 N   0  0  0  0  0  0  0  0  0  0  0  0
   22.1188  -21.2485  -12.2589 C   0  0  0  0  0  0  0  0  0  0  0  0
   21.6721  -21.5123  -10.9724 O   0  0  0  0  0  0  0  0  0  0  0  0
   21.3134  -20.7366  -13.0642 O   0  0  0  0  0  0  0  0  0  0  0  0
  2  1  1  0
  2  3  1  0
  3  5  1  0
  3  4  1  6
  5  6  2  0
  7  8  1  0
  7  5  1  0
  8  9  1  1
  9 10  1  0
 10 18  1  0
 11 10  2  0
 11 12  1  0
 12 13  1  0
 13 14  1  0
 14 15  2  0
 16 15  1  0
 17 16  2  0
 18 13  2  0
 18 17  1  0
 19 25  1  0
 19  8  1  0
 20 19  2  0
 22 21  1  6
 23 22  1  0
 24 25  1  1
 24 22  1  0
 26 24  1  0
 27 26  1  0
 28 26  2  0
M  END
$$$$
