SWT.pdb
     RDKit          3D

 28 29  0  0  1  0  0  0  0  0999 V2000
   21.2213   -9.0505  -20.2040 O   0  0  0  0  0  0  0  0  0  0  0  0
   22.4429   -9.6783  -20.2412 C   0  0  0  0  0  0  0  0  0  0  0  0
   22.4618  -10.9191  -19.3392 C   0  0  2  0  0  0  0  0  0  0  0  0
   21.3769  -11.7551  -19.7840 N   0  0  0  0  0  0  0  0  0  0  0  0
   22.3207  -10.5244  -17.9136 C   0  0  0  0  0  0  0  0  0  0  0  0
   21.2311  -10.7402  -17.3253 O   0  0  0  0  0  0  0  0  0  0  0  0
   23.3686   -9.9078  -17.1728 N   0  0  0  0  0  0  0  0  0  0  0  0
   23.2219   -9.5217  -15.7923 C   0  0  1  0  0  0  0  0  0  0  0  0
   24.2708  -10.0876  -14.8968 C   0  0  0  0  0  0  0  0  0  0  0  0
   24.3835  -11.5603  -14.8983 C   0  0  0  0  0  0  0  0  0  0  0  0
   23.3226  -12.4705  -14.7845 C   0  0  0  0  0  0  0  0  0  0  0  0
   23.7925  -13.7293  -14.8029 N   0  0  0  0  0  0  0  0  0  0  0  0
   25.1404  -13.6935  -14.9261 C   0  0  0  0  0  0  0  0  0  0  0  0
   26.0632  -14.7153  -14.9974 C   0  0  0  0  0  0  0  0  0  0  0  0
   27.3889  -14.3533  -15.1331 C   0  0  0  0  0  0  0  0  0  0  0  0
   27.7982  -13.0445  -15.1971 C   0  0  0  0  0  0  0  0  0  0  0  0
   26.8501  -12.0578  -15.1225 C   0  0  0  0  0  0  0  0  0  0  0  0
   25.5086  -12.3637  -14.9858 C   0  0  0  0  0  0  0  0  0  0  0  0
   23.0594   -8.0509  -15.6883 C   0  0  0  0  0  0  0  0  0  0  0  0
   23.9300   -7.2727  -16.1723 O   0  0  0  0  0  0  0  0  0  0  0  0
   19.4411   -6.4844  -14.1241 C   0  0  0  0  0  0  0  0  0  0  0  0
   20.2055   -5.8097  -15.2281 C   0  0  1  0  0  0  0  0  0  0  0  0
   19.9317   -4.4452  -15.2754 O   0  0  0  0  0  0  0  0  0  0  0  0
   21.7158   -6.0074  -15.0900 C   0  0  2  0  0  0  0  0  0  0  0  0
   21.9475   -7.4370  -15.0582 N   0  0  0  0  0  0  0  0  0  0  0  0
   22.0817   -5.4471  -13.7778 C   0  0  0  0  0  0  0  0  0  0  0  0
   22.2756   -4.0890  -13.5730 O   0  0  0  0  0  0  0  0  0  0  0  0
   22.2268   -6.2124  -12.8017 O   0  0  0  0  0  0  0  0  0  0  0  0
  2  1  1  0
  2  3  1  0
  3  5  1  0
  3  4  1  6
  5  6  2  0
  7  8  1  0
  7  5  1  0
  8  9  1  1
  9 10  1  0
 10 18  1  0
 11 10  2  0
 11 12  1  0
 12 13  1  0
 13 14  1  0
 14 15  2  0
 16 15  1  0
 17 16  2  0
 18 13  2  0
 18 17  1  0
 19 25  1  0
 19  8  1  0
 20 19  2  0
 22 21  1  1
 23 22  1  0
 24 25  1  1
 24 22  1  0
 26 24  1  0
 27 26  1  0
 28 26  2  0
M  END
$$$$
