SWT.pdb
     RDKit          3D

 28 29  0  0  1  0  0  0  0  0999 V2000
   18.4554  -24.7309  -15.6701 O   0  0  0  0  0  0  0  0  0  0  0  0
   18.5407  -23.4322  -15.2297 C   0  0  0  0  0  0  0  0  0  0  0  0
   19.0466  -23.3643  -13.7829 C   0  0  2  0  0  0  0  0  0  0  0  0
   17.9301  -22.9222  -12.9879 N   0  0  0  0  0  0  0  0  0  0  0  0
   20.2083  -22.4431  -13.6839 C   0  0  0  0  0  0  0  0  0  0  0  0
   20.0012  -21.2161  -13.5065 O   0  0  0  0  0  0  0  0  0  0  0  0
   21.5582  -22.8851  -13.7807 N   0  0  0  0  0  0  0  0  0  0  0  0
   22.6791  -21.9829  -13.7034 C   0  0  1  0  0  0  0  0  0  0  0  0
   23.9104  -22.6037  -13.1366 C   0  0  0  0  0  0  0  0  0  0  0  0
   25.0701  -21.7009  -12.9905 C   0  0  0  0  0  0  0  0  0  0  0  0
   25.1856  -20.6456  -12.0740 C   0  0  0  0  0  0  0  0  0  0  0  0
   26.3664  -20.0243  -12.2343 N   0  0  0  0  0  0  0  0  0  0  0  0
   27.0503  -20.6311  -13.2330 C   0  0  0  0  0  0  0  0  0  0  0  0
   28.2972  -20.3659  -13.7580 C   0  0  0  0  0  0  0  0  0  0  0  0
   28.7313  -21.1823  -14.7836 C   0  0  0  0  0  0  0  0  0  0  0  0
   27.9776  -22.2178  -15.2778 C   0  0  0  0  0  0  0  0  0  0  0  0
   26.7432  -22.4489  -14.7292 C   0  0  0  0  0  0  0  0  0  0  0  0
   26.2589  -21.6620  -13.7006 C   0  0  0  0  0  0  0  0  0  0  0  0
   22.8815  -21.3077  -15.0087 C   0  0  0  0  0  0  0  0  0  0  0  0
   22.8251  -21.9645  -16.0871 O   0  0  0  0  0  0  0  0  0  0  0  0
   23.2283  -16.9554  -17.4105 C   0  0  0  0  0  0  0  0  0  0  0  0
   22.8886  -17.8081  -16.2206 C   0  0  1  0  0  0  0  0  0  0  0  0
   21.5237  -17.7774  -15.9466 O   0  0  0  0  0  0  0  0  0  0  0  0
   23.3236  -19.2622  -16.4085 C   0  0  2  0  0  0  0  0  0  0  0  0
   23.1432  -19.9195  -15.1303 N   0  0  0  0  0  0  0  0  0  0  0  0
   24.7647  -19.2204  -16.7112 C   0  0  0  0  0  0  0  0  0  0  0  0
   25.2647  -19.4021  -17.9922 O   0  0  0  0  0  0  0  0  0  0  0  0
   25.5807  -19.0144  -15.7886 O   0  0  0  0  0  0  0  0  0  0  0  0
  2  1  1  0
  2  3  1  0
  3  5  1  0
  3  4  1  1
  5  6  2  0
  7  8  1  0
  7  5  1  0
  8  9  1  6
  9 10  1  0
 10 18  1  0
 11 10  2  0
 11 12  1  0
 12 13  1  0
 13 14  1  0
 14 15  2  0
 16 15  1  0
 17 16  2  0
 18 13  2  0
 18 17  1  0
 19 25  1  0
 19  8  1  0
 20 19  2  0
 22 21  1  6
 23 22  1  0
 24 25  1  1
 24 22  1  0
 26 24  1  0
 27 26  1  0
 28 26  2  0
M  END
$$$$
