SWT.pdb
     RDKit          3D

 28 29  0  0  1  0  0  0  0  0999 V2000
   26.9079  -20.0900  -17.1831 O   0  0  0  0  0  0  0  0  0  0  0  0
   28.0811  -20.0502  -16.4690 C   0  0  0  0  0  0  0  0  0  0  0  0
   28.3697  -21.3963  -15.7920 C   0  0  2  0  0  0  0  0  0  0  0  0
   28.0807  -22.4093  -16.7739 N   0  0  0  0  0  0  0  0  0  0  0  0
   27.5424  -21.5471  -14.5669 C   0  0  0  0  0  0  0  0  0  0  0  0
   26.4928  -22.2365  -14.6200 O   0  0  0  0  0  0  0  0  0  0  0  0
   27.8824  -20.9436  -13.3230 N   0  0  0  0  0  0  0  0  0  0  0  0
   27.0545  -21.0616  -12.1496 C   0  0  1  0  0  0  0  0  0  0  0  0
   27.7704  -20.7578  -10.8777 C   0  0  0  0  0  0  0  0  0  0  0  0
   26.9272  -20.7162   -9.6658 C   0  0  0  0  0  0  0  0  0  0  0  0
   25.6137  -21.1954   -9.5561 C   0  0  0  0  0  0  0  0  0  0  0  0
   25.1460  -20.9754   -8.3157 N   0  0  0  0  0  0  0  0  0  0  0  0
   26.1073  -20.3617   -7.5859 C   0  0  0  0  0  0  0  0  0  0  0  0
   26.1076  -19.9426   -6.2724 C   0  0  0  0  0  0  0  0  0  0  0  0
   27.2629  -19.3475   -5.8055 C   0  0  0  0  0  0  0  0  0  0  0  0
   28.3751  -19.1684   -6.5901 C   0  0  0  0  0  0  0  0  0  0  0  0
   28.3349  -19.5986   -7.8906 C   0  0  0  0  0  0  0  0  0  0  0  0
   27.2037  -20.2006   -8.4102 C   0  0  0  0  0  0  0  0  0  0  0  0
   25.7936  -20.3027  -12.3364 C   0  0  0  0  0  0  0  0  0  0  0  0
   25.8160  -19.0485  -12.4922 O   0  0  0  0  0  0  0  0  0  0  0  0
   23.6016  -20.0524  -15.0795 C   0  0  0  0  0  0  0  0  0  0  0  0
   22.7707  -20.6076  -13.9571 C   0  0  1  0  0  0  0  0  0  0  0  0
   22.7179  -21.9982  -14.0036 O   0  0  0  0  0  0  0  0  0  0  0  0
   23.2914  -20.1772  -12.5849 C   0  0  2  0  0  0  0  0  0  0  0  0
   24.5155  -20.9162  -12.3533 N   0  0  0  0  0  0  0  0  0  0  0  0
   22.2845  -20.6263  -11.6079 C   0  0  0  0  0  0  0  0  0  0  0  0
   21.0488  -20.0109  -11.4719 O   0  0  0  0  0  0  0  0  0  0  0  0
   22.5390  -21.5978  -10.8657 O   0  0  0  0  0  0  0  0  0  0  0  0
  2  1  1  0
  2  3  1  0
  3  5  1  0
  3  4  1  6
  5  6  2  0
  7  8  1  0
  7  5  1  0
  8  9  1  1
  9 10  1  0
 10 18  1  0
 11 10  2  0
 11 12  1  0
 12 13  1  0
 13 14  1  0
 14 15  2  0
 16 15  1  0
 17 16  2  0
 18 13  2  0
 18 17  1  0
 19 25  1  0
 19  8  1  0
 20 19  2  0
 22 21  1  6
 23 22  1  0
 24 25  1  1
 24 22  1  0
 26 24  1  0
 27 26  1  0
 28 26  2  0
M  END
$$$$
