SWT.pdb
     RDKit          3D

 28 29  0  0  1  0  0  0  0  0999 V2000
   26.8568  -19.3527  -15.2380 O   0  0  0  0  0  0  0  0  0  0  0  0
   28.1661  -19.7690  -15.2317 C   0  0  0  0  0  0  0  0  0  0  0  0
   28.3011  -21.1816  -14.6484 C   0  0  2  0  0  0  0  0  0  0  0  0
   27.8355  -22.0836  -15.6699 N   0  0  0  0  0  0  0  0  0  0  0  0
   27.5161  -21.2997  -13.3923 C   0  0  0  0  0  0  0  0  0  0  0  0
   26.3531  -21.7741  -13.4414 O   0  0  0  0  0  0  0  0  0  0  0  0
   28.0203  -20.8985  -12.1227 N   0  0  0  0  0  0  0  0  0  0  0  0
   27.2264  -20.9444  -10.9211 C   0  0  1  0  0  0  0  0  0  0  0  0
   27.9824  -20.5807   -9.6888 C   0  0  0  0  0  0  0  0  0  0  0  0
   27.1829  -20.5060   -8.4491 C   0  0  0  0  0  0  0  0  0  0  0  0
   25.8173  -20.8014   -8.3274 C   0  0  0  0  0  0  0  0  0  0  0  0
   25.4156  -20.6057   -7.0600 N   0  0  0  0  0  0  0  0  0  0  0  0
   26.4720  -20.1869   -6.3238 C   0  0  0  0  0  0  0  0  0  0  0  0
   26.5636  -19.8658   -4.9862 C   0  0  0  0  0  0  0  0  0  0  0  0
   27.8030  -19.4743   -4.5198 C   0  0  0  0  0  0  0  0  0  0  0  0
   28.9103  -19.3992   -5.3277 C   0  0  0  0  0  0  0  0  0  0  0  0
   28.7780  -19.7265   -6.6519 C   0  0  0  0  0  0  0  0  0  0  0  0
   27.5602  -20.1246   -7.1720 C   0  0  0  0  0  0  0  0  0  0  0  0
   25.9677  -20.1829  -11.1118 C   0  0  0  0  0  0  0  0  0  0  0  0
   25.9830  -18.9202  -11.1671 O   0  0  0  0  0  0  0  0  0  0  0  0
   24.0034  -19.6758  -13.9651 C   0  0  0  0  0  0  0  0  0  0  0  0
   23.1142  -20.3817  -12.9806 C   0  0  1  0  0  0  0  0  0  0  0  0
   23.1495  -21.7617  -13.1625 O   0  0  0  0  0  0  0  0  0  0  0  0
   23.4882  -20.0631  -11.5322 C   0  0  2  0  0  0  0  0  0  0  0  0
   24.6993  -20.8030  -11.2424 N   0  0  0  0  0  0  0  0  0  0  0  0
   22.4002  -20.6072  -10.7015 C   0  0  0  0  0  0  0  0  0  0  0  0
   21.1383  -20.0334  -10.6534 O   0  0  0  0  0  0  0  0  0  0  0  0
   22.6069  -21.6246  -10.0074 O   0  0  0  0  0  0  0  0  0  0  0  0
  2  1  1  0
  2  3  1  0
  3  5  1  0
  3  4  1  6
  5  6  2  0
  7  8  1  0
  7  5  1  0
  8  9  1  1
  9 10  1  0
 10 18  1  0
 11 10  2  0
 11 12  1  0
 12 13  1  0
 13 14  1  0
 14 15  2  0
 16 15  1  0
 17 16  2  0
 18 13  2  0
 18 17  1  0
 19 25  1  0
 19  8  1  0
 20 19  2  0
 22 21  1  6
 23 22  1  0
 24 25  1  1
 24 22  1  0
 26 24  1  0
 27 26  1  0
 28 26  2  0
M  END
$$$$
