SWT.pdb
     RDKit          3D

 28 29  0  0  1  0  0  0  0  0999 V2000
   29.0443  -23.7048  -15.8022 O   0  0  0  0  0  0  0  0  0  0  0  0
   29.7980  -22.7567  -16.4509 C   0  0  0  0  0  0  0  0  0  0  0  0
   28.9407  -21.9207  -17.4099 C   0  0  2  0  0  0  0  0  0  0  0  0
   29.8476  -21.0284  -18.0845 N   0  0  0  0  0  0  0  0  0  0  0  0
   27.8867  -21.1906  -16.6589 C   0  0  0  0  0  0  0  0  0  0  0  0
   28.1983  -20.1519  -16.0234 O   0  0  0  0  0  0  0  0  0  0  0  0
   26.5275  -21.6129  -16.6226 N   0  0  0  0  0  0  0  0  0  0  0  0
   25.5051  -20.8825  -15.9172 C   0  0  1  0  0  0  0  0  0  0  0  0
   24.2711  -20.6508  -16.7210 C   0  0  0  0  0  0  0  0  0  0  0  0
   23.2189  -19.8539  -16.0583 C   0  0  0  0  0  0  0  0  0  0  0  0
   23.3449  -18.5326  -15.6052 C   0  0  0  0  0  0  0  0  0  0  0  0
   22.1967  -18.1305  -15.0346 N   0  0  0  0  0  0  0  0  0  0  0  0
   21.2999  -19.1435  -15.0903 C   0  0  0  0  0  0  0  0  0  0  0  0
   19.9956  -19.2136  -14.6491 C   0  0  0  0  0  0  0  0  0  0  0  0
   19.3254  -20.4019  -14.8630 C   0  0  0  0  0  0  0  0  0  0  0  0
   19.9057  -21.4801  -15.4837 C   0  0  0  0  0  0  0  0  0  0  0  0
   21.2043  -21.3706  -15.9076 C   0  0  0  0  0  0  0  0  0  0  0  0
   21.9224  -20.2042  -15.7187 C   0  0  0  0  0  0  0  0  0  0  0  0
   25.2620  -21.4983  -14.5897 C   0  0  0  0  0  0  0  0  0  0  0  0
   25.2184  -22.7552  -14.4631 O   0  0  0  0  0  0  0  0  0  0  0  0
   27.1422  -21.1408  -11.3126 C   0  0  0  0  0  0  0  0  0  0  0  0
   25.7174  -20.7091  -11.1075 C   0  0  1  0  0  0  0  0  0  0  0  0
   25.5913  -19.3240  -11.1760 O   0  0  0  0  0  0  0  0  0  0  0  0
   24.7689  -21.3439  -12.1256 C   0  0  2  0  0  0  0  0  0  0  0  0
   25.0689  -20.7398  -13.4075 N   0  0  0  0  0  0  0  0  0  0  0  0
   23.4107  -20.9372  -11.7258 C   0  0  0  0  0  0  0  0  0  0  0  0
   22.7703  -21.4632  -10.6134 O   0  0  0  0  0  0  0  0  0  0  0  0
   22.7989  -20.0866  -12.4052 O   0  0  0  0  0  0  0  0  0  0  0  0
  2  1  1  0
  2  3  1  0
  3  5  1  0
  3  4  1  1
  5  6  2  0
  7  8  1  0
  7  5  1  0
  8  9  1  6
  9 10  1  0
 10 18  1  0
 11 10  2  0
 11 12  1  0
 12 13  1  0
 13 14  1  0
 14 15  2  0
 16 15  1  0
 17 16  2  0
 18 13  2  0
 18 17  1  0
 19 25  1  0
 19  8  1  0
 20 19  2  0
 22 21  1  6
 23 22  1  0
 24 25  1  6
 24 22  1  0
 26 24  1  0
 27 26  1  0
 28 26  2  0
M  END
$$$$
