SWT.pdb
     RDKit          3D

 28 29  0  0  1  0  0  0  0  0999 V2000
   19.1671  -18.2714  -18.4219 O   0  0  0  0  0  0  0  0  0  0  0  0
   20.4976  -18.6106  -18.3724 C   0  0  0  0  0  0  0  0  0  0  0  0
   21.3270  -17.5219  -17.6791 C   0  0  2  0  0  0  0  0  0  0  0  0
   21.6868  -16.5775  -18.7049 N   0  0  0  0  0  0  0  0  0  0  0  0
   22.5177  -18.1193  -17.0208 C   0  0  0  0  0  0  0  0  0  0  0  0
   23.5925  -18.2072  -17.6664 O   0  0  0  0  0  0  0  0  0  0  0  0
   22.5021  -18.6021  -15.6815 N   0  0  0  0  0  0  0  0  0  0  0  0
   23.6543  -19.2019  -15.0579 C   0  0  1  0  0  0  0  0  0  0  0  0
   23.7722  -18.9023  -13.6022 C   0  0  0  0  0  0  0  0  0  0  0  0
   24.9320  -19.5094  -12.9183 C   0  0  0  0  0  0  0  0  0  0  0  0
   26.2112  -19.6908  -13.4639 C   0  0  0  0  0  0  0  0  0  0  0  0
   27.0123  -20.2921  -12.5680 N   0  0  0  0  0  0  0  0  0  0  0  0
   26.3093  -20.5210  -11.4337 C   0  0  0  0  0  0  0  0  0  0  0  0
   26.6905  -21.1006  -10.2423 C   0  0  0  0  0  0  0  0  0  0  0  0
   25.7319  -21.1844   -9.2518 C   0  0  0  0  0  0  0  0  0  0  0  0
   24.4506  -20.7203   -9.4177 C   0  0  0  0  0  0  0  0  0  0  0  0
   24.1108  -20.1507  -10.6170 C   0  0  0  0  0  0  0  0  0  0  0  0
   25.0310  -20.0416  -11.6432 C   0  0  0  0  0  0  0  0  0  0  0  0
   23.7210  -20.6459  -15.3910 C   0  0  0  0  0  0  0  0  0  0  0  0
   22.7915  -21.4288  -15.0433 O   0  0  0  0  0  0  0  0  0  0  0  0
   24.4468  -22.2276  -18.9486 C   0  0  0  0  0  0  0  0  0  0  0  0
   25.4235  -22.6764  -17.8984 C   0  0  1  0  0  0  0  0  0  0  0  0
   26.5852  -21.9091  -17.9238 O   0  0  0  0  0  0  0  0  0  0  0  0
   24.8250  -22.6228  -16.4919 C   0  0  2  0  0  0  0  0  0  0  0  0
   24.8005  -21.2277  -16.1026 N   0  0  0  0  0  0  0  0  0  0  0  0
   25.7743  -23.3334  -15.6179 C   0  0  0  0  0  0  0  0  0  0  0  0
   25.9321  -24.7112  -15.6502 O   0  0  0  0  0  0  0  0  0  0  0  0
   26.4712  -22.6837  -14.8108 O   0  0  0  0  0  0  0  0  0  0  0  0
  2  1  1  0
  2  3  1  0
  3  5  1  0
  3  4  1  6
  5  6  2  0
  7  8  1  0
  7  5  1  0
  8  9  1  1
  9 10  1  0
 10 18  1  0
 11 10  2  0
 11 12  1  0
 12 13  1  0
 13 14  1  0
 14 15  2  0
 16 15  1  0
 17 16  2  0
 18 13  2  0
 18 17  1  0
 19 25  1  0
 19  8  1  0
 20 19  2  0
 22 21  1  6
 23 22  1  0
 24 25  1  1
 24 22  1  0
 26 24  1  0
 27 26  1  0
 28 26  2  0
M  END
$$$$
