SWT.pdb
     RDKit          3D

 28 29  0  0  1  0  0  0  0  0999 V2000
   26.7912  -19.3062  -15.6979 O   0  0  0  0  0  0  0  0  0  0  0  0
   27.9099  -19.5827  -14.9496 C   0  0  0  0  0  0  0  0  0  0  0  0
   27.9471  -21.0557  -14.5224 C   0  0  2  0  0  0  0  0  0  0  0  0
   27.3181  -21.7974  -15.5846 N   0  0  0  0  0  0  0  0  0  0  0  0
   27.2513  -21.2348  -13.2217 C   0  0  0  0  0  0  0  0  0  0  0  0
   26.1595  -21.8569  -13.1939 O   0  0  0  0  0  0  0  0  0  0  0  0
   27.7646  -20.7320  -11.9926 N   0  0  0  0  0  0  0  0  0  0  0  0
   27.0290  -20.8037  -10.7556 C   0  0  1  0  0  0  0  0  0  0  0  0
   27.8107  -20.3589   -9.5667 C   0  0  0  0  0  0  0  0  0  0  0  0
   27.1215  -20.4862   -8.2665 C   0  0  0  0  0  0  0  0  0  0  0  0
   25.8515  -21.0425   -8.0554 C   0  0  0  0  0  0  0  0  0  0  0  0
   25.5310  -20.9758   -6.7521 N   0  0  0  0  0  0  0  0  0  0  0  0
   26.5493  -20.3905   -6.0785 C   0  0  0  0  0  0  0  0  0  0  0  0
   26.6940  -20.1089   -4.7366 C   0  0  0  0  0  0  0  0  0  0  0  0
   27.8733  -19.5049   -4.3473 C   0  0  0  0  0  0  0  0  0  0  0  0
   28.8728  -19.1881   -5.2334 C   0  0  0  0  0  0  0  0  0  0  0  0
   28.6906  -19.4842   -6.5590 C   0  0  0  0  0  0  0  0  0  0  0  0
   27.5291  -20.0884   -7.0039 C   0  0  0  0  0  0  0  0  0  0  0  0
   25.7128  -20.1360  -10.9052 C   0  0  0  0  0  0  0  0  0  0  0  0
   25.6282  -18.8748  -10.9003 O   0  0  0  0  0  0  0  0  0  0  0  0
   23.7613  -19.7045  -13.7431 C   0  0  0  0  0  0  0  0  0  0  0  0
   22.8932  -20.4828  -12.7949 C   0  0  1  0  0  0  0  0  0  0  0  0
   22.9962  -21.8531  -13.0202 O   0  0  0  0  0  0  0  0  0  0  0  0
   23.2322  -20.1944  -11.3317 C   0  0  2  0  0  0  0  0  0  0  0  0
   24.4964  -20.8475  -11.0604 N   0  0  0  0  0  0  0  0  0  0  0  0
   22.1858  -20.8556  -10.5332 C   0  0  0  0  0  0  0  0  0  0  0  0
   20.8951  -20.3571  -10.4333 O   0  0  0  0  0  0  0  0  0  0  0  0
   22.4561  -21.9070   -9.9159 O   0  0  0  0  0  0  0  0  0  0  0  0
  2  1  1  0
  2  3  1  0
  3  5  1  0
  3  4  1  6
  5  6  2  0
  7  8  1  0
  7  5  1  0
  8  9  1  1
  9 10  1  0
 10 18  1  0
 11 10  2  0
 11 12  1  0
 12 13  1  0
 13 14  1  0
 14 15  2  0
 16 15  1  0
 17 16  2  0
 18 13  2  0
 18 17  1  0
 19 25  1  0
 19  8  1  0
 20 19  2  0
 22 21  1  6
 23 22  1  0
 24 25  1  1
 24 22  1  0
 26 24  1  0
 27 26  1  0
 28 26  2  0
M  END
$$$$
