YSM.pdb
     RDKit          3D

 27 27  0  0  1  0  0  0  0  0999 V2000
   21.3860  -16.4590  -20.3351 O   0  0  0  0  0  0  0  0  0  0  0  0
   21.0435  -15.1626  -19.9017 C   0  0  0  0  0  0  0  0  0  0  0  0
   21.3380  -14.7256  -18.6272 C   0  0  0  0  0  0  0  0  0  0  0  0
   20.9853  -13.4433  -18.2368 C   0  0  0  0  0  0  0  0  0  0  0  0
   20.3399  -12.5684  -19.0847 C   0  0  0  0  0  0  0  0  0  0  0  0
   20.0052  -11.2390  -18.5922 C   0  0  0  0  0  0  0  0  0  0  0  0
   18.9756  -11.2221  -17.5001 C   0  0  2  0  0  0  0  0  0  0  0  0
   17.7290  -11.7293  -18.0424 N   0  0  0  0  0  0  0  0  0  0  0  0
   18.7543   -9.7891  -17.0962 C   0  0  0  0  0  0  0  0  0  0  0  0
   18.1465   -8.9777  -17.8408 O   0  0  0  0  0  0  0  0  0  0  0  0
   20.0406  -12.9950  -20.3612 C   0  0  0  0  0  0  0  0  0  0  0  0
   20.3998  -14.2782  -20.7347 C   0  0  0  0  0  0  0  0  0  0  0  0
   18.6134   -8.9379  -13.2924 O   0  0  0  0  0  0  0  0  0  0  0  0
   18.1617   -7.9529  -14.1593 C   0  0  0  0  0  0  0  0  0  0  0  0
   19.0412   -7.9126  -15.4160 C   0  0  2  0  0  0  0  0  0  0  0  0
   19.2334   -9.3043  -15.8412 N   0  0  0  0  0  0  0  0  0  0  0  0
   20.3623   -7.3887  -14.9835 C   0  0  0  0  0  0  0  0  0  0  0  0
   21.2731   -8.1722  -14.5524 O   0  0  0  0  0  0  0  0  0  0  0  0
   22.5704   -2.8934  -19.4659 C   0  0  0  0  0  0  0  0  0  0  0  0
   22.5747   -2.7365  -17.6758 S   0  0  0  0  0  0  0  0  0  0  0  0
   22.4414   -4.3131  -16.8394 C   0  0  0  0  0  0  0  0  0  0  0  0
   22.2597   -4.2612  -15.3804 C   0  0  0  0  0  0  0  0  0  0  0  0
   22.0469   -5.5516  -14.6598 C   0  0  2  0  0  0  0  0  0  0  0  0
   20.6800   -6.0234  -15.0229 N   0  0  0  0  0  0  0  0  0  0  0  0
   22.0870   -5.5143  -13.2050 C   0  0  0  0  0  0  0  0  0  0  0  0
   21.0029   -5.7879  -12.3884 O   0  0  0  0  0  0  0  0  0  0  0  0
   23.1769   -5.2067  -12.6022 O   0  0  0  0  0  0  0  0  0  0  0  0
  1  2  1  0
  2  3  2  0
  3  4  1  0
  5  6  1  0
  5  4  2  0
  6  7  1  0
  7  8  1  6
  7  9  1  0
  9 16  1  0
  9 10  2  0
 11  5  1  0
 12 11  2  0
 12  2  1  0
 14 13  1  0
 15 14  1  1
 16 15  1  0
 17 15  1  0
 17 18  2  0
 19 20  1  0
 20 21  1  0
 21 22  1  0
 23 22  1  6
 23 24  1  0
 24 17  1  0
 25 23  1  0
 26 25  1  0
 27 25  2  0
M  END
$$$$
