YSM.pdb
     RDKit          3D

 27 27  0  0  1  0  0  0  0  0999 V2000
   23.0789  -10.6604  -24.7942 O   0  0  0  0  0  0  0  0  0  0  0  0
   22.4043  -10.2393  -23.6309 C   0  0  0  0  0  0  0  0  0  0  0  0
   21.0277  -10.1734  -23.5778 C   0  0  0  0  0  0  0  0  0  0  0  0
   20.3995   -9.7543  -22.4156 C   0  0  0  0  0  0  0  0  0  0  0  0
   21.1056   -9.3933  -21.2878 C   0  0  0  0  0  0  0  0  0  0  0  0
   20.3651   -8.9639  -20.1092 C   0  0  0  0  0  0  0  0  0  0  0  0
   20.3687   -9.9519  -18.9792 C   0  0  2  0  0  0  0  0  0  0  0  0
   19.5890  -11.1071  -19.3827 N   0  0  0  0  0  0  0  0  0  0  0  0
   19.6750   -9.3138  -17.8056 C   0  0  0  0  0  0  0  0  0  0  0  0
   18.4253   -9.1753  -17.7705 O   0  0  0  0  0  0  0  0  0  0  0  0
   22.4823   -9.4554  -21.3298 C   0  0  0  0  0  0  0  0  0  0  0  0
   23.0935   -9.8760  -22.4979 C   0  0  0  0  0  0  0  0  0  0  0  0
   22.0701   -7.8233  -14.8746 O   0  0  0  0  0  0  0  0  0  0  0  0
   20.8002   -8.1383  -14.4122 C   0  0  0  0  0  0  0  0  0  0  0  0
   19.7966   -8.1194  -15.5728 C   0  0  2  0  0  0  0  0  0  0  0  0
   20.4248   -8.8423  -16.6853 N   0  0  0  0  0  0  0  0  0  0  0  0
   19.6589   -6.6980  -15.9817 C   0  0  0  0  0  0  0  0  0  0  0  0
   20.1831   -6.2695  -17.0638 O   0  0  0  0  0  0  0  0  0  0  0  0
   15.9299   -1.9369  -19.8036 C   0  0  0  0  0  0  0  0  0  0  0  0
   16.6118   -3.4776  -19.1786 S   0  0  0  0  0  0  0  0  0  0  0  0
   17.4887   -3.2730  -17.6319 C   0  0  0  0  0  0  0  0  0  0  0  0
   18.0355   -4.4981  -17.0282 C   0  0  0  0  0  0  0  0  0  0  0  0
   18.7424   -4.3723  -15.7189 C   0  0  2  0  0  0  0  0  0  0  0  0
   18.9558   -5.7587  -15.2136 N   0  0  0  0  0  0  0  0  0  0  0  0
   18.0496   -3.6583  -14.6561 C   0  0  0  0  0  0  0  0  0  0  0  0
   18.0463   -2.2808  -14.5165 O   0  0  0  0  0  0  0  0  0  0  0  0
   17.3931   -4.3114  -13.7681 O   0  0  0  0  0  0  0  0  0  0  0  0
  1  2  1  0
  2  3  2  0
  3  4  1  0
  5  6  1  0
  5  4  2  0
  6  7  1  0
  7  8  1  6
  7  9  1  0
  9 16  1  0
  9 10  2  0
 11  5  1  0
 12 11  2  0
 12  2  1  0
 14 13  1  0
 15 14  1  1
 16 15  1  0
 17 15  1  0
 17 18  2  0
 19 20  1  0
 20 21  1  0
 21 22  1  0
 23 22  1  6
 23 24  1  0
 24 17  1  0
 25 23  1  0
 26 25  1  0
 27 25  2  0
M  END
$$$$
