YSM.pdb
     RDKit          3D

 27 27  0  0  1  0  0  0  0  0999 V2000
   14.4417   -9.4329  -22.6056 O   0  0  0  0  0  0  0  0  0  0  0  0
   15.2252   -9.1364  -21.4725 C   0  0  0  0  0  0  0  0  0  0  0  0
   16.5786   -9.3998  -21.4409 C   0  0  0  0  0  0  0  0  0  0  0  0
   17.3167   -9.0942  -20.3083 C   0  0  0  0  0  0  0  0  0  0  0  0
   16.7446   -8.5268  -19.1895 C   0  0  0  0  0  0  0  0  0  0  0  0
   17.5942   -8.2388  -18.0418 C   0  0  0  0  0  0  0  0  0  0  0  0
   17.9935   -9.4469  -17.2457 C   0  0  2  0  0  0  0  0  0  0  0  0
   16.7927  -10.0434  -16.6911 N   0  0  0  0  0  0  0  0  0  0  0  0
   18.8501   -8.9818  -16.0987 C   0  0  0  0  0  0  0  0  0  0  0  0
   18.3482   -8.5021  -15.0498 O   0  0  0  0  0  0  0  0  0  0  0  0
   15.3923   -8.2592  -19.2102 C   0  0  0  0  0  0  0  0  0  0  0  0
   14.6703   -8.5706  -20.3490 C   0  0  0  0  0  0  0  0  0  0  0  0
   22.8826   -8.9988  -16.7005 O   0  0  0  0  0  0  0  0  0  0  0  0
   22.5423   -9.1214  -15.3607 C   0  0  0  0  0  0  0  0  0  0  0  0
   21.1445   -8.5376  -15.1162 C   0  0  2  0  0  0  0  0  0  0  0  0
   20.2735   -9.0732  -16.1695 N   0  0  0  0  0  0  0  0  0  0  0  0
   21.2610   -7.0725  -15.3318 C   0  0  0  0  0  0  0  0  0  0  0  0
   20.8803   -6.5347  -16.4251 O   0  0  0  0  0  0  0  0  0  0  0  0
   18.7083   -0.4657  -15.9352 C   0  0  0  0  0  0  0  0  0  0  0  0
   18.7891   -2.2419  -15.6755 S   0  0  0  0  0  0  0  0  0  0  0  0
   20.4109   -2.7961  -15.1602 C   0  0  0  0  0  0  0  0  0  0  0  0
   20.5960   -4.2516  -15.0517 C   0  0  0  0  0  0  0  0  0  0  0  0
   21.9422   -4.7529  -14.6442 C   0  0  2  0  0  0  0  0  0  0  0  0
   21.7885   -6.2086  -14.3613 N   0  0  0  0  0  0  0  0  0  0  0  0
   22.5338   -4.1703  -13.4483 C   0  0  0  0  0  0  0  0  0  0  0  0
   23.2180   -2.9669  -13.4246 O   0  0  0  0  0  0  0  0  0  0  0  0
   22.4422   -4.7831  -12.3250 O   0  0  0  0  0  0  0  0  0  0  0  0
  1  2  1  0
  2  3  2  0
  3  4  1  0
  5  6  1  0
  5  4  2  0
  6  7  1  0
  7  8  1  1
  7  9  1  0
  9 16  1  0
  9 10  2  0
 11  5  1  0
 12 11  2  0
 12  2  1  0
 14 13  1  0
 15 14  1  6
 16 15  1  0
 17 15  1  0
 17 18  2  0
 19 20  1  0
 20 21  1  0
 21 22  1  0
 23 22  1  1
 23 24  1  0
 24 17  1  0
 25 23  1  0
 26 25  1  0
 27 25  2  0
M  END
$$$$
