YSM.pdb
     RDKit          3D

 27 27  0  0  1  0  0  0  0  0999 V2000
   20.9393  -19.7691  -16.3145 O   0  0  0  0  0  0  0  0  0  0  0  0
   20.8304  -18.4348  -16.7545 C   0  0  0  0  0  0  0  0  0  0  0  0
   21.1920  -18.0637  -18.0326 C   0  0  0  0  0  0  0  0  0  0  0  0
   21.0707  -16.7413  -18.4295 C   0  0  0  0  0  0  0  0  0  0  0  0
   20.5947  -15.7613  -17.5846 C   0  0  0  0  0  0  0  0  0  0  0  0
   20.5005  -14.3959  -18.0834 C   0  0  0  0  0  0  0  0  0  0  0  0
   19.1157  -13.9731  -18.4789 C   0  0  2  0  0  0  0  0  0  0  0  0
   18.6893  -14.7982  -19.5937 N   0  0  0  0  0  0  0  0  0  0  0  0
   19.1873  -12.5486  -18.9596 C   0  0  0  0  0  0  0  0  0  0  0  0
   18.9467  -12.2405  -20.1552 O   0  0  0  0  0  0  0  0  0  0  0  0
   20.2302  -16.1212  -16.3045 C   0  0  0  0  0  0  0  0  0  0  0  0
   20.3576  -17.4458  -15.9246 C   0  0  0  0  0  0  0  0  0  0  0  0
   17.9734   -8.3628  -19.0706 O   0  0  0  0  0  0  0  0  0  0  0  0
   18.0590   -9.6793  -18.6401 C   0  0  0  0  0  0  0  0  0  0  0  0
   19.5294  -10.0845  -18.4718 C   0  0  2  0  0  0  0  0  0  0  0  0
   19.5342  -11.4939  -18.0615 N   0  0  0  0  0  0  0  0  0  0  0  0
   20.0548   -9.2843  -17.3359 C   0  0  0  0  0  0  0  0  0  0  0  0
   19.7504   -9.5722  -16.1301 O   0  0  0  0  0  0  0  0  0  0  0  0
   25.1287   -3.4546  -15.3295 C   0  0  0  0  0  0  0  0  0  0  0  0
   24.4098   -4.5391  -16.5690 S   0  0  0  0  0  0  0  0  0  0  0  0
   23.1254   -5.5954  -15.9078 C   0  0  0  0  0  0  0  0  0  0  0  0
   22.5138   -6.5435  -16.8520 C   0  0  0  0  0  0  0  0  0  0  0  0
   21.4039   -7.4069  -16.3496 C   0  0  2  0  0  0  0  0  0  0  0  0
   20.9028   -8.1827  -17.5200 N   0  0  0  0  0  0  0  0  0  0  0  0
   20.2427   -6.7343  -15.7850 C   0  0  0  0  0  0  0  0  0  0  0  0
   20.0286   -6.5561  -14.4288 O   0  0  0  0  0  0  0  0  0  0  0  0
   19.3334   -6.2674  -16.5603 O   0  0  0  0  0  0  0  0  0  0  0  0
  1  2  1  0
  2  3  2  0
  3  4  1  0
  5  6  1  0
  5  4  2  0
  6  7  1  0
  7  8  1  6
  7  9  1  0
  9 16  1  0
  9 10  2  0
 11  5  1  0
 12 11  2  0
 12  2  1  0
 14 13  1  0
 15 14  1  1
 16 15  1  0
 17 15  1  0
 17 18  2  0
 19 20  1  0
 20 21  1  0
 21 22  1  0
 23 22  1  6
 23 24  1  0
 24 17  1  0
 25 23  1  0
 26 25  1  0
 27 25  2  0
M  END
$$$$
