YSM.pdb
     RDKit          3D

 27 27  0  0  1  0  0  0  0  0999 V2000
   27.8860  -12.9854  -17.5497 O   0  0  0  0  0  0  0  0  0  0  0  0
   27.4526  -14.2070  -16.9972 C   0  0  0  0  0  0  0  0  0  0  0  0
   26.9732  -15.2288  -17.7898 C   0  0  0  0  0  0  0  0  0  0  0  0
   26.5557  -16.4165  -17.2099 C   0  0  0  0  0  0  0  0  0  0  0  0
   26.6000  -16.6245  -15.8477 C   0  0  0  0  0  0  0  0  0  0  0  0
   26.1406  -17.9030  -15.3222 C   0  0  0  0  0  0  0  0  0  0  0  0
   27.2358  -18.8930  -15.0511 C   0  0  2  0  0  0  0  0  0  0  0  0
   27.8823  -19.2120  -16.3103 N   0  0  0  0  0  0  0  0  0  0  0  0
   26.6005  -20.1524  -14.5262 C   0  0  0  0  0  0  0  0  0  0  0  0
   27.2108  -21.2523  -14.5284 O   0  0  0  0  0  0  0  0  0  0  0  0
   27.0776  -15.6096  -15.0459 C   0  0  0  0  0  0  0  0  0  0  0  0
   27.4902  -14.4304  -15.6410 C   0  0  0  0  0  0  0  0  0  0  0  0
   24.7262  -20.8857  -10.6415 O   0  0  0  0  0  0  0  0  0  0  0  0
   25.5857  -20.8667  -11.7309 C   0  0  0  0  0  0  0  0  0  0  0  0
   24.8023  -21.1224  -13.0252 C   0  0  2  0  0  0  0  0  0  0  0  0
   25.2713  -20.1343  -14.0043 N   0  0  0  0  0  0  0  0  0  0  0  0
   23.3816  -20.8133  -12.7206 C   0  0  0  0  0  0  0  0  0  0  0  0
   23.0490  -19.7050  -12.1817 O   0  0  0  0  0  0  0  0  0  0  0  0
   16.5836  -21.9863  -16.4355 C   0  0  0  0  0  0  0  0  0  0  0  0
   18.2561  -22.5070  -16.0345 S   0  0  0  0  0  0  0  0  0  0  0  0
   18.9200  -21.6686  -14.5995 C   0  0  0  0  0  0  0  0  0  0  0  0
   20.3244  -21.9577  -14.2702 C   0  0  0  0  0  0  0  0  0  0  0  0
   20.9346  -21.2237  -13.1218 C   0  0  2  0  0  0  0  0  0  0  0  0
   22.3395  -21.7081  -13.0030 N   0  0  0  0  0  0  0  0  0  0  0  0
   20.3292  -21.4184  -11.8122 C   0  0  0  0  0  0  0  0  0  0  0  0
   19.3335  -20.6127  -11.2866 O   0  0  0  0  0  0  0  0  0  0  0  0
   20.7197  -22.3842  -11.0634 O   0  0  0  0  0  0  0  0  0  0  0  0
  1  2  1  0
  2  3  2  0
  3  4  1  0
  5  6  1  0
  5  4  2  0
  6  7  1  0
  7  8  1  6
  7  9  1  0
  9 16  1  0
  9 10  2  0
 11  5  1  0
 12 11  2  0
 12  2  1  0
 14 13  1  0
 15 14  1  1
 16 15  1  0
 17 15  1  0
 17 18  2  0
 19 20  1  0
 20 21  1  0
 21 22  1  0
 23 22  1  6
 23 24  1  0
 24 17  1  0
 25 23  1  0
 26 25  1  0
 27 25  2  0
M  END
$$$$
