YSM.pdb
     RDKit          3D

 27 27  0  0  1  0  0  0  0  0999 V2000
   24.8103  -21.3956   -6.6504 O   0  0  0  0  0  0  0  0  0  0  0  0
   24.7672  -21.0139   -8.0061 C   0  0  0  0  0  0  0  0  0  0  0  0
   23.6208  -21.1536   -8.7600 C   0  0  0  0  0  0  0  0  0  0  0  0
   23.6167  -20.7669  -10.0910 C   0  0  0  0  0  0  0  0  0  0  0  0
   24.7315  -20.2379  -10.7060 C   0  0  0  0  0  0  0  0  0  0  0  0
   24.6397  -19.8584  -12.1093 C   0  0  0  0  0  0  0  0  0  0  0  0
   24.2507  -20.9772  -13.0313 C   0  0  2  0  0  0  0  0  0  0  0  0
   25.3727  -21.8913  -13.1358 N   0  0  0  0  0  0  0  0  0  0  0  0
   24.0063  -20.3883  -14.3947 C   0  0  0  0  0  0  0  0  0  0  0  0
   24.9499  -20.1496  -15.1915 O   0  0  0  0  0  0  0  0  0  0  0  0
   25.8830  -20.0937   -9.9616 C   0  0  0  0  0  0  0  0  0  0  0  0
   25.8700  -20.4848   -8.6342 C   0  0  0  0  0  0  0  0  0  0  0  0
   20.2681  -18.9355  -15.2316 O   0  0  0  0  0  0  0  0  0  0  0  0
   20.8785  -19.5281  -16.3280 C   0  0  0  0  0  0  0  0  0  0  0  0
   22.4030  -19.5153  -16.1537 C   0  0  2  0  0  0  0  0  0  0  0  0
   22.6807  -20.0805  -14.8277 N   0  0  0  0  0  0  0  0  0  0  0  0
   22.8074  -18.0862  -16.1263 C   0  0  0  0  0  0  0  0  0  0  0  0
   22.6888  -17.3877  -15.0645 O   0  0  0  0  0  0  0  0  0  0  0  0
   28.6580  -18.1473  -15.7676 C   0  0  0  0  0  0  0  0  0  0  0  0
   27.4827  -16.8158  -15.4943 S   0  0  0  0  0  0  0  0  0  0  0  0
   26.0279  -16.9495  -16.5281 C   0  0  0  0  0  0  0  0  0  0  0  0
   24.9607  -15.9682  -16.2780 C   0  0  0  0  0  0  0  0  0  0  0  0
   23.7602  -16.0052  -17.1651 C   0  0  2  0  0  0  0  0  0  0  0  0
   23.3345  -17.4316  -17.2488 N   0  0  0  0  0  0  0  0  0  0  0  0
   23.9354  -15.5557  -18.5387 C   0  0  0  0  0  0  0  0  0  0  0  0
   24.2712  -14.2615  -18.8981 O   0  0  0  0  0  0  0  0  0  0  0  0
   23.7714  -16.3800  -19.5080 O   0  0  0  0  0  0  0  0  0  0  0  0
  1  2  1  0
  2  3  2  0
  3  4  1  0
  5  6  1  0
  5  4  2  0
  6  7  1  0
  7  8  1  6
  7  9  1  0
  9 16  1  0
  9 10  2  0
 11  5  1  0
 12 11  2  0
 12  2  1  0
 14 13  1  0
 15 14  1  1
 16 15  1  0
 17 15  1  0
 17 18  2  0
 19 20  1  0
 20 21  1  0
 21 22  1  0
 23 22  1  1
 23 24  1  0
 24 17  1  0
 25 23  1  0
 26 25  1  0
 27 25  2  0
M  END
$$$$
