YSM.pdb
     RDKit          3D

 27 27  0  0  1  0  0  0  0  0999 V2000
   26.8004  -14.0430  -17.9070 O   0  0  0  0  0  0  0  0  0  0  0  0
   25.8747  -12.9991  -17.7099 C   0  0  0  0  0  0  0  0  0  0  0  0
   25.2701  -12.3594  -18.7717 C   0  0  0  0  0  0  0  0  0  0  0  0
   24.3644  -11.3365  -18.5384 C   0  0  0  0  0  0  0  0  0  0  0  0
   24.0352  -10.9228  -17.2651 C   0  0  0  0  0  0  0  0  0  0  0  0
   23.0740   -9.8393  -17.1105 C   0  0  0  0  0  0  0  0  0  0  0  0
   21.7080  -10.2787  -16.6701 C   0  0  2  0  0  0  0  0  0  0  0  0
   21.1393  -11.1106  -17.7141 N   0  0  0  0  0  0  0  0  0  0  0  0
   20.8478   -9.0506  -16.5384 C   0  0  0  0  0  0  0  0  0  0  0  0
   20.3567   -8.4755  -17.5435 O   0  0  0  0  0  0  0  0  0  0  0  0
   24.6337  -11.5554  -16.1962 C   0  0  0  0  0  0  0  0  0  0  0  0
   25.5356  -12.5746  -16.4468 C   0  0  0  0  0  0  0  0  0  0  0  0
   20.3510   -7.5379  -12.7930 O   0  0  0  0  0  0  0  0  0  0  0  0
   19.2382   -7.3482  -13.6002 C   0  0  0  0  0  0  0  0  0  0  0  0
   19.6508   -7.3590  -15.0781 C   0  0  2  0  0  0  0  0  0  0  0  0
   20.5613   -8.4971  -15.2535 N   0  0  0  0  0  0  0  0  0  0  0  0
   20.4356   -6.1177  -15.3009 C   0  0  0  0  0  0  0  0  0  0  0  0
   21.6946   -6.0874  -15.0928 O   0  0  0  0  0  0  0  0  0  0  0  0
   21.9178   -0.2536  -20.0948 C   0  0  0  0  0  0  0  0  0  0  0  0
   21.0580   -1.7582  -19.6196 S   0  0  0  0  0  0  0  0  0  0  0  0
   21.2016   -2.1189  -17.8725 C   0  0  0  0  0  0  0  0  0  0  0  0
   20.5553   -3.3567  -17.4094 C   0  0  0  0  0  0  0  0  0  0  0  0
   20.6760   -3.7047  -15.9622 C   0  0  2  0  0  0  0  0  0  0  0  0
   19.8472   -4.9250  -15.7457 N   0  0  0  0  0  0  0  0  0  0  0  0
   20.2019   -2.7198  -15.0006 C   0  0  0  0  0  0  0  0  0  0  0  0
   20.9417   -1.6310  -14.5716 O   0  0  0  0  0  0  0  0  0  0  0  0
   19.0307   -2.8357  -14.4900 O   0  0  0  0  0  0  0  0  0  0  0  0
  1  2  1  0
  2  3  2  0
  3  4  1  0
  5  6  1  0
  5  4  2  0
  6  7  1  0
  7  8  1  6
  7  9  1  0
  9 16  1  0
  9 10  2  0
 11  5  1  0
 12 11  2  0
 12  2  1  0
 14 13  1  0
 15 14  1  1
 16 15  1  0
 17 15  1  0
 17 18  2  0
 19 20  1  0
 20 21  1  0
 21 22  1  0
 23 22  1  6
 23 24  1  0
 24 17  1  0
 25 23  1  0
 26 25  1  0
 27 25  2  0
M  END
$$$$
