YSM.pdb
     RDKit          3D

 27 27  0  0  1  0  0  0  0  0999 V2000
   24.0206  -21.0885  -24.5051 O   0  0  0  0  0  0  0  0  0  0  0  0
   23.3016  -21.3904  -23.3314 C   0  0  0  0  0  0  0  0  0  0  0  0
   22.6286  -22.5851  -23.1836 C   0  0  0  0  0  0  0  0  0  0  0  0
   21.9320  -22.8467  -22.0142 C   0  0  0  0  0  0  0  0  0  0  0  0
   21.8820  -21.9459  -20.9716 C   0  0  0  0  0  0  0  0  0  0  0  0
   21.1257  -22.3014  -19.7786 C   0  0  0  0  0  0  0  0  0  0  0  0
   21.9709  -22.6495  -18.5879 C   0  0  2  0  0  0  0  0  0  0  0  0
   22.4783  -23.9968  -18.7687 N   0  0  0  0  0  0  0  0  0  0  0  0
   21.0809  -22.6503  -17.3741 C   0  0  0  0  0  0  0  0  0  0  0  0
   20.5101  -23.6968  -16.9725 O   0  0  0  0  0  0  0  0  0  0  0  0
   22.5513  -20.7484  -21.1087 C   0  0  0  0  0  0  0  0  0  0  0  0
   23.2418  -20.5033  -22.2826 C   0  0  0  0  0  0  0  0  0  0  0  0
   20.5462  -19.0797  -15.5540 O   0  0  0  0  0  0  0  0  0  0  0  0
   20.3405  -20.1384  -14.6807 C   0  0  0  0  0  0  0  0  0  0  0  0
   19.9719  -21.4048  -15.4647 C   0  0  2  0  0  0  0  0  0  0  0  0
   20.8569  -21.4490  -16.6350 N   0  0  0  0  0  0  0  0  0  0  0  0
   18.5855  -21.2010  -15.9577 C   0  0  0  0  0  0  0  0  0  0  0  0
   18.3516  -20.4934  -16.9940 O   0  0  0  0  0  0  0  0  0  0  0  0
   11.2161  -24.1643  -15.7240 C   0  0  0  0  0  0  0  0  0  0  0  0
   12.9350  -24.1982  -15.2012 S   0  0  0  0  0  0  0  0  0  0  0  0
   13.8771  -22.8074  -15.8187 C   0  0  0  0  0  0  0  0  0  0  0  0
   15.2932  -22.7553  -15.4235 C   0  0  0  0  0  0  0  0  0  0  0  0
   16.1034  -21.5916  -15.8918 C   0  0  2  0  0  0  0  0  0  0  0  0
   17.4701  -21.7656  -15.3222 N   0  0  0  0  0  0  0  0  0  0  0  0
   15.6615  -20.2666  -15.4813 C   0  0  0  0  0  0  0  0  0  0  0  0
   14.6948  -19.5281  -16.1425 O   0  0  0  0  0  0  0  0  0  0  0  0
   16.1807  -19.7098  -14.4488 O   0  0  0  0  0  0  0  0  0  0  0  0
  1  2  1  0
  2  3  2  0
  3  4  1  0
  5  6  1  0
  5  4  2  0
  6  7  1  0
  7  8  1  6
  7  9  1  0
  9 16  1  0
  9 10  2  0
 11  5  1  0
 12 11  2  0
 12  2  1  0
 14 13  1  0
 15 14  1  1
 16 15  1  0
 17 15  1  0
 17 18  2  0
 19 20  1  0
 20 21  1  0
 21 22  1  0
 23 22  1  1
 23 24  1  0
 24 17  1  0
 25 23  1  0
 26 25  1  0
 27 25  2  0
M  END
$$$$
