YSM.pdb
     RDKit          3D

 27 27  0  0  1  0  0  0  0  0999 V2000
   24.6760  -28.5404  -17.7991 O   0  0  0  0  0  0  0  0  0  0  0  0
   25.0957  -27.4126  -17.0658 C   0  0  0  0  0  0  0  0  0  0  0  0
   24.2088  -26.6646  -16.3203 C   0  0  0  0  0  0  0  0  0  0  0  0
   24.6588  -25.5616  -15.6118 C   0  0  0  0  0  0  0  0  0  0  0  0
   25.9814  -25.1723  -15.6205 C   0  0  0  0  0  0  0  0  0  0  0  0
   26.3683  -23.9996  -14.8479 C   0  0  0  0  0  0  0  0  0  0  0  0
   25.8094  -22.7048  -15.3620 C   0  0  2  0  0  0  0  0  0  0  0  0
   26.5851  -22.3027  -16.5205 N   0  0  0  0  0  0  0  0  0  0  0  0
   26.0011  -21.6623  -14.2935 C   0  0  0  0  0  0  0  0  0  0  0  0
   26.9640  -20.8535  -14.3229 O   0  0  0  0  0  0  0  0  0  0  0  0
   26.8768  -25.9131  -16.3625 C   0  0  0  0  0  0  0  0  0  0  0  0
   26.4108  -27.0112  -17.0639 C   0  0  0  0  0  0  0  0  0  0  0  0
   22.8419  -21.0287  -11.9575 O   0  0  0  0  0  0  0  0  0  0  0  0
   23.7268  -19.9615  -12.0181 C   0  0  0  0  0  0  0  0  0  0  0  0
   25.1590  -20.4747  -12.2181 C   0  0  2  0  0  0  0  0  0  0  0  0
   25.0844  -21.5604  -13.2032 N   0  0  0  0  0  0  0  0  0  0  0  0
   25.5725  -21.0718  -10.9223 C   0  0  0  0  0  0  0  0  0  0  0  0
   25.4113  -22.3163  -10.6886 O   0  0  0  0  0  0  0  0  0  0  0  0
   29.0620  -17.9115   -6.3630 C   0  0  0  0  0  0  0  0  0  0  0  0
   27.9565  -18.8500   -5.3019 S   0  0  0  0  0  0  0  0  0  0  0  0
   26.8985  -19.9677   -6.2154 C   0  0  0  0  0  0  0  0  0  0  0  0
   26.9179  -19.8295   -7.6799 C   0  0  0  0  0  0  0  0  0  0  0  0
   26.0730  -20.7669   -8.4781 C   0  0  2  0  0  0  0  0  0  0  0  0
   26.1549  -20.3139   -9.8961 N   0  0  0  0  0  0  0  0  0  0  0  0
   24.6548  -20.8223   -8.1540 C   0  0  0  0  0  0  0  0  0  0  0  0
   23.6882  -20.0290   -8.7485 O   0  0  0  0  0  0  0  0  0  0  0  0
   24.2334  -21.6417   -7.2613 O   0  0  0  0  0  0  0  0  0  0  0  0
  1  2  1  0
  2  3  2  0
  3  4  1  0
  5  6  1  0
  5  4  2  0
  6  7  1  0
  7  8  1  6
  7  9  1  0
  9 16  1  0
  9 10  2  0
 11  5  1  0
 12 11  2  0
 12  2  1  0
 14 13  1  0
 15 14  1  1
 16 15  1  0
 17 15  1  0
 17 18  2  0
 19 20  1  0
 20 21  1  0
 21 22  1  0
 23 22  1  1
 23 24  1  0
 24 17  1  0
 25 23  1  0
 26 25  1  0
 27 25  2  0
M  END
$$$$
