YSM.pdb
     RDKit          3D

 27 27  0  0  1  0  0  0  0  0999 V2000
   18.5948  -18.0236  -16.9673 O   0  0  0  0  0  0  0  0  0  0  0  0
   18.7244  -16.6223  -17.0388 C   0  0  0  0  0  0  0  0  0  0  0  0
   19.0858  -15.9889  -18.2093 C   0  0  0  0  0  0  0  0  0  0  0  0
   19.2033  -14.6082  -18.2411 C   0  0  0  0  0  0  0  0  0  0  0  0
   18.9697  -13.8252  -17.1306 C   0  0  0  0  0  0  0  0  0  0  0  0
   19.1169  -12.3811  -17.2521 C   0  0  0  0  0  0  0  0  0  0  0  0
   17.8223  -11.6341  -17.3900 C   0  0  2  0  0  0  0  0  0  0  0  0
   17.2014  -12.0273  -18.6411 N   0  0  0  0  0  0  0  0  0  0  0  0
   18.1430  -10.1659  -17.4751 C   0  0  0  0  0  0  0  0  0  0  0  0
   17.9295   -9.5013  -18.5215 O   0  0  0  0  0  0  0  0  0  0  0  0
   18.6078  -14.4480  -15.9550 C   0  0  0  0  0  0  0  0  0  0  0  0
   18.4951  -15.8272  -15.9407 C   0  0  0  0  0  0  0  0  0  0  0  0
   16.9479   -7.5606  -15.3016 O   0  0  0  0  0  0  0  0  0  0  0  0
   17.6826   -7.2983  -16.4493 C   0  0  0  0  0  0  0  0  0  0  0  0
   19.0221   -8.0450  -16.4000 C   0  0  2  0  0  0  0  0  0  0  0  0
   18.7052   -9.4777  -16.3572 N   0  0  0  0  0  0  0  0  0  0  0  0
   19.6523   -7.6856  -15.1037 C   0  0  0  0  0  0  0  0  0  0  0  0
   19.4528   -8.3879  -14.0566 O   0  0  0  0  0  0  0  0  0  0  0  0
   26.3703   -9.7409  -14.3366 C   0  0  0  0  0  0  0  0  0  0  0  0
   24.7238   -9.5012  -15.0151 S   0  0  0  0  0  0  0  0  0  0  0  0
   23.9205   -8.0302  -14.3874 C   0  0  0  0  0  0  0  0  0  0  0  0
   22.5454   -7.7920  -14.8530 C   0  0  0  0  0  0  0  0  0  0  0  0
   21.7781   -6.6810  -14.2153 C   0  0  2  0  0  0  0  0  0  0  0  0
   20.4898   -6.5704  -14.9577 N   0  0  0  0  0  0  0  0  0  0  0  0
   22.3777   -5.3548  -14.2492 C   0  0  0  0  0  0  0  0  0  0  0  0
   23.1275   -4.8123  -13.2195 O   0  0  0  0  0  0  0  0  0  0  0  0
   22.2198   -4.6068  -15.2795 O   0  0  0  0  0  0  0  0  0  0  0  0
  1  2  1  0
  2  3  2  0
  3  4  1  0
  5  6  1  0
  5  4  2  0
  6  7  1  0
  7  8  1  6
  7  9  1  0
  9 16  1  0
  9 10  2  0
 11  5  1  0
 12 11  2  0
 12  2  1  0
 14 13  1  0
 15 14  1  1
 16 15  1  0
 17 15  1  0
 17 18  2  0
 19 20  1  0
 20 21  1  0
 21 22  1  0
 23 22  1  6
 23 24  1  0
 24 17  1  0
 25 23  1  0
 26 25  1  0
 27 25  2  0
M  END
$$$$
