YSM.pdb
     RDKit          3D

 27 27  0  0  1  0  0  0  0  0999 V2000
   29.0837  -20.3481   -3.6291 O   0  0  0  0  0  0  0  0  0  0  0  0
   28.5441  -20.2240   -4.9248 C   0  0  0  0  0  0  0  0  0  0  0  0
   29.2203  -19.5633   -5.9289 C   0  0  0  0  0  0  0  0  0  0  0  0
   28.6574  -19.4615   -7.1914 C   0  0  0  0  0  0  0  0  0  0  0  0
   27.4259  -20.0032   -7.4926 C   0  0  0  0  0  0  0  0  0  0  0  0
   26.9083  -19.8491   -8.8455 C   0  0  0  0  0  0  0  0  0  0  0  0
   27.0285  -21.0771   -9.7003 C   0  0  2  0  0  0  0  0  0  0  0  0
   28.4383  -21.3502   -9.9082 N   0  0  0  0  0  0  0  0  0  0  0  0
   26.4154  -20.7691  -11.0400 C   0  0  0  0  0  0  0  0  0  0  0  0
   26.9084  -19.9059  -11.8108 O   0  0  0  0  0  0  0  0  0  0  0  0
   26.7411  -20.6660   -6.4963 C   0  0  0  0  0  0  0  0  0  0  0  0
   27.3174  -20.7584   -5.2416 C   0  0  0  0  0  0  0  0  0  0  0  0
   24.1849  -23.4862  -12.8194 O   0  0  0  0  0  0  0  0  0  0  0  0
   24.5651  -22.3971  -13.5908 C   0  0  0  0  0  0  0  0  0  0  0  0
   24.5663  -21.1214  -12.7381 C   0  0  2  0  0  0  0  0  0  0  0  0
   25.2431  -21.4562  -11.4792 N   0  0  0  0  0  0  0  0  0  0  0  0
   23.1446  -20.8312  -12.4201 C   0  0  0  0  0  0  0  0  0  0  0  0
   22.6034  -21.2769  -11.3534 O   0  0  0  0  0  0  0  0  0  0  0  0
   20.0627  -15.2963  -13.3176 C   0  0  0  0  0  0  0  0  0  0  0  0
   18.7103  -16.4222  -13.6815 S   0  0  0  0  0  0  0  0  0  0  0  0
   19.0914  -18.1221  -13.2714 C   0  0  0  0  0  0  0  0  0  0  0  0
   20.5051  -18.5148  -13.3780 C   0  0  0  0  0  0  0  0  0  0  0  0
   20.8741  -19.9024  -12.9677 C   0  0  2  0  0  0  0  0  0  0  0  0
   22.3271  -20.0626  -13.2612 N   0  0  0  0  0  0  0  0  0  0  0  0
   20.2018  -20.9980  -13.6512 C   0  0  0  0  0  0  0  0  0  0  0  0
   19.0206  -21.5773  -13.2200 O   0  0  0  0  0  0  0  0  0  0  0  0
   20.7072  -21.4906  -14.7225 O   0  0  0  0  0  0  0  0  0  0  0  0
  1  2  1  0
  2  3  2  0
  3  4  1  0
  5  6  1  0
  5  4  2  0
  6  7  1  0
  7  8  1  6
  7  9  1  0
  9 16  1  0
  9 10  2  0
 11  5  1  0
 12 11  2  0
 12  2  1  0
 14 13  1  0
 15 14  1  6
 16 15  1  0
 17 15  1  0
 17 18  2  0
 19 20  1  0
 20 21  1  0
 21 22  1  0
 23 22  1  6
 23 24  1  0
 24 17  1  0
 25 23  1  0
 26 25  1  0
 27 25  2  0
M  END
$$$$
