YSM.pdb
     RDKit          3D

 27 27  0  0  1  0  0  0  0  0999 V2000
   23.9259  -20.3299  -19.4721 O   0  0  0  0  0  0  0  0  0  0  0  0
   23.0584  -20.9171  -18.5296 C   0  0  0  0  0  0  0  0  0  0  0  0
   23.4997  -21.8727  -17.6384 C   0  0  0  0  0  0  0  0  0  0  0  0
   22.6166  -22.4277  -16.7256 C   0  0  0  0  0  0  0  0  0  0  0  0
   21.2895  -22.0582  -16.6692 C   0  0  0  0  0  0  0  0  0  0  0  0
   20.4305  -22.6930  -15.6788 C   0  0  0  0  0  0  0  0  0  0  0  0
   20.2448  -24.1699  -15.8726 C   0  0  2  0  0  0  0  0  0  0  0  0
   19.4798  -24.3764  -17.0881 N   0  0  0  0  0  0  0  0  0  0  0  0
   19.4281  -24.6880  -14.7194 C   0  0  0  0  0  0  0  0  0  0  0  0
   18.2259  -24.3553  -14.5573 O   0  0  0  0  0  0  0  0  0  0  0  0
   20.8376  -21.1037  -17.5555 C   0  0  0  0  0  0  0  0  0  0  0  0
   21.7325  -20.5598  -18.4602 C   0  0  0  0  0  0  0  0  0  0  0  0
   21.1596  -27.3619  -11.9496 O   0  0  0  0  0  0  0  0  0  0  0  0
   19.7906  -27.3811  -12.1762 C   0  0  0  0  0  0  0  0  0  0  0  0
   19.2964  -25.9745  -12.5389 C   0  0  2  0  0  0  0  0  0  0  0  0
   20.0014  -25.5828  -13.7654 N   0  0  0  0  0  0  0  0  0  0  0  0
   19.7582  -25.0765  -11.4493 C   0  0  0  0  0  0  0  0  0  0  0  0
   20.9819  -24.7247  -11.3592 O   0  0  0  0  0  0  0  0  0  0  0  0
   19.6271  -18.7809  -10.4544 C   0  0  0  0  0  0  0  0  0  0  0  0
   20.5195  -19.9476   -9.4193 S   0  0  0  0  0  0  0  0  0  0  0  0
   19.4728  -21.2498   -8.7776 C   0  0  0  0  0  0  0  0  0  0  0  0
   19.0913  -22.3049   -9.7291 C   0  0  0  0  0  0  0  0  0  0  0  0
   19.4073  -23.7179   -9.3640 C   0  0  2  0  0  0  0  0  0  0  0  0
   18.8894  -24.5714  -10.4713 N   0  0  0  0  0  0  0  0  0  0  0  0
   18.8105  -24.2374   -8.1419 C   0  0  0  0  0  0  0  0  0  0  0  0
   17.6315  -24.9618   -8.0976 O   0  0  0  0  0  0  0  0  0  0  0  0
   19.3798  -24.0270   -7.0117 O   0  0  0  0  0  0  0  0  0  0  0  0
  1  2  1  0
  2  3  2  0
  3  4  1  0
  5  6  1  0
  5  4  2  0
  6  7  1  0
  7  8  1  6
  7  9  1  0
  9 16  1  0
  9 10  2  0
 11  5  1  0
 12 11  2  0
 12  2  1  0
 14 13  1  0
 15 14  1  1
 16 15  1  0
 17 15  1  0
 17 18  2  0
 19 20  1  0
 20 21  1  0
 21 22  1  0
 23 22  1  6
 23 24  1  0
 24 17  1  0
 25 23  1  0
 26 25  1  0
 27 25  2  0
M  END
$$$$
