YSM.pdb
     RDKit          3D

 27 27  0  0  1  0  0  0  0  0999 V2000
   16.7634  -20.0900  -12.8146 O   0  0  0  0  0  0  0  0  0  0  0  0
   18.1094  -20.4687  -12.6401 C   0  0  0  0  0  0  0  0  0  0  0  0
   18.7815  -20.2254  -11.4606 C   0  0  0  0  0  0  0  0  0  0  0  0
   20.1055  -20.6127  -11.3262 C   0  0  0  0  0  0  0  0  0  0  0  0
   20.7933  -21.2432  -12.3412 C   0  0  0  0  0  0  0  0  0  0  0  0
   22.1834  -21.6153  -12.1153 C   0  0  0  0  0  0  0  0  0  0  0  0
   23.1467  -20.4645  -12.1413 C   0  0  2  0  0  0  0  0  0  0  0  0
   23.0886  -19.8524  -13.4556 N   0  0  0  0  0  0  0  0  0  0  0  0
   24.5332  -21.0183  -11.9508 C   0  0  0  0  0  0  0  0  0  0  0  0
   24.8391  -21.7047  -10.9420 O   0  0  0  0  0  0  0  0  0  0  0  0
   20.1311  -21.4914  -13.5247 C   0  0  0  0  0  0  0  0  0  0  0  0
   18.8095  -21.0983  -13.6422 C   0  0  0  0  0  0  0  0  0  0  0  0
   27.7035  -19.6838  -14.2443 O   0  0  0  0  0  0  0  0  0  0  0  0
   27.6026  -21.0650  -14.1540 C   0  0  0  0  0  0  0  0  0  0  0  0
   26.8535  -21.4564  -12.8734 C   0  0  2  0  0  0  0  0  0  0  0  0
   25.5528  -20.7776  -12.9213 N   0  0  0  0  0  0  0  0  0  0  0  0
   27.6234  -20.8726  -11.7451 C   0  0  0  0  0  0  0  0  0  0  0  0
   27.2146  -19.8255  -11.1401 O   0  0  0  0  0  0  0  0  0  0  0  0
   28.5823  -20.2588   -4.6867 C   0  0  0  0  0  0  0  0  0  0  0  0
   27.9159  -20.8167   -6.2596 S   0  0  0  0  0  0  0  0  0  0  0  0
   29.0811  -20.6478   -7.6075 C   0  0  0  0  0  0  0  0  0  0  0  0
   28.5776  -20.9861   -8.9477 C   0  0  0  0  0  0  0  0  0  0  0  0
   29.5217  -20.8592  -10.0977 C   0  0  2  0  0  0  0  0  0  0  0  0
   28.8259  -21.4295  -11.2866 N   0  0  0  0  0  0  0  0  0  0  0  0
   30.7906  -21.5655   -9.9962 C   0  0  0  0  0  0  0  0  0  0  0  0
   31.9823  -20.9750   -9.6111 O   0  0  0  0  0  0  0  0  0  0  0  0
   30.8521  -22.8154  -10.2787 O   0  0  0  0  0  0  0  0  0  0  0  0
  1  2  1  0
  2  3  2  0
  3  4  1  0
  5  6  1  0
  5  4  2  0
  6  7  1  0
  7  8  1  6
  7  9  1  0
  9 16  1  0
  9 10  2  0
 11  5  1  0
 12 11  2  0
 12  2  1  0
 14 13  1  0
 15 14  1  6
 16 15  1  0
 17 15  1  0
 17 18  2  0
 19 20  1  0
 20 21  1  0
 21 22  1  0
 23 22  1  1
 23 24  1  0
 24 17  1  0
 25 23  1  0
 26 25  1  0
 27 25  2  0
M  END
$$$$
