YSM.pdb
     RDKit          3D

 27 27  0  0  1  0  0  0  0  0999 V2000
   19.1406  -18.9024  -18.3049 O   0  0  0  0  0  0  0  0  0  0  0  0
   19.6694  -17.6139  -18.0910 C   0  0  0  0  0  0  0  0  0  0  0  0
   19.7855  -16.7009  -19.1182 C   0  0  0  0  0  0  0  0  0  0  0  0
   20.3108  -15.4426  -18.8692 C   0  0  0  0  0  0  0  0  0  0  0  0
   20.7305  -15.0568  -17.6139 C   0  0  0  0  0  0  0  0  0  0  0  0
   21.2711  -13.7153  -17.4411 C   0  0  0  0  0  0  0  0  0  0  0  0
   22.6075  -13.4958  -18.0883 C   0  0  2  0  0  0  0  0  0  0  0  0
   23.5823  -14.3325  -17.4139 N   0  0  0  0  0  0  0  0  0  0  0  0
   22.9985  -12.0596  -17.8651 C   0  0  0  0  0  0  0  0  0  0  0  0
   23.4999  -11.6712  -16.7788 O   0  0  0  0  0  0  0  0  0  0  0  0
   20.6189  -15.9617  -16.5797 C   0  0  0  0  0  0  0  0  0  0  0  0
   20.0924  -17.2136  -16.8455 C   0  0  0  0  0  0  0  0  0  0  0  0
   23.3287   -7.6512  -19.9856 O   0  0  0  0  0  0  0  0  0  0  0  0
   22.9791   -8.9914  -20.0710 C   0  0  0  0  0  0  0  0  0  0  0  0
   23.1919   -9.6794  -18.7161 C   0  0  2  0  0  0  0  0  0  0  0  0
   22.8095  -11.0856  -18.8923 N   0  0  0  0  0  0  0  0  0  0  0  0
   22.2183   -9.0634  -17.7784 C   0  0  0  0  0  0  0  0  0  0  0  0
   21.0232   -9.5022  -17.6867 O   0  0  0  0  0  0  0  0  0  0  0  0
   19.2091   -8.5863  -11.1697 C   0  0  0  0  0  0  0  0  0  0  0  0
   20.2031   -9.1981  -12.5360 S   0  0  0  0  0  0  0  0  0  0  0  0
   20.5130   -7.9521  -13.7829 C   0  0  0  0  0  0  0  0  0  0  0  0
   21.3233   -8.3744  -14.9359 C   0  0  0  0  0  0  0  0  0  0  0  0
   21.5372   -7.3861  -16.0347 C   0  0  2  0  0  0  0  0  0  0  0  0
   22.5511   -7.9802  -16.9523 N   0  0  0  0  0  0  0  0  0  0  0  0
   22.0514   -6.0768  -15.6595 C   0  0  0  0  0  0  0  0  0  0  0  0
   23.3016   -5.5997  -16.0149 O   0  0  0  0  0  0  0  0  0  0  0  0
   21.3330   -5.2863  -14.9490 O   0  0  0  0  0  0  0  0  0  0  0  0
  1  2  1  0
  2  3  2  0
  3  4  1  0
  5  6  1  0
  5  4  2  0
  6  7  1  0
  7  8  1  1
  7  9  1  0
  9 16  1  0
  9 10  2  0
 11  5  1  0
 12 11  2  0
 12  2  1  0
 14 13  1  0
 15 14  1  6
 16 15  1  0
 17 15  1  0
 17 18  2  0
 19 20  1  0
 20 21  1  0
 21 22  1  0
 23 22  1  1
 23 24  1  0
 24 17  1  0
 25 23  1  0
 26 25  1  0
 27 25  2  0
M  END
$$$$
