KKY.pdb
     RDKit          3D

 31 31  0  0  1  0  0  0  0  0999 V2000
   24.6173  -20.2716  -18.3813 N   0  0  0  0  0  0  0  0  0  0  0  0
   23.4493  -19.7887  -17.7049 C   0  0  1  0  0  0  0  0  0  0  0  0
   22.6249  -18.9401  -18.6202 C   0  0  0  0  0  0  0  0  0  0  0  0
   23.2714  -18.6802  -19.9416 C   0  0  0  0  0  0  0  0  0  0  0  0
   23.9687  -17.3388  -19.9984 C   0  0  0  0  0  0  0  0  0  0  0  0
   24.5202  -17.1184  -21.3909 C   0  0  0  0  0  0  0  0  0  0  0  0
   25.8908  -17.5210  -21.5235 N   0  0  0  0  0  0  0  0  0  0  0  0
   22.5898  -20.9358  -17.2523 C   0  0  0  0  0  0  0  0  0  0  0  0
   21.5014  -20.7388  -16.6554 O   0  0  0  0  0  0  0  0  0  0  0  0
   22.9790  -22.2874  -17.4842 N   0  0  0  0  0  0  0  0  0  0  0  0
   22.2894  -23.4171  -16.9275 C   0  0  1  0  0  0  0  0  0  0  0  0
   22.9428  -24.7334  -17.1945 C   0  0  0  0  0  0  0  0  0  0  0  0
   22.1491  -25.9058  -16.6676 C   0  0  0  0  0  0  0  0  0  0  0  0
   22.9029  -27.1639  -17.1191 C   0  0  0  0  0  0  0  0  0  0  0  0
   22.2921  -28.3995  -16.4930 C   0  0  0  0  0  0  0  0  0  0  0  0
   23.0528  -29.5357  -16.9807 N   0  0  0  0  0  0  0  0  0  0  0  0
   21.9813  -23.2223  -15.4784 C   0  0  0  0  0  0  0  0  0  0  0  0
   22.8947  -23.2419  -14.6138 O   0  0  0  0  0  0  0  0  0  0  0  0
   20.0337  -18.0149   -9.0356 O   0  0  0  0  0  0  0  0  0  0  0  0
   20.3278  -18.7880  -10.1395 C   0  0  0  0  0  0  0  0  0  0  0  0
   19.8138  -18.5217  -11.3945 C   0  0  0  0  0  0  0  0  0  0  0  0
   20.1145  -19.3013  -12.4919 C   0  0  0  0  0  0  0  0  0  0  0  0
   20.9620  -20.4009  -12.3619 C   0  0  0  0  0  0  0  0  0  0  0  0
   21.2347  -21.1940  -13.5771 C   0  0  0  0  0  0  0  0  0  0  0  0
   20.3997  -22.4397  -13.6846 C   0  0  2  0  0  0  0  0  0  0  0  0
   20.6560  -23.0079  -15.0153 N   0  0  0  0  0  0  0  0  0  0  0  0
   18.9627  -22.1060  -13.6170 C   0  0  0  0  0  0  0  0  0  0  0  0
   18.1546  -22.2504  -14.7221 O   0  0  0  0  0  0  0  0  0  0  0  0
   21.4723  -20.6669  -11.1197 C   0  0  0  0  0  0  0  0  0  0  0  0
   21.1616  -19.8704  -10.0128 C   0  0  0  0  0  0  0  0  0  0  0  0
   18.4135  -21.6788  -12.5599 O   0  0  0  0  0  0  0  0  0  0  0  0
  2  3  1  0
  2  1  1  6
  3  4  1  0
  4  5  1  0
  5  6  1  0
  7  6  1  0
  8  2  1  0
  9  8  2  0
 10  8  1  0
 11 17  1  0
 11 10  1  0
 11 12  1  1
 13 12  1  0
 13 14  1  0
 15 14  1  0
 15 16  1  0
 17 26  1  0
 18 17  2  0
 19 20  1  0
 20 30  2  0
 21 20  1  0
 21 22  2  0
 22 23  1  0
 23 29  2  0
 23 24  1  0
 25 27  1  0
 25 24  1  6
 26 25  1  0
 27 31  2  0
 27 28  1  0
 30 29  1  0
M  END
$$$$
