KKY.pdb
     RDKit          3D

 31 31  0  0  1  0  0  0  0  0999 V2000
   26.9577  -22.8266  -16.1898 N   0  0  0  0  0  0  0  0  0  0  0  0
   26.8906  -21.4154  -16.4330 C   0  0  1  0  0  0  0  0  0  0  0  0
   27.4159  -21.0913  -17.7955 C   0  0  0  0  0  0  0  0  0  0  0  0
   28.7172  -21.7540  -18.1100 C   0  0  0  0  0  0  0  0  0  0  0  0
   29.2515  -21.3771  -19.4742 C   0  0  0  0  0  0  0  0  0  0  0  0
   30.5422  -22.1250  -19.7319 C   0  0  0  0  0  0  0  0  0  0  0  0
   31.0778  -21.8883  -21.0417 N   0  0  0  0  0  0  0  0  0  0  0  0
   25.4672  -20.9364  -16.3693 C   0  0  0  0  0  0  0  0  0  0  0  0
   25.1647  -19.7515  -16.6596 O   0  0  0  0  0  0  0  0  0  0  0  0
   24.4105  -21.8092  -15.9775 N   0  0  0  0  0  0  0  0  0  0  0  0
   23.0323  -21.4102  -15.9229 C   0  0  1  0  0  0  0  0  0  0  0  0
   22.1835  -21.9667  -17.0186 C   0  0  0  0  0  0  0  0  0  0  0  0
   20.7626  -21.4549  -16.9847 C   0  0  0  0  0  0  0  0  0  0  0  0
   20.0302  -22.1639  -18.1316 C   0  0  0  0  0  0  0  0  0  0  0  0
   18.6078  -21.6580  -18.2436 C   0  0  0  0  0  0  0  0  0  0  0  0
   17.9453  -22.4866  -19.2346 N   0  0  0  0  0  0  0  0  0  0  0  0
   22.4380  -21.6453  -14.5722 C   0  0  0  0  0  0  0  0  0  0  0  0
   22.4250  -22.7949  -14.0616 O   0  0  0  0  0  0  0  0  0  0  0  0
   26.9963  -21.2350   -9.4646 O   0  0  0  0  0  0  0  0  0  0  0  0
   25.7646  -20.8814   -9.9754 C   0  0  0  0  0  0  0  0  0  0  0  0
   25.5666  -20.5954  -11.3130 C   0  0  0  0  0  0  0  0  0  0  0  0
   24.3306  -20.2429  -11.8135 C   0  0  0  0  0  0  0  0  0  0  0  0
   23.2258  -20.1640  -10.9665 C   0  0  0  0  0  0  0  0  0  0  0  0
   21.9356  -19.7745  -11.5697 C   0  0  0  0  0  0  0  0  0  0  0  0
   21.3416  -20.8314  -12.4587 C   0  0  2  0  0  0  0  0  0  0  0  0
   21.8662  -20.5921  -13.8103 N   0  0  0  0  0  0  0  0  0  0  0  0
   19.8733  -20.6866  -12.5236 C   0  0  0  0  0  0  0  0  0  0  0  0
   19.0774  -21.1224  -11.4884 O   0  0  0  0  0  0  0  0  0  0  0  0
   23.4194  -20.4467   -9.6410 C   0  0  0  0  0  0  0  0  0  0  0  0
   24.6767  -20.8034   -9.1428 C   0  0  0  0  0  0  0  0  0  0  0  0
   19.2853  -20.1647  -13.5153 O   0  0  0  0  0  0  0  0  0  0  0  0
  2  3  1  0
  2  1  1  6
  3  4  1  0
  4  5  1  0
  5  6  1  0
  7  6  1  0
  8  2  1  0
  9  8  2  0
 10  8  1  0
 11 17  1  0
 11 10  1  0
 11 12  1  6
 13 12  1  0
 13 14  1  0
 15 14  1  0
 15 16  1  0
 17 26  1  0
 18 17  2  0
 19 20  1  0
 20 30  2  0
 21 20  1  0
 21 22  2  0
 22 23  1  0
 23 29  2  0
 23 24  1  0
 25 27  1  0
 25 24  1  1
 26 25  1  0
 27 31  2  0
 27 28  1  0
 30 29  1  0
M  END
$$$$
