KKY.pdb
     RDKit          3D

 31 31  0  0  1  0  0  0  0  0999 V2000
   28.4770  -21.0136  -21.2291 N   0  0  0  0  0  0  0  0  0  0  0  0
   28.9850  -20.5045  -19.9890 C   0  0  1  0  0  0  0  0  0  0  0  0
   30.1666  -19.6192  -20.2288 C   0  0  0  0  0  0  0  0  0  0  0  0
   31.3106  -20.3128  -20.8935 C   0  0  0  0  0  0  0  0  0  0  0  0
   31.6135  -21.6621  -20.2800 C   0  0  0  0  0  0  0  0  0  0  0  0
   32.8439  -22.2483  -20.9388 C   0  0  0  0  0  0  0  0  0  0  0  0
   33.1916  -23.5437  -20.4298 N   0  0  0  0  0  0  0  0  0  0  0  0
   27.9385  -19.6848  -19.2872 C   0  0  0  0  0  0  0  0  0  0  0  0
   28.2081  -19.0401  -18.2424 O   0  0  0  0  0  0  0  0  0  0  0  0
   26.6037  -19.6100  -19.7818 N   0  0  0  0  0  0  0  0  0  0  0  0
   25.5771  -18.8109  -19.1741 C   0  0  1  0  0  0  0  0  0  0  0  0
   24.9348  -17.8253  -20.0942 C   0  0  0  0  0  0  0  0  0  0  0  0
   25.9235  -16.8736  -20.7258 C   0  0  0  0  0  0  0  0  0  0  0  0
   25.0966  -15.9281  -21.6071 C   0  0  0  0  0  0  0  0  0  0  0  0
   24.7631  -16.5912  -22.9265 C   0  0  0  0  0  0  0  0  0  0  0  0
   24.0752  -15.5986  -23.7321 N   0  0  0  0  0  0  0  0  0  0  0  0
   24.5724  -19.6500  -18.4534 C   0  0  0  0  0  0  0  0  0  0  0  0
   24.3013  -20.8144  -18.8444 O   0  0  0  0  0  0  0  0  0  0  0  0
   18.5663  -21.8472  -12.2319 O   0  0  0  0  0  0  0  0  0  0  0  0
   19.5860  -21.2673  -12.9577 C   0  0  0  0  0  0  0  0  0  0  0  0
   19.4249  -20.0863  -13.6573 C   0  0  0  0  0  0  0  0  0  0  0  0
   20.4513  -19.5149  -14.3800 C   0  0  0  0  0  0  0  0  0  0  0  0
   21.7040  -20.1256  -14.4251 C   0  0  0  0  0  0  0  0  0  0  0  0
   22.7537  -19.4615  -15.2233 C   0  0  0  0  0  0  0  0  0  0  0  0
   22.8933  -20.0131  -16.6149 C   0  0  2  0  0  0  0  0  0  0  0  0
   23.8842  -19.1759  -17.3051 N   0  0  0  0  0  0  0  0  0  0  0  0
   21.6195  -19.8863  -17.3512 C   0  0  0  0  0  0  0  0  0  0  0  0
   20.7465  -20.9475  -17.4339 O   0  0  0  0  0  0  0  0  0  0  0  0
   21.8661  -21.2958  -13.7331 C   0  0  0  0  0  0  0  0  0  0  0  0
   20.8192  -21.8675  -13.0030 C   0  0  0  0  0  0  0  0  0  0  0  0
   21.2739  -18.8161  -17.9316 O   0  0  0  0  0  0  0  0  0  0  0  0
  2  3  1  0
  2  1  1  6
  3  4  1  0
  4  5  1  0
  5  6  1  0
  7  6  1  0
  8  2  1  0
  9  8  2  0
 10  8  1  0
 11 17  1  0
 11 10  1  0
 11 12  1  6
 13 12  1  0
 13 14  1  0
 15 14  1  0
 15 16  1  0
 17 26  1  0
 18 17  2  0
 19 20  1  0
 20 30  2  0
 21 20  1  0
 21 22  2  0
 22 23  1  0
 23 29  2  0
 23 24  1  0
 25 27  1  0
 25 24  1  1
 26 25  1  0
 27 31  2  0
 27 28  1  0
 30 29  1  0
M  END
$$$$
