KKY.pdb
     RDKit          3D

 31 31  0  0  1  0  0  0  0  0999 V2000
   26.0032  -23.8464  -16.7850 N   0  0  0  0  0  0  0  0  0  0  0  0
   27.2223  -23.4848  -16.1231 C   0  0  1  0  0  0  0  0  0  0  0  0
   28.2531  -23.0549  -17.1181 C   0  0  0  0  0  0  0  0  0  0  0  0
   28.1851  -23.7990  -18.4117 C   0  0  0  0  0  0  0  0  0  0  0  0
   29.2921  -23.4130  -19.3678 C   0  0  0  0  0  0  0  0  0  0  0  0
   29.1427  -24.1997  -20.6525 C   0  0  0  0  0  0  0  0  0  0  0  0
   30.1376  -23.8711  -21.6325 N   0  0  0  0  0  0  0  0  0  0  0  0
   26.9910  -22.3347  -15.1832 C   0  0  0  0  0  0  0  0  0  0  0  0
   27.9523  -21.6913  -14.6917 O   0  0  0  0  0  0  0  0  0  0  0  0
   25.6732  -21.9335  -14.8163 N   0  0  0  0  0  0  0  0  0  0  0  0
   25.3972  -20.8645  -13.8984 C   0  0  1  0  0  0  0  0  0  0  0  0
   24.0418  -20.2553  -14.0483 C   0  0  0  0  0  0  0  0  0  0  0  0
   22.9290  -21.1656  -13.5844 C   0  0  0  0  0  0  0  0  0  0  0  0
   21.6202  -20.4367  -13.9163 C   0  0  0  0  0  0  0  0  0  0  0  0
   20.4288  -21.2783  -13.5113 C   0  0  0  0  0  0  0  0  0  0  0  0
   19.2422  -20.5042  -13.8281 N   0  0  0  0  0  0  0  0  0  0  0  0
   25.6886  -21.2549  -12.4857 C   0  0  0  0  0  0  0  0  0  0  0  0
   25.2145  -22.3116  -11.9949 O   0  0  0  0  0  0  0  0  0  0  0  0
   28.4538  -20.2759   -4.0624 O   0  0  0  0  0  0  0  0  0  0  0  0
   28.2550  -20.1567   -5.4222 C   0  0  0  0  0  0  0  0  0  0  0  0
   29.0850  -20.7536   -6.3522 C   0  0  0  0  0  0  0  0  0  0  0  0
   28.8770  -20.6281   -7.7099 C   0  0  0  0  0  0  0  0  0  0  0  0
   27.8024  -19.8806   -8.1902 C   0  0  0  0  0  0  0  0  0  0  0  0
   27.6447  -19.7840   -9.6551 C   0  0  0  0  0  0  0  0  0  0  0  0
   26.7186  -20.8183  -10.2318 C   0  0  2  0  0  0  0  0  0  0  0  0
   26.5064  -20.4586  -11.6407 N   0  0  0  0  0  0  0  0  0  0  0  0
   25.4040  -20.7666   -9.5608 C   0  0  0  0  0  0  0  0  0  0  0  0
   25.1043  -21.6329   -8.5338 O   0  0  0  0  0  0  0  0  0  0  0  0
   26.9788  -19.2881   -7.2710 C   0  0  0  0  0  0  0  0  0  0  0  0
   27.1978  -19.4213   -5.8960 C   0  0  0  0  0  0  0  0  0  0  0  0
   24.5052  -19.9390   -9.8904 O   0  0  0  0  0  0  0  0  0  0  0  0
  2  3  1  0
  2  1  1  6
  3  4  1  0
  4  5  1  0
  5  6  1  0
  7  6  1  0
  8  2  1  0
  9  8  2  0
 10  8  1  0
 11 17  1  0
 11 10  1  0
 11 12  1  1
 13 12  1  0
 13 14  1  0
 15 14  1  0
 15 16  1  0
 17 26  1  0
 18 17  2  0
 19 20  1  0
 20 30  2  0
 21 20  1  0
 21 22  2  0
 22 23  1  0
 23 29  2  0
 23 24  1  0
 25 27  1  0
 25 24  1  1
 26 25  1  0
 27 31  2  0
 27 28  1  0
 30 29  1  0
M  END
$$$$
