KKY.pdb
     RDKit          3D

 31 31  0  0  1  0  0  0  0  0999 V2000
   26.7056  -24.0835  -16.1858 N   0  0  0  0  0  0  0  0  0  0  0  0
   25.9351  -24.4362  -17.3421 C   0  0  1  0  0  0  0  0  0  0  0  0
   25.5610  -23.2131  -18.1176 C   0  0  0  0  0  0  0  0  0  0  0  0
   26.1382  -21.9516  -17.5635 C   0  0  0  0  0  0  0  0  0  0  0  0
   25.8206  -20.7402  -18.4122 C   0  0  0  0  0  0  0  0  0  0  0  0
   26.5833  -19.5437  -17.8845 C   0  0  0  0  0  0  0  0  0  0  0  0
   26.3798  -18.3577  -18.6655 N   0  0  0  0  0  0  0  0  0  0  0  0
   26.7313  -25.3267  -18.2547 C   0  0  0  0  0  0  0  0  0  0  0  0
   26.2372  -25.7780  -19.3187 O   0  0  0  0  0  0  0  0  0  0  0  0
   28.0744  -25.6904  -17.9455 N   0  0  0  0  0  0  0  0  0  0  0  0
   28.8817  -26.5291  -18.7861 C   0  0  1  0  0  0  0  0  0  0  0  0
   30.2194  -25.9588  -19.1264 C   0  0  0  0  0  0  0  0  0  0  0  0
   31.0184  -26.8392  -20.0586 C   0  0  0  0  0  0  0  0  0  0  0  0
   32.3042  -26.0635  -20.3745 C   0  0  0  0  0  0  0  0  0  0  0  0
   33.2510  -26.9187  -21.1893 C   0  0  0  0  0  0  0  0  0  0  0  0
   34.4053  -26.0924  -21.4932 N   0  0  0  0  0  0  0  0  0  0  0  0
   28.9795  -27.9217  -18.2533 C   0  0  0  0  0  0  0  0  0  0  0  0
   29.8913  -28.2449  -17.4494 O   0  0  0  0  0  0  0  0  0  0  0  0
   27.4155  -34.9408  -13.6563 O   0  0  0  0  0  0  0  0  0  0  0  0
   27.5600  -33.7612  -14.3566 C   0  0  0  0  0  0  0  0  0  0  0  0
   26.4992  -32.9150  -14.6186 C   0  0  0  0  0  0  0  0  0  0  0  0
   26.6548  -31.7375  -15.3198 C   0  0  0  0  0  0  0  0  0  0  0  0
   27.9115  -31.3618  -15.7927 C   0  0  0  0  0  0  0  0  0  0  0  0
   28.0027  -30.0921  -16.5407 C   0  0  0  0  0  0  0  0  0  0  0  0
   28.1182  -30.2753  -18.0285 C   0  0  2  0  0  0  0  0  0  0  0  0
   28.0564  -28.9344  -18.6265 N   0  0  0  0  0  0  0  0  0  0  0  0
   26.9670  -31.0421  -18.5456 C   0  0  0  0  0  0  0  0  0  0  0  0
   25.8230  -30.3987  -18.9609 O   0  0  0  0  0  0  0  0  0  0  0  0
   28.9640  -32.1985  -15.5346 C   0  0  0  0  0  0  0  0  0  0  0  0
   28.7964  -33.3905  -14.8225 C   0  0  0  0  0  0  0  0  0  0  0  0
   26.9749  -32.3047  -18.6310 O   0  0  0  0  0  0  0  0  0  0  0  0
  2  3  1  0
  2  1  1  1
  3  4  1  0
  4  5  1  0
  5  6  1  0
  7  6  1  0
  8  2  1  0
  9  8  2  0
 10  8  1  0
 11 17  1  0
 11 10  1  0
 11 12  1  1
 13 12  1  0
 13 14  1  0
 15 14  1  0
 15 16  1  0
 17 26  1  0
 18 17  2  0
 19 20  1  0
 20 30  2  0
 21 20  1  0
 21 22  2  0
 22 23  1  0
 23 29  2  0
 23 24  1  0
 25 27  1  0
 25 24  1  1
 26 25  1  0
 27 31  2  0
 27 28  1  0
 30 29  1  0
M  END
$$$$
