KKY.pdb
     RDKit          3D

 31 31  0  0  1  0  0  0  0  0999 V2000
   22.7793  -18.4444  -17.4720 N   0  0  0  0  0  0  0  0  0  0  0  0
   22.2911  -19.4567  -16.5822 C   0  0  1  0  0  0  0  0  0  0  0  0
   21.3923  -20.4063  -17.3088 C   0  0  0  0  0  0  0  0  0  0  0  0
   20.5886  -19.7623  -18.3909 C   0  0  0  0  0  0  0  0  0  0  0  0
   21.2860  -19.7894  -19.7331 C   0  0  0  0  0  0  0  0  0  0  0  0
   20.4173  -19.1009  -20.7641 C   0  0  0  0  0  0  0  0  0  0  0  0
   21.0896  -18.8857  -22.0131 N   0  0  0  0  0  0  0  0  0  0  0  0
   23.4316  -20.2550  -16.0152 C   0  0  0  0  0  0  0  0  0  0  0  0
   23.2269  -21.2337  -15.2537 O   0  0  0  0  0  0  0  0  0  0  0  0
   24.7854  -19.9299  -16.3211 N   0  0  0  0  0  0  0  0  0  0  0  0
   25.9122  -20.6278  -15.7688 C   0  0  1  0  0  0  0  0  0  0  0  0
   27.1209  -20.6425  -16.6459 C   0  0  0  0  0  0  0  0  0  0  0  0
   28.2844  -21.3902  -16.0379 C   0  0  0  0  0  0  0  0  0  0  0  0
   28.4984  -22.6281  -16.9189 C   0  0  0  0  0  0  0  0  0  0  0  0
   29.6186  -23.4834  -16.3661 C   0  0  0  0  0  0  0  0  0  0  0  0
   29.6979  -24.6642  -17.2068 N   0  0  0  0  0  0  0  0  0  0  0  0
   26.2255  -20.1691  -14.3816 C   0  0  0  0  0  0  0  0  0  0  0  0
   26.5297  -18.9709  -14.1490 O   0  0  0  0  0  0  0  0  0  0  0  0
   20.2561  -21.2249  -10.9885 O   0  0  0  0  0  0  0  0  0  0  0  0
   21.5639  -20.8082  -11.1261 C   0  0  0  0  0  0  0  0  0  0  0  0
   22.4674  -20.8304  -10.0804 C   0  0  0  0  0  0  0  0  0  0  0  0
   23.7731  -20.4115  -10.2289 C   0  0  0  0  0  0  0  0  0  0  0  0
   24.2257  -19.9452  -11.4626 C   0  0  0  0  0  0  0  0  0  0  0  0
   25.6332  -19.5071  -11.5469 C   0  0  0  0  0  0  0  0  0  0  0  0
   26.5852  -20.6059  -11.9299 C   0  0  2  0  0  0  0  0  0  0  0  0
   26.1944  -21.0560  -13.2730 N   0  0  0  0  0  0  0  0  0  0  0  0
   26.4376  -21.7584  -11.0183 C   0  0  0  0  0  0  0  0  0  0  0  0
   26.7858  -21.6538   -9.6906 O   0  0  0  0  0  0  0  0  0  0  0  0
   23.3326  -19.9221  -12.5000 C   0  0  0  0  0  0  0  0  0  0  0  0
   22.0104  -20.3490  -12.3397 C   0  0  0  0  0  0  0  0  0  0  0  0
   25.9922  -22.8780  -11.4054 O   0  0  0  0  0  0  0  0  0  0  0  0
  2  3  1  0
  2  1  1  6
  3  4  1  0
  4  5  1  0
  5  6  1  0
  7  6  1  0
  8  2  1  0
  9  8  2  0
 10  8  1  0
 11 17  1  0
 11 10  1  0
 11 12  1  6
 13 12  1  0
 13 14  1  0
 15 14  1  0
 15 16  1  0
 17 26  1  0
 18 17  2  0
 19 20  1  0
 20 30  2  0
 21 20  1  0
 21 22  2  0
 22 23  1  0
 23 29  2  0
 23 24  1  0
 25 27  1  0
 25 24  1  1
 26 25  1  0
 27 31  2  0
 27 28  1  0
 30 29  1  0
M  END
$$$$
