KKY.pdb
     RDKit          3D

 31 31  0  0  1  0  0  0  0  0999 V2000
   27.9783  -16.5907  -19.1110 N   0  0  0  0  0  0  0  0  0  0  0  0
   27.2289  -17.0380  -20.2483 C   0  0  1  0  0  0  0  0  0  0  0  0
   28.0304  -16.8796  -21.5013 C   0  0  0  0  0  0  0  0  0  0  0  0
   27.3671  -17.4473  -22.7135 C   0  0  0  0  0  0  0  0  0  0  0  0
   27.0799  -16.4010  -23.7677 C   0  0  0  0  0  0  0  0  0  0  0  0
   26.3849  -17.0518  -24.9446 C   0  0  0  0  0  0  0  0  0  0  0  0
   26.2050  -16.1611  -26.0547 N   0  0  0  0  0  0  0  0  0  0  0  0
   26.8824  -18.4943  -20.1120 C   0  0  0  0  0  0  0  0  0  0  0  0
   26.2464  -19.0998  -21.0113 O   0  0  0  0  0  0  0  0  0  0  0  0
   27.2629  -19.2398  -18.9581 N   0  0  0  0  0  0  0  0  0  0  0  0
   26.9161  -20.6183  -18.7555 C   0  0  1  0  0  0  0  0  0  0  0  0
   27.9844  -21.4356  -18.1063 C   0  0  0  0  0  0  0  0  0  0  0  0
   27.6145  -22.8942  -17.9724 C   0  0  0  0  0  0  0  0  0  0  0  0
   28.8622  -23.5982  -17.4227 C   0  0  0  0  0  0  0  0  0  0  0  0
   28.5776  -25.0649  -17.1786 C   0  0  0  0  0  0  0  0  0  0  0  0
   29.8574  -25.7046  -16.9326 N   0  0  0  0  0  0  0  0  0  0  0  0
   25.5965  -20.7651  -18.0699 C   0  0  0  0  0  0  0  0  0  0  0  0
   25.4299  -20.3574  -16.8917 O   0  0  0  0  0  0  0  0  0  0  0  0
   16.9697  -21.1004  -16.5196 O   0  0  0  0  0  0  0  0  0  0  0  0
   18.2446  -20.9887  -17.0346 C   0  0  0  0  0  0  0  0  0  0  0  0
   19.1846  -20.1186  -16.5156 C   0  0  0  0  0  0  0  0  0  0  0  0
   20.4569  -20.0149  -17.0381 C   0  0  0  0  0  0  0  0  0  0  0  0
   20.8363  -20.8007  -18.1256 C   0  0  0  0  0  0  0  0  0  0  0  0
   22.2113  -20.6325  -18.6368 C   0  0  0  0  0  0  0  0  0  0  0  0
   23.2096  -21.5582  -17.9991 C   0  0  2  0  0  0  0  0  0  0  0  0
   24.4806  -21.3658  -18.7109 N   0  0  0  0  0  0  0  0  0  0  0  0
   22.8054  -22.9656  -18.1912 C   0  0  0  0  0  0  0  0  0  0  0  0
   22.0710  -23.6235  -17.2306 O   0  0  0  0  0  0  0  0  0  0  0  0
   19.9068  -21.6634  -18.6417 C   0  0  0  0  0  0  0  0  0  0  0  0
   18.6190  -21.7616  -18.1049 C   0  0  0  0  0  0  0  0  0  0  0  0
   23.1083  -23.6238  -19.2287 O   0  0  0  0  0  0  0  0  0  0  0  0
  2  3  1  0
  2  1  1  1
  3  4  1  0
  4  5  1  0
  5  6  1  0
  7  6  1  0
  8  2  1  0
  9  8  2  0
 10  8  1  0
 11 17  1  0
 11 10  1  0
 11 12  1  1
 13 12  1  0
 13 14  1  0
 15 14  1  0
 15 16  1  0
 17 26  1  0
 18 17  2  0
 19 20  1  0
 20 30  2  0
 21 20  1  0
 21 22  2  0
 22 23  1  0
 23 29  2  0
 23 24  1  0
 25 27  1  0
 25 24  1  6
 26 25  1  0
 27 31  2  0
 27 28  1  0
 30 29  1  0
M  END
$$$$
