KKY.pdb
     RDKit          3D

 31 31  0  0  1  0  0  0  0  0999 V2000
   27.1758  -21.8105  -17.4157 N   0  0  0  0  0  0  0  0  0  0  0  0
   25.7990  -21.6717  -17.7904 C   0  0  1  0  0  0  0  0  0  0  0  0
   25.3671  -22.8239  -18.6410 C   0  0  0  0  0  0  0  0  0  0  0  0
   26.4839  -23.4578  -19.4042 C   0  0  0  0  0  0  0  0  0  0  0  0
   26.7828  -22.7451  -20.7046 C   0  0  0  0  0  0  0  0  0  0  0  0
   27.8494  -23.5076  -21.4613 C   0  0  0  0  0  0  0  0  0  0  0  0
   28.1817  -22.9090  -22.7220 N   0  0  0  0  0  0  0  0  0  0  0  0
   24.9200  -21.6528  -16.5712 C   0  0  0  0  0  0  0  0  0  0  0  0
   23.6681  -21.6024  -16.6711 O   0  0  0  0  0  0  0  0  0  0  0  0
   25.4754  -21.6911  -15.2589 N   0  0  0  0  0  0  0  0  0  0  0  0
   24.7052  -21.4775  -14.0660 C   0  0  1  0  0  0  0  0  0  0  0  0
   25.5153  -21.3904  -12.8143 C   0  0  0  0  0  0  0  0  0  0  0  0
   24.6706  -21.2238  -11.5730 C   0  0  0  0  0  0  0  0  0  0  0  0
   25.6510  -21.2127  -10.3926 C   0  0  0  0  0  0  0  0  0  0  0  0
   24.9057  -21.0296   -9.0878 C   0  0  0  0  0  0  0  0  0  0  0  0
   25.9093  -20.8905   -8.0481 N   0  0  0  0  0  0  0  0  0  0  0  0
   23.7626  -20.3271  -14.2108 C   0  0  0  0  0  0  0  0  0  0  0  0
   24.1885  -19.1657  -14.4389 O   0  0  0  0  0  0  0  0  0  0  0  0
   18.0780  -23.1489  -18.1280 O   0  0  0  0  0  0  0  0  0  0  0  0
   18.8326  -22.1637  -17.5256 C   0  0  0  0  0  0  0  0  0  0  0  0
   20.1931  -22.0355  -17.7324 C   0  0  0  0  0  0  0  0  0  0  0  0
   20.9383  -21.0465  -17.1250 C   0  0  0  0  0  0  0  0  0  0  0  0
   20.3269  -20.1313  -16.2690 C   0  0  0  0  0  0  0  0  0  0  0  0
   21.1870  -19.1038  -15.6489 C   0  0  0  0  0  0  0  0  0  0  0  0
   21.4490  -19.3381  -14.1871 C   0  0  2  0  0  0  0  0  0  0  0  0
   22.3563  -20.4906  -14.0988 N   0  0  0  0  0  0  0  0  0  0  0  0
   20.1997  -19.7062  -13.4908 C   0  0  0  0  0  0  0  0  0  0  0  0
   20.0578  -20.9460  -12.9096 O   0  0  0  0  0  0  0  0  0  0  0  0
   18.9792  -20.2563  -16.0624 C   0  0  0  0  0  0  0  0  0  0  0  0
   18.2320  -21.2626  -16.6829 C   0  0  0  0  0  0  0  0  0  0  0  0
   19.2166  -18.9151  -13.3957 O   0  0  0  0  0  0  0  0  0  0  0  0
  2  3  1  0
  2  1  1  1
  3  4  1  0
  4  5  1  0
  5  6  1  0
  7  6  1  0
  8  2  1  0
  9  8  2  0
 10  8  1  0
 11 17  1  0
 11 10  1  0
 11 12  1  1
 13 12  1  0
 13 14  1  0
 15 14  1  0
 15 16  1  0
 17 26  1  0
 18 17  2  0
 19 20  1  0
 20 30  2  0
 21 20  1  0
 21 22  2  0
 22 23  1  0
 23 29  2  0
 23 24  1  0
 25 27  1  0
 25 24  1  6
 26 25  1  0
 27 31  2  0
 27 28  1  0
 30 29  1  0
M  END
$$$$
