KKY.pdb
     RDKit          3D

 31 31  0  0  1  0  0  0  0  0999 V2000
   29.1075  -24.6260  -17.7774 N   0  0  0  0  0  0  0  0  0  0  0  0
   29.5313  -23.7514  -16.7236 C   0  0  1  0  0  0  0  0  0  0  0  0
   30.8869  -23.1919  -17.0181 C   0  0  0  0  0  0  0  0  0  0  0  0
   31.9412  -24.2355  -17.1940 C   0  0  0  0  0  0  0  0  0  0  0  0
   32.7172  -24.0723  -18.4824 C   0  0  0  0  0  0  0  0  0  0  0  0
   33.6946  -25.2192  -18.6284 C   0  0  0  0  0  0  0  0  0  0  0  0
   34.4473  -25.1651  -19.8484 N   0  0  0  0  0  0  0  0  0  0  0  0
   28.5825  -22.5937  -16.5854 C   0  0  0  0  0  0  0  0  0  0  0  0
   28.7813  -21.6857  -15.7394 O   0  0  0  0  0  0  0  0  0  0  0  0
   27.4241  -22.4851  -17.4090 N   0  0  0  0  0  0  0  0  0  0  0  0
   26.4831  -21.4047  -17.3142 C   0  0  1  0  0  0  0  0  0  0  0  0
   26.2942  -20.6364  -18.5810 C   0  0  0  0  0  0  0  0  0  0  0  0
   27.4701  -19.7494  -18.9162 C   0  0  0  0  0  0  0  0  0  0  0  0
   27.1027  -19.0364  -20.2243 C   0  0  0  0  0  0  0  0  0  0  0  0
   28.2134  -18.0976  -20.6450 C   0  0  0  0  0  0  0  0  0  0  0  0
   27.7831  -17.4663  -21.8795 N   0  0  0  0  0  0  0  0  0  0  0  0
   25.1845  -21.8482  -16.7227 C   0  0  0  0  0  0  0  0  0  0  0  0
   24.7290  -22.9986  -16.9492 O   0  0  0  0  0  0  0  0  0  0  0  0
   18.4950  -23.2534  -11.2894 O   0  0  0  0  0  0  0  0  0  0  0  0
   19.6645  -22.9056  -11.9331 C   0  0  0  0  0  0  0  0  0  0  0  0
   20.1757  -21.6218  -11.9083 C   0  0  0  0  0  0  0  0  0  0  0  0
   21.3462  -21.2848  -12.5553 C   0  0  0  0  0  0  0  0  0  0  0  0
   22.0593  -22.2494  -13.2661 C   0  0  0  0  0  0  0  0  0  0  0  0
   23.2999  -21.8163  -13.9394 C   0  0  0  0  0  0  0  0  0  0  0  0
   23.1010  -21.4243  -15.3771 C   0  0  2  0  0  0  0  0  0  0  0  0
   24.4124  -20.9994  -15.8858 N   0  0  0  0  0  0  0  0  0  0  0  0
   22.1929  -20.2638  -15.4754 C   0  0  0  0  0  0  0  0  0  0  0  0
   20.8294  -20.4416  -15.5401 O   0  0  0  0  0  0  0  0  0  0  0  0
   21.5548  -23.5219  -13.2924 C   0  0  0  0  0  0  0  0  0  0  0  0
   20.3670  -23.8541  -12.6330 C   0  0  0  0  0  0  0  0  0  0  0  0
   22.6153  -19.0712  -15.5044 O   0  0  0  0  0  0  0  0  0  0  0  0
  2  3  1  0
  2  1  1  6
  3  4  1  0
  4  5  1  0
  5  6  1  0
  7  6  1  0
  8  2  1  0
  9  8  2  0
 10  8  1  0
 11 17  1  0
 11 10  1  0
 11 12  1  6
 13 12  1  0
 13 14  1  0
 15 14  1  0
 15 16  1  0
 17 26  1  0
 18 17  2  0
 19 20  1  0
 20 30  2  0
 21 20  1  0
 21 22  2  0
 22 23  1  0
 23 29  2  0
 23 24  1  0
 25 27  1  0
 25 24  1  1
 26 25  1  0
 27 31  2  0
 27 28  1  0
 30 29  1  0
M  END
$$$$
