KKY.pdb
     RDKit          3D

 31 31  0  0  1  0  0  0  0  0999 V2000
   29.5978  -27.0668  -16.5911 N   0  0  0  0  0  0  0  0  0  0  0  0
   28.4065  -26.8440  -17.3566 C   0  0  1  0  0  0  0  0  0  0  0  0
   27.7189  -28.1400  -17.6481 C   0  0  0  0  0  0  0  0  0  0  0  0
   28.5100  -29.0548  -18.5248 C   0  0  0  0  0  0  0  0  0  0  0  0
   27.7632  -30.3239  -18.8719 C   0  0  0  0  0  0  0  0  0  0  0  0
   28.6034  -31.1589  -19.8146 C   0  0  0  0  0  0  0  0  0  0  0  0
   28.0129  -32.4307  -20.1180 N   0  0  0  0  0  0  0  0  0  0  0  0
   27.4424  -25.9802  -16.5924 C   0  0  0  0  0  0  0  0  0  0  0  0
   27.3815  -26.0242  -15.3378 O   0  0  0  0  0  0  0  0  0  0  0  0
   26.5633  -25.0811  -17.2638 N   0  0  0  0  0  0  0  0  0  0  0  0
   25.6937  -24.1652  -16.5808 C   0  0  1  0  0  0  0  0  0  0  0  0
   25.5266  -22.8466  -17.2620 C   0  0  0  0  0  0  0  0  0  0  0  0
   24.6213  -21.9012  -16.5077 C   0  0  0  0  0  0  0  0  0  0  0  0
   24.4658  -20.6624  -17.3998 C   0  0  0  0  0  0  0  0  0  0  0  0
   23.6137  -19.6180  -16.7107 C   0  0  0  0  0  0  0  0  0  0  0  0
   23.5066  -18.4952  -17.6247 N   0  0  0  0  0  0  0  0  0  0  0  0
   24.3826  -24.7942  -16.2368 C   0  0  0  0  0  0  0  0  0  0  0  0
   23.7081  -25.4024  -17.1070 O   0  0  0  0  0  0  0  0  0  0  0  0
   17.0721  -26.4982  -11.4035 O   0  0  0  0  0  0  0  0  0  0  0  0
   18.3363  -26.1472  -11.8296 C   0  0  0  0  0  0  0  0  0  0  0  0
   18.7477  -24.8324  -11.9394 C   0  0  0  0  0  0  0  0  0  0  0  0
   20.0144  -24.4924  -12.3665 C   0  0  0  0  0  0  0  0  0  0  0  0
   20.9321  -25.4859  -12.7057 C   0  0  0  0  0  0  0  0  0  0  0  0
   22.2670  -25.0489  -13.1608 C   0  0  0  0  0  0  0  0  0  0  0  0
   22.4988  -25.2509  -14.6324 C   0  0  2  0  0  0  0  0  0  0  0  0
   23.8433  -24.7348  -14.9244 N   0  0  0  0  0  0  0  0  0  0  0  0
   21.5391  -24.4522  -15.4211 C   0  0  0  0  0  0  0  0  0  0  0  0
   21.6279  -23.0788  -15.4547 O   0  0  0  0  0  0  0  0  0  0  0  0
   20.5269  -26.7892  -12.5979 C   0  0  0  0  0  0  0  0  0  0  0  0
   19.2403  -27.1241  -12.1637 C   0  0  0  0  0  0  0  0  0  0  0  0
   20.6054  -24.9806  -16.0923 O   0  0  0  0  0  0  0  0  0  0  0  0
  2  3  1  0
  2  1  1  1
  3  4  1  0
  4  5  1  0
  5  6  1  0
  7  6  1  0
  8  2  1  0
  9  8  2  0
 10  8  1  0
 11 17  1  0
 11 10  1  0
 11 12  1  6
 13 12  1  0
 13 14  1  0
 15 14  1  0
 15 16  1  0
 17 26  1  0
 18 17  2  0
 19 20  1  0
 20 30  2  0
 21 20  1  0
 21 22  2  0
 22 23  1  0
 23 29  2  0
 23 24  1  0
 25 27  1  0
 25 24  1  1
 26 25  1  0
 27 31  2  0
 27 28  1  0
 30 29  1  0
M  END
$$$$
