KKY.pdb
     RDKit          3D

 31 31  0  0  1  0  0  0  0  0999 V2000
   26.5808  -24.7511  -18.5463 N   0  0  0  0  0  0  0  0  0  0  0  0
   26.0197  -24.7752  -17.2274 C   0  0  1  0  0  0  0  0  0  0  0  0
   26.5957  -25.9032  -16.4317 C   0  0  0  0  0  0  0  0  0  0  0  0
   26.8733  -27.1278  -17.2410 C   0  0  0  0  0  0  0  0  0  0  0  0
   27.4349  -28.2621  -16.4126 C   0  0  0  0  0  0  0  0  0  0  0  0
   27.6920  -29.4568  -17.3061 C   0  0  0  0  0  0  0  0  0  0  0  0
   28.2720  -30.5675  -16.6075 N   0  0  0  0  0  0  0  0  0  0  0  0
   26.3324  -23.4987  -16.4978 C   0  0  0  0  0  0  0  0  0  0  0  0
   27.4929  -23.0159  -16.4973 O   0  0  0  0  0  0  0  0  0  0  0  0
   25.3239  -22.7910  -15.7809 N   0  0  0  0  0  0  0  0  0  0  0  0
   25.5545  -21.5388  -15.1171 C   0  0  1  0  0  0  0  0  0  0  0  0
   24.7549  -20.3976  -15.6547 C   0  0  0  0  0  0  0  0  0  0  0  0
   25.5917  -19.3935  -16.4121 C   0  0  0  0  0  0  0  0  0  0  0  0
   25.4645  -19.7694  -17.8944 C   0  0  0  0  0  0  0  0  0  0  0  0
   26.3066  -18.8456  -18.7483 C   0  0  0  0  0  0  0  0  0  0  0  0
   25.5146  -17.6511  -18.9797 N   0  0  0  0  0  0  0  0  0  0  0  0
   25.4331  -21.6650  -13.6331 C   0  0  0  0  0  0  0  0  0  0  0  0
   24.4873  -22.3113  -13.1134 O   0  0  0  0  0  0  0  0  0  0  0  0
   26.8713  -19.7144   -5.0639 O   0  0  0  0  0  0  0  0  0  0  0  0
   26.9795  -19.8689   -6.4304 C   0  0  0  0  0  0  0  0  0  0  0  0
   27.3251  -21.0702   -7.0198 C   0  0  0  0  0  0  0  0  0  0  0  0
   27.4304  -21.2139   -8.3875 C   0  0  0  0  0  0  0  0  0  0  0  0
   27.1860  -20.1293   -9.2291 C   0  0  0  0  0  0  0  0  0  0  0  0
   27.3236  -20.3539  -10.6819 C   0  0  0  0  0  0  0  0  0  0  0  0
   26.1465  -21.0575  -11.2979 C   0  0  2  0  0  0  0  0  0  0  0  0
   26.3709  -21.0671  -12.7500 N   0  0  0  0  0  0  0  0  0  0  0  0
   24.9035  -20.3000  -11.0489 C   0  0  0  0  0  0  0  0  0  0  0  0
   24.0747  -20.6335  -10.0015 O   0  0  0  0  0  0  0  0  0  0  0  0
   26.8437  -18.9380   -8.6476 C   0  0  0  0  0  0  0  0  0  0  0  0
   26.7393  -18.8021   -7.2596 C   0  0  0  0  0  0  0  0  0  0  0  0
   24.5454  -19.3253  -11.7723 O   0  0  0  0  0  0  0  0  0  0  0  0
  2  3  1  0
  2  1  1  6
  3  4  1  0
  4  5  1  0
  5  6  1  0
  7  6  1  0
  8  2  1  0
  9  8  2  0
 10  8  1  0
 11 17  1  0
 11 10  1  0
 11 12  1  6
 13 12  1  0
 13 14  1  0
 15 14  1  0
 15 16  1  0
 17 26  1  0
 18 17  2  0
 19 20  1  0
 20 30  2  0
 21 20  1  0
 21 22  2  0
 22 23  1  0
 23 29  2  0
 23 24  1  0
 25 27  1  0
 25 24  1  1
 26 25  1  0
 27 31  2  0
 27 28  1  0
 30 29  1  0
M  END
$$$$
