KEG.pdb
     RDKit          3D

 23 22  0  0  1  0  0  0  0  0999 V2000
   17.2269  -11.8945  -15.0147 N   0  0  0  0  0  0  0  0  0  0  0  0
   18.5158  -11.7908  -15.6383 C   0  0  1  0  0  0  0  0  0  0  0  0
   18.5243  -12.4427  -16.9609 C   0  0  0  0  0  0  0  0  0  0  0  0
   17.9555  -13.8030  -16.9614 C   0  0  0  0  0  0  0  0  0  0  0  0
   18.8899  -14.9487  -16.8164 C   0  0  0  0  0  0  0  0  0  0  0  0
   18.1071  -16.2810  -16.8605 C   0  0  0  0  0  0  0  0  0  0  0  0
   19.0396  -17.3358  -16.5839 N   0  0  0  0  0  0  0  0  0  0  0  0
   18.9599  -10.3609  -15.7137 C   0  0  0  0  0  0  0  0  0  0  0  0
   20.0044  -10.0291  -16.3067 O   0  0  0  0  0  0  0  0  0  0  0  0
   18.2086   -9.3340  -15.1144 N   0  0  0  0  0  0  0  0  0  0  0  0
   18.3867   -7.9418  -15.1786 C   0  0  1  0  0  0  0  0  0  0  0  0
   17.1819   -7.0554  -15.2594 C   0  0  0  0  0  0  0  0  0  0  0  0
   16.1136   -7.5303  -16.1977 C   0  0  0  0  0  0  0  0  0  0  0  0
   14.7451   -7.4815  -15.5541 C   0  0  0  0  0  0  0  0  0  0  0  0
   14.2522   -6.3892  -15.1757 O   0  0  0  0  0  0  0  0  0  0  0  0
   19.4335   -7.4946  -14.2598 C   0  0  0  0  0  0  0  0  0  0  0  0
   19.4505   -7.9556  -13.0872 O   0  0  0  0  0  0  0  0  0  0  0  0
   14.0172   -8.6259  -15.3742 O   0  0  0  0  0  0  0  0  0  0  0  0
   20.4512   -6.5694  -14.5781 N   0  0  0  0  0  0  0  0  0  0  0  0
   21.4733   -6.1808  -13.6118 C   0  0  0  0  0  0  0  0  0  0  0  0
   22.3707   -5.1516  -14.1990 C   0  0  0  0  0  0  0  0  0  0  0  0
   23.3520   -4.5350  -13.4655 O   0  0  0  0  0  0  0  0  0  0  0  0
   22.2436   -4.8205  -15.4039 O   0  0  0  0  0  0  0  0  0  0  0  0
  2  1  1  6
  2  8  1  0
  3  2  1  0
  4  3  1  0
  5  4  1  0
  6  5  1  0
  7  6  1  0
  8  9  2  0
 10  8  1  0
 10 11  1  0
 11 12  1  1
 12 13  1  0
 13 14  1  0
 14 18  1  0
 15 14  2  0
 16 17  2  0
 16 11  1  0
 19 16  1  0
 20 19  1  0
 21 20  1  0
 21 22  1  0
 23 21  2  0
M  END
$$$$
