KEG.pdb
     RDKit          3D

 23 22  0  0  1  0  0  0  0  0999 V2000
   18.8932  -12.8753  -15.9751 N   0  0  0  0  0  0  0  0  0  0  0  0
   19.0820  -11.5345  -16.4520 C   0  0  1  0  0  0  0  0  0  0  0  0
   17.8073  -10.7938  -16.4849 C   0  0  0  0  0  0  0  0  0  0  0  0
   16.6662  -11.5880  -16.9757 C   0  0  0  0  0  0  0  0  0  0  0  0
   15.3157  -10.9709  -16.9267 C   0  0  0  0  0  0  0  0  0  0  0  0
   14.2511  -11.9848  -17.4045 C   0  0  0  0  0  0  0  0  0  0  0  0
   12.9914  -11.2991  -17.4409 N   0  0  0  0  0  0  0  0  0  0  0  0
   20.1253  -10.8218  -15.6450 C   0  0  0  0  0  0  0  0  0  0  0  0
   20.0024  -10.6539  -14.4164 O   0  0  0  0  0  0  0  0  0  0  0  0
   21.2894  -10.3135  -16.2487 N   0  0  0  0  0  0  0  0  0  0  0  0
   22.4117   -9.7087  -15.6581 C   0  0  1  0  0  0  0  0  0  0  0  0
   23.7767  -10.2376  -15.9755 C   0  0  0  0  0  0  0  0  0  0  0  0
   23.9951  -11.6747  -15.6090 C   0  0  0  0  0  0  0  0  0  0  0  0
   25.4076  -12.1200  -15.9187 C   0  0  0  0  0  0  0  0  0  0  0  0
   26.3355  -11.2800  -16.0308 O   0  0  0  0  0  0  0  0  0  0  0  0
   22.2905   -8.2509  -15.6505 C   0  0  0  0  0  0  0  0  0  0  0  0
   22.1165   -7.6498  -16.7443 O   0  0  0  0  0  0  0  0  0  0  0  0
   25.7018  -13.4464  -16.0802 O   0  0  0  0  0  0  0  0  0  0  0  0
   22.3529   -7.4377  -14.4981 N   0  0  0  0  0  0  0  0  0  0  0  0
   22.3457   -5.9807  -14.5782 C   0  0  0  0  0  0  0  0  0  0  0  0
   22.4143   -5.3910  -13.2154 C   0  0  0  0  0  0  0  0  0  0  0  0
   22.5761   -4.0445  -13.0104 O   0  0  0  0  0  0  0  0  0  0  0  0
   22.3234   -6.1313  -12.2049 O   0  0  0  0  0  0  0  0  0  0  0  0
  2  1  1  1
  2  8  1  0
  3  2  1  0
  4  3  1  0
  5  4  1  0
  6  5  1  0
  7  6  1  0
  8  9  2  0
 10  8  1  0
 10 11  1  0
 11 12  1  6
 12 13  1  0
 13 14  1  0
 14 18  1  0
 15 14  2  0
 16 17  2  0
 16 11  1  0
 19 16  1  0
 20 19  1  0
 21 20  1  0
 21 22  1  0
 23 21  2  0
M  END
$$$$
