KEG.pdb
     RDKit          3D

 23 22  0  0  1  0  0  0  0  0999 V2000
   15.2246   -6.7527  -10.9792 N   0  0  0  0  0  0  0  0  0  0  0  0
   15.8468   -7.6880  -10.0855 C   0  0  1  0  0  0  0  0  0  0  0  0
   14.9226   -8.7787   -9.7241 C   0  0  0  0  0  0  0  0  0  0  0  0
   13.6669   -8.3183   -9.1035 C   0  0  0  0  0  0  0  0  0  0  0  0
   12.6651   -9.3439   -8.7147 C   0  0  0  0  0  0  0  0  0  0  0  0
   11.4215   -8.6641   -8.0974 C   0  0  0  0  0  0  0  0  0  0  0  0
   10.4925   -9.7016   -7.7521 N   0  0  0  0  0  0  0  0  0  0  0  0
   17.1297   -8.2066  -10.6624 C   0  0  0  0  0  0  0  0  0  0  0  0
   17.8532   -9.0065  -10.0383 O   0  0  0  0  0  0  0  0  0  0  0  0
   17.5668   -7.8071  -11.9381 N   0  0  0  0  0  0  0  0  0  0  0  0
   18.7710   -8.0963  -12.6016 C   0  0  1  0  0  0  0  0  0  0  0  0
   18.7304   -8.8783  -13.8786 C   0  0  0  0  0  0  0  0  0  0  0  0
   17.8522  -10.0928  -13.8446 C   0  0  0  0  0  0  0  0  0  0  0  0
   17.8792  -10.8366  -15.1619 C   0  0  0  0  0  0  0  0  0  0  0  0
   16.8104  -11.1698  -15.7330 O   0  0  0  0  0  0  0  0  0  0  0  0
   19.6711   -6.9432  -12.6011 C   0  0  0  0  0  0  0  0  0  0  0  0
   19.1749   -5.7849  -12.6068 O   0  0  0  0  0  0  0  0  0  0  0  0
   19.0680  -11.1586  -15.7577 O   0  0  0  0  0  0  0  0  0  0  0  0
   21.0811   -7.0147  -12.5948 N   0  0  0  0  0  0  0  0  0  0  0  0
   21.9166   -5.8214  -12.6809 C   0  0  0  0  0  0  0  0  0  0  0  0
   21.8340   -5.2337  -14.0437 C   0  0  0  0  0  0  0  0  0  0  0  0
   22.4763   -4.0682  -14.3758 O   0  0  0  0  0  0  0  0  0  0  0  0
   21.1595   -5.8061  -14.9353 O   0  0  0  0  0  0  0  0  0  0  0  0
  2  1  1  6
  2  8  1  0
  3  2  1  0
  4  3  1  0
  5  4  1  0
  6  5  1  0
  7  6  1  0
  8  9  2  0
 10  8  1  0
 10 11  1  0
 11 12  1  6
 12 13  1  0
 13 14  1  0
 14 18  1  0
 15 14  2  0
 16 17  2  0
 16 11  1  0
 19 16  1  0
 20 19  1  0
 21 20  1  0
 21 22  1  0
 23 21  2  0
M  END
$$$$
