KEG.pdb
     RDKit          3D

 23 22  0  0  1  0  0  0  0  0999 V2000
   16.5414  -11.5226  -15.9853 N   0  0  0  0  0  0  0  0  0  0  0  0
   16.5644  -10.3234  -15.1965 C   0  0  1  0  0  0  0  0  0  0  0  0
   15.7471  -10.4688  -13.9778 C   0  0  0  0  0  0  0  0  0  0  0  0
   14.3346  -10.8001  -14.2404 C   0  0  0  0  0  0  0  0  0  0  0  0
   13.9262  -12.2259  -14.1561 C   0  0  0  0  0  0  0  0  0  0  0  0
   12.4243  -12.3687  -14.4930 C   0  0  0  0  0  0  0  0  0  0  0  0
   12.1031  -13.7660  -14.4371 N   0  0  0  0  0  0  0  0  0  0  0  0
   17.9729   -9.9164  -14.8832 C   0  0  0  0  0  0  0  0  0  0  0  0
   18.4936  -10.1550  -13.7766 O   0  0  0  0  0  0  0  0  0  0  0  0
   18.7641   -9.2462  -15.8334 N   0  0  0  0  0  0  0  0  0  0  0  0
   20.0937   -8.8025  -15.7366 C   0  0  1  0  0  0  0  0  0  0  0  0
   21.1130   -9.3387  -16.6944 C   0  0  0  0  0  0  0  0  0  0  0  0
   21.1151  -10.8307  -16.8403 C   0  0  0  0  0  0  0  0  0  0  0  0
   22.0715  -11.2832  -17.9219 C   0  0  0  0  0  0  0  0  0  0  0  0
   21.6401  -11.7357  -19.0122 O   0  0  0  0  0  0  0  0  0  0  0  0
   20.1593   -7.3616  -15.4932 C   0  0  0  0  0  0  0  0  0  0  0  0
   19.4977   -6.5889  -16.2368 O   0  0  0  0  0  0  0  0  0  0  0  0
   23.4245  -11.2059  -17.7343 O   0  0  0  0  0  0  0  0  0  0  0  0
   20.9169   -6.7447  -14.4740 N   0  0  0  0  0  0  0  0  0  0  0  0
   20.9370   -5.2968  -14.2937 C   0  0  0  0  0  0  0  0  0  0  0  0
   21.6292   -4.9466  -13.0257 C   0  0  0  0  0  0  0  0  0  0  0  0
   21.8496   -3.6460  -12.6500 O   0  0  0  0  0  0  0  0  0  0  0  0
   22.0339   -5.8552  -12.2588 O   0  0  0  0  0  0  0  0  0  0  0  0
  2  1  1  1
  2  8  1  0
  3  2  1  0
  4  3  1  0
  5  4  1  0
  6  5  1  0
  7  6  1  0
  8  9  2  0
 10  8  1  0
 10 11  1  0
 11 12  1  6
 12 13  1  0
 13 14  1  0
 14 18  1  0
 15 14  2  0
 16 17  2  0
 16 11  1  0
 19 16  1  0
 20 19  1  0
 21 20  1  0
 21 22  1  0
 23 21  2  0
M  END
$$$$
