KEG.pdb
     RDKit          3D

 23 22  0  0  1  0  0  0  0  0999 V2000
   14.3838   -7.9833  -12.5997 N   0  0  0  0  0  0  0  0  0  0  0  0
   15.2523   -7.8490  -11.4646 C   0  0  1  0  0  0  0  0  0  0  0  0
   14.8545   -8.7603  -10.3757 C   0  0  0  0  0  0  0  0  0  0  0  0
   13.4166   -8.7149  -10.0525 C   0  0  0  0  0  0  0  0  0  0  0  0
   12.8911   -9.7017   -9.0743 C   0  0  0  0  0  0  0  0  0  0  0  0
   11.4082   -9.3989   -8.7594 C   0  0  0  0  0  0  0  0  0  0  0  0
   10.9324  -10.4393   -7.8935 N   0  0  0  0  0  0  0  0  0  0  0  0
   16.6852   -8.0402  -11.8620 C   0  0  0  0  0  0  0  0  0  0  0  0
   17.6098   -7.9855  -11.0284 O   0  0  0  0  0  0  0  0  0  0  0  0
   17.0411   -8.2908  -13.1994 N   0  0  0  0  0  0  0  0  0  0  0  0
   18.3143   -8.4626  -13.7684 C   0  0  1  0  0  0  0  0  0  0  0  0
   18.4987   -9.4852  -14.8474 C   0  0  0  0  0  0  0  0  0  0  0  0
   18.2573  -10.9015  -14.4195 C   0  0  0  0  0  0  0  0  0  0  0  0
   18.2910  -11.8522  -15.5960 C   0  0  0  0  0  0  0  0  0  0  0  0
   19.3771  -12.3449  -15.9923 O   0  0  0  0  0  0  0  0  0  0  0  0
   18.9717   -7.1772  -14.0040 C   0  0  0  0  0  0  0  0  0  0  0  0
   18.4082   -6.3346  -14.7527 O   0  0  0  0  0  0  0  0  0  0  0  0
   17.1389  -12.1956  -16.2493 O   0  0  0  0  0  0  0  0  0  0  0  0
   20.2119   -6.7875  -13.4536 N   0  0  0  0  0  0  0  0  0  0  0  0
   20.8080   -5.4855  -13.7344 C   0  0  0  0  0  0  0  0  0  0  0  0
   22.1389   -5.3782  -13.0812 C   0  0  0  0  0  0  0  0  0  0  0  0
   22.9632   -4.2997  -13.2777 O   0  0  0  0  0  0  0  0  0  0  0  0
   22.5416   -6.2933  -12.3210 O   0  0  0  0  0  0  0  0  0  0  0  0
  2  1  1  6
  2  8  1  0
  3  2  1  0
  4  3  1  0
  5  4  1  0
  6  5  1  0
  7  6  1  0
  8  9  2  0
 10  8  1  0
 10 11  1  0
 11 12  1  6
 12 13  1  0
 13 14  1  0
 14 18  1  0
 15 14  2  0
 16 17  2  0
 16 11  1  0
 19 16  1  0
 20 19  1  0
 21 20  1  0
 21 22  1  0
 23 21  2  0
M  END
$$$$
