KEG.pdb
     RDKit          3D

 23 22  0  0  1  0  0  0  0  0999 V2000
   20.2556  -19.5003  -14.2940 N   0  0  0  0  0  0  0  0  0  0  0  0
   21.5632  -19.7592  -13.7611 C   0  0  1  0  0  0  0  0  0  0  0  0
   21.9120  -21.1878  -13.8695 C   0  0  0  0  0  0  0  0  0  0  0  0
   20.7854  -22.0502  -14.2705 C   0  0  0  0  0  0  0  0  0  0  0  0
   19.7856  -22.4166  -13.2346 C   0  0  0  0  0  0  0  0  0  0  0  0
   18.7073  -23.3431  -13.8417 C   0  0  0  0  0  0  0  0  0  0  0  0
   17.7709  -23.6519  -12.7995 N   0  0  0  0  0  0  0  0  0  0  0  0
   22.5890  -18.8795  -14.4103 C   0  0  0  0  0  0  0  0  0  0  0  0
   23.7832  -18.8921  -14.0547 O   0  0  0  0  0  0  0  0  0  0  0  0
   22.2391  -18.0019  -15.4522 N   0  0  0  0  0  0  0  0  0  0  0  0
   23.0604  -17.1813  -16.2436 C   0  0  1  0  0  0  0  0  0  0  0  0
   22.8603  -17.1640  -17.7280 C   0  0  0  0  0  0  0  0  0  0  0  0
   23.8510  -16.3330  -18.4864 C   0  0  0  0  0  0  0  0  0  0  0  0
   23.5488  -16.3209  -19.9689 C   0  0  0  0  0  0  0  0  0  0  0  0
   22.9686  -15.3395  -20.4978 O   0  0  0  0  0  0  0  0  0  0  0  0
   23.2635  -15.8722  -15.6231 C   0  0  0  0  0  0  0  0  0  0  0  0
   22.2728  -15.2777  -15.1202 O   0  0  0  0  0  0  0  0  0  0  0  0
   23.9037  -17.3775  -20.7624 O   0  0  0  0  0  0  0  0  0  0  0  0
   24.5015  -15.1992  -15.5359 N   0  0  0  0  0  0  0  0  0  0  0  0
   24.6584  -13.9636  -14.7756 C   0  0  0  0  0  0  0  0  0  0  0  0
   24.0603  -12.8237  -15.5189 C   0  0  0  0  0  0  0  0  0  0  0  0
   24.1529  -11.5310  -15.0698 O   0  0  0  0  0  0  0  0  0  0  0  0
   23.4458  -13.0281  -16.5950 O   0  0  0  0  0  0  0  0  0  0  0  0
  2  1  1  6
  2  8  1  0
  3  2  1  0
  4  3  1  0
  5  4  1  0
  6  5  1  0
  7  6  1  0
  8  9  2  0
 10  8  1  0
 10 11  1  0
 11 12  1  6
 12 13  1  0
 13 14  1  0
 14 18  1  0
 15 14  2  0
 16 17  2  0
 16 11  1  0
 19 16  1  0
 20 19  1  0
 21 20  1  0
 21 22  1  0
 23 21  2  0
M  END
$$$$
