KEG.pdb
     RDKit          3D

 23 22  0  0  1  0  0  0  0  0999 V2000
   21.6063  -12.1431  -17.8093 N   0  0  0  0  0  0  0  0  0  0  0  0
   20.7302  -11.3483  -18.6226 C   0  0  1  0  0  0  0  0  0  0  0  0
   19.8068  -12.1952  -19.4000 C   0  0  0  0  0  0  0  0  0  0  0  0
   20.3393  -13.5351  -19.7081 C   0  0  0  0  0  0  0  0  0  0  0  0
   20.5426  -14.4801  -18.5801 C   0  0  0  0  0  0  0  0  0  0  0  0
   20.9307  -15.8756  -19.1201 C   0  0  0  0  0  0  0  0  0  0  0  0
   22.0463  -16.3399  -18.3465 N   0  0  0  0  0  0  0  0  0  0  0  0
   19.9999  -10.3367  -17.7913 C   0  0  0  0  0  0  0  0  0  0  0  0
   18.9725   -9.7662  -18.2056 O   0  0  0  0  0  0  0  0  0  0  0  0
   20.4502   -9.9924  -16.5041 N   0  0  0  0  0  0  0  0  0  0  0  0
   19.9252   -9.0607  -15.5929 C   0  0  1  0  0  0  0  0  0  0  0  0
   18.8685   -9.5011  -14.6269 C   0  0  0  0  0  0  0  0  0  0  0  0
   18.3017   -8.4072  -13.7729 C   0  0  0  0  0  0  0  0  0  0  0  0
   17.1711   -8.9095  -12.9020 C   0  0  0  0  0  0  0  0  0  0  0  0
   16.4400   -9.8581  -13.2830 O   0  0  0  0  0  0  0  0  0  0  0  0
   20.9769   -8.2148  -15.0287 C   0  0  0  0  0  0  0  0  0  0  0  0
   22.0817   -8.7396  -14.7257 O   0  0  0  0  0  0  0  0  0  0  0  0
   16.9248   -8.3420  -11.6817 O   0  0  0  0  0  0  0  0  0  0  0  0
   20.8610   -6.8286  -14.7876 N   0  0  0  0  0  0  0  0  0  0  0  0
   21.9593   -6.0457  -14.2308 C   0  0  0  0  0  0  0  0  0  0  0  0
   22.3458   -4.9615  -15.1713 C   0  0  0  0  0  0  0  0  0  0  0  0
   23.2639   -3.9989  -14.8374 O   0  0  0  0  0  0  0  0  0  0  0  0
   21.8270   -4.9059  -16.3138 O   0  0  0  0  0  0  0  0  0  0  0  0
  2  1  1  1
  2  8  1  0
  3  2  1  0
  4  3  1  0
  5  4  1  0
  6  5  1  0
  7  6  1  0
  8  9  2  0
 10  8  1  0
 10 11  1  0
 11 12  1  1
 12 13  1  0
 13 14  1  0
 14 18  1  0
 15 14  2  0
 16 17  2  0
 16 11  1  0
 19 16  1  0
 20 19  1  0
 21 20  1  0
 21 22  1  0
 23 21  2  0
M  END
$$$$
