KEG.pdb
     RDKit          3D

 23 22  0  0  1  0  0  0  0  0999 V2000
   27.7568  -20.8322  -15.2361 N   0  0  0  0  0  0  0  0  0  0  0  0
   26.8831  -21.7859  -15.8589 C   0  0  1  0  0  0  0  0  0  0  0  0
   27.5575  -23.0828  -16.0527 C   0  0  0  0  0  0  0  0  0  0  0  0
   28.7277  -23.0210  -16.9475 C   0  0  0  0  0  0  0  0  0  0  0  0
   28.5341  -22.4614  -18.3098 C   0  0  0  0  0  0  0  0  0  0  0  0
   29.8629  -22.5115  -19.0981 C   0  0  0  0  0  0  0  0  0  0  0  0
   29.6617  -21.7942  -20.3243 N   0  0  0  0  0  0  0  0  0  0  0  0
   25.6066  -21.9265  -15.0853 C   0  0  0  0  0  0  0  0  0  0  0  0
   24.7782  -22.8207  -15.3440 O   0  0  0  0  0  0  0  0  0  0  0  0
   25.2950  -21.0486  -14.0316 N   0  0  0  0  0  0  0  0  0  0  0  0
   24.1720  -21.0282  -13.1875 C   0  0  1  0  0  0  0  0  0  0  0  0
   24.3527  -20.6811  -11.7416 C   0  0  0  0  0  0  0  0  0  0  0  0
   25.4217  -21.4605  -11.0366 C   0  0  0  0  0  0  0  0  0  0  0  0
   25.5709  -21.0237   -9.5957 C   0  0  0  0  0  0  0  0  0  0  0  0
   24.8380  -20.1206   -9.1194 O   0  0  0  0  0  0  0  0  0  0  0  0
   23.0227  -20.4043  -13.8431 C   0  0  0  0  0  0  0  0  0  0  0  0
   23.1883  -19.3131  -14.4510 O   0  0  0  0  0  0  0  0  0  0  0  0
   26.5051  -21.6056   -8.7830 O   0  0  0  0  0  0  0  0  0  0  0  0
   21.7121  -20.9291  -13.8551 N   0  0  0  0  0  0  0  0  0  0  0  0
   20.6027  -20.2252  -14.4901 C   0  0  0  0  0  0  0  0  0  0  0  0
   19.3558  -21.0270  -14.3808 C   0  0  0  0  0  0  0  0  0  0  0  0
   18.1382  -20.5407  -14.7834 O   0  0  0  0  0  0  0  0  0  0  0  0
   19.3955  -22.1896  -13.9074 O   0  0  0  0  0  0  0  0  0  0  0  0
  2  1  1  1
  2  8  1  0
  3  2  1  0
  4  3  1  0
  5  4  1  0
  6  5  1  0
  7  6  1  0
  8  9  2  0
 10  8  1  0
 10 11  1  0
 11 12  1  1
 12 13  1  0
 13 14  1  0
 14 18  1  0
 15 14  2  0
 16 17  2  0
 16 11  1  0
 19 16  1  0
 20 19  1  0
 21 20  1  0
 21 22  1  0
 23 21  2  0
M  END
$$$$
