KEG.pdb
     RDKit          3D

 23 22  0  0  1  0  0  0  0  0999 V2000
   23.0619  -21.3744  -13.1951 N   0  0  0  0  0  0  0  0  0  0  0  0
   21.7329  -21.3477  -13.7370 C   0  0  1  0  0  0  0  0  0  0  0  0
   20.7373  -21.7676  -12.7335 C   0  0  0  0  0  0  0  0  0  0  0  0
   20.0934  -23.0595  -13.0335 C   0  0  0  0  0  0  0  0  0  0  0  0
   19.1994  -23.6480  -12.0033 C   0  0  0  0  0  0  0  0  0  0  0  0
   18.7275  -25.0511  -12.4488 C   0  0  0  0  0  0  0  0  0  0  0  0
   17.8423  -25.5480  -11.4349 N   0  0  0  0  0  0  0  0  0  0  0  0
   21.4169  -19.9997  -14.3121 C   0  0  0  0  0  0  0  0  0  0  0  0
   21.5813  -18.9525  -13.6571 O   0  0  0  0  0  0  0  0  0  0  0  0
   20.9204  -19.8664  -15.6212 N   0  0  0  0  0  0  0  0  0  0  0  0
   20.6074  -18.7031  -16.3444 C   0  0  1  0  0  0  0  0  0  0  0  0
   21.3067  -18.4414  -17.6429 C   0  0  0  0  0  0  0  0  0  0  0  0
   20.8753  -17.1912  -18.3487 C   0  0  0  0  0  0  0  0  0  0  0  0
   21.5662  -17.0399  -19.6862 C   0  0  0  0  0  0  0  0  0  0  0  0
   21.1392  -17.6452  -20.7015 O   0  0  0  0  0  0  0  0  0  0  0  0
   19.1672  -18.4465  -16.3453 C   0  0  0  0  0  0  0  0  0  0  0  0
   18.3820  -19.3891  -16.6331 O   0  0  0  0  0  0  0  0  0  0  0  0
   22.6679  -16.2391  -19.8163 O   0  0  0  0  0  0  0  0  0  0  0  0
   18.5642  -17.2058  -16.0451 N   0  0  0  0  0  0  0  0  0  0  0  0
   17.1221  -17.0035  -16.1397 C   0  0  0  0  0  0  0  0  0  0  0  0
   16.5222  -16.9388  -14.7812 C   0  0  0  0  0  0  0  0  0  0  0  0
   15.1789  -16.7430  -14.5854 O   0  0  0  0  0  0  0  0  0  0  0  0
   17.2506  -17.0647  -13.7658 O   0  0  0  0  0  0  0  0  0  0  0  0
  2  1  1  1
  2  8  1  0
  3  2  1  0
  4  3  1  0
  5  4  1  0
  6  5  1  0
  7  6  1  0
  8  9  2  0
 10  8  1  0
 10 11  1  0
 11 12  1  6
 12 13  1  0
 13 14  1  0
 14 18  1  0
 15 14  2  0
 16 17  2  0
 16 11  1  0
 19 16  1  0
 20 19  1  0
 21 20  1  0
 21 22  1  0
 23 21  2  0
M  END
$$$$
