KEG.pdb
     RDKit          3D

 23 22  0  0  1  0  0  0  0  0999 V2000
   18.6499  -12.2594  -17.2678 N   0  0  0  0  0  0  0  0  0  0  0  0
   19.8192  -11.4855  -16.9604 C   0  0  1  0  0  0  0  0  0  0  0  0
   20.9795  -11.9308  -17.7540 C   0  0  0  0  0  0  0  0  0  0  0  0
   21.4426  -13.2915  -17.4256 C   0  0  0  0  0  0  0  0  0  0  0  0
   20.8825  -14.4251  -18.2055 C   0  0  0  0  0  0  0  0  0  0  0  0
   21.6368  -15.7299  -17.8618 C   0  0  0  0  0  0  0  0  0  0  0  0
   20.9655  -16.8038  -18.5359 N   0  0  0  0  0  0  0  0  0  0  0  0
   19.5508  -10.0204  -17.1308 C   0  0  0  0  0  0  0  0  0  0  0  0
   18.9787   -9.5720  -18.1429 O   0  0  0  0  0  0  0  0  0  0  0  0
   19.9369   -9.0917  -16.1477 N   0  0  0  0  0  0  0  0  0  0  0  0
   19.6148   -7.7292  -16.0295 C   0  0  1  0  0  0  0  0  0  0  0  0
   18.1854   -7.3030  -16.1683 C   0  0  0  0  0  0  0  0  0  0  0  0
   17.2662   -7.8306  -15.1081 C   0  0  0  0  0  0  0  0  0  0  0  0
   15.8764   -7.2459  -15.2346 C   0  0  0  0  0  0  0  0  0  0  0  0
   15.0764   -7.6742  -16.1041 O   0  0  0  0  0  0  0  0  0  0  0  0
   20.3533   -7.0990  -14.9351 C   0  0  0  0  0  0  0  0  0  0  0  0
   20.3979   -7.6804  -13.8181 O   0  0  0  0  0  0  0  0  0  0  0  0
   15.4635   -6.2411  -14.4028 O   0  0  0  0  0  0  0  0  0  0  0  0
   21.0370   -5.8669  -15.0217 N   0  0  0  0  0  0  0  0  0  0  0  0
   21.7654   -5.3051  -13.8889 C   0  0  0  0  0  0  0  0  0  0  0  0
   22.4804   -4.0685  -14.3002 C   0  0  0  0  0  0  0  0  0  0  0  0
   22.4223   -3.5844  -15.5821 O   0  0  0  0  0  0  0  0  0  0  0  0
   23.1658   -3.4308  -13.4630 O   0  0  0  0  0  0  0  0  0  0  0  0
  2  1  1  6
  2  8  1  0
  3  2  1  0
  4  3  1  0
  5  4  1  0
  6  5  1  0
  7  6  1  0
  8  9  2  0
 10  8  1  0
 10 11  1  0
 11 12  1  1
 12 13  1  0
 13 14  1  0
 14 18  1  0
 15 14  2  0
 16 17  2  0
 16 11  1  0
 19 16  1  0
 20 19  1  0
 21 20  1  0
 21 22  1  0
 23 21  2  0
M  END
$$$$
