KEG.pdb
     RDKit          3D

 23 22  0  0  1  0  0  0  0  0999 V2000
   18.9525  -13.9876  -16.9726 N   0  0  0  0  0  0  0  0  0  0  0  0
   19.2116  -13.5676  -15.6245 C   0  0  1  0  0  0  0  0  0  0  0  0
   19.9722  -14.5898  -14.8823 C   0  0  0  0  0  0  0  0  0  0  0  0
   19.6066  -15.9758  -15.2276 C   0  0  0  0  0  0  0  0  0  0  0  0
   20.5391  -16.7484  -16.0881 C   0  0  0  0  0  0  0  0  0  0  0  0
   19.9723  -18.1627  -16.3491 C   0  0  0  0  0  0  0  0  0  0  0  0
   20.8412  -18.8058  -17.2923 N   0  0  0  0  0  0  0  0  0  0  0  0
   19.8941  -12.2329  -15.6020 C   0  0  0  0  0  0  0  0  0  0  0  0
   20.3265  -11.7353  -14.5446 O   0  0  0  0  0  0  0  0  0  0  0  0
   20.0733  -11.4884  -16.7817 N   0  0  0  0  0  0  0  0  0  0  0  0
   20.6982  -10.2437  -16.9670 C   0  0  1  0  0  0  0  0  0  0  0  0
   21.3080   -9.9248  -18.2975 C   0  0  0  0  0  0  0  0  0  0  0  0
   22.0418   -8.6189  -18.3561 C   0  0  0  0  0  0  0  0  0  0  0  0
   22.6312   -8.3722  -19.7277 C   0  0  0  0  0  0  0  0  0  0  0  0
   23.5511   -9.1041  -20.1722 O   0  0  0  0  0  0  0  0  0  0  0  0
   19.9254   -9.1621  -16.3562 C   0  0  0  0  0  0  0  0  0  0  0  0
   18.7063   -9.0440  -16.6523 O   0  0  0  0  0  0  0  0  0  0  0  0
   22.1719   -7.3489  -20.5111 O   0  0  0  0  0  0  0  0  0  0  0  0
   20.4370   -8.2157  -15.4422 N   0  0  0  0  0  0  0  0  0  0  0  0
   19.6301   -7.1064  -14.9442 C   0  0  0  0  0  0  0  0  0  0  0  0
   20.4366   -6.2530  -14.0328 C   0  0  0  0  0  0  0  0  0  0  0  0
   19.9235   -5.1247  -13.4456 O   0  0  0  0  0  0  0  0  0  0  0  0
   21.6285   -6.5563  -13.7784 O   0  0  0  0  0  0  0  0  0  0  0  0
  2  1  1  6
  2  8  1  0
  3  2  1  0
  4  3  1  0
  5  4  1  0
  6  5  1  0
  7  6  1  0
  8  9  2  0
 10  8  1  0
 10 11  1  0
 11 12  1  6
 12 13  1  0
 13 14  1  0
 14 18  1  0
 15 14  2  0
 16 17  2  0
 16 11  1  0
 19 16  1  0
 20 19  1  0
 21 20  1  0
 21 22  1  0
 23 21  2  0
M  END
$$$$
