KEG.pdb
     RDKit          3D

 23 22  0  0  1  0  0  0  0  0999 V2000
   26.5323  -20.8023  -18.3221 N   0  0  0  0  0  0  0  0  0  0  0  0
   27.0481  -21.2986  -17.0778 C   0  0  1  0  0  0  0  0  0  0  0  0
   28.4307  -20.8391  -16.8503 C   0  0  0  0  0  0  0  0  0  0  0  0
   29.4127  -21.4068  -17.7922 C   0  0  0  0  0  0  0  0  0  0  0  0
   29.6706  -22.8686  -17.7326 C   0  0  0  0  0  0  0  0  0  0  0  0
   30.7396  -23.2621  -18.7777 C   0  0  0  0  0  0  0  0  0  0  0  0
   30.9722  -24.6715  -18.6436 N   0  0  0  0  0  0  0  0  0  0  0  0
   26.1412  -20.9361  -15.9403 C   0  0  0  0  0  0  0  0  0  0  0  0
   26.0582  -19.7680  -15.5146 O   0  0  0  0  0  0  0  0  0  0  0  0
   25.3448  -21.9076  -15.3078 N   0  0  0  0  0  0  0  0  0  0  0  0
   24.4278  -21.7634  -14.2531 C   0  0  1  0  0  0  0  0  0  0  0  0
   23.0437  -22.3144  -14.4097 C   0  0  0  0  0  0  0  0  0  0  0  0
   22.2120  -21.6371  -15.4569 C   0  0  0  0  0  0  0  0  0  0  0  0
   21.6098  -20.3480  -14.9422 C   0  0  0  0  0  0  0  0  0  0  0  0
   20.9253  -20.3351  -13.8883 O   0  0  0  0  0  0  0  0  0  0  0  0
   25.0598  -22.0150  -12.9580 C   0  0  0  0  0  0  0  0  0  0  0  0
   25.9759  -22.8772  -12.8861 O   0  0  0  0  0  0  0  0  0  0  0  0
   21.8014  -19.1712  -15.6133 O   0  0  0  0  0  0  0  0  0  0  0  0
   24.7261  -21.3614  -11.7520 N   0  0  0  0  0  0  0  0  0  0  0  0
   25.4672  -21.5922  -10.5163 C   0  0  0  0  0  0  0  0  0  0  0  0
   24.9202  -20.7460   -9.4235 C   0  0  0  0  0  0  0  0  0  0  0  0
   25.3843  -20.8279   -8.1355 O   0  0  0  0  0  0  0  0  0  0  0  0
   24.0029  -19.9228   -9.6651 O   0  0  0  0  0  0  0  0  0  0  0  0
  2  1  1  6
  2  8  1  0
  3  2  1  0
  4  3  1  0
  5  4  1  0
  6  5  1  0
  7  6  1  0
  8  9  2  0
 10  8  1  0
 10 11  1  0
 11 12  1  6
 12 13  1  0
 13 14  1  0
 14 18  1  0
 15 14  2  0
 16 17  2  0
 16 11  1  0
 19 16  1  0
 20 19  1  0
 21 20  1  0
 21 22  1  0
 23 21  2  0
M  END
$$$$
