KEG.pdb
     RDKit          3D

 23 22  0  0  1  0  0  0  0  0999 V2000
   18.1001  -12.8956  -17.4669 N   0  0  0  0  0  0  0  0  0  0  0  0
   18.7668  -12.4106  -16.2917 C   0  0  1  0  0  0  0  0  0  0  0  0
   20.0251  -13.1405  -16.0507 C   0  0  0  0  0  0  0  0  0  0  0  0
   19.8672  -14.6056  -16.0013 C   0  0  0  0  0  0  0  0  0  0  0  0
   21.0970  -15.4377  -15.9574 C   0  0  0  0  0  0  0  0  0  0  0  0
   20.7296  -16.9347  -16.0741 C   0  0  0  0  0  0  0  0  0  0  0  0
   21.9517  -17.6831  -16.0044 N   0  0  0  0  0  0  0  0  0  0  0  0
   18.9831  -10.9293  -16.3726 C   0  0  0  0  0  0  0  0  0  0  0  0
   19.4613  -10.3910  -17.3896 O   0  0  0  0  0  0  0  0  0  0  0  0
   18.6514  -10.0866  -15.2965 N   0  0  0  0  0  0  0  0  0  0  0  0
   18.6641   -8.6835  -15.2230 C   0  0  1  0  0  0  0  0  0  0  0  0
   17.3624   -7.9440  -15.1738 C   0  0  0  0  0  0  0  0  0  0  0  0
   16.4142   -8.2652  -16.2896 C   0  0  0  0  0  0  0  0  0  0  0  0
   15.1383   -7.4586  -16.1858 C   0  0  0  0  0  0  0  0  0  0  0  0
   14.2145   -7.8152  -15.4119 O   0  0  0  0  0  0  0  0  0  0  0  0
   19.6912   -8.2068  -14.2968 C   0  0  0  0  0  0  0  0  0  0  0  0
   19.8230   -8.7854  -13.1852 O   0  0  0  0  0  0  0  0  0  0  0  0
   14.9672   -6.3239  -16.9309 O   0  0  0  0  0  0  0  0  0  0  0  0
   20.5694   -7.1294  -14.5440 N   0  0  0  0  0  0  0  0  0  0  0  0
   21.4970   -6.6391  -13.5298 C   0  0  0  0  0  0  0  0  0  0  0  0
   22.2579   -5.4731  -14.0503 C   0  0  0  0  0  0  0  0  0  0  0  0
   23.0999   -4.7378  -13.2556 O   0  0  0  0  0  0  0  0  0  0  0  0
   22.1409   -5.1326  -15.2536 O   0  0  0  0  0  0  0  0  0  0  0  0
  2  1  1  6
  2  8  1  0
  3  2  1  0
  4  3  1  0
  5  4  1  0
  6  5  1  0
  7  6  1  0
  8  9  2  0
 10  8  1  0
 10 11  1  0
 11 12  1  1
 12 13  1  0
 13 14  1  0
 14 18  1  0
 15 14  2  0
 16 17  2  0
 16 11  1  0
 19 16  1  0
 20 19  1  0
 21 20  1  0
 21 22  1  0
 23 21  2  0
M  END
$$$$
