MSW.pdb
     RDKit          3D

 29 30  0  0  1  0  0  0  0  0999 V2000
    6.9483  -11.8486   19.8009 C   0  0  0  0  0  0  0  0  0  0  0  0
    7.6012  -12.6297   18.2824 S   0  0  0  0  0  0  0  0  0  0  0  0
    8.9101  -13.8278   18.7273 C   0  0  0  0  0  0  0  0  0  0  0  0
    8.8915  -14.0796   20.2247 C   0  0  0  0  0  0  0  0  0  0  0  0
    9.9901  -15.0841   20.5245 C   0  0  2  0  0  0  0  0  0  0  0  0
   10.2027  -15.9602   19.3879 N   0  0  0  0  0  0  0  0  0  0  0  0
    9.5849  -15.8122   21.7317 C   0  0  0  0  0  0  0  0  0  0  0  0
    9.0039  -15.1639   22.6536 O   0  0  0  0  0  0  0  0  0  0  0  0
   10.9449  -19.5877   22.5692 O   0  0  0  0  0  0  0  0  0  0  0  0
    9.6933  -19.3632   23.0956 C   0  0  0  0  0  0  0  0  0  0  0  0
    9.3919  -17.8475   23.1466 C   0  0  2  0  0  0  0  0  0  0  0  0
    9.8098  -17.2178   21.9228 N   0  0  0  0  0  0  0  0  0  0  0  0
   10.1424  -17.3131   24.3154 C   0  0  0  0  0  0  0  0  0  0  0  0
   11.3978  -17.2878   24.3557 O   0  0  0  0  0  0  0  0  0  0  0  0
    9.4793  -16.7967   25.4654 N   0  0  0  0  0  0  0  0  0  0  0  0
   10.2313  -16.4159   26.6424 C   0  0  1  0  0  0  0  0  0  0  0  0
    9.2283  -15.6348   27.5066 C   0  0  0  0  0  0  0  0  0  0  0  0
    8.0654  -15.1682   26.7620 C   0  0  0  0  0  0  0  0  0  0  0  0
    7.0569  -15.9792   26.2966 C   0  0  0  0  0  0  0  0  0  0  0  0
    6.1637  -15.2005   25.6610 N   0  0  0  0  0  0  0  0  0  0  0  0
    6.5904  -13.9059   25.7151 C   0  0  0  0  0  0  0  0  0  0  0  0
    6.0250  -12.7367   25.2110 C   0  0  0  0  0  0  0  0  0  0  0  0
    6.7053  -11.5645   25.4333 C   0  0  0  0  0  0  0  0  0  0  0  0
    7.8945  -11.5283   26.1203 C   0  0  0  0  0  0  0  0  0  0  0  0
    8.4560  -12.6606   26.6157 C   0  0  0  0  0  0  0  0  0  0  0  0
    7.7873  -13.8710   26.4072 C   0  0  0  0  0  0  0  0  0  0  0  0
   10.6376  -17.6026   27.4414 C   0  0  0  0  0  0  0  0  0  0  0  0
   11.3160  -17.4578   28.4909 O   0  0  0  0  0  0  0  0  0  0  0  0
   10.2948  -18.8922   27.0723 O   0  0  0  0  0  0  0  0  0  0  0  0
  2  1  1  0
  3  2  1  0
  4  5  1  0
  4  3  1  0
  5  7  1  0
  5  6  1  6
  7  8  2  0
  9 10  1  0
 11 10  1  6
 11 13  1  0
 12 11  1  0
 12  7  1  0
 13 14  2  0
 15 16  1  0
 15 13  1  0
 16 27  1  0
 16 17  1  1
 18 17  1  0
 19 18  2  0
 20 21  1  0
 20 19  1  0
 21 26  2  0
 22 21  1  0
 22 23  2  0
 23 24  1  0
 24 25  2  0
 26 18  1  0
 26 25  1  0
 27 28  2  0
 27 29  1  0
M  END
$$$$
