MSW.pdb
     RDKit          3D

 29 30  0  0  1  0  0  0  0  0999 V2000
    7.8508  -11.1701   20.1291 C   0  0  0  0  0  0  0  0  0  0  0  0
    8.5999  -12.1413   18.7734 S   0  0  0  0  0  0  0  0  0  0  0  0
    7.9046  -13.8333   18.7790 C   0  0  0  0  0  0  0  0  0  0  0  0
    8.6256  -14.6840   19.8097 C   0  0  0  0  0  0  0  0  0  0  0  0
    7.9165  -16.0257   19.8597 C   0  0  2  0  0  0  0  0  0  0  0  0
    6.4908  -15.8559   19.6516 N   0  0  0  0  0  0  0  0  0  0  0  0
    8.2304  -16.6261   21.1607 C   0  0  0  0  0  0  0  0  0  0  0  0
    7.4586  -16.3770   22.1355 O   0  0  0  0  0  0  0  0  0  0  0  0
   11.7531  -18.7512   21.9689 O   0  0  0  0  0  0  0  0  0  0  0  0
   10.6139  -19.2025   22.5957 C   0  0  0  0  0  0  0  0  0  0  0  0
    9.5610  -18.0736   22.6825 C   0  0  2  0  0  0  0  0  0  0  0  0
    9.3623  -17.4807   21.3872 N   0  0  0  0  0  0  0  0  0  0  0  0
   10.0932  -17.0824   23.6569 C   0  0  0  0  0  0  0  0  0  0  0  0
   10.9457  -16.2161   23.3392 O   0  0  0  0  0  0  0  0  0  0  0  0
    9.6668  -17.0569   25.0157 N   0  0  0  0  0  0  0  0  0  0  0  0
   10.5402  -16.5522   26.0541 C   0  0  1  0  0  0  0  0  0  0  0  0
   10.0165  -15.1368   26.3464 C   0  0  0  0  0  0  0  0  0  0  0  0
    8.5689  -15.0199   26.2227 C   0  0  0  0  0  0  0  0  0  0  0  0
    7.7081  -16.0814   26.0693 C   0  0  0  0  0  0  0  0  0  0  0  0
    6.4593  -15.5895   25.9889 N   0  0  0  0  0  0  0  0  0  0  0  0
    6.5139  -14.2300   26.0884 C   0  0  0  0  0  0  0  0  0  0  0  0
    5.5033  -13.2715   26.0619 C   0  0  0  0  0  0  0  0  0  0  0  0
    5.8814  -11.9575   26.1901 C   0  0  0  0  0  0  0  0  0  0  0  0
    7.1958  -11.5860   26.3376 C   0  0  0  0  0  0  0  0  0  0  0  0
    8.1898  -12.5103   26.3642 C   0  0  0  0  0  0  0  0  0  0  0  0
    7.8375  -13.8576   26.2372 C   0  0  0  0  0  0  0  0  0  0  0  0
   10.3925  -17.3226   27.3176 C   0  0  0  0  0  0  0  0  0  0  0  0
   11.0013  -16.9586   28.3566 O   0  0  0  0  0  0  0  0  0  0  0  0
    9.5956  -18.4516   27.4035 O   0  0  0  0  0  0  0  0  0  0  0  0
  2  1  1  0
  3  2  1  0
  4  5  1  0
  4  3  1  0
  5  7  1  0
  5  6  1  1
  7  8  2  0
  9 10  1  0
 11 10  1  6
 11 13  1  0
 12 11  1  0
 12  7  1  0
 13 14  2  0
 15 16  1  0
 15 13  1  0
 16 27  1  0
 16 17  1  1
 18 17  1  0
 19 18  2  0
 20 21  1  0
 20 19  1  0
 21 26  2  0
 22 21  1  0
 22 23  2  0
 23 24  1  0
 24 25  2  0
 26 18  1  0
 26 25  1  0
 27 28  2  0
 27 29  1  0
M  END
$$$$
