MSW.pdb
     RDKit          3D

 29 30  0  0  1  0  0  0  0  0999 V2000
    9.2464  -11.3883   20.4994 C   0  0  0  0  0  0  0  0  0  0  0  0
    9.0379  -12.9505   19.5728 S   0  0  0  0  0  0  0  0  0  0  0  0
    7.2683  -13.1940   19.1784 C   0  0  0  0  0  0  0  0  0  0  0  0
    7.0729  -14.5325   18.4885 C   0  0  0  0  0  0  0  0  0  0  0  0
    8.4295  -15.2127   18.4362 C   0  0  2  0  0  0  0  0  0  0  0  0
    8.7223  -15.6614   17.0881 N   0  0  0  0  0  0  0  0  0  0  0  0
    8.3919  -16.3149   19.4033 C   0  0  0  0  0  0  0  0  0  0  0  0
    8.3115  -17.4990   18.9568 O   0  0  0  0  0  0  0  0  0  0  0  0
   10.3308  -19.0869   21.7619 O   0  0  0  0  0  0  0  0  0  0  0  0
    9.6965  -18.2250   20.8964 C   0  0  0  0  0  0  0  0  0  0  0  0
    8.8242  -17.2168   21.6796 C   0  0  2  0  0  0  0  0  0  0  0  0
    8.4430  -16.1237   20.8259 N   0  0  0  0  0  0  0  0  0  0  0  0
    9.6543  -16.7484   22.8227 C   0  0  0  0  0  0  0  0  0  0  0  0
   10.6612  -16.0133   22.6676 O   0  0  0  0  0  0  0  0  0  0  0  0
    9.3565  -17.1083   24.1683 N   0  0  0  0  0  0  0  0  0  0  0  0
   10.2074  -16.6713   25.2549 C   0  0  1  0  0  0  0  0  0  0  0  0
    9.8782  -15.1798   25.4285 C   0  0  0  0  0  0  0  0  0  0  0  0
    8.4678  -14.9273   25.6963 C   0  0  0  0  0  0  0  0  0  0  0  0
    7.4811  -15.8847   25.6633 C   0  0  0  0  0  0  0  0  0  0  0  0
    6.3153  -15.2837   25.9596 N   0  0  0  0  0  0  0  0  0  0  0  0
    6.5467  -13.9574   26.1799 C   0  0  0  0  0  0  0  0  0  0  0  0
    5.6764  -12.9222   26.5139 C   0  0  0  0  0  0  0  0  0  0  0  0
    6.2211  -11.6716   26.6734 C   0  0  0  0  0  0  0  0  0  0  0  0
    7.5646  -11.4334   26.5129 C   0  0  0  0  0  0  0  0  0  0  0  0
    8.4228  -12.4334   26.1868 C   0  0  0  0  0  0  0  0  0  0  0  0
    7.8994  -13.7193   26.0183 C   0  0  0  0  0  0  0  0  0  0  0  0
    9.8437  -17.3324   26.5364 C   0  0  0  0  0  0  0  0  0  0  0  0
   10.4425  -17.0263   27.5997 O   0  0  0  0  0  0  0  0  0  0  0  0
    8.8512  -18.2947   26.6136 O   0  0  0  0  0  0  0  0  0  0  0  0
  2  1  1  0
  3  2  1  0
  4  5  1  0
  4  3  1  0
  5  7  1  0
  5  6  1  6
  7  8  2  0
  9 10  1  0
 11 10  1  6
 11 13  1  0
 12 11  1  0
 12  7  1  0
 13 14  2  0
 15 16  1  0
 15 13  1  0
 16 27  1  0
 16 17  1  1
 18 17  1  0
 19 18  2  0
 20 21  1  0
 20 19  1  0
 21 26  2  0
 22 21  1  0
 22 23  2  0
 23 24  1  0
 24 25  2  0
 26 18  1  0
 26 25  1  0
 27 28  2  0
 27 29  1  0
M  END
$$$$
