MSW.pdb
     RDKit          3D

 29 30  0  0  1  0  0  0  0  0999 V2000
    8.9043  -11.3033   20.0735 C   0  0  0  0  0  0  0  0  0  0  0  0
    8.0989  -11.8702   18.5333 S   0  0  0  0  0  0  0  0  0  0  0  0
    8.3977  -13.6614   18.3126 C   0  0  0  0  0  0  0  0  0  0  0  0
    8.1672  -14.3885   19.6256 C   0  0  0  0  0  0  0  0  0  0  0  0
    8.5580  -15.8398   19.4096 C   0  0  2  0  0  0  0  0  0  0  0  0
    7.7186  -16.4471   18.3941 N   0  0  0  0  0  0  0  0  0  0  0  0
    8.4471  -16.5098   20.7098 C   0  0  0  0  0  0  0  0  0  0  0  0
    7.4194  -16.2780   21.4155 O   0  0  0  0  0  0  0  0  0  0  0  0
   11.0977  -19.4689   22.0000 O   0  0  0  0  0  0  0  0  0  0  0  0
    9.8210  -19.4578   22.5140 C   0  0  0  0  0  0  0  0  0  0  0  0
    9.2502  -18.0208   22.5135 C   0  0  2  0  0  0  0  0  0  0  0  0
    9.4382  -17.4136   21.2231 N   0  0  0  0  0  0  0  0  0  0  0  0
    9.9865  -17.2803   23.5739 C   0  0  0  0  0  0  0  0  0  0  0  0
   11.0570  -16.6636   23.3458 O   0  0  0  0  0  0  0  0  0  0  0  0
    9.5201  -17.2269   24.9187 N   0  0  0  0  0  0  0  0  0  0  0  0
   10.4268  -16.9122   26.0026 C   0  0  1  0  0  0  0  0  0  0  0  0
   10.0358  -15.4895   26.4337 C   0  0  0  0  0  0  0  0  0  0  0  0
    8.6050  -15.2293   26.3356 C   0  0  0  0  0  0  0  0  0  0  0  0
    7.6453  -16.1949   26.1408 C   0  0  0  0  0  0  0  0  0  0  0  0
    6.4486  -15.5830   26.1022 N   0  0  0  0  0  0  0  0  0  0  0  0
    6.6339  -14.2417   26.2691 C   0  0  0  0  0  0  0  0  0  0  0  0
    5.7193  -13.1915   26.3046 C   0  0  0  0  0  0  0  0  0  0  0  0
    6.2225  -11.9276   26.4935 C   0  0  0  0  0  0  0  0  0  0  0  0
    7.5676  -11.6909   26.6417 C   0  0  0  0  0  0  0  0  0  0  0  0
    8.4689  -12.7056   26.6083 C   0  0  0  0  0  0  0  0  0  0  0  0
    7.9882  -14.0050   26.4185 C   0  0  0  0  0  0  0  0  0  0  0  0
   10.1948  -17.7863   27.1831 C   0  0  0  0  0  0  0  0  0  0  0  0
    9.2489  -18.6158   27.1813 O   0  0  0  0  0  0  0  0  0  0  0  0
   10.9926  -17.7259   28.3131 O   0  0  0  0  0  0  0  0  0  0  0  0
  2  1  1  0
  3  2  1  0
  4  5  1  0
  4  3  1  0
  5  7  1  0
  5  6  1  6
  7  8  2  0
  9 10  1  0
 11 10  1  6
 11 13  1  0
 12 11  1  0
 12  7  1  0
 13 14  2  0
 15 16  1  0
 15 13  1  0
 16 27  1  0
 16 17  1  1
 18 17  1  0
 19 18  2  0
 20 21  1  0
 20 19  1  0
 21 26  2  0
 22 21  1  0
 22 23  2  0
 23 24  1  0
 24 25  2  0
 26 18  1  0
 26 25  1  0
 27 28  2  0
 27 29  1  0
M  END
$$$$
