MSW.pdb
     RDKit          3D

 29 30  0  0  1  0  0  0  0  0999 V2000
    9.5127  -11.8157   20.4883 C   0  0  0  0  0  0  0  0  0  0  0  0
    8.0349  -11.9379   19.4189 S   0  0  0  0  0  0  0  0  0  0  0  0
    7.8231  -13.6691   18.8670 C   0  0  0  0  0  0  0  0  0  0  0  0
    7.7214  -14.5863   20.0730 C   0  0  0  0  0  0  0  0  0  0  0  0
    8.4395  -15.8761   19.7178 C   0  0  2  0  0  0  0  0  0  0  0  0
    7.6927  -16.6156   18.7178 N   0  0  0  0  0  0  0  0  0  0  0  0
    8.6102  -16.6274   20.9661 C   0  0  0  0  0  0  0  0  0  0  0  0
    7.5690  -16.9825   21.5967 O   0  0  0  0  0  0  0  0  0  0  0  0
   12.2462  -18.1949   22.1159 O   0  0  0  0  0  0  0  0  0  0  0  0
   11.1135  -18.7806   22.6337 C   0  0  0  0  0  0  0  0  0  0  0  0
    9.9643  -17.7499   22.7233 C   0  0  2  0  0  0  0  0  0  0  0  0
    9.8916  -16.9823   21.5090 N   0  0  0  0  0  0  0  0  0  0  0  0
   10.2718  -16.8846   23.8944 C   0  0  0  0  0  0  0  0  0  0  0  0
   11.0220  -15.8802   23.8117 O   0  0  0  0  0  0  0  0  0  0  0  0
    9.7325  -17.1451   25.1868 N   0  0  0  0  0  0  0  0  0  0  0  0
   10.1878  -16.3990   26.3408 C   0  0  1  0  0  0  0  0  0  0  0  0
    8.9536  -16.3046   27.2523 C   0  0  0  0  0  0  0  0  0  0  0  0
    7.8196  -15.6407   26.6216 C   0  0  0  0  0  0  0  0  0  0  0  0
    6.7146  -16.2871   26.1190 C   0  0  0  0  0  0  0  0  0  0  0  0
    5.8856  -15.3546   25.6178 N   0  0  0  0  0  0  0  0  0  0  0  0
    6.4482  -14.1243   25.7940 C   0  0  0  0  0  0  0  0  0  0  0  0
    5.9910  -12.8539   25.4507 C   0  0  0  0  0  0  0  0  0  0  0  0
    6.7989  -11.7896   25.7679 C   0  0  0  0  0  0  0  0  0  0  0  0
    8.0099  -11.9525   26.3959 C   0  0  0  0  0  0  0  0  0  0  0  0
    8.4668  -13.1851   26.7349 C   0  0  0  0  0  0  0  0  0  0  0  0
    7.6669  -14.2899   26.4265 C   0  0  0  0  0  0  0  0  0  0  0  0
   11.2182  -17.1490   27.1073 C   0  0  0  0  0  0  0  0  0  0  0  0
   11.5128  -18.3291   26.7860 O   0  0  0  0  0  0  0  0  0  0  0  0
   11.8839  -16.5929   28.1864 O   0  0  0  0  0  0  0  0  0  0  0  0
  2  1  1  0
  3  2  1  0
  4  5  1  0
  4  3  1  0
  5  7  1  0
  5  6  1  6
  7  8  2  0
  9 10  1  0
 11 10  1  6
 11 13  1  0
 12 11  1  0
 12  7  1  0
 13 14  2  0
 15 16  1  0
 15 13  1  0
 16 27  1  0
 16 17  1  1
 18 17  1  0
 19 18  2  0
 20 21  1  0
 20 19  1  0
 21 26  2  0
 22 21  1  0
 22 23  2  0
 23 24  1  0
 24 25  2  0
 26 18  1  0
 26 25  1  0
 27 28  2  0
 27 29  1  0
M  END
$$$$
