MSW.pdb
     RDKit          3D

 29 30  0  0  1  0  0  0  0  0999 V2000
    8.7444  -10.9244   21.7116 C   0  0  0  0  0  0  0  0  0  0  0  0
    9.0811  -12.2568   20.5059 S   0  0  0  0  0  0  0  0  0  0  0  0
    7.9679  -13.6711   20.8333 C   0  0  0  0  0  0  0  0  0  0  0  0
    8.2248  -14.7746   19.8223 C   0  0  0  0  0  0  0  0  0  0  0  0
    7.3436  -15.9498   20.2071 C   0  0  2  0  0  0  0  0  0  0  0  0
    5.9667  -15.5223   20.3682 N   0  0  0  0  0  0  0  0  0  0  0  0
    7.9059  -16.5205   21.4359 C   0  0  0  0  0  0  0  0  0  0  0  0
    7.3190  -16.2732   22.5324 O   0  0  0  0  0  0  0  0  0  0  0  0
   11.6669  -18.2651   21.7420 O   0  0  0  0  0  0  0  0  0  0  0  0
   10.6770  -18.9282   22.4308 C   0  0  0  0  0  0  0  0  0  0  0  0
    9.4741  -17.9906   22.6854 C   0  0  2  0  0  0  0  0  0  0  0  0
    9.0823  -17.3440   21.4617 N   0  0  0  0  0  0  0  0  0  0  0  0
    9.9255  -17.0011   23.7013 C   0  0  0  0  0  0  0  0  0  0  0  0
   10.4568  -15.9070   23.3867 O   0  0  0  0  0  0  0  0  0  0  0  0
    9.7829  -17.2366   25.0988 N   0  0  0  0  0  0  0  0  0  0  0  0
   10.3219  -16.3016   26.0638 C   0  0  1  0  0  0  0  0  0  0  0  0
    9.2048  -16.1345   27.1064 C   0  0  0  0  0  0  0  0  0  0  0  0
    7.9870  -15.5497   26.5591 C   0  0  0  0  0  0  0  0  0  0  0  0
    6.9121  -16.2712   26.0952 C   0  0  0  0  0  0  0  0  0  0  0  0
    5.9832  -15.3971   25.6697 N   0  0  0  0  0  0  0  0  0  0  0  0
    6.4526  -14.1297   25.8559 C   0  0  0  0  0  0  0  0  0  0  0  0
    5.8750  -12.8926   25.5792 C   0  0  0  0  0  0  0  0  0  0  0  0
    6.6099  -11.7741   25.8877 C   0  0  0  0  0  0  0  0  0  0  0  0
    7.8633  -11.8535   26.4446 C   0  0  0  0  0  0  0  0  0  0  0  0
    8.4373  -13.0529   26.7182 C   0  0  0  0  0  0  0  0  0  0  0  0
    7.7141  -14.2112   26.4168 C   0  0  0  0  0  0  0  0  0  0  0  0
   11.4887  -16.8723   26.7879 C   0  0  0  0  0  0  0  0  0  0  0  0
   11.8117  -18.0766   26.6199 O   0  0  0  0  0  0  0  0  0  0  0  0
   12.2544  -16.1190   27.6615 O   0  0  0  0  0  0  0  0  0  0  0  0
  2  1  1  0
  3  2  1  0
  4  5  1  0
  4  3  1  0
  5  7  1  0
  5  6  1  1
  7  8  2  0
  9 10  1  0
 11 10  1  6
 11 13  1  0
 12 11  1  0
 12  7  1  0
 13 14  2  0
 15 16  1  0
 15 13  1  0
 16 27  1  0
 16 17  1  1
 18 17  1  0
 19 18  2  0
 20 21  1  0
 20 19  1  0
 21 26  2  0
 22 21  1  0
 22 23  2  0
 23 24  1  0
 24 25  2  0
 26 18  1  0
 26 25  1  0
 27 28  2  0
 27 29  1  0
M  END
$$$$
