MSW.pdb
     RDKit          3D

 29 30  0  0  1  0  0  0  0  0999 V2000
    8.3761  -10.9832   18.4542 C   0  0  0  0  0  0  0  0  0  0  0  0
    8.3274  -11.8794   20.0470 S   0  0  0  0  0  0  0  0  0  0  0  0
    7.8604  -13.6232   19.7514 C   0  0  0  0  0  0  0  0  0  0  0  0
    7.8359  -14.3808   21.0672 C   0  0  0  0  0  0  0  0  0  0  0  0
    7.5102  -15.8286   20.7455 C   0  0  2  0  0  0  0  0  0  0  0  0
    6.0798  -16.0036   20.5788 N   0  0  0  0  0  0  0  0  0  0  0  0
    8.0558  -16.6417   21.8377 C   0  0  0  0  0  0  0  0  0  0  0  0
    7.3649  -16.7642   22.8939 O   0  0  0  0  0  0  0  0  0  0  0  0
   12.0237  -17.9025   21.9503 O   0  0  0  0  0  0  0  0  0  0  0  0
   11.1355  -18.7485   22.5743 C   0  0  0  0  0  0  0  0  0  0  0  0
    9.8313  -17.9974   22.9292 C   0  0  2  0  0  0  0  0  0  0  0  0
    9.3274  -17.3062   21.7727 N   0  0  0  0  0  0  0  0  0  0  0  0
   10.1821  -17.0467   24.0192 C   0  0  0  0  0  0  0  0  0  0  0  0
   10.8309  -15.9914   23.8102 O   0  0  0  0  0  0  0  0  0  0  0  0
    9.8027  -17.2779   25.3726 N   0  0  0  0  0  0  0  0  0  0  0  0
   10.5739  -16.7168   26.4617 C   0  0  1  0  0  0  0  0  0  0  0  0
   10.0265  -15.2902   26.6289 C   0  0  0  0  0  0  0  0  0  0  0  0
    8.5819  -15.2021   26.4552 C   0  0  0  0  0  0  0  0  0  0  0  0
    7.7446  -16.2823   26.3022 C   0  0  0  0  0  0  0  0  0  0  0  0
    6.4910  -15.8148   26.1683 N   0  0  0  0  0  0  0  0  0  0  0  0
    6.5195  -14.4524   26.2335 C   0  0  0  0  0  0  0  0  0  0  0  0
    5.4943  -13.5129   26.1488 C   0  0  0  0  0  0  0  0  0  0  0  0
    5.8459  -12.1895   26.2543 C   0  0  0  0  0  0  0  0  0  0  0  0
    7.1483  -11.7912   26.4346 C   0  0  0  0  0  0  0  0  0  0  0  0
    8.1563  -12.6968   26.5179 C   0  0  0  0  0  0  0  0  0  0  0  0
    7.8310  -14.0530   26.4152 C   0  0  0  0  0  0  0  0  0  0  0  0
   10.3058  -17.4213   27.7436 C   0  0  0  0  0  0  0  0  0  0  0  0
   10.8064  -16.9966   28.8168 O   0  0  0  0  0  0  0  0  0  0  0  0
    9.5107  -18.5528   27.8105 O   0  0  0  0  0  0  0  0  0  0  0  0
  2  1  1  0
  3  2  1  0
  4  5  1  0
  4  3  1  0
  5  7  1  0
  5  6  1  1
  7  8  2  0
  9 10  1  0
 11 10  1  6
 11 13  1  0
 12 11  1  0
 12  7  1  0
 13 14  2  0
 15 16  1  0
 15 13  1  0
 16 27  1  0
 16 17  1  1
 18 17  1  0
 19 18  2  0
 20 21  1  0
 20 19  1  0
 21 26  2  0
 22 21  1  0
 22 23  2  0
 23 24  1  0
 24 25  2  0
 26 18  1  0
 26 25  1  0
 27 28  2  0
 27 29  1  0
M  END
$$$$
