MSW.pdb
     RDKit          3D

 29 30  0  0  1  0  0  0  0  0999 V2000
    8.7846  -11.4667   20.6105 C   0  0  0  0  0  0  0  0  0  0  0  0
    7.6506  -12.1167   19.3322 S   0  0  0  0  0  0  0  0  0  0  0  0
    8.0651  -13.8635   18.9807 C   0  0  0  0  0  0  0  0  0  0  0  0
    8.1758  -14.6392   20.2814 C   0  0  0  0  0  0  0  0  0  0  0  0
    8.5172  -16.0741   19.9205 C   0  0  2  0  0  0  0  0  0  0  0  0
    7.4677  -16.6576   19.1064 N   0  0  0  0  0  0  0  0  0  0  0  0
    8.7209  -16.7946   21.1819 C   0  0  0  0  0  0  0  0  0  0  0  0
    7.6965  -17.1864   21.8183 O   0  0  0  0  0  0  0  0  0  0  0  0
   12.4543  -18.0622   22.3896 O   0  0  0  0  0  0  0  0  0  0  0  0
   11.3753  -18.7603   22.8820 C   0  0  0  0  0  0  0  0  0  0  0  0
   10.1247  -17.8527   22.9401 C   0  0  2  0  0  0  0  0  0  0  0  0
   10.0167  -17.0803   21.7315 N   0  0  0  0  0  0  0  0  0  0  0  0
   10.3015  -16.9765   24.1300 C   0  0  0  0  0  0  0  0  0  0  0  0
   10.8825  -15.8644   24.0676 O   0  0  0  0  0  0  0  0  0  0  0  0
    9.8212  -17.3483   25.4184 N   0  0  0  0  0  0  0  0  0  0  0  0
   10.1630  -16.5663   26.5877 C   0  0  1  0  0  0  0  0  0  0  0  0
    8.8532  -16.4717   27.3866 C   0  0  0  0  0  0  0  0  0  0  0  0
    7.8020  -15.7430   26.6877 C   0  0  0  0  0  0  0  0  0  0  0  0
    6.7550  -16.3308   26.0172 C   0  0  0  0  0  0  0  0  0  0  0  0
    5.9946  -15.3492   25.5013 N   0  0  0  0  0  0  0  0  0  0  0  0
    6.5437  -14.1454   25.8337 C   0  0  0  0  0  0  0  0  0  0  0  0
    6.1378  -12.8451   25.5415 C   0  0  0  0  0  0  0  0  0  0  0  0
    6.9136  -11.8216   26.0280 C   0  0  0  0  0  0  0  0  0  0  0  0
    8.0455  -12.0520   26.7716 C   0  0  0  0  0  0  0  0  0  0  0  0
    8.4520  -13.3142   27.0624 C   0  0  0  0  0  0  0  0  0  0  0  0
    7.6828  -14.3789   26.5824 C   0  0  0  0  0  0  0  0  0  0  0  0
   11.1348  -17.2788   27.4593 C   0  0  0  0  0  0  0  0  0  0  0  0
   11.4380  -18.4767   27.2231 O   0  0  0  0  0  0  0  0  0  0  0  0
   11.7351  -16.6678   28.5470 O   0  0  0  0  0  0  0  0  0  0  0  0
  2  1  1  0
  3  2  1  0
  4  5  1  0
  4  3  1  0
  5  7  1  0
  5  6  1  1
  7  8  2  0
  9 10  1  0
 11 10  1  6
 11 13  1  0
 12 11  1  0
 12  7  1  0
 13 14  2  0
 15 16  1  0
 15 13  1  0
 16 27  1  0
 16 17  1  1
 18 17  1  0
 19 18  2  0
 20 21  1  0
 20 19  1  0
 21 26  2  0
 22 21  1  0
 22 23  2  0
 23 24  1  0
 24 25  2  0
 26 18  1  0
 26 25  1  0
 27 28  2  0
 27 29  1  0
M  END
$$$$
