MSW.pdb
     RDKit          3D

 29 30  0  0  1  0  0  0  0  0999 V2000
    7.1643  -11.3206   19.2836 C   0  0  0  0  0  0  0  0  0  0  0  0
    8.7124  -12.2725   19.0850 S   0  0  0  0  0  0  0  0  0  0  0  0
    8.3505  -14.0605   19.2212 C   0  0  0  0  0  0  0  0  0  0  0  0
    9.6362  -14.8583   19.0928 C   0  0  0  0  0  0  0  0  0  0  0  0
    9.2685  -16.3259   19.2220 C   0  0  2  0  0  0  0  0  0  0  0  0
    8.1215  -16.6384   18.3905 N   0  0  0  0  0  0  0  0  0  0  0  0
    9.0210  -16.5802   20.6453 C   0  0  0  0  0  0  0  0  0  0  0  0
    8.2230  -15.8099   21.2599 O   0  0  0  0  0  0  0  0  0  0  0  0
   10.8269  -19.7080   22.8024 O   0  0  0  0  0  0  0  0  0  0  0  0
    9.5206  -19.3913   23.0979 C   0  0  0  0  0  0  0  0  0  0  0  0
    9.2245  -17.9188   22.7306 C   0  0  2  0  0  0  0  0  0  0  0  0
    9.6325  -17.6543   21.3768 N   0  0  0  0  0  0  0  0  0  0  0  0
    9.9882  -17.0866   23.6997 C   0  0  0  0  0  0  0  0  0  0  0  0
   11.0909  -16.5580   23.4117 O   0  0  0  0  0  0  0  0  0  0  0  0
    9.5132  -16.8391   25.0195 N   0  0  0  0  0  0  0  0  0  0  0  0
   10.4269  -16.4457   26.0713 C   0  0  1  0  0  0  0  0  0  0  0  0
    9.8943  -15.0889   26.5593 C   0  0  0  0  0  0  0  0  0  0  0  0
    8.4859  -14.8764   26.2500 C   0  0  0  0  0  0  0  0  0  0  0  0
    7.5786  -15.8801   26.0032 C   0  0  0  0  0  0  0  0  0  0  0  0
    6.3878  -15.3062   25.7569 N   0  0  0  0  0  0  0  0  0  0  0  0
    6.5253  -13.9516   25.8428 C   0  0  0  0  0  0  0  0  0  0  0  0
    5.5963  -12.9274   25.6735 C   0  0  0  0  0  0  0  0  0  0  0  0
    6.0470  -11.6395   25.8299 C   0  0  0  0  0  0  0  0  0  0  0  0
    7.3551  -11.3552   26.1388 C   0  0  0  0  0  0  0  0  0  0  0  0
    8.2700  -12.3442   26.3056 C   0  0  0  0  0  0  0  0  0  0  0  0
    7.8423  -13.6670   26.1541 C   0  0  0  0  0  0  0  0  0  0  0  0
   10.3529  -17.3680   27.2356 C   0  0  0  0  0  0  0  0  0  0  0  0
   11.1113  -17.2012   28.2254 O   0  0  0  0  0  0  0  0  0  0  0  0
    9.4650  -18.4294   27.2798 O   0  0  0  0  0  0  0  0  0  0  0  0
  2  1  1  0
  3  2  1  0
  4  5  1  0
  4  3  1  0
  5  7  1  0
  5  6  1  6
  7  8  2  0
  9 10  1  0
 11 10  1  1
 11 13  1  0
 12 11  1  0
 12  7  1  0
 13 14  2  0
 15 16  1  0
 15 13  1  0
 16 27  1  0
 16 17  1  1
 18 17  1  0
 19 18  2  0
 20 21  1  0
 20 19  1  0
 21 26  2  0
 22 21  1  0
 22 23  2  0
 23 24  1  0
 24 25  2  0
 26 18  1  0
 26 25  1  0
 27 28  2  0
 27 29  1  0
M  END
$$$$
