MSW.pdb
     RDKit          3D

 29 30  0  0  1  0  0  0  0  0999 V2000
    8.3884  -11.2443   18.9379 C   0  0  0  0  0  0  0  0  0  0  0  0
    8.4953  -12.6828   20.0611 S   0  0  0  0  0  0  0  0  0  0  0  0
    6.8131  -13.3135   20.4059 C   0  0  0  0  0  0  0  0  0  0  0  0
    6.8854  -14.4588   21.4004 C   0  0  0  0  0  0  0  0  0  0  0  0
    7.4857  -15.6483   20.6722 C   0  0  2  0  0  0  0  0  0  0  0  0
    6.4726  -16.3296   19.8886 N   0  0  0  0  0  0  0  0  0  0  0  0
    8.0883  -16.5134   21.6921 C   0  0  0  0  0  0  0  0  0  0  0  0
    7.3256  -17.0302   22.5635 O   0  0  0  0  0  0  0  0  0  0  0  0
   12.1756  -17.2915   21.8448 O   0  0  0  0  0  0  0  0  0  0  0  0
   11.3617  -18.2386   22.4234 C   0  0  0  0  0  0  0  0  0  0  0  0
   10.0069  -17.6130   22.8284 C   0  0  2  0  0  0  0  0  0  0  0  0
    9.4929  -16.8063   21.7541 N   0  0  0  0  0  0  0  0  0  0  0  0
   10.2731  -16.7942   24.0423 C   0  0  0  0  0  0  0  0  0  0  0  0
   10.7620  -15.6385   23.9817 O   0  0  0  0  0  0  0  0  0  0  0  0
    9.9894  -17.2744   25.3530 N   0  0  0  0  0  0  0  0  0  0  0  0
   10.3379  -16.4894   26.5183 C   0  0  1  0  0  0  0  0  0  0  0  0
    9.0435  -16.4282   27.3451 C   0  0  0  0  0  0  0  0  0  0  0  0
    7.9625  -15.7176   26.6734 C   0  0  0  0  0  0  0  0  0  0  0  0
    6.8927  -16.3227   26.0563 C   0  0  0  0  0  0  0  0  0  0  0  0
    6.1083  -15.3545   25.5510 N   0  0  0  0  0  0  0  0  0  0  0  0
    6.6647  -14.1422   25.8375 C   0  0  0  0  0  0  0  0  0  0  0  0
    6.2418  -12.8496   25.5355 C   0  0  0  0  0  0  0  0  0  0  0  0
    7.0314  -11.8136   25.9706 C   0  0  0  0  0  0  0  0  0  0  0  0
    8.1926  -12.0247   26.6738 C   0  0  0  0  0  0  0  0  0  0  0  0
    8.6157  -13.2794   26.9737 C   0  0  0  0  0  0  0  0  0  0  0  0
    7.8331  -14.3564   26.5456 C   0  0  0  0  0  0  0  0  0  0  0  0
   11.3440  -17.1828   27.3660 C   0  0  0  0  0  0  0  0  0  0  0  0
   11.6918  -18.3623   27.1001 O   0  0  0  0  0  0  0  0  0  0  0  0
   11.9290  -16.5737   28.4631 O   0  0  0  0  0  0  0  0  0  0  0  0
  2  1  1  0
  3  2  1  0
  4  5  1  0
  4  3  1  0
  5  7  1  0
  5  6  1  1
  7  8  2  0
  9 10  1  0
 11 10  1  6
 11 13  1  0
 12 11  1  0
 12  7  1  0
 13 14  2  0
 15 16  1  0
 15 13  1  0
 16 27  1  0
 16 17  1  1
 18 17  1  0
 19 18  2  0
 20 21  1  0
 20 19  1  0
 21 26  2  0
 22 21  1  0
 22 23  2  0
 23 24  1  0
 24 25  2  0
 26 18  1  0
 26 25  1  0
 27 28  2  0
 27 29  1  0
M  END
$$$$
