MSW.pdb
     RDKit          3D

 29 30  0  0  1  0  0  0  0  0999 V2000
    8.5198  -11.1516   20.4606 C   0  0  0  0  0  0  0  0  0  0  0  0
    7.0306  -12.1026   19.9916 S   0  0  0  0  0  0  0  0  0  0  0  0
    7.5041  -13.8278   19.6093 C   0  0  0  0  0  0  0  0  0  0  0  0
    7.7363  -14.5966   20.8981 C   0  0  0  0  0  0  0  0  0  0  0  0
    8.0099  -16.0405   20.5162 C   0  0  2  0  0  0  0  0  0  0  0  0
    6.8182  -16.6550   19.9621 N   0  0  0  0  0  0  0  0  0  0  0  0
    8.4856  -16.7194   21.7264 C   0  0  0  0  0  0  0  0  0  0  0  0
    7.6269  -17.0712   22.5906 O   0  0  0  0  0  0  0  0  0  0  0  0
   12.5080  -17.5185   22.4036 O   0  0  0  0  0  0  0  0  0  0  0  0
   11.6198  -18.4039   22.9703 C   0  0  0  0  0  0  0  0  0  0  0  0
   10.2398  -17.7346   23.1664 C   0  0  2  0  0  0  0  0  0  0  0  0
    9.8692  -17.0072   21.9822 N   0  0  0  0  0  0  0  0  0  0  0  0
   10.3797  -16.8281   24.3384 C   0  0  0  0  0  0  0  0  0  0  0  0
   10.9081  -15.6916   24.2519 O   0  0  0  0  0  0  0  0  0  0  0  0
    9.9219  -17.1967   25.6359 N   0  0  0  0  0  0  0  0  0  0  0  0
   10.2698  -16.4021   26.7949 C   0  0  1  0  0  0  0  0  0  0  0  0
    8.9444  -16.2215   27.5523 C   0  0  0  0  0  0  0  0  0  0  0  0
    7.9388  -15.4917   26.7904 C   0  0  0  0  0  0  0  0  0  0  0  0
    6.9082  -16.0769   26.0926 C   0  0  0  0  0  0  0  0  0  0  0  0
    6.1908  -15.0951   25.5188 N   0  0  0  0  0  0  0  0  0  0  0  0
    6.7511  -13.8937   25.8413 C   0  0  0  0  0  0  0  0  0  0  0  0
    6.3852  -12.5942   25.4973 C   0  0  0  0  0  0  0  0  0  0  0  0
    7.1617  -11.5732   25.9881 C   0  0  0  0  0  0  0  0  0  0  0  0
    8.2567  -11.8054   26.7846 C   0  0  0  0  0  0  0  0  0  0  0  0
    8.6239  -13.0669   27.1262 C   0  0  0  0  0  0  0  0  0  0  0  0
    7.8529  -14.1290   26.6433 C   0  0  0  0  0  0  0  0  0  0  0  0
   11.1795  -17.1387   27.7121 C   0  0  0  0  0  0  0  0  0  0  0  0
   11.4795  -18.3380   27.4788 O   0  0  0  0  0  0  0  0  0  0  0  0
   11.7241  -16.5493   28.8403 O   0  0  0  0  0  0  0  0  0  0  0  0
  2  1  1  0
  3  2  1  0
  4  5  1  0
  4  3  1  0
  5  7  1  0
  5  6  1  1
  7  8  2  0
  9 10  1  0
 11 10  1  6
 11 13  1  0
 12 11  1  0
 12  7  1  0
 13 14  2  0
 15 16  1  0
 15 13  1  0
 16 27  1  0
 16 17  1  1
 18 17  1  0
 19 18  2  0
 20 21  1  0
 20 19  1  0
 21 26  2  0
 22 21  1  0
 22 23  2  0
 23 24  1  0
 24 25  2  0
 26 18  1  0
 26 25  1  0
 27 28  2  0
 27 29  1  0
M  END
$$$$
