IIE.pdb
     RDKit          3D

 26 25  0  0  1  0  0  0  0  0999 V2000
   11.5594  -18.2729    4.4338 C   0  0  0  0  0  0  0  0  0  0  0  0
   12.5638  -18.1295    3.3288 C   0  0  0  0  0  0  0  0  0  0  0  0
   13.9709  -17.8908    3.7692 C   0  0  2  0  0  0  0  0  0  0  0  0
   14.2519  -18.6501    5.0717 C   0  0  0  0  0  0  0  0  0  0  0  0
   14.3647  -16.4745    3.9597 C   0  0  2  0  0  0  0  0  0  0  0  0
   14.1004  -15.6712    2.7838 N   0  0  0  0  0  0  0  0  0  0  0  0
   15.7558  -16.2547    4.4479 C   0  0  0  0  0  0  0  0  0  0  0  0
   16.6520  -16.9152    3.8504 O   0  0  0  0  0  0  0  0  0  0  0  0
   18.4818  -11.8730    4.4288 C   0  0  0  0  0  0  0  0  0  0  0  0
   18.0667  -13.3513    4.4641 C   0  0  0  0  0  0  0  0  0  0  0  0
   17.8733  -13.8118    5.8857 C   0  0  2  0  0  0  0  0  0  0  0  0
   19.0910  -13.3980    6.6575 C   0  0  0  0  0  0  0  0  0  0  0  0
   17.3591  -15.1675    6.0759 C   0  0  2  0  0  0  0  0  0  0  0  0
   16.0322  -15.3653    5.5053 N   0  0  0  0  0  0  0  0  0  0  0  0
   17.4084  -15.8194    7.3832 C   0  0  0  0  0  0  0  0  0  0  0  0
   16.5194  -15.5180    8.2276 O   0  0  0  0  0  0  0  0  0  0  0  0
   18.3542  -16.7746    7.8277 N   0  0  0  0  0  0  0  0  0  0  0  0
   18.2273  -17.2748    9.2094 C   0  0  1  0  0  0  0  0  0  0  0  0
   18.2528  -18.8038    9.1608 C   0  0  0  0  0  0  0  0  0  0  0  0
   16.9232  -19.3888    8.7520 C   0  0  0  0  0  0  0  0  0  0  0  0
   17.2270  -20.4934    7.8137 C   0  0  0  0  0  0  0  0  0  0  0  0
   17.9469  -20.2845    6.8218 O   0  0  0  0  0  0  0  0  0  0  0  0
   19.3262  -16.7012   10.0050 C   0  0  0  0  0  0  0  0  0  0  0  0
   20.3573  -15.9281    9.5087 O   0  0  0  0  0  0  0  0  0  0  0  0
   16.7053  -21.7483    8.0455 O   0  0  0  0  0  0  0  0  0  0  0  0
   19.3643  -16.9146   11.2595 O   0  0  0  0  0  0  0  0  0  0  0  0
  2  1  1  0
  3  2  1  0
  3  4  1  1
  5  3  1  0
  5  6  1  6
  7  5  1  0
  8  7  2  0
  9 10  1  0
 10 11  1  0
 11 13  1  0
 11 12  1  1
 13 14  1  1
 14  7  1  0
 15 17  1  0
 15 13  1  0
 16 15  2  0
 18 23  1  0
 18 17  1  0
 18 19  1  6
 19 20  1  0
 20 21  1  0
 21 22  2  0
 23 24  1  0
 25 21  1  0
 26 23  2  0
M  END
$$$$
