IIE.pdb
     RDKit          3D

 26 25  0  0  1  0  0  0  0  0999 V2000
   28.2492  -12.8431  -15.3768 C   0  0  0  0  0  0  0  0  0  0  0  0
   26.8812  -13.4272  -15.5709 C   0  0  0  0  0  0  0  0  0  0  0  0
   25.8280  -12.4611  -16.0050 C   0  0  2  0  0  0  0  0  0  0  0  0
   25.6463  -11.3676  -14.9453 C   0  0  0  0  0  0  0  0  0  0  0  0
   24.4981  -13.0391  -16.3129 C   0  0  2  0  0  0  0  0  0  0  0  0
   24.5916  -14.1870  -17.1914 N   0  0  0  0  0  0  0  0  0  0  0  0
   23.4782  -12.0735  -16.8121 C   0  0  0  0  0  0  0  0  0  0  0  0
   23.7384  -11.5353  -17.9252 O   0  0  0  0  0  0  0  0  0  0  0  0
   19.3808  -13.5149  -18.2818 C   0  0  0  0  0  0  0  0  0  0  0  0
   20.0686  -12.1421  -18.3172 C   0  0  0  0  0  0  0  0  0  0  0  0
   20.0498  -11.5066  -16.9510 C   0  0  2  0  0  0  0  0  0  0  0  0
   18.7608  -10.7494  -16.8297 C   0  0  0  0  0  0  0  0  0  0  0  0
   21.2819  -10.8538  -16.5101 C   0  0  2  0  0  0  0  0  0  0  0  0
   22.3087  -11.7939  -16.0776 N   0  0  0  0  0  0  0  0  0  0  0  0
   21.2508   -9.7314  -15.5742 C   0  0  0  0  0  0  0  0  0  0  0  0
   21.1869   -9.9924  -14.3405 O   0  0  0  0  0  0  0  0  0  0  0  0
   21.2878   -8.3520  -15.8912 N   0  0  0  0  0  0  0  0  0  0  0  0
   21.2359   -7.3895  -14.7748 C   0  0  1  0  0  0  0  0  0  0  0  0
   22.0333   -6.1497  -15.1846 C   0  0  0  0  0  0  0  0  0  0  0  0
   21.9251   -5.0355  -14.1727 C   0  0  0  0  0  0  0  0  0  0  0  0
   22.6790   -3.8911  -14.7337 C   0  0  0  0  0  0  0  0  0  0  0  0
   23.3906   -4.0508  -15.7406 O   0  0  0  0  0  0  0  0  0  0  0  0
   19.8205   -7.1002  -14.4873 C   0  0  0  0  0  0  0  0  0  0  0  0
   19.3005   -6.7934  -13.2453 O   0  0  0  0  0  0  0  0  0  0  0  0
   22.5888   -2.6540  -14.1321 O   0  0  0  0  0  0  0  0  0  0  0  0
   18.9739   -7.1265  -15.4377 O   0  0  0  0  0  0  0  0  0  0  0  0
  2  1  1  0
  3  2  1  0
  3  4  1  1
  5  3  1  0
  5  6  1  6
  7  5  1  0
  8  7  2  0
  9 10  1  0
 10 11  1  0
 11 13  1  0
 11 12  1  6
 13 14  1  1
 14  7  1  0
 15 17  1  0
 15 13  1  0
 16 15  2  0
 18 23  1  0
 18 17  1  0
 18 19  1  6
 19 20  1  0
 20 21  1  0
 21 22  2  0
 23 24  1  0
 25 21  1  0
 26 23  2  0
M  END
$$$$
