IIE.pdb
     RDKit          3D

 26 25  0  0  1  0  0  0  0  0999 V2000
   16.0005   -9.2656  -20.0178 C   0  0  0  0  0  0  0  0  0  0  0  0
   17.1174  -10.2197  -19.7133 C   0  0  0  0  0  0  0  0  0  0  0  0
   17.9019   -9.9146  -18.4794 C   0  0  2  0  0  0  0  0  0  0  0  0
   18.5185   -8.5140  -18.5792 C   0  0  0  0  0  0  0  0  0  0  0  0
   18.9770  -10.8751  -18.1345 C   0  0  2  0  0  0  0  0  0  0  0  0
   18.4987  -12.2419  -18.1021 N   0  0  0  0  0  0  0  0  0  0  0  0
   19.7511  -10.5569  -16.9011 C   0  0  0  0  0  0  0  0  0  0  0  0
   19.2143  -10.9157  -15.8150 O   0  0  0  0  0  0  0  0  0  0  0  0
   24.2659  -12.4774  -15.6302 C   0  0  0  0  0  0  0  0  0  0  0  0
   22.8821  -11.8114  -15.6472 C   0  0  0  0  0  0  0  0  0  0  0  0
   23.0184  -10.3108  -15.6629 C   0  0  2  0  0  0  0  0  0  0  0  0
   23.9805   -9.9395  -14.5738 C   0  0  0  0  0  0  0  0  0  0  0  0
   21.7838   -9.5375  -15.7912 C   0  0  2  0  0  0  0  0  0  0  0  0
   20.9963   -9.9004  -16.9632 N   0  0  0  0  0  0  0  0  0  0  0  0
   21.7854   -8.0817  -15.6607 C   0  0  0  0  0  0  0  0  0  0  0  0
   22.4585   -7.4145  -16.4950 O   0  0  0  0  0  0  0  0  0  0  0  0
   21.1038   -7.3091  -14.6896 N   0  0  0  0  0  0  0  0  0  0  0  0
   21.3060   -5.8482  -14.7092 C   0  0  1  0  0  0  0  0  0  0  0  0
   19.9377   -5.1814  -14.5543 C   0  0  0  0  0  0  0  0  0  0  0  0
   19.0022   -5.5171  -15.6897 C   0  0  0  0  0  0  0  0  0  0  0  0
   19.3478   -4.5974  -16.7977 C   0  0  0  0  0  0  0  0  0  0  0  0
   19.3635   -5.0151  -17.9686 O   0  0  0  0  0  0  0  0  0  0  0  0
   22.2453   -5.5031  -13.6284 C   0  0  0  0  0  0  0  0  0  0  0  0
   22.9403   -4.3148  -13.5184 O   0  0  0  0  0  0  0  0  0  0  0  0
   19.6537   -3.2817  -16.5220 O   0  0  0  0  0  0  0  0  0  0  0  0
   22.4624   -6.3458  -12.6991 O   0  0  0  0  0  0  0  0  0  0  0  0
  2  1  1  0
  3  2  1  0
  3  4  1  6
  5  3  1  0
  5  6  1  1
  7  5  1  0
  8  7  2  0
  9 10  1  0
 10 11  1  0
 11 13  1  0
 11 12  1  1
 13 14  1  6
 14  7  1  0
 15 17  1  0
 15 13  1  0
 16 15  2  0
 18 23  1  0
 18 17  1  0
 18 19  1  1
 19 20  1  0
 20 21  1  0
 21 22  2  0
 23 24  1  0
 25 21  1  0
 26 23  2  0
M  END
$$$$
