IIE.pdb
     RDKit          3D

 26 25  0  0  1  0  0  0  0  0999 V2000
   28.1944  -17.2662  -17.0968 C   0  0  0  0  0  0  0  0  0  0  0  0
   28.6482  -18.2077  -16.0208 C   0  0  0  0  0  0  0  0  0  0  0  0
   27.5608  -18.9666  -15.3333 C   0  0  2  0  0  0  0  0  0  0  0  0
   26.5111  -17.9968  -14.7771 C   0  0  0  0  0  0  0  0  0  0  0  0
   27.9867  -19.8720  -14.2395 C   0  0  2  0  0  0  0  0  0  0  0  0
   29.0093  -20.8038  -14.6687 N   0  0  0  0  0  0  0  0  0  0  0  0
   26.8863  -20.5850  -13.5308 C   0  0  0  0  0  0  0  0  0  0  0  0
   26.5791  -21.7160  -14.0028 O   0  0  0  0  0  0  0  0  0  0  0  0
   26.8746  -20.4904   -8.1669 C   0  0  0  0  0  0  0  0  0  0  0  0
   26.6858  -21.0403   -9.5884 C   0  0  0  0  0  0  0  0  0  0  0  0
   25.3968  -20.5349  -10.1833 C   0  0  2  0  0  0  0  0  0  0  0  0
   24.2854  -20.9762   -9.2780 C   0  0  0  0  0  0  0  0  0  0  0  0
   25.2251  -20.7038  -11.6258 C   0  0  2  0  0  0  0  0  0  0  0  0
   26.2448  -20.0191  -12.4111 N   0  0  0  0  0  0  0  0  0  0  0  0
   23.9260  -20.4965  -12.2628 C   0  0  0  0  0  0  0  0  0  0  0  0
   23.5531  -19.3083  -12.4712 O   0  0  0  0  0  0  0  0  0  0  0  0
   23.0132  -21.4917  -12.6882 N   0  0  0  0  0  0  0  0  0  0  0  0
   21.8053  -21.0514  -13.4111 C   0  0  1  0  0  0  0  0  0  0  0  0
   21.6215  -21.9676  -14.6226 C   0  0  0  0  0  0  0  0  0  0  0  0
   20.3243  -21.7085  -15.3485 C   0  0  0  0  0  0  0  0  0  0  0  0
   20.2577  -22.7004  -16.4460 C   0  0  0  0  0  0  0  0  0  0  0  0
   21.1737  -23.5288  -16.5898 O   0  0  0  0  0  0  0  0  0  0  0  0
   20.6707  -21.0955  -12.4729 C   0  0  0  0  0  0  0  0  0  0  0  0
   19.4840  -20.4039  -12.6159 O   0  0  0  0  0  0  0  0  0  0  0  0
   19.1794  -22.6963  -17.3049 O   0  0  0  0  0  0  0  0  0  0  0  0
   20.7532  -21.8201  -11.4293 O   0  0  0  0  0  0  0  0  0  0  0  0
  2  1  1  0
  3  2  1  0
  3  4  1  1
  5  3  1  0
  5  6  1  6
  7  5  1  0
  8  7  2  0
  9 10  1  0
 10 11  1  0
 11 13  1  0
 11 12  1  1
 13 14  1  6
 14  7  1  0
 15 17  1  0
 15 13  1  0
 16 15  2  0
 18 23  1  0
 18 17  1  0
 18 19  1  6
 19 20  1  0
 20 21  1  0
 21 22  2  0
 23 24  1  0
 25 21  1  0
 26 23  2  0
M  END
$$$$
