IIE.pdb
     RDKit          3D

 26 25  0  0  1  0  0  0  0  0999 V2000
   27.3572  -19.9354   -6.1738 C   0  0  0  0  0  0  0  0  0  0  0  0
   27.5734  -20.7543   -7.4119 C   0  0  0  0  0  0  0  0  0  0  0  0
   26.7466  -20.3613   -8.5922 C   0  0  2  0  0  0  0  0  0  0  0  0
   25.2577  -20.5595   -8.2827 C   0  0  0  0  0  0  0  0  0  0  0  0
   27.0553  -21.0539   -9.8660 C   0  0  2  0  0  0  0  0  0  0  0  0
   28.4736  -21.0499  -10.1600 N   0  0  0  0  0  0  0  0  0  0  0  0
   26.2692  -20.6027  -11.0492 C   0  0  0  0  0  0  0  0  0  0  0  0
   26.5312  -19.4383  -11.4638 O   0  0  0  0  0  0  0  0  0  0  0  0
   27.2047  -22.7446  -15.3493 C   0  0  0  0  0  0  0  0  0  0  0  0
   26.7125  -21.7250  -14.3116 C   0  0  0  0  0  0  0  0  0  0  0  0
   25.2421  -21.9143  -14.0414 C   0  0  2  0  0  0  0  0  0  0  0  0
   24.5382  -21.8821  -15.3654 C   0  0  0  0  0  0  0  0  0  0  0  0
   24.6712  -21.1495  -12.9334 C   0  0  2  0  0  0  0  0  0  0  0  0
   25.3037  -21.4340  -11.6512 N   0  0  0  0  0  0  0  0  0  0  0  0
   23.2253  -21.0695  -12.7347 C   0  0  0  0  0  0  0  0  0  0  0  0
   22.6840  -21.9271  -11.9824 O   0  0  0  0  0  0  0  0  0  0  0  0
   22.3359  -20.1210  -13.2949 N   0  0  0  0  0  0  0  0  0  0  0  0
   20.9320  -20.1461  -12.8435 C   0  0  1  0  0  0  0  0  0  0  0  0
   20.3150  -18.7795  -13.1478 C   0  0  0  0  0  0  0  0  0  0  0  0
   18.8406  -18.7302  -12.8306 C   0  0  0  0  0  0  0  0  0  0  0  0
   18.3833  -17.3696  -13.1944 C   0  0  0  0  0  0  0  0  0  0  0  0
   19.1213  -16.6252  -13.8630 O   0  0  0  0  0  0  0  0  0  0  0  0
   20.2513  -21.2563  -13.5318 C   0  0  0  0  0  0  0  0  0  0  0  0
   19.2134  -22.0056  -13.0137 O   0  0  0  0  0  0  0  0  0  0  0  0
   17.1405  -16.9354  -12.7852 O   0  0  0  0  0  0  0  0  0  0  0  0
   20.6233  -21.5837  -14.7045 O   0  0  0  0  0  0  0  0  0  0  0  0
  2  1  1  0
  3  2  1  0
  3  4  1  1
  5  3  1  0
  5  6  1  6
  7  5  1  0
  8  7  2  0
  9 10  1  0
 10 11  1  0
 11 13  1  0
 11 12  1  6
 13 14  1  1
 14  7  1  0
 15 17  1  0
 15 13  1  0
 16 15  2  0
 18 23  1  0
 18 17  1  0
 18 19  1  6
 19 20  1  0
 20 21  1  0
 21 22  2  0
 23 24  1  0
 25 21  1  0
 26 23  2  0
M  END
$$$$
