IIE.pdb
     RDKit          3D

 26 25  0  0  1  0  0  0  0  0999 V2000
   27.5697  -17.9400  -18.5697 C   0  0  0  0  0  0  0  0  0  0  0  0
   28.1880  -18.7797  -17.4913 C   0  0  0  0  0  0  0  0  0  0  0  0
   27.2292  -19.3674  -16.5082 C   0  0  2  0  0  0  0  0  0  0  0  0
   26.4366  -18.2533  -15.8137 C   0  0  0  0  0  0  0  0  0  0  0  0
   27.8165  -20.2427  -15.4659 C   0  0  2  0  0  0  0  0  0  0  0  0
   28.6018  -21.3185  -16.0350 N   0  0  0  0  0  0  0  0  0  0  0  0
   26.8574  -20.7674  -14.4528 C   0  0  0  0  0  0  0  0  0  0  0  0
   26.2538  -21.8297  -14.7750 O   0  0  0  0  0  0  0  0  0  0  0  0
   28.3405  -20.8057   -9.3551 C   0  0  0  0  0  0  0  0  0  0  0  0
   27.6355  -21.2901  -10.6307 C   0  0  0  0  0  0  0  0  0  0  0  0
   26.3485  -20.5353  -10.8420 C   0  0  2  0  0  0  0  0  0  0  0  0
   25.4666  -20.8199   -9.6627 C   0  0  0  0  0  0  0  0  0  0  0  0
   25.7598  -20.5963  -12.1793 C   0  0  2  0  0  0  0  0  0  0  0  0
   26.6523  -20.1091  -13.2240 N   0  0  0  0  0  0  0  0  0  0  0  0
   24.4143  -20.0873  -12.4380 C   0  0  0  0  0  0  0  0  0  0  0  0
   24.2922  -18.8677  -12.7413 O   0  0  0  0  0  0  0  0  0  0  0  0
   23.2008  -20.8150  -12.3917 N   0  0  0  0  0  0  0  0  0  0  0  0
   22.0176  -20.2186  -13.0397 C   0  0  1  0  0  0  0  0  0  0  0  0
   22.2346  -20.2683  -14.5534 C   0  0  0  0  0  0  0  0  0  0  0  0
   20.9871  -19.9149  -15.3254 C   0  0  0  0  0  0  0  0  0  0  0  0
   21.1265  -18.4917  -15.7098 C   0  0  0  0  0  0  0  0  0  0  0  0
   22.1988  -18.0798  -16.1856 O   0  0  0  0  0  0  0  0  0  0  0  0
   20.8292  -20.9691  -12.5989 C   0  0  0  0  0  0  0  0  0  0  0  0
   19.5511  -20.4572  -12.4918 O   0  0  0  0  0  0  0  0  0  0  0  0
   20.0645  -17.6304  -15.5341 O   0  0  0  0  0  0  0  0  0  0  0  0
   20.9501  -22.1957  -12.2799 O   0  0  0  0  0  0  0  0  0  0  0  0
  2  1  1  0
  3  2  1  0
  3  4  1  1
  5  3  1  0
  5  6  1  6
  7  5  1  0
  8  7  2  0
  9 10  1  0
 10 11  1  0
 11 13  1  0
 11 12  1  1
 13 14  1  6
 14  7  1  0
 15 17  1  0
 15 13  1  0
 16 15  2  0
 18 23  1  0
 18 17  1  0
 18 19  1  6
 19 20  1  0
 20 21  1  0
 21 22  2  0
 23 24  1  0
 25 21  1  0
 26 23  2  0
M  END
$$$$
