IIE.pdb
     RDKit          3D

 26 25  0  0  1  0  0  0  0  0999 V2000
   19.2765  -16.7746  -16.8297 C   0  0  0  0  0  0  0  0  0  0  0  0
   18.8390  -15.5851  -16.0272 C   0  0  0  0  0  0  0  0  0  0  0  0
   18.8880  -14.2757  -16.7441 C   0  0  2  0  0  0  0  0  0  0  0  0
   20.3078  -14.0086  -17.2584 C   0  0  0  0  0  0  0  0  0  0  0  0
   18.4397  -13.0915  -15.9732 C   0  0  2  0  0  0  0  0  0  0  0  0
   17.0891  -13.2448  -15.4728 N   0  0  0  0  0  0  0  0  0  0  0  0
   18.6027  -11.7788  -16.6601 C   0  0  0  0  0  0  0  0  0  0  0  0
   19.7395  -11.5700  -17.1705 O   0  0  0  0  0  0  0  0  0  0  0  0
   15.3285  -10.4291  -19.9073 C   0  0  0  0  0  0  0  0  0  0  0  0
   16.7197   -9.8877  -19.5468 C   0  0  0  0  0  0  0  0  0  0  0  0
   16.6738   -9.1440  -18.2370 C   0  0  2  0  0  0  0  0  0  0  0  0
   16.4574   -7.6944  -18.5552 C   0  0  0  0  0  0  0  0  0  0  0  0
   17.6901   -9.4922  -17.2447 C   0  0  2  0  0  0  0  0  0  0  0  0
   17.5476  -10.8471  -16.7257 N   0  0  0  0  0  0  0  0  0  0  0  0
   18.0014   -8.5955  -16.1332 C   0  0  0  0  0  0  0  0  0  0  0  0
   17.2764   -8.6596  -15.1014 O   0  0  0  0  0  0  0  0  0  0  0  0
   19.0457   -7.6416  -16.0704 N   0  0  0  0  0  0  0  0  0  0  0  0
   19.1406   -6.8065  -14.8583 C   0  0  1  0  0  0  0  0  0  0  0  0
   20.5963   -6.3605  -14.7065 C   0  0  0  0  0  0  0  0  0  0  0  0
   20.7826   -5.3794  -13.5754 C   0  0  0  0  0  0  0  0  0  0  0  0
   22.2242   -5.0414  -13.5527 C   0  0  0  0  0  0  0  0  0  0  0  0
   23.0672   -5.9327  -13.3512 O   0  0  0  0  0  0  0  0  0  0  0  0
   18.2014   -5.6813  -15.0048 C   0  0  0  0  0  0  0  0  0  0  0  0
   17.5209   -5.0647  -13.9734 O   0  0  0  0  0  0  0  0  0  0  0  0
   22.6222   -3.7367  -13.7524 O   0  0  0  0  0  0  0  0  0  0  0  0
   17.9700   -5.2100  -16.1647 O   0  0  0  0  0  0  0  0  0  0  0  0
  2  1  1  0
  3  2  1  0
  3  4  1  1
  5  3  1  0
  5  6  1  6
  7  5  1  0
  8  7  2  0
  9 10  1  0
 10 11  1  0
 11 13  1  0
 11 12  1  6
 13 14  1  1
 14  7  1  0
 15 17  1  0
 15 13  1  0
 16 15  2  0
 18 23  1  0
 18 17  1  0
 18 19  1  6
 19 20  1  0
 20 21  1  0
 21 22  2  0
 23 24  1  0
 25 21  1  0
 26 23  2  0
M  END
$$$$
