IIE.pdb
     RDKit          3D

 26 25  0  0  1  0  0  0  0  0999 V2000
   32.2842  -21.5029  -11.7945 C   0  0  0  0  0  0  0  0  0  0  0  0
   31.2678  -21.7851  -12.8611 C   0  0  0  0  0  0  0  0  0  0  0  0
   29.9444  -21.1172  -12.6776 C   0  0  2  0  0  0  0  0  0  0  0  0
   29.2549  -21.6504  -11.4158 C   0  0  0  0  0  0  0  0  0  0  0  0
   28.9948  -21.2261  -13.8106 C   0  0  2  0  0  0  0  0  0  0  0  0
   29.5762  -20.7700  -15.0564 N   0  0  0  0  0  0  0  0  0  0  0  0
   27.6591  -20.6021  -13.5913 C   0  0  0  0  0  0  0  0  0  0  0  0
   27.5918  -19.3636  -13.8320 O   0  0  0  0  0  0  0  0  0  0  0  0
   23.0903  -21.1370  -15.8476 C   0  0  0  0  0  0  0  0  0  0  0  0
   24.3013  -20.6603  -15.0322 C   0  0  0  0  0  0  0  0  0  0  0  0
   24.1751  -21.0959  -13.5952 C   0  0  2  0  0  0  0  0  0  0  0  0
   22.7884  -20.7454  -13.1438 C   0  0  0  0  0  0  0  0  0  0  0  0
   25.2941  -20.7785  -12.7089 C   0  0  2  0  0  0  0  0  0  0  0  0
   26.5576  -21.3597  -13.1461 N   0  0  0  0  0  0  0  0  0  0  0  0
   25.1815  -20.9387  -11.2604 C   0  0  0  0  0  0  0  0  0  0  0  0
   25.2742  -22.1052  -10.7860 O   0  0  0  0  0  0  0  0  0  0  0  0
   24.9792  -19.9183  -10.3001 N   0  0  0  0  0  0  0  0  0  0  0  0
   24.9791  -20.3053   -8.8768 C   0  0  1  0  0  0  0  0  0  0  0  0
   25.7034  -19.2104   -8.0911 C   0  0  0  0  0  0  0  0  0  0  0  0
   25.6427  -19.4359   -6.6003 C   0  0  0  0  0  0  0  0  0  0  0  0
   26.9658  -19.9727   -6.2078 C   0  0  0  0  0  0  0  0  0  0  0  0
   27.0384  -20.9098   -5.3940 O   0  0  0  0  0  0  0  0  0  0  0  0
   23.5804  -20.4933   -8.4552 C   0  0  0  0  0  0  0  0  0  0  0  0
   23.1550  -21.3142   -7.4293 O   0  0  0  0  0  0  0  0  0  0  0  0
   28.1110  -19.4259   -6.7464 O   0  0  0  0  0  0  0  0  0  0  0  0
   22.6563  -19.8641   -9.0643 O   0  0  0  0  0  0  0  0  0  0  0  0
  2  1  1  0
  3  2  1  0
  3  4  1  1
  5  3  1  0
  5  6  1  6
  7  5  1  0
  8  7  2  0
  9 10  1  0
 10 11  1  0
 11 13  1  0
 11 12  1  1
 13 14  1  6
 14  7  1  0
 15 17  1  0
 15 13  1  0
 16 15  2  0
 18 23  1  0
 18 17  1  0
 18 19  1  1
 19 20  1  0
 20 21  1  0
 21 22  2  0
 23 24  1  0
 25 21  1  0
 26 23  2  0
M  END
$$$$
