IIE.pdb
     RDKit          3D

 26 25  0  0  1  0  0  0  0  0999 V2000
   19.1748  -11.4351  -22.9926 C   0  0  0  0  0  0  0  0  0  0  0  0
   20.0787  -11.9246  -21.9001 C   0  0  0  0  0  0  0  0  0  0  0  0
   19.9685  -11.1937  -20.6021 C   0  0  2  0  0  0  0  0  0  0  0  0
   20.3162   -9.7132  -20.7992 C   0  0  0  0  0  0  0  0  0  0  0  0
   20.7864  -11.7210  -19.4838 C   0  0  2  0  0  0  0  0  0  0  0  0
   20.5524  -13.1318  -19.2539 N   0  0  0  0  0  0  0  0  0  0  0  0
   20.6986  -10.9560  -18.2076 C   0  0  0  0  0  0  0  0  0  0  0  0
   19.7056  -11.2311  -17.4764 O   0  0  0  0  0  0  0  0  0  0  0  0
   24.3474  -11.1167  -14.6244 C   0  0  0  0  0  0  0  0  0  0  0  0
   22.9944  -10.9478  -15.3313 C   0  0  0  0  0  0  0  0  0  0  0  0
   22.7911   -9.5138  -15.7470 C   0  0  2  0  0  0  0  0  0  0  0  0
   22.9817   -8.6647  -14.5254 C   0  0  0  0  0  0  0  0  0  0  0  0
   21.6476   -9.2342  -16.6147 C   0  0  2  0  0  0  0  0  0  0  0  0
   21.6683   -9.9954  -17.8577 N   0  0  0  0  0  0  0  0  0  0  0  0
   21.2411   -7.8622  -16.9126 C   0  0  0  0  0  0  0  0  0  0  0  0
   21.9382   -7.2048  -17.7350 O   0  0  0  0  0  0  0  0  0  0  0  0
   20.1304   -7.1641  -16.3800 N   0  0  0  0  0  0  0  0  0  0  0  0
   19.9421   -5.7596  -16.7888 C   0  0  1  0  0  0  0  0  0  0  0  0
   18.7434   -5.7022  -17.7380 C   0  0  0  0  0  0  0  0  0  0  0  0
   18.3504   -4.2869  -18.0836 C   0  0  0  0  0  0  0  0  0  0  0  0
   17.0197   -4.3715  -18.7279 C   0  0  0  0  0  0  0  0  0  0  0  0
   16.4063   -3.3312  -19.0235 O   0  0  0  0  0  0  0  0  0  0  0  0
   19.7575   -4.9510  -15.5716 C   0  0  0  0  0  0  0  0  0  0  0  0
   19.9267   -3.5832  -15.4836 O   0  0  0  0  0  0  0  0  0  0  0  0
   16.4675   -5.6065  -18.9932 O   0  0  0  0  0  0  0  0  0  0  0  0
   19.4141   -5.5253  -14.4884 O   0  0  0  0  0  0  0  0  0  0  0  0
  2  1  1  0
  3  2  1  0
  3  4  1  6
  5  3  1  0
  5  6  1  1
  7  5  1  0
  8  7  2  0
  9 10  1  0
 10 11  1  0
 11 13  1  0
 11 12  1  1
 13 14  1  6
 14  7  1  0
 15 17  1  0
 15 13  1  0
 16 15  2  0
 18 23  1  0
 18 17  1  0
 18 19  1  6
 19 20  1  0
 20 21  1  0
 21 22  2  0
 23 24  1  0
 25 21  1  0
 26 23  2  0
M  END
$$$$
