SFQ.pdb
     RDKit          3D

 27 27  0  0  1  0  0  0  0  0999 V2000
    8.3517  -17.4006   20.1709 O   0  0  0  0  0  0  0  0  0  0  0  0
    7.1382  -16.7345   20.0245 C   0  0  0  0  0  0  0  0  0  0  0  0
    7.3025  -15.2566   20.3049 C   0  0  2  0  0  0  0  0  0  0  0  0
    8.1321  -14.6478   19.3089 N   0  0  0  0  0  0  0  0  0  0  0  0
    7.9530  -15.0825   21.6307 C   0  0  0  0  0  0  0  0  0  0  0  0
    9.1926  -14.7937   21.7262 O   0  0  0  0  0  0  0  0  0  0  0  0
    7.2431  -15.2251   22.8624 N   0  0  0  0  0  0  0  0  0  0  0  0
    7.8631  -14.9901   24.1458 C   0  0  1  0  0  0  0  0  0  0  0  0
    6.8232  -14.8194   25.2307 C   0  0  0  0  0  0  0  0  0  0  0  0
    6.8013  -13.4672   25.7963 C   0  0  0  0  0  0  0  0  0  0  0  0
    7.7832  -12.5580   25.4875 C   0  0  0  0  0  0  0  0  0  0  0  0
    7.7397  -11.2804   26.0377 C   0  0  0  0  0  0  0  0  0  0  0  0
    6.7260  -10.8965   26.8951 C   0  0  0  0  0  0  0  0  0  0  0  0
    5.7400  -11.8114   27.2045 C   0  0  0  0  0  0  0  0  0  0  0  0
    5.7870  -13.0845   26.6536 C   0  0  0  0  0  0  0  0  0  0  0  0
    8.6638  -16.1895   24.4941 C   0  0  0  0  0  0  0  0  0  0  0  0
    8.2525  -17.3085   24.1069 O   0  0  0  0  0  0  0  0  0  0  0  0
   14.5996  -16.3203   23.2274 N   0  0  0  0  0  0  0  0  0  0  0  0
   14.1444  -17.6464   23.4018 C   0  0  0  0  0  0  0  0  0  0  0  0
   14.7571  -18.5794   22.8321 O   0  0  0  0  0  0  0  0  0  0  0  0
   12.9544  -18.0107   24.2403 C   0  0  0  0  0  0  0  0  0  0  0  0
   11.9864  -16.8850   24.3374 C   0  0  0  0  0  0  0  0  0  0  0  0
   10.7892  -17.2612   25.1534 C   0  0  2  0  0  0  0  0  0  0  0  0
    9.8608  -16.1223   25.2380 N   0  0  0  0  0  0  0  0  0  0  0  0
   11.1356  -17.6248   26.5412 C   0  0  0  0  0  0  0  0  0  0  0  0
   11.3552  -18.8572   26.7962 O   0  0  0  0  0  0  0  0  0  0  0  0
   11.2368  -16.6907   27.5834 O   0  0  0  0  0  0  0  0  0  0  0  0
  2  1  1  0
  3  4  1  6
  3  2  1  0
  5  3  1  0
  6  5  2  0
  7  5  1  0
  8 16  1  0
  8  7  1  0
  8  9  1  1
 10  9  1  0
 11 10  2  0
 12 11  1  0
 13 12  2  0
 13 14  1  0
 14 15  2  0
 15 10  1  0
 16 17  2  0
 19 21  1  0
 19 18  1  0
 20 19  2  0
 22 21  1  0
 23 22  1  6
 24 23  1  0
 24 16  1  0
 25 27  1  0
 25 23  1  0
 26 25  2  0
M  END
$$$$
