SFQ.pdb
     RDKit          3D

 27 27  0  0  1  0  0  0  0  0999 V2000
    9.8201  -19.0353   21.6908 O   0  0  0  0  0  0  0  0  0  0  0  0
   10.1934  -18.2994   20.5697 C   0  0  0  0  0  0  0  0  0  0  0  0
    9.2958  -17.0930   20.3993 C   0  0  2  0  0  0  0  0  0  0  0  0
    9.6813  -16.3423   19.2422 N   0  0  0  0  0  0  0  0  0  0  0  0
    9.4258  -16.2173   21.5940 C   0  0  0  0  0  0  0  0  0  0  0  0
   10.5474  -15.6997   21.9155 O   0  0  0  0  0  0  0  0  0  0  0  0
    8.3211  -15.9046   22.4445 N   0  0  0  0  0  0  0  0  0  0  0  0
    8.4410  -15.0114   23.5735 C   0  0  1  0  0  0  0  0  0  0  0  0
    7.0988  -14.4244   23.9494 C   0  0  0  0  0  0  0  0  0  0  0  0
    7.1691  -13.5273   25.1066 C   0  0  0  0  0  0  0  0  0  0  0  0
    7.9504  -12.3983   25.0767 C   0  0  0  0  0  0  0  0  0  0  0  0
    8.0000  -11.5627   26.1886 C   0  0  0  0  0  0  0  0  0  0  0  0
    7.2778  -11.8396   27.3340 C   0  0  0  0  0  0  0  0  0  0  0  0
    6.4930  -12.9745   27.3623 C   0  0  0  0  0  0  0  0  0  0  0  0
    6.4463  -13.8053   26.2514 C   0  0  0  0  0  0  0  0  0  0  0  0
    8.9117  -15.8034   24.7362 C   0  0  0  0  0  0  0  0  0  0  0  0
    8.3704  -16.9127   24.9547 O   0  0  0  0  0  0  0  0  0  0  0  0
   14.3712  -15.5499   24.9399 N   0  0  0  0  0  0  0  0  0  0  0  0
   13.5114  -16.4596   24.2847 C   0  0  0  0  0  0  0  0  0  0  0  0
   13.7651  -16.7932   23.1036 O   0  0  0  0  0  0  0  0  0  0  0  0
   12.2948  -17.0595   24.9268 C   0  0  0  0  0  0  0  0  0  0  0  0
   12.0139  -16.4439   26.2517 C   0  0  0  0  0  0  0  0  0  0  0  0
   10.5425  -16.3476   26.5097 C   0  0  2  0  0  0  0  0  0  0  0  0
    9.9364  -15.3621   25.5999 N   0  0  0  0  0  0  0  0  0  0  0  0
   10.2314  -15.9001   27.8812 C   0  0  0  0  0  0  0  0  0  0  0  0
   10.1444  -14.6429   28.0914 O   0  0  0  0  0  0  0  0  0  0  0  0
   10.0261  -16.7805   28.9545 O   0  0  0  0  0  0  0  0  0  0  0  0
  2  1  1  0
  3  4  1  6
  3  2  1  0
  5  3  1  0
  6  5  2  0
  7  5  1  0
  8 16  1  0
  8  7  1  0
  8  9  1  1
 10  9  1  0
 11 10  2  0
 12 11  1  0
 13 12  2  0
 13 14  1  0
 14 15  2  0
 15 10  1  0
 16 17  2  0
 19 21  1  0
 19 18  1  0
 20 19  2  0
 22 21  1  0
 23 22  1  1
 24 23  1  0
 24 16  1  0
 25 27  1  0
 25 23  1  0
 26 25  2  0
M  END
$$$$
