SFQ.pdb
     RDKit          3D

 27 27  0  0  1  0  0  0  0  0999 V2000
    7.5111  -18.9571   20.2129 O   0  0  0  0  0  0  0  0  0  0  0  0
    8.4819  -17.9742   20.0417 C   0  0  0  0  0  0  0  0  0  0  0  0
    7.8697  -16.5943   20.1469 C   0  0  2  0  0  0  0  0  0  0  0  0
    8.1736  -15.8220   18.9798 N   0  0  0  0  0  0  0  0  0  0  0  0
    8.4372  -15.8995   21.3328 C   0  0  0  0  0  0  0  0  0  0  0  0
    9.5904  -15.3541   21.2904 O   0  0  0  0  0  0  0  0  0  0  0  0
    7.7389  -15.8000   22.5753 N   0  0  0  0  0  0  0  0  0  0  0  0
    8.2837  -15.1017   23.7165 C   0  0  1  0  0  0  0  0  0  0  0  0
    7.1983  -14.7483   24.7087 C   0  0  0  0  0  0  0  0  0  0  0  0
    7.7094  -14.0548   25.8948 C   0  0  0  0  0  0  0  0  0  0  0  0
    7.7615  -12.6832   25.9416 C   0  0  0  0  0  0  0  0  0  0  0  0
    8.2510  -12.0488   27.0795 C   0  0  0  0  0  0  0  0  0  0  0  0
    8.6909  -12.7672   28.1752 C   0  0  0  0  0  0  0  0  0  0  0  0
    8.6378  -14.1455   28.1266 C   0  0  0  0  0  0  0  0  0  0  0  0
    8.1489  -14.7744   26.9899 C   0  0  0  0  0  0  0  0  0  0  0  0
    9.2247  -16.0173   24.4073 C   0  0  0  0  0  0  0  0  0  0  0  0
    8.9377  -17.2367   24.4529 O   0  0  0  0  0  0  0  0  0  0  0  0
   16.3807  -17.1824   24.1579 N   0  0  0  0  0  0  0  0  0  0  0  0
   15.1819  -16.4376   24.2235 C   0  0  0  0  0  0  0  0  0  0  0  0
   15.1715  -15.2626   23.7880 O   0  0  0  0  0  0  0  0  0  0  0  0
   13.9016  -16.9762   24.7916 C   0  0  0  0  0  0  0  0  0  0  0  0
   12.7686  -16.0357   24.5790 C   0  0  0  0  0  0  0  0  0  0  0  0
   11.5047  -16.5539   25.1912 C   0  0  2  0  0  0  0  0  0  0  0  0
   10.4208  -15.5747   25.0108 N   0  0  0  0  0  0  0  0  0  0  0  0
   11.6262  -16.7830   26.6440 C   0  0  0  0  0  0  0  0  0  0  0  0
   11.1520  -15.8930   27.4284 O   0  0  0  0  0  0  0  0  0  0  0  0
   12.2294  -17.9215   27.2000 O   0  0  0  0  0  0  0  0  0  0  0  0
  2  1  1  0
  3  4  1  6
  3  2  1  0
  5  3  1  0
  6  5  2  0
  7  5  1  0
  8 16  1  0
  8  7  1  0
  8  9  1  1
 10  9  1  0
 11 10  2  0
 12 11  1  0
 13 12  2  0
 13 14  1  0
 14 15  2  0
 15 10  1  0
 16 17  2  0
 19 21  1  0
 19 18  1  0
 20 19  2  0
 22 21  1  0
 23 22  1  1
 24 23  1  0
 24 16  1  0
 25 27  1  0
 25 23  1  0
 26 25  2  0
M  END
$$$$
