SFQ.pdb
     RDKit          3D

 27 27  0  0  1  0  0  0  0  0999 V2000
    9.3876  -19.1306   21.0800 O   0  0  0  0  0  0  0  0  0  0  0  0
    8.4954  -18.2664   20.4516 C   0  0  0  0  0  0  0  0  0  0  0  0
    9.1148  -16.8976   20.2709 C   0  0  2  0  0  0  0  0  0  0  0  0
   10.4296  -17.0129   19.7150 N   0  0  0  0  0  0  0  0  0  0  0  0
    9.2204  -16.2327   21.5969 C   0  0  0  0  0  0  0  0  0  0  0  0
   10.2898  -16.3060   22.2899 O   0  0  0  0  0  0  0  0  0  0  0  0
    8.1487  -15.4816   22.1702 N   0  0  0  0  0  0  0  0  0  0  0  0
    8.2605  -14.8278   23.4534 C   0  0  1  0  0  0  0  0  0  0  0  0
    7.0896  -13.9022   23.6977 C   0  0  0  0  0  0  0  0  0  0  0  0
    7.1788  -13.1897   24.9757 C   0  0  0  0  0  0  0  0  0  0  0  0
    8.2159  -12.3262   25.2304 C   0  0  0  0  0  0  0  0  0  0  0  0
    8.2777  -11.6618   26.4518 C   0  0  0  0  0  0  0  0  0  0  0  0
    7.3151  -11.8483   27.4259 C   0  0  0  0  0  0  0  0  0  0  0  0
    6.2736  -12.7164   27.1684 C   0  0  0  0  0  0  0  0  0  0  0  0
    6.2156  -13.3770   25.9490 C   0  0  0  0  0  0  0  0  0  0  0  0
    8.2169  -15.8731   24.5053 C   0  0  0  0  0  0  0  0  0  0  0  0
    7.2451  -16.6647   24.5130 O   0  0  0  0  0  0  0  0  0  0  0  0
   11.9169  -19.3710   23.2951 N   0  0  0  0  0  0  0  0  0  0  0  0
   11.5318  -19.4771   24.6503 C   0  0  0  0  0  0  0  0  0  0  0  0
   11.5755  -20.5980   25.2089 O   0  0  0  0  0  0  0  0  0  0  0  0
   11.0668  -18.3116   25.4734 C   0  0  0  0  0  0  0  0  0  0  0  0
    9.6109  -18.3944   25.7684 C   0  0  0  0  0  0  0  0  0  0  0  0
    9.1132  -17.1442   26.4241 C   0  0  2  0  0  0  0  0  0  0  0  0
    9.2176  -16.0113   25.4903 N   0  0  0  0  0  0  0  0  0  0  0  0
    9.8959  -16.7763   27.6200 C   0  0  0  0  0  0  0  0  0  0  0  0
   10.5286  -15.6666   27.5987 O   0  0  0  0  0  0  0  0  0  0  0  0
    9.9758  -17.5777   28.7691 O   0  0  0  0  0  0  0  0  0  0  0  0
  2  1  1  0
  3  4  1  1
  3  2  1  0
  5  3  1  0
  6  5  2  0
  7  5  1  0
  8 16  1  0
  8  7  1  0
  8  9  1  1
 10  9  1  0
 11 10  2  0
 12 11  1  0
 13 12  2  0
 13 14  1  0
 14 15  2  0
 15 10  1  0
 16 17  2  0
 19 21  1  0
 19 18  1  0
 20 19  2  0
 22 21  1  0
 23 22  1  6
 24 23  1  0
 24 16  1  0
 25 27  1  0
 25 23  1  0
 26 25  2  0
M  END
$$$$
