SFQ.pdb
     RDKit          3D

 27 27  0  0  1  0  0  0  0  0999 V2000
    9.9002  -18.4947   20.0909 O   0  0  0  0  0  0  0  0  0  0  0  0
    8.5941  -18.0643   19.8752 C   0  0  0  0  0  0  0  0  0  0  0  0
    8.5613  -16.5786   19.5897 C   0  0  2  0  0  0  0  0  0  0  0  0
    9.5819  -16.2275   18.6484 N   0  0  0  0  0  0  0  0  0  0  0  0
    8.8094  -15.8349   20.8532 C   0  0  0  0  0  0  0  0  0  0  0  0
    9.9854  -15.4625   21.1812 O   0  0  0  0  0  0  0  0  0  0  0  0
    7.7639  -15.4953   21.7659 N   0  0  0  0  0  0  0  0  0  0  0  0
    8.0061  -14.7480   22.9782 C   0  0  1  0  0  0  0  0  0  0  0  0
    6.7139  -14.2209   23.5612 C   0  0  0  0  0  0  0  0  0  0  0  0
    6.8964  -13.5625   24.8581 C   0  0  0  0  0  0  0  0  0  0  0  0
    6.4472  -14.1490   26.0158 C   0  0  0  0  0  0  0  0  0  0  0  0
    6.6329  -13.5033   27.2347 C   0  0  0  0  0  0  0  0  0  0  0  0
    7.2630  -12.2757   27.3140 C   0  0  0  0  0  0  0  0  0  0  0  0
    7.7138  -11.6877   26.1496 C   0  0  0  0  0  0  0  0  0  0  0  0
    7.5267  -12.3349   24.9361 C   0  0  0  0  0  0  0  0  0  0  0  0
    8.5898  -15.6748   23.9788 C   0  0  0  0  0  0  0  0  0  0  0  0
    8.1568  -16.8503   24.0199 O   0  0  0  0  0  0  0  0  0  0  0  0
   15.0298  -18.1283   24.2245 N   0  0  0  0  0  0  0  0  0  0  0  0
   14.1689  -17.0447   24.5091 C   0  0  0  0  0  0  0  0  0  0  0  0
   14.5294  -15.8846   24.2014 O   0  0  0  0  0  0  0  0  0  0  0  0
   12.8294  -17.2012   25.1673 C   0  0  0  0  0  0  0  0  0  0  0  0
   11.8635  -16.1720   24.6969 C   0  0  0  0  0  0  0  0  0  0  0  0
   10.5305  -16.3287   25.3597 C   0  0  2  0  0  0  0  0  0  0  0  0
    9.6053  -15.2896   24.8794 N   0  0  0  0  0  0  0  0  0  0  0  0
   10.6015  -16.1824   26.8265 C   0  0  0  0  0  0  0  0  0  0  0  0
   10.0625  -15.1482   27.3480 O   0  0  0  0  0  0  0  0  0  0  0  0
   11.2244  -17.1167   27.6680 O   0  0  0  0  0  0  0  0  0  0  0  0
  2  1  1  0
  3  4  1  6
  3  2  1  0
  5  3  1  0
  6  5  2  0
  7  5  1  0
  8 16  1  0
  8  7  1  0
  8  9  1  1
 10  9  1  0
 11 10  2  0
 12 11  1  0
 13 12  2  0
 13 14  1  0
 14 15  2  0
 15 10  1  0
 16 17  2  0
 19 21  1  0
 19 18  1  0
 20 19  2  0
 22 21  1  0
 23 22  1  6
 24 23  1  0
 24 16  1  0
 25 27  1  0
 25 23  1  0
 26 25  2  0
M  END
$$$$
