SFQ.pdb
     RDKit          3D

 27 27  0  0  1  0  0  0  0  0999 V2000
    9.9152  -18.5835   20.9028 O   0  0  0  0  0  0  0  0  0  0  0  0
    8.7439  -18.0992   20.3274 C   0  0  0  0  0  0  0  0  0  0  0  0
    8.8734  -16.6248   20.0119 C   0  0  2  0  0  0  0  0  0  0  0  0
   10.0185  -16.3890   19.1848 N   0  0  0  0  0  0  0  0  0  0  0  0
    9.0450  -15.8691   21.2810 C   0  0  0  0  0  0  0  0  0  0  0  0
   10.2051  -15.5635   21.7168 O   0  0  0  0  0  0  0  0  0  0  0  0
    7.9398  -15.4438   22.0804 N   0  0  0  0  0  0  0  0  0  0  0  0
    8.1099  -14.6730   23.2902 C   0  0  1  0  0  0  0  0  0  0  0  0
    6.7847  -14.1413   23.7889 C   0  0  0  0  0  0  0  0  0  0  0  0
    6.9057  -13.3752   25.0328 C   0  0  0  0  0  0  0  0  0  0  0  0
    7.5353  -12.1548   25.0506 C   0  0  0  0  0  0  0  0  0  0  0  0
    7.6371  -11.4472   26.2448 C   0  0  0  0  0  0  0  0  0  0  0  0
    7.1172  -11.9429   27.4255 C   0  0  0  0  0  0  0  0  0  0  0  0
    6.4849  -13.1695   27.4059 C   0  0  0  0  0  0  0  0  0  0  0  0
    6.3854  -13.8720   26.2130 C   0  0  0  0  0  0  0  0  0  0  0  0
    8.6391  -15.5784   24.3396 C   0  0  0  0  0  0  0  0  0  0  0  0
    8.2106  -16.7558   24.3765 O   0  0  0  0  0  0  0  0  0  0  0  0
   14.5837  -15.8764   24.6040 N   0  0  0  0  0  0  0  0  0  0  0  0
   14.2052  -16.8080   25.5965 C   0  0  0  0  0  0  0  0  0  0  0  0
   15.0821  -17.5457   26.1039 O   0  0  0  0  0  0  0  0  0  0  0  0
   12.7963  -16.9700   26.0870 C   0  0  0  0  0  0  0  0  0  0  0  0
   11.8588  -16.0623   25.3723 C   0  0  0  0  0  0  0  0  0  0  0  0
   10.4602  -16.2050   25.8862 C   0  0  2  0  0  0  0  0  0  0  0  0
    9.5982  -15.1711   25.2909 N   0  0  0  0  0  0  0  0  0  0  0  0
   10.3695  -16.0358   27.3495 C   0  0  0  0  0  0  0  0  0  0  0  0
   10.0558  -14.8809   27.7966 O   0  0  0  0  0  0  0  0  0  0  0  0
   10.6066  -17.0730   28.2644 O   0  0  0  0  0  0  0  0  0  0  0  0
  2  1  1  0
  3  4  1  6
  3  2  1  0
  5  3  1  0
  6  5  2  0
  7  5  1  0
  8 16  1  0
  8  7  1  0
  8  9  1  1
 10  9  1  0
 11 10  2  0
 12 11  1  0
 13 12  2  0
 13 14  1  0
 14 15  2  0
 15 10  1  0
 16 17  2  0
 19 21  1  0
 19 18  1  0
 20 19  2  0
 22 21  1  0
 23 22  1  6
 24 23  1  0
 24 16  1  0
 25 27  1  0
 25 23  1  0
 26 25  2  0
M  END
$$$$
