SFQ.pdb
     RDKit          3D

 27 27  0  0  1  0  0  0  0  0999 V2000
    9.7511  -19.3915   20.9454 O   0  0  0  0  0  0  0  0  0  0  0  0
    8.5418  -18.7019   20.9492 C   0  0  0  0  0  0  0  0  0  0  0  0
    8.7760  -17.2116   20.8302 C   0  0  2  0  0  0  0  0  0  0  0  0
    9.6643  -16.9302   19.7427 N   0  0  0  0  0  0  0  0  0  0  0  0
    9.3972  -16.7151   22.0867 C   0  0  0  0  0  0  0  0  0  0  0  0
   10.6547  -16.5113   22.1670 O   0  0  0  0  0  0  0  0  0  0  0  0
    8.6380  -16.4389   23.2652 N   0  0  0  0  0  0  0  0  0  0  0  0
    9.2424  -15.9306   24.4748 C   0  0  1  0  0  0  0  0  0  0  0  0
    8.1963  -15.3756   25.4155 C   0  0  0  0  0  0  0  0  0  0  0  0
    8.7732  -14.7388   26.6032 C   0  0  0  0  0  0  0  0  0  0  0  0
    9.1004  -13.4049   26.5990 C   0  0  0  0  0  0  0  0  0  0  0  0
    9.6469  -12.8240   27.7396 C   0  0  0  0  0  0  0  0  0  0  0  0
    9.8720  -13.5588   28.8883 C   0  0  0  0  0  0  0  0  0  0  0  0
    9.5426  -14.8991   28.8908 C   0  0  0  0  0  0  0  0  0  0  0  0
    8.9978  -15.4747   27.7513 C   0  0  0  0  0  0  0  0  0  0  0  0
    9.8972  -17.0651   25.1713 C   0  0  0  0  0  0  0  0  0  0  0  0
    9.2828  -18.1559   25.2326 O   0  0  0  0  0  0  0  0  0  0  0  0
   15.4095  -19.9988   25.4968 N   0  0  0  0  0  0  0  0  0  0  0  0
   14.6409  -19.5283   24.4087 C   0  0  0  0  0  0  0  0  0  0  0  0
   14.9655  -19.8628   23.2453 O   0  0  0  0  0  0  0  0  0  0  0  0
   13.4417  -18.6394   24.5638 C   0  0  0  0  0  0  0  0  0  0  0  0
   13.2278  -18.2497   25.9836 C   0  0  0  0  0  0  0  0  0  0  0  0
   11.7707  -18.1912   26.3215 C   0  0  2  0  0  0  0  0  0  0  0  0
   11.1742  -16.9669   25.7632 N   0  0  0  0  0  0  0  0  0  0  0  0
   11.5230  -18.1535   27.7759 C   0  0  0  0  0  0  0  0  0  0  0  0
   11.5751  -19.2573   28.4171 O   0  0  0  0  0  0  0  0  0  0  0  0
   11.2385  -16.9747   28.4820 O   0  0  0  0  0  0  0  0  0  0  0  0
  2  1  1  0
  3  4  1  6
  3  2  1  0
  5  3  1  0
  6  5  2  0
  7  5  1  0
  8 16  1  0
  8  7  1  0
  8  9  1  1
 10  9  1  0
 11 10  2  0
 12 11  1  0
 13 12  2  0
 13 14  1  0
 14 15  2  0
 15 10  1  0
 16 17  2  0
 19 21  1  0
 19 18  1  0
 20 19  2  0
 22 21  1  0
 23 22  1  1
 24 23  1  0
 24 16  1  0
 25 27  1  0
 25 23  1  0
 26 25  2  0
M  END
$$$$
