SFQ.pdb
     RDKit          3D

 27 27  0  0  1  0  0  0  0  0999 V2000
    9.2472  -18.3611   20.5245 O   0  0  0  0  0  0  0  0  0  0  0  0
    8.3141  -17.5497   19.8852 C   0  0  0  0  0  0  0  0  0  0  0  0
    8.8468  -16.1416   19.7315 C   0  0  2  0  0  0  0  0  0  0  0  0
   10.1239  -16.1579   19.0836 N   0  0  0  0  0  0  0  0  0  0  0  0
    9.0095  -15.5333   21.0786 C   0  0  0  0  0  0  0  0  0  0  0  0
   10.1492  -15.4904   21.6514 O   0  0  0  0  0  0  0  0  0  0  0  0
    7.9176  -14.9672   21.8057 N   0  0  0  0  0  0  0  0  0  0  0  0
    8.0833  -14.3651   23.1083 C   0  0  1  0  0  0  0  0  0  0  0  0
    6.8328  -13.6269   23.5310 C   0  0  0  0  0  0  0  0  0  0  0  0
    6.9197  -13.0828   24.8894 C   0  0  0  0  0  0  0  0  0  0  0  0
    7.8598  -12.1343   25.2101 C   0  0  0  0  0  0  0  0  0  0  0  0
    7.9216  -11.6336   26.5072 C   0  0  0  0  0  0  0  0  0  0  0  0
    7.0549  -12.0682   27.4921 C   0  0  0  0  0  0  0  0  0  0  0  0
    6.1108  -13.0214   27.1682 C   0  0  0  0  0  0  0  0  0  0  0  0
    6.0524  -13.5182   25.8735 C   0  0  0  0  0  0  0  0  0  0  0  0
    8.3002  -15.4543   24.0921 C   0  0  0  0  0  0  0  0  0  0  0  0
    7.4714  -16.3939   24.1269 O   0  0  0  0  0  0  0  0  0  0  0  0
   13.0651  -18.5671   23.8276 N   0  0  0  0  0  0  0  0  0  0  0  0
   13.1693  -17.2888   24.4203 C   0  0  0  0  0  0  0  0  0  0  0  0
   14.2538  -16.6664   24.3366 O   0  0  0  0  0  0  0  0  0  0  0  0
   12.0436  -16.6214   25.1547 C   0  0  0  0  0  0  0  0  0  0  0  0
   10.8069  -17.4481   25.1312 C   0  0  0  0  0  0  0  0  0  0  0  0
    9.6478  -16.7164   25.7328 C   0  0  2  0  0  0  0  0  0  0  0  0
    9.3936  -15.4753   24.9836 N   0  0  0  0  0  0  0  0  0  0  0  0
    9.8881  -16.3195   27.1338 C   0  0  0  0  0  0  0  0  0  0  0  0
   10.0461  -17.2485   27.9965 O   0  0  0  0  0  0  0  0  0  0  0  0
    9.9534  -14.9839   27.5593 O   0  0  0  0  0  0  0  0  0  0  0  0
  2  1  1  0
  3  4  1  1
  3  2  1  0
  5  3  1  0
  6  5  2  0
  7  5  1  0
  8 16  1  0
  8  7  1  0
  8  9  1  1
 10  9  1  0
 11 10  2  0
 12 11  1  0
 13 12  2  0
 13 14  1  0
 14 15  2  0
 15 10  1  0
 16 17  2  0
 19 21  1  0
 19 18  1  0
 20 19  2  0
 22 21  1  0
 23 22  1  6
 24 23  1  0
 24 16  1  0
 25 27  1  0
 25 23  1  0
 26 25  2  0
M  END
$$$$
