SFQ.pdb
     RDKit          3D

 27 27  0  0  1  0  0  0  0  0999 V2000
   10.6306  -18.6448   20.9224 O   0  0  0  0  0  0  0  0  0  0  0  0
    9.3389  -18.2708   20.5629 C   0  0  0  0  0  0  0  0  0  0  0  0
    9.2837  -16.7966   20.2257 C   0  0  2  0  0  0  0  0  0  0  0  0
   10.3878  -16.4333   19.3890 N   0  0  0  0  0  0  0  0  0  0  0  0
    9.3652  -16.0067   21.4829 C   0  0  0  0  0  0  0  0  0  0  0  0
   10.4835  -15.5752   21.9214 O   0  0  0  0  0  0  0  0  0  0  0  0
    8.2151  -15.6856   22.2675 N   0  0  0  0  0  0  0  0  0  0  0  0
    8.2963  -14.8958   23.4743 C   0  0  1  0  0  0  0  0  0  0  0  0
    6.9222  -14.4679   23.9395 C   0  0  0  0  0  0  0  0  0  0  0  0
    6.9594  -13.6254   25.1385 C   0  0  0  0  0  0  0  0  0  0  0  0
    7.6015  -12.4114   25.1273 C   0  0  0  0  0  0  0  0  0  0  0  0
    7.6225  -11.6302   26.2789 C   0  0  0  0  0  0  0  0  0  0  0  0
    7.0091  -12.0456   27.4457 C   0  0  0  0  0  0  0  0  0  0  0  0
    6.3643  -13.2658   27.4553 C   0  0  0  0  0  0  0  0  0  0  0  0
    6.3457  -14.0419   26.3047 C   0  0  0  0  0  0  0  0  0  0  0  0
    8.8720  -15.7494   24.5424 C   0  0  0  0  0  0  0  0  0  0  0  0
    8.3344  -16.8592   24.7673 O   0  0  0  0  0  0  0  0  0  0  0  0
   14.8687  -16.0163   25.9492 N   0  0  0  0  0  0  0  0  0  0  0  0
   14.0637  -16.0451   24.7885 C   0  0  0  0  0  0  0  0  0  0  0  0
   14.6110  -15.9391   23.6662 O   0  0  0  0  0  0  0  0  0  0  0  0
   12.5710  -16.1971   24.8187 C   0  0  0  0  0  0  0  0  0  0  0  0
   12.0562  -16.2805   26.2120 C   0  0  0  0  0  0  0  0  0  0  0  0
   10.5613  -16.3544   26.2398 C   0  0  2  0  0  0  0  0  0  0  0  0
    9.9921  -15.3657   25.3098 N   0  0  0  0  0  0  0  0  0  0  0  0
    9.9993  -16.0516   27.5704 C   0  0  0  0  0  0  0  0  0  0  0  0
    9.3451  -16.9745   28.1639 O   0  0  0  0  0  0  0  0  0  0  0  0
   10.1498  -14.8116   28.2099 O   0  0  0  0  0  0  0  0  0  0  0  0
  2  1  1  0
  3  4  1  6
  3  2  1  0
  5  3  1  0
  6  5  2  0
  7  5  1  0
  8 16  1  0
  8  7  1  0
  8  9  1  1
 10  9  1  0
 11 10  2  0
 12 11  1  0
 13 12  2  0
 13 14  1  0
 14 15  2  0
 15 10  1  0
 16 17  2  0
 19 21  1  0
 19 18  1  0
 20 19  2  0
 22 21  1  0
 23 22  1  1
 24 23  1  0
 24 16  1  0
 25 27  1  0
 25 23  1  0
 26 25  2  0
M  END
$$$$
