SFQ.pdb
     RDKit          3D

 27 27  0  0  1  0  0  0  0  0999 V2000
    9.4883  -18.7971   20.8802 O   0  0  0  0  0  0  0  0  0  0  0  0
    8.6616  -18.0045   20.0888 C   0  0  0  0  0  0  0  0  0  0  0  0
    9.2331  -16.6104   19.9480 C   0  0  2  0  0  0  0  0  0  0  0  0
   10.5466  -16.6633   19.3800 N   0  0  0  0  0  0  0  0  0  0  0  0
    9.3265  -15.9849   21.2938 C   0  0  0  0  0  0  0  0  0  0  0  0
   10.4250  -15.9751   21.9436 O   0  0  0  0  0  0  0  0  0  0  0  0
    8.2102  -15.3648   21.9349 N   0  0  0  0  0  0  0  0  0  0  0  0
    8.3154  -14.7241   23.2253 C   0  0  1  0  0  0  0  0  0  0  0  0
    7.0313  -14.0111   23.5864 C   0  0  0  0  0  0  0  0  0  0  0  0
    7.0812  -13.3731   24.9052 C   0  0  0  0  0  0  0  0  0  0  0  0
    7.9945  -12.3837   25.1755 C   0  0  0  0  0  0  0  0  0  0  0  0
    8.0215  -11.7937   26.4357 C   0  0  0  0  0  0  0  0  0  0  0  0
    7.1460  -12.1791   27.4334 C   0  0  0  0  0  0  0  0  0  0  0  0
    6.2288  -13.1735   27.1601 C   0  0  0  0  0  0  0  0  0  0  0  0
    6.2053  -13.7594   25.9020 C   0  0  0  0  0  0  0  0  0  0  0  0
    8.5294  -15.7802   24.2449 C   0  0  0  0  0  0  0  0  0  0  0  0
    7.7853  -16.7886   24.2177 O   0  0  0  0  0  0  0  0  0  0  0  0
   12.8350  -19.4936   24.5177 N   0  0  0  0  0  0  0  0  0  0  0  0
   12.1443  -19.8176   25.7069 C   0  0  0  0  0  0  0  0  0  0  0  0
   12.4314  -20.8798   26.3066 O   0  0  0  0  0  0  0  0  0  0  0  0
   11.0720  -18.9541   26.3041 C   0  0  0  0  0  0  0  0  0  0  0  0
   10.8128  -17.7477   25.4729 C   0  0  0  0  0  0  0  0  0  0  0  0
    9.7594  -16.8776   26.0844 C   0  0  2  0  0  0  0  0  0  0  0  0
    9.5291  -15.6964   25.2370 N   0  0  0  0  0  0  0  0  0  0  0  0
   10.1405  -16.3706   27.4170 C   0  0  0  0  0  0  0  0  0  0  0  0
   10.4547  -15.1363   27.5164 O   0  0  0  0  0  0  0  0  0  0  0  0
   10.1716  -17.1707   28.5694 O   0  0  0  0  0  0  0  0  0  0  0  0
  2  1  1  0
  3  4  1  1
  3  2  1  0
  5  3  1  0
  6  5  2  0
  7  5  1  0
  8 16  1  0
  8  7  1  0
  8  9  1  1
 10  9  1  0
 11 10  2  0
 12 11  1  0
 13 12  2  0
 13 14  1  0
 14 15  2  0
 15 10  1  0
 16 17  2  0
 19 21  1  0
 19 18  1  0
 20 19  2  0
 22 21  1  0
 23 22  1  6
 24 23  1  0
 24 16  1  0
 25 27  1  0
 25 23  1  0
 26 25  2  0
M  END
$$$$
