RHC.pdb
     RDKit          3D

 28 28  0  0  1  0  0  0  0  0999 V2000
   22.8968  -19.1171  -21.4514 N   0  0  0  0  0  0  0  0  0  0  0  0
   23.6771  -18.3405  -20.5605 C   0  0  0  0  0  0  0  0  0  0  0  0
   23.8025  -17.0603  -20.7921 N   0  0  0  0  0  0  0  0  0  0  0  0
   24.3302  -18.8574  -19.4340 N   0  0  0  0  0  0  0  0  0  0  0  0
   24.4083  -20.2732  -19.1526 C   0  0  0  0  0  0  0  0  0  0  0  0
   23.1386  -20.9917  -19.5825 C   0  0  0  0  0  0  0  0  0  0  0  0
   22.6827  -22.0729  -18.6961 C   0  0  0  0  0  0  0  0  0  0  0  0
   23.7290  -22.8958  -18.0129 C   0  0  2  0  0  0  0  0  0  0  0  0
   23.8736  -24.2330  -18.4747 N   0  0  0  0  0  0  0  0  0  0  0  0
   23.5753  -22.8741  -16.5358 C   0  0  0  0  0  0  0  0  0  0  0  0
   23.1962  -23.9522  -15.9607 O   0  0  0  0  0  0  0  0  0  0  0  0
   24.3821  -16.4588  -20.1966 N   0  0  0  0  0  0  0  0  0  0  0  0
   23.8247  -21.7182  -15.7557 C   0  0  2  0  0  0  0  0  0  0  0  0
   23.6123  -21.8773  -14.3017 C   0  0  0  0  0  0  0  0  0  0  0  0
   24.6471  -21.0537  -13.6366 C   0  0  0  0  0  0  0  0  0  0  0  0
   24.5655  -20.9260  -12.1792 C   0  0  0  0  0  0  0  0  0  0  0  0
   23.7318  -21.4522  -11.2550 N   0  0  0  0  0  0  0  0  0  0  0  0
   24.1420  -21.0424  -10.0461 C   0  0  0  0  0  0  0  0  0  0  0  0
   25.2199  -20.2724  -10.2170 N   0  0  0  0  0  0  0  0  0  0  0  0
   25.4986  -20.1867  -11.4991 C   0  0  0  0  0  0  0  0  0  0  0  0
   22.2492  -21.2693  -14.0347 O   0  0  0  0  0  0  0  0  0  0  0  0
   21.9037  -20.2981  -14.7100 N   0  0  0  0  0  0  0  0  0  0  0  0
   21.4024  -21.7961  -13.0401 C   0  0  1  0  0  0  0  0  0  0  0  0
   20.0978  -21.4328  -12.6308 C   0  0  0  0  0  0  0  0  0  0  0  0
   19.3592  -22.2530  -11.5958 S   0  0  0  0  0  0  0  0  0  0  0  0
   19.2972  -24.0013  -12.1118 C   0  0  0  0  0  0  0  0  0  0  0  0
   20.0650  -19.9856  -12.2393 O   0  0  0  0  0  0  0  0  0  0  0  0
   21.1199  -19.3743  -12.2308 O   0  0  0  0  0  0  0  0  0  0  0  0
  2  1  1  0
  2  3  2  0
  4  5  1  0
  4  2  1  0
  6  5  1  0
  7  6  1  0
  8  9  1  6
  8  7  1  0
 10 11  2  0
 10  8  1  0
 12 10  1  0
 13 20  1  0
 13 12  1  0
 13 14  1  6
 15 14  1  0
 16 15  2  0
 17 16  1  0
 18 17  1  0
 18 19  2  0
 19 15  1  0
 20 22  1  0
 21 20  2  0
 22 23  1  0
 23 26  1  0
 23 24  1  1
 25 24  1  0
 26 27  2  0
 26 28  1  0
M  END
$$$$
