RHC.pdb
     RDKit          3D

 28 28  0  0  1  0  0  0  0  0999 V2000
   31.7902  -16.8081  -19.7448 N   0  0  0  0  0  0  0  0  0  0  0  0
   31.1517  -18.0090  -19.3497 C   0  0  0  0  0  0  0  0  0  0  0  0
   31.7832  -18.8150  -18.5374 N   0  0  0  0  0  0  0  0  0  0  0  0
   29.8737  -18.3950  -19.7743 N   0  0  0  0  0  0  0  0  0  0  0  0
   29.0214  -17.5437  -20.5735 C   0  0  0  0  0  0  0  0  0  0  0  0
   28.5465  -16.3370  -19.7790 C   0  0  0  0  0  0  0  0  0  0  0  0
   27.1134  -16.0242  -19.8842 C   0  0  0  0  0  0  0  0  0  0  0  0
   26.2053  -17.0996  -20.3918 C   0  0  2  0  0  0  0  0  0  0  0  0
   26.3651  -17.4602  -21.7580 N   0  0  0  0  0  0  0  0  0  0  0  0
   24.7792  -16.8056  -20.0993 C   0  0  0  0  0  0  0  0  0  0  0  0
   24.1165  -16.1442  -20.9712 O   0  0  0  0  0  0  0  0  0  0  0  0
   31.3832  -19.7156  -18.2524 N   0  0  0  0  0  0  0  0  0  0  0  0
   24.1397  -17.2209  -18.9054 C   0  0  2  0  0  0  0  0  0  0  0  0
   22.6937  -16.9255  -18.8254 C   0  0  0  0  0  0  0  0  0  0  0  0
   22.1660  -17.7277  -17.6987 C   0  0  0  0  0  0  0  0  0  0  0  0
   20.7456  -17.5720  -17.3744 C   0  0  0  0  0  0  0  0  0  0  0  0
   20.0952  -16.9549  -16.3633 N   0  0  0  0  0  0  0  0  0  0  0  0
   18.7781  -17.0768  -16.5825 C   0  0  0  0  0  0  0  0  0  0  0  0
   18.6120  -17.7597  -17.7183 N   0  0  0  0  0  0  0  0  0  0  0  0
   19.7874  -18.0704  -18.2190 C   0  0  0  0  0  0  0  0  0  0  0  0
   22.6123  -15.4546  -18.4663 O   0  0  0  0  0  0  0  0  0  0  0  0
   23.5546  -14.9539  -17.8500 N   0  0  0  0  0  0  0  0  0  0  0  0
   21.4896  -14.6823  -18.8226 C   0  0  2  0  0  0  0  0  0  0  0  0
   21.1740  -13.3233  -18.5881 C   0  0  0  0  0  0  0  0  0  0  0  0
   21.1776  -12.7636  -17.1822 S   0  0  0  0  0  0  0  0  0  0  0  0
   20.4126  -11.1081  -17.1666 C   0  0  0  0  0  0  0  0  0  0  0  0
   21.9965  -12.4420  -19.4799 O   0  0  0  0  0  0  0  0  0  0  0  0
   23.2096  -12.5516  -19.4260 O   0  0  0  0  0  0  0  0  0  0  0  0
  2  1  1  0
  2  3  2  0
  4  5  1  0
  4  2  1  0
  6  5  1  0
  7  6  1  0
  8  9  1  6
  8  7  1  0
 10 11  2  0
 10  8  1  0
 12 10  1  0
 13 20  1  0
 13 12  1  0
 13 14  1  6
 15 14  1  0
 16 15  2  0
 17 16  1  0
 18 17  1  0
 18 19  2  0
 19 15  1  0
 20 22  1  0
 21 20  2  0
 22 23  1  0
 23 26  1  0
 23 24  1  1
 25 24  1  0
 26 27  2  0
 26 28  1  0
M  END
$$$$
