RHC.pdb
     RDKit          3D

 28 28  0  0  1  0  0  0  0  0999 V2000
   22.1127  -13.2511  -20.0675 N   0  0  0  0  0  0  0  0  0  0  0  0
   20.7024  -13.3565  -20.1442 C   0  0  0  0  0  0  0  0  0  0  0  0
   20.0691  -12.6379  -21.0335 N   0  0  0  0  0  0  0  0  0  0  0  0
   19.9317  -14.1896  -19.3230 N   0  0  0  0  0  0  0  0  0  0  0  0
   20.5131  -15.1496  -18.4119 C   0  0  0  0  0  0  0  0  0  0  0  0
   21.9386  -15.4967  -18.8125 C   0  0  0  0  0  0  0  0  0  0  0  0
   22.6146  -16.4971  -17.9729 C   0  0  0  0  0  0  0  0  0  0  0  0
   21.7597  -17.3583  -17.0977 C   0  0  2  0  0  0  0  0  0  0  0  0
   20.9176  -16.6748  -16.1780 N   0  0  0  0  0  0  0  0  0  0  0  0
   22.5546  -18.3976  -16.3950 C   0  0  0  0  0  0  0  0  0  0  0  0
   23.7059  -18.6895  -16.8705 O   0  0  0  0  0  0  0  0  0  0  0  0
   19.0464  -12.6550  -21.1115 N   0  0  0  0  0  0  0  0  0  0  0  0
   22.0871  -19.0693  -15.2387 C   0  0  1  0  0  0  0  0  0  0  0  0
   22.9834  -20.1189  -14.7099 C   0  0  0  0  0  0  0  0  0  0  0  0
   23.4268  -19.6552  -13.3758 C   0  0  0  0  0  0  0  0  0  0  0  0
   24.1846  -20.6041  -12.5558 C   0  0  0  0  0  0  0  0  0  0  0  0
   24.6558  -21.8491  -12.7882 N   0  0  0  0  0  0  0  0  0  0  0  0
   25.3322  -22.2457  -11.7006 C   0  0  0  0  0  0  0  0  0  0  0  0
   25.2840  -21.2574  -10.8035 N   0  0  0  0  0  0  0  0  0  0  0  0
   24.5965  -20.2509  -11.2966 C   0  0  0  0  0  0  0  0  0  0  0  0
   22.1014  -21.3406  -14.5411 O   0  0  0  0  0  0  0  0  0  0  0  0
   20.9300  -21.1689  -14.1992 N   0  0  0  0  0  0  0  0  0  0  0  0
   22.6068  -22.6362  -14.7641 C   0  0  2  0  0  0  0  0  0  0  0  0
   22.0096  -23.9116  -14.6285 C   0  0  0  0  0  0  0  0  0  0  0  0
   22.7997  -25.1673  -14.9265 S   0  0  0  0  0  0  0  0  0  0  0  0
   24.3375  -25.1855  -13.9461 C   0  0  0  0  0  0  0  0  0  0  0  0
   21.3607  -24.0361  -13.2824 O   0  0  0  0  0  0  0  0  0  0  0  0
   21.6630  -23.2211  -12.4274 O   0  0  0  0  0  0  0  0  0  0  0  0
  2  1  1  0
  2  3  2  0
  4  5  1  0
  4  2  1  0
  6  5  1  0
  7  6  1  0
  8  9  1  1
  8  7  1  0
 10 11  2  0
 10  8  1  0
 12 10  1  0
 13 20  1  0
 13 12  1  0
 13 14  1  6
 15 14  1  0
 16 15  2  0
 17 16  1  0
 18 17  1  0
 18 19  2  0
 19 15  1  0
 20 22  1  0
 21 20  2  0
 22 23  1  0
 23 26  1  0
 23 24  1  1
 25 24  1  0
 26 27  2  0
 26 28  1  0
M  END
$$$$
