RHC.pdb
     RDKit          3D

 28 28  0  0  1  0  0  0  0  0999 V2000
   29.8824  -26.7812  -15.8241 N   0  0  0  0  0  0  0  0  0  0  0  0
   30.4413  -26.8868  -17.1211 C   0  0  0  0  0  0  0  0  0  0  0  0
   31.0483  -27.9961  -17.4520 N   0  0  0  0  0  0  0  0  0  0  0  0
   30.3857  -25.8717  -18.0850 N   0  0  0  0  0  0  0  0  0  0  0  0
   29.7384  -24.6006  -17.8501 C   0  0  0  0  0  0  0  0  0  0  0  0
   30.3280  -23.8975  -16.6372 C   0  0  0  0  0  0  0  0  0  0  0  0
   29.7459  -22.5871  -16.3104 C   0  0  0  0  0  0  0  0  0  0  0  0
   28.7096  -22.0384  -17.2399 C   0  0  2  0  0  0  0  0  0  0  0  0
   29.1827  -21.1706  -18.2622 N   0  0  0  0  0  0  0  0  0  0  0  0
   27.5847  -21.4052  -16.5054 C   0  0  0  0  0  0  0  0  0  0  0  0
   27.7663  -20.2283  -16.0378 O   0  0  0  0  0  0  0  0  0  0  0  0
   31.4806  -28.1198  -18.3740 N   0  0  0  0  0  0  0  0  0  0  0  0
   26.3403  -22.0513  -16.3036 C   0  0  2  0  0  0  0  0  0  0  0  0
   25.3275  -21.2612  -15.5724 C   0  0  0  0  0  0  0  0  0  0  0  0
   24.0131  -21.6467  -16.1336 C   0  0  0  0  0  0  0  0  0  0  0  0
   22.8220  -21.0716  -15.5030 C   0  0  0  0  0  0  0  0  0  0  0  0
   22.6506  -20.1945  -14.4894 N   0  0  0  0  0  0  0  0  0  0  0  0
   21.3356  -19.9714  -14.3527 C   0  0  0  0  0  0  0  0  0  0  0  0
   20.6973  -20.6996  -15.2726 N   0  0  0  0  0  0  0  0  0  0  0  0
   21.5740  -21.3741  -15.9835 C   0  0  0  0  0  0  0  0  0  0  0  0
   25.4136  -21.7437  -14.1375 O   0  0  0  0  0  0  0  0  0  0  0  0
   25.5917  -22.9467  -13.9386 N   0  0  0  0  0  0  0  0  0  0  0  0
   25.2890  -20.8438  -13.0612 C   0  0  1  0  0  0  0  0  0  0  0  0
   25.3706  -21.0384  -11.6623 C   0  0  0  0  0  0  0  0  0  0  0  0
   26.4534  -20.3593  -10.8523 S   0  0  0  0  0  0  0  0  0  0  0  0
   26.6546  -21.2016   -9.2472 C   0  0  0  0  0  0  0  0  0  0  0  0
   24.0361  -20.7827  -11.0279 O   0  0  0  0  0  0  0  0  0  0  0  0
   23.3541  -19.8797  -11.4815 O   0  0  0  0  0  0  0  0  0  0  0  0
  2  1  1  0
  2  3  2  0
  4  5  1  0
  4  2  1  0
  6  5  1  0
  7  6  1  0
  8  9  1  6
  8  7  1  0
 10 11  2  0
 10  8  1  0
 12 10  1  0
 13 20  1  0
 13 12  1  0
 13 14  1  6
 15 14  1  0
 16 15  2  0
 17 16  1  0
 18 17  1  0
 18 19  2  0
 19 15  1  0
 20 22  1  0
 21 20  2  0
 22 23  1  0
 23 26  1  0
 23 24  1  1
 25 24  1  0
 26 27  2  0
 26 28  1  0
M  END
$$$$
