RHC.pdb
     RDKit          3D

 28 28  0  0  1  0  0  0  0  0999 V2000
   26.2001  -21.0103  -19.4853 N   0  0  0  0  0  0  0  0  0  0  0  0
   27.3927  -21.1712  -20.2321 C   0  0  0  0  0  0  0  0  0  0  0  0
   27.7140  -20.2513  -21.1032 N   0  0  0  0  0  0  0  0  0  0  0  0
   28.2620  -22.2616  -20.0977 N   0  0  0  0  0  0  0  0  0  0  0  0
   28.0309  -23.3392  -19.1623 C   0  0  0  0  0  0  0  0  0  0  0  0
   28.4693  -22.9539  -17.7579 C   0  0  0  0  0  0  0  0  0  0  0  0
   27.4657  -23.1412  -16.6993 C   0  0  0  0  0  0  0  0  0  0  0  0
   26.6003  -21.9715  -16.3506 C   0  0  2  0  0  0  0  0  0  0  0  0
   27.0689  -20.6979  -16.7755 N   0  0  0  0  0  0  0  0  0  0  0  0
   26.2643  -21.9413  -14.9043 C   0  0  0  0  0  0  0  0  0  0  0  0
   27.1335  -22.3931  -14.0814 O   0  0  0  0  0  0  0  0  0  0  0  0
   28.5058  -20.3692  -21.7447 N   0  0  0  0  0  0  0  0  0  0  0  0
   25.0326  -21.4426  -14.4133 C   0  0  1  0  0  0  0  0  0  0  0  0
   24.9003  -21.4185  -12.9415 C   0  0  0  0  0  0  0  0  0  0  0  0
   25.4151  -20.1034  -12.4979 C   0  0  0  0  0  0  0  0  0  0  0  0
   25.3637  -19.8146  -11.0623 C   0  0  0  0  0  0  0  0  0  0  0  0
   24.9886  -20.5461   -9.9898 N   0  0  0  0  0  0  0  0  0  0  0  0
   25.1908  -19.8044   -8.8914 C   0  0  0  0  0  0  0  0  0  0  0  0
   25.6883  -18.6262   -9.2768 N   0  0  0  0  0  0  0  0  0  0  0  0
   25.8044  -18.6067  -10.5863 C   0  0  0  0  0  0  0  0  0  0  0  0
   23.4080  -21.4795  -12.6798 O   0  0  0  0  0  0  0  0  0  0  0  0
   22.6499  -20.9995  -13.5245 N   0  0  0  0  0  0  0  0  0  0  0  0
   22.9014  -22.0641  -11.5028 C   0  0  2  0  0  0  0  0  0  0  0  0
   21.5829  -22.1698  -11.0010 C   0  0  0  0  0  0  0  0  0  0  0  0
   21.3284  -22.7218   -9.6152 S   0  0  0  0  0  0  0  0  0  0  0  0
   22.1081  -21.6497   -8.3625 C   0  0  0  0  0  0  0  0  0  0  0  0
   20.8653  -20.8625  -11.1587 O   0  0  0  0  0  0  0  0  0  0  0  0
   21.5395  -19.8583  -11.3125 O   0  0  0  0  0  0  0  0  0  0  0  0
  2  1  1  0
  2  3  2  0
  4  5  1  0
  4  2  1  0
  6  5  1  0
  7  6  1  0
  8  9  1  1
  8  7  1  0
 10 11  2  0
 10  8  1  0
 12 10  1  0
 13 20  1  0
 13 12  1  0
 13 14  1  1
 15 14  1  0
 16 15  2  0
 17 16  1  0
 18 17  1  0
 18 19  2  0
 19 15  1  0
 20 22  1  0
 21 20  2  0
 22 23  1  0
 23 26  1  0
 23 24  1  1
 25 24  1  0
 26 27  2  0
 26 28  1  0
M  END
$$$$
