RHC.pdb
     RDKit          3D

 28 28  0  0  1  0  0  0  0  0999 V2000
   16.4659  -15.8791  -14.6104 N   0  0  0  0  0  0  0  0  0  0  0  0
   16.3070  -14.8234  -15.5410 C   0  0  0  0  0  0  0  0  0  0  0  0
   15.1207  -14.2960  -15.6918 N   0  0  0  0  0  0  0  0  0  0  0  0
   17.3478  -14.2991  -16.3186 N   0  0  0  0  0  0  0  0  0  0  0  0
   18.7022  -14.8008  -16.2586 C   0  0  0  0  0  0  0  0  0  0  0  0
   19.6119  -14.0483  -17.2173 C   0  0  0  0  0  0  0  0  0  0  0  0
   20.3470  -12.9111  -16.6436 C   0  0  0  0  0  0  0  0  0  0  0  0
   21.8259  -13.0586  -16.4709 C   0  0  2  0  0  0  0  0  0  0  0  0
   22.2619  -14.2208  -15.7770 N   0  0  0  0  0  0  0  0  0  0  0  0
   22.4395  -11.8432  -15.8776 C   0  0  0  0  0  0  0  0  0  0  0  0
   22.3993  -11.7164  -14.6052 O   0  0  0  0  0  0  0  0  0  0  0  0
   14.9521  -13.5271  -16.3495 N   0  0  0  0  0  0  0  0  0  0  0  0
   23.0524  -10.8337  -16.6599 C   0  0  1  0  0  0  0  0  0  0  0  0
   23.6821   -9.7356  -15.8967 C   0  0  0  0  0  0  0  0  0  0  0  0
   25.0770   -9.6368  -16.3823 C   0  0  0  0  0  0  0  0  0  0  0  0
   26.0002  -10.7034  -15.9861 C   0  0  0  0  0  0  0  0  0  0  0  0
   25.8451  -11.8305  -15.2570 N   0  0  0  0  0  0  0  0  0  0  0  0
   27.0172  -12.4814  -15.2461 C   0  0  0  0  0  0  0  0  0  0  0  0
   27.8902  -11.7681  -15.9624 N   0  0  0  0  0  0  0  0  0  0  0  0
   27.2997  -10.6873  -16.4231 C   0  0  0  0  0  0  0  0  0  0  0  0
   22.9257   -8.4873  -16.3074 O   0  0  0  0  0  0  0  0  0  0  0  0
   22.4700   -8.4339  -17.4512 N   0  0  0  0  0  0  0  0  0  0  0  0
   22.7519   -7.4163  -15.4093 C   0  0  1  0  0  0  0  0  0  0  0  0
   22.0512   -6.1935  -15.5330 C   0  0  0  0  0  0  0  0  0  0  0  0
   20.5473   -6.1814  -15.7002 S   0  0  0  0  0  0  0  0  0  0  0  0
   19.9374   -4.4632  -15.7472 C   0  0  0  0  0  0  0  0  0  0  0  0
   22.4389   -5.2631  -14.4227 O   0  0  0  0  0  0  0  0  0  0  0  0
   22.7505   -5.7544  -13.3512 O   0  0  0  0  0  0  0  0  0  0  0  0
  2  1  1  0
  2  3  2  0
  4  5  1  0
  4  2  1  0
  6  5  1  0
  7  6  1  0
  8  9  1  1
  8  7  1  0
 10 11  2  0
 10  8  1  0
 12 10  1  0
 13 20  1  0
 13 12  1  0
 13 14  1  1
 15 14  1  0
 16 15  2  0
 17 16  1  0
 18 17  1  0
 18 19  2  0
 19 15  1  0
 20 22  1  0
 21 20  2  0
 22 23  1  0
 23 26  1  0
 23 24  1  6
 25 24  1  0
 26 27  2  0
 26 28  1  0
M  END
$$$$
