RHC.pdb
     RDKit          3D

 28 28  0  0  1  0  0  0  0  0999 V2000
   24.3132  -24.7692  -14.0595 N   0  0  0  0  0  0  0  0  0  0  0  0
   24.3005  -25.8956  -14.9179 C   0  0  0  0  0  0  0  0  0  0  0  0
   24.0270  -27.0675  -14.4078 N   0  0  0  0  0  0  0  0  0  0  0  0
   24.5629  -25.8377  -16.2928 N   0  0  0  0  0  0  0  0  0  0  0  0
   24.8165  -24.5983  -16.9922 C   0  0  0  0  0  0  0  0  0  0  0  0
   26.2985  -24.4242  -17.2860 C   0  0  0  0  0  0  0  0  0  0  0  0
   27.0155  -23.4735  -16.4230 C   0  0  0  0  0  0  0  0  0  0  0  0
   27.1157  -22.0551  -16.8887 C   0  0  2  0  0  0  0  0  0  0  0  0
   28.4305  -21.5604  -17.1092 N   0  0  0  0  0  0  0  0  0  0  0  0
   26.3561  -21.1280  -16.0117 C   0  0  0  0  0  0  0  0  0  0  0  0
   27.0201  -20.4123  -15.1848 O   0  0  0  0  0  0  0  0  0  0  0  0
   23.9944  -27.9134  -14.9871 N   0  0  0  0  0  0  0  0  0  0  0  0
   24.9447  -21.0149  -16.0550 C   0  0  2  0  0  0  0  0  0  0  0  0
   24.3590  -20.0308  -15.1206 C   0  0  0  0  0  0  0  0  0  0  0  0
   23.3579  -19.2640  -15.8961 C   0  0  0  0  0  0  0  0  0  0  0  0
   23.8515  -18.1462  -16.7046 C   0  0  0  0  0  0  0  0  0  0  0  0
   25.0726  -17.5865  -16.8525 N   0  0  0  0  0  0  0  0  0  0  0  0
   24.9733  -16.6118  -17.7677 C   0  0  0  0  0  0  0  0  0  0  0  0
   23.7055  -16.5678  -18.1856 N   0  0  0  0  0  0  0  0  0  0  0  0
   23.0052  -17.4874  -17.5589 C   0  0  0  0  0  0  0  0  0  0  0  0
   23.6432  -20.8610  -14.0730 O   0  0  0  0  0  0  0  0  0  0  0  0
   23.0398  -21.8696  -14.4436 N   0  0  0  0  0  0  0  0  0  0  0  0
   23.6628  -20.4885  -12.7148 C   0  0  1  0  0  0  0  0  0  0  0  0
   23.0845  -21.0863  -11.5704 C   0  0  0  0  0  0  0  0  0  0  0  0
   23.7904  -21.0312  -10.2331 S   0  0  0  0  0  0  0  0  0  0  0  0
   25.5098  -21.6134  -10.4096 C   0  0  0  0  0  0  0  0  0  0  0  0
   21.6674  -20.6234  -11.4079 O   0  0  0  0  0  0  0  0  0  0  0  0
   21.2866  -19.7002  -12.1073 O   0  0  0  0  0  0  0  0  0  0  0  0
  2  1  1  0
  2  3  2  0
  4  5  1  0
  4  2  1  0
  6  5  1  0
  7  6  1  0
  8  9  1  1
  8  7  1  0
 10 11  2  0
 10  8  1  0
 12 10  1  0
 13 20  1  0
 13 12  1  0
 13 14  1  6
 15 14  1  0
 16 15  2  0
 17 16  1  0
 18 17  1  0
 18 19  2  0
 19 15  1  0
 20 22  1  0
 21 20  2  0
 22 23  1  0
 23 26  1  0
 23 24  1  1
 25 24  1  0
 26 27  2  0
 26 28  1  0
M  END
$$$$
