RHC.pdb
     RDKit          3D

 28 28  0  0  1  0  0  0  0  0999 V2000
   26.5871  -21.2177  -11.5265 N   0  0  0  0  0  0  0  0  0  0  0  0
   26.1610  -21.9790  -12.6421 C   0  0  0  0  0  0  0  0  0  0  0  0
   25.2038  -22.8530  -12.4740 N   0  0  0  0  0  0  0  0  0  0  0  0
   26.7013  -21.8563  -13.9289 N   0  0  0  0  0  0  0  0  0  0  0  0
   27.7102  -20.8776  -14.2666 C   0  0  0  0  0  0  0  0  0  0  0  0
   27.1177  -19.7290  -15.0682 C   0  0  0  0  0  0  0  0  0  0  0  0
   27.1162  -19.9006  -16.5288 C   0  0  0  0  0  0  0  0  0  0  0  0
   26.5850  -18.7740  -17.3579 C   0  0  2  0  0  0  0  0  0  0  0  0
   27.4963  -17.7186  -17.6368 N   0  0  0  0  0  0  0  0  0  0  0  0
   25.3177  -18.2293  -16.8075 C   0  0  0  0  0  0  0  0  0  0  0  0
   25.3897  -17.1936  -16.0599 O   0  0  0  0  0  0  0  0  0  0  0  0
   24.8882  -23.4607  -13.2378 N   0  0  0  0  0  0  0  0  0  0  0  0
   24.0536  -18.8109  -17.0732 C   0  0  2  0  0  0  0  0  0  0  0  0
   22.9017  -18.1438  -16.4309 C   0  0  0  0  0  0  0  0  0  0  0  0
   21.8427  -18.0560  -17.4615 C   0  0  0  0  0  0  0  0  0  0  0  0
   21.7635  -16.8139  -18.2349 C   0  0  0  0  0  0  0  0  0  0  0  0
   22.4736  -15.6646  -18.2046 N   0  0  0  0  0  0  0  0  0  0  0  0
   22.0088  -14.8649  -19.1752 C   0  0  0  0  0  0  0  0  0  0  0  0
   21.0227  -15.5109  -19.8031 N   0  0  0  0  0  0  0  0  0  0  0  0
   20.8547  -16.6940  -19.2545 C   0  0  0  0  0  0  0  0  0  0  0  0
   22.4530  -19.0973  -15.3406 O   0  0  0  0  0  0  0  0  0  0  0  0
   22.8450  -20.2644  -15.3919 N   0  0  0  0  0  0  0  0  0  0  0  0
   21.6082  -18.6635  -14.3004 C   0  0  1  0  0  0  0  0  0  0  0  0
   21.1586  -19.3116  -13.1260 C   0  0  0  0  0  0  0  0  0  0  0  0
   21.6761  -18.8904  -11.7679 S   0  0  0  0  0  0  0  0  0  0  0  0
   20.8888  -19.8902  -10.4613 C   0  0  0  0  0  0  0  0  0  0  0  0
   19.6597  -19.3502  -13.1006 O   0  0  0  0  0  0  0  0  0  0  0  0
   19.0580  -18.3990  -13.5692 O   0  0  0  0  0  0  0  0  0  0  0  0
  2  1  1  0
  2  3  2  0
  4  5  1  0
  4  2  1  0
  6  5  1  0
  7  6  1  0
  8  9  1  1
  8  7  1  0
 10 11  2  0
 10  8  1  0
 12 10  1  0
 13 20  1  0
 13 12  1  0
 13 14  1  6
 15 14  1  0
 16 15  2  0
 17 16  1  0
 18 17  1  0
 18 19  2  0
 19 15  1  0
 20 22  1  0
 21 20  2  0
 22 23  1  0
 23 26  1  0
 23 24  1  6
 25 24  1  0
 26 27  2  0
 26 28  1  0
M  END
$$$$
