RHC.pdb
     RDKit          3D

 28 28  0  0  1  0  0  0  0  0999 V2000
   20.4244  -18.3215  -18.0014 N   0  0  0  0  0  0  0  0  0  0  0  0
   19.5022  -17.7395  -18.9049 C   0  0  0  0  0  0  0  0  0  0  0  0
   18.8888  -18.5156  -19.7591 N   0  0  0  0  0  0  0  0  0  0  0  0
   19.1982  -16.3724  -18.9445 N   0  0  0  0  0  0  0  0  0  0  0  0
   19.7134  -15.4254  -17.9815 C   0  0  0  0  0  0  0  0  0  0  0  0
   19.2284  -14.0154  -18.2810 C   0  0  0  0  0  0  0  0  0  0  0  0
   19.6585  -12.9752  -17.3346 C   0  0  0  0  0  0  0  0  0  0  0  0
   21.1180  -12.8891  -17.0165 C   0  0  2  0  0  0  0  0  0  0  0  0
   21.6930  -14.0349  -16.4010 N   0  0  0  0  0  0  0  0  0  0  0  0
   21.4454  -11.6669  -16.2387 C   0  0  0  0  0  0  0  0  0  0  0  0
   21.3278  -11.7218  -14.9659 O   0  0  0  0  0  0  0  0  0  0  0  0
   18.2043  -18.1466  -20.4280 N   0  0  0  0  0  0  0  0  0  0  0  0
   21.8709  -10.4610  -16.8482 C   0  0  1  0  0  0  0  0  0  0  0  0
   22.2550   -9.3808  -15.9154 C   0  0  0  0  0  0  0  0  0  0  0  0
   23.6396   -8.9958  -16.2705 C   0  0  0  0  0  0  0  0  0  0  0  0
   24.7090   -9.9247  -15.8958 C   0  0  0  0  0  0  0  0  0  0  0  0
   24.7091  -11.1257  -15.2763 N   0  0  0  0  0  0  0  0  0  0  0  0
   25.9738  -11.5684  -15.2312 C   0  0  0  0  0  0  0  0  0  0  0  0
   26.7506  -10.6540  -15.8181 N   0  0  0  0  0  0  0  0  0  0  0  0
   26.0097   -9.6492  -16.2308 C   0  0  0  0  0  0  0  0  0  0  0  0
   21.3226   -8.2302  -16.2410 O   0  0  0  0  0  0  0  0  0  0  0  0
   21.2364   -7.8667  -17.4154 N   0  0  0  0  0  0  0  0  0  0  0  0
   20.5789   -7.5911  -15.2300 C   0  0  1  0  0  0  0  0  0  0  0  0
   19.6599   -6.5167  -15.2793 C   0  0  0  0  0  0  0  0  0  0  0  0
   18.3809   -6.5598  -14.4719 S   0  0  0  0  0  0  0  0  0  0  0  0
   17.5713   -8.1821  -14.6696 C   0  0  0  0  0  0  0  0  0  0  0  0
   20.3690   -5.2201  -15.0249 O   0  0  0  0  0  0  0  0  0  0  0  0
   19.7392   -4.1874  -15.1780 O   0  0  0  0  0  0  0  0  0  0  0  0
  2  1  1  0
  2  3  2  0
  4  5  1  0
  4  2  1  0
  6  5  1  0
  7  6  1  0
  8  9  1  1
  8  7  1  0
 10 11  2  0
 10  8  1  0
 12 10  1  0
 13 20  1  0
 13 12  1  0
 13 14  1  1
 15 14  1  0
 16 15  2  0
 17 16  1  0
 18 17  1  0
 18 19  2  0
 19 15  1  0
 20 22  1  0
 21 20  2  0
 22 23  1  0
 23 26  1  0
 23 24  1  6
 25 24  1  0
 26 27  2  0
 26 28  1  0
M  END
$$$$
