RHC.pdb
     RDKit          3D

 28 28  0  0  1  0  0  0  0  0999 V2000
   15.7938  -15.0990  -19.8575 N   0  0  0  0  0  0  0  0  0  0  0  0
   16.9307  -15.9403  -19.9308 C   0  0  0  0  0  0  0  0  0  0  0  0
   16.7588  -17.1985  -20.2401 N   0  0  0  0  0  0  0  0  0  0  0  0
   18.2425  -15.5097  -19.6929 N   0  0  0  0  0  0  0  0  0  0  0  0
   18.5514  -14.2686  -19.0191 C   0  0  0  0  0  0  0  0  0  0  0  0
   19.0672  -13.2241  -19.9969 C   0  0  0  0  0  0  0  0  0  0  0  0
   19.2351  -11.8671  -19.4554 C   0  0  0  0  0  0  0  0  0  0  0  0
   20.4851  -11.5787  -18.6852 C   0  0  2  0  0  0  0  0  0  0  0  0
   20.9998  -12.6495  -17.9039 N   0  0  0  0  0  0  0  0  0  0  0  0
   20.3567  -10.3519  -17.8580 C   0  0  0  0  0  0  0  0  0  0  0  0
   20.1208  -10.4979  -16.6090 O   0  0  0  0  0  0  0  0  0  0  0  0
   17.5460  -17.8544  -20.2880 N   0  0  0  0  0  0  0  0  0  0  0  0
   20.4790   -9.0474  -18.3966 C   0  0  1  0  0  0  0  0  0  0  0  0
   20.4027   -7.9463  -17.4135 C   0  0  0  0  0  0  0  0  0  0  0  0
   21.6153   -8.0545  -16.5714 C   0  0  0  0  0  0  0  0  0  0  0  0
   21.8684   -6.9685  -15.6208 C   0  0  0  0  0  0  0  0  0  0  0  0
   21.4183   -6.7157  -14.3719 N   0  0  0  0  0  0  0  0  0  0  0  0
   22.0158   -5.5978  -13.9348 C   0  0  0  0  0  0  0  0  0  0  0  0
   22.8298   -5.1624  -14.9000 N   0  0  0  0  0  0  0  0  0  0  0  0
   22.7607   -5.9750  -15.9314 C   0  0  0  0  0  0  0  0  0  0  0  0
   20.4847   -6.6766  -18.2383 O   0  0  0  0  0  0  0  0  0  0  0  0
   21.1845   -6.6867  -19.2525 N   0  0  0  0  0  0  0  0  0  0  0  0
   19.7847   -5.5162  -17.8545 C   0  0  1  0  0  0  0  0  0  0  0  0
   19.7617   -4.2115  -18.4012 C   0  0  0  0  0  0  0  0  0  0  0  0
   18.5129   -3.6786  -19.0691 S   0  0  0  0  0  0  0  0  0  0  0  0
   18.8490   -2.0471  -19.8119 C   0  0  0  0  0  0  0  0  0  0  0  0
   20.2495   -3.2197  -17.3878 O   0  0  0  0  0  0  0  0  0  0  0  0
   19.8565   -3.3390  -16.2398 O   0  0  0  0  0  0  0  0  0  0  0  0
  2  1  1  0
  2  3  2  0
  4  5  1  0
  4  2  1  0
  6  5  1  0
  7  6  1  0
  8  9  1  1
  8  7  1  0
 10 11  2  0
 10  8  1  0
 12 10  1  0
 13 20  1  0
 13 12  1  0
 13 14  1  1
 15 14  1  0
 16 15  2  0
 17 16  1  0
 18 17  1  0
 18 19  2  0
 19 15  1  0
 20 22  1  0
 21 20  2  0
 22 23  1  0
 23 26  1  0
 23 24  1  1
 25 24  1  0
 26 27  2  0
 26 28  1  0
M  END
$$$$
