RHC.pdb
     RDKit          3D

 28 28  0  0  1  0  0  0  0  0999 V2000
   44.7884  -15.6543   -8.5130 N   0  0  0  0  0  0  0  0  0  0  0  0
   45.8878  -15.2888   -7.6984 C   0  0  0  0  0  0  0  0  0  0  0  0
   47.0348  -15.8847   -7.8920 N   0  0  0  0  0  0  0  0  0  0  0  0
   45.8286  -14.3197   -6.6885 N   0  0  0  0  0  0  0  0  0  0  0  0
   44.7628  -13.3475   -6.5948 C   0  0  0  0  0  0  0  0  0  0  0  0
   44.8261  -12.3481   -7.7395 C   0  0  0  0  0  0  0  0  0  0  0  0
   43.8175  -11.2781   -7.7124 C   0  0  0  0  0  0  0  0  0  0  0  0
   44.3007   -9.8676   -7.8378 C   0  0  2  0  0  0  0  0  0  0  0  0
   45.0522   -9.3638   -6.7406 N   0  0  0  0  0  0  0  0  0  0  0  0
   43.1996   -8.9322   -8.1817 C   0  0  0  0  0  0  0  0  0  0  0  0
   42.9185   -8.0089   -7.3418 O   0  0  0  0  0  0  0  0  0  0  0  0
   47.8660  -15.6468   -7.3398 N   0  0  0  0  0  0  0  0  0  0  0  0
   42.4588   -9.0291   -9.3852 C   0  0  2  0  0  0  0  0  0  0  0  0
   41.4187   -7.9960   -9.5739 C   0  0  0  0  0  0  0  0  0  0  0  0
   41.2230   -7.8634  -11.0353 C   0  0  0  0  0  0  0  0  0  0  0  0
   40.1667   -6.9548  -11.4888 C   0  0  0  0  0  0  0  0  0  0  0  0
   39.3353   -6.1125  -10.8367 N   0  0  0  0  0  0  0  0  0  0  0  0
   38.5906   -5.4750  -11.7514 C   0  0  0  0  0  0  0  0  0  0  0  0
   38.9569   -5.9143  -12.9584 N   0  0  0  0  0  0  0  0  0  0  0  0
   39.9107   -6.8099  -12.8280 C   0  0  0  0  0  0  0  0  0  0  0  0
   40.1641   -8.5842   -8.9581 O   0  0  0  0  0  0  0  0  0  0  0  0
   40.0284   -9.8089   -8.9736 N   0  0  0  0  0  0  0  0  0  0  0  0
   39.1787   -7.7548   -8.3882 C   0  0  1  0  0  0  0  0  0  0  0  0
   37.9626   -8.0586   -7.7321 C   0  0  0  0  0  0  0  0  0  0  0  0
   37.9467   -8.9673   -6.5223 S   0  0  0  0  0  0  0  0  0  0  0  0
   36.2308   -9.2379   -5.9664 C   0  0  0  0  0  0  0  0  0  0  0  0
   37.2165   -6.7959   -7.4196 O   0  0  0  0  0  0  0  0  0  0  0  0
   37.8388   -5.7477   -7.4387 O   0  0  0  0  0  0  0  0  0  0  0  0
  2  1  1  0
  2  3  2  0
  4  5  1  0
  4  2  1  0
  6  5  1  0
  7  6  1  0
  8  9  1  1
  8  7  1  0
 10 11  2  0
 10  8  1  0
 12 10  1  0
 13 20  1  0
 13 12  1  0
 13 14  1  6
 15 14  1  0
 16 15  2  0
 17 16  1  0
 18 17  1  0
 18 19  2  0
 19 15  1  0
 20 22  1  0
 21 20  2  0
 22 23  1  0
 23 26  1  0
 23 24  1  6
 25 24  1  0
 26 27  2  0
 26 28  1  0
M  END
$$$$
