RHC.pdb
     RDKit          3D

 28 28  0  0  1  0  0  0  0  0999 V2000
   22.0318  -20.4883   -9.8768 N   0  0  0  0  0  0  0  0  0  0  0  0
   22.6980  -21.0712   -8.7713 C   0  0  0  0  0  0  0  0  0  0  0  0
   22.0308  -21.2479   -7.6613 N   0  0  0  0  0  0  0  0  0  0  0  0
   24.0387  -21.4772   -8.7876 N   0  0  0  0  0  0  0  0  0  0  0  0
   24.8653  -21.4088   -9.9716 C   0  0  0  0  0  0  0  0  0  0  0  0
   26.0078  -20.4215   -9.7900 C   0  0  0  0  0  0  0  0  0  0  0  0
   26.7840  -20.1101  -10.9997 C   0  0  0  0  0  0  0  0  0  0  0  0
   26.3265  -20.7133  -12.2904 C   0  0  2  0  0  0  0  0  0  0  0  0
   26.9807  -21.9118  -12.6875 N   0  0  0  0  0  0  0  0  0  0  0  0
   26.3402  -19.7262  -13.3999 C   0  0  0  0  0  0  0  0  0  0  0  0
   25.9106  -18.5467  -13.1530 O   0  0  0  0  0  0  0  0  0  0  0  0
   22.4411  -21.7353   -6.8574 N   0  0  0  0  0  0  0  0  0  0  0  0
   26.7999  -20.0423  -14.7021 C   0  0  2  0  0  0  0  0  0  0  0  0
   26.8006  -18.9198  -15.6636 C   0  0  0  0  0  0  0  0  0  0  0  0
   27.8040  -19.2577  -16.6982 C   0  0  0  0  0  0  0  0  0  0  0  0
   27.9860  -18.2994  -17.7916 C   0  0  0  0  0  0  0  0  0  0  0  0
   28.6348  -17.1173  -17.8803 N   0  0  0  0  0  0  0  0  0  0  0  0
   28.5253  -16.6784  -19.1424 C   0  0  0  0  0  0  0  0  0  0  0  0
   27.8186  -17.5788  -19.8309 N   0  0  0  0  0  0  0  0  0  0  0  0
   27.4809  -18.5710  -19.0370 C   0  0  0  0  0  0  0  0  0  0  0  0
   25.4196  -18.9374  -16.2894 O   0  0  0  0  0  0  0  0  0  0  0  0
   24.7168  -19.9350  -16.1183 N   0  0  0  0  0  0  0  0  0  0  0  0
   24.9538  -17.8465  -17.0489 C   0  0  1  0  0  0  0  0  0  0  0  0
   23.6597  -17.2958  -17.2026 C   0  0  0  0  0  0  0  0  0  0  0  0
   22.8675  -16.8425  -15.9957 S   0  0  0  0  0  0  0  0  0  0  0  0
   21.0826  -17.0569  -16.3031 C   0  0  0  0  0  0  0  0  0  0  0  0
   23.6846  -16.1997  -18.2256 O   0  0  0  0  0  0  0  0  0  0  0  0
   24.4069  -15.2405  -18.0144 O   0  0  0  0  0  0  0  0  0  0  0  0
  2  1  1  0
  2  3  2  0
  4  5  1  0
  4  2  1  0
  6  5  1  0
  7  6  1  0
  8  9  1  6
  8  7  1  0
 10 11  2  0
 10  8  1  0
 12 10  1  0
 13 20  1  0
 13 12  1  0
 13 14  1  6
 15 14  1  0
 16 15  2  0
 17 16  1  0
 18 17  1  0
 18 19  2  0
 19 15  1  0
 20 22  1  0
 21 20  2  0
 22 23  1  0
 23 26  1  0
 23 24  1  6
 25 24  1  0
 26 27  2  0
 26 28  1  0
M  END
$$$$
