RHC.pdb
     RDKit          3D

 28 28  0  0  1  0  0  0  0  0999 V2000
   29.8273  -18.2345  -18.4037 N   0  0  0  0  0  0  0  0  0  0  0  0
   29.3496  -16.9245  -18.6516 C   0  0  0  0  0  0  0  0  0  0  0  0
   30.0188  -16.1600  -19.4737 N   0  0  0  0  0  0  0  0  0  0  0  0
   28.1941  -16.3870  -18.0696 N   0  0  0  0  0  0  0  0  0  0  0  0
   27.2261  -17.1915  -17.3587 C   0  0  0  0  0  0  0  0  0  0  0  0
   25.9239  -17.3027  -18.1365 C   0  0  0  0  0  0  0  0  0  0  0  0
   24.9070  -18.1947  -17.5594 C   0  0  0  0  0  0  0  0  0  0  0  0
   25.2891  -18.9906  -16.3513 C   0  0  2  0  0  0  0  0  0  0  0  0
   26.3615  -19.9090  -16.5206 N   0  0  0  0  0  0  0  0  0  0  0  0
   24.1182  -19.6714  -15.7421 C   0  0  0  0  0  0  0  0  0  0  0  0
   23.8061  -20.8303  -16.1854 O   0  0  0  0  0  0  0  0  0  0  0  0
   29.7135  -15.2053  -19.6916 N   0  0  0  0  0  0  0  0  0  0  0  0
   23.3448  -19.0890  -14.7080 C   0  0  2  0  0  0  0  0  0  0  0  0
   22.2609  -19.9389  -14.1721 C   0  0  0  0  0  0  0  0  0  0  0  0
   21.9753  -19.4398  -12.8080 C   0  0  0  0  0  0  0  0  0  0  0  0
   20.8290  -20.0253  -12.1079 C   0  0  0  0  0  0  0  0  0  0  0  0
   19.9461  -20.9936  -12.4381 N   0  0  0  0  0  0  0  0  0  0  0  0
   19.1201  -21.1734  -11.3974 C   0  0  0  0  0  0  0  0  0  0  0  0
   19.4871  -20.3281  -10.4305 N   0  0  0  0  0  0  0  0  0  0  0  0
   20.5204  -19.6222  -10.8342 C   0  0  0  0  0  0  0  0  0  0  0  0
   21.0653  -19.6589  -15.0617 O   0  0  0  0  0  0  0  0  0  0  0  0
   20.8917  -18.5041  -15.4552 N   0  0  0  0  0  0  0  0  0  0  0  0
   20.1750  -20.6880  -15.4251 C   0  0  1  0  0  0  0  0  0  0  0  0
   19.0664  -20.7015  -16.3039 C   0  0  0  0  0  0  0  0  0  0  0  0
   18.9718  -21.7318  -17.4082 S   0  0  0  0  0  0  0  0  0  0  0  0
   19.2316  -23.4036  -16.7270 C   0  0  0  0  0  0  0  0  0  0  0  0
   17.7878  -20.6885  -15.5205 O   0  0  0  0  0  0  0  0  0  0  0  0
   17.8396  -20.9948  -14.3416 O   0  0  0  0  0  0  0  0  0  0  0  0
  2  1  1  0
  2  3  2  0
  4  5  1  0
  4  2  1  0
  6  5  1  0
  7  6  1  0
  8  9  1  6
  8  7  1  0
 10 11  2  0
 10  8  1  0
 12 10  1  0
 13 20  1  0
 13 12  1  0
 13 14  1  1
 15 14  1  0
 16 15  2  0
 17 16  1  0
 18 17  1  0
 18 19  2  0
 19 15  1  0
 20 22  1  0
 21 20  2  0
 22 23  1  0
 23 26  1  0
 23 24  1  1
 25 24  1  0
 26 27  2  0
 26 28  1  0
M  END
$$$$
