RHC.pdb
     RDKit          3D

 28 28  0  0  1  0  0  0  0  0999 V2000
   24.2845  -28.6682  -17.0705 N   0  0  0  0  0  0  0  0  0  0  0  0
   23.3230  -29.5810  -16.5725 C   0  0  0  0  0  0  0  0  0  0  0  0
   23.6623  -30.8361  -16.4394 N   0  0  0  0  0  0  0  0  0  0  0  0
   22.0181  -29.2252  -16.2074 N   0  0  0  0  0  0  0  0  0  0  0  0
   21.5689  -27.8529  -16.1377 C   0  0  0  0  0  0  0  0  0  0  0  0
   21.9450  -27.2165  -14.8085 C   0  0  0  0  0  0  0  0  0  0  0  0
   21.4325  -25.8569  -14.5813 C   0  0  0  0  0  0  0  0  0  0  0  0
   20.1962  -25.7127  -13.7507 C   0  0  2  0  0  0  0  0  0  0  0  0
   19.7196  -24.3861  -13.5635 N   0  0  0  0  0  0  0  0  0  0  0  0
   20.3224  -26.4048  -12.4428 C   0  0  0  0  0  0  0  0  0  0  0  0
   21.1456  -25.9222  -11.5906 O   0  0  0  0  0  0  0  0  0  0  0  0
   22.9840  -31.5507  -16.1539 N   0  0  0  0  0  0  0  0  0  0  0  0
   19.5788  -27.5650  -12.1142 C   0  0  2  0  0  0  0  0  0  0  0  0
   19.8043  -28.0978  -10.7541 C   0  0  0  0  0  0  0  0  0  0  0  0
   18.6108  -27.7305   -9.9591 C   0  0  0  0  0  0  0  0  0  0  0  0
   18.7189  -26.5510   -9.0965 C   0  0  0  0  0  0  0  0  0  0  0  0
   19.7205  -25.6765   -8.8553 N   0  0  0  0  0  0  0  0  0  0  0  0
   19.2612  -24.7441   -8.0084 C   0  0  0  0  0  0  0  0  0  0  0  0
   17.9879  -25.0345   -7.7284 N   0  0  0  0  0  0  0  0  0  0  0  0
   17.6341  -26.1230   -8.3755 C   0  0  0  0  0  0  0  0  0  0  0  0
   19.8415  -29.6042  -10.9233 O   0  0  0  0  0  0  0  0  0  0  0  0
   19.0974  -30.1132  -11.7634 N   0  0  0  0  0  0  0  0  0  0  0  0
   20.6989  -30.4010  -10.1397 C   0  0  1  0  0  0  0  0  0  0  0  0
   20.9114  -31.7993  -10.1091 C   0  0  0  0  0  0  0  0  0  0  0  0
   22.1025  -32.3812   -9.3793 S   0  0  0  0  0  0  0  0  0  0  0  0
   22.2330  -34.1680   -9.7211 C   0  0  0  0  0  0  0  0  0  0  0  0
   19.6619  -32.5007   -9.6671 O   0  0  0  0  0  0  0  0  0  0  0  0
   19.1741  -32.1748   -8.5983 O   0  0  0  0  0  0  0  0  0  0  0  0
  2  1  1  0
  2  3  2  0
  4  5  1  0
  4  2  1  0
  6  5  1  0
  7  6  1  0
  8  9  1  1
  8  7  1  0
 10 11  2  0
 10  8  1  0
 12 10  1  0
 13 20  1  0
 13 12  1  0
 13 14  1  6
 15 14  1  0
 16 15  2  0
 17 16  1  0
 18 17  1  0
 18 19  2  0
 19 15  1  0
 20 22  1  0
 21 20  2  0
 22 23  1  0
 23 26  1  0
 23 24  1  1
 25 24  1  0
 26 27  2  0
 26 28  1  0
M  END
$$$$
