ERE.pdb
     RDKit          3D

 30 29  0  0  1  0  0  0  0  0999 V2000
   25.8024  -21.9859  -11.8487 N   0  0  0  0  0  0  0  0  0  0  0  0
   25.3305  -21.3479  -13.0799 C   0  0  1  0  0  0  0  0  0  0  0  0
   25.6211  -22.2255  -14.2674 C   0  0  0  0  0  0  0  0  0  0  0  0
   25.3356  -23.6740  -14.0730 C   0  0  0  0  0  0  0  0  0  0  0  0
   25.7662  -24.4618  -15.2890 C   0  0  0  0  0  0  0  0  0  0  0  0
   26.3311  -23.8434  -16.2387 O   0  0  0  0  0  0  0  0  0  0  0  0
   23.8631  -21.0560  -12.9577 C   0  0  0  0  0  0  0  0  0  0  0  0
   23.1788  -21.5795  -12.0535 O   0  0  0  0  0  0  0  0  0  0  0  0
   25.5405  -25.8269  -15.3469 O   0  0  0  0  0  0  0  0  0  0  0  0
   19.2984  -19.3144  -18.2473 N   0  0  0  0  0  0  0  0  0  0  0  0
   18.3388  -18.3321  -17.8345 C   0  0  0  0  0  0  0  0  0  0  0  0
   17.1847  -18.3061  -18.3917 N   0  0  0  0  0  0  0  0  0  0  0  0
   18.6539  -17.3974  -16.8237 N   0  0  0  0  0  0  0  0  0  0  0  0
   19.9081  -17.3992  -16.1136 C   0  0  0  0  0  0  0  0  0  0  0  0
   20.1454  -18.7144  -15.3735 C   0  0  0  0  0  0  0  0  0  0  0  0
   21.4502  -18.6229  -14.6562 C   0  0  0  0  0  0  0  0  0  0  0  0
   21.8398  -19.8295  -13.8894 C   0  0  2  0  0  0  0  0  0  0  0  0
   23.2139  -20.1774  -13.8659 N   0  0  0  0  0  0  0  0  0  0  0  0
   20.8944  -20.9621  -14.1178 C   0  0  0  0  0  0  0  0  0  0  0  0
   21.0146  -21.5851  -15.1900 O   0  0  0  0  0  0  0  0  0  0  0  0
   16.4463  -17.6385  -18.0522 N   0  0  0  0  0  0  0  0  0  0  0  0
   19.8948  -21.3415  -13.1939 C   0  0  2  0  0  0  0  0  0  0  0  0
   18.9780  -22.4164  -13.2952 C   0  0  0  0  0  0  0  0  0  0  0  0
   18.8864  -23.4207  -12.2227 C   0  0  0  0  0  0  0  0  0  0  0  0
   19.5368  -23.1426  -10.9235 C   0  0  0  0  0  0  0  0  0  0  0  0
   19.5051  -24.2342   -9.9411 O   0  0  0  0  0  0  0  0  0  0  0  0
   19.0203  -25.3341  -10.2325 C   0  0  0  0  0  0  0  0  0  0  0  0
   17.6035  -22.0066  -13.7913 O   0  0  0  0  0  0  0  0  0  0  0  0
   17.2099  -20.8322  -13.8866 O   0  0  0  0  0  0  0  0  0  0  0  0
   20.0147  -24.0852   -8.6453 O   0  0  0  0  0  0  0  0  0  0  0  0
  2  1  1  1
  2  3  1  0
  3  4  1  0
  4  5  1  0
  5  9  1  0
  5  6  2  0
  7  2  1  0
  7  8  2  0
 10 11  1  0
 11 12  2  0
 13 11  1  0
 13 14  1  0
 14 15  1  0
 17 16  1  6
 16 15  1  0
 17 18  1  0
 18  7  1  0
 19 17  1  0
 20 19  2  0
 21 19  1  0
 22 27  1  0
 22 21  1  0
 23 24  1  0
 22 23  1  1
 24 25  1  0
 25 29  1  0
 25 26  2  0
 27 30  1  0
 28 27  2  0
M  END
$$$$
