ERE.pdb
     RDKit          3D

 30 29  0  0  1  0  0  0  0  0999 V2000
   25.1572  -22.4057  -14.3335 N   0  0  0  0  0  0  0  0  0  0  0  0
   23.8919  -22.5695  -15.0532 C   0  0  1  0  0  0  0  0  0  0  0  0
   23.7332  -23.9937  -15.5128 C   0  0  0  0  0  0  0  0  0  0  0  0
   23.6536  -25.0080  -14.4255 C   0  0  0  0  0  0  0  0  0  0  0  0
   22.5675  -26.0155  -14.7258 C   0  0  0  0  0  0  0  0  0  0  0  0
   21.8896  -25.8729  -15.7859 O   0  0  0  0  0  0  0  0  0  0  0  0
   22.7569  -22.1484  -14.1655 C   0  0  0  0  0  0  0  0  0  0  0  0
   22.9478  -21.8973  -12.9570 O   0  0  0  0  0  0  0  0  0  0  0  0
   22.3324  -27.0635  -13.8517 O   0  0  0  0  0  0  0  0  0  0  0  0
   15.6667  -18.0483  -16.6253 N   0  0  0  0  0  0  0  0  0  0  0  0
   17.0868  -17.9359  -16.4616 C   0  0  0  0  0  0  0  0  0  0  0  0
   17.7374  -17.0894  -17.1710 N   0  0  0  0  0  0  0  0  0  0  0  0
   17.7710  -18.7468  -15.5294 N   0  0  0  0  0  0  0  0  0  0  0  0
   17.1020  -19.6782  -14.6564 C   0  0  0  0  0  0  0  0  0  0  0  0
   18.0870  -20.4528  -13.7826 C   0  0  0  0  0  0  0  0  0  0  0  0
   19.2463  -20.8616  -14.6277 C   0  0  0  0  0  0  0  0  0  0  0  0
   20.2635  -21.6985  -13.9492 C   0  0  2  0  0  0  0  0  0  0  0  0
   21.4369  -22.0239  -14.6754 N   0  0  0  0  0  0  0  0  0  0  0  0
   19.6415  -22.8267  -13.1950 C   0  0  0  0  0  0  0  0  0  0  0  0
   19.3355  -23.8395  -13.8528 O   0  0  0  0  0  0  0  0  0  0  0  0
   18.7835  -17.0193  -17.0871 N   0  0  0  0  0  0  0  0  0  0  0  0
   19.3897  -22.7900  -11.8050 C   0  0  2  0  0  0  0  0  0  0  0  0
   18.8500  -23.8154  -10.9904 C   0  0  0  0  0  0  0  0  0  0  0  0
   18.9951  -23.7575   -9.5265 C   0  0  0  0  0  0  0  0  0  0  0  0
   18.4928  -24.8854   -8.7118 C   0  0  0  0  0  0  0  0  0  0  0  0
   18.7831  -24.8197   -7.2732 O   0  0  0  0  0  0  0  0  0  0  0  0
   19.9238  -25.0364   -6.8472 C   0  0  0  0  0  0  0  0  0  0  0  0
   17.4523  -24.2482  -11.3933 O   0  0  0  0  0  0  0  0  0  0  0  0
   16.4938  -23.4745  -11.5538 O   0  0  0  0  0  0  0  0  0  0  0  0
   17.7969  -24.5128   -6.3276 O   0  0  0  0  0  0  0  0  0  0  0  0
  2  1  1  1
  2  3  1  0
  3  4  1  0
  4  5  1  0
  5  9  1  0
  5  6  2  0
  7  2  1  0
  7  8  2  0
 10 11  1  0
 11 12  2  0
 13 11  1  0
 13 14  1  0
 14 15  1  0
 17 16  1  6
 16 15  1  0
 17 18  1  0
 18  7  1  0
 19 17  1  0
 20 19  2  0
 21 19  1  0
 22 27  1  0
 22 21  1  0
 23 24  1  0
 22 23  1  6
 24 25  1  0
 25 29  1  0
 25 26  2  0
 27 30  1  0
 28 27  2  0
M  END
$$$$
