ERE.pdb
     RDKit          3D

 30 29  0  0  1  0  0  0  0  0999 V2000
   19.4454  -11.2652  -17.8363 N   0  0  0  0  0  0  0  0  0  0  0  0
   18.6820  -10.7107  -16.7159 C   0  0  1  0  0  0  0  0  0  0  0  0
   17.7872  -11.7645  -16.1211 C   0  0  0  0  0  0  0  0  0  0  0  0
   18.2149  -13.1707  -16.3597 C   0  0  0  0  0  0  0  0  0  0  0  0
   17.2903  -14.1291  -15.6446 C   0  0  0  0  0  0  0  0  0  0  0  0
   17.7900  -15.1621  -15.1090 O   0  0  0  0  0  0  0  0  0  0  0  0
   19.6313  -10.1547  -15.6944 C   0  0  0  0  0  0  0  0  0  0  0  0
   19.2061   -9.6191  -14.6494 O   0  0  0  0  0  0  0  0  0  0  0  0
   15.9314  -13.8687  -15.5860 O   0  0  0  0  0  0  0  0  0  0  0  0
   27.8503  -12.9959  -15.6997 N   0  0  0  0  0  0  0  0  0  0  0  0
   27.7460  -11.8532  -16.5597 C   0  0  0  0  0  0  0  0  0  0  0  0
   28.7245  -11.5549  -17.3320 N   0  0  0  0  0  0  0  0  0  0  0  0
   26.5791  -11.0576  -16.5621 N   0  0  0  0  0  0  0  0  0  0  0  0
   25.5013  -11.2387  -15.6225 C   0  0  0  0  0  0  0  0  0  0  0  0
   24.3198  -10.3176  -15.9219 C   0  0  0  0  0  0  0  0  0  0  0  0
   23.2794  -10.5298  -14.8741 C   0  0  0  0  0  0  0  0  0  0  0  0
   22.0471   -9.7218  -15.0293 C   0  0  2  0  0  0  0  0  0  0  0  0
   21.0369  -10.2230  -15.8884 N   0  0  0  0  0  0  0  0  0  0  0  0
   22.3511   -8.2676  -15.1755 C   0  0  0  0  0  0  0  0  0  0  0  0
   22.8339   -7.9025  -16.2645 O   0  0  0  0  0  0  0  0  0  0  0  0
   28.6504  -10.7391  -17.9917 N   0  0  0  0  0  0  0  0  0  0  0  0
   22.1231   -7.3171  -14.1550 C   0  0  1  0  0  0  0  0  0  0  0  0
   22.1644   -5.9049  -14.2553 C   0  0  0  0  0  0  0  0  0  0  0  0
   21.3082   -5.2017  -15.2247 C   0  0  0  0  0  0  0  0  0  0  0  0
   19.9048   -4.9084  -14.8602 C   0  0  0  0  0  0  0  0  0  0  0  0
   19.1265   -4.1539  -15.8517 O   0  0  0  0  0  0  0  0  0  0  0  0
   18.6080   -4.7262  -16.8178 C   0  0  0  0  0  0  0  0  0  0  0  0
   22.1847   -5.1943  -12.9144 O   0  0  0  0  0  0  0  0  0  0  0  0
   22.4530   -3.9914  -12.7583 O   0  0  0  0  0  0  0  0  0  0  0  0
   18.9363   -2.7701  -15.7529 O   0  0  0  0  0  0  0  0  0  0  0  0
  2  1  1  6
  2  3  1  0
  3  4  1  0
  4  5  1  0
  5  9  1  0
  5  6  2  0
  7  2  1  0
  7  8  2  0
 10 11  1  0
 11 12  2  0
 13 11  1  0
 13 14  1  0
 14 15  1  0
 17 16  1  6
 16 15  1  0
 17 18  1  0
 18  7  1  0
 19 17  1  0
 20 19  2  0
 21 19  1  0
 22 27  1  0
 22 21  1  0
 23 24  1  0
 22 23  1  1
 24 25  1  0
 25 29  1  0
 25 26  2  0
 27 30  1  0
 28 27  2  0
M  END
$$$$
