ERE.pdb
     RDKit          3D

 30 29  0  0  1  0  0  0  0  0999 V2000
   27.3466  -22.6154  -16.7460 N   0  0  0  0  0  0  0  0  0  0  0  0
   27.4848  -21.4743  -15.8380 C   0  0  1  0  0  0  0  0  0  0  0  0
   27.4277  -20.1832  -16.6092 C   0  0  0  0  0  0  0  0  0  0  0  0
   26.0762  -19.7930  -17.0974 C   0  0  0  0  0  0  0  0  0  0  0  0
   26.1584  -18.5211  -17.9098 C   0  0  0  0  0  0  0  0  0  0  0  0
   27.2884  -17.9665  -18.0485 O   0  0  0  0  0  0  0  0  0  0  0  0
   26.4096  -21.5382  -14.7923 C   0  0  0  0  0  0  0  0  0  0  0  0
   25.3155  -22.0909  -15.0312 O   0  0  0  0  0  0  0  0  0  0  0  0
   25.0154  -17.9881  -18.4819 O   0  0  0  0  0  0  0  0  0  0  0  0
   27.6239  -19.2498   -6.5462 N   0  0  0  0  0  0  0  0  0  0  0  0
   28.1369  -20.0210   -7.6408 C   0  0  0  0  0  0  0  0  0  0  0  0
   29.3886  -20.2936   -7.6870 N   0  0  0  0  0  0  0  0  0  0  0  0
   27.2781  -20.4803   -8.6635 N   0  0  0  0  0  0  0  0  0  0  0  0
   25.8663  -20.1914   -8.6944 C   0  0  0  0  0  0  0  0  0  0  0  0
   25.2069  -20.6938   -9.9776 C   0  0  0  0  0  0  0  0  0  0  0  0
   26.1933  -20.5786  -11.0907 C   0  0  0  0  0  0  0  0  0  0  0  0
   25.6770  -20.9250  -12.4357 C   0  0  2  0  0  0  0  0  0  0  0  0
   26.6075  -20.9725  -13.5042 N   0  0  0  0  0  0  0  0  0  0  0  0
   24.3916  -20.2268  -12.7341 C   0  0  0  0  0  0  0  0  0  0  0  0
   24.4716  -19.1354  -13.3296 O   0  0  0  0  0  0  0  0  0  0  0  0
   29.7869  -20.8224   -8.5043 N   0  0  0  0  0  0  0  0  0  0  0  0
   23.1247  -20.7388  -12.3741 C   0  0  1  0  0  0  0  0  0  0  0  0
   21.8897  -20.5569  -13.0435 C   0  0  0  0  0  0  0  0  0  0  0  0
   21.7659  -20.8717  -14.4763 C   0  0  0  0  0  0  0  0  0  0  0  0
   20.4864  -20.5905  -15.1635 C   0  0  0  0  0  0  0  0  0  0  0  0
   20.4385  -20.9192  -16.5944 O   0  0  0  0  0  0  0  0  0  0  0  0
   19.3784  -20.8409  -17.2267 C   0  0  0  0  0  0  0  0  0  0  0  0
   20.6878  -21.0520  -12.2602 O   0  0  0  0  0  0  0  0  0  0  0  0
   19.6106  -20.4411  -12.1616 O   0  0  0  0  0  0  0  0  0  0  0  0
   21.5742  -21.3313  -17.3024 O   0  0  0  0  0  0  0  0  0  0  0  0
  2  1  1  6
  2  3  1  0
  3  4  1  0
  4  5  1  0
  5  9  1  0
  5  6  2  0
  7  2  1  0
  7  8  2  0
 10 11  1  0
 11 12  2  0
 13 11  1  0
 13 14  1  0
 14 15  1  0
 17 16  1  1
 16 15  1  0
 17 18  1  0
 18  7  1  0
 19 17  1  0
 20 19  2  0
 21 19  1  0
 22 27  1  0
 22 21  1  0
 23 24  1  0
 22 23  1  6
 24 25  1  0
 25 29  1  0
 25 26  2  0
 27 30  1  0
 28 27  2  0
M  END
$$$$
