ERE.pdb
     RDKit          3D

 30 29  0  0  1  0  0  0  0  0999 V2000
   18.9948  -21.0350  -11.3534 N   0  0  0  0  0  0  0  0  0  0  0  0
   20.0086  -21.6784  -12.1923 C   0  0  1  0  0  0  0  0  0  0  0  0
   19.4404  -22.9082  -12.8478 C   0  0  0  0  0  0  0  0  0  0  0  0
   18.1943  -22.6919  -13.6340 C   0  0  0  0  0  0  0  0  0  0  0  0
   17.6182  -24.0163  -14.0797 C   0  0  0  0  0  0  0  0  0  0  0  0
   16.5355  -24.0122  -14.7362 O   0  0  0  0  0  0  0  0  0  0  0  0
   20.5094  -20.6946  -13.2096 C   0  0  0  0  0  0  0  0  0  0  0  0
   19.7732  -19.7781  -13.6311 O   0  0  0  0  0  0  0  0  0  0  0  0
   18.2718  -25.1970  -13.7687 O   0  0  0  0  0  0  0  0  0  0  0  0
   27.6038  -21.6165  -14.8786 N   0  0  0  0  0  0  0  0  0  0  0  0
   26.9150  -21.9114  -16.1012 C   0  0  0  0  0  0  0  0  0  0  0  0
   27.0547  -23.0662  -16.6399 N   0  0  0  0  0  0  0  0  0  0  0  0
   26.0880  -20.9441  -16.7137 N   0  0  0  0  0  0  0  0  0  0  0  0
   25.9257  -19.6079  -16.1985 C   0  0  0  0  0  0  0  0  0  0  0  0
   24.4546  -19.2410  -16.0115 C   0  0  0  0  0  0  0  0  0  0  0  0
   23.8494  -20.1993  -15.0416 C   0  0  0  0  0  0  0  0  0  0  0  0
   22.4340  -19.9383  -14.6895 C   0  0  2  0  0  0  0  0  0  0  0  0
   21.8327  -20.7793  -13.7194 N   0  0  0  0  0  0  0  0  0  0  0  0
   21.6040  -19.6559  -15.8977 C   0  0  0  0  0  0  0  0  0  0  0  0
   21.1631  -20.6423  -16.5180 O   0  0  0  0  0  0  0  0  0  0  0  0
   26.6569  -23.2582  -17.5945 N   0  0  0  0  0  0  0  0  0  0  0  0
   21.3107  -18.3512  -16.3545 C   0  0  1  0  0  0  0  0  0  0  0  0
   20.4451  -17.9719  -17.4094 C   0  0  0  0  0  0  0  0  0  0  0  0
   19.0172  -17.7255  -17.1490 C   0  0  0  0  0  0  0  0  0  0  0  0
   18.6177  -16.4686  -16.4791 C   0  0  0  0  0  0  0  0  0  0  0  0
   17.4199  -16.5433  -15.6320 O   0  0  0  0  0  0  0  0  0  0  0  0
   16.5104  -17.3405  -15.8907 C   0  0  0  0  0  0  0  0  0  0  0  0
   21.0298  -16.9219  -18.3363 O   0  0  0  0  0  0  0  0  0  0  0  0
   22.0942  -16.3151  -18.1313 O   0  0  0  0  0  0  0  0  0  0  0  0
   17.2517  -15.7275  -14.5063 O   0  0  0  0  0  0  0  0  0  0  0  0
  2  1  1  6
  2  3  1  0
  3  4  1  0
  4  5  1  0
  5  9  1  0
  5  6  2  0
  7  2  1  0
  7  8  2  0
 10 11  1  0
 11 12  2  0
 13 11  1  0
 13 14  1  0
 14 15  1  0
 17 16  1  6
 16 15  1  0
 17 18  1  0
 18  7  1  0
 19 17  1  0
 20 19  2  0
 21 19  1  0
 22 27  1  0
 22 21  1  0
 23 24  1  0
 22 23  1  6
 24 25  1  0
 25 29  1  0
 25 26  2  0
 27 30  1  0
 28 27  2  0
M  END
$$$$
