ERE.pdb
     RDKit          3D

 30 29  0  0  1  0  0  0  0  0999 V2000
   26.3355  -17.1958  -19.9491 N   0  0  0  0  0  0  0  0  0  0  0  0
   25.8362  -16.5183  -18.7503 C   0  0  1  0  0  0  0  0  0  0  0  0
   24.7491  -15.5438  -19.1157 C   0  0  0  0  0  0  0  0  0  0  0  0
   23.5072  -16.1534  -19.6665 C   0  0  0  0  0  0  0  0  0  0  0  0
   22.4798  -15.0827  -19.9544 C   0  0  0  0  0  0  0  0  0  0  0  0
   21.8121  -14.6124  -18.9867 O   0  0  0  0  0  0  0  0  0  0  0  0
   25.3489  -17.5425  -17.7670 C   0  0  0  0  0  0  0  0  0  0  0  0
   24.6455  -18.5048  -18.1398 O   0  0  0  0  0  0  0  0  0  0  0  0
   22.2859  -14.6381  -21.2516 O   0  0  0  0  0  0  0  0  0  0  0  0
   25.4943  -21.7236  -12.4360 N   0  0  0  0  0  0  0  0  0  0  0  0
   26.8642  -21.5207  -12.0643 C   0  0  0  0  0  0  0  0  0  0  0  0
   27.2472  -21.8264  -10.8799 N   0  0  0  0  0  0  0  0  0  0  0  0
   27.7903  -20.9891  -12.9886 N   0  0  0  0  0  0  0  0  0  0  0  0
   27.4179  -20.5427  -14.3074 C   0  0  0  0  0  0  0  0  0  0  0  0
   27.5104  -19.0240  -14.4453 C   0  0  0  0  0  0  0  0  0  0  0  0
   26.1643  -18.4428  -14.1703 C   0  0  0  0  0  0  0  0  0  0  0  0
   25.2725  -18.3203  -15.3472 C   0  0  2  0  0  0  0  0  0  0  0  0
   25.6745  -17.4453  -16.3876 N   0  0  0  0  0  0  0  0  0  0  0  0
   23.8367  -18.2276  -14.9489 C   0  0  0  0  0  0  0  0  0  0  0  0
   23.4340  -17.1152  -14.5583 O   0  0  0  0  0  0  0  0  0  0  0  0
   28.2505  -21.6905  -10.5948 N   0  0  0  0  0  0  0  0  0  0  0  0
   22.9435  -19.3217  -14.9926 C   0  0  1  0  0  0  0  0  0  0  0  0
   21.5668  -19.3358  -14.6599 C   0  0  0  0  0  0  0  0  0  0  0  0
   20.5466  -19.1367  -15.7025 C   0  0  0  0  0  0  0  0  0  0  0  0
   20.7359  -18.0539  -16.6924 C   0  0  0  0  0  0  0  0  0  0  0  0
   19.5990  -17.1413  -16.8733 O   0  0  0  0  0  0  0  0  0  0  0  0
   18.5957  -17.2300  -16.1556 C   0  0  0  0  0  0  0  0  0  0  0  0
   21.1766  -20.4505  -13.7067 O   0  0  0  0  0  0  0  0  0  0  0  0
   21.8900  -21.4320  -13.4406 O   0  0  0  0  0  0  0  0  0  0  0  0
   19.5958  -16.1406  -17.8529 O   0  0  0  0  0  0  0  0  0  0  0  0
  2  1  1  6
  2  3  1  0
  3  4  1  0
  4  5  1  0
  5  9  1  0
  5  6  2  0
  7  2  1  0
  7  8  2  0
 10 11  1  0
 11 12  2  0
 13 11  1  0
 13 14  1  0
 14 15  1  0
 17 16  1  1
 16 15  1  0
 17 18  1  0
 18  7  1  0
 19 17  1  0
 20 19  2  0
 21 19  1  0
 22 27  1  0
 22 21  1  0
 23 24  1  0
 22 23  1  1
 24 25  1  0
 25 29  1  0
 25 26  2  0
 27 30  1  0
 28 27  2  0
M  END
$$$$
