ERE.pdb
     RDKit          3D

 30 29  0  0  1  0  0  0  0  0999 V2000
   24.2871  -17.5688  -20.4915 N   0  0  0  0  0  0  0  0  0  0  0  0
   24.7674  -17.1232  -19.1814 C   0  0  1  0  0  0  0  0  0  0  0  0
   24.1007  -15.8312  -18.7925 C   0  0  0  0  0  0  0  0  0  0  0  0
   22.8358  -15.9754  -18.0201 C   0  0  0  0  0  0  0  0  0  0  0  0
   22.2886  -14.6158  -17.6502 C   0  0  0  0  0  0  0  0  0  0  0  0
   22.9239  -13.5874  -18.0275 O   0  0  0  0  0  0  0  0  0  0  0  0
   24.5142  -18.1999  -18.1665 C   0  0  0  0  0  0  0  0  0  0  0  0
   23.3668  -18.6625  -17.9959 O   0  0  0  0  0  0  0  0  0  0  0  0
   21.1190  -14.5150  -16.9155 O   0  0  0  0  0  0  0  0  0  0  0  0
   28.3353  -24.5241  -16.8914 N   0  0  0  0  0  0  0  0  0  0  0  0
   29.2143  -23.6379  -17.5971 C   0  0  0  0  0  0  0  0  0  0  0  0
   29.6536  -23.9753  -18.7531 N   0  0  0  0  0  0  0  0  0  0  0  0
   29.5981  -22.4022  -17.0311 N   0  0  0  0  0  0  0  0  0  0  0  0
   28.7599  -21.6570  -16.1259 C   0  0  0  0  0  0  0  0  0  0  0  0
   27.4583  -21.2088  -16.7885 C   0  0  0  0  0  0  0  0  0  0  0  0
   26.7455  -20.2904  -15.8536 C   0  0  0  0  0  0  0  0  0  0  0  0
   25.4802  -19.7164  -16.3683 C   0  0  2  0  0  0  0  0  0  0  0  0
   25.5716  -18.7211  -17.3738 N   0  0  0  0  0  0  0  0  0  0  0  0
   24.5118  -19.4311  -15.2686 C   0  0  0  0  0  0  0  0  0  0  0  0
   24.7387  -18.4259  -14.5684 O   0  0  0  0  0  0  0  0  0  0  0  0
   30.4136  -23.4150  -19.2164 N   0  0  0  0  0  0  0  0  0  0  0  0
   23.3826  -20.2358  -14.9961 C   0  0  2  0  0  0  0  0  0  0  0  0
   22.4444  -20.0926  -13.9447 C   0  0  0  0  0  0  0  0  0  0  0  0
   21.0279  -19.8232  -14.2421 C   0  0  0  0  0  0  0  0  0  0  0  0
   20.4998  -18.4570  -14.0347 C   0  0  0  0  0  0  0  0  0  0  0  0
   19.0684  -18.2719  -14.3085 O   0  0  0  0  0  0  0  0  0  0  0  0
   18.6045  -18.4985  -15.4324 C   0  0  0  0  0  0  0  0  0  0  0  0
   22.5938  -21.1259  -12.8432 O   0  0  0  0  0  0  0  0  0  0  0  0
   23.3490  -22.1107  -12.8986 O   0  0  0  0  0  0  0  0  0  0  0  0
   18.1722  -17.8361  -13.3248 O   0  0  0  0  0  0  0  0  0  0  0  0
  2  1  1  6
  2  3  1  0
  3  4  1  0
  4  5  1  0
  5  9  1  0
  5  6  2  0
  7  2  1  0
  7  8  2  0
 10 11  1  0
 11 12  2  0
 13 11  1  0
 13 14  1  0
 14 15  1  0
 17 16  1  1
 16 15  1  0
 17 18  1  0
 18  7  1  0
 19 17  1  0
 20 19  2  0
 21 19  1  0
 22 27  1  0
 22 21  1  0
 23 24  1  0
 22 23  1  6
 24 25  1  0
 25 29  1  0
 25 26  2  0
 27 30  1  0
 28 27  2  0
M  END
$$$$
