ERE.pdb
     RDKit          3D

 30 29  0  0  1  0  0  0  0  0999 V2000
   21.5370  -21.2003  -14.2233 N   0  0  0  0  0  0  0  0  0  0  0  0
   21.1043  -19.8580  -14.6190 C   0  0  1  0  0  0  0  0  0  0  0  0
   20.4129  -19.1726  -13.4713 C   0  0  0  0  0  0  0  0  0  0  0  0
   20.3831  -19.9410  -12.1962 C   0  0  0  0  0  0  0  0  0  0  0  0
   19.1583  -20.8253  -12.1447 C   0  0  0  0  0  0  0  0  0  0  0  0
   18.2549  -20.5550  -11.2995 O   0  0  0  0  0  0  0  0  0  0  0  0
   22.2922  -19.0725  -15.0937 C   0  0  0  0  0  0  0  0  0  0  0  0
   22.1842  -17.8642  -15.3904 O   0  0  0  0  0  0  0  0  0  0  0  0
   19.0429  -21.9016  -13.0084 O   0  0  0  0  0  0  0  0  0  0  0  0
   27.7825  -23.2925  -16.2659 N   0  0  0  0  0  0  0  0  0  0  0  0
   28.9844  -22.5590  -16.5371 C   0  0  0  0  0  0  0  0  0  0  0  0
   29.8673  -23.0632  -17.3176 N   0  0  0  0  0  0  0  0  0  0  0  0
   29.2020  -21.2914  -15.9536 N   0  0  0  0  0  0  0  0  0  0  0  0
   28.2084  -20.6071  -15.1651 C   0  0  0  0  0  0  0  0  0  0  0  0
   26.9937  -20.2035  -15.9992 C   0  0  0  0  0  0  0  0  0  0  0  0
   26.0389  -19.4709  -15.1176 C   0  0  0  0  0  0  0  0  0  0  0  0
   24.7496  -19.1003  -15.7467 C   0  0  2  0  0  0  0  0  0  0  0  0
   23.5697  -19.6815  -15.2178 N   0  0  0  0  0  0  0  0  0  0  0  0
   24.8437  -19.0808  -17.2365 C   0  0  0  0  0  0  0  0  0  0  0  0
   24.6226  -20.1557  -17.8263 O   0  0  0  0  0  0  0  0  0  0  0  0
   30.7713  -22.5556  -17.4948 N   0  0  0  0  0  0  0  0  0  0  0  0
   25.1685  -17.9251  -17.9820 C   0  0  1  0  0  0  0  0  0  0  0  0
   24.4576  -17.3624  -19.0701 C   0  0  0  0  0  0  0  0  0  0  0  0
   23.0249  -17.6489  -19.2516 C   0  0  0  0  0  0  0  0  0  0  0  0
   22.3266  -17.0909  -20.4302 C   0  0  0  0  0  0  0  0  0  0  0  0
   20.9017  -17.4265  -20.5526 O   0  0  0  0  0  0  0  0  0  0  0  0
   20.2360  -17.0204  -21.5126 C   0  0  0  0  0  0  0  0  0  0  0  0
   24.7658  -15.8963  -19.3128 O   0  0  0  0  0  0  0  0  0  0  0  0
   24.6608  -15.0029  -18.4561 O   0  0  0  0  0  0  0  0  0  0  0  0
   20.2370  -18.2113  -19.6023 O   0  0  0  0  0  0  0  0  0  0  0  0
  2  1  1  1
  2  3  1  0
  3  4  1  0
  4  5  1  0
  5  9  1  0
  5  6  2  0
  7  2  1  0
  7  8  2  0
 10 11  1  0
 11 12  2  0
 13 11  1  0
 13 14  1  0
 14 15  1  0
 17 16  1  1
 16 15  1  0
 17 18  1  0
 18  7  1  0
 19 17  1  0
 20 19  2  0
 21 19  1  0
 22 27  1  0
 22 21  1  0
 23 24  1  0
 22 23  1  6
 24 25  1  0
 25 29  1  0
 25 26  2  0
 27 30  1  0
 28 27  2  0
M  END
$$$$
