ERE.pdb
     RDKit          3D

 30 29  0  0  1  0  0  0  0  0999 V2000
   27.9864  -20.8785  -18.8229 N   0  0  0  0  0  0  0  0  0  0  0  0
   27.6038  -19.8575  -17.8448 C   0  0  1  0  0  0  0  0  0  0  0  0
   27.1772  -18.5961  -18.5462 C   0  0  0  0  0  0  0  0  0  0  0  0
   26.6484  -17.5230  -17.6596 C   0  0  0  0  0  0  0  0  0  0  0  0
   26.2047  -16.3344  -18.4812 C   0  0  0  0  0  0  0  0  0  0  0  0
   25.1222  -15.7562  -18.1690 O   0  0  0  0  0  0  0  0  0  0  0  0
   26.5113  -20.3948  -16.9666 C   0  0  0  0  0  0  0  0  0  0  0  0
   25.4922  -20.9209  -17.4612 O   0  0  0  0  0  0  0  0  0  0  0  0
   26.9756  -15.9011  -19.5470 O   0  0  0  0  0  0  0  0  0  0  0  0
   26.3698  -19.6650   -8.6014 N   0  0  0  0  0  0  0  0  0  0  0  0
   25.4040  -20.7031   -8.8153 C   0  0  0  0  0  0  0  0  0  0  0  0
   24.4087  -20.8117   -8.0149 N   0  0  0  0  0  0  0  0  0  0  0  0
   25.5403  -21.6025   -9.8956 N   0  0  0  0  0  0  0  0  0  0  0  0
   26.5216  -21.4371  -10.9382 C   0  0  0  0  0  0  0  0  0  0  0  0
   25.9778  -20.6260  -12.1130 C   0  0  0  0  0  0  0  0  0  0  0  0
   26.1855  -21.4112  -13.3643 C   0  0  0  0  0  0  0  0  0  0  0  0
   25.6630  -20.7853  -14.6014 C   0  0  2  0  0  0  0  0  0  0  0  0
   26.6070  -20.3198  -15.5513 N   0  0  0  0  0  0  0  0  0  0  0  0
   24.5267  -19.8594  -14.3184 C   0  0  0  0  0  0  0  0  0  0  0  0
   24.8217  -18.7048  -13.9549 O   0  0  0  0  0  0  0  0  0  0  0  0
   23.6854  -21.5604   -8.1658 N   0  0  0  0  0  0  0  0  0  0  0  0
   23.1690  -20.2318  -14.4392 C   0  0  1  0  0  0  0  0  0  0  0  0
   22.0233  -19.4218  -14.2460 C   0  0  0  0  0  0  0  0  0  0  0  0
   21.4307  -18.6882  -15.3766 C   0  0  0  0  0  0  0  0  0  0  0  0
   20.3166  -17.7504  -15.1168 C   0  0  0  0  0  0  0  0  0  0  0  0
   19.6260  -17.2270  -16.3030 O   0  0  0  0  0  0  0  0  0  0  0  0
   20.2604  -16.9093  -17.3160 C   0  0  0  0  0  0  0  0  0  0  0  0
   20.9553  -20.0648  -13.3803 O   0  0  0  0  0  0  0  0  0  0  0  0
   20.8554  -21.2859  -13.1751 O   0  0  0  0  0  0  0  0  0  0  0  0
   18.2357  -17.0647  -16.3443 O   0  0  0  0  0  0  0  0  0  0  0  0
  2  1  1  6
  2  3  1  0
  3  4  1  0
  4  5  1  0
  5  9  1  0
  5  6  2  0
  7  2  1  0
  7  8  2  0
 10 11  1  0
 11 12  2  0
 13 11  1  0
 13 14  1  0
 14 15  1  0
 17 16  1  1
 16 15  1  0
 17 18  1  0
 18  7  1  0
 19 17  1  0
 20 19  2  0
 21 19  1  0
 22 27  1  0
 22 21  1  0
 23 24  1  0
 22 23  1  6
 24 25  1  0
 25 29  1  0
 25 26  2  0
 27 30  1  0
 28 27  2  0
M  END
$$$$
