ERE.pdb
     RDKit          3D

 30 29  0  0  1  0  0  0  0  0999 V2000
   28.2121  -22.3529  -17.1452 N   0  0  0  0  0  0  0  0  0  0  0  0
   28.1911  -21.3389  -16.0884 C   0  0  1  0  0  0  0  0  0  0  0  0
   28.2917  -19.9608  -16.6847 C   0  0  0  0  0  0  0  0  0  0  0  0
   27.1871  -19.5860  -17.6103 C   0  0  0  0  0  0  0  0  0  0  0  0
   27.3628  -18.1629  -18.0883 C   0  0  0  0  0  0  0  0  0  0  0  0
   26.4339  -17.6368  -18.7694 O   0  0  0  0  0  0  0  0  0  0  0  0
   26.9398  -21.4957  -15.2739 C   0  0  0  0  0  0  0  0  0  0  0  0
   25.9211  -22.0296  -15.7607 O   0  0  0  0  0  0  0  0  0  0  0  0
   28.5187  -17.4652  -17.7800 O   0  0  0  0  0  0  0  0  0  0  0  0
   22.0924  -21.2718   -7.2827 N   0  0  0  0  0  0  0  0  0  0  0  0
   23.0301  -20.7711   -8.2450 C   0  0  0  0  0  0  0  0  0  0  0  0
   22.6653  -19.8520   -9.0606 N   0  0  0  0  0  0  0  0  0  0  0  0
   24.3462  -21.2804   -8.3010 N   0  0  0  0  0  0  0  0  0  0  0  0
   25.3179  -20.8446   -9.2722 C   0  0  0  0  0  0  0  0  0  0  0  0
   24.9168  -21.2282  -10.6955 C   0  0  0  0  0  0  0  0  0  0  0  0
   25.9993  -20.7910  -11.6243 C   0  0  0  0  0  0  0  0  0  0  0  0
   25.7633  -21.0833  -13.0576 C   0  0  2  0  0  0  0  0  0  0  0  0
   26.8807  -21.0418  -13.9291 N   0  0  0  0  0  0  0  0  0  0  0  0
   24.5282  -20.4154  -13.5647 C   0  0  0  0  0  0  0  0  0  0  0  0
   24.5774  -19.1785  -13.7057 O   0  0  0  0  0  0  0  0  0  0  0  0
   23.3326  -19.4948   -9.7909 N   0  0  0  0  0  0  0  0  0  0  0  0
   23.3387  -21.1108  -13.8782 C   0  0  1  0  0  0  0  0  0  0  0  0
   22.1362  -20.5839  -14.4097 C   0  0  0  0  0  0  0  0  0  0  0  0
   21.9706  -20.4271  -15.8642 C   0  0  0  0  0  0  0  0  0  0  0  0
   20.7490  -19.7712  -16.3794 C   0  0  0  0  0  0  0  0  0  0  0  0
   20.9180  -18.9548  -17.5889 O   0  0  0  0  0  0  0  0  0  0  0  0
   21.9332  -19.0610  -18.2874 C   0  0  0  0  0  0  0  0  0  0  0  0
   20.8820  -21.1451  -13.7653 O   0  0  0  0  0  0  0  0  0  0  0  0
   20.8426  -22.1865  -13.0891 O   0  0  0  0  0  0  0  0  0  0  0  0
   19.9522  -18.0299  -18.0043 O   0  0  0  0  0  0  0  0  0  0  0  0
  2  1  1  6
  2  3  1  0
  3  4  1  0
  4  5  1  0
  5  9  1  0
  5  6  2  0
  7  2  1  0
  7  8  2  0
 10 11  1  0
 11 12  2  0
 13 11  1  0
 13 14  1  0
 14 15  1  0
 17 16  1  1
 16 15  1  0
 17 18  1  0
 18  7  1  0
 19 17  1  0
 20 19  2  0
 21 19  1  0
 22 27  1  0
 22 21  1  0
 23 24  1  0
 22 23  1  1
 24 25  1  0
 25 29  1  0
 25 26  2  0
 27 30  1  0
 28 27  2  0
M  END
$$$$
