ERE.pdb
     RDKit          3D

 30 29  0  0  1  0  0  0  0  0999 V2000
   28.1072  -22.7726  -17.6639 N   0  0  0  0  0  0  0  0  0  0  0  0
   28.2269  -21.9160  -16.4818 C   0  0  1  0  0  0  0  0  0  0  0  0
   28.5198  -20.4979  -16.8919 C   0  0  0  0  0  0  0  0  0  0  0  0
   27.4541  -19.8342  -17.6927 C   0  0  0  0  0  0  0  0  0  0  0  0
   27.6650  -20.0960  -19.1664 C   0  0  0  0  0  0  0  0  0  0  0  0
   26.6755  -20.4771  -19.8585 O   0  0  0  0  0  0  0  0  0  0  0  0
   26.9651  -22.0052  -15.6733 C   0  0  0  0  0  0  0  0  0  0  0  0
   26.2751  -23.0462  -15.6754 O   0  0  0  0  0  0  0  0  0  0  0  0
   28.9173  -19.9185  -19.7303 O   0  0  0  0  0  0  0  0  0  0  0  0
   23.0585  -21.8867   -9.5366 N   0  0  0  0  0  0  0  0  0  0  0  0
   22.9978  -20.5120   -9.1333 C   0  0  0  0  0  0  0  0  0  0  0  0
   21.9277  -20.0619   -8.5897 N   0  0  0  0  0  0  0  0  0  0  0  0
   24.1024  -19.6541   -9.3295 N   0  0  0  0  0  0  0  0  0  0  0  0
   25.1733  -19.9478  -10.2484 C   0  0  0  0  0  0  0  0  0  0  0  0
   24.6508  -20.3927  -11.6133 C   0  0  0  0  0  0  0  0  0  0  0  0
   25.8127  -20.5419  -12.5370 C   0  0  0  0  0  0  0  0  0  0  0  0
   25.4726  -20.9065  -13.9323 C   0  0  2  0  0  0  0  0  0  0  0  0
   26.5225  -20.9095  -14.8849 N   0  0  0  0  0  0  0  0  0  0  0  0
   24.2012  -20.2648  -14.3799 C   0  0  0  0  0  0  0  0  0  0  0  0
   24.2040  -19.0228  -14.4772 O   0  0  0  0  0  0  0  0  0  0  0  0
   21.8327  -19.0369   -8.3737 N   0  0  0  0  0  0  0  0  0  0  0  0
   23.0273  -20.9900  -14.6848 C   0  0  2  0  0  0  0  0  0  0  0  0
   21.6918  -20.5183  -14.7012 C   0  0  0  0  0  0  0  0  0  0  0  0
   20.6121  -21.3178  -14.0991 C   0  0  0  0  0  0  0  0  0  0  0  0
   19.2168  -20.8407  -14.2163 C   0  0  0  0  0  0  0  0  0  0  0  0
   18.1847  -21.7279  -13.6634 O   0  0  0  0  0  0  0  0  0  0  0  0
   18.3690  -22.3252  -12.5962 C   0  0  0  0  0  0  0  0  0  0  0  0
   21.5555  -19.0478  -14.3510 O   0  0  0  0  0  0  0  0  0  0  0  0
   21.8227  -18.5603  -13.2401 O   0  0  0  0  0  0  0  0  0  0  0  0
   16.9595  -21.9376  -14.3082 O   0  0  0  0  0  0  0  0  0  0  0  0
  2  1  1  6
  2  3  1  0
  3  4  1  0
  4  5  1  0
  5  9  1  0
  5  6  2  0
  7  2  1  0
  7  8  2  0
 10 11  1  0
 11 12  2  0
 13 11  1  0
 13 14  1  0
 14 15  1  0
 17 16  1  1
 16 15  1  0
 17 18  1  0
 18  7  1  0
 19 17  1  0
 20 19  2  0
 21 19  1  0
 22 27  1  0
 22 21  1  0
 23 24  1  0
 22 23  1  1
 24 25  1  0
 25 29  1  0
 25 26  2  0
 27 30  1  0
 28 27  2  0
M  END
$$$$
