ERE.pdb
     RDKit          3D

 30 29  0  0  1  0  0  0  0  0999 V2000
   22.5627  -19.9811   -7.3103 N   0  0  0  0  0  0  0  0  0  0  0  0
   22.9055  -21.0938   -8.1992 C   0  0  1  0  0  0  0  0  0  0  0  0
   21.8532  -22.1670   -8.1224 C   0  0  0  0  0  0  0  0  0  0  0  0
   20.5392  -21.7313   -7.5739 C   0  0  0  0  0  0  0  0  0  0  0  0
   19.5638  -22.8860   -7.5684 C   0  0  0  0  0  0  0  0  0  0  0  0
   18.7009  -22.9505   -8.4929 O   0  0  0  0  0  0  0  0  0  0  0  0
   23.0653  -20.5795   -9.6005 C   0  0  0  0  0  0  0  0  0  0  0  0
   22.4649  -19.5515   -9.9780 O   0  0  0  0  0  0  0  0  0  0  0  0
   19.6261  -23.8420   -6.5683 O   0  0  0  0  0  0  0  0  0  0  0  0
   28.7350  -23.0339  -16.1850 N   0  0  0  0  0  0  0  0  0  0  0  0
   28.0572  -21.8577  -16.6468 C   0  0  0  0  0  0  0  0  0  0  0  0
   28.3077  -21.4064  -17.8201 N   0  0  0  0  0  0  0  0  0  0  0  0
   27.1205  -21.1957  -15.8229 N   0  0  0  0  0  0  0  0  0  0  0  0
   26.7829  -21.6460  -14.4960 C   0  0  0  0  0  0  0  0  0  0  0  0
   25.7041  -20.7762  -13.8532 C   0  0  0  0  0  0  0  0  0  0  0  0
   25.4441  -21.2882  -12.4764 C   0  0  0  0  0  0  0  0  0  0  0  0
   24.1503  -20.8803  -11.8805 C   0  0  2  0  0  0  0  0  0  0  0  0
   23.9027  -21.2473  -10.5336 N   0  0  0  0  0  0  0  0  0  0  0  0
   23.0127  -21.0929  -12.8235 C   0  0  0  0  0  0  0  0  0  0  0  0
   22.6556  -22.2711  -13.0145 O   0  0  0  0  0  0  0  0  0  0  0  0
   27.7645  -20.5909  -18.2023 N   0  0  0  0  0  0  0  0  0  0  0  0
   22.3470  -20.0407  -13.4918 C   0  0  2  0  0  0  0  0  0  0  0  0
   21.1909  -20.1197  -14.3062 C   0  0  0  0  0  0  0  0  0  0  0  0
   19.8947  -19.6300  -13.8089 C   0  0  0  0  0  0  0  0  0  0  0  0
   18.6981  -19.7729  -14.6667 C   0  0  0  0  0  0  0  0  0  0  0  0
   17.4542  -19.1981  -14.1372 O   0  0  0  0  0  0  0  0  0  0  0  0
   16.4840  -18.9981  -14.8777 C   0  0  0  0  0  0  0  0  0  0  0  0
   21.4253  -19.7054  -15.7473 O   0  0  0  0  0  0  0  0  0  0  0  0
   22.3108  -18.9174  -16.1188 O   0  0  0  0  0  0  0  0  0  0  0  0
   17.3082  -18.8534  -12.7879 O   0  0  0  0  0  0  0  0  0  0  0  0
  2  1  1  1
  2  3  1  0
  3  4  1  0
  4  5  1  0
  5  9  1  0
  5  6  2  0
  7  2  1  0
  7  8  2  0
 10 11  1  0
 11 12  2  0
 13 11  1  0
 13 14  1  0
 14 15  1  0
 17 16  1  6
 16 15  1  0
 17 18  1  0
 18  7  1  0
 19 17  1  0
 20 19  2  0
 21 19  1  0
 22 27  1  0
 22 21  1  0
 23 24  1  0
 22 23  1  1
 24 25  1  0
 25 29  1  0
 25 26  2  0
 27 30  1  0
 28 27  2  0
M  END
$$$$
