ERE.pdb
     RDKit          3D

 30 29  0  0  1  0  0  0  0  0999 V2000
   27.1754  -21.6674  -17.3706 N   0  0  0  0  0  0  0  0  0  0  0  0
   27.5459  -20.9140  -16.1703 C   0  0  1  0  0  0  0  0  0  0  0  0
   27.4933  -19.4352  -16.4448 C   0  0  0  0  0  0  0  0  0  0  0  0
   26.2235  -18.9452  -17.0489 C   0  0  0  0  0  0  0  0  0  0  0  0
   26.5054  -18.2116  -18.3402 C   0  0  0  0  0  0  0  0  0  0  0  0
   25.5275  -17.7361  -18.9890 O   0  0  0  0  0  0  0  0  0  0  0  0
   26.6330  -21.2966  -15.0416 C   0  0  0  0  0  0  0  0  0  0  0  0
   25.5183  -21.8132  -15.2662 O   0  0  0  0  0  0  0  0  0  0  0  0
   27.8082  -18.0721  -18.7887 O   0  0  0  0  0  0  0  0  0  0  0  0
   27.5600  -19.8175   -6.1333 N   0  0  0  0  0  0  0  0  0  0  0  0
   26.2195  -20.2808   -6.3440 C   0  0  0  0  0  0  0  0  0  0  0  0
   25.4037  -20.3185   -5.3560 N   0  0  0  0  0  0  0  0  0  0  0  0
   25.7931  -20.6941   -7.6254 N   0  0  0  0  0  0  0  0  0  0  0  0
   26.5683  -20.4763   -8.8208 C   0  0  0  0  0  0  0  0  0  0  0  0
   25.8930  -21.0679  -10.0569 C   0  0  0  0  0  0  0  0  0  0  0  0
   26.7955  -20.8686  -11.2279 C   0  0  0  0  0  0  0  0  0  0  0  0
   26.1617  -21.0434  -12.5557 C   0  0  2  0  0  0  0  0  0  0  0  0
   27.0120  -21.0820  -13.6894 N   0  0  0  0  0  0  0  0  0  0  0  0
   24.9356  -20.2042  -12.7008 C   0  0  0  0  0  0  0  0  0  0  0  0
   25.1040  -18.9712  -12.7598 O   0  0  0  0  0  0  0  0  0  0  0  0
   24.4243  -20.6779   -5.4897 N   0  0  0  0  0  0  0  0  0  0  0  0
   23.6290  -20.7381  -12.7678 C   0  0  2  0  0  0  0  0  0  0  0  0
   22.4118  -20.0399  -12.9605 C   0  0  0  0  0  0  0  0  0  0  0  0
   22.0447  -19.5373  -14.2947 C   0  0  0  0  0  0  0  0  0  0  0  0
   20.8488  -20.0926  -14.9653 C   0  0  0  0  0  0  0  0  0  0  0  0
   20.7888  -19.9182  -16.4226 O   0  0  0  0  0  0  0  0  0  0  0  0
   19.7271  -20.0793  -17.0361 C   0  0  0  0  0  0  0  0  0  0  0  0
   21.2236  -20.6717  -12.2588 O   0  0  0  0  0  0  0  0  0  0  0  0
   20.1946  -20.0602  -11.9265 O   0  0  0  0  0  0  0  0  0  0  0  0
   21.9144  -19.5662  -17.1776 O   0  0  0  0  0  0  0  0  0  0  0  0
  2  1  1  6
  2  3  1  0
  3  4  1  0
  4  5  1  0
  5  9  1  0
  5  6  2  0
  7  2  1  0
  7  8  2  0
 10 11  1  0
 11 12  2  0
 13 11  1  0
 13 14  1  0
 14 15  1  0
 17 16  1  1
 16 15  1  0
 17 18  1  0
 18  7  1  0
 19 17  1  0
 20 19  2  0
 21 19  1  0
 22 27  1  0
 22 21  1  0
 23 24  1  0
 22 23  1  1
 24 25  1  0
 25 29  1  0
 25 26  2  0
 27 30  1  0
 28 27  2  0
M  END
$$$$
