ERE.pdb
     RDKit          3D

 30 29  0  0  1  0  0  0  0  0999 V2000
   28.9862  -21.2930  -17.2672 N   0  0  0  0  0  0  0  0  0  0  0  0
   27.6553  -21.2597  -17.8779 C   0  0  1  0  0  0  0  0  0  0  0  0
   27.5565  -22.2887  -18.9717 C   0  0  0  0  0  0  0  0  0  0  0  0
   28.6660  -22.2700  -19.9647 C   0  0  0  0  0  0  0  0  0  0  0  0
   28.4721  -21.1377  -20.9471 C   0  0  0  0  0  0  0  0  0  0  0  0
   27.4740  -20.3731  -20.7962 O   0  0  0  0  0  0  0  0  0  0  0  0
   26.6161  -21.4827  -16.8177 C   0  0  0  0  0  0  0  0  0  0  0  0
   25.5094  -21.9872  -17.1013 O   0  0  0  0  0  0  0  0  0  0  0  0
   29.3741  -20.9550  -21.9820 O   0  0  0  0  0  0  0  0  0  0  0  0
   23.7918  -19.8142  -10.0250 N   0  0  0  0  0  0  0  0  0  0  0  0
   24.3589  -20.7427   -9.0910 C   0  0  0  0  0  0  0  0  0  0  0  0
   23.8158  -20.8879   -7.9390 N   0  0  0  0  0  0  0  0  0  0  0  0
   25.5057  -21.4946   -9.4286 N   0  0  0  0  0  0  0  0  0  0  0  0
   26.3381  -21.1923  -10.5657 C   0  0  0  0  0  0  0  0  0  0  0  0
   25.5887  -21.3641  -11.8858 C   0  0  0  0  0  0  0  0  0  0  0  0
   26.5430  -21.1163  -13.0053 C   0  0  0  0  0  0  0  0  0  0  0  0
   25.9761  -21.2586  -14.3669 C   0  0  2  0  0  0  0  0  0  0  0  0
   26.8633  -21.1266  -15.4648 N   0  0  0  0  0  0  0  0  0  0  0  0
   24.6736  -20.5422  -14.5040 C   0  0  0  0  0  0  0  0  0  0  0  0
   24.7114  -19.2976  -14.4635 O   0  0  0  0  0  0  0  0  0  0  0  0
   24.2742  -21.4894   -7.2080 N   0  0  0  0  0  0  0  0  0  0  0  0
   23.4348  -21.2018  -14.6690 C   0  0  2  0  0  0  0  0  0  0  0  0
   22.1571  -20.6205  -14.8577 C   0  0  0  0  0  0  0  0  0  0  0  0
   21.2019  -21.2139  -15.8080 C   0  0  0  0  0  0  0  0  0  0  0  0
   19.9235  -20.5166  -16.0681 C   0  0  0  0  0  0  0  0  0  0  0  0
   18.9828  -21.2085  -16.9593 O   0  0  0  0  0  0  0  0  0  0  0  0
   17.8895  -20.7033  -17.2407 C   0  0  0  0  0  0  0  0  0  0  0  0
   21.4731  -20.2083  -13.5671 O   0  0  0  0  0  0  0  0  0  0  0  0
   20.8868  -19.1268  -13.3945 O   0  0  0  0  0  0  0  0  0  0  0  0
   19.2735  -22.4557  -17.5258 O   0  0  0  0  0  0  0  0  0  0  0  0
  2  1  1  1
  2  3  1  0
  3  4  1  0
  4  5  1  0
  5  9  1  0
  5  6  2  0
  7  2  1  0
  7  8  2  0
 10 11  1  0
 11 12  2  0
 13 11  1  0
 13 14  1  0
 14 15  1  0
 17 16  1  1
 16 15  1  0
 17 18  1  0
 18  7  1  0
 19 17  1  0
 20 19  2  0
 21 19  1  0
 22 27  1  0
 22 21  1  0
 23 24  1  0
 22 23  1  6
 24 25  1  0
 25 29  1  0
 25 26  2  0
 27 30  1  0
 28 27  2  0
M  END
$$$$
