GYM.pdb
     RDKit          3D

 25 25  0  0  1  0  0  0  0  0999 V2000
   25.7528  -25.3232  -16.0377 N   0  0  0  0  0  0  0  0  0  0  0  0
   25.9072  -23.8755  -16.1280 C   0  0  0  0  0  0  0  0  0  0  0  0
   24.8721  -23.2233  -15.2721 C   0  0  0  0  0  0  0  0  0  0  0  0
   24.0008  -23.9474  -14.7172 O   0  0  0  0  0  0  0  0  0  0  0  0
   24.2752  -20.9602   -7.6848 O   0  0  0  0  0  0  0  0  0  0  0  0
   24.3266  -20.7666   -9.0755 C   0  0  0  0  0  0  0  0  0  0  0  0
   23.2189  -20.3599   -9.7761 C   0  0  0  0  0  0  0  0  0  0  0  0
   23.2805  -20.1738  -11.1355 C   0  0  0  0  0  0  0  0  0  0  0  0
   24.4298  -20.3774  -11.8707 C   0  0  0  0  0  0  0  0  0  0  0  0
   24.4779  -20.2075  -13.3187 C   0  0  0  0  0  0  0  0  0  0  0  0
   23.8090  -21.2013  -14.1764 C   0  0  2  0  0  0  0  0  0  0  0  0
   24.8279  -21.8296  -15.0581 N   0  0  0  0  0  0  0  0  0  0  0  0
   22.7333  -20.7832  -15.0546 C   0  0  0  0  0  0  0  0  0  0  0  0
   22.9325  -20.4705  -16.2862 O   0  0  0  0  0  0  0  0  0  0  0  0
   25.5344  -20.7852  -11.1570 C   0  0  0  0  0  0  0  0  0  0  0  0
   25.4895  -20.9781   -9.7831 C   0  0  0  0  0  0  0  0  0  0  0  0
   19.7987  -24.4888  -18.6486 C   0  0  0  0  0  0  0  0  0  0  0  0
   19.3357  -22.7272  -18.8061 S   0  0  0  0  0  0  0  0  0  0  0  0
   20.5405  -21.7178  -17.8892 C   0  0  0  0  0  0  0  0  0  0  0  0
   20.5310  -22.0613  -16.4394 C   0  0  0  0  0  0  0  0  0  0  0  0
   20.2627  -20.8587  -15.5572 C   0  0  2  0  0  0  0  0  0  0  0  0
   21.3837  -20.6879  -14.6435 N   0  0  0  0  0  0  0  0  0  0  0  0
   18.9543  -20.9060  -14.8998 C   0  0  0  0  0  0  0  0  0  0  0  0
   18.8222  -21.5612  -13.8416 O   0  0  0  0  0  0  0  0  0  0  0  0
   17.8296  -20.2625  -15.3771 O   0  0  0  0  0  0  0  0  0  0  0  0
  1  2  1  0
  3 12  1  0
  3  2  1  0
  4  3  2  0
  6  5  1  0
  7  6  2  0
  8  7  1  0
  9  8  2  0
  9 15  1  0
 10  9  1  0
 11 10  1  6
 11 12  1  0
 13 14  2  0
 13 11  1  0
 15 16  2  0
 16  6  1  0
 18 17  1  0
 19 18  1  0
 20 19  1  0
 21 20  1  1
 21 22  1  0
 22 13  1  0
 23 21  1  0
 24 23  2  0
 25 23  1  0
M  END
$$$$
