GYM.pdb
     RDKit          3D

 25 25  0  0  1  0  0  0  0  0999 V2000
   27.2923  -23.1669  -17.6758 N   0  0  0  0  0  0  0  0  0  0  0  0
   26.9489  -21.8617  -17.1222 C   0  0  0  0  0  0  0  0  0  0  0  0
   26.6593  -22.0142  -15.6654 C   0  0  0  0  0  0  0  0  0  0  0  0
   26.3955  -23.1634  -15.2172 O   0  0  0  0  0  0  0  0  0  0  0  0
   26.8644  -20.1887   -6.8646 O   0  0  0  0  0  0  0  0  0  0  0  0
   26.9433  -20.1961   -8.2674 C   0  0  0  0  0  0  0  0  0  0  0  0
   27.7798  -21.0622   -8.9258 C   0  0  0  0  0  0  0  0  0  0  0  0
   27.8489  -21.0607  -10.2975 C   0  0  0  0  0  0  0  0  0  0  0  0
   27.1020  -20.2111  -11.0869 C   0  0  0  0  0  0  0  0  0  0  0  0
   27.2049  -20.1950  -12.5419 C   0  0  0  0  0  0  0  0  0  0  0  0
   26.3379  -21.0897  -13.3285 C   0  0  2  0  0  0  0  0  0  0  0  0
   26.6683  -20.9252  -14.7686 N   0  0  0  0  0  0  0  0  0  0  0  0
   24.8968  -20.9546  -13.2378 C   0  0  0  0  0  0  0  0  0  0  0  0
   24.2322  -20.1514  -13.9911 O   0  0  0  0  0  0  0  0  0  0  0  0
   26.2666  -19.3470  -10.4151 C   0  0  0  0  0  0  0  0  0  0  0  0
   26.1845  -19.3352   -9.0295 C   0  0  0  0  0  0  0  0  0  0  0  0
   22.6714  -21.7912   -7.4510 C   0  0  0  0  0  0  0  0  0  0  0  0
   21.1536  -21.3320   -8.3606 S   0  0  0  0  0  0  0  0  0  0  0  0
   21.6122  -20.7948  -10.0376 C   0  0  0  0  0  0  0  0  0  0  0  0
   22.2408  -21.9089  -10.8016 C   0  0  0  0  0  0  0  0  0  0  0  0
   22.6636  -21.4934  -12.1963 C   0  0  2  0  0  0  0  0  0  0  0  0
   24.1007  -21.6886  -12.3284 N   0  0  0  0  0  0  0  0  0  0  0  0
   22.2041  -20.1513  -12.5625 C   0  0  0  0  0  0  0  0  0  0  0  0
   21.0618  -20.0061  -13.0530 O   0  0  0  0  0  0  0  0  0  0  0  0
   22.9609  -19.0078  -12.4001 O   0  0  0  0  0  0  0  0  0  0  0  0
  1  2  1  0
  3 12  1  0
  3  2  1  0
  4  3  2  0
  6  5  1  0
  7  6  2  0
  8  7  1  0
  9  8  2  0
  9 15  1  0
 10  9  1  0
 11 10  1  1
 11 12  1  0
 13 14  2  0
 13 11  1  0
 15 16  2  0
 16  6  1  0
 18 17  1  0
 19 18  1  0
 20 19  1  0
 21 20  1  1
 21 22  1  0
 22 13  1  0
 23 21  1  0
 24 23  2  0
 25 23  1  0
M  END
$$$$
