GYM.pdb
     RDKit          3D

 25 25  0  0  1  0  0  0  0  0999 V2000
   28.3141  -18.9861  -15.3623 N   0  0  0  0  0  0  0  0  0  0  0  0
   27.4036  -18.4665  -14.3480 C   0  0  0  0  0  0  0  0  0  0  0  0
   26.6222  -19.6007  -13.7715 C   0  0  0  0  0  0  0  0  0  0  0  0
   26.6055  -20.7005  -14.3890 O   0  0  0  0  0  0  0  0  0  0  0  0
   30.8551  -21.6143   -8.9570 O   0  0  0  0  0  0  0  0  0  0  0  0
   29.5225  -21.4042   -9.3499 C   0  0  0  0  0  0  0  0  0  0  0  0
   29.1329  -21.5743  -10.6547 C   0  0  0  0  0  0  0  0  0  0  0  0
   27.8275  -21.3661  -11.0276 C   0  0  0  0  0  0  0  0  0  0  0  0
   26.8442  -20.9819  -10.1396 C   0  0  0  0  0  0  0  0  0  0  0  0
   25.4668  -20.7328  -10.5503 C   0  0  0  0  0  0  0  0  0  0  0  0
   25.1559  -20.6434  -11.9877 C   0  0  2  0  0  0  0  0  0  0  0  0
   25.9011  -19.4932  -12.5637 N   0  0  0  0  0  0  0  0  0  0  0  0
   23.7805  -20.4744  -12.4152 C   0  0  0  0  0  0  0  0  0  0  0  0
   23.1931  -19.3302  -12.4076 O   0  0  0  0  0  0  0  0  0  0  0  0
   27.2471  -20.8146   -8.8336 C   0  0  0  0  0  0  0  0  0  0  0  0
   28.5621  -21.0207   -8.4398 C   0  0  0  0  0  0  0  0  0  0  0  0
   22.1483  -25.2258  -16.0106 C   0  0  0  0  0  0  0  0  0  0  0  0
   20.5934  -24.9666  -15.0847 S   0  0  0  0  0  0  0  0  0  0  0  0
   20.8669  -23.6852  -13.8220 C   0  0  0  0  0  0  0  0  0  0  0  0
   21.3543  -22.4208  -14.4416 C   0  0  0  0  0  0  0  0  0  0  0  0
   21.6335  -21.3396  -13.4172 C   0  0  2  0  0  0  0  0  0  0  0  0
   22.9720  -21.5379  -12.8788 N   0  0  0  0  0  0  0  0  0  0  0  0
   20.5871  -21.2268  -12.3979 C   0  0  0  0  0  0  0  0  0  0  0  0
   20.8411  -21.5587  -11.2181 O   0  0  0  0  0  0  0  0  0  0  0  0
   19.3099  -20.7687  -12.6537 O   0  0  0  0  0  0  0  0  0  0  0  0
  1  2  1  0
  3 12  1  0
  3  2  1  0
  4  3  2  0
  6  5  1  0
  7  6  2  0
  8  7  1  0
  9  8  2  0
  9 15  1  0
 10  9  1  0
 11 10  1  1
 11 12  1  0
 13 14  2  0
 13 11  1  0
 15 16  2  0
 16  6  1  0
 18 17  1  0
 19 18  1  0
 20 19  1  0
 21 20  1  6
 21 22  1  0
 22 13  1  0
 23 21  1  0
 24 23  2  0
 25 23  1  0
M  END
$$$$
