GYM.pdb
     RDKit          3D

 25 25  0  0  1  0  0  0  0  0999 V2000
   23.2226  -10.0308  -20.2910 N   0  0  0  0  0  0  0  0  0  0  0  0
   23.8131   -9.5043  -19.0654 C   0  0  0  0  0  0  0  0  0  0  0  0
   22.7325   -9.3013  -18.0552 C   0  0  0  0  0  0  0  0  0  0  0  0
   21.5655   -9.6944  -18.3290 O   0  0  0  0  0  0  0  0  0  0  0  0
   22.5034  -14.9255  -14.6014 O   0  0  0  0  0  0  0  0  0  0  0  0
   22.4458  -13.5216  -14.6023 C   0  0  0  0  0  0  0  0  0  0  0  0
   23.5801  -12.7654  -14.4444 C   0  0  0  0  0  0  0  0  0  0  0  0
   23.5121  -11.3937  -14.4468 C   0  0  0  0  0  0  0  0  0  0  0  0
   22.3302  -10.6999  -14.6041 C   0  0  0  0  0  0  0  0  0  0  0  0
   22.2630   -9.2430  -14.5742 C   0  0  0  0  0  0  0  0  0  0  0  0
   21.8805   -8.5211  -15.8003 C   0  0  2  0  0  0  0  0  0  0  0  0
   22.9627   -8.6875  -16.8060 N   0  0  0  0  0  0  0  0  0  0  0  0
   21.6148   -7.0966  -15.7409 C   0  0  0  0  0  0  0  0  0  0  0  0
   22.4481   -6.2221  -16.1824 O   0  0  0  0  0  0  0  0  0  0  0  0
   21.1992  -11.4693  -14.7617 C   0  0  0  0  0  0  0  0  0  0  0  0
   21.2501  -12.8564  -14.7616 C   0  0  0  0  0  0  0  0  0  0  0  0
   21.7444   -3.0114  -19.2734 C   0  0  0  0  0  0  0  0  0  0  0  0
   20.0140   -2.8139  -18.7178 S   0  0  0  0  0  0  0  0  0  0  0  0
   19.9059   -3.2640  -16.9580 C   0  0  0  0  0  0  0  0  0  0  0  0
   20.2277   -4.7045  -16.7549 C   0  0  0  0  0  0  0  0  0  0  0  0
   20.0909   -5.1339  -15.3080 C   0  0  2  0  0  0  0  0  0  0  0  0
   20.4277   -6.5468  -15.2041 N   0  0  0  0  0  0  0  0  0  0  0  0
   18.7954   -4.7809  -14.7216 C   0  0  0  0  0  0  0  0  0  0  0  0
   17.8828   -5.6368  -14.6889 O   0  0  0  0  0  0  0  0  0  0  0  0
   18.5040   -3.5405  -14.1895 O   0  0  0  0  0  0  0  0  0  0  0  0
  1  2  1  0
  3 12  1  0
  3  2  1  0
  4  3  2  0
  6  5  1  0
  7  6  2  0
  8  7  1  0
  9  8  2  0
  9 15  1  0
 10  9  1  0
 11 10  1  1
 11 12  1  0
 13 14  2  0
 13 11  1  0
 15 16  2  0
 16  6  1  0
 18 17  1  0
 19 18  1  0
 20 19  1  0
 21 20  1  6
 21 22  1  0
 22 13  1  0
 23 21  1  0
 24 23  2  0
 25 23  1  0
M  END
$$$$
