GYM.pdb
     RDKit          3D

 25 25  0  0  1  0  0  0  0  0999 V2000
   24.0377  -33.0592  -13.3376 N   0  0  0  0  0  0  0  0  0  0  0  0
   22.8279  -32.6097  -14.0175 C   0  0  0  0  0  0  0  0  0  0  0  0
   22.7287  -31.1246  -13.8989 C   0  0  0  0  0  0  0  0  0  0  0  0
   23.5879  -30.5134  -13.2064 O   0  0  0  0  0  0  0  0  0  0  0  0
   20.9146  -22.6948  -16.2489 O   0  0  0  0  0  0  0  0  0  0  0  0
   21.1203  -24.0795  -16.1294 C   0  0  0  0  0  0  0  0  0  0  0  0
   20.0768  -24.9312  -15.8670 C   0  0  0  0  0  0  0  0  0  0  0  0
   20.2894  -26.2832  -15.7521 C   0  0  0  0  0  0  0  0  0  0  0  0
   21.5337  -26.8628  -15.8891 C   0  0  0  0  0  0  0  0  0  0  0  0
   21.7554  -28.2963  -15.7346 C   0  0  0  0  0  0  0  0  0  0  0  0
   21.6270  -28.8979  -14.3958 C   0  0  2  0  0  0  0  0  0  0  0  0
   21.7129  -30.3760  -14.5296 N   0  0  0  0  0  0  0  0  0  0  0  0
   20.4379  -28.6431  -13.6056 C   0  0  0  0  0  0  0  0  0  0  0  0
   19.3294  -29.2622  -13.8110 O   0  0  0  0  0  0  0  0  0  0  0  0
   22.5726  -25.9983  -16.1523 C   0  0  0  0  0  0  0  0  0  0  0  0
   22.3753  -24.6295  -16.2714 C   0  0  0  0  0  0  0  0  0  0  0  0
   17.7478  -23.8151   -7.9439 C   0  0  0  0  0  0  0  0  0  0  0  0
   18.8843  -25.1907   -8.3420 S   0  0  0  0  0  0  0  0  0  0  0  0
   18.5028  -25.8048  -10.0119 C   0  0  0  0  0  0  0  0  0  0  0  0
   19.5676  -26.7269  -10.4976 C   0  0  0  0  0  0  0  0  0  0  0  0
   19.1832  -27.4372  -11.7798 C   0  0  2  0  0  0  0  0  0  0  0  0
   20.3912  -27.7066  -12.5471 N   0  0  0  0  0  0  0  0  0  0  0  0
   18.1364  -26.7417  -12.5329 C   0  0  0  0  0  0  0  0  0  0  0  0
   18.4350  -25.7323  -13.2101 O   0  0  0  0  0  0  0  0  0  0  0  0
   16.8118  -27.1314  -12.5486 O   0  0  0  0  0  0  0  0  0  0  0  0
  1  2  1  0
  3 12  1  0
  3  2  1  0
  4  3  2  0
  6  5  1  0
  7  6  2  0
  8  7  1  0
  9  8  2  0
  9 15  1  0
 10  9  1  0
 11 10  1  6
 11 12  1  0
 13 14  2  0
 13 11  1  0
 15 16  2  0
 16  6  1  0
 18 17  1  0
 19 18  1  0
 20 19  1  0
 21 20  1  1
 21 22  1  0
 22 13  1  0
 23 21  1  0
 24 23  2  0
 25 23  1  0
M  END
$$$$
