GYM.pdb
     RDKit          3D

 25 25  0  0  1  0  0  0  0  0999 V2000
   20.9222  -21.4137  -12.3313 N   0  0  0  0  0  0  0  0  0  0  0  0
   22.0774  -21.9527  -13.0404 C   0  0  0  0  0  0  0  0  0  0  0  0
   23.1538  -20.9183  -13.0702 C   0  0  0  0  0  0  0  0  0  0  0  0
   22.8461  -19.7170  -12.8389 O   0  0  0  0  0  0  0  0  0  0  0  0
   25.8594  -20.2184   -6.8989 O   0  0  0  0  0  0  0  0  0  0  0  0
   26.0656  -20.3069   -8.2860 C   0  0  0  0  0  0  0  0  0  0  0  0
   26.2451  -19.1807   -9.0493 C   0  0  0  0  0  0  0  0  0  0  0  0
   26.4458  -19.2789  -10.4044 C   0  0  0  0  0  0  0  0  0  0  0  0
   26.4799  -20.4846  -11.0738 C   0  0  0  0  0  0  0  0  0  0  0  0
   26.6624  -20.5779  -12.5181 C   0  0  0  0  0  0  0  0  0  0  0  0
   25.5545  -20.1809  -13.4044 C   0  0  2  0  0  0  0  0  0  0  0  0
   24.5018  -21.2290  -13.3468 N   0  0  0  0  0  0  0  0  0  0  0  0
   25.8088  -19.9562  -14.8144 C   0  0  0  0  0  0  0  0  0  0  0  0
   25.8643  -20.9188  -15.6656 O   0  0  0  0  0  0  0  0  0  0  0  0
   26.2986  -21.6073  -10.2975 C   0  0  0  0  0  0  0  0  0  0  0  0
   26.0946  -21.5259   -8.9269 C   0  0  0  0  0  0  0  0  0  0  0  0
   23.5508  -15.0270  -18.0047 C   0  0  0  0  0  0  0  0  0  0  0  0
   24.0024  -16.1450  -19.3789 S   0  0  0  0  0  0  0  0  0  0  0  0
   25.2768  -17.3066  -18.7979 C   0  0  0  0  0  0  0  0  0  0  0  0
   25.1606  -17.5362  -17.3303 C   0  0  0  0  0  0  0  0  0  0  0  0
   26.2389  -18.4579  -16.7974 C   0  0  2  0  0  0  0  0  0  0  0  0
   26.0106  -18.6740  -15.3755 N   0  0  0  0  0  0  0  0  0  0  0  0
   27.5946  -18.0105  -17.1265 C   0  0  0  0  0  0  0  0  0  0  0  0
   28.2455  -17.3527  -16.2838 O   0  0  0  0  0  0  0  0  0  0  0  0
   28.2197  -18.2704  -18.3301 O   0  0  0  0  0  0  0  0  0  0  0  0
  1  2  1  0
  3 12  1  0
  3  2  1  0
  4  3  2  0
  6  5  1  0
  7  6  2  0
  8  7  1  0
  9  8  2  0
  9 15  1  0
 10  9  1  0
 11 10  1  1
 11 12  1  0
 13 14  2  0
 13 11  1  0
 15 16  2  0
 16  6  1  0
 18 17  1  0
 19 18  1  0
 20 19  1  0
 21 20  1  1
 21 22  1  0
 22 13  1  0
 23 21  1  0
 24 23  2  0
 25 23  1  0
M  END
$$$$
