GYM.pdb
     RDKit          3D

 25 25  0  0  1  0  0  0  0  0999 V2000
   28.4473  -18.2326  -15.5347 N   0  0  0  0  0  0  0  0  0  0  0  0
   28.5281  -19.3887  -14.6487 C   0  0  0  0  0  0  0  0  0  0  0  0
   27.4123  -19.3197  -13.6589 C   0  0  0  0  0  0  0  0  0  0  0  0
   26.8781  -18.2011  -13.4254 O   0  0  0  0  0  0  0  0  0  0  0  0
   22.0397  -18.7212  -17.1494 O   0  0  0  0  0  0  0  0  0  0  0  0
   22.6754  -19.3177  -16.0475 C   0  0  0  0  0  0  0  0  0  0  0  0
   22.3065  -19.0073  -14.7627 C   0  0  0  0  0  0  0  0  0  0  0  0
   22.9348  -19.5965  -13.6929 C   0  0  0  0  0  0  0  0  0  0  0  0
   23.9531  -20.5165  -13.8326 C   0  0  0  0  0  0  0  0  0  0  0  0
   24.6361  -21.1139  -12.6904 C   0  0  0  0  0  0  0  0  0  0  0  0
   25.7544  -20.3851  -12.0667 C   0  0  2  0  0  0  0  0  0  0  0  0
   26.9305  -20.4546  -12.9734 N   0  0  0  0  0  0  0  0  0  0  0  0
   26.2389  -20.7941  -10.7624 C   0  0  0  0  0  0  0  0  0  0  0  0
   27.0704  -21.7634  -10.6100 O   0  0  0  0  0  0  0  0  0  0  0  0
   24.3144  -20.8199  -15.1262 C   0  0  0  0  0  0  0  0  0  0  0  0
   23.6900  -20.2337  -16.2186 C   0  0  0  0  0  0  0  0  0  0  0  0
   29.2226  -19.3406   -3.8508 C   0  0  0  0  0  0  0  0  0  0  0  0
   28.8049  -18.8490   -5.5614 S   0  0  0  0  0  0  0  0  0  0  0  0
   27.5887  -20.0252   -6.2313 C   0  0  0  0  0  0  0  0  0  0  0  0
   27.2610  -19.7046   -7.6490 C   0  0  0  0  0  0  0  0  0  0  0  0
   26.2473  -20.6613   -8.2436 C   0  0  2  0  0  0  0  0  0  0  0  0
   25.8504  -20.1685   -9.5552 N   0  0  0  0  0  0  0  0  0  0  0  0
   25.1260  -20.9456   -7.3446 C   0  0  0  0  0  0  0  0  0  0  0  0
   23.9716  -20.5890   -7.6713 O   0  0  0  0  0  0  0  0  0  0  0  0
   25.2566  -21.5953   -6.1331 O   0  0  0  0  0  0  0  0  0  0  0  0
  1  2  1  0
  3 12  1  0
  3  2  1  0
  4  3  2  0
  6  5  1  0
  7  6  2  0
  8  7  1  0
  9  8  2  0
  9 15  1  0
 10  9  1  0
 11 10  1  6
 11 12  1  0
 13 14  2  0
 13 11  1  0
 15 16  2  0
 16  6  1  0
 18 17  1  0
 19 18  1  0
 20 19  1  0
 21 20  1  1
 21 22  1  0
 22 13  1  0
 23 21  1  0
 24 23  2  0
 25 23  1  0
M  END
$$$$
