GYM.pdb
     RDKit          3D

 25 25  0  0  1  0  0  0  0  0999 V2000
   25.5281  -23.8202  -15.9223 N   0  0  0  0  0  0  0  0  0  0  0  0
   24.8480  -22.7249  -15.2398 C   0  0  0  0  0  0  0  0  0  0  0  0
   25.7616  -22.1577  -14.2039 C   0  0  0  0  0  0  0  0  0  0  0  0
   26.8362  -22.7658  -13.9455 O   0  0  0  0  0  0  0  0  0  0  0  0
   28.7293  -17.0770  -17.6256 O   0  0  0  0  0  0  0  0  0  0  0  0
   28.1829  -17.5308  -16.4133 C   0  0  0  0  0  0  0  0  0  0  0  0
   28.8518  -18.4370  -15.6294 C   0  0  0  0  0  0  0  0  0  0  0  0
   28.3083  -18.8739  -14.4462 C   0  0  0  0  0  0  0  0  0  0  0  0
   27.0848  -18.4431  -13.9767 C   0  0  0  0  0  0  0  0  0  0  0  0
   26.5009  -18.9361  -12.7342 C   0  0  0  0  0  0  0  0  0  0  0  0
   26.4190  -20.3902  -12.5119 C   0  0  2  0  0  0  0  0  0  0  0  0
   25.4725  -20.9690  -13.5014 N   0  0  0  0  0  0  0  0  0  0  0  0
   25.9956  -20.8960  -11.2204 C   0  0  0  0  0  0  0  0  0  0  0  0
   24.8617  -21.4780  -11.0473 O   0  0  0  0  0  0  0  0  0  0  0  0
   26.4232  -17.5340  -14.7717 C   0  0  0  0  0  0  0  0  0  0  0  0
   26.9581  -17.0822  -15.9702 C   0  0  0  0  0  0  0  0  0  0  0  0
   28.9222  -18.8339   -5.7591 C   0  0  0  0  0  0  0  0  0  0  0  0
   28.0819  -20.3165   -5.0972 S   0  0  0  0  0  0  0  0  0  0  0  0
   26.8227  -20.8621   -6.2921 C   0  0  0  0  0  0  0  0  0  0  0  0
   27.2646  -20.5990   -7.6906 C   0  0  0  0  0  0  0  0  0  0  0  0
   26.2627  -21.0832   -8.7192 C   0  0  2  0  0  0  0  0  0  0  0  0
   26.7833  -20.8016  -10.0498 N   0  0  0  0  0  0  0  0  0  0  0  0
   24.9071  -20.5788   -8.4859 C   0  0  0  0  0  0  0  0  0  0  0  0
   24.5340  -19.5320   -9.0618 O   0  0  0  0  0  0  0  0  0  0  0  0
   23.9901  -21.1922   -7.6556 O   0  0  0  0  0  0  0  0  0  0  0  0
  1  2  1  0
  3 12  1  0
  3  2  1  0
  4  3  2  0
  6  5  1  0
  7  6  2  0
  8  7  1  0
  9  8  2  0
  9 15  1  0
 10  9  1  0
 11 10  1  1
 11 12  1  0
 13 14  2  0
 13 11  1  0
 15 16  2  0
 16  6  1  0
 18 17  1  0
 19 18  1  0
 20 19  1  0
 21 20  1  1
 21 22  1  0
 22 13  1  0
 23 21  1  0
 24 23  2  0
 25 23  1  0
M  END
$$$$
