GYM.pdb
     RDKit          3D

 25 25  0  0  1  0  0  0  0  0999 V2000
   29.1328  -17.2669  -16.8776 N   0  0  0  0  0  0  0  0  0  0  0  0
   29.0657  -18.6632  -16.4609 C   0  0  0  0  0  0  0  0  0  0  0  0
   27.8513  -18.8586  -15.6145 C   0  0  0  0  0  0  0  0  0  0  0  0
   27.2024  -17.8429  -15.2424 O   0  0  0  0  0  0  0  0  0  0  0  0
   20.1596  -22.4339  -12.9806 O   0  0  0  0  0  0  0  0  0  0  0  0
   21.4113  -22.1275  -13.5407 C   0  0  0  0  0  0  0  0  0  0  0  0
   22.4994  -22.9367  -13.3301 C   0  0  0  0  0  0  0  0  0  0  0  0
   23.7183  -22.6276  -13.8825 C   0  0  0  0  0  0  0  0  0  0  0  0
   23.9270  -21.5118  -14.6664 C   0  0  0  0  0  0  0  0  0  0  0  0
   25.2324  -21.1745  -15.2233 C   0  0  0  0  0  0  0  0  0  0  0  0
   26.1402  -20.3148  -14.4438 C   0  0  2  0  0  0  0  0  0  0  0  0
   27.3992  -20.1333  -15.2132 N   0  0  0  0  0  0  0  0  0  0  0  0
   26.5480  -20.7223  -13.1131 C   0  0  0  0  0  0  0  0  0  0  0  0
   27.4035  -21.6617  -12.9129 O   0  0  0  0  0  0  0  0  0  0  0  0
   22.8281  -20.7078  -14.8706 C   0  0  0  0  0  0  0  0  0  0  0  0
   21.5893  -21.0054  -14.3198 C   0  0  0  0  0  0  0  0  0  0  0  0
   29.3618  -19.2602   -7.8768 C   0  0  0  0  0  0  0  0  0  0  0  0
   27.7440  -19.6095   -7.1004 S   0  0  0  0  0  0  0  0  0  0  0  0
   26.7296  -20.5749   -8.2624 C   0  0  0  0  0  0  0  0  0  0  0  0
   26.8184  -20.0153   -9.6405 C   0  0  0  0  0  0  0  0  0  0  0  0
   26.0214  -20.8189  -10.6482 C   0  0  2  0  0  0  0  0  0  0  0  0
   26.0528  -20.1276  -11.9296 N   0  0  0  0  0  0  0  0  0  0  0  0
   24.6744  -21.1564  -10.1811 C   0  0  0  0  0  0  0  0  0  0  0  0
   23.6912  -20.5330  -10.6406 O   0  0  0  0  0  0  0  0  0  0  0  0
   24.4073  -22.1380   -9.2474 O   0  0  0  0  0  0  0  0  0  0  0  0
  1  2  1  0
  3 12  1  0
  3  2  1  0
  4  3  2  0
  6  5  1  0
  7  6  2  0
  8  7  1  0
  9  8  2  0
  9 15  1  0
 10  9  1  0
 11 10  1  6
 11 12  1  0
 13 14  2  0
 13 11  1  0
 15 16  2  0
 16  6  1  0
 18 17  1  0
 19 18  1  0
 20 19  1  0
 21 20  1  1
 21 22  1  0
 22 13  1  0
 23 21  1  0
 24 23  2  0
 25 23  1  0
M  END
$$$$
