GYM.pdb
     RDKit          3D

 25 25  0  0  1  0  0  0  0  0999 V2000
   21.9540   -4.4244  -19.6346 N   0  0  0  0  0  0  0  0  0  0  0  0
   22.6450   -5.6670  -19.9605 C   0  0  0  0  0  0  0  0  0  0  0  0
   23.2893   -6.2018  -18.7243 C   0  0  0  0  0  0  0  0  0  0  0  0
   24.4614   -5.8301  -18.4426 O   0  0  0  0  0  0  0  0  0  0  0  0
   21.1667   -1.5446  -15.0944 O   0  0  0  0  0  0  0  0  0  0  0  0
   21.4831   -2.9100  -15.1929 C   0  0  0  0  0  0  0  0  0  0  0  0
   20.5015   -3.8553  -15.3540 C   0  0  0  0  0  0  0  0  0  0  0  0
   20.8222   -5.1874  -15.4492 C   0  0  0  0  0  0  0  0  0  0  0  0
   22.1189   -5.6544  -15.3909 C   0  0  0  0  0  0  0  0  0  0  0  0
   22.4480   -7.0738  -15.4615 C   0  0  0  0  0  0  0  0  0  0  0  0
   23.2642   -7.5619  -16.5868 C   0  0  2  0  0  0  0  0  0  0  0  0
   22.6411   -7.1066  -17.8575 N   0  0  0  0  0  0  0  0  0  0  0  0
   23.4876   -8.9859  -16.7466 C   0  0  0  0  0  0  0  0  0  0  0  0
   22.7855   -9.7070  -17.5474 O   0  0  0  0  0  0  0  0  0  0  0  0
   23.0949   -4.6967  -15.2292 C   0  0  0  0  0  0  0  0  0  0  0  0
   22.7883   -3.3465  -15.1312 C   0  0  0  0  0  0  0  0  0  0  0  0
   29.1959  -12.2050  -15.9021 C   0  0  0  0  0  0  0  0  0  0  0  0
   28.0005  -13.3391  -15.1102 S   0  0  0  0  0  0  0  0  0  0  0  0
   26.3316  -12.9608  -15.7292 C   0  0  0  0  0  0  0  0  0  0  0  0
   26.0414  -11.5031  -15.6249 C   0  0  0  0  0  0  0  0  0  0  0  0
   24.6884  -11.1356  -16.2000 C   0  0  2  0  0  0  0  0  0  0  0  0
   24.4888   -9.7009  -16.0496 N   0  0  0  0  0  0  0  0  0  0  0  0
   23.5946  -11.9527  -15.6687 C   0  0  0  0  0  0  0  0  0  0  0  0
   22.9666  -11.5574  -14.6608 O   0  0  0  0  0  0  0  0  0  0  0  0
   23.1982  -13.1572  -16.2153 O   0  0  0  0  0  0  0  0  0  0  0  0
  1  2  1  0
  3 12  1  0
  3  2  1  0
  4  3  2  0
  6  5  1  0
  7  6  2  0
  8  7  1  0
  9  8  2  0
  9 15  1  0
 10  9  1  0
 11 10  1  1
 11 12  1  0
 13 14  2  0
 13 11  1  0
 15 16  2  0
 16  6  1  0
 18 17  1  0
 19 18  1  0
 20 19  1  0
 21 20  1  1
 21 22  1  0
 22 13  1  0
 23 21  1  0
 24 23  2  0
 25 23  1  0
M  END
$$$$
