GGS.pdb
     RDKit          3D

 15 14  0  0  1  0  0  0  0  0999 V2000
    3.7096  -20.0100   21.7491 N   0  0  0  0  0  0  0  0  0  0  0  0
    3.9644  -18.8544   22.6221 C   0  0  0  0  0  0  0  0  0  0  0  0
    4.7741  -17.8334   21.8870 C   0  0  0  0  0  0  0  0  0  0  0  0
    4.4077  -16.6397   21.8904 O   0  0  0  0  0  0  0  0  0  0  0  0
    5.9570  -18.1674   21.1758 N   0  0  0  0  0  0  0  0  0  0  0  0
    6.8547  -17.2435   20.5698 C   0  0  0  0  0  0  0  0  0  0  0  0
    7.7427  -16.4959   21.4472 C   0  0  0  0  0  0  0  0  0  0  0  0
    8.8614  -16.1698   20.9752 O   0  0  0  0  0  0  0  0  0  0  0  0
    7.0432  -13.4000   23.3233 O   0  0  0  0  0  0  0  0  0  0  0  0
    7.6984  -14.1720   24.2559 C   0  0  0  0  0  0  0  0  0  0  0  0
    8.3362  -15.3962   23.6494 C   0  0  2  0  0  0  0  0  0  0  0  0
    7.4355  -16.1175   22.7682 N   0  0  0  0  0  0  0  0  0  0  0  0
    8.8847  -16.2480   24.7438 C   0  0  0  0  0  0  0  0  0  0  0  0
    8.5579  -17.4296   24.9266 O   0  0  0  0  0  0  0  0  0  0  0  0
    9.8106  -15.6420   25.5811 O   0  0  0  0  0  0  0  0  0  0  0  0
  2  1  1  0
  3  2  1  0
  4  3  2  0
  5  3  1  0
  6  5  1  0
  7  6  1  0
  7 12  1  0
  8  7  2  0
 10  9  1  0
 11 12  1  0
 11 10  1  1
 13 15  1  0
 13 11  1  0
 14 13  2  0
M  END
$$$$
