GGS.pdb
     RDKit          3D

 15 14  0  0  1  0  0  0  0  0999 V2000
    7.5998  -19.4632   18.6735 N   0  0  0  0  0  0  0  0  0  0  0  0
    6.8481  -18.4290   19.4002 C   0  0  0  0  0  0  0  0  0  0  0  0
    7.6164  -17.1452   19.3921 C   0  0  0  0  0  0  0  0  0  0  0  0
    8.7921  -17.1350   18.9717 O   0  0  0  0  0  0  0  0  0  0  0  0
    7.0591  -15.9212   19.8481 N   0  0  0  0  0  0  0  0  0  0  0  0
    7.7663  -14.6990   20.0291 C   0  0  0  0  0  0  0  0  0  0  0  0
    8.6241  -14.5863   21.1991 C   0  0  0  0  0  0  0  0  0  0  0  0
    9.8433  -14.3647   20.9873 O   0  0  0  0  0  0  0  0  0  0  0  0
    7.1140  -14.7477   25.1036 O   0  0  0  0  0  0  0  0  0  0  0  0
    8.3457  -14.1583   24.9281 C   0  0  0  0  0  0  0  0  0  0  0  0
    9.0546  -14.6544   23.6934 C   0  0  2  0  0  0  0  0  0  0  0  0
    8.1850  -14.7048   22.5317 N   0  0  0  0  0  0  0  0  0  0  0  0
    9.6947  -15.9665   23.9978 C   0  0  0  0  0  0  0  0  0  0  0  0
    9.3541  -17.0371   23.4741 O   0  0  0  0  0  0  0  0  0  0  0  0
   10.7258  -15.9401   24.9260 O   0  0  0  0  0  0  0  0  0  0  0  0
  2  1  1  0
  3  2  1  0
  4  3  2  0
  5  3  1  0
  6  5  1  0
  7  6  1  0
  7 12  1  0
  8  7  2  0
 10  9  1  0
 11 12  1  0
 11 10  1  1
 13 15  1  0
 13 11  1  0
 14 13  2  0
M  END
$$$$
