GGS.pdb
     RDKit          3D

 15 14  0  0  1  0  0  0  0  0999 V2000
    0.9067  -24.6371   22.9112 N   0  0  0  0  0  0  0  0  0  0  0  0
    1.4417  -23.4156   23.5310 C   0  0  0  0  0  0  0  0  0  0  0  0
    2.6328  -22.9377   22.7619 C   0  0  0  0  0  0  0  0  0  0  0  0
    2.7338  -21.7267   22.4750 O   0  0  0  0  0  0  0  0  0  0  0  0
    3.6674  -23.8134   22.3384 N   0  0  0  0  0  0  0  0  0  0  0  0
    4.8354  -23.4370   21.6168 C   0  0  0  0  0  0  0  0  0  0  0  0
    5.9023  -22.7834   22.3597 C   0  0  0  0  0  0  0  0  0  0  0  0
    6.9501  -22.5093   21.7214 O   0  0  0  0  0  0  0  0  0  0  0  0
    5.8387  -19.6092   23.9407 O   0  0  0  0  0  0  0  0  0  0  0  0
    6.4030  -20.3731   24.9373 C   0  0  0  0  0  0  0  0  0  0  0  0
    6.8727  -21.7172   24.4412 C   0  0  2  0  0  0  0  0  0  0  0  0
    5.8384  -22.4411   23.7240 N   0  0  0  0  0  0  0  0  0  0  0  0
    7.4320  -22.4877   25.5892 C   0  0  0  0  0  0  0  0  0  0  0  0
    6.9480  -23.5496   26.0071 O   0  0  0  0  0  0  0  0  0  0  0  0
    8.5584  -21.9480   26.1936 O   0  0  0  0  0  0  0  0  0  0  0  0
  2  1  1  0
  3  2  1  0
  4  3  2  0
  5  3  1  0
  6  5  1  0
  7  6  1  0
  7 12  1  0
  8  7  2  0
 10  9  1  0
 11 12  1  0
 11 10  1  1
 13 15  1  0
 13 11  1  0
 14 13  2  0
M  END
$$$$
