GGS.pdb
     RDKit          3D

 15 14  0  0  1  0  0  0  0  0999 V2000
   -0.4206  -26.4500   25.9964 N   0  0  0  0  0  0  0  0  0  0  0  0
   -1.3264  -26.5407   27.1513 C   0  0  0  0  0  0  0  0  0  0  0  0
   -1.9833  -25.2168   27.3846 C   0  0  0  0  0  0  0  0  0  0  0  0
   -1.2919  -24.1771   27.3735 O   0  0  0  0  0  0  0  0  0  0  0  0
   -3.3777  -25.0897   27.6213 N   0  0  0  0  0  0  0  0  0  0  0  0
   -4.0832  -23.8681   27.8129 C   0  0  0  0  0  0  0  0  0  0  0  0
   -5.5099  -23.9522   28.0863 C   0  0  0  0  0  0  0  0  0  0  0  0
   -6.0986  -24.9950   27.7036 O   0  0  0  0  0  0  0  0  0  0  0  0
   -9.1226  -24.3443   30.6005 O   0  0  0  0  0  0  0  0  0  0  0  0
   -7.8258  -24.2413   30.1499 C   0  0  0  0  0  0  0  0  0  0  0  0
   -7.6429  -23.1154   29.1640 C   0  0  2  0  0  0  0  0  0  0  0  0
   -6.2620  -22.9595   28.7432 N   0  0  0  0  0  0  0  0  0  0  0  0
   -8.2185  -21.8674   29.7432 C   0  0  0  0  0  0  0  0  0  0  0  0
   -9.4142  -21.5535   29.6521 O   0  0  0  0  0  0  0  0  0  0  0  0
   -7.3285  -21.0404   30.4134 O   0  0  0  0  0  0  0  0  0  0  0  0
  2  1  1  0
  3  2  1  0
  4  3  2  0
  5  3  1  0
  6  5  1  0
  7  6  1  0
  7 12  1  0
  8  7  2  0
 10  9  1  0
 11 12  1  0
 11 10  1  1
 13 15  1  0
 13 11  1  0
 14 13  2  0
M  END
$$$$
