GGS.pdb
     RDKit          3D

 15 14  0  0  1  0  0  0  0  0999 V2000
   -3.6327  -25.6277   25.2490 N   0  0  0  0  0  0  0  0  0  0  0  0
   -4.1297  -26.7646   26.0384 C   0  0  0  0  0  0  0  0  0  0  0  0
   -5.5302  -26.4937   26.4896 C   0  0  0  0  0  0  0  0  0  0  0  0
   -6.1063  -27.3152   27.2327 O   0  0  0  0  0  0  0  0  0  0  0  0
   -6.2424  -25.3271   26.1043 N   0  0  0  0  0  0  0  0  0  0  0  0
   -7.5526  -24.9705   26.5318 C   0  0  0  0  0  0  0  0  0  0  0  0
   -7.7082  -24.5022   27.9007 C   0  0  0  0  0  0  0  0  0  0  0  0
   -7.9374  -25.3761   28.7748 O   0  0  0  0  0  0  0  0  0  0  0  0
   -5.5102  -21.7836   29.6634 O   0  0  0  0  0  0  0  0  0  0  0  0
   -6.8266  -21.5286   29.9754 C   0  0  0  0  0  0  0  0  0  0  0  0
   -7.7295  -22.6989   29.6781 C   0  0  2  0  0  0  0  0  0  0  0  0
   -7.6180  -23.1563   28.3046 N   0  0  0  0  0  0  0  0  0  0  0  0
   -9.1260  -22.3413   30.0602 C   0  0  0  0  0  0  0  0  0  0  0  0
  -10.0542  -22.2246   29.2470 O   0  0  0  0  0  0  0  0  0  0  0  0
   -9.3534  -22.1366   31.4136 O   0  0  0  0  0  0  0  0  0  0  0  0
  2  1  1  0
  3  2  1  0
  4  3  2  0
  5  3  1  0
  6  5  1  0
  7  6  1  0
  7 12  1  0
  8  7  2  0
 10  9  1  0
 11 12  1  0
 11 10  1  6
 13 15  1  0
 13 11  1  0
 14 13  2  0
M  END
$$$$
