GGS.pdb
     RDKit          3D

 15 14  0  0  1  0  0  0  0  0999 V2000
    6.3719  -19.7469   22.6951 N   0  0  0  0  0  0  0  0  0  0  0  0
    7.0346  -18.5709   22.1116 C   0  0  0  0  0  0  0  0  0  0  0  0
    7.1947  -17.5104   23.1548 C   0  0  0  0  0  0  0  0  0  0  0  0
    7.6641  -16.3988   22.8343 O   0  0  0  0  0  0  0  0  0  0  0  0
    6.8309  -17.7161   24.5120 N   0  0  0  0  0  0  0  0  0  0  0  0
    6.8726  -16.7367   25.5443 C   0  0  0  0  0  0  0  0  0  0  0  0
    8.1825  -16.3014   26.0046 C   0  0  0  0  0  0  0  0  0  0  0  0
    9.1778  -16.9093   25.5350 O   0  0  0  0  0  0  0  0  0  0  0  0
    8.5779  -12.8841   28.2499 O   0  0  0  0  0  0  0  0  0  0  0  0
    9.7357  -13.3141   27.6419 C   0  0  0  0  0  0  0  0  0  0  0  0
    9.7163  -14.7907   27.3376 C   0  0  2  0  0  0  0  0  0  0  0  0
    8.4054  -15.2592   26.9248 N   0  0  0  0  0  0  0  0  0  0  0  0
   10.2556  -15.5336   28.5129 C   0  0  0  0  0  0  0  0  0  0  0  0
    9.6146  -16.3891   29.1404 O   0  0  0  0  0  0  0  0  0  0  0  0
   11.5529  -15.2171   28.8902 O   0  0  0  0  0  0  0  0  0  0  0  0
  2  1  1  0
  3  2  1  0
  4  3  2  0
  5  3  1  0
  6  5  1  0
  7  6  1  0
  7 12  1  0
  8  7  2  0
 10  9  1  0
 11 12  1  0
 11 10  1  1
 13 15  1  0
 13 11  1  0
 14 13  2  0
M  END
$$$$
