GGS.pdb
     RDKit          3D

 15 14  0  0  1  0  0  0  0  0999 V2000
    7.8814  -13.7120   15.1506 N   0  0  0  0  0  0  0  0  0  0  0  0
    8.2795  -13.3485   16.5188 C   0  0  0  0  0  0  0  0  0  0  0  0
    8.3463  -14.5772   17.3699 C   0  0  0  0  0  0  0  0  0  0  0  0
    8.0855  -15.6892   16.8655 O   0  0  0  0  0  0  0  0  0  0  0  0
    8.6981  -14.5329   18.7450 N   0  0  0  0  0  0  0  0  0  0  0  0
    9.2473  -15.6074   19.5003 C   0  0  0  0  0  0  0  0  0  0  0  0
    9.6472  -15.3290   20.8714 C   0  0  0  0  0  0  0  0  0  0  0  0
   10.7814  -14.8120   21.0358 O   0  0  0  0  0  0  0  0  0  0  0  0
    7.0931  -14.8918   24.1010 O   0  0  0  0  0  0  0  0  0  0  0  0
    8.2078  -15.6490   24.3827 C   0  0  0  0  0  0  0  0  0  0  0  0
    9.3143  -15.4467   23.3788 C   0  0  2  0  0  0  0  0  0  0  0  0
    8.8592  -15.5938   22.0079 N   0  0  0  0  0  0  0  0  0  0  0  0
   10.4459  -16.3576   23.7165 C   0  0  0  0  0  0  0  0  0  0  0  0
   11.1139  -16.2698   24.7570 O   0  0  0  0  0  0  0  0  0  0  0  0
   10.7320  -17.3447   22.7842 O   0  0  0  0  0  0  0  0  0  0  0  0
  2  1  1  0
  3  2  1  0
  4  3  2  0
  5  3  1  0
  6  5  1  0
  7  6  1  0
  7 12  1  0
  8  7  2  0
 10  9  1  0
 11 12  1  0
 11 10  1  1
 13 15  1  0
 13 11  1  0
 14 13  2  0
M  END
$$$$
