GGS.pdb
     RDKit          3D

 15 14  0  0  1  0  0  0  0  0999 V2000
    6.5038  -20.2391   18.8235 N   0  0  0  0  0  0  0  0  0  0  0  0
    6.2863  -18.8647   19.2994 C   0  0  0  0  0  0  0  0  0  0  0  0
    7.6028  -18.2137   19.5848 C   0  0  0  0  0  0  0  0  0  0  0  0
    7.9098  -17.1605   18.9886 O   0  0  0  0  0  0  0  0  0  0  0  0
    8.5309  -18.7487   20.5170 N   0  0  0  0  0  0  0  0  0  0  0  0
    9.7801  -18.1686   20.8769 C   0  0  0  0  0  0  0  0  0  0  0  0
    9.7513  -16.8973   21.5843 C   0  0  0  0  0  0  0  0  0  0  0  0
   10.8477  -16.2954   21.7107 O   0  0  0  0  0  0  0  0  0  0  0  0
    6.8870  -14.1735   21.3786 O   0  0  0  0  0  0  0  0  0  0  0  0
    7.2665  -14.3100   22.6949 C   0  0  0  0  0  0  0  0  0  0  0  0
    8.5738  -15.0454   22.8475 C   0  0  2  0  0  0  0  0  0  0  0  0
    8.5942  -16.3052   22.1258 N   0  0  0  0  0  0  0  0  0  0  0  0
    8.8733  -15.2027   24.3000 C   0  0  0  0  0  0  0  0  0  0  0  0
    8.9873  -16.3002   24.8649 O   0  0  0  0  0  0  0  0  0  0  0  0
    9.0251  -14.0270   25.0211 O   0  0  0  0  0  0  0  0  0  0  0  0
  2  1  1  0
  3  2  1  0
  4  3  2  0
  5  3  1  0
  6  5  1  0
  7  6  1  0
  7 12  1  0
  8  7  2  0
 10  9  1  0
 11 12  1  0
 11 10  1  1
 13 15  1  0
 13 11  1  0
 14 13  2  0
M  END
$$$$
