GGS.pdb
     RDKit          3D

 15 14  0  0  1  0  0  0  0  0999 V2000
   -3.2920  -27.4918   25.8432 N   0  0  0  0  0  0  0  0  0  0  0  0
   -3.7701  -28.5043   26.7965 C   0  0  0  0  0  0  0  0  0  0  0  0
   -4.2816  -27.8342   28.0326 C   0  0  0  0  0  0  0  0  0  0  0  0
   -3.7638  -28.1029   29.1365 O   0  0  0  0  0  0  0  0  0  0  0  0
   -5.3448  -26.8933   28.0044 N   0  0  0  0  0  0  0  0  0  0  0  0
   -5.8064  -26.1231   29.1091 C   0  0  0  0  0  0  0  0  0  0  0  0
   -6.8765  -25.1685   28.8619 C   0  0  0  0  0  0  0  0  0  0  0  0
   -7.3572  -25.1460   27.7004 O   0  0  0  0  0  0  0  0  0  0  0  0
   -9.3983  -23.6449   31.8095 O   0  0  0  0  0  0  0  0  0  0  0  0
   -9.0079  -22.7293   30.8584 C   0  0  0  0  0  0  0  0  0  0  0  0
   -8.5174  -23.3834   29.5917 C   0  0  2  0  0  0  0  0  0  0  0  0
   -7.4023  -24.2841   29.8232 N   0  0  0  0  0  0  0  0  0  0  0  0
   -8.2101  -22.3238   28.5882 C   0  0  0  0  0  0  0  0  0  0  0  0
   -9.0756  -21.6490   28.0120 O   0  0  0  0  0  0  0  0  0  0  0  0
   -6.8657  -22.1156   28.3149 O   0  0  0  0  0  0  0  0  0  0  0  0
  2  1  1  0
  3  2  1  0
  4  3  2  0
  5  3  1  0
  6  5  1  0
  7  6  1  0
  7 12  1  0
  8  7  2  0
 10  9  1  0
 11 12  1  0
 11 10  1  1
 13 15  1  0
 13 11  1  0
 14 13  2  0
M  END
$$$$
