GGS.pdb
     RDKit          3D

 15 14  0  0  1  0  0  0  0  0999 V2000
    5.8203  -20.4704   22.1922 N   0  0  0  0  0  0  0  0  0  0  0  0
    6.9152  -19.8695   22.9685 C   0  0  0  0  0  0  0  0  0  0  0  0
    6.4434  -18.6046   23.6135 C   0  0  0  0  0  0  0  0  0  0  0  0
    5.7947  -17.7765   22.9409 O   0  0  0  0  0  0  0  0  0  0  0  0
    6.7050  -18.3008   24.9759 N   0  0  0  0  0  0  0  0  0  0  0  0
    6.3319  -17.1037   25.6499 C   0  0  0  0  0  0  0  0  0  0  0  0
    7.3619  -16.0948   25.8467 C   0  0  0  0  0  0  0  0  0  0  0  0
    8.5341  -16.4124   25.5217 O   0  0  0  0  0  0  0  0  0  0  0  0
    6.5735  -12.3910   27.6457 O   0  0  0  0  0  0  0  0  0  0  0  0
    7.5502  -12.3978   26.6757 C   0  0  0  0  0  0  0  0  0  0  0  0
    8.1448  -13.7667   26.4619 C   0  0  2  0  0  0  0  0  0  0  0  0
    7.1353  -14.8060   26.3665 N   0  0  0  0  0  0  0  0  0  0  0  0
    9.1503  -14.0294   27.5315 C   0  0  0  0  0  0  0  0  0  0  0  0
    9.0612  -14.9583   28.3475 O   0  0  0  0  0  0  0  0  0  0  0  0
   10.2304  -13.1597   27.5786 O   0  0  0  0  0  0  0  0  0  0  0  0
  2  1  1  0
  3  2  1  0
  4  3  2  0
  5  3  1  0
  6  5  1  0
  7  6  1  0
  7 12  1  0
  8  7  2  0
 10  9  1  0
 11 12  1  0
 11 10  1  1
 13 15  1  0
 13 11  1  0
 14 13  2  0
M  END
$$$$
