GGS.pdb
     RDKit          3D

 15 14  0  0  1  0  0  0  0  0999 V2000
    8.3521  -14.7583   14.3519 N   0  0  0  0  0  0  0  0  0  0  0  0
    7.6779  -14.4996   15.6329 C   0  0  0  0  0  0  0  0  0  0  0  0
    8.6944  -14.1930   16.6871 C   0  0  0  0  0  0  0  0  0  0  0  0
    9.9010  -14.4224   16.4626 O   0  0  0  0  0  0  0  0  0  0  0  0
    8.3417  -13.6450   17.9488 N   0  0  0  0  0  0  0  0  0  0  0  0
    9.2451  -13.3284   19.0025 C   0  0  0  0  0  0  0  0  0  0  0  0
   10.1745  -14.3654   19.4247 C   0  0  0  0  0  0  0  0  0  0  0  0
    9.6751  -15.4673   19.7666 O   0  0  0  0  0  0  0  0  0  0  0  0
   14.0991  -14.6192   18.1684 O   0  0  0  0  0  0  0  0  0  0  0  0
   13.9306  -14.9357   19.4975 C   0  0  0  0  0  0  0  0  0  0  0  0
   12.5012  -15.2760   19.8353 C   0  0  2  0  0  0  0  0  0  0  0  0
   11.5741  -14.2191   19.4725 N   0  0  0  0  0  0  0  0  0  0  0  0
   12.4210  -15.6500   21.2768 C   0  0  0  0  0  0  0  0  0  0  0  0
   11.7147  -15.0560   22.1043 O   0  0  0  0  0  0  0  0  0  0  0  0
   13.1980  -16.7305   21.6695 O   0  0  0  0  0  0  0  0  0  0  0  0
  2  1  1  0
  3  2  1  0
  4  3  2  0
  5  3  1  0
  6  5  1  0
  7  6  1  0
  7 12  1  0
  8  7  2  0
 10  9  1  0
 11 12  1  0
 11 10  1  1
 13 15  1  0
 13 11  1  0
 14 13  2  0
M  END
$$$$
