GGS.pdb
     RDKit          3D

 15 14  0  0  1  0  0  0  0  0999 V2000
    6.2427  -23.0314   22.8273 N   0  0  0  0  0  0  0  0  0  0  0  0
    5.2821  -21.9566   23.1180 C   0  0  0  0  0  0  0  0  0  0  0  0
    5.8737  -20.6342   22.7441 C   0  0  0  0  0  0  0  0  0  0  0  0
    6.9682  -20.5980   22.1444 O   0  0  0  0  0  0  0  0  0  0  0  0
    5.2358  -19.4018   23.0458 N   0  0  0  0  0  0  0  0  0  0  0  0
    5.7801  -18.1050   22.8250 C   0  0  0  0  0  0  0  0  0  0  0  0
    6.8912  -17.6905   23.6683 C   0  0  0  0  0  0  0  0  0  0  0  0
    7.9268  -17.2865   23.0811 O   0  0  0  0  0  0  0  0  0  0  0  0
    8.7617  -16.0599   27.7776 O   0  0  0  0  0  0  0  0  0  0  0  0
    7.6696  -16.4160   27.0189 C   0  0  0  0  0  0  0  0  0  0  0  0
    8.0218  -17.3774   25.9122 C   0  0  2  0  0  0  0  0  0  0  0  0
    6.8820  -17.7094   25.0762 N   0  0  0  0  0  0  0  0  0  0  0  0
    8.6770  -18.5786   26.5056 C   0  0  0  0  0  0  0  0  0  0  0  0
    8.0685  -19.6140   26.8126 O   0  0  0  0  0  0  0  0  0  0  0  0
   10.0467  -18.4874   26.7080 O   0  0  0  0  0  0  0  0  0  0  0  0
  2  1  1  0
  3  2  1  0
  4  3  2  0
  5  3  1  0
  6  5  1  0
  7  6  1  0
  7 12  1  0
  8  7  2  0
 10  9  1  0
 11 12  1  0
 11 10  1  1
 13 15  1  0
 13 11  1  0
 14 13  2  0
M  END
$$$$
