PVV.pdb
     RDKit          3D

 22 22  0  0  1  0  0  0  0  0999 V2000
    8.0539  -14.8815   20.6492 N   0  0  0  0  0  0  0  0  0  0  0  0
    8.9250  -16.0293   20.7604 C   0  0  0  0  0  0  0  0  0  0  0  0
    8.1889  -17.0834   21.5398 C   0  0  0  0  0  0  0  0  0  0  0  0
    6.8068  -16.4810   21.7200 C   0  0  0  0  0  0  0  0  0  0  0  0
    7.0964  -15.0173   21.7226 C   0  0  1  0  0  0  0  0  0  0  0  0
    7.7839  -14.6338   23.0213 C   0  0  0  0  0  0  0  0  0  0  0  0
    9.0210  -14.6409   23.0049 O   0  0  0  0  0  0  0  0  0  0  0  0
    6.4000  -11.6113   25.2697 C   0  0  0  0  0  0  0  0  0  0  0  0
    6.6991  -12.8364   26.1328 C   0  0  2  0  0  0  0  0  0  0  0  0
    7.2381  -12.3543   27.4259 C   0  0  0  0  0  0  0  0  0  0  0  0
    7.5443  -13.8103   25.3961 C   0  0  2  0  0  0  0  0  0  0  0  0
    7.0506  -14.2983   24.1495 N   0  0  0  0  0  0  0  0  0  0  0  0
    8.2142  -14.8657   26.1744 C   0  0  0  0  0  0  0  0  0  0  0  0
    7.5546  -15.8995   26.5709 O   0  0  0  0  0  0  0  0  0  0  0  0
   12.1055  -17.5237   27.5053 C   0  0  0  0  0  0  0  0  0  0  0  0
   11.5534  -16.3288   26.7684 C   0  0  1  0  0  0  0  0  0  0  0  0
   11.5564  -16.5860   25.2711 C   0  0  0  0  0  0  0  0  0  0  0  0
   10.1575  -16.0141   27.2675 C   0  0  2  0  0  0  0  0  0  0  0  0
    9.5738  -14.8982   26.5610 N   0  0  0  0  0  0  0  0  0  0  0  0
   10.2490  -15.7967   28.7300 C   0  0  0  0  0  0  0  0  0  0  0  0
   10.4157  -16.7756   29.4924 O   0  0  0  0  0  0  0  0  0  0  0  0
   10.1531  -14.5375   29.2543 O   0  0  0  0  0  0  0  0  0  0  0  0
  1  5  1  0
  2  1  1  0
  3  2  1  0
  3  4  1  0
  4  5  1  0
  6  7  2  0
  5  6  1  1
  9  8  1  6
  9 11  1  0
 10  9  1  0
 11 12  1  6
 11 13  1  0
 12  6  1  0
 13 19  1  0
 14 13  2  0
 16 18  1  0
 16 15  1  1
 17 16  1  0
 18 20  1  0
 18 19  1  6
 20 21  2  0
 20 22  1  0
M  END
$$$$
