PVV.pdb
     RDKit          3D

 22 22  0  0  1  0  0  0  0  0999 V2000
    8.7283  -17.4966   16.4450 N   0  0  0  0  0  0  0  0  0  0  0  0
    9.4015  -18.6782   16.9339 C   0  0  0  0  0  0  0  0  0  0  0  0
    8.4577  -19.3845   17.8670 C   0  0  0  0  0  0  0  0  0  0  0  0
    7.1758  -18.5807   17.7391 C   0  0  0  0  0  0  0  0  0  0  0  0
    7.6869  -17.2188   17.4072 C   0  0  1  0  0  0  0  0  0  0  0  0
    8.3306  -16.6002   18.6358 C   0  0  0  0  0  0  0  0  0  0  0  0
    9.5504  -16.7693   18.7546 O   0  0  0  0  0  0  0  0  0  0  0  0
    7.4780  -12.8684   19.5525 C   0  0  0  0  0  0  0  0  0  0  0  0
    7.3607  -13.7437   20.7997 C   0  0  2  0  0  0  0  0  0  0  0  0
    7.8069  -12.9361   21.9589 C   0  0  0  0  0  0  0  0  0  0  0  0
    8.0544  -15.0420   20.6033 C   0  0  2  0  0  0  0  0  0  0  0  0
    7.5783  -15.8906   19.5597 N   0  0  0  0  0  0  0  0  0  0  0  0
    8.4360  -15.8057   21.8031 C   0  0  0  0  0  0  0  0  0  0  0  0
    7.5409  -16.4301   22.4887 O   0  0  0  0  0  0  0  0  0  0  0  0
   11.4068  -18.3598   22.2046 C   0  0  0  0  0  0  0  0  0  0  0  0
   11.3739  -17.4394   23.3994 C   0  0  1  0  0  0  0  0  0  0  0  0
   12.4927  -16.4157   23.3064 C   0  0  0  0  0  0  0  0  0  0  0  0
   10.0203  -16.7646   23.4944 C   0  0  2  0  0  0  0  0  0  0  0  0
    9.7393  -15.9591   22.3295 N   0  0  0  0  0  0  0  0  0  0  0  0
    9.9987  -15.9922   24.7583 C   0  0  0  0  0  0  0  0  0  0  0  0
   10.0521  -14.7420   24.7211 O   0  0  0  0  0  0  0  0  0  0  0  0
    9.9210  -16.6320   25.9643 O   0  0  0  0  0  0  0  0  0  0  0  0
  1  5  1  0
  2  1  1  0
  3  2  1  0
  3  4  1  0
  4  5  1  0
  6  7  2  0
  5  6  1  1
  9  8  1  6
  9 11  1  0
 10  9  1  0
 11 12  1  6
 11 13  1  0
 12  6  1  0
 13 19  1  0
 14 13  2  0
 16 18  1  0
 16 15  1  6
 17 16  1  0
 18 20  1  0
 18 19  1  6
 20 21  2  0
 20 22  1  0
M  END
$$$$
