PVV.pdb
     RDKit          3D

 22 22  0  0  1  0  0  0  0  0999 V2000
    7.9616  -15.0947   20.6978 N   0  0  0  0  0  0  0  0  0  0  0  0
    8.8555  -16.2214   20.8395 C   0  0  0  0  0  0  0  0  0  0  0  0
    8.1552  -17.2530   21.6796 C   0  0  0  0  0  0  0  0  0  0  0  0
    6.7666  -16.6671   21.8639 C   0  0  0  0  0  0  0  0  0  0  0  0
    7.0296  -15.1999   21.7968 C   0  0  1  0  0  0  0  0  0  0  0  0
    7.7373  -14.7484   23.0624 C   0  0  0  0  0  0  0  0  0  0  0  0
    8.9704  -14.6694   22.9977 O   0  0  0  0  0  0  0  0  0  0  0  0
    6.3940  -11.7220   25.2434 C   0  0  0  0  0  0  0  0  0  0  0  0
    6.7002  -12.9149   26.1482 C   0  0  2  0  0  0  0  0  0  0  0  0
    7.2565  -12.3865   27.4156 C   0  0  0  0  0  0  0  0  0  0  0  0
    7.5333  -13.9187   25.4383 C   0  0  2  0  0  0  0  0  0  0  0  0
    7.0257  -14.4467   24.2137 N   0  0  0  0  0  0  0  0  0  0  0  0
    8.2040  -14.9506   26.2468 C   0  0  0  0  0  0  0  0  0  0  0  0
    7.5267  -15.9246   26.7504 O   0  0  0  0  0  0  0  0  0  0  0  0
   11.7750  -16.5301   25.3951 C   0  0  0  0  0  0  0  0  0  0  0  0
   11.6332  -16.3220   26.8824 C   0  0  1  0  0  0  0  0  0  0  0  0
   12.4568  -15.1254   27.3275 C   0  0  0  0  0  0  0  0  0  0  0  0
   10.1717  -16.1455   27.2422 C   0  0  2  0  0  0  0  0  0  0  0  0
    9.5821  -15.0203   26.5556 N   0  0  0  0  0  0  0  0  0  0  0  0
   10.0889  -16.0389   28.7175 C   0  0  0  0  0  0  0  0  0  0  0  0
    9.8304  -14.9334   29.2449 O   0  0  0  0  0  0  0  0  0  0  0  0
   10.2920  -17.1363   29.5075 O   0  0  0  0  0  0  0  0  0  0  0  0
  1  5  1  0
  2  1  1  0
  3  2  1  0
  3  4  1  0
  4  5  1  0
  6  7  2  0
  5  6  1  1
  9  8  1  6
  9 11  1  0
 10  9  1  0
 11 12  1  6
 11 13  1  0
 12  6  1  0
 13 19  1  0
 14 13  2  0
 16 18  1  0
 16 15  1  6
 17 16  1  0
 18 20  1  0
 18 19  1  6
 20 21  2  0
 20 22  1  0
M  END
$$$$
