PVV.pdb
     RDKit          3D

 22 22  0  0  1  0  0  0  0  0999 V2000
    8.6814  -15.3854   20.6929 N   0  0  0  0  0  0  0  0  0  0  0  0
    9.6918  -16.3938   20.9177 C   0  0  0  0  0  0  0  0  0  0  0  0
    9.0482  -17.5188   21.6796 C   0  0  0  0  0  0  0  0  0  0  0  0
    7.5855  -17.1141   21.7276 C   0  0  0  0  0  0  0  0  0  0  0  0
    7.6669  -15.6246   21.6934 C   0  0  1  0  0  0  0  0  0  0  0  0
    8.1847  -15.1097   23.0250 C   0  0  0  0  0  0  0  0  0  0  0  0
    9.4096  -14.9580   23.1107 O   0  0  0  0  0  0  0  0  0  0  0  0
    6.2939  -12.1651   24.9979 C   0  0  0  0  0  0  0  0  0  0  0  0
    6.6159  -13.3323   25.9304 C   0  0  2  0  0  0  0  0  0  0  0  0
    6.9514  -12.7672   27.2582 C   0  0  0  0  0  0  0  0  0  0  0  0
    7.6348  -14.2280   25.3262 C   0  0  2  0  0  0  0  0  0  0  0  0
    7.3193  -14.8312   24.0722 N   0  0  0  0  0  0  0  0  0  0  0  0
    8.3507  -15.1550   26.2186 C   0  0  0  0  0  0  0  0  0  0  0  0
    7.7951  -16.2555   26.5944 O   0  0  0  0  0  0  0  0  0  0  0  0
   12.4953  -15.5101   26.4783 C   0  0  0  0  0  0  0  0  0  0  0  0
   11.7652  -15.6604   27.7898 C   0  0  1  0  0  0  0  0  0  0  0  0
   11.8958  -14.3905   28.6137 C   0  0  0  0  0  0  0  0  0  0  0  0
   10.3107  -16.0010   27.5351 C   0  0  2  0  0  0  0  0  0  0  0  0
    9.6529  -14.9881   26.7436 N   0  0  0  0  0  0  0  0  0  0  0  0
    9.6703  -16.2206   28.8528 C   0  0  0  0  0  0  0  0  0  0  0  0
    8.9495  -15.3249   29.3479 O   0  0  0  0  0  0  0  0  0  0  0  0
    9.8594  -17.3919   29.5324 O   0  0  0  0  0  0  0  0  0  0  0  0
  1  5  1  0
  2  1  1  0
  3  2  1  0
  3  4  1  0
  4  5  1  0
  6  7  2  0
  5  6  1  1
  9  8  1  6
  9 11  1  0
 10  9  1  0
 11 12  1  6
 11 13  1  0
 12  6  1  0
 13 19  1  0
 14 13  2  0
 16 18  1  0
 16 15  1  6
 17 16  1  0
 18 20  1  0
 18 19  1  1
 20 21  2  0
 20 22  1  0
M  END
$$$$
