PVV.pdb
     RDKit          3D

 22 22  0  0  1  0  0  0  0  0999 V2000
    8.8191  -17.6038   16.6150 N   0  0  0  0  0  0  0  0  0  0  0  0
    9.4354  -18.7891   17.1662 C   0  0  0  0  0  0  0  0  0  0  0  0
    8.4384  -19.4303   18.0910 C   0  0  0  0  0  0  0  0  0  0  0  0
    7.1897  -18.5894   17.8931 C   0  0  0  0  0  0  0  0  0  0  0  0
    7.7576  -17.2577   17.5320 C   0  0  1  0  0  0  0  0  0  0  0  0
    8.3825  -16.6179   18.7594 C   0  0  0  0  0  0  0  0  0  0  0  0
    9.5997  -16.7878   18.9017 O   0  0  0  0  0  0  0  0  0  0  0  0
    7.4695  -12.8759   19.7263 C   0  0  0  0  0  0  0  0  0  0  0  0
    7.3687  -13.7798   20.9544 C   0  0  2  0  0  0  0  0  0  0  0  0
    7.8099  -12.9923   22.1293 C   0  0  0  0  0  0  0  0  0  0  0  0
    8.0777  -15.0647   20.7266 C   0  0  2  0  0  0  0  0  0  0  0  0
    7.6169  -15.8893   19.6572 N   0  0  0  0  0  0  0  0  0  0  0  0
    8.4607  -15.8570   21.9072 C   0  0  0  0  0  0  0  0  0  0  0  0
    7.5719  -16.5261   22.5579 O   0  0  0  0  0  0  0  0  0  0  0  0
   11.4485  -18.3742   22.3078 C   0  0  0  0  0  0  0  0  0  0  0  0
   11.3982  -17.4721   23.5158 C   0  0  1  0  0  0  0  0  0  0  0  0
   12.5104  -16.4392   23.4485 C   0  0  0  0  0  0  0  0  0  0  0  0
   10.0390  -16.8084   23.6084 C   0  0  2  0  0  0  0  0  0  0  0  0
    9.7594  -15.9939   22.4494 N   0  0  0  0  0  0  0  0  0  0  0  0
   10.0034  -16.0482   24.8795 C   0  0  0  0  0  0  0  0  0  0  0  0
   10.0161  -14.7967   24.8531 O   0  0  0  0  0  0  0  0  0  0  0  0
    9.9568  -16.7008   26.0802 O   0  0  0  0  0  0  0  0  0  0  0  0
  1  5  1  0
  2  1  1  0
  3  2  1  0
  3  4  1  0
  4  5  1  0
  6  7  2  0
  5  6  1  1
  9  8  1  6
  9 11  1  0
 10  9  1  0
 11 12  1  6
 11 13  1  0
 12  6  1  0
 13 19  1  0
 14 13  2  0
 16 18  1  0
 16 15  1  6
 17 16  1  0
 18 20  1  0
 18 19  1  6
 20 21  2  0
 20 22  1  0
M  END
$$$$
