PVV.pdb
     RDKit          3D

 22 22  0  0  1  0  0  0  0  0999 V2000
    7.9751  -14.7063   20.5621 N   0  0  0  0  0  0  0  0  0  0  0  0
    8.6799  -15.9679   20.5575 C   0  0  0  0  0  0  0  0  0  0  0  0
    7.8086  -16.9767   21.2528 C   0  0  0  0  0  0  0  0  0  0  0  0
    6.5236  -16.2091   21.5080 C   0  0  0  0  0  0  0  0  0  0  0  0
    7.0122  -14.8050   21.6348 C   0  0  1  0  0  0  0  0  0  0  0  0
    7.7513  -14.6372   22.9509 C   0  0  0  0  0  0  0  0  0  0  0  0
    8.9804  -14.7719   22.9059 O   0  0  0  0  0  0  0  0  0  0  0  0
    6.7427  -11.7246   25.4804 C   0  0  0  0  0  0  0  0  0  0  0  0
    6.9149  -13.0417   26.2360 C   0  0  2  0  0  0  0  0  0  0  0  0
    7.5307  -12.7303   27.5471 C   0  0  0  0  0  0  0  0  0  0  0  0
    7.6277  -14.0423   25.4016 C   0  0  2  0  0  0  0  0  0  0  0  0
    7.0707  -14.3499   24.1244 N   0  0  0  0  0  0  0  0  0  0  0  0
    8.1636  -15.2392   26.0714 C   0  0  0  0  0  0  0  0  0  0  0  0
    7.3692  -16.1741   26.4663 O   0  0  0  0  0  0  0  0  0  0  0  0
   10.7618  -17.6925   24.8804 C   0  0  0  0  0  0  0  0  0  0  0  0
   11.1305  -17.3662   26.3063 C   0  0  1  0  0  0  0  0  0  0  0  0
   12.3495  -16.4599   26.3408 C   0  0  0  0  0  0  0  0  0  0  0  0
    9.9516  -16.7259   27.0111 C   0  0  2  0  0  0  0  0  0  0  0  0
    9.5220  -15.5171   26.3482 N   0  0  0  0  0  0  0  0  0  0  0  0
   10.3441  -16.5103   28.4233 C   0  0  0  0  0  0  0  0  0  0  0  0
   10.5218  -15.3454   28.8457 O   0  0  0  0  0  0  0  0  0  0  0  0
   10.5137  -17.5715   29.2687 O   0  0  0  0  0  0  0  0  0  0  0  0
  1  5  1  0
  2  1  1  0
  3  2  1  0
  3  4  1  0
  4  5  1  0
  6  7  2  0
  5  6  1  1
  9  8  1  6
  9 11  1  0
 10  9  1  0
 11 12  1  6
 11 13  1  0
 12  6  1  0
 13 19  1  0
 14 13  2  0
 16 18  1  0
 16 15  1  6
 17 16  1  0
 18 20  1  0
 18 19  1  6
 20 21  2  0
 20 22  1  0
M  END
$$$$
