PVV.pdb
     RDKit          3D

 22 22  0  0  1  0  0  0  0  0999 V2000
    7.3503  -15.1835   20.7486 N   0  0  0  0  0  0  0  0  0  0  0  0
    6.5256  -14.0026   20.6312 C   0  0  0  0  0  0  0  0  0  0  0  0
    7.4245  -12.8571   20.2566 C   0  0  0  0  0  0  0  0  0  0  0  0
    8.7697  -13.5273   20.0399 C   0  0  0  0  0  0  0  0  0  0  0  0
    8.6939  -14.6973   20.9628 C   0  0  1  0  0  0  0  0  0  0  0  0
    8.8015  -14.2223   22.4013 C   0  0  0  0  0  0  0  0  0  0  0  0
    9.7724  -13.5024   22.6655 O   0  0  0  0  0  0  0  0  0  0  0  0
    5.9251  -12.7025   24.6310 C   0  0  0  0  0  0  0  0  0  0  0  0
    6.5483  -13.8974   25.3517 C   0  0  2  0  0  0  0  0  0  0  0  0
    6.5745  -13.5849   26.7997 C   0  0  0  0  0  0  0  0  0  0  0  0
    7.8505  -14.2653   24.7398 C   0  0  2  0  0  0  0  0  0  0  0  0
    7.8566  -14.5850   23.3493 N   0  0  0  0  0  0  0  0  0  0  0  0
    8.7487  -15.1415   25.5104 C   0  0  0  0  0  0  0  0  0  0  0  0
    8.9284  -16.3662   25.1512 O   0  0  0  0  0  0  0  0  0  0  0  0
   11.8112  -13.8637   28.0581 C   0  0  0  0  0  0  0  0  0  0  0  0
   11.0531  -15.0803   28.5280 C   0  0  1  0  0  0  0  0  0  0  0  0
   10.0741  -14.6992   29.6256 C   0  0  0  0  0  0  0  0  0  0  0  0
   10.3398  -15.7280   27.3582 C   0  0  2  0  0  0  0  0  0  0  0  0
    9.4922  -14.7900   26.6605 N   0  0  0  0  0  0  0  0  0  0  0  0
    9.6044  -16.9019   27.8834 C   0  0  0  0  0  0  0  0  0  0  0  0
    8.3623  -16.8408   28.0276 O   0  0  0  0  0  0  0  0  0  0  0  0
   10.2695  -18.0505   28.2118 O   0  0  0  0  0  0  0  0  0  0  0  0
  1  5  1  0
  2  1  1  0
  3  2  1  0
  3  4  1  0
  4  5  1  0
  6  7  2  0
  5  6  1  1
  9  8  1  6
  9 11  1  0
 10  9  1  0
 11 12  1  6
 11 13  1  0
 12  6  1  0
 13 19  1  0
 14 13  2  0
 16 18  1  0
 16 15  1  6
 17 16  1  0
 18 20  1  0
 18 19  1  1
 20 21  2  0
 20 22  1  0
M  END
$$$$
