PVV.pdb
     RDKit          3D

 22 22  0  0  1  0  0  0  0  0999 V2000
    8.1343  -14.7981   18.2704 N   0  0  0  0  0  0  0  0  0  0  0  0
    7.0712  -13.8194   18.2591 C   0  0  0  0  0  0  0  0  0  0  0  0
    7.5466  -12.6243   19.0377 C   0  0  0  0  0  0  0  0  0  0  0  0
    8.9927  -12.9658   19.3502 C   0  0  0  0  0  0  0  0  0  0  0  0
    8.9624  -14.4566   19.4041 C   0  0  1  0  0  0  0  0  0  0  0  0
    8.2477  -14.9087   20.6654 C   0  0  0  0  0  0  0  0  0  0  0  0
    7.0159  -14.7921   20.6645 O   0  0  0  0  0  0  0  0  0  0  0  0
    8.1529  -18.2684   21.9901 C   0  0  0  0  0  0  0  0  0  0  0  0
    8.6573  -17.4389   23.1703 C   0  0  2  0  0  0  0  0  0  0  0  0
    8.0657  -18.0070   24.4042 C   0  0  0  0  0  0  0  0  0  0  0  0
    8.4208  -15.9910   22.9401 C   0  0  2  0  0  0  0  0  0  0  0  0
    8.9519  -15.4199   21.7452 N   0  0  0  0  0  0  0  0  0  0  0  0
    8.5525  -15.0816   24.0908 C   0  0  0  0  0  0  0  0  0  0  0  0
    9.7158  -14.6769   24.4703 O   0  0  0  0  0  0  0  0  0  0  0  0
    6.8722  -11.9308   27.5039 C   0  0  0  0  0  0  0  0  0  0  0  0
    6.5399  -12.8582   26.3614 C   0  0  1  0  0  0  0  0  0  0  0  0
    6.1005  -12.0597   25.1459 C   0  0  0  0  0  0  0  0  0  0  0  0
    7.7363  -13.7312   26.0402 C   0  0  2  0  0  0  0  0  0  0  0  0
    7.5024  -14.5557   24.8781 N   0  0  0  0  0  0  0  0  0  0  0  0
    8.0529  -14.5134   27.2579 C   0  0  0  0  0  0  0  0  0  0  0  0
    7.4407  -15.5817   27.4842 O   0  0  0  0  0  0  0  0  0  0  0  0
    9.0069  -14.0794   28.1359 O   0  0  0  0  0  0  0  0  0  0  0  0
  1  5  1  0
  2  1  1  0
  3  2  1  0
  3  4  1  0
  4  5  1  0
  6  7  2  0
  5  6  1  1
  9  8  1  6
  9 11  1  0
 10  9  1  0
 11 12  1  6
 11 13  1  0
 12  6  1  0
 13 19  1  0
 14 13  2  0
 16 18  1  0
 16 15  1  1
 17 16  1  0
 18 20  1  0
 18 19  1  6
 20 21  2  0
 20 22  1  0
M  END
$$$$
