PVV.pdb
     RDKit          3D

 22 22  0  0  1  0  0  0  0  0999 V2000
    7.8636  -14.8292   20.5884 N   0  0  0  0  0  0  0  0  0  0  0  0
    8.6255  -16.0510   20.7121 C   0  0  0  0  0  0  0  0  0  0  0  0
    7.7958  -17.0249   21.5017 C   0  0  0  0  0  0  0  0  0  0  0  0
    6.4750  -16.2961   21.6747 C   0  0  0  0  0  0  0  0  0  0  0  0
    6.8979  -14.8652   21.6625 C   0  0  1  0  0  0  0  0  0  0  0  0
    7.6180  -14.5332   22.9577 C   0  0  0  0  0  0  0  0  0  0  0  0
    8.8522  -14.6166   22.9310 O   0  0  0  0  0  0  0  0  0  0  0  0
    6.3986  -11.4933   25.3271 C   0  0  0  0  0  0  0  0  0  0  0  0
    6.6577  -12.7630   26.1371 C   0  0  2  0  0  0  0  0  0  0  0  0
    7.2361  -12.3553   27.4388 C   0  0  0  0  0  0  0  0  0  0  0  0
    7.4491  -13.7421   25.3495 C   0  0  2  0  0  0  0  0  0  0  0  0
    6.9158  -14.1603   24.0938 N   0  0  0  0  0  0  0  0  0  0  0  0
    8.0855  -14.8541   26.0754 C   0  0  0  0  0  0  0  0  0  0  0  0
    7.3879  -15.8721   26.4469 O   0  0  0  0  0  0  0  0  0  0  0  0
   12.3286  -15.2899   26.8533 C   0  0  0  0  0  0  0  0  0  0  0  0
   11.4130  -16.4266   26.4723 C   0  0  1  0  0  0  0  0  0  0  0  0
   11.9590  -17.7423   27.0007 C   0  0  0  0  0  0  0  0  0  0  0  0
   10.0161  -16.1628   26.9973 C   0  0  2  0  0  0  0  0  0  0  0  0
    9.4491  -14.9604   26.4335 N   0  0  0  0  0  0  0  0  0  0  0  0
   10.0975  -16.1331   28.4762 C   0  0  0  0  0  0  0  0  0  0  0  0
   10.0953  -15.0335   29.0745 O   0  0  0  0  0  0  0  0  0  0  0  0
   10.1748  -17.2950   29.1929 O   0  0  0  0  0  0  0  0  0  0  0  0
  1  5  1  0
  2  1  1  0
  3  2  1  0
  3  4  1  0
  4  5  1  0
  6  7  2  0
  5  6  1  1
  9  8  1  6
  9 11  1  0
 10  9  1  0
 11 12  1  6
 11 13  1  0
 12  6  1  0
 13 19  1  0
 14 13  2  0
 16 18  1  0
 16 15  1  1
 17 16  1  0
 18 20  1  0
 18 19  1  6
 20 21  2  0
 20 22  1  0
M  END
$$$$
