PVV.pdb
     RDKit          3D

 22 22  0  0  1  0  0  0  0  0999 V2000
    8.2372  -15.2851   20.5472 N   0  0  0  0  0  0  0  0  0  0  0  0
    9.1349  -16.4132   20.6477 C   0  0  0  0  0  0  0  0  0  0  0  0
    8.4620  -17.4539   21.4988 C   0  0  0  0  0  0  0  0  0  0  0  0
    7.0801  -16.8702   21.7341 C   0  0  0  0  0  0  0  0  0  0  0  0
    7.3411  -15.4023   21.6745 C   0  0  1  0  0  0  0  0  0  0  0  0
    8.0896  -14.9645   22.9214 C   0  0  0  0  0  0  0  0  0  0  0  0
    9.3243  -15.0136   22.8604 O   0  0  0  0  0  0  0  0  0  0  0  0
    7.9688  -12.1532   26.9611 C   0  0  0  0  0  0  0  0  0  0  0  0
    7.1732  -12.8242   25.8422 C   0  0  2  0  0  0  0  0  0  0  0  0
    5.8531  -13.2060   26.3961 C   0  0  0  0  0  0  0  0  0  0  0  0
    7.9587  -13.9175   25.2153 C   0  0  2  0  0  0  0  0  0  0  0  0
    7.4109  -14.5377   24.0528 N   0  0  0  0  0  0  0  0  0  0  0  0
    8.6097  -14.8935   26.1052 C   0  0  0  0  0  0  0  0  0  0  0  0
    7.9851  -15.9611   26.4675 O   0  0  0  0  0  0  0  0  0  0  0  0
   12.7056  -17.0110   27.8934 C   0  0  0  0  0  0  0  0  0  0  0  0
   12.0728  -15.8392   27.1849 C   0  0  1  0  0  0  0  0  0  0  0  0
   12.5183  -15.7985   25.7329 C   0  0  0  0  0  0  0  0  0  0  0  0
   10.5635  -15.9242   27.2927 C   0  0  2  0  0  0  0  0  0  0  0  0
    9.9154  -14.8104   26.6413 N   0  0  0  0  0  0  0  0  0  0  0  0
   10.2283  -16.0360   28.7314 C   0  0  0  0  0  0  0  0  0  0  0  0
    9.9258  -15.0078   29.3783 O   0  0  0  0  0  0  0  0  0  0  0  0
   10.2462  -17.2510   29.3583 O   0  0  0  0  0  0  0  0  0  0  0  0
  1  5  1  0
  2  1  1  0
  3  2  1  0
  3  4  1  0
  4  5  1  0
  6  7  2  0
  5  6  1  1
  9  8  1  1
  9 11  1  0
 10  9  1  0
 11 12  1  6
 11 13  1  0
 12  6  1  0
 13 19  1  0
 14 13  2  0
 16 18  1  0
 16 15  1  6
 17 16  1  0
 18 20  1  0
 18 19  1  1
 20 21  2  0
 20 22  1  0
M  END
$$$$
