PVV.pdb
     RDKit          3D

 22 22  0  0  1  0  0  0  0  0999 V2000
    7.6917  -15.1373   20.7269 N   0  0  0  0  0  0  0  0  0  0  0  0
    8.7429  -16.1280   20.7725 C   0  0  0  0  0  0  0  0  0  0  0  0
    8.2772  -17.2426   21.6674 C   0  0  0  0  0  0  0  0  0  0  0  0
    6.8449  -16.8548   21.9892 C   0  0  0  0  0  0  0  0  0  0  0  0
    6.8936  -15.3656   21.9095 C   0  0  1  0  0  0  0  0  0  0  0  0
    7.6504  -14.8136   23.1048 C   0  0  0  0  0  0  0  0  0  0  0  0
    8.8752  -14.7019   22.9693 O   0  0  0  0  0  0  0  0  0  0  0  0
    6.3805  -11.6974   25.1953 C   0  0  0  0  0  0  0  0  0  0  0  0
    6.7426  -12.8395   26.1440 C   0  0  2  0  0  0  0  0  0  0  0  0
    7.3565  -12.2420   27.3528 C   0  0  0  0  0  0  0  0  0  0  0  0
    7.5486  -13.8732   25.4459 C   0  0  2  0  0  0  0  0  0  0  0  0
    6.9897  -14.4607   24.2718 N   0  0  0  0  0  0  0  0  0  0  0  0
    8.2606  -14.8630   26.2715 C   0  0  0  0  0  0  0  0  0  0  0  0
    7.6244  -15.8580   26.7874 O   0  0  0  0  0  0  0  0  0  0  0  0
   12.3106  -17.3259   27.5946 C   0  0  0  0  0  0  0  0  0  0  0  0
   11.7046  -16.1613   26.8516 C   0  0  1  0  0  0  0  0  0  0  0  0
   11.7817  -16.3954   25.3524 C   0  0  0  0  0  0  0  0  0  0  0  0
   10.2724  -15.9513   27.3003 C   0  0  2  0  0  0  0  0  0  0  0  0
    9.6393  -14.8683   26.5854 N   0  0  0  0  0  0  0  0  0  0  0  0
   10.2936  -15.7495   28.7678 C   0  0  0  0  0  0  0  0  0  0  0  0
   10.3098  -14.5874   29.2330 O   0  0  0  0  0  0  0  0  0  0  0  0
   10.2955  -16.8204   29.6181 O   0  0  0  0  0  0  0  0  0  0  0  0
  1  5  1  0
  2  1  1  0
  3  2  1  0
  3  4  1  0
  4  5  1  0
  6  7  2  0
  5  6  1  1
  9  8  1  6
  9 11  1  0
 10  9  1  0
 11 12  1  6
 11 13  1  0
 12  6  1  0
 13 19  1  0
 14 13  2  0
 16 18  1  0
 16 15  1  1
 17 16  1  0
 18 20  1  0
 18 19  1  6
 20 21  2  0
 20 22  1  0
M  END
$$$$
