PVV.pdb
     RDKit          3D

 22 22  0  0  1  0  0  0  0  0999 V2000
    8.2445  -16.8148   19.9022 N   0  0  0  0  0  0  0  0  0  0  0  0
    7.2466  -15.8061   19.6277 C   0  0  0  0  0  0  0  0  0  0  0  0
    7.8638  -14.4665   19.9190 C   0  0  0  0  0  0  0  0  0  0  0  0
    9.3089  -14.8105   20.2335 C   0  0  0  0  0  0  0  0  0  0  0  0
    9.1926  -16.1882   20.7944 C   0  0  1  0  0  0  0  0  0  0  0  0
    8.5704  -16.1265   22.1784 C   0  0  0  0  0  0  0  0  0  0  0  0
    7.9711  -15.0813   22.4596 O   0  0  0  0  0  0  0  0  0  0  0  0
    6.1560  -18.6061   23.8157 C   0  0  0  0  0  0  0  0  0  0  0  0
    7.3631  -18.4700   24.7429 C   0  0  2  0  0  0  0  0  0  0  0  0
    6.8679  -18.5353   26.1377 C   0  0  0  0  0  0  0  0  0  0  0  0
    8.1688  -17.2729   24.3920 C   0  0  2  0  0  0  0  0  0  0  0  0
    8.6783  -17.1900   23.0617 N   0  0  0  0  0  0  0  0  0  0  0  0
    9.1394  -16.7825   25.3849 C   0  0  0  0  0  0  0  0  0  0  0  0
   10.3680  -17.1691   25.3396 O   0  0  0  0  0  0  0  0  0  0  0  0
   10.5711  -13.8499   29.1297 C   0  0  0  0  0  0  0  0  0  0  0  0
    9.4405  -14.3152   28.2460 C   0  0  1  0  0  0  0  0  0  0  0  0
    8.9287  -13.1646   27.3961 C   0  0  0  0  0  0  0  0  0  0  0  0
    9.9026  -15.4713   27.3819 C   0  0  2  0  0  0  0  0  0  0  0  0
    8.8845  -15.8802   26.4432 N   0  0  0  0  0  0  0  0  0  0  0  0
   10.3306  -16.5598   28.2912 C   0  0  0  0  0  0  0  0  0  0  0  0
    9.4900  -17.3939   28.6972 O   0  0  0  0  0  0  0  0  0  0  0  0
   11.6344  -16.6615   28.6905 O   0  0  0  0  0  0  0  0  0  0  0  0
  1  5  1  0
  2  1  1  0
  3  2  1  0
  3  4  1  0
  4  5  1  0
  6  7  2  0
  5  6  1  1
  9  8  1  6
  9 11  1  0
 10  9  1  0
 11 12  1  6
 11 13  1  0
 12  6  1  0
 13 19  1  0
 14 13  2  0
 16 18  1  0
 16 15  1  6
 17 16  1  0
 18 20  1  0
 18 19  1  6
 20 21  2  0
 20 22  1  0
M  END
$$$$
