PVV.pdb
     RDKit          3D

 22 22  0  0  1  0  0  0  0  0999 V2000
    7.8055  -14.6676   20.5355 N   0  0  0  0  0  0  0  0  0  0  0  0
    8.4539  -15.9591   20.5366 C   0  0  0  0  0  0  0  0  0  0  0  0
    7.5505  -16.9195   21.2590 C   0  0  0  0  0  0  0  0  0  0  0  0
    6.3049  -16.0927   21.5241 C   0  0  0  0  0  0  0  0  0  0  0  0
    6.8569  -14.7101   21.6245 C   0  0  1  0  0  0  0  0  0  0  0  0
    7.6240  -14.5586   22.9264 C   0  0  0  0  0  0  0  0  0  0  0  0
    8.8440  -14.7548   22.8652 O   0  0  0  0  0  0  0  0  0  0  0  0
    6.7301  -11.6275   25.5424 C   0  0  0  0  0  0  0  0  0  0  0  0
    6.8898  -12.9696   26.2556 C   0  0  2  0  0  0  0  0  0  0  0  0
    7.5368  -12.7095   27.5629 C   0  0  0  0  0  0  0  0  0  0  0  0
    7.5660  -13.9589   25.3784 C   0  0  2  0  0  0  0  0  0  0  0  0
    6.9770  -14.2195   24.1051 N   0  0  0  0  0  0  0  0  0  0  0  0
    8.0926  -15.1842   26.0027 C   0  0  0  0  0  0  0  0  0  0  0  0
    7.2867  -16.0958   26.4277 O   0  0  0  0  0  0  0  0  0  0  0  0
   10.6791  -17.5399   24.5136 C   0  0  0  0  0  0  0  0  0  0  0  0
   11.0525  -17.3567   25.9636 C   0  0  1  0  0  0  0  0  0  0  0  0
   12.2717  -16.4583   26.0840 C   0  0  0  0  0  0  0  0  0  0  0  0
    9.8760  -16.7896   26.7323 C   0  0  2  0  0  0  0  0  0  0  0  0
    9.4527  -15.5150   26.2021 N   0  0  0  0  0  0  0  0  0  0  0  0
   10.2682  -16.7280   28.1595 C   0  0  0  0  0  0  0  0  0  0  0  0
   10.5112  -15.6193   28.6877 O   0  0  0  0  0  0  0  0  0  0  0  0
   10.3669  -17.8703   28.9046 O   0  0  0  0  0  0  0  0  0  0  0  0
  1  5  1  0
  2  1  1  0
  3  2  1  0
  3  4  1  0
  4  5  1  0
  6  7  2  0
  5  6  1  1
  9  8  1  6
  9 11  1  0
 10  9  1  0
 11 12  1  6
 11 13  1  0
 12  6  1  0
 13 19  1  0
 14 13  2  0
 16 18  1  0
 16 15  1  6
 17 16  1  0
 18 20  1  0
 18 19  1  6
 20 21  2  0
 20 22  1  0
M  END
$$$$
