PVV.pdb
     RDKit          3D

 22 22  0  0  1  0  0  0  0  0999 V2000
    7.7748  -15.0062   18.6416 N   0  0  0  0  0  0  0  0  0  0  0  0
    6.9140  -13.8471   18.5795 C   0  0  0  0  0  0  0  0  0  0  0  0
    7.6174  -12.7214   19.2855 C   0  0  0  0  0  0  0  0  0  0  0  0
    8.9786  -13.3110   19.6097 C   0  0  0  0  0  0  0  0  0  0  0  0
    8.6702  -14.7641   19.7495 C   0  0  1  0  0  0  0  0  0  0  0  0
    7.9034  -15.0029   21.0384 C   0  0  0  0  0  0  0  0  0  0  0  0
    6.7176  -14.6498   21.0397 O   0  0  0  0  0  0  0  0  0  0  0  0
    6.8397  -17.9993   22.4597 C   0  0  0  0  0  0  0  0  0  0  0  0
    7.6517  -17.3997   23.6072 C   0  0  2  0  0  0  0  0  0  0  0  0
    6.9633  -17.7448   24.8729 C   0  0  0  0  0  0  0  0  0  0  0  0
    7.9083  -15.9552   23.3769 C   0  0  2  0  0  0  0  0  0  0  0  0
    8.5141  -15.5842   22.1394 N   0  0  0  0  0  0  0  0  0  0  0  0
    8.4262  -15.1610   24.5035 C   0  0  0  0  0  0  0  0  0  0  0  0
    9.6903  -15.1334   24.7532 O   0  0  0  0  0  0  0  0  0  0  0  0
    7.4838  -11.4382   25.8119 C   0  0  0  0  0  0  0  0  0  0  0  0
    7.4564  -12.4602   26.9211 C   0  0  1  0  0  0  0  0  0  0  0  0
    6.0228  -12.8356   27.2559 C   0  0  0  0  0  0  0  0  0  0  0  0
    8.2626  -13.6791   26.5203 C   0  0  2  0  0  0  0  0  0  0  0  0
    7.6705  -14.3692   25.3986 N   0  0  0  0  0  0  0  0  0  0  0  0
    8.4030  -14.5320   27.7235 C   0  0  0  0  0  0  0  0  0  0  0  0
    7.6976  -15.5597   27.8397 O   0  0  0  0  0  0  0  0  0  0  0  0
    9.2954  -14.2071   28.7072 O   0  0  0  0  0  0  0  0  0  0  0  0
  1  5  1  0
  2  1  1  0
  3  2  1  0
  3  4  1  0
  4  5  1  0
  6  7  2  0
  5  6  1  1
  9  8  1  6
  9 11  1  0
 10  9  1  0
 11 12  1  6
 11 13  1  0
 12  6  1  0
 13 19  1  0
 14 13  2  0
 16 18  1  0
 16 15  1  6
 17 16  1  0
 18 20  1  0
 18 19  1  6
 20 21  2  0
 20 22  1  0
M  END
$$$$
