PVV.pdb
     RDKit          3D

 22 22  0  0  1  0  0  0  0  0999 V2000
    8.8909  -15.2978   20.4792 N   0  0  0  0  0  0  0  0  0  0  0  0
   10.0679  -16.0998   20.7243 C   0  0  0  0  0  0  0  0  0  0  0  0
    9.6438  -17.2906   21.5381 C   0  0  0  0  0  0  0  0  0  0  0  0
    8.1328  -17.1523   21.5956 C   0  0  0  0  0  0  0  0  0  0  0  0
    7.9456  -15.6748   21.5048 C   0  0  1  0  0  0  0  0  0  0  0  0
    8.3758  -15.0233   22.8074 C   0  0  0  0  0  0  0  0  0  0  0  0
    9.5459  -14.6239   22.8557 O   0  0  0  0  0  0  0  0  0  0  0  0
    6.0847  -12.4361   24.8273 C   0  0  0  0  0  0  0  0  0  0  0  0
    6.6043  -13.5335   25.7552 C   0  0  2  0  0  0  0  0  0  0  0  0
    6.8803  -12.9144   27.0727 C   0  0  0  0  0  0  0  0  0  0  0  0
    7.7342  -14.2661   25.1291 C   0  0  2  0  0  0  0  0  0  0  0  0
    7.4942  -14.8927   23.8698 N   0  0  0  0  0  0  0  0  0  0  0  0
    8.5856  -15.0919   26.0017 C   0  0  0  0  0  0  0  0  0  0  0  0
    8.4643  -16.3750   26.0036 O   0  0  0  0  0  0  0  0  0  0  0  0
   11.5131  -13.4375   28.4153 C   0  0  0  0  0  0  0  0  0  0  0  0
   11.0943  -14.8318   28.8103 C   0  0  1  0  0  0  0  0  0  0  0  0
   10.1606  -14.7818   30.0078 C   0  0  0  0  0  0  0  0  0  0  0  0
   10.4396  -15.5273   27.6337 C   0  0  2  0  0  0  0  0  0  0  0  0
    9.5869  -14.6320   26.8878 N   0  0  0  0  0  0  0  0  0  0  0  0
    9.7237  -16.7117   28.1622 C   0  0  0  0  0  0  0  0  0  0  0  0
    8.4935  -16.6436   28.3841 O   0  0  0  0  0  0  0  0  0  0  0  0
   10.3939  -17.8775   28.4096 O   0  0  0  0  0  0  0  0  0  0  0  0
  1  5  1  0
  2  1  1  0
  3  2  1  0
  3  4  1  0
  4  5  1  0
  6  7  2  0
  5  6  1  1
  9  8  1  6
  9 11  1  0
 10  9  1  0
 11 12  1  6
 11 13  1  0
 12  6  1  0
 13 19  1  0
 14 13  2  0
 16 18  1  0
 16 15  1  6
 17 16  1  0
 18 20  1  0
 18 19  1  1
 20 21  2  0
 20 22  1  0
M  END
$$$$
