FAS.pdb
     RDKit          3D

 23 23  0  0  1  0  0  0  0  0999 V2000
    9.6891  -15.3012   25.0180 N   0  0  0  0  0  0  0  0  0  0  0  0
    8.3862  -15.8534   25.1930 C   0  0  1  0  0  0  0  0  0  0  0  0
    7.7148  -15.2256   26.3928 C   0  0  0  0  0  0  0  0  0  0  0  0
    8.7861  -14.7761   27.3191 C   0  0  0  0  0  0  0  0  0  0  0  0
    9.5224  -15.6414   28.1078 C   0  0  0  0  0  0  0  0  0  0  0  0
   10.5096  -15.2031   28.9585 C   0  0  0  0  0  0  0  0  0  0  0  0
   10.7832  -13.8558   29.0355 C   0  0  0  0  0  0  0  0  0  0  0  0
   10.0745  -12.9409   28.2656 C   0  0  0  0  0  0  0  0  0  0  0  0
    9.0930  -13.4358   27.4276 C   0  0  0  0  0  0  0  0  0  0  0  0
    7.6202  -15.6451   23.9476 C   0  0  0  0  0  0  0  0  0  0  0  0
    6.4388  -16.0519   23.8654 O   0  0  0  0  0  0  0  0  0  0  0  0
    7.4529  -13.3985   21.1214 C   0  0  0  0  0  0  0  0  0  0  0  0
    7.5096  -14.8525   21.5565 C   0  0  2  0  0  0  0  0  0  0  0  0
    8.2027  -14.9906   22.8417 N   0  0  0  0  0  0  0  0  0  0  0  0
    8.2540  -15.6846   20.5754 C   0  0  0  0  0  0  0  0  0  0  0  0
    7.9587  -15.6960   19.3450 O   0  0  0  0  0  0  0  0  0  0  0  0
   11.6125  -15.4661   19.8579 O   0  0  0  0  0  0  0  0  0  0  0  0
   10.8501  -16.3321   19.0987 C   0  0  0  0  0  0  0  0  0  0  0  0
   10.0939  -17.2991   19.9814 C   0  0  2  0  0  0  0  0  0  0  0  0
    9.3423  -16.5192   20.9528 N   0  0  0  0  0  0  0  0  0  0  0  0
   11.0448  -18.1473   20.7636 C   0  0  0  0  0  0  0  0  0  0  0  0
   11.0143  -18.1248   22.0212 O   0  0  0  0  0  0  0  0  0  0  0  0
   11.9792  -18.9757   20.1656 O   0  0  0  0  0  0  0  0  0  0  0  0
  2  1  1  6
  2 10  1  0
  3  2  1  0
  4  5  2  0
  4  3  1  0
  6  5  1  0
  7  6  2  0
  8  7  1  0
  8  9  2  0
  9  4  1  0
 10 11  2  0
 10 14  1  0
 13 15  1  0
 13 12  1  6
 14 13  1  0
 15 16  2  0
 18 17  1  0
 19 18  1  6
 20 19  1  0
 20 15  1  0
 21 19  1  0
 22 21  2  0
 23 21  1  0
M  END
$$$$
