FAS.pdb
     RDKit          3D

 23 23  0  0  1  0  0  0  0  0999 V2000
    5.8537  -17.4463   25.4826 N   0  0  0  0  0  0  0  0  0  0  0  0
    6.4482  -16.1864   25.1783 C   0  0  1  0  0  0  0  0  0  0  0  0
    7.3841  -15.7735   26.2911 C   0  0  0  0  0  0  0  0  0  0  0  0
    7.2427  -14.3054   26.4713 C   0  0  0  0  0  0  0  0  0  0  0  0
    8.3189  -13.4386   26.5268 C   0  0  0  0  0  0  0  0  0  0  0  0
    8.1646  -12.0827   26.6944 C   0  0  0  0  0  0  0  0  0  0  0  0
    6.8967  -11.5585   26.8123 C   0  0  0  0  0  0  0  0  0  0  0  0
    5.7788  -12.3831   26.7635 C   0  0  0  0  0  0  0  0  0  0  0  0
    5.9913  -13.7382   26.5935 C   0  0  0  0  0  0  0  0  0  0  0  0
    7.1373  -16.2980   23.8769 C   0  0  0  0  0  0  0  0  0  0  0  0
    7.7867  -17.3323   23.6005 O   0  0  0  0  0  0  0  0  0  0  0  0
    7.5013  -14.0649   20.8199 C   0  0  0  0  0  0  0  0  0  0  0  0
    7.7396  -15.3280   21.6288 C   0  0  2  0  0  0  0  0  0  0  0  0
    7.0749  -15.2503   22.9339 N   0  0  0  0  0  0  0  0  0  0  0  0
    9.1867  -15.5375   21.8955 C   0  0  0  0  0  0  0  0  0  0  0  0
    9.8466  -14.7704   22.6555 O   0  0  0  0  0  0  0  0  0  0  0  0
   10.8678  -19.0578   21.8749 O   0  0  0  0  0  0  0  0  0  0  0  0
   11.5888  -17.9827   22.3566 C   0  0  0  0  0  0  0  0  0  0  0  0
   11.3573  -16.7544   21.5057 C   0  0  2  0  0  0  0  0  0  0  0  0
    9.9221  -16.6088   21.3171 N   0  0  0  0  0  0  0  0  0  0  0  0
   11.9468  -16.9418   20.1446 C   0  0  0  0  0  0  0  0  0  0  0  0
   11.1945  -16.9813   19.1368 O   0  0  0  0  0  0  0  0  0  0  0  0
   13.3074  -17.0775   19.9271 O   0  0  0  0  0  0  0  0  0  0  0  0
  2  1  1  1
  2 10  1  0
  3  2  1  0
  4  5  2  0
  4  3  1  0
  6  5  1  0
  7  6  2  0
  8  7  1  0
  8  9  2  0
  9  4  1  0
 10 11  2  0
 10 14  1  0
 13 15  1  0
 13 12  1  1
 14 13  1  0
 15 16  2  0
 18 17  1  0
 19 18  1  1
 20 19  1  0
 20 15  1  0
 21 19  1  0
 22 21  2  0
 23 21  1  0
M  END
$$$$
