FAS.pdb
     RDKit          3D

 23 23  0  0  1  0  0  0  0  0999 V2000
    5.7183  -17.5411   25.4438 N   0  0  0  0  0  0  0  0  0  0  0  0
    6.3189  -16.2651   25.2331 C   0  0  1  0  0  0  0  0  0  0  0  0
    6.9565  -15.7754   26.5131 C   0  0  0  0  0  0  0  0  0  0  0  0
    6.9034  -14.2906   26.4983 C   0  0  0  0  0  0  0  0  0  0  0  0
    8.0020  -13.4926   26.2356 C   0  0  0  0  0  0  0  0  0  0  0  0
    7.9299  -12.1197   26.2273 C   0  0  0  0  0  0  0  0  0  0  0  0
    6.7248  -11.5068   26.4888 C   0  0  0  0  0  0  0  0  0  0  0  0
    5.5880  -12.2595   26.7593 C   0  0  0  0  0  0  0  0  0  0  0  0
    5.7169  -13.6357   26.7548 C   0  0  0  0  0  0  0  0  0  0  0  0
    7.2935  -16.3848   24.1300 C   0  0  0  0  0  0  0  0  0  0  0  0
    8.0369  -17.3900   24.0596 O   0  0  0  0  0  0  0  0  0  0  0  0
    8.1484  -14.3151   21.0577 C   0  0  0  0  0  0  0  0  0  0  0  0
    8.3249  -15.4819   22.0138 C   0  0  2  0  0  0  0  0  0  0  0  0
    7.4006  -15.3776   23.1477 N   0  0  0  0  0  0  0  0  0  0  0  0
    9.6984  -15.5168   22.5808 C   0  0  0  0  0  0  0  0  0  0  0  0
   10.0994  -14.6588   23.4201 O   0  0  0  0  0  0  0  0  0  0  0  0
   11.5359  -18.1578   24.3703 O   0  0  0  0  0  0  0  0  0  0  0  0
   12.3160  -17.8800   23.2649 C   0  0  0  0  0  0  0  0  0  0  0  0
   12.0126  -16.5008   22.7245 C   0  0  2  0  0  0  0  0  0  0  0  0
   10.6482  -16.5120   22.2194 N   0  0  0  0  0  0  0  0  0  0  0  0
   12.8939  -16.1903   21.5574 C   0  0  0  0  0  0  0  0  0  0  0  0
   12.4059  -16.1475   20.3985 O   0  0  0  0  0  0  0  0  0  0  0  0
   14.2500  -15.9413   21.6851 O   0  0  0  0  0  0  0  0  0  0  0  0
  2  1  1  1
  2 10  1  0
  3  2  1  0
  4  5  2  0
  4  3  1  0
  6  5  1  0
  7  6  2  0
  8  7  1  0
  8  9  2  0
  9  4  1  0
 10 11  2  0
 10 14  1  0
 13 15  1  0
 13 12  1  6
 14 13  1  0
 15 16  2  0
 18 17  1  0
 19 18  1  6
 20 19  1  0
 20 15  1  0
 21 19  1  0
 22 21  2  0
 23 21  1  0
M  END
$$$$
