FAS.pdb
     RDKit          3D

 23 23  0  0  1  0  0  0  0  0999 V2000
    6.5809  -17.3045   25.7493 N   0  0  0  0  0  0  0  0  0  0  0  0
    6.8261  -16.0592   25.0994 C   0  0  1  0  0  0  0  0  0  0  0  0
    7.9850  -15.3494   25.7611 C   0  0  0  0  0  0  0  0  0  0  0  0
    7.4808  -14.0455   26.2645 C   0  0  0  0  0  0  0  0  0  0  0  0
    6.4441  -13.3497   25.6695 C   0  0  0  0  0  0  0  0  0  0  0  0
    5.9937  -12.1439   26.1526 C   0  0  0  0  0  0  0  0  0  0  0  0
    6.5895  -11.6004   27.2688 C   0  0  0  0  0  0  0  0  0  0  0  0
    7.6357  -12.2562   27.9071 C   0  0  0  0  0  0  0  0  0  0  0  0
    8.0487  -13.4651   27.3794 C   0  0  0  0  0  0  0  0  0  0  0  0
    7.0717  -16.3212   23.6669 C   0  0  0  0  0  0  0  0  0  0  0  0
    7.1224  -17.4998   23.2471 O   0  0  0  0  0  0  0  0  0  0  0  0
    7.0773  -14.2504   20.5190 C   0  0  0  0  0  0  0  0  0  0  0  0
    7.4685  -15.4772   21.3243 C   0  0  2  0  0  0  0  0  0  0  0  0
    7.2510  -15.2570   22.7579 N   0  0  0  0  0  0  0  0  0  0  0  0
    8.9086  -15.8028   21.1533 C   0  0  0  0  0  0  0  0  0  0  0  0
    9.4034  -16.0820   20.0225 O   0  0  0  0  0  0  0  0  0  0  0  0
   11.5276  -15.9166   24.4227 O   0  0  0  0  0  0  0  0  0  0  0  0
   11.9846  -15.4477   23.2066 C   0  0  0  0  0  0  0  0  0  0  0  0
   11.2385  -16.0983   22.0637 C   0  0  2  0  0  0  0  0  0  0  0  0
    9.8215  -15.8220   22.2439 N   0  0  0  0  0  0  0  0  0  0  0  0
   11.3906  -17.5847   22.1180 C   0  0  0  0  0  0  0  0  0  0  0  0
   10.3915  -18.3073   22.3686 O   0  0  0  0  0  0  0  0  0  0  0  0
   12.5993  -18.2247   21.9024 O   0  0  0  0  0  0  0  0  0  0  0  0
  2  1  1  1
  2 10  1  0
  3  2  1  0
  4  5  2  0
  4  3  1  0
  6  5  1  0
  7  6  2  0
  8  7  1  0
  8  9  2  0
  9  4  1  0
 10 11  2  0
 10 14  1  0
 13 15  1  0
 13 12  1  6
 14 13  1  0
 15 16  2  0
 18 17  1  0
 19 18  1  1
 20 19  1  0
 20 15  1  0
 21 19  1  0
 22 21  2  0
 23 21  1  0
M  END
$$$$
