FAS.pdb
     RDKit          3D

 23 23  0  0  1  0  0  0  0  0999 V2000
    9.0734  -17.1008   23.0166 N   0  0  0  0  0  0  0  0  0  0  0  0
    9.7157  -16.6218   21.8371 C   0  0  1  0  0  0  0  0  0  0  0  0
   10.1052  -15.1719   22.0123 C   0  0  0  0  0  0  0  0  0  0  0  0
    9.1609  -14.3557   21.2060 C   0  0  0  0  0  0  0  0  0  0  0  0
    9.3678  -14.0474   19.8737 C   0  0  0  0  0  0  0  0  0  0  0  0
    8.4801  -13.2900   19.1467 C   0  0  0  0  0  0  0  0  0  0  0  0
    7.3406  -12.8163   19.7575 C   0  0  0  0  0  0  0  0  0  0  0  0
    7.0817  -13.0955   21.0944 C   0  0  0  0  0  0  0  0  0  0  0  0
    8.0073  -13.8612   21.7780 C   0  0  0  0  0  0  0  0  0  0  0  0
   10.8797  -17.4862   21.5561 C   0  0  0  0  0  0  0  0  0  0  0  0
   11.8494  -17.5052   22.3481 O   0  0  0  0  0  0  0  0  0  0  0  0
   11.6201  -20.3183   19.1879 C   0  0  0  0  0  0  0  0  0  0  0  0
   12.0471  -19.1795   20.0975 C   0  0  2  0  0  0  0  0  0  0  0  0
   10.9163  -18.2963   20.4015 N   0  0  0  0  0  0  0  0  0  0  0  0
   13.0912  -18.3363   19.4587 C   0  0  0  0  0  0  0  0  0  0  0  0
   12.8126  -17.2425   18.8866 O   0  0  0  0  0  0  0  0  0  0  0  0
   17.8113  -17.4004   18.9282 O   0  0  0  0  0  0  0  0  0  0  0  0
   16.7957  -18.1395   19.5024 C   0  0  0  0  0  0  0  0  0  0  0  0
   15.4803  -17.8821   18.8026 C   0  0  2  0  0  0  0  0  0  0  0  0
   14.4660  -18.7011   19.4483 N   0  0  0  0  0  0  0  0  0  0  0  0
   15.5473  -18.3345   17.3792 C   0  0  0  0  0  0  0  0  0  0  0  0
   15.1264  -19.4780   17.0655 O   0  0  0  0  0  0  0  0  0  0  0  0
   16.0592  -17.5453   16.3632 O   0  0  0  0  0  0  0  0  0  0  0  0
  2  1  1  1
  2 10  1  0
  3  2  1  0
  4  5  2  0
  4  3  1  0
  6  5  1  0
  7  6  2  0
  8  7  1  0
  8  9  2  0
  9  4  1  0
 10 11  2  0
 10 14  1  0
 13 15  1  0
 13 12  1  6
 14 13  1  0
 15 16  2  0
 18 17  1  0
 19 18  1  1
 20 19  1  0
 20 15  1  0
 21 19  1  0
 22 21  2  0
 23 21  1  0
M  END
$$$$
