FAS.pdb
     RDKit          3D

 23 23  0  0  1  0  0  0  0  0999 V2000
    6.0057  -16.7255   25.0135 N   0  0  0  0  0  0  0  0  0  0  0  0
    7.2475  -16.0392   24.8725 C   0  0  1  0  0  0  0  0  0  0  0  0
    7.5637  -15.2760   26.1383 C   0  0  0  0  0  0  0  0  0  0  0  0
    7.0710  -13.8861   25.9562 C   0  0  0  0  0  0  0  0  0  0  0  0
    7.7328  -12.9375   25.1979 C   0  0  0  0  0  0  0  0  0  0  0  0
    7.2583  -11.6565   25.0432 C   0  0  0  0  0  0  0  0  0  0  0  0
    6.0822  -11.2944   25.6612 C   0  0  0  0  0  0  0  0  0  0  0  0
    5.3753  -12.2071   26.4353 C   0  0  0  0  0  0  0  0  0  0  0  0
    5.8975  -13.4811   26.5573 C   0  0  0  0  0  0  0  0  0  0  0  0
    8.2917  -17.0283   24.5371 C   0  0  0  0  0  0  0  0  0  0  0  0
    8.2348  -18.1836   25.0167 O   0  0  0  0  0  0  0  0  0  0  0  0
   11.2895  -17.0846   22.2045 C   0  0  0  0  0  0  0  0  0  0  0  0
   10.3829  -17.6605   23.2783 C   0  0  2  0  0  0  0  0  0  0  0  0
    9.3592  -16.6896   23.6791 N   0  0  0  0  0  0  0  0  0  0  0  0
   11.1470  -18.0099   24.5044 C   0  0  0  0  0  0  0  0  0  0  0  0
   11.6071  -17.1248   25.2830 O   0  0  0  0  0  0  0  0  0  0  0  0
   10.4186  -20.6100   27.2690 O   0  0  0  0  0  0  0  0  0  0  0  0
   11.6363  -20.9116   26.6914 C   0  0  0  0  0  0  0  0  0  0  0  0
   12.2366  -19.6908   26.0315 C   0  0  2  0  0  0  0  0  0  0  0  0
   11.4103  -19.3558   24.8819 N   0  0  0  0  0  0  0  0  0  0  0  0
   13.5988  -20.0002   25.4986 C   0  0  0  0  0  0  0  0  0  0  0  0
   13.7965  -20.0135   24.2561 O   0  0  0  0  0  0  0  0  0  0  0  0
   14.6802  -20.2795   26.3168 O   0  0  0  0  0  0  0  0  0  0  0  0
  2  1  1  1
  2 10  1  0
  3  2  1  0
  4  5  2  0
  4  3  1  0
  6  5  1  0
  7  6  2  0
  8  7  1  0
  8  9  2  0
  9  4  1  0
 10 11  2  0
 10 14  1  0
 13 15  1  0
 13 12  1  6
 14 13  1  0
 15 16  2  0
 18 17  1  0
 19 18  1  6
 20 19  1  0
 20 15  1  0
 21 19  1  0
 22 21  2  0
 23 21  1  0
M  END
$$$$
