FAS.pdb
     RDKit          3D

 23 23  0  0  1  0  0  0  0  0999 V2000
    7.6932  -18.0349   19.5177 N   0  0  0  0  0  0  0  0  0  0  0  0
    7.9814  -16.8201   20.2065 C   0  0  1  0  0  0  0  0  0  0  0  0
    6.7063  -16.2197   20.7524 C   0  0  0  0  0  0  0  0  0  0  0  0
    7.0460  -14.8873   21.3158 C   0  0  0  0  0  0  0  0  0  0  0  0
    7.0532  -14.6140   22.6715 C   0  0  0  0  0  0  0  0  0  0  0  0
    7.3708  -13.3730   23.1708 C   0  0  0  0  0  0  0  0  0  0  0  0
    7.6950  -12.3584   22.2981 C   0  0  0  0  0  0  0  0  0  0  0  0
    7.7038  -12.5768   20.9254 C   0  0  0  0  0  0  0  0  0  0  0  0
    7.3767  -13.8430   20.4777 C   0  0  0  0  0  0  0  0  0  0  0  0
    8.9663  -17.1085   21.2685 C   0  0  0  0  0  0  0  0  0  0  0  0
    8.9125  -18.1927   21.8927 O   0  0  0  0  0  0  0  0  0  0  0  0
   12.1773  -15.4329   22.3982 C   0  0  0  0  0  0  0  0  0  0  0  0
   11.1155  -16.5177   22.4472 C   0  0  2  0  0  0  0  0  0  0  0  0
    9.9735  -16.1753   21.5929 N   0  0  0  0  0  0  0  0  0  0  0  0
   10.5841  -16.6961   23.8237 C   0  0  0  0  0  0  0  0  0  0  0  0
   11.3317  -17.0071   24.7962 O   0  0  0  0  0  0  0  0  0  0  0  0
    6.4589  -17.1314   24.7320 O   0  0  0  0  0  0  0  0  0  0  0  0
    7.2441  -16.2870   25.4922 C   0  0  0  0  0  0  0  0  0  0  0  0
    8.6873  -16.7377   25.4806 C   0  0  2  0  0  0  0  0  0  0  0  0
    9.2067  -16.5299   24.1376 N   0  0  0  0  0  0  0  0  0  0  0  0
    8.7795  -18.2058   25.7480 C   0  0  0  0  0  0  0  0  0  0  0  0
    9.2387  -18.9753   24.8648 O   0  0  0  0  0  0  0  0  0  0  0  0
    8.3776  -18.7787   26.9428 O   0  0  0  0  0  0  0  0  0  0  0  0
  2  1  1  1
  2 10  1  0
  3  2  1  0
  4  5  2  0
  4  3  1  0
  6  5  1  0
  7  6  2  0
  8  7  1  0
  8  9  2  0
  9  4  1  0
 10 11  2  0
 10 14  1  0
 13 15  1  0
 13 12  1  1
 14 13  1  0
 15 16  2  0
 18 17  1  0
 19 18  1  6
 20 19  1  0
 20 15  1  0
 21 19  1  0
 22 21  2  0
 23 21  1  0
M  END
$$$$
