FAS.pdb
     RDKit          3D

 23 23  0  0  1  0  0  0  0  0999 V2000
    7.4785  -16.9907   26.2864 N   0  0  0  0  0  0  0  0  0  0  0  0
    7.9008  -15.8464   25.5479 C   0  0  1  0  0  0  0  0  0  0  0  0
    9.3592  -15.5613   25.8242 C   0  0  0  0  0  0  0  0  0  0  0  0
    9.4371  -14.8646   27.1343 C   0  0  0  0  0  0  0  0  0  0  0  0
    8.7901  -13.6717   27.4012 C   0  0  0  0  0  0  0  0  0  0  0  0
    8.8764  -13.0442   28.6215 C   0  0  0  0  0  0  0  0  0  0  0  0
    9.6318  -13.6156   29.6210 C   0  0  0  0  0  0  0  0  0  0  0  0
   10.3036  -14.8137   29.4082 C   0  0  0  0  0  0  0  0  0  0  0  0
   10.1825  -15.4016   28.1631 C   0  0  0  0  0  0  0  0  0  0  0  0
    7.6380  -16.0928   24.1156 C   0  0  0  0  0  0  0  0  0  0  0  0
    7.3023  -17.2357   23.7296 O   0  0  0  0  0  0  0  0  0  0  0  0
    6.9411  -13.8458   21.1875 C   0  0  0  0  0  0  0  0  0  0  0  0
    7.3014  -15.1955   21.7834 C   0  0  2  0  0  0  0  0  0  0  0  0
    7.7602  -15.0535   23.1692 N   0  0  0  0  0  0  0  0  0  0  0  0
    8.4057  -15.8448   21.0297 C   0  0  0  0  0  0  0  0  0  0  0  0
    8.2772  -16.1951   19.8205 O   0  0  0  0  0  0  0  0  0  0  0  0
   12.1086  -15.1249   21.1526 O   0  0  0  0  0  0  0  0  0  0  0  0
   11.6860  -16.1360   20.3120 C   0  0  0  0  0  0  0  0  0  0  0  0
   10.6444  -16.9986   20.9882 C   0  0  2  0  0  0  0  0  0  0  0  0
    9.6740  -16.1140   21.6148 N   0  0  0  0  0  0  0  0  0  0  0  0
   11.2621  -17.7983   22.0902 C   0  0  0  0  0  0  0  0  0  0  0  0
   10.9346  -17.5758   23.2844 O   0  0  0  0  0  0  0  0  0  0  0  0
   12.1970  -18.7941   21.8630 O   0  0  0  0  0  0  0  0  0  0  0  0
  2  1  1  1
  2 10  1  0
  3  2  1  0
  4  5  2  0
  4  3  1  0
  6  5  1  0
  7  6  2  0
  8  7  1  0
  8  9  2  0
  9  4  1  0
 10 11  2  0
 10 14  1  0
 13 15  1  0
 13 12  1  6
 14 13  1  0
 15 16  2  0
 18 17  1  0
 19 18  1  1
 20 19  1  0
 20 15  1  0
 21 19  1  0
 22 21  2  0
 23 21  1  0
M  END
$$$$
