FAS.pdb
     RDKit          3D

 23 23  0  0  1  0  0  0  0  0999 V2000
    6.4679  -16.8411   25.6459 N   0  0  0  0  0  0  0  0  0  0  0  0
    6.8201  -15.6713   24.9106 C   0  0  1  0  0  0  0  0  0  0  0  0
    7.8630  -14.8797   25.6659 C   0  0  0  0  0  0  0  0  0  0  0  0
    7.1893  -13.6847   26.2367 C   0  0  0  0  0  0  0  0  0  0  0  0
    5.9595  -13.2245   25.8021 C   0  0  0  0  0  0  0  0  0  0  0  0
    5.3544  -12.1158   26.3450 C   0  0  0  0  0  0  0  0  0  0  0  0
    5.9871  -11.4313   27.3586 C   0  0  0  0  0  0  0  0  0  0  0  0
    7.2244  -11.8492   27.8346 C   0  0  0  0  0  0  0  0  0  0  0  0
    7.7874  -12.9697   27.2533 C   0  0  0  0  0  0  0  0  0  0  0  0
    7.2887  -16.0849   23.5725 C   0  0  0  0  0  0  0  0  0  0  0  0
    7.6852  -17.2576   23.3844 O   0  0  0  0  0  0  0  0  0  0  0  0
    7.2877  -14.5482   20.1155 C   0  0  0  0  0  0  0  0  0  0  0  0
    7.7694  -15.5426   21.1575 C   0  0  2  0  0  0  0  0  0  0  0  0
    7.2966  -15.1731   22.4958 N   0  0  0  0  0  0  0  0  0  0  0  0
    9.2537  -15.5849   21.2228 C   0  0  0  0  0  0  0  0  0  0  0  0
    9.9767  -14.7638   20.5868 O   0  0  0  0  0  0  0  0  0  0  0  0
   11.2336  -17.0744   24.3319 O   0  0  0  0  0  0  0  0  0  0  0  0
   11.8959  -16.3120   23.3897 C   0  0  0  0  0  0  0  0  0  0  0  0
   11.4085  -16.6359   21.9955 C   0  0  2  0  0  0  0  0  0  0  0  0
    9.9564  -16.5463   22.0008 N   0  0  0  0  0  0  0  0  0  0  0  0
   11.7446  -18.0483   21.6383 C   0  0  0  0  0  0  0  0  0  0  0  0
   12.9481  -18.4122   21.5902 O   0  0  0  0  0  0  0  0  0  0  0  0
   10.7812  -19.0003   21.3508 O   0  0  0  0  0  0  0  0  0  0  0  0
  2  1  1  1
  2 10  1  0
  3  2  1  0
  4  5  2  0
  4  3  1  0
  6  5  1  0
  7  6  2  0
  8  7  1  0
  8  9  2  0
  9  4  1  0
 10 11  2  0
 10 14  1  0
 13 15  1  0
 13 12  1  6
 14 13  1  0
 15 16  2  0
 18 17  1  0
 19 18  1  1
 20 19  1  0
 20 15  1  0
 21 19  1  0
 22 21  2  0
 23 21  1  0
M  END
$$$$
