FAS.pdb
     RDKit          3D

 23 23  0  0  1  0  0  0  0  0999 V2000
    6.4636  -16.3777   25.5161 N   0  0  0  0  0  0  0  0  0  0  0  0
    6.8453  -15.3195   24.6400 C   0  0  1  0  0  0  0  0  0  0  0  0
    7.9886  -14.5355   25.2425 C   0  0  0  0  0  0  0  0  0  0  0  0
    7.3992  -13.4769   26.1026 C   0  0  0  0  0  0  0  0  0  0  0  0
    7.9516  -13.0798   27.3068 C   0  0  0  0  0  0  0  0  0  0  0  0
    7.3887  -12.0976   28.0869 C   0  0  0  0  0  0  0  0  0  0  0  0
    6.2331  -11.4802   27.6631 C   0  0  0  0  0  0  0  0  0  0  0  0
    5.6346  -11.8394   26.4611 C   0  0  0  0  0  0  0  0  0  0  0  0
    6.2424  -12.8326   25.7164 C   0  0  0  0  0  0  0  0  0  0  0  0
    7.1934  -15.9024   23.3284 C   0  0  0  0  0  0  0  0  0  0  0  0
    7.5423  -17.1024   23.2510 O   0  0  0  0  0  0  0  0  0  0  0  0
    7.2294  -14.6754   19.7354 C   0  0  0  0  0  0  0  0  0  0  0  0
    7.6230  -15.6168   20.8604 C   0  0  2  0  0  0  0  0  0  0  0  0
    7.1384  -15.1229   22.1536 N   0  0  0  0  0  0  0  0  0  0  0  0
    9.0998  -15.7404   20.9737 C   0  0  0  0  0  0  0  0  0  0  0  0
    9.7787  -14.9937   21.7372 O   0  0  0  0  0  0  0  0  0  0  0  0
   11.7756  -18.6789   22.5756 O   0  0  0  0  0  0  0  0  0  0  0  0
   10.7202  -17.9248   22.1011 C   0  0  0  0  0  0  0  0  0  0  0  0
   11.0555  -17.3133   20.7595 C   0  0  2  0  0  0  0  0  0  0  0  0
    9.8441  -16.7015   20.2351 N   0  0  0  0  0  0  0  0  0  0  0  0
   11.4502  -18.3754   19.7840 C   0  0  0  0  0  0  0  0  0  0  0  0
   10.5938  -19.2042   19.3807 O   0  0  0  0  0  0  0  0  0  0  0  0
   12.7371  -18.4997   19.2885 O   0  0  0  0  0  0  0  0  0  0  0  0
  2  1  1  1
  2 10  1  0
  3  2  1  0
  4  5  2  0
  4  3  1  0
  6  5  1  0
  7  6  2  0
  8  7  1  0
  8  9  2  0
  9  4  1  0
 10 11  2  0
 10 14  1  0
 13 15  1  0
 13 12  1  6
 14 13  1  0
 15 16  2  0
 18 17  1  0
 19 18  1  1
 20 19  1  0
 20 15  1  0
 21 19  1  0
 22 21  2  0
 23 21  1  0
M  END
$$$$
