FAS.pdb
     RDKit          3D

 23 23  0  0  1  0  0  0  0  0999 V2000
    9.2267  -14.8631   24.1326 N   0  0  0  0  0  0  0  0  0  0  0  0
    8.2095  -15.6429   24.7574 C   0  0  1  0  0  0  0  0  0  0  0  0
    6.8519  -15.0370   24.4845 C   0  0  0  0  0  0  0  0  0  0  0  0
    6.8059  -13.7188   25.1687 C   0  0  0  0  0  0  0  0  0  0  0  0
    7.3022  -12.5545   24.6111 C   0  0  0  0  0  0  0  0  0  0  0  0
    7.2492  -11.3451   25.2627 C   0  0  0  0  0  0  0  0  0  0  0  0
    6.6835  -11.2795   26.5164 C   0  0  0  0  0  0  0  0  0  0  0  0
    6.1689  -12.4184   27.1249 C   0  0  0  0  0  0  0  0  0  0  0  0
    6.2482  -13.6078   26.4253 C   0  0  0  0  0  0  0  0  0  0  0  0
    8.3154  -17.0303   24.2626 C   0  0  0  0  0  0  0  0  0  0  0  0
    7.5667  -17.9188   24.7294 O   0  0  0  0  0  0  0  0  0  0  0  0
    9.2506  -18.9187   21.3509 C   0  0  0  0  0  0  0  0  0  0  0  0
    9.4802  -18.7587   22.8436 C   0  0  2  0  0  0  0  0  0  0  0  0
    9.2531  -17.3724   23.2654 N   0  0  0  0  0  0  0  0  0  0  0  0
   10.8781  -19.0981   23.2178 C   0  0  0  0  0  0  0  0  0  0  0  0
   11.3423  -20.2680   23.0867 O   0  0  0  0  0  0  0  0  0  0  0  0
   13.5669  -16.1266   23.9850 O   0  0  0  0  0  0  0  0  0  0  0  0
   14.0458  -17.3613   23.5930 C   0  0  0  0  0  0  0  0  0  0  0  0
   13.1526  -18.4711   24.0998 C   0  0  2  0  0  0  0  0  0  0  0  0
   11.7822  -18.1350   23.7454 N   0  0  0  0  0  0  0  0  0  0  0  0
   13.1994  -18.5403   25.5926 C   0  0  0  0  0  0  0  0  0  0  0  0
   12.1555  -18.3279   26.2620 O   0  0  0  0  0  0  0  0  0  0  0  0
   14.3561  -18.8324   26.2954 O   0  0  0  0  0  0  0  0  0  0  0  0
  2  1  1  6
  2 10  1  0
  3  2  1  0
  4  5  2  0
  4  3  1  0
  6  5  1  0
  7  6  2  0
  8  7  1  0
  8  9  2  0
  9  4  1  0
 10 11  2  0
 10 14  1  0
 13 15  1  0
 13 12  1  6
 14 13  1  0
 15 16  2  0
 18 17  1  0
 19 18  1  1
 20 19  1  0
 20 15  1  0
 21 19  1  0
 22 21  2  0
 23 21  1  0
M  END
$$$$
