FAS.pdb
     RDKit          3D

 23 23  0  0  1  0  0  0  0  0999 V2000
    7.2398  -17.5052   18.1908 N   0  0  0  0  0  0  0  0  0  0  0  0
    7.8104  -16.8960   19.3469 C   0  0  1  0  0  0  0  0  0  0  0  0
    6.7215  -16.2955   20.2062 C   0  0  0  0  0  0  0  0  0  0  0  0
    7.1428  -14.9152   20.5602 C   0  0  0  0  0  0  0  0  0  0  0  0
    7.2285  -13.8864   19.6399 C   0  0  0  0  0  0  0  0  0  0  0  0
    7.6210  -12.6161   19.9900 C   0  0  0  0  0  0  0  0  0  0  0  0
    7.9428  -12.3478   21.3017 C   0  0  0  0  0  0  0  0  0  0  0  0
    7.8746  -13.3439   22.2688 C   0  0  0  0  0  0  0  0  0  0  0  0
    7.4740  -14.6028   21.8622 C   0  0  0  0  0  0  0  0  0  0  0  0
    8.5990  -17.9143   20.0695 C   0  0  0  0  0  0  0  0  0  0  0  0
    8.6217  -19.0960   19.6561 O   0  0  0  0  0  0  0  0  0  0  0  0
   11.5159  -17.0175   20.2374 C   0  0  0  0  0  0  0  0  0  0  0  0
   10.7808  -17.7796   21.3262 C   0  0  2  0  0  0  0  0  0  0  0  0
    9.3320  -17.5741   21.2261 N   0  0  0  0  0  0  0  0  0  0  0  0
   11.1873  -17.3203   22.6800 C   0  0  0  0  0  0  0  0  0  0  0  0
   12.3863  -17.3875   23.0791 O   0  0  0  0  0  0  0  0  0  0  0  0
    8.3663  -15.8594   25.2902 O   0  0  0  0  0  0  0  0  0  0  0  0
    9.4965  -15.0828   25.1257 C   0  0  0  0  0  0  0  0  0  0  0  0
   10.6795  -15.9324   24.7198 C   0  0  2  0  0  0  0  0  0  0  0  0
   10.2601  -16.7774   23.6122 N   0  0  0  0  0  0  0  0  0  0  0  0
   11.0687  -16.8533   25.8315 C   0  0  0  0  0  0  0  0  0  0  0  0
   11.4007  -16.3800   26.9490 O   0  0  0  0  0  0  0  0  0  0  0  0
   11.0842  -18.2311   25.6954 O   0  0  0  0  0  0  0  0  0  0  0  0
  2  1  1  6
  2 10  1  0
  3  2  1  0
  4  5  2  0
  4  3  1  0
  6  5  1  0
  7  6  2  0
  8  7  1  0
  8  9  2  0
  9  4  1  0
 10 11  2  0
 10 14  1  0
 13 15  1  0
 13 12  1  6
 14 13  1  0
 15 16  2  0
 18 17  1  0
 19 18  1  1
 20 19  1  0
 20 15  1  0
 21 19  1  0
 22 21  2  0
 23 21  1  0
M  END
$$$$
