FAS.pdb
     RDKit          3D

 23 23  0  0  1  0  0  0  0  0999 V2000
   -5.7194  -23.9198   25.6352 N   0  0  0  0  0  0  0  0  0  0  0  0
   -6.0847  -23.4801   26.9414 C   0  0  1  0  0  0  0  0  0  0  0  0
   -7.0445  -22.3163   26.8462 C   0  0  0  0  0  0  0  0  0  0  0  0
   -6.3231  -21.1956   26.1892 C   0  0  0  0  0  0  0  0  0  0  0  0
   -5.2248  -20.5670   26.7470 C   0  0  0  0  0  0  0  0  0  0  0  0
   -4.5724  -19.5313   26.1210 C   0  0  0  0  0  0  0  0  0  0  0  0
   -5.0208  -19.0963   24.8938 C   0  0  0  0  0  0  0  0  0  0  0  0
   -6.1202  -19.6917   24.2864 C   0  0  0  0  0  0  0  0  0  0  0  0
   -6.7385  -20.7285   24.9597 C   0  0  0  0  0  0  0  0  0  0  0  0
   -6.6610  -24.6251   27.6748 C   0  0  0  0  0  0  0  0  0  0  0  0
   -7.4874  -25.3770   27.1094 O   0  0  0  0  0  0  0  0  0  0  0  0
   -6.0489  -26.2621   31.0376 C   0  0  0  0  0  0  0  0  0  0  0  0
   -6.8553  -26.0042   29.7767 C   0  0  2  0  0  0  0  0  0  0  0  0
   -6.2924  -24.8867   29.0114 N   0  0  0  0  0  0  0  0  0  0  0  0
   -8.2610  -25.6416   30.0955 C   0  0  0  0  0  0  0  0  0  0  0  0
   -8.6134  -24.4449   30.3078 O   0  0  0  0  0  0  0  0  0  0  0  0
  -12.4979  -27.7866   30.5208 O   0  0  0  0  0  0  0  0  0  0  0  0
  -11.5635  -27.2132   29.6808 C   0  0  0  0  0  0  0  0  0  0  0  0
  -10.6829  -26.2439   30.4364 C   0  0  2  0  0  0  0  0  0  0  0  0
   -9.2983  -26.6111   30.1825 N   0  0  0  0  0  0  0  0  0  0  0  0
  -10.8949  -26.3833   31.9099 C   0  0  0  0  0  0  0  0  0  0  0  0
  -10.0817  -27.0522   32.5987 O   0  0  0  0  0  0  0  0  0  0  0  0
  -11.9625  -25.8030   32.5737 O   0  0  0  0  0  0  0  0  0  0  0  0
  2  1  1  6
  2 10  1  0
  3  2  1  0
  4  5  2  0
  4  3  1  0
  6  5  1  0
  7  6  2  0
  8  7  1  0
  8  9  2  0
  9  4  1  0
 10 11  2  0
 10 14  1  0
 13 15  1  0
 13 12  1  1
 14 13  1  0
 15 16  2  0
 18 17  1  0
 19 18  1  6
 20 19  1  0
 20 15  1  0
 21 19  1  0
 22 21  2  0
 23 21  1  0
M  END
$$$$
