FAS.pdb
     RDKit          3D

 23 23  0  0  1  0  0  0  0  0999 V2000
    7.7047  -16.4841   22.2990 N   0  0  0  0  0  0  0  0  0  0  0  0
    8.6889  -15.7500   23.0241 C   0  0  1  0  0  0  0  0  0  0  0  0
    8.2242  -14.3268   23.2318 C   0  0  0  0  0  0  0  0  0  0  0  0
    8.0066  -13.7280   21.8894 C   0  0  0  0  0  0  0  0  0  0  0  0
    9.0216  -13.1765   21.1289 C   0  0  0  0  0  0  0  0  0  0  0  0
    8.7973  -12.6275   19.8885 C   0  0  0  0  0  0  0  0  0  0  0  0
    7.5194  -12.6214   19.3756 C   0  0  0  0  0  0  0  0  0  0  0  0
    6.4611  -13.1621   20.0965 C   0  0  0  0  0  0  0  0  0  0  0  0
    6.7428  -13.7009   21.3378 C   0  0  0  0  0  0  0  0  0  0  0  0
    8.9463  -16.4488   24.2995 C   0  0  0  0  0  0  0  0  0  0  0  0
    9.9255  -16.1182   25.0063 O   0  0  0  0  0  0  0  0  0  0  0  0
    7.0818  -18.8723   26.4996 C   0  0  0  0  0  0  0  0  0  0  0  0
    8.3592  -18.2485   25.9649 C   0  0  2  0  0  0  0  0  0  0  0  0
    8.1003  -17.4899   24.7367 N   0  0  0  0  0  0  0  0  0  0  0  0
    9.3690  -19.2848   25.6250 C   0  0  0  0  0  0  0  0  0  0  0  0
    9.1696  -20.1432   24.7168 O   0  0  0  0  0  0  0  0  0  0  0  0
   13.1815  -18.7989   25.3400 O   0  0  0  0  0  0  0  0  0  0  0  0
   12.5054  -19.9274   24.9193 C   0  0  0  0  0  0  0  0  0  0  0  0
   11.5785  -20.4344   26.0008 C   0  0  2  0  0  0  0  0  0  0  0  0
   10.6202  -19.3799   26.2948 N   0  0  0  0  0  0  0  0  0  0  0  0
   12.3361  -20.6831   27.2655 C   0  0  0  0  0  0  0  0  0  0  0  0
   12.0963  -19.9872   28.2859 O   0  0  0  0  0  0  0  0  0  0  0  0
   13.3104  -21.6605   27.3780 O   0  0  0  0  0  0  0  0  0  0  0  0
  2  1  1  1
  2 10  1  0
  3  2  1  0
  4  5  2  0
  4  3  1  0
  6  5  1  0
  7  6  2  0
  8  7  1  0
  8  9  2  0
  9  4  1  0
 10 11  2  0
 10 14  1  0
 13 15  1  0
 13 12  1  6
 14 13  1  0
 15 16  2  0
 18 17  1  0
 19 18  1  6
 20 19  1  0
 20 15  1  0
 21 19  1  0
 22 21  2  0
 23 21  1  0
M  END
$$$$
