QQI.pdb
     RDKit          3D

 27 26  0  0  1  0  0  0  0  0999 V2000
    8.0043  -12.8258   17.4104 N   0  0  0  0  0  0  0  0  0  0  0  0
    8.2641  -14.0364   16.7263 C   0  0  0  0  0  0  0  0  0  0  0  0
    8.7522  -13.9754   15.5710 O   0  0  0  0  0  0  0  0  0  0  0  0
    7.9857  -15.3509   17.3139 C   0  0  0  0  0  0  0  0  0  0  0  0
    7.2849  -15.2664   18.6422 C   0  0  0  0  0  0  0  0  0  0  0  0
    8.2310  -15.7390   19.7028 C   0  0  2  0  0  0  0  0  0  0  0  0
    8.7750  -17.0483   19.4371 N   0  0  0  0  0  0  0  0  0  0  0  0
    7.6322  -15.7072   21.0613 C   0  0  0  0  0  0  0  0  0  0  0  0
    7.0429  -14.6464   21.4622 O   0  0  0  0  0  0  0  0  0  0  0  0
    5.9820  -20.5723   24.7323 N   0  0  0  0  0  0  0  0  0  0  0  0
    7.1222  -19.9381   25.2397 C   0  0  0  0  0  0  0  0  0  0  0  0
    7.7918  -20.5704   26.1286 O   0  0  0  0  0  0  0  0  0  0  0  0
    7.5783  -18.5901   24.7992 C   0  0  0  0  0  0  0  0  0  0  0  0
    6.6407  -18.0822   23.7618 C   0  0  0  0  0  0  0  0  0  0  0  0
    7.0269  -16.7256   23.2182 C   0  0  2  0  0  0  0  0  0  0  0  0
    7.6781  -16.7990   21.9474 N   0  0  0  0  0  0  0  0  0  0  0  0
    7.9149  -16.1033   24.2602 C   0  0  0  0  0  0  0  0  0  0  0  0
    9.1566  -16.1718   24.0922 O   0  0  0  0  0  0  0  0  0  0  0  0
    5.7716  -11.5921   26.0798 C   0  0  0  0  0  0  0  0  0  0  0  0
    6.7542  -12.6220   25.6420 C   0  0  0  0  0  0  0  0  0  0  0  0
    7.4274  -13.4061   26.7052 C   0  0  2  0  0  0  0  0  0  0  0  0
    8.0041  -12.5735   27.8107 C   0  0  0  0  0  0  0  0  0  0  0  0
    8.2387  -14.5430   26.2279 C   0  0  2  0  0  0  0  0  0  0  0  0
    7.4181  -15.4569   25.3988 N   0  0  0  0  0  0  0  0  0  0  0  0
    8.9023  -15.3922   27.2094 C   0  0  0  0  0  0  0  0  0  0  0  0
   10.1095  -15.0479   27.7944 O   0  0  0  0  0  0  0  0  0  0  0  0
    8.4018  -16.4771   27.5654 O   0  0  0  0  0  0  0  0  0  0  0  0
  2  1  1  0
  3  2  2  0
  4  2  1  0
  5  4  1  0
  6  8  1  0
  6  5  1  0
  6  7  1  6
  8 16  1  0
  8  9  2  0
 11 10  1  0
 11 13  1  0
 12 11  2  0
 14 13  1  0
 15 14  1  1
 16 15  1  0
 17 24  1  0
 17 15  1  0
 18 17  2  0
 19 20  1  0
 21 20  1  0
 21 22  1  6
 23 21  1  0
 23 24  1  1
 25 23  1  0
 26 25  1  0
 27 25  2  0
M  END
$$$$
