QQI.pdb
     RDKit          3D

 27 26  0  0  1  0  0  0  0  0999 V2000
    6.1554  -17.6076   17.2791 N   0  0  0  0  0  0  0  0  0  0  0  0
    7.4307  -17.2642   16.7724 C   0  0  0  0  0  0  0  0  0  0  0  0
    7.5376  -17.0149   15.5464 O   0  0  0  0  0  0  0  0  0  0  0  0
    8.6239  -17.1892   17.6216 C   0  0  0  0  0  0  0  0  0  0  0  0
    8.3359  -17.4776   19.0696 C   0  0  0  0  0  0  0  0  0  0  0  0
    9.2271  -16.6123   19.9066 C   0  0  2  0  0  0  0  0  0  0  0  0
   10.6309  -16.8576   19.6831 N   0  0  0  0  0  0  0  0  0  0  0  0
    8.9225  -16.7083   21.3568 C   0  0  0  0  0  0  0  0  0  0  0  0
    7.7786  -16.3305   21.7837 O   0  0  0  0  0  0  0  0  0  0  0  0
   11.6816  -20.3386   25.7396 N   0  0  0  0  0  0  0  0  0  0  0  0
   10.6600  -19.6695   26.4240 C   0  0  0  0  0  0  0  0  0  0  0  0
   10.4850  -19.9785   27.6537 O   0  0  0  0  0  0  0  0  0  0  0  0
    9.7885  -18.6371   25.7963 C   0  0  0  0  0  0  0  0  0  0  0  0
   10.2149  -18.4444   24.3840 C   0  0  0  0  0  0  0  0  0  0  0  0
    9.4531  -17.3497   23.6726 C   0  0  2  0  0  0  0  0  0  0  0  0
    9.8389  -17.2006   22.3039 N   0  0  0  0  0  0  0  0  0  0  0  0
    9.7081  -16.0938   24.4596 C   0  0  0  0  0  0  0  0  0  0  0  0
   10.8271  -15.5394   24.3367 O   0  0  0  0  0  0  0  0  0  0  0  0
    6.0930  -12.2194   24.7768 C   0  0  0  0  0  0  0  0  0  0  0  0
    7.3871  -12.9550   24.8224 C   0  0  0  0  0  0  0  0  0  0  0  0
    7.8463  -13.4292   26.1500 C   0  0  2  0  0  0  0  0  0  0  0  0
    7.7964  -12.3861   27.2258 C   0  0  0  0  0  0  0  0  0  0  0  0
    9.0283  -14.3129   26.1262 C   0  0  2  0  0  0  0  0  0  0  0  0
    8.7576  -15.5233   25.3153 N   0  0  0  0  0  0  0  0  0  0  0  0
    9.5662  -14.7992   27.3907 C   0  0  0  0  0  0  0  0  0  0  0  0
    9.2317  -16.0375   27.9130 O   0  0  0  0  0  0  0  0  0  0  0  0
   10.3595  -14.1094   28.0607 O   0  0  0  0  0  0  0  0  0  0  0  0
  2  1  1  0
  3  2  2  0
  4  2  1  0
  5  4  1  0
  6  8  1  0
  6  5  1  0
  6  7  1  1
  8 16  1  0
  8  9  2  0
 11 10  1  0
 11 13  1  0
 12 11  2  0
 14 13  1  0
 15 14  1  1
 16 15  1  0
 17 24  1  0
 17 15  1  0
 18 17  2  0
 19 20  1  0
 21 20  1  0
 21 22  1  1
 23 21  1  0
 23 24  1  6
 25 23  1  0
 26 25  1  0
 27 25  2  0
M  END
$$$$
