QQI.pdb
     RDKit          3D

 27 26  0  0  1  0  0  0  0  0999 V2000
   10.2200  -13.2108   18.7241 N   0  0  0  0  0  0  0  0  0  0  0  0
    9.1350  -13.2205   17.8164 C   0  0  0  0  0  0  0  0  0  0  0  0
    9.3564  -12.9122   16.6195 O   0  0  0  0  0  0  0  0  0  0  0  0
    7.7706  -13.5750   18.2204 C   0  0  0  0  0  0  0  0  0  0  0  0
    7.6508  -13.8797   19.6886 C   0  0  0  0  0  0  0  0  0  0  0  0
    7.9093  -15.3416   19.8870 C   0  0  2  0  0  0  0  0  0  0  0  0
    6.9902  -16.1851   19.1627 N   0  0  0  0  0  0  0  0  0  0  0  0
    7.9300  -15.7312   21.3198 C   0  0  0  0  0  0  0  0  0  0  0  0
    6.8618  -15.6263   22.0137 O   0  0  0  0  0  0  0  0  0  0  0  0
   11.8100  -19.6953   24.3102 N   0  0  0  0  0  0  0  0  0  0  0  0
   10.9525  -19.2259   25.3121 C   0  0  0  0  0  0  0  0  0  0  0  0
   11.0554  -19.7688   26.4667 O   0  0  0  0  0  0  0  0  0  0  0  0
    9.9487  -18.1463   25.0964 C   0  0  0  0  0  0  0  0  0  0  0  0
   10.0319  -17.6902   23.6828 C   0  0  0  0  0  0  0  0  0  0  0  0
    9.0211  -16.6203   23.3385 C   0  0  2  0  0  0  0  0  0  0  0  0
    9.0800  -16.2180   21.9676 N   0  0  0  0  0  0  0  0  0  0  0  0
    9.3073  -15.4713   24.2654 C   0  0  0  0  0  0  0  0  0  0  0  0
   10.3598  -14.8136   24.0799 O   0  0  0  0  0  0  0  0  0  0  0  0
    5.5064  -12.3531   27.3943 C   0  0  0  0  0  0  0  0  0  0  0  0
    6.4538  -13.4301   26.9940 C   0  0  0  0  0  0  0  0  0  0  0  0
    7.6852  -13.0137   26.2810 C   0  0  2  0  0  0  0  0  0  0  0  0
    7.4338  -12.2610   25.0090 C   0  0  0  0  0  0  0  0  0  0  0  0
    8.7700  -14.0145   26.2656 C   0  0  2  0  0  0  0  0  0  0  0  0
    8.4562  -15.1086   25.3166 N   0  0  0  0  0  0  0  0  0  0  0  0
    9.1369  -14.6707   27.5145 C   0  0  0  0  0  0  0  0  0  0  0  0
    9.0100  -16.0372   27.7008 O   0  0  0  0  0  0  0  0  0  0  0  0
    9.5853  -14.0179   28.4772 O   0  0  0  0  0  0  0  0  0  0  0  0
  2  1  1  0
  3  2  2  0
  4  2  1  0
  5  4  1  0
  6  8  1  0
  6  5  1  0
  6  7  1  6
  8 16  1  0
  8  9  2  0
 11 10  1  0
 11 13  1  0
 12 11  2  0
 14 13  1  0
 15 14  1  6
 16 15  1  0
 17 24  1  0
 17 15  1  0
 18 17  2  0
 19 20  1  0
 21 20  1  0
 21 22  1  6
 23 21  1  0
 23 24  1  6
 25 23  1  0
 26 25  1  0
 27 25  2  0
M  END
$$$$
