QQI.pdb
     RDKit          3D

 27 26  0  0  1  0  0  0  0  0999 V2000
    7.7178  -12.5599   17.9536 N   0  0  0  0  0  0  0  0  0  0  0  0
    7.6761  -13.7851   17.2477 C   0  0  0  0  0  0  0  0  0  0  0  0
    7.8186  -13.7596   16.0004 O   0  0  0  0  0  0  0  0  0  0  0  0
    7.4737  -15.0748   17.9157 C   0  0  0  0  0  0  0  0  0  0  0  0
    7.2341  -14.9415   19.3948 C   0  0  0  0  0  0  0  0  0  0  0  0
    8.5372  -15.1539   20.1022 C   0  0  2  0  0  0  0  0  0  0  0  0
    9.4251  -16.0493   19.4018 N   0  0  0  0  0  0  0  0  0  0  0  0
    8.3609  -15.6117   21.5038 C   0  0  0  0  0  0  0  0  0  0  0  0
    7.4050  -15.1333   22.2043 O   0  0  0  0  0  0  0  0  0  0  0  0
   11.4929  -20.1331   24.7707 N   0  0  0  0  0  0  0  0  0  0  0  0
   10.7315  -19.4507   25.7268 C   0  0  0  0  0  0  0  0  0  0  0  0
   10.8518  -19.8290   26.9436 O   0  0  0  0  0  0  0  0  0  0  0  0
    9.8088  -18.3289   25.3956 C   0  0  0  0  0  0  0  0  0  0  0  0
    9.9631  -17.9908   23.9550 C   0  0  0  0  0  0  0  0  0  0  0  0
    9.0385  -16.8863   23.4969 C   0  0  2  0  0  0  0  0  0  0  0  0
    9.2024  -16.5594   22.1145 N   0  0  0  0  0  0  0  0  0  0  0  0
    9.3352  -15.7082   24.3832 C   0  0  0  0  0  0  0  0  0  0  0  0
   10.4059  -15.0824   24.1915 O   0  0  0  0  0  0  0  0  0  0  0  0
    5.8270  -11.9506   25.2098 C   0  0  0  0  0  0  0  0  0  0  0  0
    7.0894  -12.7381   25.1464 C   0  0  0  0  0  0  0  0  0  0  0  0
    7.6306  -13.2482   26.4291 C   0  0  2  0  0  0  0  0  0  0  0  0
    7.6761  -12.2271   27.5260 C   0  0  0  0  0  0  0  0  0  0  0  0
    8.7906  -14.1524   26.3052 C   0  0  2  0  0  0  0  0  0  0  0  0
    8.4744  -15.2850   25.4035 N   0  0  0  0  0  0  0  0  0  0  0  0
    9.3433  -14.7538   27.5126 C   0  0  0  0  0  0  0  0  0  0  0  0
    9.2167  -16.1038   27.7950 O   0  0  0  0  0  0  0  0  0  0  0  0
    9.9602  -14.0664   28.3499 O   0  0  0  0  0  0  0  0  0  0  0  0
  2  1  1  0
  3  2  2  0
  4  2  1  0
  5  4  1  0
  6  8  1  0
  6  5  1  0
  6  7  1  6
  8 16  1  0
  8  9  2  0
 11 10  1  0
 11 13  1  0
 12 11  2  0
 14 13  1  0
 15 14  1  1
 16 15  1  0
 17 24  1  0
 17 15  1  0
 18 17  2  0
 19 20  1  0
 21 20  1  0
 21 22  1  1
 23 21  1  0
 23 24  1  6
 25 23  1  0
 26 25  1  0
 27 25  2  0
M  END
$$$$
