QQI.pdb
     RDKit          3D

 27 26  0  0  1  0  0  0  0  0999 V2000
   10.9445  -20.4415   18.0401 N   0  0  0  0  0  0  0  0  0  0  0  0
   10.2347  -19.5905   17.1608 C   0  0  0  0  0  0  0  0  0  0  0  0
   10.4061  -19.7333   15.9252 O   0  0  0  0  0  0  0  0  0  0  0  0
    9.3123  -18.5548   17.6374 C   0  0  0  0  0  0  0  0  0  0  0  0
    9.1743  -18.5322   19.1351 C   0  0  0  0  0  0  0  0  0  0  0  0
    8.2194  -17.4380   19.5018 C   0  0  2  0  0  0  0  0  0  0  0  0
    8.7302  -16.1190   19.2190 N   0  0  0  0  0  0  0  0  0  0  0  0
    7.7752  -17.5146   20.9168 C   0  0  0  0  0  0  0  0  0  0  0  0
    6.7584  -18.2282   21.2171 O   0  0  0  0  0  0  0  0  0  0  0  0
    8.7891  -20.8424   24.8954 N   0  0  0  0  0  0  0  0  0  0  0  0
    9.8637  -20.0072   24.5677 C   0  0  0  0  0  0  0  0  0  0  0  0
   11.0407  -20.4702   24.7642 O   0  0  0  0  0  0  0  0  0  0  0  0
    9.6991  -18.6343   24.0130 C   0  0  0  0  0  0  0  0  0  0  0  0
    8.2464  -18.3367   23.8936 C   0  0  0  0  0  0  0  0  0  0  0  0
    7.9608  -16.9719   23.3099 C   0  0  2  0  0  0  0  0  0  0  0  0
    8.4226  -16.8335   21.9637 N   0  0  0  0  0  0  0  0  0  0  0  0
    8.6273  -15.9849   24.2280 C   0  0  0  0  0  0  0  0  0  0  0  0
    9.8629  -15.8054   24.1021 O   0  0  0  0  0  0  0  0  0  0  0  0
    5.5247  -11.8514   25.6807 C   0  0  0  0  0  0  0  0  0  0  0  0
    6.7053  -12.6764   25.3023 C   0  0  0  0  0  0  0  0  0  0  0  0
    7.5552  -13.1832   26.4065 C   0  0  2  0  0  0  0  0  0  0  0  0
    7.9912  -12.1291   27.3794 C   0  0  0  0  0  0  0  0  0  0  0  0
    8.5598  -14.1906   26.0133 C   0  0  2  0  0  0  0  0  0  0  0  0
    7.9327  -15.2650   25.2080 N   0  0  0  0  0  0  0  0  0  0  0  0
    9.3156  -14.8720   27.0571 C   0  0  0  0  0  0  0  0  0  0  0  0
   10.4296  -14.3079   27.6561 O   0  0  0  0  0  0  0  0  0  0  0  0
    8.9838  -16.0054   27.4566 O   0  0  0  0  0  0  0  0  0  0  0  0
  2  1  1  0
  3  2  2  0
  4  2  1  0
  5  4  1  0
  6  8  1  0
  6  5  1  0
  6  7  1  1
  8 16  1  0
  8  9  2  0
 11 10  1  0
 11 13  1  0
 12 11  2  0
 14 13  1  0
 15 14  1  1
 16 15  1  0
 17 24  1  0
 17 15  1  0
 18 17  2  0
 19 20  1  0
 21 20  1  0
 21 22  1  6
 23 21  1  0
 23 24  1  1
 25 23  1  0
 26 25  1  0
 27 25  2  0
M  END
$$$$
