QQI.pdb
     RDKit          3D

 27 26  0  0  1  0  0  0  0  0999 V2000
    2.5352  -19.7454   21.4530 N   0  0  0  0  0  0  0  0  0  0  0  0
    3.0749  -19.2202   20.2554 C   0  0  0  0  0  0  0  0  0  0  0  0
    2.4830  -19.4677   19.1760 O   0  0  0  0  0  0  0  0  0  0  0  0
    4.2922  -18.4030   20.2296 C   0  0  0  0  0  0  0  0  0  0  0  0
    4.8609  -18.1491   21.5989 C   0  0  0  0  0  0  0  0  0  0  0  0
    5.9598  -17.1394   21.4707 C   0  0  2  0  0  0  0  0  0  0  0  0
    6.7657  -17.3230   20.2885 N   0  0  0  0  0  0  0  0  0  0  0  0
    6.8310  -17.0841   22.6720 C   0  0  0  0  0  0  0  0  0  0  0  0
    6.3165  -16.8022   23.8074 O   0  0  0  0  0  0  0  0  0  0  0  0
   12.8656  -19.4404   23.6140 N   0  0  0  0  0  0  0  0  0  0  0  0
   12.0479  -19.2737   24.7379 C   0  0  0  0  0  0  0  0  0  0  0  0
   12.1270  -20.1664   25.6518 O   0  0  0  0  0  0  0  0  0  0  0  0
   11.1114  -18.1281   24.9113 C   0  0  0  0  0  0  0  0  0  0  0  0
   10.3734  -17.9154   23.6371 C   0  0  0  0  0  0  0  0  0  0  0  0
    8.9807  -17.3629   23.8369 C   0  0  2  0  0  0  0  0  0  0  0  0
    8.2157  -17.3291   22.6293 N   0  0  0  0  0  0  0  0  0  0  0  0
    9.1639  -15.9867   24.4148 C   0  0  0  0  0  0  0  0  0  0  0  0
    9.8205  -15.1509   23.7478 O   0  0  0  0  0  0  0  0  0  0  0  0
    5.9993  -12.2509   25.5195 C   0  0  0  0  0  0  0  0  0  0  0  0
    7.2503  -13.0408   25.3500 C   0  0  0  0  0  0  0  0  0  0  0  0
    7.9530  -13.4637   26.5852 C   0  0  2  0  0  0  0  0  0  0  0  0
    8.1452  -12.3665   27.5888 C   0  0  0  0  0  0  0  0  0  0  0  0
    9.0836  -14.3897   26.3781 C   0  0  2  0  0  0  0  0  0  0  0  0
    8.6372  -15.6033   25.6545 N   0  0  0  0  0  0  0  0  0  0  0  0
    9.8164  -14.8732   27.5417 C   0  0  0  0  0  0  0  0  0  0  0  0
    9.5359  -16.0884   28.1440 O   0  0  0  0  0  0  0  0  0  0  0  0
   10.7373  -14.2020   28.0472 O   0  0  0  0  0  0  0  0  0  0  0  0
  2  1  1  0
  3  2  2  0
  4  2  1  0
  5  4  1  0
  6  8  1  0
  6  5  1  0
  6  7  1  6
  8 16  1  0
  8  9  2  0
 11 10  1  0
 11 13  1  0
 12 11  2  0
 14 13  1  0
 15 14  1  6
 16 15  1  0
 17 24  1  0
 17 15  1  0
 18 17  2  0
 19 20  1  0
 21 20  1  0
 21 22  1  6
 23 21  1  0
 23 24  1  1
 25 23  1  0
 26 25  1  0
 27 25  2  0
M  END
$$$$
