QQI.pdb
     RDKit          3D

 27 26  0  0  1  0  0  0  0  0999 V2000
    7.9001  -13.2820   16.1393 N   0  0  0  0  0  0  0  0  0  0  0  0
    7.7808  -14.4207   16.9702 C   0  0  0  0  0  0  0  0  0  0  0  0
    8.1797  -15.5260   16.5277 O   0  0  0  0  0  0  0  0  0  0  0  0
    7.2119  -14.3570   18.3204 C   0  0  0  0  0  0  0  0  0  0  0  0
    8.1312  -13.7060   19.3173 C   0  0  0  0  0  0  0  0  0  0  0  0
    8.6862  -14.7729   20.2102 C   0  0  2  0  0  0  0  0  0  0  0  0
    8.8107  -16.0531   19.5571 N   0  0  0  0  0  0  0  0  0  0  0  0
    7.9171  -14.9224   21.4717 C   0  0  0  0  0  0  0  0  0  0  0  0
    7.6704  -13.8890   22.1820 O   0  0  0  0  0  0  0  0  0  0  0  0
    5.4365  -20.2082   24.0288 N   0  0  0  0  0  0  0  0  0  0  0  0
    6.8169  -19.9761   24.0455 C   0  0  0  0  0  0  0  0  0  0  0  0
    7.5727  -20.9825   24.2785 O   0  0  0  0  0  0  0  0  0  0  0  0
    7.4290  -18.6386   23.8090 C   0  0  0  0  0  0  0  0  0  0  0  0
    6.3443  -17.6551   23.5455 C   0  0  0  0  0  0  0  0  0  0  0  0
    6.8568  -16.2663   23.2397 C   0  0  2  0  0  0  0  0  0  0  0  0
    7.4365  -16.1601   21.9369 N   0  0  0  0  0  0  0  0  0  0  0  0
    7.8566  -15.9508   24.3178 C   0  0  0  0  0  0  0  0  0  0  0  0
    9.0722  -16.1319   24.0643 O   0  0  0  0  0  0  0  0  0  0  0  0
    5.9133  -11.9797   26.8895 C   0  0  0  0  0  0  0  0  0  0  0  0
    7.0734  -12.7065   26.3033 C   0  0  0  0  0  0  0  0  0  0  0  0
    7.7836  -13.6643   27.1845 C   0  0  2  0  0  0  0  0  0  0  0  0
    8.5388  -13.0210   28.3087 C   0  0  0  0  0  0  0  0  0  0  0  0
    8.4428  -14.7868   26.4887 C   0  0  2  0  0  0  0  0  0  0  0  0
    7.4906  -15.4681   25.5804 N   0  0  0  0  0  0  0  0  0  0  0  0
    9.0520  -15.8450   27.2849 C   0  0  0  0  0  0  0  0  0  0  0  0
    8.4667  -17.0911   27.4366 O   0  0  0  0  0  0  0  0  0  0  0  0
   10.1390  -15.6669   27.8687 O   0  0  0  0  0  0  0  0  0  0  0  0
  2  1  1  0
  3  2  2  0
  4  2  1  0
  5  4  1  0
  6  8  1  0
  6  5  1  0
  6  7  1  6
  8 16  1  0
  8  9  2  0
 11 10  1  0
 11 13  1  0
 12 11  2  0
 14 13  1  0
 15 14  1  1
 16 15  1  0
 17 24  1  0
 17 15  1  0
 18 17  2  0
 19 20  1  0
 21 20  1  0
 21 22  1  6
 23 21  1  0
 23 24  1  6
 25 23  1  0
 26 25  1  0
 27 25  2  0
M  END
$$$$
