QQI.pdb
     RDKit          3D

 27 26  0  0  1  0  0  0  0  0999 V2000
    8.2731  -13.0231   16.3217 N   0  0  0  0  0  0  0  0  0  0  0  0
    8.0217  -14.4001   16.1163 C   0  0  0  0  0  0  0  0  0  0  0  0
    7.1805  -14.7288   15.2440 O   0  0  0  0  0  0  0  0  0  0  0  0
    8.7036  -15.4498   16.8802 C   0  0  0  0  0  0  0  0  0  0  0  0
    7.9661  -15.8421   18.1312 C   0  0  0  0  0  0  0  0  0  0  0  0
    8.7480  -15.3507   19.3105 C   0  0  2  0  0  0  0  0  0  0  0  0
   10.0766  -15.9077   19.3839 N   0  0  0  0  0  0  0  0  0  0  0  0
    8.0392  -15.5640   20.5978 C   0  0  0  0  0  0  0  0  0  0  0  0
    6.8805  -15.0524   20.7681 O   0  0  0  0  0  0  0  0  0  0  0  0
    4.9588  -18.4572   22.1714 N   0  0  0  0  0  0  0  0  0  0  0  0
    6.0521  -19.2902   22.4370 C   0  0  0  0  0  0  0  0  0  0  0  0
    5.7939  -20.4804   22.8307 O   0  0  0  0  0  0  0  0  0  0  0  0
    7.4702  -18.8599   22.2842 C   0  0  0  0  0  0  0  0  0  0  0  0
    7.7955  -17.8895   23.3640 C   0  0  0  0  0  0  0  0  0  0  0  0
    7.8573  -16.4576   22.8835 C   0  0  2  0  0  0  0  0  0  0  0  0
    8.5817  -16.3111   21.6594 N   0  0  0  0  0  0  0  0  0  0  0  0
    8.4937  -15.6769   24.0001 C   0  0  0  0  0  0  0  0  0  0  0  0
    9.7467  -15.6211   24.0397 O   0  0  0  0  0  0  0  0  0  0  0  0
    5.6972  -11.6692   27.1862 C   0  0  0  0  0  0  0  0  0  0  0  0
    6.3531  -12.9621   26.8456 C   0  0  0  0  0  0  0  0  0  0  0  0
    7.6702  -12.8918   26.1684 C   0  0  2  0  0  0  0  0  0  0  0  0
    7.7035  -11.9735   24.9837 C   0  0  0  0  0  0  0  0  0  0  0  0
    8.3788  -14.1801   26.0392 C   0  0  2  0  0  0  0  0  0  0  0  0
    7.7529  -15.0160   24.9878 N   0  0  0  0  0  0  0  0  0  0  0  0
    8.4897  -15.0402   27.2109 C   0  0  0  0  0  0  0  0  0  0  0  0
    9.2553  -14.6986   28.3133 O   0  0  0  0  0  0  0  0  0  0  0  0
    7.8913  -16.1324   27.2668 O   0  0  0  0  0  0  0  0  0  0  0  0
  2  1  1  0
  3  2  2  0
  4  2  1  0
  5  4  1  0
  6  8  1  0
  6  5  1  0
  6  7  1  1
  8 16  1  0
  8  9  2  0
 11 10  1  0
 11 13  1  0
 12 11  2  0
 14 13  1  0
 15 14  1  1
 16 15  1  0
 17 24  1  0
 17 15  1  0
 18 17  2  0
 19 20  1  0
 21 20  1  0
 21 22  1  6
 23 21  1  0
 23 24  1  6
 25 23  1  0
 26 25  1  0
 27 25  2  0
M  END
$$$$
