QQI.pdb
     RDKit          3D

 27 26  0  0  1  0  0  0  0  0999 V2000
    6.8988  -14.7409   16.3442 N   0  0  0  0  0  0  0  0  0  0  0  0
    8.0588  -14.1471   16.8946 C   0  0  0  0  0  0  0  0  0  0  0  0
    9.1776  -14.4914   16.4402 O   0  0  0  0  0  0  0  0  0  0  0  0
    8.0020  -13.1509   17.9693 C   0  0  0  0  0  0  0  0  0  0  0  0
    7.3570  -13.6734   19.2239 C   0  0  0  0  0  0  0  0  0  0  0  0
    8.3833  -14.4493   19.9909 C   0  0  2  0  0  0  0  0  0  0  0  0
    8.8541  -15.6183   19.2890 N   0  0  0  0  0  0  0  0  0  0  0  0
    7.9182  -14.8292   21.3490 C   0  0  0  0  0  0  0  0  0  0  0  0
    7.4631  -13.9268   22.1313 O   0  0  0  0  0  0  0  0  0  0  0  0
    7.2774  -20.6592   23.8991 N   0  0  0  0  0  0  0  0  0  0  0  0
    6.6959  -19.7841   24.8242 C   0  0  0  0  0  0  0  0  0  0  0  0
    6.1236  -20.3099   25.8412 O   0  0  0  0  0  0  0  0  0  0  0  0
    6.7147  -18.3016   24.6784 C   0  0  0  0  0  0  0  0  0  0  0  0
    7.3528  -17.9559   23.3797 C   0  0  0  0  0  0  0  0  0  0  0  0
    7.3759  -16.4704   23.1007 C   0  0  2  0  0  0  0  0  0  0  0  0
    7.9511  -16.1504   21.8313 N   0  0  0  0  0  0  0  0  0  0  0  0
    8.1510  -15.8522   24.2313 C   0  0  0  0  0  0  0  0  0  0  0  0
    9.4038  -15.9084   24.1860 O   0  0  0  0  0  0  0  0  0  0  0  0
    5.6393  -11.6996   26.6418 C   0  0  0  0  0  0  0  0  0  0  0  0
    6.7254  -12.5398   26.0654 C   0  0  0  0  0  0  0  0  0  0  0  0
    7.4305  -13.4581   26.9916 C   0  0  2  0  0  0  0  0  0  0  0  0
    7.9620  -12.7957   28.2272 C   0  0  0  0  0  0  0  0  0  0  0  0
    8.2970  -14.4609   26.3419 C   0  0  2  0  0  0  0  0  0  0  0  0
    7.5384  -15.2225   25.3219 N   0  0  0  0  0  0  0  0  0  0  0  0
    8.9547  -15.4628   27.1718 C   0  0  0  0  0  0  0  0  0  0  0  0
    8.3241  -16.6312   27.5657 O   0  0  0  0  0  0  0  0  0  0  0  0
   10.1271  -15.3043   27.5648 O   0  0  0  0  0  0  0  0  0  0  0  0
  2  1  1  0
  3  2  2  0
  4  2  1  0
  5  4  1  0
  6  8  1  0
  6  5  1  0
  6  7  1  6
  8 16  1  0
  8  9  2  0
 11 10  1  0
 11 13  1  0
 12 11  2  0
 14 13  1  0
 15 14  1  1
 16 15  1  0
 17 24  1  0
 17 15  1  0
 18 17  2  0
 19 20  1  0
 21 20  1  0
 21 22  1  1
 23 21  1  0
 23 24  1  6
 25 23  1  0
 26 25  1  0
 27 25  2  0
M  END
$$$$
