QQI.pdb
     RDKit          3D

 27 26  0  0  1  0  0  0  0  0999 V2000
    8.8294  -12.1487   19.2007 N   0  0  0  0  0  0  0  0  0  0  0  0
    8.5283  -13.1171   18.2144 C   0  0  0  0  0  0  0  0  0  0  0  0
    8.7073  -12.8155   17.0087 O   0  0  0  0  0  0  0  0  0  0  0  0
    8.0183  -14.4511   18.5473 C   0  0  0  0  0  0  0  0  0  0  0  0
    7.8089  -14.6507   20.0235 C   0  0  0  0  0  0  0  0  0  0  0  0
    7.4022  -16.0742   20.2514 C   0  0  2  0  0  0  0  0  0  0  0  0
    6.0563  -16.3575   19.8167 N   0  0  0  0  0  0  0  0  0  0  0  0
    7.5777  -16.5020   21.6625 C   0  0  0  0  0  0  0  0  0  0  0  0
    6.5543  -16.5903   22.4230 O   0  0  0  0  0  0  0  0  0  0  0  0
   11.6856  -20.4103   24.2197 N   0  0  0  0  0  0  0  0  0  0  0  0
   11.0464  -19.8465   25.3301 C   0  0  0  0  0  0  0  0  0  0  0  0
   11.3282  -20.3414   26.4764 O   0  0  0  0  0  0  0  0  0  0  0  0
   10.0747  -18.7211   25.2363 C   0  0  0  0  0  0  0  0  0  0  0  0
    9.9444  -18.3182   23.8101 C   0  0  0  0  0  0  0  0  0  0  0  0
    8.9311  -17.2185   23.5888 C   0  0  2  0  0  0  0  0  0  0  0  0
    8.8298  -16.8211   22.2190 N   0  0  0  0  0  0  0  0  0  0  0  0
    9.3660  -16.0768   24.4657 C   0  0  0  0  0  0  0  0  0  0  0  0
   10.5956  -15.8476   24.5667 O   0  0  0  0  0  0  0  0  0  0  0  0
    5.7166  -12.1279   25.7023 C   0  0  0  0  0  0  0  0  0  0  0  0
    6.9257  -12.9348   25.3785 C   0  0  0  0  0  0  0  0  0  0  0  0
    7.7727  -13.3660   26.5165 C   0  0  2  0  0  0  0  0  0  0  0  0
    8.0493  -12.2869   27.5199 C   0  0  0  0  0  0  0  0  0  0  0  0
    8.8954  -14.2559   26.1611 C   0  0  2  0  0  0  0  0  0  0  0  0
    8.4642  -15.2670   25.1672 N   0  0  0  0  0  0  0  0  0  0  0  0
    9.5595  -15.0048   27.2208 C   0  0  0  0  0  0  0  0  0  0  0  0
   10.6817  -14.5270   27.8769 O   0  0  0  0  0  0  0  0  0  0  0  0
    9.1371  -16.1205   27.5827 O   0  0  0  0  0  0  0  0  0  0  0  0
  2  1  1  0
  3  2  2  0
  4  2  1  0
  5  4  1  0
  6  8  1  0
  6  5  1  0
  6  7  1  1
  8 16  1  0
  8  9  2  0
 11 10  1  0
 11 13  1  0
 12 11  2  0
 14 13  1  0
 15 14  1  6
 16 15  1  0
 17 24  1  0
 17 15  1  0
 18 17  2  0
 19 20  1  0
 21 20  1  0
 21 22  1  6
 23 21  1  0
 23 24  1  6
 25 23  1  0
 26 25  1  0
 27 25  2  0
M  END
$$$$
