QQI.pdb
     RDKit          3D

 27 26  0  0  1  0  0  0  0  0999 V2000
    8.4207  -12.2689   18.4660 N   0  0  0  0  0  0  0  0  0  0  0  0
    8.1338  -13.3630   17.6164 C   0  0  0  0  0  0  0  0  0  0  0  0
    8.7553  -13.4522   16.5290 O   0  0  0  0  0  0  0  0  0  0  0  0
    7.1437  -14.3894   17.9577 C   0  0  0  0  0  0  0  0  0  0  0  0
    6.9785  -14.5792   19.4408 C   0  0  0  0  0  0  0  0  0  0  0  0
    8.2909  -15.0289   20.0053 C   0  0  2  0  0  0  0  0  0  0  0  0
    8.9446  -16.0294   19.1975 N   0  0  0  0  0  0  0  0  0  0  0  0
    8.1791  -15.5059   21.4071 C   0  0  0  0  0  0  0  0  0  0  0  0
    7.2286  -15.0723   22.1433 O   0  0  0  0  0  0  0  0  0  0  0  0
   11.0851  -20.4442   24.1264 N   0  0  0  0  0  0  0  0  0  0  0  0
   10.3111  -20.3803   22.9618 C   0  0  0  0  0  0  0  0  0  0  0  0
   10.2922  -21.4221   22.2185 O   0  0  0  0  0  0  0  0  0  0  0  0
    9.5268  -19.1789   22.5604 C   0  0  0  0  0  0  0  0  0  0  0  0
    9.6460  -18.1500   23.6282 C   0  0  0  0  0  0  0  0  0  0  0  0
    8.8866  -16.8792   23.3227 C   0  0  2  0  0  0  0  0  0  0  0  0
    9.0770  -16.4249   21.9804 N   0  0  0  0  0  0  0  0  0  0  0  0
    9.3650  -15.8641   24.3238 C   0  0  0  0  0  0  0  0  0  0  0  0
   10.4635  -15.2971   24.1079 O   0  0  0  0  0  0  0  0  0  0  0  0
    5.8171  -12.4321   25.8736 C   0  0  0  0  0  0  0  0  0  0  0  0
    7.0880  -13.1480   25.5736 C   0  0  0  0  0  0  0  0  0  0  0  0
    7.9073  -13.5806   26.7312 C   0  0  2  0  0  0  0  0  0  0  0  0
    8.1338  -12.5112   27.7572 C   0  0  0  0  0  0  0  0  0  0  0  0
    9.0559  -14.4459   26.3985 C   0  0  2  0  0  0  0  0  0  0  0  0
    8.6423  -15.5289   25.4755 N   0  0  0  0  0  0  0  0  0  0  0  0
    9.7740  -15.1057   27.4818 C   0  0  0  0  0  0  0  0  0  0  0  0
   10.7678  -14.4715   28.2088 O   0  0  0  0  0  0  0  0  0  0  0  0
    9.5180  -16.2834   27.8005 O   0  0  0  0  0  0  0  0  0  0  0  0
  2  1  1  0
  3  2  2  0
  4  2  1  0
  5  4  1  0
  6  8  1  0
  6  5  1  0
  6  7  1  6
  8 16  1  0
  8  9  2  0
 11 10  1  0
 11 13  1  0
 12 11  2  0
 14 13  1  0
 15 14  1  6
 16 15  1  0
 17 24  1  0
 17 15  1  0
 18 17  2  0
 19 20  1  0
 21 20  1  0
 21 22  1  6
 23 21  1  0
 23 24  1  6
 25 23  1  0
 26 25  1  0
 27 25  2  0
M  END
$$$$
