QQI.pdb
     RDKit          3D

 27 26  0  0  1  0  0  0  0  0999 V2000
    8.0624  -12.7163   18.5119 N   0  0  0  0  0  0  0  0  0  0  0  0
    8.3946  -13.9111   17.8312 C   0  0  0  0  0  0  0  0  0  0  0  0
    9.0074  -13.8240   16.7387 O   0  0  0  0  0  0  0  0  0  0  0  0
    8.0512  -15.2382   18.3520 C   0  0  0  0  0  0  0  0  0  0  0  0
    7.3389  -15.1858   19.6758 C   0  0  0  0  0  0  0  0  0  0  0  0
    7.0236  -16.5889   20.0949 C   0  0  2  0  0  0  0  0  0  0  0  0
    6.0172  -17.2153   19.2730 N   0  0  0  0  0  0  0  0  0  0  0  0
    6.6400  -16.6876   21.5261 C   0  0  0  0  0  0  0  0  0  0  0  0
    5.5400  -16.1681   21.9177 O   0  0  0  0  0  0  0  0  0  0  0  0
    7.5345  -20.9759   25.9208 N   0  0  0  0  0  0  0  0  0  0  0  0
    7.0636  -19.8687   26.6363 C   0  0  0  0  0  0  0  0  0  0  0  0
    6.8145  -20.0432   27.8796 O   0  0  0  0  0  0  0  0  0  0  0  0
    6.8452  -18.5273   26.0262 C   0  0  0  0  0  0  0  0  0  0  0  0
    7.2177  -18.5890   24.5871 C   0  0  0  0  0  0  0  0  0  0  0  0
    7.0864  -17.2610   23.8772 C   0  0  2  0  0  0  0  0  0  0  0  0
    7.4339  -17.3325   22.4920 N   0  0  0  0  0  0  0  0  0  0  0  0
    7.9777  -16.3067   24.6230 C   0  0  0  0  0  0  0  0  0  0  0  0
    9.2156  -16.3882   24.4345 O   0  0  0  0  0  0  0  0  0  0  0  0
    5.8508  -11.5216   25.8606 C   0  0  0  0  0  0  0  0  0  0  0  0
    6.9286  -12.4829   25.4974 C   0  0  0  0  0  0  0  0  0  0  0  0
    7.6168  -13.1767   26.6124 C   0  0  2  0  0  0  0  0  0  0  0  0
    8.2672  -12.2558   27.6008 C   0  0  0  0  0  0  0  0  0  0  0  0
    8.3672  -14.3886   26.2295 C   0  0  2  0  0  0  0  0  0  0  0  0
    7.4879  -15.3404   25.5104 N   0  0  0  0  0  0  0  0  0  0  0  0
    9.0200  -15.1687   27.2736 C   0  0  0  0  0  0  0  0  0  0  0  0
   10.3475  -14.9809   27.6209 O   0  0  0  0  0  0  0  0  0  0  0  0
    8.3999  -16.0479   27.9033 O   0  0  0  0  0  0  0  0  0  0  0  0
  2  1  1  0
  3  2  2  0
  4  2  1  0
  5  4  1  0
  6  8  1  0
  6  5  1  0
  6  7  1  6
  8 16  1  0
  8  9  2  0
 11 10  1  0
 11 13  1  0
 12 11  2  0
 14 13  1  0
 15 14  1  1
 16 15  1  0
 17 24  1  0
 17 15  1  0
 18 17  2  0
 19 20  1  0
 21 20  1  0
 21 22  1  6
 23 21  1  0
 23 24  1  1
 25 23  1  0
 26 25  1  0
 27 25  2  0
M  END
$$$$
