QQI.pdb
     RDKit          3D

 27 26  0  0  1  0  0  0  0  0999 V2000
    7.0889  -15.4547   16.5388 N   0  0  0  0  0  0  0  0  0  0  0  0
    7.5178  -14.1191   16.3555 C   0  0  0  0  0  0  0  0  0  0  0  0
    7.7602  -13.7258   15.1880 O   0  0  0  0  0  0  0  0  0  0  0  0
    7.6881  -13.1841   17.4723 C   0  0  0  0  0  0  0  0  0  0  0  0
    7.3195  -13.7815   18.8028 C   0  0  0  0  0  0  0  0  0  0  0  0
    8.5541  -13.8403   19.6488 C   0  0  2  0  0  0  0  0  0  0  0  0
    9.6700  -14.4672   18.9836 N   0  0  0  0  0  0  0  0  0  0  0  0
    8.3187  -14.4916   20.9625 C   0  0  0  0  0  0  0  0  0  0  0  0
    7.4028  -14.0402   21.7311 O   0  0  0  0  0  0  0  0  0  0  0  0
   10.8340  -19.9194   20.5415 N   0  0  0  0  0  0  0  0  0  0  0  0
   10.0847  -19.6197   21.6853 C   0  0  0  0  0  0  0  0  0  0  0  0
   10.3289  -20.3074   22.7368 O   0  0  0  0  0  0  0  0  0  0  0  0
    9.0395  -18.5590   21.7293 C   0  0  0  0  0  0  0  0  0  0  0  0
    9.3832  -17.5920   22.8064 C   0  0  0  0  0  0  0  0  0  0  0  0
    8.7118  -16.2478   22.6409 C   0  0  2  0  0  0  0  0  0  0  0  0
    9.0607  -15.5973   21.4162 N   0  0  0  0  0  0  0  0  0  0  0  0
    9.1223  -15.4337   23.8367 C   0  0  0  0  0  0  0  0  0  0  0  0
   10.2297  -14.8447   23.7956 O   0  0  0  0  0  0  0  0  0  0  0  0
    5.7540  -11.9918   25.5612 C   0  0  0  0  0  0  0  0  0  0  0  0
    6.9810  -12.7944   25.3004 C   0  0  0  0  0  0  0  0  0  0  0  0
    7.5660  -13.5244   26.4508 C   0  0  2  0  0  0  0  0  0  0  0  0
    7.6991  -12.7015   27.6970 C   0  0  0  0  0  0  0  0  0  0  0  0
    8.6872  -14.4248   26.1179 C   0  0  2  0  0  0  0  0  0  0  0  0
    8.3277  -15.3069   24.9828 N   0  0  0  0  0  0  0  0  0  0  0  0
    9.2079  -15.3090   27.1532 C   0  0  0  0  0  0  0  0  0  0  0  0
   10.1311  -14.8868   28.0954 O   0  0  0  0  0  0  0  0  0  0  0  0
    8.8372  -16.4967   27.2318 O   0  0  0  0  0  0  0  0  0  0  0  0
  2  1  1  0
  3  2  2  0
  4  2  1  0
  5  4  1  0
  6  8  1  0
  6  5  1  0
  6  7  1  6
  8 16  1  0
  8  9  2  0
 11 10  1  0
 11 13  1  0
 12 11  2  0
 14 13  1  0
 15 14  1  1
 16 15  1  0
 17 24  1  0
 17 15  1  0
 18 17  2  0
 19 20  1  0
 21 20  1  0
 21 22  1  1
 23 21  1  0
 23 24  1  6
 25 23  1  0
 26 25  1  0
 27 25  2  0
M  END
$$$$
