TPK.pdb
     RDKit          3D

 24 24  0  0  1  0  0  0  0  0999 V2000
   30.0437  -34.1495   -3.8263 C   0  0  0  0  0  0  0  0  0  0  0  0
   30.1266  -35.0080   -5.0729 C   0  0  1  0  0  0  0  0  0  0  0  0
   29.8352  -34.1085   -6.1319 O   0  0  0  0  0  0  0  0  0  0  0  0
   31.5836  -35.3902   -5.2864 C   0  0  2  0  0  0  0  0  0  0  0  0
   31.7648  -35.9941   -6.5830 N   0  0  0  0  0  0  0  0  0  0  0  0
   32.2011  -36.0819   -4.1712 C   0  0  0  0  0  0  0  0  0  0  0  0
   31.4732  -36.9730   -3.6036 O   0  0  0  0  0  0  0  0  0  0  0  0
   33.4943  -35.9016   -3.6336 N   0  0  0  0  0  0  0  0  0  0  0  0
   34.5032  -34.9911   -4.0813 C   0  0  0  0  0  0  0  0  0  0  0  0
   35.1385  -34.5311   -2.7533 C   0  0  0  0  0  0  0  0  0  0  0  0
   35.3464  -35.9222   -2.1331 C   0  0  0  0  0  0  0  0  0  0  0  0
   34.0599  -36.6294   -2.5012 C   0  0  1  0  0  0  0  0  0  0  0  0
   33.1684  -36.5685   -1.3140 C   0  0  0  0  0  0  0  0  0  0  0  0
   32.3642  -35.6421   -1.0644 O   0  0  0  0  0  0  0  0  0  0  0  0
   33.2328  -37.6439   -0.3904 N   0  0  0  0  0  0  0  0  0  0  0  0
   32.4086  -37.7575    0.7924 C   0  0  1  0  0  0  0  0  0  0  0  0
   31.6859  -39.0175    0.9681 C   0  0  0  0  0  0  0  0  0  0  0  0
   30.4028  -39.3562    0.3950 C   0  0  0  0  0  0  0  0  0  0  0  0
   29.6875  -40.6220    0.5692 C   0  0  0  0  0  0  0  0  0  0  0  0
   28.3839  -40.8310   -0.0911 C   0  0  0  0  0  0  0  0  0  0  0  0
   27.8245  -42.1204    0.3441 N   0  0  0  0  0  0  0  0  0  0  0  0
   33.0642  -37.1451    1.9598 C   0  0  0  0  0  0  0  0  0  0  0  0
   32.3311  -36.6192    3.0067 O   0  0  0  0  0  0  0  0  0  0  0  0
   34.3140  -37.0853    2.0331 O   0  0  0  0  0  0  0  0  0  0  0  0
  2  1  1  1
  3  2  1  0
  4  6  1  0
  4  2  1  0
  4  5  1  6
  6  8  1  0
  6  7  2  0
  8 12  1  0
  9  8  1  0
  9 10  1  0
 10 11  1  0
 12 11  1  0
 13 15  1  0
 12 13  1  1
 14 13  2  0
 16 17  1  1
 16 15  1  0
 17 18  1  0
 18 19  1  0
 20 19  1  0
 21 20  1  0
 22 16  1  0
 22 23  1  0
 24 22  2  0
M  END
$$$$
