TPK.pdb
     RDKit          3D

 24 24  0  0  1  0  0  0  0  0999 V2000
   13.8940   -9.4260  -14.1370 C   0  0  0  0  0  0  0  0  0  0  0  0
   13.9865  -10.8342  -13.5837 C   0  0  1  0  0  0  0  0  0  0  0  0
   13.7363  -11.6643  -14.7079 O   0  0  0  0  0  0  0  0  0  0  0  0
   15.4396  -11.1055  -13.2244 C   0  0  2  0  0  0  0  0  0  0  0  0
   15.6532  -12.5142  -13.0036 N   0  0  0  0  0  0  0  0  0  0  0  0
   15.9961  -10.2140  -12.2248 C   0  0  0  0  0  0  0  0  0  0  0  0
   15.3494  -10.1536  -11.1185 O   0  0  0  0  0  0  0  0  0  0  0  0
   17.1528   -9.4090  -12.3129 N   0  0  0  0  0  0  0  0  0  0  0  0
   18.1205   -9.3890  -13.3667 C   0  0  0  0  0  0  0  0  0  0  0  0
   18.4689   -7.8894  -13.4598 C   0  0  0  0  0  0  0  0  0  0  0  0
   18.7153   -7.6431  -11.9626 C   0  0  0  0  0  0  0  0  0  0  0  0
   17.5923   -8.4303  -11.3224 C   0  0  1  0  0  0  0  0  0  0  0  0
   16.5111   -7.4663  -10.9917 C   0  0  0  0  0  0  0  0  0  0  0  0
   15.6700   -7.0211  -11.8050 O   0  0  0  0  0  0  0  0  0  0  0  0
   16.4243   -7.0143   -9.6493 N   0  0  0  0  0  0  0  0  0  0  0  0
   15.4725   -6.0340   -9.1758 C   0  0  1  0  0  0  0  0  0  0  0  0
   14.4905   -6.4958   -8.1943 C   0  0  0  0  0  0  0  0  0  0  0  0
   13.5006   -7.5299   -8.3943 C   0  0  0  0  0  0  0  0  0  0  0  0
   12.4986   -7.9649   -7.4191 C   0  0  0  0  0  0  0  0  0  0  0  0
   11.5614   -9.0537   -7.7583 C   0  0  0  0  0  0  0  0  0  0  0  0
   10.6191   -9.2430   -6.6442 N   0  0  0  0  0  0  0  0  0  0  0  0
   16.1116   -4.7222   -8.9792 C   0  0  0  0  0  0  0  0  0  0  0  0
   15.3719   -3.5551   -8.9515 O   0  0  0  0  0  0  0  0  0  0  0  0
   17.3528   -4.6313   -8.8308 O   0  0  0  0  0  0  0  0  0  0  0  0
  2  1  1  6
  3  2  1  0
  4  6  1  0
  4  2  1  0
  4  5  1  1
  6  8  1  0
  6  7  2  0
  8 12  1  0
  9  8  1  0
  9 10  1  0
 10 11  1  0
 12 11  1  0
 13 15  1  0
 12 13  1  6
 14 13  2  0
 16 17  1  1
 16 15  1  0
 17 18  1  0
 18 19  1  0
 20 19  1  0
 21 20  1  0
 22 16  1  0
 22 23  1  0
 24 22  2  0
M  END
$$$$
