TPK.pdb
     RDKit          3D

 24 24  0  0  1  0  0  0  0  0999 V2000
   20.2422   -7.9463  -19.0391 C   0  0  0  0  0  0  0  0  0  0  0  0
   19.4490   -9.1273  -18.5160 C   0  0  1  0  0  0  0  0  0  0  0  0
   19.9959  -10.2426  -19.2033 O   0  0  0  0  0  0  0  0  0  0  0  0
   19.8354   -9.3481  -17.0612 C   0  0  2  0  0  0  0  0  0  0  0  0
   19.4307  -10.6605  -16.6223 N   0  0  0  0  0  0  0  0  0  0  0  0
   19.5073   -8.2510  -16.1711 C   0  0  0  0  0  0  0  0  0  0  0  0
   18.2777   -7.8852  -16.1766 O   0  0  0  0  0  0  0  0  0  0  0  0
   20.3635   -7.5384  -15.3033 N   0  0  0  0  0  0  0  0  0  0  0  0
   21.7262   -7.8381  -14.9862 C   0  0  0  0  0  0  0  0  0  0  0  0
   22.3557   -6.4330  -14.8962 C   0  0  0  0  0  0  0  0  0  0  0  0
   21.3025   -5.7953  -13.9758 C   0  0  0  0  0  0  0  0  0  0  0  0
   20.0109   -6.3412  -14.5454 C   0  0  1  0  0  0  0  0  0  0  0  0
   19.4374   -5.2891  -15.4240 C   0  0  0  0  0  0  0  0  0  0  0  0
   19.8151   -5.0415  -16.5916 O   0  0  0  0  0  0  0  0  0  0  0  0
   18.3787   -4.5030  -14.8996 N   0  0  0  0  0  0  0  0  0  0  0  0
   17.6794   -3.4748  -15.6380 C   0  0  1  0  0  0  0  0  0  0  0  0
   16.2660   -3.7215  -15.9251 C   0  0  0  0  0  0  0  0  0  0  0  0
   15.7001   -4.9406  -16.4571 C   0  0  0  0  0  0  0  0  0  0  0  0
   14.3136   -5.3862  -16.3044 C   0  0  0  0  0  0  0  0  0  0  0  0
   13.8706   -6.6493  -16.9268 C   0  0  0  0  0  0  0  0  0  0  0  0
   12.4344   -6.8364  -16.6677 N   0  0  0  0  0  0  0  0  0  0  0  0
   18.0921   -2.1307  -15.2013 C   0  0  0  0  0  0  0  0  0  0  0  0
   18.7668   -1.9331  -14.0114 O   0  0  0  0  0  0  0  0  0  0  0  0
   17.8394   -1.1243  -15.9042 O   0  0  0  0  0  0  0  0  0  0  0  0
  2  1  1  6
  3  2  1  0
  4  6  1  0
  4  2  1  0
  4  5  1  1
  6  8  1  0
  6  7  2  0
  8 12  1  0
  9  8  1  0
  9 10  1  0
 10 11  1  0
 12 11  1  0
 13 15  1  0
 12 13  1  6
 14 13  2  0
 16 17  1  1
 16 15  1  0
 17 18  1  0
 18 19  1  0
 20 19  1  0
 21 20  1  0
 22 16  1  0
 22 23  1  0
 24 22  2  0
M  END
$$$$
