TPK.pdb
     RDKit          3D

 24 24  0  0  1  0  0  0  0  0999 V2000
   25.4493  -11.3090  -15.2704 C   0  0  0  0  0  0  0  0  0  0  0  0
   25.4362  -12.0319  -16.6027 C   0  0  1  0  0  0  0  0  0  0  0  0
   26.2446  -13.1779  -16.3820 O   0  0  0  0  0  0  0  0  0  0  0  0
   24.0376  -12.5880  -16.8242 C   0  0  2  0  0  0  0  0  0  0  0  0
   24.0345  -13.5355  -17.9109 N   0  0  0  0  0  0  0  0  0  0  0  0
   22.9832  -11.5924  -16.8460 C   0  0  0  0  0  0  0  0  0  0  0  0
   23.1410  -10.6404  -17.6915 O   0  0  0  0  0  0  0  0  0  0  0  0
   21.8110  -11.5375  -16.0606 N   0  0  0  0  0  0  0  0  0  0  0  0
   21.3489  -12.5104  -15.1184 C   0  0  0  0  0  0  0  0  0  0  0  0
   20.7582  -11.6261  -14.0013 C   0  0  0  0  0  0  0  0  0  0  0  0
   19.9029  -10.7125  -14.8940 C   0  0  0  0  0  0  0  0  0  0  0  0
   20.8262  -10.4596  -16.0663 C   0  0  1  0  0  0  0  0  0  0  0  0
   21.4652   -9.1363  -15.8465 C   0  0  0  0  0  0  0  0  0  0  0  0
   22.5041   -8.9410  -15.1760 O   0  0  0  0  0  0  0  0  0  0  0  0
   20.8504   -8.0047  -16.4427 N   0  0  0  0  0  0  0  0  0  0  0  0
   21.3665   -6.6562  -16.3634 C   0  0  1  0  0  0  0  0  0  0  0  0
   21.0979   -5.7841  -17.5072 C   0  0  0  0  0  0  0  0  0  0  0  0
   20.5686   -6.1913  -18.7891 C   0  0  0  0  0  0  0  0  0  0  0  0
   20.2794   -5.3099  -19.9222 C   0  0  0  0  0  0  0  0  0  0  0  0
   19.6911   -5.8636  -21.1576 C   0  0  0  0  0  0  0  0  0  0  0  0
   19.4192   -4.7639  -22.0967 N   0  0  0  0  0  0  0  0  0  0  0  0
   21.2235   -6.1098  -15.0037 C   0  0  0  0  0  0  0  0  0  0  0  0
   20.3740   -6.6867  -14.0789 O   0  0  0  0  0  0  0  0  0  0  0  0
   21.8745   -5.0992  -14.6489 O   0  0  0  0  0  0  0  0  0  0  0  0
  2  1  1  1
  3  2  1  0
  4  6  1  0
  4  2  1  0
  4  5  1  6
  6  8  1  0
  6  7  2  0
  8 12  1  0
  9  8  1  0
  9 10  1  0
 10 11  1  0
 12 11  1  0
 13 15  1  0
 12 13  1  1
 14 13  2  0
 16 17  1  6
 16 15  1  0
 17 18  1  0
 18 19  1  0
 20 19  1  0
 21 20  1  0
 22 16  1  0
 22 23  1  0
 24 22  2  0
M  END
$$$$
