TPK.pdb
     RDKit          3D

 24 24  0  0  1  0  0  0  0  0999 V2000
   26.4065  -19.8496   -9.3360 C   0  0  0  0  0  0  0  0  0  0  0  0
   25.8246  -21.0430  -10.0675 C   0  0  1  0  0  0  0  0  0  0  0  0
   25.1421  -21.7690   -9.0563 O   0  0  0  0  0  0  0  0  0  0  0  0
   24.7218  -20.5407  -10.9874 C   0  0  2  0  0  0  0  0  0  0  0  0
   23.6789  -21.5280  -11.1151 N   0  0  0  0  0  0  0  0  0  0  0  0
   25.1864  -19.9432  -12.2246 C   0  0  0  0  0  0  0  0  0  0  0  0
   24.2824  -19.3759  -12.9365 O   0  0  0  0  0  0  0  0  0  0  0  0
   26.4994  -19.9055  -12.7426 N   0  0  0  0  0  0  0  0  0  0  0  0
   27.7238  -20.0793  -12.0227 C   0  0  0  0  0  0  0  0  0  0  0  0
   28.5824  -20.8731  -13.0285 C   0  0  0  0  0  0  0  0  0  0  0  0
   28.3405  -19.9786  -14.2551 C   0  0  0  0  0  0  0  0  0  0  0  0
   26.8634  -19.6708  -14.1370 C   0  0  1  0  0  0  0  0  0  0  0  0
   26.1458  -20.5968  -15.0509 C   0  0  0  0  0  0  0  0  0  0  0  0
   25.8484  -21.7835  -14.7854 O   0  0  0  0  0  0  0  0  0  0  0  0
   25.7677  -20.0981  -16.3245 N   0  0  0  0  0  0  0  0  0  0  0  0
   24.4660  -20.2893  -16.9248 C   0  0  1  0  0  0  0  0  0  0  0  0
   23.3185  -20.2790  -16.0170 C   0  0  0  0  0  0  0  0  0  0  0  0
   22.4552  -21.3983  -15.7151 C   0  0  0  0  0  0  0  0  0  0  0  0
   21.0370  -21.3220  -15.3584 C   0  0  0  0  0  0  0  0  0  0  0  0
   20.2565  -22.5597  -15.1636 C   0  0  0  0  0  0  0  0  0  0  0  0
   18.9496  -22.2183  -14.5800 N   0  0  0  0  0  0  0  0  0  0  0  0
   24.3621  -19.5787  -18.2101 C   0  0  0  0  0  0  0  0  0  0  0  0
   24.3784  -18.1983  -18.2759 O   0  0  0  0  0  0  0  0  0  0  0  0
   24.2555  -20.2139  -19.2853 O   0  0  0  0  0  0  0  0  0  0  0  0
  2  1  1  1
  3  2  1  0
  4  6  1  0
  4  2  1  0
  4  5  1  6
  6  8  1  0
  6  7  2  0
  8 12  1  0
  9  8  1  0
  9 10  1  0
 10 11  1  0
 12 11  1  0
 13 15  1  0
 12 13  1  6
 14 13  2  0
 16 17  1  1
 16 15  1  0
 17 18  1  0
 18 19  1  0
 20 19  1  0
 21 20  1  0
 22 16  1  0
 22 23  1  0
 24 22  2  0
M  END
$$$$
