TPK.pdb
     RDKit          3D

 24 24  0  0  1  0  0  0  0  0999 V2000
   18.3109  -13.3478  -18.4826 C   0  0  0  0  0  0  0  0  0  0  0  0
   18.7812  -12.6783  -17.2064 C   0  0  1  0  0  0  0  0  0  0  0  0
   19.1917  -13.7580  -16.3809 O   0  0  0  0  0  0  0  0  0  0  0  0
   20.0655  -11.9237  -17.5150 C   0  0  2  0  0  0  0  0  0  0  0  0
   21.0854  -12.8285  -17.9841 N   0  0  0  0  0  0  0  0  0  0  0  0
   20.4756  -10.9774  -16.4952 C   0  0  0  0  0  0  0  0  0  0  0  0
   19.5912  -10.1108  -16.1594 O   0  0  0  0  0  0  0  0  0  0  0  0
   21.7167  -10.8890  -15.8277 N   0  0  0  0  0  0  0  0  0  0  0  0
   22.8446  -11.7581  -15.9695 C   0  0  0  0  0  0  0  0  0  0  0  0
   24.0278  -10.7733  -15.8756 C   0  0  0  0  0  0  0  0  0  0  0  0
   23.5761  -10.0308  -14.6075 C   0  0  0  0  0  0  0  0  0  0  0  0
   22.0887   -9.8779  -14.8421 C   0  0  1  0  0  0  0  0  0  0  0  0
   21.8632   -8.5034  -15.3596 C   0  0  0  0  0  0  0  0  0  0  0  0
   21.4084   -8.2263  -16.4925 O   0  0  0  0  0  0  0  0  0  0  0  0
   22.1886   -7.4195  -14.5034 N   0  0  0  0  0  0  0  0  0  0  0  0
   21.6846   -6.0731  -14.6600 C   0  0  1  0  0  0  0  0  0  0  0  0
   20.2697   -5.9401  -15.0082 C   0  0  0  0  0  0  0  0  0  0  0  0
   19.5133   -4.7096  -15.0636 C   0  0  0  0  0  0  0  0  0  0  0  0
   18.0838   -4.5884  -15.3573 C   0  0  0  0  0  0  0  0  0  0  0  0
   17.4359   -3.2622  -15.3406 C   0  0  0  0  0  0  0  0  0  0  0  0
   16.0441   -3.4001  -15.7976 N   0  0  0  0  0  0  0  0  0  0  0  0
   22.2558   -5.1690  -13.6480 C   0  0  0  0  0  0  0  0  0  0  0  0
   22.7760   -3.9358  -13.9922 O   0  0  0  0  0  0  0  0  0  0  0  0
   22.2845   -5.4988  -12.4391 O   0  0  0  0  0  0  0  0  0  0  0  0
  2  1  1  6
  3  2  1  0
  4  6  1  0
  4  2  1  0
  4  5  1  1
  6  8  1  0
  6  7  2  0
  8 12  1  0
  9  8  1  0
  9 10  1  0
 10 11  1  0
 12 11  1  0
 13 15  1  0
 12 13  1  6
 14 13  2  0
 16 17  1  1
 16 15  1  0
 17 18  1  0
 18 19  1  0
 20 19  1  0
 21 20  1  0
 22 16  1  0
 22 23  1  0
 24 22  2  0
M  END
$$$$
