TPK.pdb
     RDKit          3D

 24 24  0  0  1  0  0  0  0  0999 V2000
   22.8753  -22.4546  -14.7136 C   0  0  0  0  0  0  0  0  0  0  0  0
   21.9481  -21.5538  -13.9219 C   0  0  1  0  0  0  0  0  0  0  0  0
   21.0418  -22.4521  -13.2996 O   0  0  0  0  0  0  0  0  0  0  0  0
   22.7420  -20.9539  -12.7712 C   0  0  2  0  0  0  0  0  0  0  0  0
   21.8557  -20.4484  -11.7526 N   0  0  0  0  0  0  0  0  0  0  0  0
   23.8203  -20.0703  -13.1712 C   0  0  0  0  0  0  0  0  0  0  0  0
   23.4584  -18.9926  -13.7656 O   0  0  0  0  0  0  0  0  0  0  0  0
   25.2100  -20.2433  -12.9902 N   0  0  0  0  0  0  0  0  0  0  0  0
   25.8647  -21.1249  -12.0728 C   0  0  0  0  0  0  0  0  0  0  0  0
   27.0761  -21.6090  -12.8955 C   0  0  0  0  0  0  0  0  0  0  0  0
   27.5628  -20.2314  -13.3737 C   0  0  0  0  0  0  0  0  0  0  0  0
   26.2623  -19.5363  -13.7147 C   0  0  1  0  0  0  0  0  0  0  0  0
   26.0780  -19.6432  -15.1852 C   0  0  0  0  0  0  0  0  0  0  0  0
   25.0639  -20.1099  -15.7516 O   0  0  0  0  0  0  0  0  0  0  0  0
   27.1335  -19.1803  -16.0132 N   0  0  0  0  0  0  0  0  0  0  0  0
   26.9465  -18.4244  -17.2317 C   0  0  1  0  0  0  0  0  0  0  0  0
   25.8859  -17.4164  -17.2206 C   0  0  0  0  0  0  0  0  0  0  0  0
   24.7525  -17.3558  -18.1156 C   0  0  0  0  0  0  0  0  0  0  0  0
   23.7673  -16.2747  -18.1876 C   0  0  0  0  0  0  0  0  0  0  0  0
   22.6895  -16.3232  -19.1950 C   0  0  0  0  0  0  0  0  0  0  0  0
   21.8333  -15.1364  -19.0422 N   0  0  0  0  0  0  0  0  0  0  0  0
   28.2377  -18.0911  -17.8557 C   0  0  0  0  0  0  0  0  0  0  0  0
   28.7210  -18.8001  -18.9391 O   0  0  0  0  0  0  0  0  0  0  0  0
   28.9361  -17.1479  -17.4157 O   0  0  0  0  0  0  0  0  0  0  0  0
  2  1  1  6
  3  2  1  0
  4  6  1  0
  4  2  1  0
  4  5  1  1
  6  8  1  0
  6  7  2  0
  8 12  1  0
  9  8  1  0
  9 10  1  0
 10 11  1  0
 12 11  1  0
 13 15  1  0
 12 13  1  6
 14 13  2  0
 16 17  1  1
 16 15  1  0
 17 18  1  0
 18 19  1  0
 20 19  1  0
 21 20  1  0
 22 16  1  0
 22 23  1  0
 24 22  2  0
M  END
$$$$
