TPK.pdb
     RDKit          3D

 24 24  0  0  1  0  0  0  0  0999 V2000
   26.8217  -21.1715  -18.8957 C   0  0  0  0  0  0  0  0  0  0  0  0
   27.5046  -22.2987  -18.1467 C   0  0  1  0  0  0  0  0  0  0  0  0
   28.5703  -22.6855  -19.0012 O   0  0  0  0  0  0  0  0  0  0  0  0
   28.1904  -21.7059  -16.9250 C   0  0  2  0  0  0  0  0  0  0  0  0
   29.0602  -22.6776  -16.3101 N   0  0  0  0  0  0  0  0  0  0  0  0
   27.3131  -20.9799  -16.0269 C   0  0  0  0  0  0  0  0  0  0  0  0
   26.4339  -21.6906  -15.4205 O   0  0  0  0  0  0  0  0  0  0  0  0
   27.3034  -19.5982  -15.7355 N   0  0  0  0  0  0  0  0  0  0  0  0
   28.2048  -18.5999  -16.2239 C   0  0  0  0  0  0  0  0  0  0  0  0
   27.2695  -17.3913  -16.4318 C   0  0  0  0  0  0  0  0  0  0  0  0
   26.5756  -17.4309  -15.0607 C   0  0  0  0  0  0  0  0  0  0  0  0
   26.3572  -18.9148  -14.8583 C   0  0  1  0  0  0  0  0  0  0  0  0
   24.9512  -19.2091  -15.2383 C   0  0  0  0  0  0  0  0  0  0  0  0
   24.5518  -19.4309  -16.4038 O   0  0  0  0  0  0  0  0  0  0  0  0
   23.9849  -19.2416  -14.1995 N   0  0  0  0  0  0  0  0  0  0  0  0
   22.5844  -19.5447  -14.3938 C   0  0  1  0  0  0  0  0  0  0  0  0
   21.8875  -20.1692  -13.2690 C   0  0  0  0  0  0  0  0  0  0  0  0
   20.4964  -20.5603  -13.2336 C   0  0  0  0  0  0  0  0  0  0  0  0
   19.9869  -21.9159  -13.0170 C   0  0  0  0  0  0  0  0  0  0  0  0
   18.5344  -22.1754  -13.0629 C   0  0  0  0  0  0  0  0  0  0  0  0
   18.2888  -23.5948  -12.7629 N   0  0  0  0  0  0  0  0  0  0  0  0
   21.9065  -18.4749  -15.1446 C   0  0  0  0  0  0  0  0  0  0  0  0
   20.8648  -18.7484  -16.0106 O   0  0  0  0  0  0  0  0  0  0  0  0
   22.2609  -17.2796  -15.0154 O   0  0  0  0  0  0  0  0  0  0  0  0
  2  1  1  6
  3  2  1  0
  4  6  1  0
  4  2  1  0
  4  5  1  1
  6  8  1  0
  6  7  2  0
  8 12  1  0
  9  8  1  0
  9 10  1  0
 10 11  1  0
 12 11  1  0
 13 15  1  0
 12 13  1  6
 14 13  2  0
 16 17  1  1
 16 15  1  0
 17 18  1  0
 18 19  1  0
 20 19  1  0
 21 20  1  0
 22 16  1  0
 22 23  1  0
 24 22  2  0
M  END
$$$$
