TPK.pdb
     RDKit          3D

 24 24  0  0  1  0  0  0  0  0999 V2000
   20.8205  -15.0545  -19.4913 C   0  0  0  0  0  0  0  0  0  0  0  0
   20.9641  -13.7782  -18.6860 C   0  0  1  0  0  0  0  0  0  0  0  0
   19.7174  -13.1206  -18.8555 O   0  0  0  0  0  0  0  0  0  0  0  0
   21.0015  -14.1522  -17.2118 C   0  0  2  0  0  0  0  0  0  0  0  0
   19.9666  -15.1079  -16.9045 N   0  0  0  0  0  0  0  0  0  0  0  0
   21.1200  -13.0291  -16.3018 C   0  0  0  0  0  0  0  0  0  0  0  0
   20.0347  -12.3816  -16.0806 O   0  0  0  0  0  0  0  0  0  0  0  0
   22.2707  -12.5602  -15.6312 N   0  0  0  0  0  0  0  0  0  0  0  0
   23.5626  -13.1739  -15.5872 C   0  0  0  0  0  0  0  0  0  0  0  0
   24.5042  -11.9537  -15.6431 C   0  0  0  0  0  0  0  0  0  0  0  0
   23.8284  -11.1227  -14.5404 C   0  0  0  0  0  0  0  0  0  0  0  0
   22.3597  -11.3397  -14.8346 C   0  0  1  0  0  0  0  0  0  0  0  0
   21.8832  -10.1560  -15.5958 C   0  0  0  0  0  0  0  0  0  0  0  0
   21.6106  -10.1477  -16.8176 O   0  0  0  0  0  0  0  0  0  0  0  0
   21.7245   -8.9391  -14.8831 N   0  0  0  0  0  0  0  0  0  0  0  0
   20.9949   -7.7916  -15.3752 C   0  0  1  0  0  0  0  0  0  0  0  0
   19.7416   -8.0652  -16.0789 C   0  0  0  0  0  0  0  0  0  0  0  0
   18.4642   -8.3605  -15.4702 C   0  0  0  0  0  0  0  0  0  0  0  0
   17.2099   -8.6196  -16.1800 C   0  0  0  0  0  0  0  0  0  0  0  0
   15.9748   -8.8965  -15.4206 C   0  0  0  0  0  0  0  0  0  0  0  0
   14.8717   -9.1345  -16.3647 N   0  0  0  0  0  0  0  0  0  0  0  0
   21.0419   -6.6777  -14.4136 C   0  0  0  0  0  0  0  0  0  0  0  0
   21.4346   -6.8708  -13.1027 O   0  0  0  0  0  0  0  0  0  0  0  0
   20.7240   -5.5169  -14.7636 O   0  0  0  0  0  0  0  0  0  0  0  0
  2  1  1  6
  3  2  1  0
  4  6  1  0
  4  2  1  0
  4  5  1  1
  6  8  1  0
  6  7  2  0
  8 12  1  0
  9  8  1  0
  9 10  1  0
 10 11  1  0
 12 11  1  0
 13 15  1  0
 12 13  1  6
 14 13  2  0
 16 17  1  1
 16 15  1  0
 17 18  1  0
 18 19  1  0
 20 19  1  0
 21 20  1  0
 22 16  1  0
 22 23  1  0
 24 22  2  0
M  END
$$$$
