TPK.pdb
     RDKit          3D

 24 24  0  0  1  0  0  0  0  0999 V2000
   21.5744  -13.8787  -19.2231 C   0  0  0  0  0  0  0  0  0  0  0  0
   20.8004  -14.9460  -18.4749 C   0  0  1  0  0  0  0  0  0  0  0  0
   20.9799  -16.1162  -19.2584 O   0  0  0  0  0  0  0  0  0  0  0  0
   21.5362  -15.2393  -17.1761 C   0  0  2  0  0  0  0  0  0  0  0  0
   21.0372  -16.4500  -16.5726 N   0  0  0  0  0  0  0  0  0  0  0  0
   21.6832  -14.1010  -16.2894 C   0  0  0  0  0  0  0  0  0  0  0  0
   20.6013  -13.4637  -16.0261 O   0  0  0  0  0  0  0  0  0  0  0  0
   22.8583  -13.6077  -15.6815 N   0  0  0  0  0  0  0  0  0  0  0  0
   24.1679  -14.1828  -15.7257 C   0  0  0  0  0  0  0  0  0  0  0  0
   25.0683  -12.9340  -15.8177 C   0  0  0  0  0  0  0  0  0  0  0  0
   24.4367  -12.1405  -14.6624 C   0  0  0  0  0  0  0  0  0  0  0  0
   22.9598  -12.3973  -14.8713 C   0  0  1  0  0  0  0  0  0  0  0  0
   22.4037  -11.2171  -15.5824 C   0  0  0  0  0  0  0  0  0  0  0  0
   22.0819  -11.1912  -16.7919 O   0  0  0  0  0  0  0  0  0  0  0  0
   22.2226  -10.0259  -14.8328 N   0  0  0  0  0  0  0  0  0  0  0  0
   21.4449   -8.8902  -15.2761 C   0  0  1  0  0  0  0  0  0  0  0  0
   20.1218   -9.1788  -15.8301 C   0  0  0  0  0  0  0  0  0  0  0  0
   19.1338   -8.2064  -16.2395 C   0  0  0  0  0  0  0  0  0  0  0  0
   17.7590   -8.4952  -16.6527 C   0  0  0  0  0  0  0  0  0  0  0  0
   16.8883   -7.4054  -17.1356 C   0  0  0  0  0  0  0  0  0  0  0  0
   15.5369   -7.9372  -17.3720 N   0  0  0  0  0  0  0  0  0  0  0  0
   21.5981   -7.7485  -14.3591 C   0  0  0  0  0  0  0  0  0  0  0  0
   21.7279   -6.4558  -14.8302 O   0  0  0  0  0  0  0  0  0  0  0  0
   21.6147   -7.9229  -13.1180 O   0  0  0  0  0  0  0  0  0  0  0  0
  2  1  1  6
  3  2  1  0
  4  6  1  0
  4  2  1  0
  4  5  1  1
  6  8  1  0
  6  7  2  0
  8 12  1  0
  9  8  1  0
  9 10  1  0
 10 11  1  0
 12 11  1  0
 13 15  1  0
 12 13  1  6
 14 13  2  0
 16 17  1  1
 16 15  1  0
 17 18  1  0
 18 19  1  0
 20 19  1  0
 21 20  1  0
 22 16  1  0
 22 23  1  0
 24 22  2  0
M  END
$$$$
