TPK.pdb
     RDKit          3D

 24 24  0  0  1  0  0  0  0  0999 V2000
   24.4862  -12.0557  -19.8828 C   0  0  0  0  0  0  0  0  0  0  0  0
   23.8266  -13.2563  -19.2336 C   0  0  1  0  0  0  0  0  0  0  0  0
   24.2879  -14.3597  -19.9986 O   0  0  0  0  0  0  0  0  0  0  0  0
   24.4530  -13.4542  -17.8614 C   0  0  2  0  0  0  0  0  0  0  0  0
   24.1720  -14.7771  -17.3616 N   0  0  0  0  0  0  0  0  0  0  0  0
   24.2361  -12.3636  -16.9303 C   0  0  0  0  0  0  0  0  0  0  0  0
   23.0096  -12.1157  -16.6473 O   0  0  0  0  0  0  0  0  0  0  0  0
   25.1972  -11.5446  -16.2983 N   0  0  0  0  0  0  0  0  0  0  0  0
   26.6191  -11.7047  -16.3096 C   0  0  0  0  0  0  0  0  0  0  0  0
   27.1100  -10.2446  -16.3875 C   0  0  0  0  0  0  0  0  0  0  0  0
   26.2444   -9.6766  -15.2511 C   0  0  0  0  0  0  0  0  0  0  0  0
   24.9157  -10.3600  -15.4923 C   0  0  1  0  0  0  0  0  0  0  0  0
   24.0509   -9.3971  -16.2221 C   0  0  0  0  0  0  0  0  0  0  0  0
   23.9380   -9.3312  -17.4671 O   0  0  0  0  0  0  0  0  0  0  0  0
   23.2934   -8.4800  -15.4483 N   0  0  0  0  0  0  0  0  0  0  0  0
   22.1160   -7.7866  -15.9217 C   0  0  1  0  0  0  0  0  0  0  0  0
   21.1581   -8.5765  -16.6960 C   0  0  0  0  0  0  0  0  0  0  0  0
   19.9074   -8.1061  -17.2473 C   0  0  0  0  0  0  0  0  0  0  0  0
   18.9343   -8.9114  -17.9881 C   0  0  0  0  0  0  0  0  0  0  0  0
   17.6532   -8.3147  -18.4145 C   0  0  0  0  0  0  0  0  0  0  0  0
   16.7655   -9.3800  -18.9063 N   0  0  0  0  0  0  0  0  0  0  0  0
   21.6081   -6.8459  -14.9094 C   0  0  0  0  0  0  0  0  0  0  0  0
   21.1032   -5.6086  -15.2617 O   0  0  0  0  0  0  0  0  0  0  0  0
   21.6214   -7.1470  -13.6928 O   0  0  0  0  0  0  0  0  0  0  0  0
  2  1  1  6
  3  2  1  0
  4  6  1  0
  4  2  1  0
  4  5  1  1
  6  8  1  0
  6  7  2  0
  8 12  1  0
  9  8  1  0
  9 10  1  0
 10 11  1  0
 12 11  1  0
 13 15  1  0
 12 13  1  6
 14 13  2  0
 16 17  1  1
 16 15  1  0
 17 18  1  0
 18 19  1  0
 20 19  1  0
 21 20  1  0
 22 16  1  0
 22 23  1  0
 24 22  2  0
M  END
$$$$
