TPK.pdb
     RDKit          3D

 24 24  0  0  1  0  0  0  0  0999 V2000
   16.1785  -11.3856  -14.4287 C   0  0  0  0  0  0  0  0  0  0  0  0
   16.8430  -12.6105  -15.0255 C   0  0  1  0  0  0  0  0  0  0  0  0
   15.8520  -13.6225  -14.9292 O   0  0  0  0  0  0  0  0  0  0  0  0
   17.0070  -12.3774  -16.5198 C   0  0  2  0  0  0  0  0  0  0  0  0
   17.1978  -13.6285  -17.2105 N   0  0  0  0  0  0  0  0  0  0  0  0
   17.9240  -11.3105  -16.8724 C   0  0  0  0  0  0  0  0  0  0  0  0
   19.1692  -11.5829  -16.7266 O   0  0  0  0  0  0  0  0  0  0  0  0
   17.6232  -10.0175  -17.3537 N   0  0  0  0  0  0  0  0  0  0  0  0
   16.3511   -9.5238  -17.7844 C   0  0  0  0  0  0  0  0  0  0  0  0
   16.3716   -8.0729  -17.2618 C   0  0  0  0  0  0  0  0  0  0  0  0
   17.7561   -7.6800  -17.8022 C   0  0  0  0  0  0  0  0  0  0  0  0
   18.5736   -8.9204  -17.5122 C   0  0  1  0  0  0  0  0  0  0  0  0
   19.3282   -8.6674  -16.2574 C   0  0  0  0  0  0  0  0  0  0  0  0
   18.9134   -8.9219  -15.1041 O   0  0  0  0  0  0  0  0  0  0  0  0
   20.6202   -8.0923  -16.3746 N   0  0  0  0  0  0  0  0  0  0  0  0
   21.5258   -7.8817  -15.2671 C   0  0  1  0  0  0  0  0  0  0  0  0
   22.8868   -8.3947  -15.4275 C   0  0  0  0  0  0  0  0  0  0  0  0
   23.2660   -9.7795  -15.5947 C   0  0  0  0  0  0  0  0  0  0  0  0
   24.6237  -10.2810  -15.8172 C   0  0  0  0  0  0  0  0  0  0  0  0
   24.8546  -11.7255  -16.0149 C   0  0  0  0  0  0  0  0  0  0  0  0
   26.2833  -11.9528  -16.2833 N   0  0  0  0  0  0  0  0  0  0  0  0
   21.3337   -6.5510  -14.6669 C   0  0  0  0  0  0  0  0  0  0  0  0
   21.6450   -6.3037  -13.3434 O   0  0  0  0  0  0  0  0  0  0  0  0
   20.8792   -5.6020  -15.3478 O   0  0  0  0  0  0  0  0  0  0  0  0
  2  1  1  1
  3  2  1  0
  4  6  1  0
  4  2  1  0
  4  5  1  6
  6  8  1  0
  6  7  2  0
  8 12  1  0
  9  8  1  0
  9 10  1  0
 10 11  1  0
 12 11  1  0
 13 15  1  0
 12 13  1  1
 14 13  2  0
 16 17  1  6
 16 15  1  0
 17 18  1  0
 18 19  1  0
 20 19  1  0
 21 20  1  0
 22 16  1  0
 22 23  1  0
 24 22  2  0
M  END
$$$$
