TLE.pdb
     RDKit          3D

 25 24  0  0  1  0  0  0  0  0999 V2000
   19.2355   -8.0803  -19.5469 C   0  0  0  0  0  0  0  0  0  0  0  0
   18.2034   -9.0971  -19.1184 C   0  0  1  0  0  0  0  0  0  0  0  0
   17.2329   -9.2483  -20.0950 O   0  0  0  0  0  0  0  0  0  0  0  0
   18.8511  -10.4008  -18.7687 C   0  0  2  0  0  0  0  0  0  0  0  0
   17.8533  -11.3799  -18.4565 N   0  0  0  0  0  0  0  0  0  0  0  0
   19.8317  -10.1800  -17.6936 C   0  0  0  0  0  0  0  0  0  0  0  0
   19.3313  -10.0896  -16.5230 O   0  0  0  0  0  0  0  0  0  0  0  0
   24.9073   -9.4090  -15.3252 C   0  0  0  0  0  0  0  0  0  0  0  0
   24.2024  -10.6890  -15.5964 C   0  0  2  0  0  0  0  0  0  0  0  0
   25.2403  -11.7944  -15.8786 C   0  0  0  0  0  0  0  0  0  0  0  0
   23.2091  -10.6791  -16.6737 C   0  0  0  0  0  0  0  0  0  0  0  0
   22.0706   -9.7573  -16.6847 C   0  0  2  0  0  0  0  0  0  0  0  0
   21.2049  -10.0665  -17.8471 N   0  0  0  0  0  0  0  0  0  0  0  0
   22.3480   -8.3222  -16.6449 C   0  0  0  0  0  0  0  0  0  0  0  0
   23.0884   -7.7052  -17.4726 O   0  0  0  0  0  0  0  0  0  0  0  0
   21.7386   -7.5444  -15.5898 N   0  0  0  0  0  0  0  0  0  0  0  0
   22.0395   -6.1042  -15.5249 C   0  0  1  0  0  0  0  0  0  0  0  0
   20.8940   -5.3338  -16.0964 C   0  0  0  0  0  0  0  0  0  0  0  0
   19.6451   -5.4867  -15.3163 C   0  0  0  0  0  0  0  0  0  0  0  0
   18.4874   -4.7175  -15.7641 C   0  0  0  0  0  0  0  0  0  0  0  0
   18.5537   -3.7849  -16.5932 O   0  0  0  0  0  0  0  0  0  0  0  0
   22.3884   -5.7353  -14.1282 C   0  0  0  0  0  0  0  0  0  0  0  0
   22.8512   -4.6186  -13.8160 O   0  0  0  0  0  0  0  0  0  0  0  0
   17.2423   -5.0375  -15.2418 O   0  0  0  0  0  0  0  0  0  0  0  0
   22.2065   -6.6470  -13.0877 O   0  0  0  0  0  0  0  0  0  0  0  0
  2  1  1  6
  3  2  1  0
  4  6  1  0
  4  2  1  0
  4  5  1  1
  6 13  1  0
  7  6  2  0
  9  8  1  6
  9 11  1  0
 10  9  1  0
 12 11  1  6
 13 12  1  0
 14 15  2  0
 14 12  1  0
 16 14  1  0
 17 16  1  0
 17 22  1  0
 17 18  1  1
 19 18  1  0
 20 19  1  0
 20 21  2  0
 22 25  1  0
 23 22  2  0
 24 20  1  0
M  END
$$$$
