TLE.pdb
     RDKit          3D

 25 24  0  0  1  0  0  0  0  0999 V2000
   17.2462  -12.0768  -19.3964 C   0  0  0  0  0  0  0  0  0  0  0  0
   17.5994  -10.9136  -18.4992 C   0  0  1  0  0  0  0  0  0  0  0  0
   16.4593  -10.2197  -18.1288 O   0  0  0  0  0  0  0  0  0  0  0  0
   18.3829  -11.3751  -17.3098 C   0  0  2  0  0  0  0  0  0  0  0  0
   17.5808  -12.2371  -16.4942 N   0  0  0  0  0  0  0  0  0  0  0  0
   18.9169  -10.2025  -16.5985 C   0  0  0  0  0  0  0  0  0  0  0  0
   18.1017   -9.6530  -15.7847 O   0  0  0  0  0  0  0  0  0  0  0  0
   21.8220   -9.1760  -12.9519 C   0  0  0  0  0  0  0  0  0  0  0  0
   22.2650   -9.6381  -14.2932 C   0  0  2  0  0  0  0  0  0  0  0  0
   23.7780   -9.9350  -14.2576 C   0  0  0  0  0  0  0  0  0  0  0  0
   21.9778   -8.7515  -15.4240 C   0  0  0  0  0  0  0  0  0  0  0  0
   20.6168   -8.5149  -15.9114 C   0  0  2  0  0  0  0  0  0  0  0  0
   20.1885   -9.6678  -16.7383 N   0  0  0  0  0  0  0  0  0  0  0  0
   20.3504   -7.2686  -16.6282 C   0  0  0  0  0  0  0  0  0  0  0  0
   20.2320   -7.1704  -17.8893 O   0  0  0  0  0  0  0  0  0  0  0  0
   20.2111   -6.0578  -15.8512 N   0  0  0  0  0  0  0  0  0  0  0  0
   19.7538   -4.8386  -16.5392 C   0  0  1  0  0  0  0  0  0  0  0  0
   18.4743   -5.1256  -17.2552 C   0  0  0  0  0  0  0  0  0  0  0  0
   17.9173   -3.9403  -17.9456 C   0  0  0  0  0  0  0  0  0  0  0  0
   16.6384   -4.1135  -18.6290 C   0  0  0  0  0  0  0  0  0  0  0  0
   15.9196   -5.1285  -18.5074 O   0  0  0  0  0  0  0  0  0  0  0  0
   19.6706   -3.7221  -15.5619 C   0  0  0  0  0  0  0  0  0  0  0  0
   19.1953   -3.8570  -14.4153 O   0  0  0  0  0  0  0  0  0  0  0  0
   16.1933   -3.0959  -19.4608 O   0  0  0  0  0  0  0  0  0  0  0  0
   20.1327   -2.4493  -15.8987 O   0  0  0  0  0  0  0  0  0  0  0  0
  2  1  1  1
  3  2  1  0
  4  6  1  0
  4  2  1  0
  4  5  1  1
  6 13  1  0
  7  6  2  0
  9  8  1  1
  9 11  1  0
 10  9  1  0
 12 11  1  6
 13 12  1  0
 14 15  2  0
 14 12  1  0
 16 14  1  0
 17 16  1  0
 17 22  1  0
 17 18  1  1
 19 18  1  0
 20 19  1  0
 20 21  2  0
 22 25  1  0
 23 22  2  0
 24 20  1  0
M  END
$$$$
