TLE.pdb
     RDKit          3D

 25 24  0  0  1  0  0  0  0  0999 V2000
   21.5525  -11.5556  -21.6728 C   0  0  0  0  0  0  0  0  0  0  0  0
   21.6440  -10.6229  -20.4878 C   0  0  1  0  0  0  0  0  0  0  0  0
   20.4002  -10.0929  -20.1871 O   0  0  0  0  0  0  0  0  0  0  0  0
   22.2555  -11.3149  -19.3093 C   0  0  2  0  0  0  0  0  0  0  0  0
   21.4058  -12.3794  -18.8661 N   0  0  0  0  0  0  0  0  0  0  0  0
   22.5612  -10.3191  -18.2695 C   0  0  0  0  0  0  0  0  0  0  0  0
   21.6267  -10.1257  -17.4222 O   0  0  0  0  0  0  0  0  0  0  0  0
   25.1614  -10.3601  -14.6882 C   0  0  0  0  0  0  0  0  0  0  0  0
   25.7906   -9.8810  -15.9466 C   0  0  2  0  0  0  0  0  0  0  0  0
   27.3066   -9.7039  -15.7249 C   0  0  0  0  0  0  0  0  0  0  0  0
   25.2456   -8.6522  -16.5298 C   0  0  0  0  0  0  0  0  0  0  0  0
   23.8907   -8.5779  -17.0820 C   0  0  2  0  0  0  0  0  0  0  0  0
   23.7407   -9.6014  -18.1433 N   0  0  0  0  0  0  0  0  0  0  0  0
   23.4194   -7.2845  -17.5748 C   0  0  0  0  0  0  0  0  0  0  0  0
   23.3941   -6.9418  -18.7978 O   0  0  0  0  0  0  0  0  0  0  0  0
   22.9473   -6.3222  -16.6049 N   0  0  0  0  0  0  0  0  0  0  0  0
   22.2112   -5.1446  -17.0949 C   0  0  1  0  0  0  0  0  0  0  0  0
   21.0076   -5.5959  -17.8565 C   0  0  0  0  0  0  0  0  0  0  0  0
   20.1368   -4.4767  -18.2819 C   0  0  0  0  0  0  0  0  0  0  0  0
   18.8905   -4.8283  -18.9569 C   0  0  0  0  0  0  0  0  0  0  0  0
   18.5244   -6.0044  -19.1673 O   0  0  0  0  0  0  0  0  0  0  0  0
   21.9098   -4.2410  -15.9543 C   0  0  0  0  0  0  0  0  0  0  0  0
   21.6633   -4.6585  -14.8037 O   0  0  0  0  0  0  0  0  0  0  0  0
   18.0640   -3.8013  -19.3900 O   0  0  0  0  0  0  0  0  0  0  0  0
   21.8910   -2.8572  -16.1318 O   0  0  0  0  0  0  0  0  0  0  0  0
  2  1  1  6
  3  2  1  0
  4  6  1  0
  4  2  1  0
  4  5  1  1
  6 13  1  0
  7  6  2  0
  9  8  1  1
  9 11  1  0
 10  9  1  0
 12 11  1  6
 13 12  1  0
 14 15  2  0
 14 12  1  0
 16 14  1  0
 17 16  1  0
 17 22  1  0
 17 18  1  1
 19 18  1  0
 20 19  1  0
 20 21  2  0
 22 25  1  0
 23 22  2  0
 24 20  1  0
M  END
$$$$
