TLE.pdb
     RDKit          3D

 25 24  0  0  1  0  0  0  0  0999 V2000
   24.6291  -22.5661  -17.3658 C   0  0  0  0  0  0  0  0  0  0  0  0
   24.8812  -24.0000  -16.9621 C   0  0  1  0  0  0  0  0  0  0  0  0
   25.5675  -24.6738  -17.9588 O   0  0  0  0  0  0  0  0  0  0  0  0
   25.5965  -24.0672  -15.6486 C   0  0  2  0  0  0  0  0  0  0  0  0
   26.0966  -25.3909  -15.4257 N   0  0  0  0  0  0  0  0  0  0  0  0
   24.7035  -23.5768  -14.5865 C   0  0  0  0  0  0  0  0  0  0  0  0
   24.6729  -24.3010  -13.5360 O   0  0  0  0  0  0  0  0  0  0  0  0
   25.7194  -21.6458  -10.9780 C   0  0  0  0  0  0  0  0  0  0  0  0
   26.2824  -21.6874  -12.3528 C   0  0  2  0  0  0  0  0  0  0  0  0
   27.6860  -21.0479  -12.3499 C   0  0  0  0  0  0  0  0  0  0  0  0
   25.4789  -21.0730  -13.4130 C   0  0  0  0  0  0  0  0  0  0  0  0
   24.0591  -21.3805  -13.6014 C   0  0  2  0  0  0  0  0  0  0  0  0
   23.9218  -22.4328  -14.6359 N   0  0  0  0  0  0  0  0  0  0  0  0
   23.1502  -20.2747  -13.9000 C   0  0  0  0  0  0  0  0  0  0  0  0
   23.1170  -19.1741  -13.2663 O   0  0  0  0  0  0  0  0  0  0  0  0
   22.2201  -20.4401  -14.9941 N   0  0  0  0  0  0  0  0  0  0  0  0
   21.2646  -19.3526  -15.2651 C   0  0  1  0  0  0  0  0  0  0  0  0
   20.5791  -18.9690  -13.9943 C   0  0  0  0  0  0  0  0  0  0  0  0
   19.2447  -19.5923  -13.8438 C   0  0  0  0  0  0  0  0  0  0  0  0
   18.9126  -20.1347  -12.5292 C   0  0  0  0  0  0  0  0  0  0  0  0
   18.5642  -19.4309  -11.5571 O   0  0  0  0  0  0  0  0  0  0  0  0
   21.9699  -18.2331  -15.9416 C   0  0  0  0  0  0  0  0  0  0  0  0
   23.2073  -18.2101  -16.1057 O   0  0  0  0  0  0  0  0  0  0  0  0
   18.9870  -21.5081  -12.3456 O   0  0  0  0  0  0  0  0  0  0  0  0
   21.2564  -17.1384  -16.4311 O   0  0  0  0  0  0  0  0  0  0  0  0
  2  1  1  6
  3  2  1  0
  4  6  1  0
  4  2  1  0
  4  5  1  1
  6 13  1  0
  7  6  2  0
  9  8  1  1
  9 11  1  0
 10  9  1  0
 12 11  1  6
 13 12  1  0
 14 15  2  0
 14 12  1  0
 16 14  1  0
 17 16  1  0
 17 22  1  0
 17 18  1  1
 19 18  1  0
 20 19  1  0
 20 21  2  0
 22 25  1  0
 23 22  2  0
 24 20  1  0
M  END
$$$$
