TLE.pdb
     RDKit          3D

 25 24  0  0  1  0  0  0  0  0999 V2000
   44.5044   -9.4364   -4.0945 C   0  0  0  0  0  0  0  0  0  0  0  0
   43.4146   -9.3448   -5.1368 C   0  0  1  0  0  0  0  0  0  0  0  0
   43.5889   -8.2209   -5.9273 O   0  0  0  0  0  0  0  0  0  0  0  0
   43.3504  -10.5975   -5.9542 C   0  0  2  0  0  0  0  0  0  0  0  0
   44.6012  -10.8201   -6.6158 N   0  0  0  0  0  0  0  0  0  0  0  0
   42.1959  -10.5222   -6.8639 C   0  0  0  0  0  0  0  0  0  0  0  0
   42.4883  -10.2691   -8.0801 O   0  0  0  0  0  0  0  0  0  0  0  0
   36.2784  -12.1536   -7.3358 C   0  0  0  0  0  0  0  0  0  0  0  0
   37.4125  -11.4023   -7.9343 C   0  0  2  0  0  0  0  0  0  0  0  0
   37.6596  -11.9079   -9.3703 C   0  0  0  0  0  0  0  0  0  0  0  0
   38.6782  -11.4208   -7.1961 C   0  0  0  0  0  0  0  0  0  0  0  0
   39.7935  -10.5302   -7.5258 C   0  0  2  0  0  0  0  0  0  0  0  0
   40.8653  -10.6977   -6.5161 N   0  0  0  0  0  0  0  0  0  0  0  0
   39.5066   -9.1081   -7.7084 C   0  0  0  0  0  0  0  0  0  0  0  0
   39.1590   -8.3150   -6.7789 O   0  0  0  0  0  0  0  0  0  0  0  0
   39.6253   -8.5596   -9.0406 N   0  0  0  0  0  0  0  0  0  0  0  0
   39.3195   -7.1322   -9.2348 C   0  0  1  0  0  0  0  0  0  0  0  0
   40.5609   -6.3279   -9.0246 C   0  0  0  0  0  0  0  0  0  0  0  0
   40.7785   -5.9559   -7.6083 C   0  0  0  0  0  0  0  0  0  0  0  0
   41.9256   -5.0999   -7.3181 C   0  0  0  0  0  0  0  0  0  0  0  0
   42.5413   -4.4478   -8.1883 O   0  0  0  0  0  0  0  0  0  0  0  0
   38.6841   -6.9399  -10.5643 C   0  0  0  0  0  0  0  0  0  0  0  0
   38.5640   -7.8604  -11.3993 O   0  0  0  0  0  0  0  0  0  0  0  0
   42.3587   -5.0028   -6.0034 O   0  0  0  0  0  0  0  0  0  0  0  0
   38.1851   -5.6915  -10.9377 O   0  0  0  0  0  0  0  0  0  0  0  0
  2  1  1  1
  3  2  1  0
  4  6  1  0
  4  2  1  0
  4  5  1  6
  6 13  1  0
  7  6  2  0
  9  8  1  1
  9 11  1  0
 10  9  1  0
 12 11  1  1
 13 12  1  0
 14 15  2  0
 14 12  1  0
 16 14  1  0
 17 16  1  0
 17 22  1  0
 17 18  1  6
 19 18  1  0
 20 19  1  0
 20 21  2  0
 22 25  1  0
 23 22  2  0
 24 20  1  0
M  END
$$$$
