TLE.pdb
     RDKit          3D

 25 24  0  0  1  0  0  0  0  0999 V2000
   19.8204   -9.9637  -19.1006 C   0  0  0  0  0  0  0  0  0  0  0  0
   19.1578  -11.0112  -18.2367 C   0  0  1  0  0  0  0  0  0  0  0  0
   18.1130  -11.6147  -18.9169 O   0  0  0  0  0  0  0  0  0  0  0  0
   20.1584  -12.0124  -17.7490 C   0  0  2  0  0  0  0  0  0  0  0  0
   19.4910  -13.1047  -17.1062 N   0  0  0  0  0  0  0  0  0  0  0  0
   21.1486  -11.3312  -16.8995 C   0  0  0  0  0  0  0  0  0  0  0  0
   20.6825  -10.8533  -15.8118 O   0  0  0  0  0  0  0  0  0  0  0  0
   26.2131   -8.9145  -16.0707 C   0  0  0  0  0  0  0  0  0  0  0  0
   25.8467  -10.2833  -15.6222 C   0  0  2  0  0  0  0  0  0  0  0  0
   27.0838  -11.1997  -15.7144 C   0  0  0  0  0  0  0  0  0  0  0  0
   24.7239  -10.9244  -16.3117 C   0  0  0  0  0  0  0  0  0  0  0  0
   23.3654  -10.3773  -16.2785 C   0  0  2  0  0  0  0  0  0  0  0  0
   22.4976  -11.1736  -17.1781 N   0  0  0  0  0  0  0  0  0  0  0  0
   23.1911   -8.9530  -16.5597 C   0  0  0  0  0  0  0  0  0  0  0  0
   23.1636   -8.4432  -17.7230 O   0  0  0  0  0  0  0  0  0  0  0  0
   23.0388   -8.0554  -15.4369 N   0  0  0  0  0  0  0  0  0  0  0  0
   22.5922   -6.6776  -15.7034 C   0  0  1  0  0  0  0  0  0  0  0  0
   21.2791   -6.7128  -16.4152 C   0  0  0  0  0  0  0  0  0  0  0  0
   20.7328   -5.3649  -16.6921 C   0  0  0  0  0  0  0  0  0  0  0  0
   19.4804   -5.2999  -17.4403 C   0  0  0  0  0  0  0  0  0  0  0  0
   19.0828   -4.2771  -18.0382 O   0  0  0  0  0  0  0  0  0  0  0  0
   22.5781   -5.9086  -14.4319 C   0  0  0  0  0  0  0  0  0  0  0  0
   22.5084   -6.4521  -13.3100 O   0  0  0  0  0  0  0  0  0  0  0  0
   18.6849   -6.4356  -17.4924 O   0  0  0  0  0  0  0  0  0  0  0  0
   22.6442   -4.5149  -14.4455 O   0  0  0  0  0  0  0  0  0  0  0  0
  2  1  1  6
  3  2  1  0
  4  6  1  0
  4  2  1  0
  4  5  1  1
  6 13  1  0
  7  6  2  0
  9  8  1  6
  9 11  1  0
 10  9  1  0
 12 11  1  6
 13 12  1  0
 14 15  2  0
 14 12  1  0
 16 14  1  0
 17 16  1  0
 17 22  1  0
 17 18  1  1
 19 18  1  0
 20 19  1  0
 20 21  2  0
 22 25  1  0
 23 22  2  0
 24 20  1  0
M  END
$$$$
