TLE.pdb
     RDKit          3D

 25 24  0  0  1  0  0  0  0  0999 V2000
   15.3207   -8.5199   -8.4954 C   0  0  0  0  0  0  0  0  0  0  0  0
   14.5797   -7.2051   -8.4274 C   0  0  1  0  0  0  0  0  0  0  0  0
   13.7092   -7.1909   -7.3502 O   0  0  0  0  0  0  0  0  0  0  0  0
   15.5364   -6.0542   -8.3870 C   0  0  2  0  0  0  0  0  0  0  0  0
   14.8292   -4.8323   -8.1453 N   0  0  0  0  0  0  0  0  0  0  0  0
   16.3383   -6.0489   -9.6211 C   0  0  0  0  0  0  0  0  0  0  0  0
   15.8373   -5.3749  -10.5821 O   0  0  0  0  0  0  0  0  0  0  0  0
   22.0583   -6.8269  -11.6800 C   0  0  0  0  0  0  0  0  0  0  0  0
   20.6220   -6.7120  -12.0442 C   0  0  2  0  0  0  0  0  0  0  0  0
   20.4332   -5.5257  -13.0116 C   0  0  0  0  0  0  0  0  0  0  0  0
   19.6696   -6.5835  -10.9380 C   0  0  0  0  0  0  0  0  0  0  0  0
   18.2202   -6.6606  -11.1357 C   0  0  2  0  0  0  0  0  0  0  0  0
   17.5497   -6.6949   -9.8145 N   0  0  0  0  0  0  0  0  0  0  0  0
   17.6980   -7.7332  -11.9811 C   0  0  0  0  0  0  0  0  0  0  0  0
   17.8060   -8.9731  -11.7261 O   0  0  0  0  0  0  0  0  0  0  0  0
   17.0083   -7.3620  -13.1961 N   0  0  0  0  0  0  0  0  0  0  0  0
   16.4722   -8.4372  -14.0478 C   0  0  1  0  0  0  0  0  0  0  0  0
   14.9998   -8.2473  -14.2152 C   0  0  0  0  0  0  0  0  0  0  0  0
   14.6440   -7.5483  -15.4709 C   0  0  0  0  0  0  0  0  0  0  0  0
   13.3276   -7.8324  -16.0357 C   0  0  0  0  0  0  0  0  0  0  0  0
   12.8830   -7.2840  -17.0668 O   0  0  0  0  0  0  0  0  0  0  0  0
   17.2322   -8.4813  -15.3240 C   0  0  0  0  0  0  0  0  0  0  0  0
   17.3603   -9.5213  -16.0028 O   0  0  0  0  0  0  0  0  0  0  0  0
   12.5228   -8.7630  -15.3941 O   0  0  0  0  0  0  0  0  0  0  0  0
   17.8462   -7.3322  -15.8235 O   0  0  0  0  0  0  0  0  0  0  0  0
  2  1  1  1
  3  2  1  0
  4  6  1  0
  4  2  1  0
  4  5  1  6
  6 13  1  0
  7  6  2  0
  9  8  1  1
  9 11  1  0
 10  9  1  0
 12 11  1  1
 13 12  1  0
 14 15  2  0
 14 12  1  0
 16 14  1  0
 17 16  1  0
 17 22  1  0
 17 18  1  6
 19 18  1  0
 20 19  1  0
 20 21  2  0
 22 25  1  0
 23 22  2  0
 24 20  1  0
M  END
$$$$
