TVG.pdb
     RDKit          3D

 19 18  0  0  1  0  0  0  0  0999 V2000
   22.9510  -10.4501  -18.0263 C   0  0  0  0  0  0  0  0  0  0  0  0
   21.7291  -11.2756  -18.4238 C   0  0  1  0  0  0  0  0  0  0  0  0
   22.1730  -12.5843  -18.6676 O   0  0  0  0  0  0  0  0  0  0  0  0
   20.8354  -11.3126  -17.1805 C   0  0  2  0  0  0  0  0  0  0  0  0
   19.8192  -12.2920  -17.4222 N   0  0  0  0  0  0  0  0  0  0  0  0
   20.3024   -9.9866  -16.8688 C   0  0  0  0  0  0  0  0  0  0  0  0
   19.6327   -9.3704  -17.7287 O   0  0  0  0  0  0  0  0  0  0  0  0
   19.1749   -8.7935  -13.0802 C   0  0  0  0  0  0  0  0  0  0  0  0
   18.7619   -8.2462  -14.4231 C   0  0  2  0  0  0  0  0  0  0  0  0
   17.7711   -9.1786  -15.0455 C   0  0  0  0  0  0  0  0  0  0  0  0
   20.0002   -8.0517  -15.2778 C   0  0  2  0  0  0  0  0  0  0  0  0
   20.5167   -9.3618  -15.6140 N   0  0  0  0  0  0  0  0  0  0  0  0
   21.0051   -7.1987  -14.6274 C   0  0  0  0  0  0  0  0  0  0  0  0
   21.7006   -7.6546  -13.6871 O   0  0  0  0  0  0  0  0  0  0  0  0
   21.2133   -5.8604  -15.0369 N   0  0  0  0  0  0  0  0  0  0  0  0
   22.2782   -5.0690  -14.4158 C   0  0  0  0  0  0  0  0  0  0  0  0
   21.6985   -4.1357  -13.4223 C   0  0  0  0  0  0  0  0  0  0  0  0
   20.4869   -4.2756  -13.1153 O   0  0  0  0  0  0  0  0  0  0  0  0
   22.4415   -3.1380  -12.8386 O   0  0  0  0  0  0  0  0  0  0  0  0
  2  1  1  1
  2  3  1  0
  4  5  1  6
  4  2  1  0
  6  4  1  0
  7  6  2  0
  9  8  1  1
  9 11  1  0
 10  9  1  0
 11 12  1  1
 11 13  1  0
 12  6  1  0
 13 15  1  0
 14 13  2  0
 15 16  1  0
 16 17  1  0
 17 19  1  0
 18 17  2  0
M  END
$$$$
