TVG.pdb
     RDKit          3D

 19 18  0  0  1  0  0  0  0  0999 V2000
   26.6328  -10.0200  -15.1655 C   0  0  0  0  0  0  0  0  0  0  0  0
   26.6191  -10.8075  -16.4739 C   0  0  1  0  0  0  0  0  0  0  0  0
   27.5426  -11.8553  -16.3382 O   0  0  0  0  0  0  0  0  0  0  0  0
   25.2222  -11.4289  -16.5657 C   0  0  2  0  0  0  0  0  0  0  0  0
   25.2477  -12.3624  -17.6511 N   0  0  0  0  0  0  0  0  0  0  0  0
   24.1911  -10.4012  -16.7068 C   0  0  0  0  0  0  0  0  0  0  0  0
   24.0627   -9.7981  -17.7965 O   0  0  0  0  0  0  0  0  0  0  0  0
   20.7318  -10.6719  -16.6204 C   0  0  0  0  0  0  0  0  0  0  0  0
   20.9593   -9.6480  -15.5372 C   0  0  2  0  0  0  0  0  0  0  0  0
   19.8443   -8.6508  -15.5673 C   0  0  0  0  0  0  0  0  0  0  0  0
   22.3209   -9.0103  -15.7402 C   0  0  2  0  0  0  0  0  0  0  0  0
   23.3183  -10.0553  -15.6440 N   0  0  0  0  0  0  0  0  0  0  0  0
   22.5700   -7.9044  -14.8045 C   0  0  0  0  0  0  0  0  0  0  0  0
   22.6563   -8.1325  -13.5731 O   0  0  0  0  0  0  0  0  0  0  0  0
   22.7171   -6.5724  -15.2587 N   0  0  0  0  0  0  0  0  0  0  0  0
   22.9573   -5.4986  -14.2917 C   0  0  0  0  0  0  0  0  0  0  0  0
   21.8581   -4.5078  -14.3553 C   0  0  0  0  0  0  0  0  0  0  0  0
   20.9220   -4.7137  -15.1697 O   0  0  0  0  0  0  0  0  0  0  0  0
   21.8382   -3.3884  -13.5587 O   0  0  0  0  0  0  0  0  0  0  0  0
  2  1  1  1
  2  3  1  0
  4  5  1  6
  4  2  1  0
  6  4  1  0
  7  6  2  0
  9  8  1  6
  9 11  1  0
 10  9  1  0
 11 12  1  1
 11 13  1  0
 12  6  1  0
 13 15  1  0
 14 13  2  0
 15 16  1  0
 16 17  1  0
 17 19  1  0
 18 17  2  0
M  END
$$$$
