TVG.pdb
     RDKit          3D

 19 18  0  0  1  0  0  0  0  0999 V2000
   16.7141  -14.9553    6.6322 C   0  0  0  0  0  0  0  0  0  0  0  0
   16.8577  -13.9774    5.4680 C   0  0  1  0  0  0  0  0  0  0  0  0
   15.5865  -13.4379    5.2189 O   0  0  0  0  0  0  0  0  0  0  0  0
   17.7484  -12.8454    5.9888 C   0  0  2  0  0  0  0  0  0  0  0  0
   17.7342  -11.8102    4.9996 N   0  0  0  0  0  0  0  0  0  0  0  0
   19.0922  -13.3287    6.3053 C   0  0  0  0  0  0  0  0  0  0  0  0
   19.9056  -13.5483    5.3792 O   0  0  0  0  0  0  0  0  0  0  0  0
   21.0284  -12.4594    9.7697 C   0  0  0  0  0  0  0  0  0  0  0  0
   21.6746  -13.0157    8.5262 C   0  0  2  0  0  0  0  0  0  0  0  0
   21.8795  -11.9050    7.5450 C   0  0  0  0  0  0  0  0  0  0  0  0
   20.8050  -14.1304    7.9757 C   0  0  2  0  0  0  0  0  0  0  0  0
   19.5170  -13.5619    7.6380 N   0  0  0  0  0  0  0  0  0  0  0  0
   20.6950  -15.2677    8.9003 C   0  0  0  0  0  0  0  0  0  0  0  0
   19.9616  -15.1818    9.9154 O   0  0  0  0  0  0  0  0  0  0  0  0
   21.4020  -16.4726    8.6753 N   0  0  0  0  0  0  0  0  0  0  0  0
   21.2674  -17.5807    9.6240 C   0  0  0  0  0  0  0  0  0  0  0  0
   22.5804  -17.8771   10.2424 C   0  0  0  0  0  0  0  0  0  0  0  0
   23.5670  -17.1753    9.9017 O   0  0  0  0  0  0  0  0  0  0  0  0
   22.7421  -18.8837   11.1636 O   0  0  0  0  0  0  0  0  0  0  0  0
  2  1  1  1
  2  3  1  0
  4  5  1  6
  4  2  1  0
  6  4  1  0
  7  6  2  0
  9  8  1  1
  9 11  1  0
 10  9  1  0
 11 12  1  1
 11 13  1  0
 12  6  1  0
 13 15  1  0
 14 13  2  0
 15 16  1  0
 16 17  1  0
 17 19  1  0
 18 17  2  0
M  END
$$$$
