TVG.pdb
     RDKit          3D

 19 18  0  0  1  0  0  0  0  0999 V2000
   21.4748   -9.0006  -19.9300 C   0  0  0  0  0  0  0  0  0  0  0  0
   20.6737  -10.2956  -20.0473 C   0  0  1  0  0  0  0  0  0  0  0  0
   21.0006  -10.8762  -21.2823 O   0  0  0  0  0  0  0  0  0  0  0  0
   21.2119  -11.2137  -18.9458 C   0  0  2  0  0  0  0  0  0  0  0  0
   20.6172  -12.5011  -19.1437 N   0  0  0  0  0  0  0  0  0  0  0  0
   20.9603  -10.6550  -17.6176 C   0  0  0  0  0  0  0  0  0  0  0  0
   19.7825  -10.5235  -17.2139 O   0  0  0  0  0  0  0  0  0  0  0  0
   23.8186  -10.7182  -14.5976 C   0  0  0  0  0  0  0  0  0  0  0  0
   22.3320  -10.5598  -14.4018 C   0  0  2  0  0  0  0  0  0  0  0  0
   21.6894  -11.9104  -14.4364 C   0  0  0  0  0  0  0  0  0  0  0  0
   21.7913   -9.6265  -15.4687 C   0  0  2  0  0  0  0  0  0  0  0  0
   22.0117  -10.2505  -16.7563 N   0  0  0  0  0  0  0  0  0  0  0  0
   22.3745   -8.2797  -15.3869 C   0  0  0  0  0  0  0  0  0  0  0  0
   23.4813   -8.0418  -15.9293 O   0  0  0  0  0  0  0  0  0  0  0  0
   21.7147   -7.2300  -14.7051 N   0  0  0  0  0  0  0  0  0  0  0  0
   22.3572   -5.9179  -14.5979 C   0  0  0  0  0  0  0  0  0  0  0  0
   21.4322   -4.9546  -13.9571 C   0  0  0  0  0  0  0  0  0  0  0  0
   20.2581   -5.3340  -13.7134 O   0  0  0  0  0  0  0  0  0  0  0  0
   21.8210   -3.6783  -13.6287 O   0  0  0  0  0  0  0  0  0  0  0  0
  2  1  1  6
  2  3  1  0
  4  5  1  1
  4  2  1  0
  6  4  1  0
  7  6  2  0
  9  8  1  6
  9 11  1  0
 10  9  1  0
 11 12  1  6
 11 13  1  0
 12  6  1  0
 13 15  1  0
 14 13  2  0
 15 16  1  0
 16 17  1  0
 17 19  1  0
 18 17  2  0
M  END
$$$$
