TVG.pdb
     RDKit          3D

 19 18  0  0  1  0  0  0  0  0999 V2000
   17.5393   -8.9275  -17.9158 C   0  0  0  0  0  0  0  0  0  0  0  0
   16.8692  -10.1793  -17.3535 C   0  0  1  0  0  0  0  0  0  0  0  0
   16.1478  -10.7712  -18.4015 O   0  0  0  0  0  0  0  0  0  0  0  0
   18.0135  -11.1280  -16.9839 C   0  0  2  0  0  0  0  0  0  0  0  0
   17.4215  -12.3820  -16.6275 N   0  0  0  0  0  0  0  0  0  0  0  0
   18.8546  -10.5616  -15.9298 C   0  0  0  0  0  0  0  0  0  0  0  0
   18.4281  -10.5179  -14.7534 O   0  0  0  0  0  0  0  0  0  0  0  0
   22.2580  -11.5659  -15.1096 C   0  0  0  0  0  0  0  0  0  0  0  0
   22.3731  -10.0734  -15.2900 C   0  0  2  0  0  0  0  0  0  0  0  0
   23.3348   -9.5331  -14.2792 C   0  0  0  0  0  0  0  0  0  0  0  0
   20.9924   -9.4551  -15.1736 C   0  0  2  0  0  0  0  0  0  0  0  0
   20.1523  -10.0526  -16.1901 N   0  0  0  0  0  0  0  0  0  0  0  0
   21.0235   -7.9880  -15.2577 C   0  0  0  0  0  0  0  0  0  0  0  0
   21.3745   -7.4285  -16.3252 O   0  0  0  0  0  0  0  0  0  0  0  0
   20.6640   -7.1779  -14.1547 N   0  0  0  0  0  0  0  0  0  0  0  0
   20.7610   -5.7203  -14.2630 C   0  0  0  0  0  0  0  0  0  0  0  0
   22.1515   -5.2862  -13.9939 C   0  0  0  0  0  0  0  0  0  0  0  0
   22.9797   -6.1540  -13.6159 O   0  0  0  0  0  0  0  0  0  0  0  0
   22.5500   -3.9800  -14.1452 O   0  0  0  0  0  0  0  0  0  0  0  0
  2  1  1  6
  2  3  1  0
  4  5  1  1
  4  2  1  0
  6  4  1  0
  7  6  2  0
  9  8  1  1
  9 11  1  0
 10  9  1  0
 11 12  1  6
 11 13  1  0
 12  6  1  0
 13 15  1  0
 14 13  2  0
 15 16  1  0
 16 17  1  0
 17 19  1  0
 18 17  2  0
M  END
$$$$
