TVG.pdb
     RDKit          3D

 19 18  0  0  1  0  0  0  0  0999 V2000
   24.5663  -11.3809  -15.0504 C   0  0  0  0  0  0  0  0  0  0  0  0
   24.2927  -12.2791  -16.2549 C   0  0  1  0  0  0  0  0  0  0  0  0
   24.5918  -13.5947  -15.8690 O   0  0  0  0  0  0  0  0  0  0  0  0
   22.7821  -12.1975  -16.4944 C   0  0  2  0  0  0  0  0  0  0  0  0
   22.4615  -13.1725  -17.4927 N   0  0  0  0  0  0  0  0  0  0  0  0
   22.3732  -10.8402  -16.8548 C   0  0  0  0  0  0  0  0  0  0  0  0
   22.6873  -10.3752  -17.9741 O   0  0  0  0  0  0  0  0  0  0  0  0
   19.0603   -8.9615  -15.1914 C   0  0  0  0  0  0  0  0  0  0  0  0
   19.7408   -8.6312  -16.4958 C   0  0  2  0  0  0  0  0  0  0  0  0
   19.2863   -9.5999  -17.5415 C   0  0  0  0  0  0  0  0  0  0  0  0
   21.2435   -8.6565  -16.2877 C   0  0  2  0  0  0  0  0  0  0  0  0
   21.6246  -10.0178  -15.9750 N   0  0  0  0  0  0  0  0  0  0  0  0
   21.6867   -7.6973  -15.2659 C   0  0  0  0  0  0  0  0  0  0  0  0
   21.6749   -8.0227  -14.0535 O   0  0  0  0  0  0  0  0  0  0  0  0
   22.1321   -6.4005  -15.6150 N   0  0  0  0  0  0  0  0  0  0  0  0
   22.5880   -5.4835  -14.5675 C   0  0  0  0  0  0  0  0  0  0  0  0
   21.4689   -4.6141  -14.1366 C   0  0  0  0  0  0  0  0  0  0  0  0
   20.3347   -4.8155  -14.6415 O   0  0  0  0  0  0  0  0  0  0  0  0
   21.6387   -3.6102  -13.2139 O   0  0  0  0  0  0  0  0  0  0  0  0
  2  1  1  1
  2  3  1  0
  4  5  1  6
  4  2  1  0
  6  4  1  0
  7  6  2  0
  9  8  1  1
  9 11  1  0
 10  9  1  0
 11 12  1  1
 11 13  1  0
 12  6  1  0
 13 15  1  0
 14 13  2  0
 15 16  1  0
 16 17  1  0
 17 19  1  0
 18 17  2  0
M  END
$$$$
