TVG.pdb
     RDKit          3D

 19 18  0  0  1  0  0  0  0  0999 V2000
   16.4276   -9.0683  -14.6483 C   0  0  0  0  0  0  0  0  0  0  0  0
   16.4004  -10.5938  -14.7161 C   0  0  1  0  0  0  0  0  0  0  0  0
   15.1838  -10.9619  -15.3108 O   0  0  0  0  0  0  0  0  0  0  0  0
   17.5249  -10.9830  -15.6804 C   0  0  2  0  0  0  0  0  0  0  0  0
   17.4405  -12.3990  -15.8751 N   0  0  0  0  0  0  0  0  0  0  0  0
   18.8279  -10.5411  -15.1841 C   0  0  0  0  0  0  0  0  0  0  0  0
   19.3813  -11.1685  -14.2525 O   0  0  0  0  0  0  0  0  0  0  0  0
   21.2984   -8.0967  -17.4970 C   0  0  0  0  0  0  0  0  0  0  0  0
   21.7640   -9.0222  -16.4016 C   0  0  2  0  0  0  0  0  0  0  0  0
   21.8997  -10.4049  -16.9568 C   0  0  0  0  0  0  0  0  0  0  0  0
   20.7844   -8.9490  -15.2453 C   0  0  2  0  0  0  0  0  0  0  0  0
   19.4995   -9.4144  -15.7231 N   0  0  0  0  0  0  0  0  0  0  0  0
   20.7133   -7.6062  -14.6517 C   0  0  0  0  0  0  0  0  0  0  0  0
   19.9266   -6.7514  -15.1273 O   0  0  0  0  0  0  0  0  0  0  0  0
   21.5172   -7.2453  -13.5447 N   0  0  0  0  0  0  0  0  0  0  0  0
   21.4255   -5.8917  -12.9922 C   0  0  0  0  0  0  0  0  0  0  0  0
   22.2442   -4.9601  -13.8021 C   0  0  0  0  0  0  0  0  0  0  0  0
   22.3621   -3.7739  -13.4010 O   0  0  0  0  0  0  0  0  0  0  0  0
   22.8668   -5.3555  -14.9614 O   0  0  0  0  0  0  0  0  0  0  0  0
  2  1  1  6
  2  3  1  0
  4  5  1  1
  4  2  1  0
  6  4  1  0
  7  6  2  0
  9  8  1  6
  9 11  1  0
 10  9  1  0
 11 12  1  6
 11 13  1  0
 12  6  1  0
 13 15  1  0
 14 13  2  0
 15 16  1  0
 16 17  1  0
 17 19  1  0
 18 17  2  0
M  END
$$$$
