TVG.pdb
     RDKit          3D

 19 18  0  0  1  0  0  0  0  0999 V2000
   16.6976   -8.2742  -16.7411 C   0  0  0  0  0  0  0  0  0  0  0  0
   16.2806   -9.7235  -16.5002 C   0  0  1  0  0  0  0  0  0  0  0  0
   15.5570  -10.1409  -17.6277 O   0  0  0  0  0  0  0  0  0  0  0  0
   17.5846  -10.5260  -16.4624 C   0  0  2  0  0  0  0  0  0  0  0  0
   17.2254  -11.9058  -16.3309 N   0  0  0  0  0  0  0  0  0  0  0  0
   18.4703  -10.0519  -15.3992 C   0  0  0  0  0  0  0  0  0  0  0  0
   18.1766  -10.2752  -14.2027 O   0  0  0  0  0  0  0  0  0  0  0  0
   22.4666   -9.1239  -16.1605 C   0  0  0  0  0  0  0  0  0  0  0  0
   21.8979   -9.5160  -14.8202 C   0  0  2  0  0  0  0  0  0  0  0  0
   21.8122  -11.0077  -14.7448 C   0  0  0  0  0  0  0  0  0  0  0  0
   20.5505   -8.8421  -14.6406 C   0  0  2  0  0  0  0  0  0  0  0  0
   19.6654   -9.3394  -15.6728 N   0  0  0  0  0  0  0  0  0  0  0  0
   20.6498   -7.3756  -14.6406 C   0  0  0  0  0  0  0  0  0  0  0  0
   20.6631   -6.7482  -15.7278 O   0  0  0  0  0  0  0  0  0  0  0  0
   20.7320   -6.6416  -13.4337 N   0  0  0  0  0  0  0  0  0  0  0  0
   20.7690   -5.1778  -13.4760 C   0  0  0  0  0  0  0  0  0  0  0  0
   22.1513   -4.7160  -13.7409 C   0  0  0  0  0  0  0  0  0  0  0  0
   22.3677   -3.4772  -13.7616 O   0  0  0  0  0  0  0  0  0  0  0  0
   23.1843   -5.5949  -13.9607 O   0  0  0  0  0  0  0  0  0  0  0  0
  2  1  1  6
  2  3  1  0
  4  5  1  1
  4  2  1  0
  6  4  1  0
  7  6  2  0
  9  8  1  6
  9 11  1  0
 10  9  1  0
 11 12  1  6
 11 13  1  0
 12  6  1  0
 13 15  1  0
 14 13  2  0
 15 16  1  0
 16 17  1  0
 17 19  1  0
 18 17  2  0
M  END
$$$$
