TVG.pdb
     RDKit          3D

 19 18  0  0  1  0  0  0  0  0999 V2000
   16.3030   -8.1962  -15.4847 C   0  0  0  0  0  0  0  0  0  0  0  0
   16.0592   -9.6545  -15.1021 C   0  0  1  0  0  0  0  0  0  0  0  0
   14.8674  -10.0543  -15.7257 O   0  0  0  0  0  0  0  0  0  0  0  0
   17.2052  -10.4447  -15.7409 C   0  0  2  0  0  0  0  0  0  0  0  0
   16.9239  -11.8336  -15.5355 N   0  0  0  0  0  0  0  0  0  0  0  0
   18.5013  -10.0286  -15.2058 C   0  0  0  0  0  0  0  0  0  0  0  0
   18.8316  -10.3698  -14.0473 O   0  0  0  0  0  0  0  0  0  0  0  0
   21.8454  -10.5142  -16.6122 C   0  0  0  0  0  0  0  0  0  0  0  0
   21.7540   -9.0222  -16.4145 C   0  0  2  0  0  0  0  0  0  0  0  0
   23.0872   -8.5066  -15.9729 C   0  0  0  0  0  0  0  0  0  0  0  0
   20.6509   -8.7243  -15.4163 C   0  0  2  0  0  0  0  0  0  0  0  0
   19.4121   -9.2431  -15.9570 N   0  0  0  0  0  0  0  0  0  0  0  0
   20.5659   -7.2957  -15.0808 C   0  0  0  0  0  0  0  0  0  0  0  0
   20.1575   -6.4738  -15.9372 O   0  0  0  0  0  0  0  0  0  0  0  0
   20.9363   -6.8147  -13.8027 N   0  0  0  0  0  0  0  0  0  0  0  0
   20.8444   -5.3818  -13.5122 C   0  0  0  0  0  0  0  0  0  0  0  0
   21.9503   -4.6595  -14.1826 C   0  0  0  0  0  0  0  0  0  0  0  0
   22.8638   -5.3397  -14.7161 O   0  0  0  0  0  0  0  0  0  0  0  0
   21.9999   -3.2873  -14.2339 O   0  0  0  0  0  0  0  0  0  0  0  0
  2  1  1  6
  2  3  1  0
  4  5  1  1
  4  2  1  0
  6  4  1  0
  7  6  2  0
  9  8  1  1
  9 11  1  0
 10  9  1  0
 11 12  1  6
 11 13  1  0
 12  6  1  0
 13 15  1  0
 14 13  2  0
 15 16  1  0
 16 17  1  0
 17 19  1  0
 18 17  2  0
M  END
$$$$
