TVG.pdb
     RDKit          3D

 19 18  0  0  1  0  0  0  0  0999 V2000
   27.7497   -8.0724  -17.9016 C   0  0  0  0  0  0  0  0  0  0  0  0
   27.6782   -9.0338  -19.0861 C   0  0  1  0  0  0  0  0  0  0  0  0
   28.9947   -9.2683  -19.5113 O   0  0  0  0  0  0  0  0  0  0  0  0
   27.1330  -10.3473  -18.5176 C   0  0  2  0  0  0  0  0  0  0  0  0
   27.2194  -11.3247  -19.5605 N   0  0  0  0  0  0  0  0  0  0  0  0
   25.7791  -10.1776  -17.9907 C   0  0  0  0  0  0  0  0  0  0  0  0
   24.8100  -10.1159  -18.7810 O   0  0  0  0  0  0  0  0  0  0  0  0
   23.8766  -12.2437  -15.8932 C   0  0  0  0  0  0  0  0  0  0  0  0
   23.8440  -10.9490  -15.1211 C   0  0  2  0  0  0  0  0  0  0  0  0
   22.4920  -10.7850  -14.5017 C   0  0  0  0  0  0  0  0  0  0  0  0
   24.2021   -9.8089  -16.0559 C   0  0  2  0  0  0  0  0  0  0  0  0
   25.5160  -10.0787  -16.6008 N   0  0  0  0  0  0  0  0  0  0  0  0
   24.1220   -8.4962  -15.3994 C   0  0  0  0  0  0  0  0  0  0  0  0
   25.0125   -8.1461  -14.5869 O   0  0  0  0  0  0  0  0  0  0  0  0
   23.0551   -7.6042  -15.6610 N   0  0  0  0  0  0  0  0  0  0  0  0
   22.9619   -6.3464  -14.9161 C   0  0  0  0  0  0  0  0  0  0  0  0
   21.5995   -5.7808  -15.0503 C   0  0  0  0  0  0  0  0  0  0  0  0
   20.8039   -6.3370  -15.8500 O   0  0  0  0  0  0  0  0  0  0  0  0
   21.1923   -4.6815  -14.3335 O   0  0  0  0  0  0  0  0  0  0  0  0
  2  1  1  1
  2  3  1  0
  4  5  1  6
  4  2  1  0
  6  4  1  0
  7  6  2  0
  9  8  1  6
  9 11  1  0
 10  9  1  0
 11 12  1  1
 11 13  1  0
 12  6  1  0
 13 15  1  0
 14 13  2  0
 15 16  1  0
 16 17  1  0
 17 19  1  0
 18 17  2  0
M  END
$$$$
