TVG.pdb
     RDKit          3D

 19 18  0  0  1  0  0  0  0  0999 V2000
   22.7207   -8.2056  -20.3690 C   0  0  0  0  0  0  0  0  0  0  0  0
   21.8047   -9.3234  -20.8628 C   0  0  1  0  0  0  0  0  0  0  0  0
   22.2808   -9.7264  -22.1197 O   0  0  0  0  0  0  0  0  0  0  0  0
   22.0161  -10.4882  -19.8910 C   0  0  2  0  0  0  0  0  0  0  0  0
   21.3001  -11.6106  -20.4179 N   0  0  0  0  0  0  0  0  0  0  0  0
   21.6128  -10.1272  -18.5321 C   0  0  0  0  0  0  0  0  0  0  0  0
   20.4011   -9.9489  -18.2724 O   0  0  0  0  0  0  0  0  0  0  0  0
   22.3397  -11.9277  -15.5153 C   0  0  0  0  0  0  0  0  0  0  0  0
   22.8054  -10.5364  -15.1676 C   0  0  2  0  0  0  0  0  0  0  0  0
   22.4439  -10.2427  -13.7458 C   0  0  0  0  0  0  0  0  0  0  0  0
   22.1889   -9.5522  -16.1439 C   0  0  2  0  0  0  0  0  0  0  0  0
   22.5524   -9.9687  -17.4819 N   0  0  0  0  0  0  0  0  0  0  0  0
   22.5744   -8.1622  -15.8611 C   0  0  0  0  0  0  0  0  0  0  0  0
   23.7881   -7.8446  -15.8177 O   0  0  0  0  0  0  0  0  0  0  0  0
   21.6030   -7.1588  -15.6336 N   0  0  0  0  0  0  0  0  0  0  0  0
   22.0302   -5.7865  -15.3504 C   0  0  0  0  0  0  0  0  0  0  0  0
   21.9699   -5.5305  -13.8927 C   0  0  0  0  0  0  0  0  0  0  0  0
   21.5768   -6.4615  -13.1440 O   0  0  0  0  0  0  0  0  0  0  0  0
   22.3272   -4.3200  -13.3493 O   0  0  0  0  0  0  0  0  0  0  0  0
  2  1  1  1
  2  3  1  0
  4  5  1  6
  4  2  1  0
  6  4  1  0
  7  6  2  0
  9  8  1  6
  9 11  1  0
 10  9  1  0
 11 12  1  6
 11 13  1  0
 12  6  1  0
 13 15  1  0
 14 13  2  0
 15 16  1  0
 16 17  1  0
 17 19  1  0
 18 17  2  0
M  END
$$$$
