KLR.pdb
     RDKit          3D

 29 28  0  0  1  0  0  0  0  0999 V2000
    7.6094  -15.8024   20.5622 N   0  0  0  0  0  0  0  0  0  0  0  0
    8.5795  -14.7499   20.6468 C   0  0  1  0  0  0  0  0  0  0  0  0
    8.2709  -13.6313   19.6415 C   0  0  0  0  0  0  0  0  0  0  0  0
    8.1414  -14.2185   18.2698 C   0  0  0  0  0  0  0  0  0  0  0  0
    8.1324  -13.2435   17.1502 C   0  0  0  0  0  0  0  0  0  0  0  0
    7.8786  -13.7982   15.7883 C   0  0  0  0  0  0  0  0  0  0  0  0
    7.8122  -12.8381   14.7325 N   0  0  0  0  0  0  0  0  0  0  0  0
    8.6498  -14.1719   21.9958 C   0  0  0  0  0  0  0  0  0  0  0  0
    9.2289  -13.0732   22.1921 O   0  0  0  0  0  0  0  0  0  0  0  0
    5.2753  -12.6180   26.4687 C   0  0  0  0  0  0  0  0  0  0  0  0
    6.7506  -12.9943   26.2350 C   0  0  2  0  0  0  0  0  0  0  0  0
    7.5448  -11.7307   26.3557 C   0  0  0  0  0  0  0  0  0  0  0  0
    6.7886  -13.6425   24.8878 C   0  0  0  0  0  0  0  0  0  0  0  0
    8.0905  -14.2058   24.4595 C   0  0  2  0  0  0  0  0  0  0  0  0
    8.0759  -14.8099   23.1451 N   0  0  0  0  0  0  0  0  0  0  0  0
    8.6048  -15.1688   25.4801 C   0  0  0  0  0  0  0  0  0  0  0  0
    8.8819  -14.7854   26.6354 O   0  0  0  0  0  0  0  0  0  0  0  0
   13.9477  -14.4533   21.7731 N   0  0  0  0  0  0  0  0  0  0  0  0
   14.5508  -15.7310   21.5083 C   0  0  0  0  0  0  0  0  0  0  0  0
   15.7584  -15.7744   21.0780 N   0  0  0  0  0  0  0  0  0  0  0  0
   13.8480  -16.9356   21.7082 N   0  0  0  0  0  0  0  0  0  0  0  0
   12.4386  -17.0270   21.9018 C   0  0  0  0  0  0  0  0  0  0  0  0
   11.9868  -16.8353   23.3160 C   0  0  0  0  0  0  0  0  0  0  0  0
   10.4942  -16.5257   23.3968 C   0  0  0  0  0  0  0  0  0  0  0  0
    9.9946  -17.1100   24.6879 C   0  0  2  0  0  0  0  0  0  0  0  0
    8.7893  -16.5257   25.1690 N   0  0  0  0  0  0  0  0  0  0  0  0
   11.0366  -16.9791   25.7311 C   0  0  0  0  0  0  0  0  0  0  0  0
   11.2199  -17.9952   26.6526 O   0  0  0  0  0  0  0  0  0  0  0  0
   11.7895  -15.9712   25.8360 O   0  0  0  0  0  0  0  0  0  0  0  0
  2  8  1  0
  2  1  1  1
  3  2  1  0
  4  5  1  0
  4  3  1  0
  5  6  1  0
  7  6  1  0
  8  9  2  0
 11 13  1  0
 11 10  1  6
 12 11  1  0
 14 13  1  1
 15 14  1  0
 15  8  1  0
 16 14  1  0
 16 17  2  0
 19 18  1  0
 20 19  2  0
 21 19  1  0
 22 21  1  0
 23 22  1  0
 23 24  1  0
 25 24  1  6
 25 26  1  0
 25 27  1  0
 26 16  1  0
 27 28  1  0
 29 27  2  0
M  END
$$$$
