KLR.pdb
     RDKit          3D

 29 28  0  0  1  0  0  0  0  0999 V2000
    8.6362  -15.9878   19.8512 N   0  0  0  0  0  0  0  0  0  0  0  0
    8.1274  -16.4369   21.1142 C   0  0  1  0  0  0  0  0  0  0  0  0
    8.6287  -17.8507   21.4412 C   0  0  0  0  0  0  0  0  0  0  0  0
    8.0678  -18.8189   20.4456 C   0  0  0  0  0  0  0  0  0  0  0  0
    8.4954  -20.2312   20.6095 C   0  0  0  0  0  0  0  0  0  0  0  0
    7.9957  -21.1991   19.5894 C   0  0  0  0  0  0  0  0  0  0  0  0
    8.3578  -22.5644   19.8035 N   0  0  0  0  0  0  0  0  0  0  0  0
    8.5003  -15.5338   22.2115 C   0  0  0  0  0  0  0  0  0  0  0  0
    9.5875  -14.9028   22.1801 O   0  0  0  0  0  0  0  0  0  0  0  0
    8.5848  -12.8936   26.4706 C   0  0  0  0  0  0  0  0  0  0  0  0
    7.0675  -12.8476   26.2094 C   0  0  2  0  0  0  0  0  0  0  0  0
    6.3935  -13.0797   27.5262 C   0  0  0  0  0  0  0  0  0  0  0  0
    6.8096  -13.8920   25.1706 C   0  0  0  0  0  0  0  0  0  0  0  0
    7.9774  -14.3390   24.3755 C   0  0  2  0  0  0  0  0  0  0  0  0
    7.6671  -15.3208   23.3595 N   0  0  0  0  0  0  0  0  0  0  0  0
    9.0645  -14.8319   25.2749 C   0  0  0  0  0  0  0  0  0  0  0  0
    9.4635  -14.1372   26.2323 O   0  0  0  0  0  0  0  0  0  0  0  0
    9.9270  -17.9193   30.7015 N   0  0  0  0  0  0  0  0  0  0  0  0
   10.9498  -18.9248   30.6049 C   0  0  0  0  0  0  0  0  0  0  0  0
   11.9079  -18.9250   31.4577 N   0  0  0  0  0  0  0  0  0  0  0  0
   10.9262  -19.9083   29.5964 N   0  0  0  0  0  0  0  0  0  0  0  0
   10.5241  -19.6753   28.2488 C   0  0  0  0  0  0  0  0  0  0  0  0
   10.7252  -18.2716   27.7688 C   0  0  0  0  0  0  0  0  0  0  0  0
   10.3114  -18.1075   26.3087 C   0  0  0  0  0  0  0  0  0  0  0  0
   10.6307  -16.6918   25.9192 C   0  0  2  0  0  0  0  0  0  0  0  0
    9.6642  -16.0848   25.0689 N   0  0  0  0  0  0  0  0  0  0  0  0
   11.9503  -16.6438   25.2503 C   0  0  0  0  0  0  0  0  0  0  0  0
   12.0269  -16.7313   23.8713 O   0  0  0  0  0  0  0  0  0  0  0  0
   13.0404  -16.5246   25.8758 O   0  0  0  0  0  0  0  0  0  0  0  0
  2  8  1  0
  2  1  1  6
  3  2  1  0
  4  5  1  0
  4  3  1  0
  5  6  1  0
  7  6  1  0
  8  9  2  0
 11 13  1  0
 11 10  1  1
 12 11  1  0
 14 13  1  1
 15 14  1  0
 15  8  1  0
 16 14  1  0
 16 17  2  0
 19 18  1  0
 20 19  2  0
 21 19  1  0
 22 21  1  0
 23 22  1  0
 23 24  1  0
 25 24  1  6
 25 26  1  0
 25 27  1  0
 26 16  1  0
 27 28  1  0
 29 27  2  0
M  END
$$$$
