KLR.pdb
     RDKit          3D

 29 28  0  0  1  0  0  0  0  0999 V2000
    9.3297  -16.1470   20.4000 N   0  0  0  0  0  0  0  0  0  0  0  0
    8.4517  -16.4858   21.4817 C   0  0  1  0  0  0  0  0  0  0  0  0
    8.5333  -17.9829   21.8120 C   0  0  0  0  0  0  0  0  0  0  0  0
    7.9534  -18.7733   20.6798 C   0  0  0  0  0  0  0  0  0  0  0  0
    7.8667  -20.2396   20.8961 C   0  0  0  0  0  0  0  0  0  0  0  0
    7.2761  -21.0413   19.7846 C   0  0  0  0  0  0  0  0  0  0  0  0
    7.8628  -20.8395   18.4976 N   0  0  0  0  0  0  0  0  0  0  0  0
    8.7488  -15.7133   22.6957 C   0  0  0  0  0  0  0  0  0  0  0  0
    9.9374  -15.4619   23.0197 O   0  0  0  0  0  0  0  0  0  0  0  0
    5.7795  -12.5669   27.1526 C   0  0  0  0  0  0  0  0  0  0  0  0
    7.1612  -13.0271   26.6507 C   0  0  2  0  0  0  0  0  0  0  0  0
    8.0060  -11.7980   26.5182 C   0  0  0  0  0  0  0  0  0  0  0  0
    6.8983  -13.7584   25.3730 C   0  0  0  0  0  0  0  0  0  0  0  0
    8.0240  -14.5442   24.8151 C   0  0  2  0  0  0  0  0  0  0  0  0
    7.7257  -15.2101   23.5660 N   0  0  0  0  0  0  0  0  0  0  0  0
    8.5337  -15.5186   25.8270 C   0  0  0  0  0  0  0  0  0  0  0  0
    7.7533  -16.3010   26.4080 O   0  0  0  0  0  0  0  0  0  0  0  0
   12.5271  -17.0541   22.1870 N   0  0  0  0  0  0  0  0  0  0  0  0
   12.8265  -18.4013   22.5897 C   0  0  0  0  0  0  0  0  0  0  0  0
   12.4960  -19.3715   21.8186 N   0  0  0  0  0  0  0  0  0  0  0  0
   13.4720  -18.6816   23.8102 N   0  0  0  0  0  0  0  0  0  0  0  0
   13.3724  -17.8752   24.9815 C   0  0  0  0  0  0  0  0  0  0  0  0
   11.9725  -17.5586   25.4070 C   0  0  0  0  0  0  0  0  0  0  0  0
   11.9399  -16.8188   26.7418 C   0  0  0  0  0  0  0  0  0  0  0  0
   10.4985  -16.5163   27.0401 C   0  0  2  0  0  0  0  0  0  0  0  0
    9.8988  -15.5811   26.1506 N   0  0  0  0  0  0  0  0  0  0  0  0
   10.3718  -16.0060   28.4238 C   0  0  0  0  0  0  0  0  0  0  0  0
   10.6255  -16.8464   29.4936 O   0  0  0  0  0  0  0  0  0  0  0  0
   10.0376  -14.8197   28.6970 O   0  0  0  0  0  0  0  0  0  0  0  0
  2  8  1  0
  2  1  1  6
  3  2  1  0
  4  5  1  0
  4  3  1  0
  5  6  1  0
  7  6  1  0
  8  9  2  0
 11 13  1  0
 11 10  1  6
 12 11  1  0
 14 13  1  1
 15 14  1  0
 15  8  1  0
 16 14  1  0
 16 17  2  0
 19 18  1  0
 20 19  2  0
 21 19  1  0
 22 21  1  0
 23 22  1  0
 23 24  1  0
 25 24  1  6
 25 26  1  0
 25 27  1  0
 26 16  1  0
 27 28  1  0
 29 27  2  0
M  END
$$$$
