KLR.pdb
     RDKit          3D

 29 28  0  0  1  0  0  0  0  0999 V2000
    7.3394  -15.6047   20.6782 N   0  0  0  0  0  0  0  0  0  0  0  0
    8.5322  -14.8249   20.8358 C   0  0  1  0  0  0  0  0  0  0  0  0
    8.5583  -13.6487   19.8494 C   0  0  0  0  0  0  0  0  0  0  0  0
    8.0438  -14.1052   18.5190 C   0  0  0  0  0  0  0  0  0  0  0  0
    8.4818  -13.3024   17.3494 C   0  0  0  0  0  0  0  0  0  0  0  0
    7.8550  -13.6421   16.0383 C   0  0  0  0  0  0  0  0  0  0  0  0
    8.2696  -12.8423   14.9295 N   0  0  0  0  0  0  0  0  0  0  0  0
    8.6738  -14.3037   22.2023 C   0  0  0  0  0  0  0  0  0  0  0  0
    9.7071  -13.6737   22.5433 O   0  0  0  0  0  0  0  0  0  0  0  0
    5.2170  -12.6479   26.9976 C   0  0  0  0  0  0  0  0  0  0  0  0
    6.6541  -13.0318   26.5973 C   0  0  2  0  0  0  0  0  0  0  0  0
    7.4951  -11.8053   26.7716 C   0  0  0  0  0  0  0  0  0  0  0  0
    6.5552  -13.5405   25.1945 C   0  0  0  0  0  0  0  0  0  0  0  0
    7.8192  -13.9796   24.5578 C   0  0  2  0  0  0  0  0  0  0  0  0
    7.6661  -14.4772   23.2081 N   0  0  0  0  0  0  0  0  0  0  0  0
    8.5164  -14.9838   25.4174 C   0  0  0  0  0  0  0  0  0  0  0  0
    8.7168  -14.7564   26.6285 O   0  0  0  0  0  0  0  0  0  0  0  0
   11.8307  -19.0712   19.7897 N   0  0  0  0  0  0  0  0  0  0  0  0
   11.9171  -19.9548   20.9203 C   0  0  0  0  0  0  0  0  0  0  0  0
   12.6788  -20.9845   20.8513 N   0  0  0  0  0  0  0  0  0  0  0  0
   11.1850  -19.7184   22.1006 N   0  0  0  0  0  0  0  0  0  0  0  0
   10.2936  -18.6228   22.2935 C   0  0  0  0  0  0  0  0  0  0  0  0
    9.5939  -18.6100   23.6169 C   0  0  0  0  0  0  0  0  0  0  0  0
   10.5066  -18.1140   24.7354 C   0  0  0  0  0  0  0  0  0  0  0  0
    9.6825  -17.2048   25.6028 C   0  0  2  0  0  0  0  0  0  0  0  0
    8.9630  -16.2057   24.8888 N   0  0  0  0  0  0  0  0  0  0  0  0
   10.5530  -16.5431   26.6006 C   0  0  0  0  0  0  0  0  0  0  0  0
   11.2442  -17.3063   27.5252 O   0  0  0  0  0  0  0  0  0  0  0  0
   10.7088  -15.2919   26.6630 O   0  0  0  0  0  0  0  0  0  0  0  0
  2  8  1  0
  2  1  1  1
  3  2  1  0
  4  5  1  0
  4  3  1  0
  5  6  1  0
  7  6  1  0
  8  9  2  0
 11 13  1  0
 11 10  1  6
 12 11  1  0
 14 13  1  1
 15 14  1  0
 15  8  1  0
 16 14  1  0
 16 17  2  0
 19 18  1  0
 20 19  2  0
 21 19  1  0
 22 21  1  0
 23 22  1  0
 23 24  1  0
 25 24  1  6
 25 26  1  0
 25 27  1  0
 26 16  1  0
 27 28  1  0
 29 27  2  0
M  END
$$$$
