KLR.pdb
     RDKit          3D

 29 28  0  0  1  0  0  0  0  0999 V2000
    8.3382  -16.2927   20.4721 N   0  0  0  0  0  0  0  0  0  0  0  0
    7.8718  -16.7078   21.7628 C   0  0  1  0  0  0  0  0  0  0  0  0
    8.3711  -18.1191   22.1036 C   0  0  0  0  0  0  0  0  0  0  0  0
    7.7493  -19.1059   21.1641 C   0  0  0  0  0  0  0  0  0  0  0  0
    8.1375  -20.5240   21.3703 C   0  0  0  0  0  0  0  0  0  0  0  0
    7.4120  -21.2617   22.4456 C   0  0  0  0  0  0  0  0  0  0  0  0
    7.8047  -22.6223   22.6348 N   0  0  0  0  0  0  0  0  0  0  0  0
    8.2934  -15.7841   22.8248 C   0  0  0  0  0  0  0  0  0  0  0  0
    9.4857  -15.3911   22.8954 O   0  0  0  0  0  0  0  0  0  0  0  0
    5.7898  -12.2604   27.2644 C   0  0  0  0  0  0  0  0  0  0  0  0
    7.1230  -12.7501   26.6682 C   0  0  2  0  0  0  0  0  0  0  0  0
    7.9263  -11.5295   26.3413 C   0  0  0  0  0  0  0  0  0  0  0  0
    6.7479  -13.5973   25.4943 C   0  0  0  0  0  0  0  0  0  0  0  0
    7.8254  -14.4249   24.9026 C   0  0  2  0  0  0  0  0  0  0  0  0
    7.3925  -15.2853   23.8233 N   0  0  0  0  0  0  0  0  0  0  0  0
    8.5209  -15.2144   25.9639 C   0  0  0  0  0  0  0  0  0  0  0  0
    7.8818  -15.9948   26.6996 O   0  0  0  0  0  0  0  0  0  0  0  0
   13.3417  -18.9124   23.7911 N   0  0  0  0  0  0  0  0  0  0  0  0
   13.8496  -17.8398   22.9798 C   0  0  0  0  0  0  0  0  0  0  0  0
   14.0948  -18.0570   21.7397 N   0  0  0  0  0  0  0  0  0  0  0  0
   14.0858  -16.5575   23.5136 N   0  0  0  0  0  0  0  0  0  0  0  0
   13.8211  -16.1820   24.8630 C   0  0  0  0  0  0  0  0  0  0  0  0
   12.3978  -16.3548   25.2938 C   0  0  0  0  0  0  0  0  0  0  0  0
   12.1752  -15.8664   26.7227 C   0  0  0  0  0  0  0  0  0  0  0  0
   10.6984  -15.9468   26.9883 C   0  0  2  0  0  0  0  0  0  0  0  0
    9.9065  -15.1011   26.1616 N   0  0  0  0  0  0  0  0  0  0  0  0
   10.4275  -15.6162   28.4055 C   0  0  0  0  0  0  0  0  0  0  0  0
   10.0044  -14.3435   28.7470 O   0  0  0  0  0  0  0  0  0  0  0  0
   10.5618  -16.4448   29.3484 O   0  0  0  0  0  0  0  0  0  0  0  0
  2  8  1  0
  2  1  1  6
  3  2  1  0
  4  5  1  0
  4  3  1  0
  5  6  1  0
  7  6  1  0
  8  9  2  0
 11 13  1  0
 11 10  1  6
 12 11  1  0
 14 13  1  1
 15 14  1  0
 15  8  1  0
 16 14  1  0
 16 17  2  0
 19 18  1  0
 20 19  2  0
 21 19  1  0
 22 21  1  0
 23 22  1  0
 23 24  1  0
 25 24  1  6
 25 26  1  0
 25 27  1  0
 26 16  1  0
 27 28  1  0
 29 27  2  0
M  END
$$$$
