KLR.pdb
     RDKit          3D

 29 28  0  0  1  0  0  0  0  0999 V2000
    7.2786  -15.4769   21.2455 N   0  0  0  0  0  0  0  0  0  0  0  0
    8.5189  -14.7601   21.3053 C   0  0  1  0  0  0  0  0  0  0  0  0
    8.4155  -13.4140   20.5743 C   0  0  0  0  0  0  0  0  0  0  0  0
    7.7745  -13.6233   19.2371 C   0  0  0  0  0  0  0  0  0  0  0  0
    8.3606  -12.8494   18.1138 C   0  0  0  0  0  0  0  0  0  0  0  0
    7.7525  -13.0669   16.7685 C   0  0  0  0  0  0  0  0  0  0  0  0
    8.2601  -12.2401   15.7198 N   0  0  0  0  0  0  0  0  0  0  0  0
    8.9502  -14.5188   22.6890 C   0  0  0  0  0  0  0  0  0  0  0  0
   10.0821  -14.0273   22.9304 O   0  0  0  0  0  0  0  0  0  0  0  0
    7.9218  -11.6698   25.8463 C   0  0  0  0  0  0  0  0  0  0  0  0
    6.8287  -12.7378   25.6528 C   0  0  2  0  0  0  0  0  0  0  0  0
    5.6568  -12.3143   26.4831 C   0  0  0  0  0  0  0  0  0  0  0  0
    7.4594  -14.0321   26.0570 C   0  0  0  0  0  0  0  0  0  0  0  0
    8.5396  -14.5452   25.1819 C   0  0  2  0  0  0  0  0  0  0  0  0
    8.1264  -14.8217   23.8235 N   0  0  0  0  0  0  0  0  0  0  0  0
    9.1834  -15.7463   25.7953 C   0  0  0  0  0  0  0  0  0  0  0  0
    9.4238  -15.7851   27.0198 O   0  0  0  0  0  0  0  0  0  0  0  0
   10.3042  -20.9472   19.3899 N   0  0  0  0  0  0  0  0  0  0  0  0
    9.0128  -20.7510   19.9901 C   0  0  0  0  0  0  0  0  0  0  0  0
    7.9776  -21.2522   19.4224 N   0  0  0  0  0  0  0  0  0  0  0  0
    8.8565  -20.0209   21.1850 N   0  0  0  0  0  0  0  0  0  0  0  0
    9.8613  -19.8851   22.1870 C   0  0  0  0  0  0  0  0  0  0  0  0
    9.4703  -19.0345   23.3551 C   0  0  0  0  0  0  0  0  0  0  0  0
   10.5503  -19.0223   24.4337 C   0  0  0  0  0  0  0  0  0  0  0  0
   10.0891  -18.0750   25.5051 C   0  0  2  0  0  0  0  0  0  0  0  0
    9.5337  -16.8598   25.0147 N   0  0  0  0  0  0  0  0  0  0  0  0
   11.2185  -17.7527   26.4061 C   0  0  0  0  0  0  0  0  0  0  0  0
   12.0870  -16.7253   26.0812 O   0  0  0  0  0  0  0  0  0  0  0  0
   11.4456  -18.3729   27.4819 O   0  0  0  0  0  0  0  0  0  0  0  0
  2  8  1  0
  2  1  1  1
  3  2  1  0
  4  5  1  0
  4  3  1  0
  5  6  1  0
  7  6  1  0
  8  9  2  0
 11 13  1  0
 11 10  1  1
 12 11  1  0
 14 13  1  1
 15 14  1  0
 15  8  1  0
 16 14  1  0
 16 17  2  0
 19 18  1  0
 20 19  2  0
 21 19  1  0
 22 21  1  0
 23 22  1  0
 23 24  1  0
 25 24  1  6
 25 26  1  0
 25 27  1  0
 26 16  1  0
 27 28  1  0
 29 27  2  0
M  END
$$$$
