KLR.pdb
     RDKit          3D

 29 28  0  0  1  0  0  0  0  0999 V2000
   10.5110  -19.0796   17.6713 N   0  0  0  0  0  0  0  0  0  0  0  0
    9.6755  -18.8762   18.8187 C   0  0  1  0  0  0  0  0  0  0  0  0
    9.9811  -19.9067   19.9149 C   0  0  0  0  0  0  0  0  0  0  0  0
   10.0090  -21.2780   19.3133 C   0  0  0  0  0  0  0  0  0  0  0  0
   11.3326  -21.9503   19.3043 C   0  0  0  0  0  0  0  0  0  0  0  0
   11.3630  -23.3502   18.7881 C   0  0  0  0  0  0  0  0  0  0  0  0
   12.6614  -23.9310   18.6530 N   0  0  0  0  0  0  0  0  0  0  0  0
    9.8267  -17.5262   19.3785 C   0  0  0  0  0  0  0  0  0  0  0  0
   10.9207  -16.9134   19.2858 O   0  0  0  0  0  0  0  0  0  0  0  0
    6.2923  -13.1070   21.8951 C   0  0  0  0  0  0  0  0  0  0  0  0
    7.6779  -13.3900   21.2846 C   0  0  2  0  0  0  0  0  0  0  0  0
    7.9237  -12.3293   20.2567 C   0  0  0  0  0  0  0  0  0  0  0  0
    7.6020  -14.7855   20.7522 C   0  0  0  0  0  0  0  0  0  0  0  0
    8.8911  -15.4823   20.5322 C   0  0  2  0  0  0  0  0  0  0  0  0
    8.7610  -16.8398   20.0498 N   0  0  0  0  0  0  0  0  0  0  0  0
    9.7278  -15.4371   21.7697 C   0  0  0  0  0  0  0  0  0  0  0  0
   10.0950  -14.3454   22.2513 O   0  0  0  0  0  0  0  0  0  0  0  0
   11.3907  -19.3338   30.3159 N   0  0  0  0  0  0  0  0  0  0  0  0
   11.3342  -18.5518   29.1110 C   0  0  0  0  0  0  0  0  0  0  0  0
   11.0290  -17.3083   29.1873 N   0  0  0  0  0  0  0  0  0  0  0  0
   11.6041  -19.1178   27.8493 N   0  0  0  0  0  0  0  0  0  0  0  0
   10.7687  -18.9745   26.7032 C   0  0  0  0  0  0  0  0  0  0  0  0
   11.0918  -17.7982   25.8356 C   0  0  0  0  0  0  0  0  0  0  0  0
   10.1752  -17.7242   24.6172 C   0  0  0  0  0  0  0  0  0  0  0  0
   10.7541  -16.6883   23.6954 C   0  0  2  0  0  0  0  0  0  0  0  0
   10.1219  -16.6164   22.4224 N   0  0  0  0  0  0  0  0  0  0  0  0
   12.1976  -16.9487   23.4960 C   0  0  0  0  0  0  0  0  0  0  0  0
   12.6135  -17.7614   22.4559 O   0  0  0  0  0  0  0  0  0  0  0  0
   13.0981  -16.4627   24.2353 O   0  0  0  0  0  0  0  0  0  0  0  0
  2  8  1  0
  2  1  1  6
  3  2  1  0
  4  5  1  0
  4  3  1  0
  5  6  1  0
  7  6  1  0
  8  9  2  0
 11 13  1  0
 11 10  1  6
 12 11  1  0
 14 13  1  1
 15 14  1  0
 15  8  1  0
 16 14  1  0
 16 17  2  0
 19 18  1  0
 20 19  2  0
 21 19  1  0
 22 21  1  0
 23 22  1  0
 23 24  1  0
 25 24  1  1
 25 26  1  0
 25 27  1  0
 26 16  1  0
 27 28  1  0
 29 27  2  0
M  END
$$$$
