KLR.pdb
     RDKit          3D

 29 28  0  0  1  0  0  0  0  0999 V2000
    7.7139  -16.2583   21.2526 N   0  0  0  0  0  0  0  0  0  0  0  0
    8.8145  -15.3395   21.2681 C   0  0  1  0  0  0  0  0  0  0  0  0
    8.7243  -14.3487   20.0989 C   0  0  0  0  0  0  0  0  0  0  0  0
    7.6319  -14.7772   19.1683 C   0  0  0  0  0  0  0  0  0  0  0  0
    7.3749  -13.8744   18.0180 C   0  0  0  0  0  0  0  0  0  0  0  0
    7.9667  -14.2805   16.7097 C   0  0  0  0  0  0  0  0  0  0  0  0
    7.7381  -13.3822   15.6225 N   0  0  0  0  0  0  0  0  0  0  0  0
    8.8855  -14.5854   22.5271 C   0  0  0  0  0  0  0  0  0  0  0  0
    9.8255  -13.7771   22.7372 O   0  0  0  0  0  0  0  0  0  0  0  0
    5.4108  -12.4563   27.0711 C   0  0  0  0  0  0  0  0  0  0  0  0
    6.8683  -12.7797   26.6916 C   0  0  2  0  0  0  0  0  0  0  0  0
    7.6204  -11.4853   26.7168 C   0  0  0  0  0  0  0  0  0  0  0  0
    6.7941  -13.4458   25.3547 C   0  0  0  0  0  0  0  0  0  0  0  0
    8.0436  -14.0635   24.8515 C   0  0  2  0  0  0  0  0  0  0  0  0
    7.9101  -14.7211   23.5700 N   0  0  0  0  0  0  0  0  0  0  0  0
    8.6123  -14.9974   25.8701 C   0  0  0  0  0  0  0  0  0  0  0  0
    8.9390  -14.5838   27.0019 O   0  0  0  0  0  0  0  0  0  0  0  0
    7.6387  -22.4347   26.5982 N   0  0  0  0  0  0  0  0  0  0  0  0
    6.5192  -21.8461   27.2814 C   0  0  0  0  0  0  0  0  0  0  0  0
    5.8589  -22.5538   28.1231 N   0  0  0  0  0  0  0  0  0  0  0  0
    6.1291  -20.5125   27.0482 N   0  0  0  0  0  0  0  0  0  0  0  0
    6.4708  -19.7615   25.8858 C   0  0  0  0  0  0  0  0  0  0  0  0
    7.1881  -18.4762   26.1587 C   0  0  0  0  0  0  0  0  0  0  0  0
    8.6866  -18.6938   26.3519 C   0  0  0  0  0  0  0  0  0  0  0  0
    9.3137  -17.3344   26.4816 C   0  0  2  0  0  0  0  0  0  0  0  0
    8.7939  -16.3601   25.5837 N   0  0  0  0  0  0  0  0  0  0  0  0
   10.7761  -17.4379   26.2771 C   0  0  0  0  0  0  0  0  0  0  0  0
   11.3723  -16.7732   25.2198 O   0  0  0  0  0  0  0  0  0  0  0  0
   11.5347  -18.1129   27.0272 O   0  0  0  0  0  0  0  0  0  0  0  0
  2  8  1  0
  2  1  1  1
  3  2  1  0
  4  5  1  0
  4  3  1  0
  5  6  1  0
  7  6  1  0
  8  9  2  0
 11 13  1  0
 11 10  1  6
 12 11  1  0
 14 13  1  1
 15 14  1  0
 15  8  1  0
 16 14  1  0
 16 17  2  0
 19 18  1  0
 20 19  2  0
 21 19  1  0
 22 21  1  0
 23 22  1  0
 23 24  1  0
 25 24  1  6
 25 26  1  0
 25 27  1  0
 26 16  1  0
 27 28  1  0
 29 27  2  0
M  END
$$$$
