KLR.pdb
     RDKit          3D

 29 28  0  0  1  0  0  0  0  0999 V2000
    8.3385  -13.0914   20.2277 N   0  0  0  0  0  0  0  0  0  0  0  0
    7.7781  -14.1658   20.9942 C   0  0  1  0  0  0  0  0  0  0  0  0
    8.0998  -15.5255   20.3580 C   0  0  0  0  0  0  0  0  0  0  0  0
    7.5342  -15.5712   18.9719 C   0  0  0  0  0  0  0  0  0  0  0  0
    7.7828  -16.8246   18.2160 C   0  0  0  0  0  0  0  0  0  0  0  0
    7.2169  -16.8920   16.8369 C   0  0  0  0  0  0  0  0  0  0  0  0
    7.4246  -18.1236   16.1431 N   0  0  0  0  0  0  0  0  0  0  0  0
    8.2606  -14.1633   22.3820 C   0  0  0  0  0  0  0  0  0  0  0  0
    9.4752  -13.9617   22.6373 O   0  0  0  0  0  0  0  0  0  0  0  0
    8.0139  -11.6273   26.0807 C   0  0  0  0  0  0  0  0  0  0  0  0
    6.6826  -12.3090   25.7126 C   0  0  2  0  0  0  0  0  0  0  0  0
    5.6424  -11.7569   26.6374 C   0  0  0  0  0  0  0  0  0  0  0  0
    6.9360  -13.7769   25.8450 C   0  0  0  0  0  0  0  0  0  0  0  0
    7.8761  -14.3781   24.8699 C   0  0  2  0  0  0  0  0  0  0  0  0
    7.3965  -14.3854   23.5052 N   0  0  0  0  0  0  0  0  0  0  0  0
    8.2682  -15.7541   25.3017 C   0  0  0  0  0  0  0  0  0  0  0  0
    7.4080  -16.5665   25.6999 O   0  0  0  0  0  0  0  0  0  0  0  0
   11.3261  -17.4188   20.4271 N   0  0  0  0  0  0  0  0  0  0  0  0
   12.1753  -18.5332   20.7488 C   0  0  0  0  0  0  0  0  0  0  0  0
   12.3225  -19.4745   19.8901 N   0  0  0  0  0  0  0  0  0  0  0  0
   12.8480  -18.6172   21.9839 N   0  0  0  0  0  0  0  0  0  0  0  0
   12.7698  -17.6368   23.0157 C   0  0  0  0  0  0  0  0  0  0  0  0
   11.4169  -17.4906   23.6397 C   0  0  0  0  0  0  0  0  0  0  0  0
   11.4463  -17.7985   25.1345 C   0  0  0  0  0  0  0  0  0  0  0  0
   10.0927  -17.4434   25.6818 C   0  0  2  0  0  0  0  0  0  0  0  0
    9.6093  -16.1694   25.2710 N   0  0  0  0  0  0  0  0  0  0  0  0
   10.1259  -17.4856   27.1611 C   0  0  0  0  0  0  0  0  0  0  0  0
   10.4066  -18.6753   27.8099 O   0  0  0  0  0  0  0  0  0  0  0  0
    9.9083  -16.4769   27.8883 O   0  0  0  0  0  0  0  0  0  0  0  0
  2  8  1  0
  2  1  1  6
  3  2  1  0
  4  5  1  0
  4  3  1  0
  5  6  1  0
  7  6  1  0
  8  9  2  0
 11 13  1  0
 11 10  1  1
 12 11  1  0
 14 13  1  1
 15 14  1  0
 15  8  1  0
 16 14  1  0
 16 17  2  0
 19 18  1  0
 20 19  2  0
 21 19  1  0
 22 21  1  0
 23 22  1  0
 23 24  1  0
 25 24  1  6
 25 26  1  0
 25 27  1  0
 26 16  1  0
 27 28  1  0
 29 27  2  0
M  END
$$$$
