KLR.pdb
     RDKit          3D

 29 28  0  0  1  0  0  0  0  0999 V2000
    7.7133  -16.1678   22.0532 N   0  0  0  0  0  0  0  0  0  0  0  0
    9.1035  -15.8771   22.2497 C   0  0  1  0  0  0  0  0  0  0  0  0
    9.6164  -14.8880   21.1934 C   0  0  0  0  0  0  0  0  0  0  0  0
    8.6822  -14.8834   20.0228 C   0  0  0  0  0  0  0  0  0  0  0  0
    9.3103  -15.1119   18.6970 C   0  0  0  0  0  0  0  0  0  0  0  0
    8.4133  -15.0024   17.5094 C   0  0  0  0  0  0  0  0  0  0  0  0
    9.0341  -15.2305   16.2430 N   0  0  0  0  0  0  0  0  0  0  0  0
    9.3682  -15.3265   23.5860 C   0  0  0  0  0  0  0  0  0  0  0  0
   10.4868  -14.8222   23.8606 O   0  0  0  0  0  0  0  0  0  0  0  0
    7.6781  -11.9038   25.9013 C   0  0  0  0  0  0  0  0  0  0  0  0
    6.7125  -13.1039   25.8913 C   0  0  2  0  0  0  0  0  0  0  0  0
    5.4456  -12.6467   26.5454 C   0  0  0  0  0  0  0  0  0  0  0  0
    7.4346  -14.2030   26.6034 C   0  0  0  0  0  0  0  0  0  0  0  0
    8.6404  -14.7462   25.9349 C   0  0  2  0  0  0  0  0  0  0  0  0
    8.3902  -15.3301   24.6353 N   0  0  0  0  0  0  0  0  0  0  0  0
    9.3397  -15.7193   26.8279 C   0  0  0  0  0  0  0  0  0  0  0  0
    9.7356  -15.3742   27.9605 O   0  0  0  0  0  0  0  0  0  0  0  0
   11.7516  -21.2934   21.2229 N   0  0  0  0  0  0  0  0  0  0  0  0
   11.1423  -20.0497   21.6082 C   0  0  0  0  0  0  0  0  0  0  0  0
   11.4356  -18.9831   20.9590 N   0  0  0  0  0  0  0  0  0  0  0  0
   10.2329  -19.9737   22.6816 N   0  0  0  0  0  0  0  0  0  0  0  0
   10.5826  -20.1521   24.0520 C   0  0  0  0  0  0  0  0  0  0  0  0
   10.1849  -19.0238   24.9520 C   0  0  0  0  0  0  0  0  0  0  0  0
   10.6812  -19.2362   26.3798 C   0  0  0  0  0  0  0  0  0  0  0  0
   10.2461  -18.0395   27.1776 C   0  0  2  0  0  0  0  0  0  0  0  0
    9.5695  -17.0430   26.4194 N   0  0  0  0  0  0  0  0  0  0  0  0
   11.4212  -17.4228   27.8331 C   0  0  0  0  0  0  0  0  0  0  0  0
   11.7790  -16.1223   27.5231 O   0  0  0  0  0  0  0  0  0  0  0  0
   12.1375  -18.0248   28.6806 O   0  0  0  0  0  0  0  0  0  0  0  0
  2  8  1  0
  2  1  1  6
  3  2  1  0
  4  5  1  0
  4  3  1  0
  5  6  1  0
  7  6  1  0
  8  9  2  0
 11 13  1  0
 11 10  1  1
 12 11  1  0
 14 13  1  1
 15 14  1  0
 15  8  1  0
 16 14  1  0
 16 17  2  0
 19 18  1  0
 20 19  2  0
 21 19  1  0
 22 21  1  0
 23 22  1  0
 23 24  1  0
 25 24  1  6
 25 26  1  0
 25 27  1  0
 26 16  1  0
 27 28  1  0
 29 27  2  0
M  END
$$$$
