KLR.pdb
     RDKit          3D

 29 28  0  0  1  0  0  0  0  0999 V2000
   10.3108  -17.5935   16.2482 N   0  0  0  0  0  0  0  0  0  0  0  0
    9.2793  -17.6315   17.2433 C   0  0  1  0  0  0  0  0  0  0  0  0
    8.9402  -19.0772   17.6333 C   0  0  0  0  0  0  0  0  0  0  0  0
    8.6099  -19.8596   16.3997 C   0  0  0  0  0  0  0  0  0  0  0  0
    7.4424  -20.7704   16.5082 C   0  0  0  0  0  0  0  0  0  0  0  0
    7.0639  -21.5153   15.2718 C   0  0  0  0  0  0  0  0  0  0  0  0
    5.9253  -22.3702   15.3895 N   0  0  0  0  0  0  0  0  0  0  0  0
    9.6530  -16.8869   18.4536 C   0  0  0  0  0  0  0  0  0  0  0  0
   10.8392  -16.8966   18.8706 O   0  0  0  0  0  0  0  0  0  0  0  0
    9.0024  -12.3729   19.5859 C   0  0  0  0  0  0  0  0  0  0  0  0
    7.7768  -13.2990   19.7001 C   0  0  2  0  0  0  0  0  0  0  0  0
    6.6009  -12.4257   20.0109 C   0  0  0  0  0  0  0  0  0  0  0  0
    8.1265  -14.2948   20.7596 C   0  0  0  0  0  0  0  0  0  0  0  0
    9.0920  -15.3535   20.3818 C   0  0  2  0  0  0  0  0  0  0  0  0
    8.7102  -16.1211   19.2166 N   0  0  0  0  0  0  0  0  0  0  0  0
    9.3631  -16.2530   21.5440 C   0  0  0  0  0  0  0  0  0  0  0  0
    8.5014  -17.0680   21.9338 O   0  0  0  0  0  0  0  0  0  0  0  0
   14.1067  -17.5399   19.0367 N   0  0  0  0  0  0  0  0  0  0  0  0
   14.3648  -18.9200   19.3455 C   0  0  0  0  0  0  0  0  0  0  0  0
   14.5947  -19.7417   18.3879 N   0  0  0  0  0  0  0  0  0  0  0  0
   14.3697  -19.3917   20.6730 N   0  0  0  0  0  0  0  0  0  0  0  0
   14.0956  -18.5879   21.8179 C   0  0  0  0  0  0  0  0  0  0  0  0
   12.6617  -18.1868   21.9731 C   0  0  0  0  0  0  0  0  0  0  0  0
   12.4162  -17.4609   23.2932 C   0  0  0  0  0  0  0  0  0  0  0  0
   10.9703  -17.0521   23.3063 C   0  0  2  0  0  0  0  0  0  0  0  0
   10.5895  -16.2068   22.2265 N   0  0  0  0  0  0  0  0  0  0  0  0
   10.6569  -16.3671   24.5805 C   0  0  0  0  0  0  0  0  0  0  0  0
   10.8603  -17.0220   25.7826 O   0  0  0  0  0  0  0  0  0  0  0  0
   10.2033  -15.1905   24.6416 O   0  0  0  0  0  0  0  0  0  0  0  0
  2  8  1  0
  2  1  1  6
  3  2  1  0
  4  5  1  0
  4  3  1  0
  5  6  1  0
  7  6  1  0
  8  9  2  0
 11 13  1  0
 11 10  1  1
 12 11  1  0
 14 13  1  1
 15 14  1  0
 15  8  1  0
 16 14  1  0
 16 17  2  0
 19 18  1  0
 20 19  2  0
 21 19  1  0
 22 21  1  0
 23 22  1  0
 23 24  1  0
 25 24  1  1
 25 26  1  0
 25 27  1  0
 26 16  1  0
 27 28  1  0
 29 27  2  0
M  END
$$$$
