KLR.pdb
     RDKit          3D

 29 28  0  0  1  0  0  0  0  0999 V2000
    9.3168  -15.2284   20.1694 N   0  0  0  0  0  0  0  0  0  0  0  0
    8.6257  -15.8981   21.2323 C   0  0  1  0  0  0  0  0  0  0  0  0
    9.0319  -17.3765   21.3109 C   0  0  0  0  0  0  0  0  0  0  0  0
    7.9323  -18.1596   21.9595 C   0  0  0  0  0  0  0  0  0  0  0  0
    8.1675  -19.6204   22.0813 C   0  0  0  0  0  0  0  0  0  0  0  0
    7.1641  -20.5115   21.4284 C   0  0  0  0  0  0  0  0  0  0  0  0
    7.4044  -21.9136   21.5602 N   0  0  0  0  0  0  0  0  0  0  0  0
    8.8735  -15.2661   22.5354 C   0  0  0  0  0  0  0  0  0  0  0  0
   10.0370  -14.9289   22.8726 O   0  0  0  0  0  0  0  0  0  0  0  0
    5.5967  -12.1139   26.7039 C   0  0  0  0  0  0  0  0  0  0  0  0
    6.9932  -12.6937   26.4104 C   0  0  2  0  0  0  0  0  0  0  0  0
    7.9303  -11.5314   26.2973 C   0  0  0  0  0  0  0  0  0  0  0  0
    6.8344  -13.5056   25.1645 C   0  0  0  0  0  0  0  0  0  0  0  0
    8.0411  -14.2138   24.6763 C   0  0  2  0  0  0  0  0  0  0  0  0
    7.8285  -15.0010   23.4814 N   0  0  0  0  0  0  0  0  0  0  0  0
    8.6324  -15.0504   25.7643 C   0  0  0  0  0  0  0  0  0  0  0  0
    8.8502  -14.5657   26.8941 O   0  0  0  0  0  0  0  0  0  0  0  0
    8.3787  -19.9108   22.3235 N   0  0  0  0  0  0  0  0  0  0  0  0
    8.8035  -21.1915   22.8192 C   0  0  0  0  0  0  0  0  0  0  0  0
    8.2448  -22.2533   22.3655 N   0  0  0  0  0  0  0  0  0  0  0  0
    9.8164  -21.3088   23.7913 N   0  0  0  0  0  0  0  0  0  0  0  0
   10.5215  -20.2087   24.3613 C   0  0  0  0  0  0  0  0  0  0  0  0
    9.7430  -19.4187   25.3666 C   0  0  0  0  0  0  0  0  0  0  0  0
   10.5480  -18.2398   25.9071 C   0  0  0  0  0  0  0  0  0  0  0  0
    9.5631  -17.2698   26.4961 C   0  0  2  0  0  0  0  0  0  0  0  0
    8.9576  -16.3991   25.5470 N   0  0  0  0  0  0  0  0  0  0  0  0
   10.2285  -16.4522   27.5353 C   0  0  0  0  0  0  0  0  0  0  0  0
   10.8319  -17.0707   28.6164 O   0  0  0  0  0  0  0  0  0  0  0  0
   10.2818  -15.1915   27.4966 O   0  0  0  0  0  0  0  0  0  0  0  0
  2  8  1  0
  2  1  1  6
  3  2  1  0
  4  5  1  0
  4  3  1  0
  5  6  1  0
  7  6  1  0
  8  9  2  0
 11 13  1  0
 11 10  1  6
 12 11  1  0
 14 13  1  1
 15 14  1  0
 15  8  1  0
 16 14  1  0
 16 17  2  0
 19 18  1  0
 20 19  2  0
 21 19  1  0
 22 21  1  0
 23 22  1  0
 23 24  1  0
 25 24  1  6
 25 26  1  0
 25 27  1  0
 26 16  1  0
 27 28  1  0
 29 27  2  0
M  END
$$$$
