KLR.pdb
     RDKit          3D

 29 28  0  0  1  0  0  0  0  0999 V2000
    8.0054  -16.7952   20.1979 N   0  0  0  0  0  0  0  0  0  0  0  0
    7.2882  -16.8732   21.4370 C   0  0  1  0  0  0  0  0  0  0  0  0
    7.3145  -18.3004   22.0023 C   0  0  0  0  0  0  0  0  0  0  0  0
    7.1673  -19.2815   20.8803 C   0  0  0  0  0  0  0  0  0  0  0  0
    5.9647  -20.1502   20.9382 C   0  0  0  0  0  0  0  0  0  0  0  0
    5.8468  -21.1930   19.8773 C   0  0  0  0  0  0  0  0  0  0  0  0
    4.7259  -22.0709   19.9955 N   0  0  0  0  0  0  0  0  0  0  0  0
    7.8281  -15.9514   22.4457 C   0  0  0  0  0  0  0  0  0  0  0  0
    9.0630  -15.7228   22.5084 O   0  0  0  0  0  0  0  0  0  0  0  0
    5.7751  -11.9986   26.7685 C   0  0  0  0  0  0  0  0  0  0  0  0
    7.0413  -12.6073   26.1368 C   0  0  2  0  0  0  0  0  0  0  0  0
    7.9109  -11.4622   25.7189 C   0  0  0  0  0  0  0  0  0  0  0  0
    6.5530  -13.4748   25.0208 C   0  0  0  0  0  0  0  0  0  0  0  0
    7.5411  -14.4018   24.4206 C   0  0  2  0  0  0  0  0  0  0  0  0
    6.9999  -15.2711   23.3989 N   0  0  0  0  0  0  0  0  0  0  0  0
    8.2263  -15.1965   25.4847 C   0  0  0  0  0  0  0  0  0  0  0  0
    7.5868  -15.6379   26.4619 O   0  0  0  0  0  0  0  0  0  0  0  0
    8.9166  -20.1638   28.7589 N   0  0  0  0  0  0  0  0  0  0  0  0
   10.0151  -20.9409   28.2530 C   0  0  0  0  0  0  0  0  0  0  0  0
   10.9356  -21.3210   29.0612 N   0  0  0  0  0  0  0  0  0  0  0  0
   10.1058  -21.2935   26.8919 N   0  0  0  0  0  0  0  0  0  0  0  0
   10.2417  -20.3610   25.8223 C   0  0  0  0  0  0  0  0  0  0  0  0
   10.6196  -18.9751   26.2436 C   0  0  0  0  0  0  0  0  0  0  0  0
    9.7815  -17.9178   25.5298 C   0  0  0  0  0  0  0  0  0  0  0  0
   10.2603  -16.5784   26.0143 C   0  0  2  0  0  0  0  0  0  0  0  0
    9.6023  -15.4678   25.4149 N   0  0  0  0  0  0  0  0  0  0  0  0
   11.7162  -16.4535   25.7777 C   0  0  0  0  0  0  0  0  0  0  0  0
   12.6034  -17.1967   26.5365 O   0  0  0  0  0  0  0  0  0  0  0  0
   12.2133  -15.6907   24.9032 O   0  0  0  0  0  0  0  0  0  0  0  0
  2  8  1  0
  2  1  1  6
  3  2  1  0
  4  5  1  0
  4  3  1  0
  5  6  1  0
  7  6  1  0
  8  9  2  0
 11 13  1  0
 11 10  1  6
 12 11  1  0
 14 13  1  1
 15 14  1  0
 15  8  1  0
 16 14  1  0
 16 17  2  0
 19 18  1  0
 20 19  2  0
 21 19  1  0
 22 21  1  0
 23 22  1  0
 23 24  1  0
 25 24  1  6
 25 26  1  0
 25 27  1  0
 26 16  1  0
 27 28  1  0
 29 27  2  0
M  END
$$$$
