KLR.pdb
     RDKit          3D

 29 28  0  0  1  0  0  0  0  0999 V2000
    8.0719  -14.7655   20.3571 N   0  0  0  0  0  0  0  0  0  0  0  0
    7.4571  -15.4727   21.4423 C   0  0  1  0  0  0  0  0  0  0  0  0
    7.5000  -16.9895   21.2088 C   0  0  0  0  0  0  0  0  0  0  0  0
    7.0548  -17.2892   19.8106 C   0  0  0  0  0  0  0  0  0  0  0  0
    6.9374  -18.7288   19.4670 C   0  0  0  0  0  0  0  0  0  0  0  0
    6.4370  -19.0461   18.0973 C   0  0  0  0  0  0  0  0  0  0  0  0
    6.3181  -20.4361   17.7895 N   0  0  0  0  0  0  0  0  0  0  0  0
    8.0970  -15.1707   22.7300 C   0  0  0  0  0  0  0  0  0  0  0  0
    9.3483  -15.0852   22.8188 O   0  0  0  0  0  0  0  0  0  0  0  0
    7.9953  -11.6982   25.6568 C   0  0  0  0  0  0  0  0  0  0  0  0
    6.7301  -12.5765   25.6773 C   0  0  2  0  0  0  0  0  0  0  0  0
    5.7363  -11.8851   26.5584 C   0  0  0  0  0  0  0  0  0  0  0  0
    7.1830  -13.9174   26.1603 C   0  0  0  0  0  0  0  0  0  0  0  0
    7.9885  -14.7255   25.2148 C   0  0  2  0  0  0  0  0  0  0  0  0
    7.3516  -14.9599   23.9373 N   0  0  0  0  0  0  0  0  0  0  0  0
    8.3989  -16.0157   25.8475 C   0  0  0  0  0  0  0  0  0  0  0  0
    7.5417  -16.8362   26.2357 O   0  0  0  0  0  0  0  0  0  0  0  0
   13.9207  -18.8539   21.8196 N   0  0  0  0  0  0  0  0  0  0  0  0
   12.6359  -19.4239   21.5182 C   0  0  0  0  0  0  0  0  0  0  0  0
   12.3699  -19.7600   20.3093 N   0  0  0  0  0  0  0  0  0  0  0  0
   11.6621  -19.6207   22.5172 N   0  0  0  0  0  0  0  0  0  0  0  0
   11.8824  -19.4225   23.9115 C   0  0  0  0  0  0  0  0  0  0  0  0
   11.2653  -18.1795   24.4729 C   0  0  0  0  0  0  0  0  0  0  0  0
   11.5251  -18.0449   25.9711 C   0  0  0  0  0  0  0  0  0  0  0  0
   10.2525  -17.5438   26.5933 C   0  0  2  0  0  0  0  0  0  0  0  0
    9.7541  -16.3395   26.0216 N   0  0  0  0  0  0  0  0  0  0  0  0
   10.4557  -17.3335   28.0444 C   0  0  0  0  0  0  0  0  0  0  0  0
   10.3188  -16.0657   28.5822 O   0  0  0  0  0  0  0  0  0  0  0  0
   10.7541  -18.2633   28.8444 O   0  0  0  0  0  0  0  0  0  0  0  0
  2  8  1  0
  2  1  1  6
  3  2  1  0
  4  5  1  0
  4  3  1  0
  5  6  1  0
  7  6  1  0
  8  9  2  0
 11 13  1  0
 11 10  1  1
 12 11  1  0
 14 13  1  1
 15 14  1  0
 15  8  1  0
 16 14  1  0
 16 17  2  0
 19 18  1  0
 20 19  2  0
 21 19  1  0
 22 21  1  0
 23 22  1  0
 23 24  1  0
 25 24  1  6
 25 26  1  0
 25 27  1  0
 26 16  1  0
 27 28  1  0
 29 27  2  0
M  END
$$$$
