KLR.pdb
     RDKit          3D

 29 28  0  0  1  0  0  0  0  0999 V2000
    7.4582  -15.4247   20.3888 N   0  0  0  0  0  0  0  0  0  0  0  0
    8.6473  -14.6444   20.5705 C   0  0  1  0  0  0  0  0  0  0  0  0
    8.6721  -13.4434   19.6145 C   0  0  0  0  0  0  0  0  0  0  0  0
    7.9609  -13.8034   18.3466 C   0  0  0  0  0  0  0  0  0  0  0  0
    8.7315  -13.5955   17.0947 C   0  0  0  0  0  0  0  0  0  0  0  0
    7.9931  -13.8129   15.8162 C   0  0  0  0  0  0  0  0  0  0  0  0
    8.7277  -13.5336   14.6231 N   0  0  0  0  0  0  0  0  0  0  0  0
    8.7820  -14.1577   21.9503 C   0  0  0  0  0  0  0  0  0  0  0  0
    9.7383  -13.4084   22.2744 O   0  0  0  0  0  0  0  0  0  0  0  0
    5.3597  -13.3705   27.0130 C   0  0  0  0  0  0  0  0  0  0  0  0
    6.8121  -13.4194   26.5023 C   0  0  2  0  0  0  0  0  0  0  0  0
    7.3972  -12.0597   26.7281 C   0  0  0  0  0  0  0  0  0  0  0  0
    6.7177  -13.8409   25.0706 C   0  0  0  0  0  0  0  0  0  0  0  0
    7.9982  -14.0286   24.3488 C   0  0  2  0  0  0  0  0  0  0  0  0
    7.8531  -14.4991   22.9886 N   0  0  0  0  0  0  0  0  0  0  0  0
    8.9097  -14.9231   25.1250 C   0  0  0  0  0  0  0  0  0  0  0  0
    9.5816  -14.4764   26.0777 O   0  0  0  0  0  0  0  0  0  0  0  0
   13.2963  -13.9074   21.0609 N   0  0  0  0  0  0  0  0  0  0  0  0
   12.5122  -14.9658   20.4852 C   0  0  0  0  0  0  0  0  0  0  0  0
   11.9208  -14.7664   19.3647 N   0  0  0  0  0  0  0  0  0  0  0  0
   12.3765  -16.2152   21.1220 N   0  0  0  0  0  0  0  0  0  0  0  0
   12.4867  -16.4225   22.5281 C   0  0  0  0  0  0  0  0  0  0  0  0
   11.1989  -16.7543   23.2153 C   0  0  0  0  0  0  0  0  0  0  0  0
   11.3953  -16.9683   24.7139 C   0  0  0  0  0  0  0  0  0  0  0  0
   10.0307  -17.1672   25.3107 C   0  0  2  0  0  0  0  0  0  0  0  0
    9.0347  -16.2848   24.8057 N   0  0  0  0  0  0  0  0  0  0  0  0
   10.1019  -17.0130   26.7812 C   0  0  0  0  0  0  0  0  0  0  0  0
   10.9363  -17.8334   27.5200 O   0  0  0  0  0  0  0  0  0  0  0  0
    9.4309  -16.1566   27.4215 O   0  0  0  0  0  0  0  0  0  0  0  0
  2  8  1  0
  2  1  1  1
  3  2  1  0
  4  5  1  0
  4  3  1  0
  5  6  1  0
  7  6  1  0
  8  9  2  0
 11 13  1  0
 11 10  1  6
 12 11  1  0
 14 13  1  1
 15 14  1  0
 15  8  1  0
 16 14  1  0
 16 17  2  0
 19 18  1  0
 20 19  2  0
 21 19  1  0
 22 21  1  0
 23 22  1  0
 23 24  1  0
 25 24  1  6
 25 26  1  0
 25 27  1  0
 26 16  1  0
 27 28  1  0
 29 27  2  0
M  END
$$$$
