KLR.pdb
     RDKit          3D

 29 28  0  0  1  0  0  0  0  0999 V2000
    6.5335  -15.2854   20.9834 N   0  0  0  0  0  0  0  0  0  0  0  0
    7.9108  -14.8915   21.0424 C   0  0  1  0  0  0  0  0  0  0  0  0
    8.1491  -13.5941   20.2569 C   0  0  0  0  0  0  0  0  0  0  0  0
    7.5849  -13.7385   18.8771 C   0  0  0  0  0  0  0  0  0  0  0  0
    8.4152  -13.1801   17.7802 C   0  0  0  0  0  0  0  0  0  0  0  0
    7.8537  -13.2869   16.4017 C   0  0  0  0  0  0  0  0  0  0  0  0
    8.7142  -12.8495   15.3484 N   0  0  0  0  0  0  0  0  0  0  0  0
    8.3717  -14.7028   22.4247 C   0  0  0  0  0  0  0  0  0  0  0  0
    9.5791  -14.4501   22.6683 O   0  0  0  0  0  0  0  0  0  0  0  0
    8.1303  -11.8500   25.8517 C   0  0  0  0  0  0  0  0  0  0  0  0
    6.7864  -12.5518   25.5794 C   0  0  2  0  0  0  0  0  0  0  0  0
    5.7722  -11.9084   26.4735 C   0  0  0  0  0  0  0  0  0  0  0  0
    7.0341  -14.0033   25.8406 C   0  0  0  0  0  0  0  0  0  0  0  0
    7.9669  -14.6932   24.9187 C   0  0  2  0  0  0  0  0  0  0  0  0
    7.4937  -14.7931   23.5554 N   0  0  0  0  0  0  0  0  0  0  0  0
    8.3305  -16.0402   25.4540 C   0  0  0  0  0  0  0  0  0  0  0  0
    7.4967  -16.7209   26.0867 O   0  0  0  0  0  0  0  0  0  0  0  0
   15.1660  -21.3710   23.3764 N   0  0  0  0  0  0  0  0  0  0  0  0
   15.0933  -20.2079   24.2181 C   0  0  0  0  0  0  0  0  0  0  0  0
   16.1790  -19.6209   24.5672 N   0  0  0  0  0  0  0  0  0  0  0  0
   13.8598  -19.6985   24.6697 N   0  0  0  0  0  0  0  0  0  0  0  0
   12.6518  -20.4518   24.7426 C   0  0  0  0  0  0  0  0  0  0  0  0
   11.5384  -19.7800   25.4844 C   0  0  0  0  0  0  0  0  0  0  0  0
   11.1812  -18.4298   24.8687 C   0  0  0  0  0  0  0  0  0  0  0  0
   10.0460  -17.8664   25.6761 C   0  0  2  0  0  0  0  0  0  0  0  0
    9.6142  -16.5754   25.2607 N   0  0  0  0  0  0  0  0  0  0  0  0
   10.4325  -17.8026   27.1036 C   0  0  0  0  0  0  0  0  0  0  0  0
   10.4096  -18.9512   27.8752 O   0  0  0  0  0  0  0  0  0  0  0  0
   10.7916  -16.7370   27.6774 O   0  0  0  0  0  0  0  0  0  0  0  0
  2  8  1  0
  2  1  1  1
  3  2  1  0
  4  5  1  0
  4  3  1  0
  5  6  1  0
  7  6  1  0
  8  9  2  0
 11 13  1  0
 11 10  1  1
 12 11  1  0
 14 13  1  1
 15 14  1  0
 15  8  1  0
 16 14  1  0
 16 17  2  0
 19 18  1  0
 20 19  2  0
 21 19  1  0
 22 21  1  0
 23 22  1  0
 23 24  1  0
 25 24  1  6
 25 26  1  0
 25 27  1  0
 26 16  1  0
 27 28  1  0
 29 27  2  0
M  END
$$$$
