SNQ.pdb
     RDKit          3D

 24 23  0  0  1  0  0  0  0  0999 V2000
   16.5230  -12.5303  -15.0413 O   0  0  0  0  0  0  0  0  0  0  0  0
   17.0855  -11.2913  -15.4024 C   0  0  0  0  0  0  0  0  0  0  0  0
   15.9420  -10.3918  -15.7741 C   0  0  2  0  0  0  0  0  0  0  0  0
   15.3939  -10.8665  -17.0370 N   0  0  0  0  0  0  0  0  0  0  0  0
   16.2968   -8.9770  -15.9223 C   0  0  0  0  0  0  0  0  0  0  0  0
   15.9225   -8.2473  -16.8756 O   0  0  0  0  0  0  0  0  0  0  0  0
   17.6656   -4.0111  -14.8542 N   0  0  0  0  0  0  0  0  0  0  0  0
   16.4164   -4.6700  -14.9225 C   0  0  0  0  0  0  0  0  0  0  0  0
   15.3950   -3.9303  -14.9803 O   0  0  0  0  0  0  0  0  0  0  0  0
   16.2125   -6.1171  -14.9321 C   0  0  0  0  0  0  0  0  0  0  0  0
   17.4674   -6.9411  -14.9839 C   0  0  2  0  0  0  0  0  0  0  0  0
   17.1287   -8.3258  -14.9378 N   0  0  0  0  0  0  0  0  0  0  0  0
   18.4716   -6.5491  -13.9738 C   0  0  0  0  0  0  0  0  0  0  0  0
   18.4358   -7.1185  -12.8536 O   0  0  0  0  0  0  0  0  0  0  0  0
   21.5477   -9.3319  -14.3297 N   0  0  0  0  0  0  0  0  0  0  0  0
   22.7733   -8.6668  -14.6782 C   0  0  0  0  0  0  0  0  0  0  0  0
   23.8947   -9.1970  -14.5156 O   0  0  0  0  0  0  0  0  0  0  0  0
   22.6544   -7.3012  -15.2492 C   0  0  0  0  0  0  0  0  0  0  0  0
   21.2014   -6.8830  -15.2595 C   0  0  0  0  0  0  0  0  0  0  0  0
   20.8953   -5.8948  -14.1630 C   0  0  2  0  0  0  0  0  0  0  0  0
   19.4765   -5.5721  -14.1799 N   0  0  0  0  0  0  0  0  0  0  0  0
   21.7235   -4.6776  -14.4646 C   0  0  0  0  0  0  0  0  0  0  0  0
   22.7519   -4.3964  -13.8400 O   0  0  0  0  0  0  0  0  0  0  0  0
   21.2817   -3.8609  -15.4942 O   0  0  0  0  0  0  0  0  0  0  0  0
  2  1  1  0
  2  3  1  0
  3  4  1  6
  5  3  1  0
  6  5  2  0
  7  8  1  0
  8  9  2  0
  8 10  1  0
 11 10  1  1
 11 12  1  0
 11 13  1  0
 12  5  1  0
 13 21  1  0
 13 14  2  0
 15 16  1  0
 16 18  1  0
 17 16  2  0
 19 18  1  0
 20 19  1  6
 21 20  1  0
 22 20  1  0
 22 24  1  0
 23 22  2  0
M  END
$$$$
