SNQ.pdb
     RDKit          3D

 24 23  0  0  1  0  0  0  0  0999 V2000
   13.8308  -13.4374  -10.9894 O   0  0  0  0  0  0  0  0  0  0  0  0
   13.9250  -12.0411  -11.1425 C   0  0  0  0  0  0  0  0  0  0  0  0
   13.5162  -11.4362   -9.8303 C   0  0  2  0  0  0  0  0  0  0  0  0
   12.1352  -11.8201   -9.5734 N   0  0  0  0  0  0  0  0  0  0  0  0
   13.6124   -9.9743   -9.7716 C   0  0  0  0  0  0  0  0  0  0  0  0
   12.6409   -9.2073   -9.5499 O   0  0  0  0  0  0  0  0  0  0  0  0
   15.3587   -5.0274   -9.4382 N   0  0  0  0  0  0  0  0  0  0  0  0
   14.8019   -5.9061   -8.4806 C   0  0  0  0  0  0  0  0  0  0  0  0
   14.3995   -5.3811   -7.4054 O   0  0  0  0  0  0  0  0  0  0  0  0
   14.6552   -7.3524   -8.6307 C   0  0  0  0  0  0  0  0  0  0  0  0
   15.0456   -7.9005   -9.9736 C   0  0  2  0  0  0  0  0  0  0  0  0
   14.8823   -9.3174   -9.9742 N   0  0  0  0  0  0  0  0  0  0  0  0
   16.3841   -7.4643  -10.4214 C   0  0  0  0  0  0  0  0  0  0  0  0
   17.3888   -8.0039   -9.8923 O   0  0  0  0  0  0  0  0  0  0  0  0
   19.4899   -9.5932  -13.7051 N   0  0  0  0  0  0  0  0  0  0  0  0
   18.2657   -9.1270  -14.2967 C   0  0  0  0  0  0  0  0  0  0  0  0
   17.7077   -9.7242  -15.2439 O   0  0  0  0  0  0  0  0  0  0  0  0
   17.6784   -7.8868  -13.7295 C   0  0  0  0  0  0  0  0  0  0  0  0
   18.5234   -7.4130  -12.5686 C   0  0  0  0  0  0  0  0  0  0  0  0
   17.9455   -6.1801  -11.9217 C   0  0  2  0  0  0  0  0  0  0  0  0
   16.6161   -6.4761  -11.4095 N   0  0  0  0  0  0  0  0  0  0  0  0
   17.8813   -5.1402  -13.0048 C   0  0  0  0  0  0  0  0  0  0  0  0
   16.8159   -4.7402  -13.4861 O   0  0  0  0  0  0  0  0  0  0  0  0
   19.0902   -4.6328  -13.4560 O   0  0  0  0  0  0  0  0  0  0  0  0
  2  1  1  0
  2  3  1  0
  3  4  1  6
  5  3  1  0
  6  5  2  0
  7  8  1  0
  8  9  2  0
  8 10  1  0
 11 10  1  1
 11 12  1  0
 11 13  1  0
 12  5  1  0
 13 21  1  0
 13 14  2  0
 15 16  1  0
 16 18  1  0
 17 16  2  0
 19 18  1  0
 20 19  1  6
 21 20  1  0
 22 20  1  0
 22 24  1  0
 23 22  2  0
M  END
$$$$
