SNQ.pdb
     RDKit          3D

 24 23  0  0  1  0  0  0  0  0999 V2000
   18.1968  -17.9035  -15.4146 O   0  0  0  0  0  0  0  0  0  0  0  0
   19.5121  -17.4038  -15.4622 C   0  0  0  0  0  0  0  0  0  0  0  0
   20.2826  -18.3079  -16.3807 C   0  0  2  0  0  0  0  0  0  0  0  0
   20.6419  -19.5035  -15.6310 N   0  0  0  0  0  0  0  0  0  0  0  0
   21.5059  -17.7208  -16.9362 C   0  0  0  0  0  0  0  0  0  0  0  0
   22.5006  -18.3860  -17.3227 O   0  0  0  0  0  0  0  0  0  0  0  0
   25.2620  -16.6019  -20.1561 N   0  0  0  0  0  0  0  0  0  0  0  0
   24.2041  -15.7754  -19.7124 C   0  0  0  0  0  0  0  0  0  0  0  0
   24.3343  -14.5373  -19.9221 O   0  0  0  0  0  0  0  0  0  0  0  0
   22.9884  -16.2296  -19.0405 C   0  0  0  0  0  0  0  0  0  0  0  0
   22.7563  -15.6502  -17.6742 C   0  0  2  0  0  0  0  0  0  0  0  0
   21.6320  -16.2887  -17.0721 N   0  0  0  0  0  0  0  0  0  0  0  0
   22.6665  -14.1757  -17.6672 C   0  0  0  0  0  0  0  0  0  0  0  0
   21.6427  -13.6439  -18.1668 O   0  0  0  0  0  0  0  0  0  0  0  0
   26.5391  -10.2260  -14.7601 N   0  0  0  0  0  0  0  0  0  0  0  0
   25.5789   -9.2669  -15.2333 C   0  0  0  0  0  0  0  0  0  0  0  0
   25.6621   -8.0470  -14.9689 O   0  0  0  0  0  0  0  0  0  0  0  0
   24.4642   -9.7899  -16.0633 C   0  0  0  0  0  0  0  0  0  0  0  0
   24.5775  -11.2937  -16.1713 C   0  0  0  0  0  0  0  0  0  0  0  0
   23.4445  -11.8848  -16.9709 C   0  0  2  0  0  0  0  0  0  0  0  0
   23.6575  -13.3149  -17.1346 N   0  0  0  0  0  0  0  0  0  0  0  0
   23.4720  -11.1850  -18.3007 C   0  0  0  0  0  0  0  0  0  0  0  0
   23.8952  -11.7212  -19.3303 O   0  0  0  0  0  0  0  0  0  0  0  0
   22.9935   -9.8841  -18.3319 O   0  0  0  0  0  0  0  0  0  0  0  0
  2  1  1  0
  2  3  1  0
  3  4  1  1
  5  3  1  0
  6  5  2  0
  7  8  1  0
  8  9  2  0
  8 10  1  0
 11 10  1  6
 11 12  1  0
 11 13  1  0
 12  5  1  0
 13 21  1  0
 13 14  2  0
 15 16  1  0
 16 18  1  0
 17 16  2  0
 19 18  1  0
 20 19  1  1
 21 20  1  0
 22 20  1  0
 22 24  1  0
 23 22  2  0
M  END
$$$$
