SNQ.pdb
     RDKit          3D

 24 23  0  0  1  0  0  0  0  0999 V2000
   16.5230  -10.3115  -17.5432 O   0  0  0  0  0  0  0  0  0  0  0  0
   16.6303   -9.9087  -16.1985 C   0  0  0  0  0  0  0  0  0  0  0  0
   18.0339  -10.2221  -15.7665 C   0  0  2  0  0  0  0  0  0  0  0  0
   18.1874  -11.6702  -15.7665 N   0  0  0  0  0  0  0  0  0  0  0  0
   18.3956   -9.7148  -14.4393 C   0  0  0  0  0  0  0  0  0  0  0  0
   18.1504  -10.3118  -13.3601 O   0  0  0  0  0  0  0  0  0  0  0  0
   20.5311   -6.4827  -10.7055 N   0  0  0  0  0  0  0  0  0  0  0  0
   21.1023   -6.3424  -11.9913 C   0  0  0  0  0  0  0  0  0  0  0  0
   22.1081   -5.5844  -12.0781 O   0  0  0  0  0  0  0  0  0  0  0  0
   20.6315   -6.9940  -13.2118 C   0  0  0  0  0  0  0  0  0  0  0  0
   19.4255   -7.8737  -13.0446 C   0  0  2  0  0  0  0  0  0  0  0  0
   19.0805   -8.4509  -14.3024 N   0  0  0  0  0  0  0  0  0  0  0  0
   18.2924   -7.1995  -12.3783 C   0  0  0  0  0  0  0  0  0  0  0  0
   17.6820   -6.3030  -13.0140 O   0  0  0  0  0  0  0  0  0  0  0  0
   13.8770   -9.5180   -9.1524 N   0  0  0  0  0  0  0  0  0  0  0  0
   13.5754   -8.1523   -8.8210 C   0  0  0  0  0  0  0  0  0  0  0  0
   12.5599   -7.8290   -8.1659 O   0  0  0  0  0  0  0  0  0  0  0  0
   14.5335   -7.1216   -9.2949 C   0  0  0  0  0  0  0  0  0  0  0  0
   15.7204   -7.7962   -9.9448 C   0  0  0  0  0  0  0  0  0  0  0  0
   16.7279   -6.7941  -10.4479 C   0  0  2  0  0  0  0  0  0  0  0  0
   17.8435   -7.4936  -11.0672 N   0  0  0  0  0  0  0  0  0  0  0  0
   17.1834   -6.0274   -9.2383 C   0  0  0  0  0  0  0  0  0  0  0  0
   18.2732   -6.2266   -8.6911 O   0  0  0  0  0  0  0  0  0  0  0  0
   16.3157   -5.0646   -8.7458 O   0  0  0  0  0  0  0  0  0  0  0  0
  2  1  1  0
  2  3  1  0
  3  4  1  1
  5  3  1  0
  6  5  2  0
  7  8  1  0
  8  9  2  0
  8 10  1  0
 11 10  1  6
 11 12  1  0
 11 13  1  0
 12  5  1  0
 13 21  1  0
 13 14  2  0
 15 16  1  0
 16 18  1  0
 17 16  2  0
 19 18  1  0
 20 19  1  1
 21 20  1  0
 22 20  1  0
 22 24  1  0
 23 22  2  0
M  END
$$$$
