SNQ.pdb
     RDKit          3D

 24 23  0  0  1  0  0  0  0  0999 V2000
   18.5933  -11.0034  -17.9833 O   0  0  0  0  0  0  0  0  0  0  0  0
   18.8392  -10.1305  -16.9065 C   0  0  0  0  0  0  0  0  0  0  0  0
   19.0449   -8.7656  -17.4977 C   0  0  2  0  0  0  0  0  0  0  0  0
   20.2492   -8.8108  -18.3150 N   0  0  0  0  0  0  0  0  0  0  0  0
   19.1881   -7.6863  -16.5157 C   0  0  0  0  0  0  0  0  0  0  0  0
   18.3139   -7.3796  -15.6653 O   0  0  0  0  0  0  0  0  0  0  0  0
   21.5096   -4.1069  -13.3267 N   0  0  0  0  0  0  0  0  0  0  0  0
   22.2047   -5.2980  -13.6384 C   0  0  0  0  0  0  0  0  0  0  0  0
   23.2201   -5.5552  -12.9337 O   0  0  0  0  0  0  0  0  0  0  0  0
   21.8495   -6.2438  -14.6944 C   0  0  0  0  0  0  0  0  0  0  0  0
   20.6362   -5.8783  -15.5010 C   0  0  2  0  0  0  0  0  0  0  0  0
   20.3919   -6.8897  -16.4765 N   0  0  0  0  0  0  0  0  0  0  0  0
   20.6957   -4.5165  -16.0704 C   0  0  0  0  0  0  0  0  0  0  0  0
   20.9073   -3.5571  -15.2860 O   0  0  0  0  0  0  0  0  0  0  0  0
   16.6894   -1.5681  -18.7520 N   0  0  0  0  0  0  0  0  0  0  0  0
   17.0477   -2.7920  -19.4149 C   0  0  0  0  0  0  0  0  0  0  0  0
   16.2494   -3.4172  -20.1477 O   0  0  0  0  0  0  0  0  0  0  0  0
   18.4270   -3.2945  -19.1921 C   0  0  0  0  0  0  0  0  0  0  0  0
   19.1437   -2.3872  -18.2178 C   0  0  0  0  0  0  0  0  0  0  0  0
   20.5533   -2.8514  -17.9533 C   0  0  2  0  0  0  0  0  0  0  0  0
   20.5302   -4.2144  -17.4445 N   0  0  0  0  0  0  0  0  0  0  0  0
   21.1103   -1.9070  -16.9254 C   0  0  0  0  0  0  0  0  0  0  0  0
   21.9987   -1.0873  -17.1816 O   0  0  0  0  0  0  0  0  0  0  0  0
   20.5786   -1.9902  -15.6476 O   0  0  0  0  0  0  0  0  0  0  0  0
  2  1  1  0
  2  3  1  0
  3  4  1  1
  5  3  1  0
  6  5  2  0
  7  8  1  0
  8  9  2  0
  8 10  1  0
 11 10  1  6
 11 12  1  0
 11 13  1  0
 12  5  1  0
 13 21  1  0
 13 14  2  0
 15 16  1  0
 16 18  1  0
 17 16  2  0
 19 18  1  0
 20 19  1  1
 21 20  1  0
 22 20  1  0
 22 24  1  0
 23 22  2  0
M  END
$$$$
