SNQ.pdb
     RDKit          3D

 24 23  0  0  1  0  0  0  0  0999 V2000
   15.1972  -13.2937  -16.2688 O   0  0  0  0  0  0  0  0  0  0  0  0
   15.5700  -12.7769  -15.0135 C   0  0  0  0  0  0  0  0  0  0  0  0
   15.3396  -11.2943  -15.0732 C   0  0  2  0  0  0  0  0  0  0  0  0
   15.8245  -10.8194  -16.3616 N   0  0  0  0  0  0  0  0  0  0  0  0
   16.0021  -10.5268  -14.0140 C   0  0  0  0  0  0  0  0  0  0  0  0
   15.9339  -10.8024  -12.7890 O   0  0  0  0  0  0  0  0  0  0  0  0
   20.9223   -7.1002  -13.0667 N   0  0  0  0  0  0  0  0  0  0  0  0
   19.5110   -7.1090  -13.1519 C   0  0  0  0  0  0  0  0  0  0  0  0
   18.8992   -6.2960  -12.4046 O   0  0  0  0  0  0  0  0  0  0  0  0
   18.7124   -7.9696  -14.0222 C   0  0  0  0  0  0  0  0  0  0  0  0
   17.5167   -8.6058  -13.3726 C   0  0  2  0  0  0  0  0  0  0  0  0
   16.7992   -9.3680  -14.3414 N   0  0  0  0  0  0  0  0  0  0  0  0
   16.6682   -7.6479  -12.6345 C   0  0  0  0  0  0  0  0  0  0  0  0
   16.0017   -6.8149  -13.2996 O   0  0  0  0  0  0  0  0  0  0  0  0
   12.8293   -8.7018   -8.3308 N   0  0  0  0  0  0  0  0  0  0  0  0
   12.6651   -7.2739   -8.3196 C   0  0  0  0  0  0  0  0  0  0  0  0
   11.7096   -6.7126   -7.7393 O   0  0  0  0  0  0  0  0  0  0  0  0
   13.6924   -6.4768   -9.0366 C   0  0  0  0  0  0  0  0  0  0  0  0
   14.6853   -7.4078   -9.6950 C   0  0  0  0  0  0  0  0  0  0  0  0
   15.6815   -6.6567  -10.5411 C   0  0  2  0  0  0  0  0  0  0  0  0
   16.5523   -7.6020  -11.2234 N   0  0  0  0  0  0  0  0  0  0  0  0
   16.4660   -5.7998   -9.5879 C   0  0  0  0  0  0  0  0  0  0  0  0
   17.4949   -6.1919   -9.0272 O   0  0  0  0  0  0  0  0  0  0  0  0
   15.9823   -4.5216   -9.3541 O   0  0  0  0  0  0  0  0  0  0  0  0
  2  1  1  0
  2  3  1  0
  3  4  1  6
  5  3  1  0
  6  5  2  0
  7  8  1  0
  8  9  2  0
  8 10  1  0
 11 10  1  6
 11 12  1  0
 11 13  1  0
 12  5  1  0
 13 21  1  0
 13 14  2  0
 15 16  1  0
 16 18  1  0
 17 16  2  0
 19 18  1  0
 20 19  1  1
 21 20  1  0
 22 20  1  0
 22 24  1  0
 23 22  2  0
M  END
$$$$
