SNQ.pdb
     RDKit          3D

 24 23  0  0  1  0  0  0  0  0999 V2000
   17.8249  -13.4301  -15.7733 O   0  0  0  0  0  0  0  0  0  0  0  0
   18.3733  -12.6078  -14.7709 C   0  0  0  0  0  0  0  0  0  0  0  0
   17.8760  -11.2160  -15.0366 C   0  0  2  0  0  0  0  0  0  0  0  0
   18.2198  -10.8745  -16.4097 N   0  0  0  0  0  0  0  0  0  0  0  0
   18.4263  -10.1874  -14.1485 C   0  0  0  0  0  0  0  0  0  0  0  0
   18.3207  -10.2008  -12.8955 O   0  0  0  0  0  0  0  0  0  0  0  0
   21.1390   -5.8258  -12.5770 N   0  0  0  0  0  0  0  0  0  0  0  0
   21.5443   -6.3448  -13.8282 C   0  0  0  0  0  0  0  0  0  0  0  0
   22.5542   -5.8042  -14.3588 O   0  0  0  0  0  0  0  0  0  0  0  0
   20.8998   -7.4412  -14.5483 C   0  0  0  0  0  0  0  0  0  0  0  0
   19.6647   -7.9966  -13.8984 C   0  0  2  0  0  0  0  0  0  0  0  0
   19.1471   -9.0612  -14.6939 N   0  0  0  0  0  0  0  0  0  0  0  0
   18.6577   -6.9666  -13.5705 C   0  0  0  0  0  0  0  0  0  0  0  0
   17.9625   -6.5005  -14.5085 O   0  0  0  0  0  0  0  0  0  0  0  0
   14.9344   -7.3211   -8.1350 N   0  0  0  0  0  0  0  0  0  0  0  0
   16.1215   -6.7306   -8.6901 C   0  0  0  0  0  0  0  0  0  0  0  0
   17.0823   -6.3602   -7.9797 O   0  0  0  0  0  0  0  0  0  0  0  0
   16.1636   -6.5747  -10.1661 C   0  0  0  0  0  0  0  0  0  0  0  0
   17.0890   -5.4347  -10.5273 C   0  0  0  0  0  0  0  0  0  0  0  0
   17.4296   -5.4336  -11.9957 C   0  0  2  0  0  0  0  0  0  0  0  0
   18.4195   -6.4650  -12.2672 N   0  0  0  0  0  0  0  0  0  0  0  0
   17.9869   -4.0686  -12.2867 C   0  0  0  0  0  0  0  0  0  0  0  0
   19.1477   -3.8873  -12.6693 O   0  0  0  0  0  0  0  0  0  0  0  0
   17.1308   -2.9929  -12.1060 O   0  0  0  0  0  0  0  0  0  0  0  0
  2  1  1  0
  2  3  1  0
  3  4  1  6
  5  3  1  0
  6  5  2  0
  7  8  1  0
  8  9  2  0
  8 10  1  0
 11 10  1  6
 11 12  1  0
 11 13  1  0
 12  5  1  0
 13 21  1  0
 13 14  2  0
 15 16  1  0
 16 18  1  0
 17 16  2  0
 19 18  1  0
 20 19  1  1
 21 20  1  0
 22 20  1  0
 22 24  1  0
 23 22  2  0
M  END
$$$$
