SNQ.pdb
     RDKit          3D

 24 23  0  0  1  0  0  0  0  0999 V2000
   25.5511  -12.8016  -17.4538 O   0  0  0  0  0  0  0  0  0  0  0  0
   24.3070  -12.2144  -17.7528 C   0  0  0  0  0  0  0  0  0  0  0  0
   24.2782  -10.8871  -17.0512 C   0  0  2  0  0  0  0  0  0  0  0  0
   24.4641  -11.1313  -15.6277 N   0  0  0  0  0  0  0  0  0  0  0  0
   23.0411  -10.1220  -17.2354 C   0  0  0  0  0  0  0  0  0  0  0  0
   22.6033   -9.7377  -18.3498 O   0  0  0  0  0  0  0  0  0  0  0  0
   19.2314  -11.2310  -17.3188 N   0  0  0  0  0  0  0  0  0  0  0  0
   19.1818  -10.8770  -15.9509 C   0  0  0  0  0  0  0  0  0  0  0  0
   18.3772  -11.5316  -15.2313 O   0  0  0  0  0  0  0  0  0  0  0  0
   19.9746   -9.8302  -15.3094 C   0  0  0  0  0  0  0  0  0  0  0  0
   20.9557   -9.1292  -16.2052 C   0  0  2  0  0  0  0  0  0  0  0  0
   22.2314   -9.7577  -16.0965 N   0  0  0  0  0  0  0  0  0  0  0  0
   21.0027   -7.6674  -15.9975 C   0  0  0  0  0  0  0  0  0  0  0  0
   21.6939   -7.2282  -15.0437 O   0  0  0  0  0  0  0  0  0  0  0  0
   21.2164   -3.3466  -20.1607 N   0  0  0  0  0  0  0  0  0  0  0  0
   21.2074   -2.4785  -19.0152 C   0  0  0  0  0  0  0  0  0  0  0  0
   21.4321   -1.2508  -19.1014 O   0  0  0  0  0  0  0  0  0  0  0  0
   20.9158   -3.1069  -17.7019 C   0  0  0  0  0  0  0  0  0  0  0  0
   20.7208   -4.5948  -17.8862 C   0  0  0  0  0  0  0  0  0  0  0  0
   20.4256   -5.2871  -16.5800 C   0  0  2  0  0  0  0  0  0  0  0  0
   20.3203   -6.7214  -16.8014 N   0  0  0  0  0  0  0  0  0  0  0  0
   19.1169   -4.7227  -16.1030 C   0  0  0  0  0  0  0  0  0  0  0  0
   18.0481   -5.3344  -16.2037 O   0  0  0  0  0  0  0  0  0  0  0  0
   19.1524   -3.4599  -15.5318 O   0  0  0  0  0  0  0  0  0  0  0  0
  2  1  1  0
  2  3  1  0
  3  4  1  1
  5  3  1  0
  6  5  2  0
  7  8  1  0
  8  9  2  0
  8 10  1  0
 11 10  1  1
 11 12  1  0
 11 13  1  0
 12  5  1  0
 13 21  1  0
 13 14  2  0
 15 16  1  0
 16 18  1  0
 17 16  2  0
 19 18  1  0
 20 19  1  6
 21 20  1  0
 22 20  1  0
 22 24  1  0
 23 22  2  0
M  END
$$$$
