SNQ.pdb
     RDKit          3D

 24 23  0  0  1  0  0  0  0  0999 V2000
   16.3554  -14.3031  -16.5036 O   0  0  0  0  0  0  0  0  0  0  0  0
   17.1009  -13.6189  -15.5249 C   0  0  0  0  0  0  0  0  0  0  0  0
   16.2918  -12.4171  -15.1301 C   0  0  2  0  0  0  0  0  0  0  0  0
   16.0923  -11.6034  -16.3212 N   0  0  0  0  0  0  0  0  0  0  0  0
   16.9010  -11.5811  -14.0910 C   0  0  0  0  0  0  0  0  0  0  0  0
   17.1001  -11.9534  -12.9065 O   0  0  0  0  0  0  0  0  0  0  0  0
   21.1872   -8.0494  -12.7100 N   0  0  0  0  0  0  0  0  0  0  0  0
   19.9506   -7.8110  -13.3527 C   0  0  0  0  0  0  0  0  0  0  0  0
   19.4605   -6.6559  -13.2143 O   0  0  0  0  0  0  0  0  0  0  0  0
   19.2030   -8.7780  -14.1538 C   0  0  0  0  0  0  0  0  0  0  0  0
   18.0201   -9.4003  -13.4684 C   0  0  2  0  0  0  0  0  0  0  0  0
   17.3196  -10.2321  -14.3913 N   0  0  0  0  0  0  0  0  0  0  0  0
   17.1510   -8.4194  -12.7867 C   0  0  0  0  0  0  0  0  0  0  0  0
   16.3471   -7.7547  -13.4883 O   0  0  0  0  0  0  0  0  0  0  0  0
   13.7864   -8.9853   -8.2459 N   0  0  0  0  0  0  0  0  0  0  0  0
   13.8025   -7.5620   -8.0462 C   0  0  0  0  0  0  0  0  0  0  0  0
   12.9355   -6.9696   -7.3663 O   0  0  0  0  0  0  0  0  0  0  0  0
   14.9084   -6.8086   -8.6898 C   0  0  0  0  0  0  0  0  0  0  0  0
   15.8197   -7.7718   -9.4165 C   0  0  0  0  0  0  0  0  0  0  0  0
   16.2487   -7.2334  -10.7575 C   0  0  2  0  0  0  0  0  0  0  0  0
   17.1601   -8.1740  -11.3915 N   0  0  0  0  0  0  0  0  0  0  0  0
   16.9393   -5.9290  -10.4741 C   0  0  0  0  0  0  0  0  0  0  0  0
   18.1369   -5.8563  -10.1786 O   0  0  0  0  0  0  0  0  0  0  0  0
   16.1657   -4.7815  -10.5582 O   0  0  0  0  0  0  0  0  0  0  0  0
  2  1  1  0
  2  3  1  0
  3  4  1  6
  5  3  1  0
  6  5  2  0
  7  8  1  0
  8  9  2  0
  8 10  1  0
 11 10  1  6
 11 12  1  0
 11 13  1  0
 12  5  1  0
 13 21  1  0
 13 14  2  0
 15 16  1  0
 16 18  1  0
 17 16  2  0
 19 18  1  0
 20 19  1  1
 21 20  1  0
 22 20  1  0
 22 24  1  0
 23 22  2  0
M  END
$$$$
