SNQ.pdb
     RDKit          3D

 24 23  0  0  1  0  0  0  0  0999 V2000
   18.2111  -12.6831  -16.6341 O   0  0  0  0  0  0  0  0  0  0  0  0
   18.1307  -13.3154  -17.8892 C   0  0  0  0  0  0  0  0  0  0  0  0
   19.4867  -13.1892  -18.5220 C   0  0  2  0  0  0  0  0  0  0  0  0
   20.4494  -13.8435  -17.6470 N   0  0  0  0  0  0  0  0  0  0  0  0
   19.9297  -11.8111  -18.7549 C   0  0  0  0  0  0  0  0  0  0  0  0
   21.0724  -11.3741  -18.4644 O   0  0  0  0  0  0  0  0  0  0  0  0
   17.8987   -9.9140  -23.0424 N   0  0  0  0  0  0  0  0  0  0  0  0
   18.8544   -9.5313  -22.0731 C   0  0  0  0  0  0  0  0  0  0  0  0
   20.0665   -9.6935  -22.3865 O   0  0  0  0  0  0  0  0  0  0  0  0
   18.5592   -8.9704  -20.7563 C   0  0  0  0  0  0  0  0  0  0  0  0
   19.4027   -9.4980  -19.6309 C   0  0  2  0  0  0  0  0  0  0  0  0
   19.0362  -10.8484  -19.3551 N   0  0  0  0  0  0  0  0  0  0  0  0
   19.3960   -8.6324  -18.4339 C   0  0  0  0  0  0  0  0  0  0  0  0
   18.5028   -8.8253  -17.5705 O   0  0  0  0  0  0  0  0  0  0  0  0
   21.6535   -9.6080  -13.9862 N   0  0  0  0  0  0  0  0  0  0  0  0
   21.4099   -8.2795  -13.4946 C   0  0  0  0  0  0  0  0  0  0  0  0
   21.4976   -7.9859  -12.2818 O   0  0  0  0  0  0  0  0  0  0  0  0
   21.0434   -7.2507  -14.5006 C   0  0  0  0  0  0  0  0  0  0  0  0
   20.9295   -7.8952  -15.8636 C   0  0  0  0  0  0  0  0  0  0  0  0
   20.4320   -6.9232  -16.9030 C   0  0  2  0  0  0  0  0  0  0  0  0
   20.3297   -7.5954  -18.1895 N   0  0  0  0  0  0  0  0  0  0  0  0
   21.4524   -5.8211  -16.9559 C   0  0  0  0  0  0  0  0  0  0  0  0
   22.3330   -5.7654  -17.8208 O   0  0  0  0  0  0  0  0  0  0  0  0
   21.3683   -4.8446  -15.9751 O   0  0  0  0  0  0  0  0  0  0  0  0
  2  1  1  0
  2  3  1  0
  3  4  1  1
  5  3  1  0
  6  5  2  0
  7  8  1  0
  8  9  2  0
  8 10  1  0
 11 10  1  6
 11 12  1  0
 11 13  1  0
 12  5  1  0
 13 21  1  0
 13 14  2  0
 15 16  1  0
 16 18  1  0
 17 16  2  0
 19 18  1  0
 20 19  1  1
 21 20  1  0
 22 20  1  0
 22 24  1  0
 23 22  2  0
M  END
$$$$
