SNQ.pdb
     RDKit          3D

 24 23  0  0  1  0  0  0  0  0999 V2000
   17.5761  -13.1694  -15.9621 O   0  0  0  0  0  0  0  0  0  0  0  0
   18.9206  -12.7892  -15.7903 C   0  0  0  0  0  0  0  0  0  0  0  0
   19.0731  -11.4433  -16.4386 C   0  0  2  0  0  0  0  0  0  0  0  0
   19.3803  -11.6587  -17.8457 N   0  0  0  0  0  0  0  0  0  0  0  0
   20.1195  -10.5967  -15.8572 C   0  0  0  0  0  0  0  0  0  0  0  0
   20.1132  -10.1725  -14.6735 O   0  0  0  0  0  0  0  0  0  0  0  0
   24.5832   -9.1587  -19.0201 N   0  0  0  0  0  0  0  0  0  0  0  0
   23.6719   -9.8458  -18.1855 C   0  0  0  0  0  0  0  0  0  0  0  0
   22.8497  -10.6101  -18.7630 O   0  0  0  0  0  0  0  0  0  0  0  0
   23.6043   -9.7463  -16.7290 C   0  0  0  0  0  0  0  0  0  0  0  0
   22.2757   -9.3145  -16.1769 C   0  0  2  0  0  0  0  0  0  0  0  0
   21.2564  -10.1925  -16.6505 N   0  0  0  0  0  0  0  0  0  0  0  0
   21.9760   -7.8872  -16.4118 C   0  0  0  0  0  0  0  0  0  0  0  0
   21.4509   -7.5667  -17.5082 O   0  0  0  0  0  0  0  0  0  0  0  0
   17.5094   -5.8540  -15.2299 N   0  0  0  0  0  0  0  0  0  0  0  0
   17.9727   -4.5127  -15.4581 C   0  0  0  0  0  0  0  0  0  0  0  0
   17.1914   -3.5414  -15.5636 O   0  0  0  0  0  0  0  0  0  0  0  0
   19.4413   -4.3214  -15.5657 C   0  0  0  0  0  0  0  0  0  0  0  0
   20.1376   -5.6530  -15.3982 C   0  0  0  0  0  0  0  0  0  0  0  0
   21.6282   -5.5335  -15.5889 C   0  0  2  0  0  0  0  0  0  0  0  0
   22.2400   -6.8496  -15.4843 N   0  0  0  0  0  0  0  0  0  0  0  0
   22.1116   -4.6307  -14.4889 C   0  0  0  0  0  0  0  0  0  0  0  0
   22.4874   -5.0556  -13.3912 O   0  0  0  0  0  0  0  0  0  0  0  0
   22.1211   -3.2703  -14.7563 O   0  0  0  0  0  0  0  0  0  0  0  0
  2  1  1  0
  2  3  1  0
  3  4  1  6
  5  3  1  0
  6  5  2  0
  7  8  1  0
  8  9  2  0
  8 10  1  0
 11 10  1  6
 11 12  1  0
 11 13  1  0
 12  5  1  0
 13 21  1  0
 13 14  2  0
 15 16  1  0
 16 18  1  0
 17 16  2  0
 19 18  1  0
 20 19  1  1
 21 20  1  0
 22 20  1  0
 22 24  1  0
 23 22  2  0
M  END
$$$$
