SNQ.pdb
     RDKit          3D

 24 23  0  0  1  0  0  0  0  0999 V2000
   19.1687  -23.7492  -14.4281 O   0  0  0  0  0  0  0  0  0  0  0  0
   19.9806  -22.6776  -14.8458 C   0  0  0  0  0  0  0  0  0  0  0  0
   20.6349  -22.1272  -13.6113 C   0  0  2  0  0  0  0  0  0  0  0  0
   19.6086  -21.4599  -12.8228 N   0  0  0  0  0  0  0  0  0  0  0  0
   21.7209  -21.1753  -13.8645 C   0  0  0  0  0  0  0  0  0  0  0  0
   21.5497  -19.9659  -14.1632 O   0  0  0  0  0  0  0  0  0  0  0  0
   25.7400  -22.5070  -11.1726 N   0  0  0  0  0  0  0  0  0  0  0  0
   25.4553  -21.3686  -11.9613 C   0  0  0  0  0  0  0  0  0  0  0  0
   25.1871  -20.3057  -11.3352 O   0  0  0  0  0  0  0  0  0  0  0  0
   25.4465  -21.3209  -13.4220 C   0  0  0  0  0  0  0  0  0  0  0  0
   24.2059  -20.7386  -14.0370 C   0  0  2  0  0  0  0  0  0  0  0  0
   23.0986  -21.5997  -13.7789 N   0  0  0  0  0  0  0  0  0  0  0  0
   24.3618  -20.3959  -15.4655 C   0  0  0  0  0  0  0  0  0  0  0  0
   24.4421  -21.3383  -16.2936 O   0  0  0  0  0  0  0  0  0  0  0  0
   21.9015  -20.2707  -19.0672 N   0  0  0  0  0  0  0  0  0  0  0  0
   22.0749  -19.0525  -19.8101 C   0  0  0  0  0  0  0  0  0  0  0  0
   21.7759  -18.9562  -21.0210 O   0  0  0  0  0  0  0  0  0  0  0  0
   22.6327  -17.8919  -19.0708 C   0  0  0  0  0  0  0  0  0  0  0  0
   22.8523  -18.2727  -17.6242 C   0  0  0  0  0  0  0  0  0  0  0  0
   24.2558  -18.7666  -17.3818 C   0  0  2  0  0  0  0  0  0  0  0  0
   24.4274  -19.0737  -15.9699 N   0  0  0  0  0  0  0  0  0  0  0  0
   25.1636  -17.6438  -17.7984 C   0  0  0  0  0  0  0  0  0  0  0  0
   25.2805  -17.2785  -18.9730 O   0  0  0  0  0  0  0  0  0  0  0  0
   25.8834  -17.0166  -16.7929 O   0  0  0  0  0  0  0  0  0  0  0  0
  2  1  1  0
  2  3  1  0
  3  4  1  1
  5  3  1  0
  6  5  2  0
  7  8  1  0
  8  9  2  0
  8 10  1  0
 11 10  1  6
 11 12  1  0
 11 13  1  0
 12  5  1  0
 13 21  1  0
 13 14  2  0
 15 16  1  0
 16 18  1  0
 17 16  2  0
 19 18  1  0
 20 19  1  1
 21 20  1  0
 22 20  1  0
 22 24  1  0
 23 22  2  0
M  END
$$$$
