SNQ.pdb
     RDKit          3D

 24 23  0  0  1  0  0  0  0  0999 V2000
   27.5474  -29.0777  -19.0937 O   0  0  0  0  0  0  0  0  0  0  0  0
   27.1499  -27.7677  -18.7655 C   0  0  0  0  0  0  0  0  0  0  0  0
   28.0738  -27.2974  -17.6791 C   0  0  2  0  0  0  0  0  0  0  0  0
   28.3901  -28.4421  -16.8365 N   0  0  0  0  0  0  0  0  0  0  0  0
   27.5324  -26.2302  -16.8319 C   0  0  0  0  0  0  0  0  0  0  0  0
   27.4755  -26.2802  -15.5767 O   0  0  0  0  0  0  0  0  0  0  0  0
   29.2229  -23.3221  -15.6559 N   0  0  0  0  0  0  0  0  0  0  0  0
   28.5664  -22.4661  -16.5700 C   0  0  0  0  0  0  0  0  0  0  0  0
   29.2127  -21.4504  -16.9499 O   0  0  0  0  0  0  0  0  0  0  0  0
   27.2199  -22.6575  -17.1046 C   0  0  0  0  0  0  0  0  0  0  0  0
   26.5277  -23.9155  -16.6634 C   0  0  2  0  0  0  0  0  0  0  0  0
   27.0164  -25.0185  -17.4242 N   0  0  0  0  0  0  0  0  0  0  0  0
   25.0543  -23.8088  -16.6654 C   0  0  0  0  0  0  0  0  0  0  0  0
   24.4725  -23.6854  -17.7730 O   0  0  0  0  0  0  0  0  0  0  0  0
   21.2131  -25.4020  -12.1148 N   0  0  0  0  0  0  0  0  0  0  0  0
   20.5083  -25.7528  -13.3173 C   0  0  0  0  0  0  0  0  0  0  0  0
   19.5085  -26.5047  -13.3144 O   0  0  0  0  0  0  0  0  0  0  0  0
   21.0224  -25.1775  -14.5860 C   0  0  0  0  0  0  0  0  0  0  0  0
   22.1972  -24.2727  -14.2908 C   0  0  0  0  0  0  0  0  0  0  0  0
   22.7988  -23.7064  -15.5517 C   0  0  2  0  0  0  0  0  0  0  0  0
   24.2472  -23.8360  -15.5015 N   0  0  0  0  0  0  0  0  0  0  0  0
   22.3928  -22.2599  -15.5863 C   0  0  0  0  0  0  0  0  0  0  0  0
   23.1639  -21.3412  -15.2897 O   0  0  0  0  0  0  0  0  0  0  0  0
   21.0896  -21.9860  -15.9727 O   0  0  0  0  0  0  0  0  0  0  0  0
  2  1  1  0
  2  3  1  0
  3  4  1  1
  5  3  1  0
  6  5  2  0
  7  8  1  0
  8  9  2  0
  8 10  1  0
 11 10  1  6
 11 12  1  0
 11 13  1  0
 12  5  1  0
 13 21  1  0
 13 14  2  0
 15 16  1  0
 16 18  1  0
 17 16  2  0
 19 18  1  0
 20 19  1  1
 21 20  1  0
 22 20  1  0
 22 24  1  0
 23 22  2  0
M  END
$$$$
