YGW.pdb
     RDKit          3D

 31 33  0  0  1  0  0  0  0  0999 V2000
   20.8818  -30.4919  -14.9770 O   0  0  0  0  0  0  0  0  0  0  0  0
   20.9566  -29.1476  -14.6576 C   0  0  0  0  0  0  0  0  0  0  0  0
   20.8150  -28.1657  -15.6087 C   0  0  0  0  0  0  0  0  0  0  0  0
   20.8891  -26.8366  -15.2920 C   0  0  0  0  0  0  0  0  0  0  0  0
   21.1126  -26.4998  -13.9771 C   0  0  0  0  0  0  0  0  0  0  0  0
   21.2031  -25.0713  -13.5808 C   0  0  0  0  0  0  0  0  0  0  0  0
   22.3949  -24.3943  -14.2252 C   0  0  2  0  0  0  0  0  0  0  0  0
   23.6363  -25.0105  -13.8701 N   0  0  0  0  0  0  0  0  0  0  0  0
   22.4236  -22.9436  -13.9590 C   0  0  0  0  0  0  0  0  0  0  0  0
   21.4363  -22.2300  -14.3212 O   0  0  0  0  0  0  0  0  0  0  0  0
   21.2575  -27.4897  -13.0055 C   0  0  0  0  0  0  0  0  0  0  0  0
   21.1825  -28.8256  -13.3264 C   0  0  0  0  0  0  0  0  0  0  0  0
   23.4871  -22.2731  -13.3186 N   0  0  0  0  0  0  0  0  0  0  0  0
   23.4862  -20.8290  -13.1150 C   0  0  0  0  0  0  0  0  0  0  0  0
   24.8416  -20.3584  -12.7062 C   0  0  0  0  0  0  0  0  0  0  0  0
   24.9944  -19.1465  -12.4430 O   0  0  0  0  0  0  0  0  0  0  0  0
   25.9501  -21.2270  -12.6066 N   0  0  0  0  0  0  0  0  0  0  0  0
   27.3225  -20.8157  -12.3715 C   0  0  1  0  0  0  0  0  0  0  0  0
   27.7785  -21.4084  -11.0914 C   0  0  0  0  0  0  0  0  0  0  0  0
   27.1470  -20.9478   -9.8639 C   0  0  0  0  0  0  0  0  0  0  0  0
   25.8069  -20.6124   -9.6340 C   0  0  0  0  0  0  0  0  0  0  0  0
   25.6558  -20.2139   -8.3830 N   0  0  0  0  0  0  0  0  0  0  0  0
   26.8375  -20.2544   -7.7165 C   0  0  0  0  0  0  0  0  0  0  0  0
   27.1341  -19.9416   -6.4072 C   0  0  0  0  0  0  0  0  0  0  0  0
   28.4351  -20.0921   -5.9811 C   0  0  0  0  0  0  0  0  0  0  0  0
   29.4058  -20.5514   -6.8750 C   0  0  0  0  0  0  0  0  0  0  0  0
   29.0675  -20.8492   -8.1642 C   0  0  0  0  0  0  0  0  0  0  0  0
   27.7653  -20.7099   -8.6329 C   0  0  0  0  0  0  0  0  0  0  0  0
   28.2076  -20.8669  -13.5178 C   0  0  0  0  0  0  0  0  0  0  0  0
   27.8298  -21.2472  -14.6470 O   0  0  0  0  0  0  0  0  0  0  0  0
   29.5355  -20.4864  -13.4197 O   0  0  0  0  0  0  0  0  0  0  0  0
  2  1  1  0
  3  2  2  0
  4  3  1  0
  5  4  2  0
  5 11  1  0
  6  5  1  0
  7  9  1  0
  7  8  1  1
  7  6  1  0
  9 13  1  0
 10  9  2  0
 11 12  2  0
 12  2  1  0
 13 14  1  0
 15 14  1  0
 16 15  2  0
 17 15  1  0
 18 19  1  1
 18 17  1  0
 19 20  1  0
 20 21  2  0
 21 22  1  0
 23 22  1  0
 24 23  2  0
 25 24  1  0
 26 27  1  0
 26 25  2  0
 27 28  2  0
 28 20  1  0
 28 23  1  0
 29 18  1  0
 29 31  1  0
 30 29  2  0
M  END
$$$$
