YGW.pdb
     RDKit          3D

 31 33  0  0  1  0  0  0  0  0999 V2000
   35.7938  -26.6615  -14.9268 O   0  0  0  0  0  0  0  0  0  0  0  0
   34.8697  -25.6412  -14.7867 C   0  0  0  0  0  0  0  0  0  0  0  0
   34.4774  -25.1801  -13.5529 C   0  0  0  0  0  0  0  0  0  0  0  0
   33.5635  -24.1712  -13.4153 C   0  0  0  0  0  0  0  0  0  0  0  0
   33.0369  -23.6192  -14.5601 C   0  0  0  0  0  0  0  0  0  0  0  0
   32.0401  -22.5223  -14.4658 C   0  0  0  0  0  0  0  0  0  0  0  0
   30.6246  -23.0544  -14.5503 C   0  0  2  0  0  0  0  0  0  0  0  0
   30.3698  -23.7489  -15.7748 N   0  0  0  0  0  0  0  0  0  0  0  0
   29.6181  -22.0019  -14.3141 C   0  0  0  0  0  0  0  0  0  0  0  0
   29.6930  -21.3027  -13.2554 O   0  0  0  0  0  0  0  0  0  0  0  0
   33.4293  -24.0810  -15.8162 C   0  0  0  0  0  0  0  0  0  0  0  0
   34.3486  -25.0957  -15.9520 C   0  0  0  0  0  0  0  0  0  0  0  0
   28.5553  -21.7058  -15.1935 N   0  0  0  0  0  0  0  0  0  0  0  0
   27.5716  -20.6687  -14.9037 C   0  0  0  0  0  0  0  0  0  0  0  0
   26.5714  -21.1603  -13.9119 C   0  0  0  0  0  0  0  0  0  0  0  0
   26.5764  -22.3743  -13.6162 O   0  0  0  0  0  0  0  0  0  0  0  0
   25.6260  -20.3091  -13.2997 N   0  0  0  0  0  0  0  0  0  0  0  0
   24.5652  -20.7358  -12.4048 C   0  0  1  0  0  0  0  0  0  0  0  0
   24.6444  -19.9295  -11.1633 C   0  0  0  0  0  0  0  0  0  0  0  0
   23.6679  -20.1918  -10.1168 C   0  0  0  0  0  0  0  0  0  0  0  0
   23.8403  -20.8577   -8.8969 C   0  0  0  0  0  0  0  0  0  0  0  0
   22.6900  -20.9031   -8.2478 N   0  0  0  0  0  0  0  0  0  0  0  0
   21.7082  -20.2942   -8.9603 C   0  0  0  0  0  0  0  0  0  0  0  0
   20.3767  -20.1017   -8.6602 C   0  0  0  0  0  0  0  0  0  0  0  0
   19.5958  -19.4250   -9.5708 C   0  0  0  0  0  0  0  0  0  0  0  0
   20.1663  -18.9583  -10.7578 C   0  0  0  0  0  0  0  0  0  0  0  0
   21.4906  -19.1720  -11.0147 C   0  0  0  0  0  0  0  0  0  0  0  0
   22.3120  -19.8512  -10.1211 C   0  0  0  0  0  0  0  0  0  0  0  0
   23.2682  -20.9533  -13.0133 C   0  0  0  0  0  0  0  0  0  0  0  0
   22.5384  -21.9249  -12.7204 O   0  0  0  0  0  0  0  0  0  0  0  0
   22.7619  -20.0795  -13.9609 O   0  0  0  0  0  0  0  0  0  0  0  0
  2  1  1  0
  3  2  2  0
  4  3  1  0
  5  4  2  0
  5 11  1  0
  6  5  1  0
  7  9  1  0
  7  8  1  6
  7  6  1  0
  9 13  1  0
 10  9  2  0
 11 12  2  0
 12  2  1  0
 13 14  1  0
 15 14  1  0
 16 15  2  0
 17 15  1  0
 18 19  1  1
 18 17  1  0
 19 20  1  0
 20 21  2  0
 21 22  1  0
 23 22  1  0
 24 23  2  0
 25 24  1  0
 26 27  1  0
 26 25  2  0
 27 28  2  0
 28 20  1  0
 28 23  1  0
 29 18  1  0
 29 31  1  0
 30 29  2  0
M  END
$$$$
