YGW.pdb
     RDKit          3D

 31 33  0  0  1  0  0  0  0  0999 V2000
   35.5641  -25.1246  -13.7299 O   0  0  0  0  0  0  0  0  0  0  0  0
   34.5162  -24.2213  -13.7022 C   0  0  0  0  0  0  0  0  0  0  0  0
   34.3576  -23.3234  -12.6739 C   0  0  0  0  0  0  0  0  0  0  0  0
   33.3211  -22.4306  -12.6474 C   0  0  0  0  0  0  0  0  0  0  0  0
   32.4257  -22.4526  -13.6915 C   0  0  0  0  0  0  0  0  0  0  0  0
   31.2821  -21.5052  -13.7099 C   0  0  0  0  0  0  0  0  0  0  0  0
   30.1963  -21.9322  -12.7441 C   0  0  2  0  0  0  0  0  0  0  0  0
   30.1050  -23.3538  -12.6121 N   0  0  0  0  0  0  0  0  0  0  0  0
   28.8868  -21.3420  -13.0807 C   0  0  0  0  0  0  0  0  0  0  0  0
   28.1113  -21.9693  -13.8684 O   0  0  0  0  0  0  0  0  0  0  0  0
   32.5791  -23.3604  -14.7391 C   0  0  0  0  0  0  0  0  0  0  0  0
   33.6223  -24.2572  -14.7636 C   0  0  0  0  0  0  0  0  0  0  0  0
   28.4194  -20.1070  -12.5839 N   0  0  0  0  0  0  0  0  0  0  0  0
   27.0815  -19.6063  -12.8778 C   0  0  0  0  0  0  0  0  0  0  0  0
   26.1326  -19.9818  -11.7895 C   0  0  0  0  0  0  0  0  0  0  0  0
   24.9239  -19.6994  -11.9328 O   0  0  0  0  0  0  0  0  0  0  0  0
   26.5483  -20.6402  -10.6119 N   0  0  0  0  0  0  0  0  0  0  0  0
   25.6654  -21.1718   -9.5891 C   0  0  1  0  0  0  0  0  0  0  0  0
   26.4465  -21.3552   -8.3425 C   0  0  0  0  0  0  0  0  0  0  0  0
   26.7271  -20.1778   -7.5347 C   0  0  0  0  0  0  0  0  0  0  0  0
   26.4601  -18.8320   -7.8153 C   0  0  0  0  0  0  0  0  0  0  0  0
   26.9011  -18.0747   -6.8261 N   0  0  0  0  0  0  0  0  0  0  0  0
   27.4702  -18.8320   -5.8539 C   0  0  0  0  0  0  0  0  0  0  0  0
   28.0405  -18.4624   -4.6546 C   0  0  0  0  0  0  0  0  0  0  0  0
   28.5351  -19.4540   -3.8366 C   0  0  0  0  0  0  0  0  0  0  0  0
   28.4468  -20.7891   -4.2389 C   0  0  0  0  0  0  0  0  0  0  0  0
   27.8739  -21.1101   -5.4364 C   0  0  0  0  0  0  0  0  0  0  0  0
   27.3636  -20.1382   -6.2906 C   0  0  0  0  0  0  0  0  0  0  0  0
   24.3511  -20.5672   -9.5058 C   0  0  0  0  0  0  0  0  0  0  0  0
   24.0641  -19.4924  -10.0756 O   0  0  0  0  0  0  0  0  0  0  0  0
   23.3298  -21.1614   -8.7836 O   0  0  0  0  0  0  0  0  0  0  0  0
  2  1  1  0
  3  2  2  0
  4  3  1  0
  5  4  2  0
  5 11  1  0
  6  5  1  0
  7  9  1  0
  7  8  1  6
  7  6  1  0
  9 13  1  0
 10  9  2  0
 11 12  2  0
 12  2  1  0
 13 14  1  0
 15 14  1  0
 16 15  2  0
 17 15  1  0
 18 19  1  1
 18 17  1  0
 19 20  1  0
 20 21  2  0
 21 22  1  0
 23 22  1  0
 24 23  2  0
 25 24  1  0
 26 27  1  0
 26 25  2  0
 27 28  2  0
 28 20  1  0
 28 23  1  0
 29 18  1  0
 29 31  1  0
 30 29  2  0
M  END
$$$$
