YGW.pdb
     RDKit          3D

 31 33  0  0  1  0  0  0  0  0999 V2000
   28.2349  -19.4164   -3.7773 O   0  0  0  0  0  0  0  0  0  0  0  0
   27.6643  -19.6371   -5.0184 C   0  0  0  0  0  0  0  0  0  0  0  0
   26.9410  -20.7727   -5.2943 C   0  0  0  0  0  0  0  0  0  0  0  0
   26.3771  -20.9901   -6.5219 C   0  0  0  0  0  0  0  0  0  0  0  0
   26.5537  -20.0294   -7.4905 C   0  0  0  0  0  0  0  0  0  0  0  0
   25.9634  -20.2175   -8.8403 C   0  0  0  0  0  0  0  0  0  0  0  0
   26.7583  -21.2160   -9.6559 C   0  0  2  0  0  0  0  0  0  0  0  0
   28.1698  -21.0019   -9.5642 N   0  0  0  0  0  0  0  0  0  0  0  0
   26.3160  -21.2651  -11.0624 C   0  0  0  0  0  0  0  0  0  0  0  0
   25.2323  -21.8645  -11.3480 O   0  0  0  0  0  0  0  0  0  0  0  0
   27.2861  -18.8740   -7.2192 C   0  0  0  0  0  0  0  0  0  0  0  0
   27.8522  -18.6576   -5.9839 C   0  0  0  0  0  0  0  0  0  0  0  0
   27.0200  -20.6847  -12.1385 N   0  0  0  0  0  0  0  0  0  0  0  0
   26.8435  -21.1319  -13.5154 C   0  0  0  0  0  0  0  0  0  0  0  0
   25.6756  -20.4466  -14.1415 C   0  0  0  0  0  0  0  0  0  0  0  0
   25.3353  -20.7882  -15.2942 O   0  0  0  0  0  0  0  0  0  0  0  0
   24.9461  -19.4330  -13.4831 N   0  0  0  0  0  0  0  0  0  0  0  0
   23.7869  -18.7451  -14.0227 C   0  0  1  0  0  0  0  0  0  0  0  0
   24.1699  -18.1164  -15.3096 C   0  0  0  0  0  0  0  0  0  0  0  0
   25.3547  -17.2718  -15.3295 C   0  0  0  0  0  0  0  0  0  0  0  0
   25.7228  -16.2484  -14.4472 C   0  0  0  0  0  0  0  0  0  0  0  0
   26.8650  -15.7116  -14.8393 N   0  0  0  0  0  0  0  0  0  0  0  0
   27.3218  -16.3157  -15.9658 C   0  0  0  0  0  0  0  0  0  0  0  0
   28.4654  -16.0857  -16.7001 C   0  0  0  0  0  0  0  0  0  0  0  0
   28.6950  -16.8694  -17.8091 C   0  0  0  0  0  0  0  0  0  0  0  0
   27.7753  -17.8628  -18.1551 C   0  0  0  0  0  0  0  0  0  0  0  0
   26.6546  -18.0558  -17.3989 C   0  0  0  0  0  0  0  0  0  0  0  0
   26.3866  -17.2850  -16.2725 C   0  0  0  0  0  0  0  0  0  0  0  0
   22.5287  -19.4595  -13.9430 C   0  0  0  0  0  0  0  0  0  0  0  0
   22.3832  -20.6228  -14.3767 O   0  0  0  0  0  0  0  0  0  0  0  0
   21.4082  -18.8825  -13.3691 O   0  0  0  0  0  0  0  0  0  0  0  0
  2  1  1  0
  3  2  2  0
  4  3  1  0
  5  4  2  0
  5 11  1  0
  6  5  1  0
  7  9  1  0
  7  8  1  6
  7  6  1  0
  9 13  1  0
 10  9  2  0
 11 12  2  0
 12  2  1  0
 13 14  1  0
 15 14  1  0
 16 15  2  0
 17 15  1  0
 18 19  1  6
 18 17  1  0
 19 20  1  0
 20 21  2  0
 21 22  1  0
 23 22  1  0
 24 23  2  0
 25 24  1  0
 26 27  1  0
 26 25  2  0
 27 28  2  0
 28 20  1  0
 28 23  1  0
 29 18  1  0
 29 31  1  0
 30 29  2  0
M  END
$$$$
