YGW.pdb
     RDKit          3D

 31 33  0  0  1  0  0  0  0  0999 V2000
   17.9334  -25.3965   -4.4570 O   0  0  0  0  0  0  0  0  0  0  0  0
   17.7885  -25.3716   -5.8329 C   0  0  0  0  0  0  0  0  0  0  0  0
   16.5562  -25.2656   -6.4321 C   0  0  0  0  0  0  0  0  0  0  0  0
   16.4138  -25.2411   -7.7928 C   0  0  0  0  0  0  0  0  0  0  0  0
   17.5519  -25.3266   -8.5607 C   0  0  0  0  0  0  0  0  0  0  0  0
   17.4521  -25.3059  -10.0424 C   0  0  0  0  0  0  0  0  0  0  0  0
   17.7312  -23.9236  -10.5949 C   0  0  2  0  0  0  0  0  0  0  0  0
   16.8897  -22.9203  -10.0186 N   0  0  0  0  0  0  0  0  0  0  0  0
   17.6705  -23.8893  -12.0686 C   0  0  0  0  0  0  0  0  0  0  0  0
   16.6015  -24.2547  -12.6509 O   0  0  0  0  0  0  0  0  0  0  0  0
   18.8064  -25.4344   -7.9610 C   0  0  0  0  0  0  0  0  0  0  0  0
   18.9471  -25.4588   -6.5925 C   0  0  0  0  0  0  0  0  0  0  0  0
   18.7321  -23.4726  -12.8991 N   0  0  0  0  0  0  0  0  0  0  0  0
   18.6611  -23.5559  -14.3534 C   0  0  0  0  0  0  0  0  0  0  0  0
   19.9408  -23.0946  -14.9660 C   0  0  0  0  0  0  0  0  0  0  0  0
   20.8980  -23.8962  -15.0146 O   0  0  0  0  0  0  0  0  0  0  0  0
   20.1080  -21.7941  -15.4892 N   0  0  0  0  0  0  0  0  0  0  0  0
   21.3149  -21.2896  -16.1193 C   0  0  1  0  0  0  0  0  0  0  0  0
   21.7653  -22.2762  -17.1302 C   0  0  0  0  0  0  0  0  0  0  0  0
   20.9809  -22.4098  -18.3486 C   0  0  0  0  0  0  0  0  0  0  0  0
   19.8497  -21.6898  -18.7524 C   0  0  0  0  0  0  0  0  0  0  0  0
   19.4247  -22.1448  -19.9181 N   0  0  0  0  0  0  0  0  0  0  0  0
   20.2117  -23.1598  -20.3571 C   0  0  0  0  0  0  0  0  0  0  0  0
   20.1421  -23.9061  -21.5140 C   0  0  0  0  0  0  0  0  0  0  0  0
   21.0949  -24.8793  -21.7186 C   0  0  0  0  0  0  0  0  0  0  0  0
   22.0926  -25.0811  -20.7615 C   0  0  0  0  0  0  0  0  0  0  0  0
   22.1233  -24.3185  -19.6289 C   0  0  0  0  0  0  0  0  0  0  0  0
   21.1790  -23.3267  -19.3852 C   0  0  0  0  0  0  0  0  0  0  0  0
   21.3094  -19.8839  -16.4712 C   0  0  0  0  0  0  0  0  0  0  0  0
   22.3302  -19.2829  -16.8701 O   0  0  0  0  0  0  0  0  0  0  0  0
   20.1540  -19.1252  -16.3867 O   0  0  0  0  0  0  0  0  0  0  0  0
  2  1  1  0
  3  2  2  0
  4  3  1  0
  5  4  2  0
  5 11  1  0
  6  5  1  0
  7  9  1  0
  7  8  1  1
  7  6  1  0
  9 13  1  0
 10  9  2  0
 11 12  2  0
 12  2  1  0
 13 14  1  0
 15 14  1  0
 16 15  2  0
 17 15  1  0
 18 19  1  6
 18 17  1  0
 19 20  1  0
 20 21  2  0
 21 22  1  0
 23 22  1  0
 24 23  2  0
 25 24  1  0
 26 27  1  0
 26 25  2  0
 27 28  2  0
 28 20  1  0
 28 23  1  0
 29 18  1  0
 29 31  1  0
 30 29  2  0
M  END
$$$$
