YGW.pdb
     RDKit          3D

 31 33  0  0  1  0  0  0  0  0999 V2000
   30.1813  -19.1644   -3.2669 O   0  0  0  0  0  0  0  0  0  0  0  0
   29.2995  -19.2464   -4.3301 C   0  0  0  0  0  0  0  0  0  0  0  0
   28.5414  -20.3693   -4.5606 C   0  0  0  0  0  0  0  0  0  0  0  0
   27.6698  -20.4495   -5.6123 C   0  0  0  0  0  0  0  0  0  0  0  0
   27.5678  -19.3617   -6.4482 C   0  0  0  0  0  0  0  0  0  0  0  0
   26.6374  -19.3981   -7.6053 C   0  0  0  0  0  0  0  0  0  0  0  0
   26.8274  -20.6564   -8.4267 C   0  0  2  0  0  0  0  0  0  0  0  0
   28.1921  -20.8694   -8.7996 N   0  0  0  0  0  0  0  0  0  0  0  0
   25.9402  -20.6927   -9.6047 C   0  0  0  0  0  0  0  0  0  0  0  0
   24.6876  -20.5558   -9.4384 O   0  0  0  0  0  0  0  0  0  0  0  0
   28.3334  -18.2182   -6.2216 C   0  0  0  0  0  0  0  0  0  0  0  0
   29.2092  -18.1399   -5.1634 C   0  0  0  0  0  0  0  0  0  0  0  0
   26.3860  -20.8716  -10.9313 N   0  0  0  0  0  0  0  0  0  0  0  0
   25.7736  -21.8396  -11.8340 C   0  0  0  0  0  0  0  0  0  0  0  0
   24.5101  -21.2919  -12.4079 C   0  0  0  0  0  0  0  0  0  0  0  0
   23.9589  -20.3351  -11.8232 O   0  0  0  0  0  0  0  0  0  0  0  0
   23.9189  -21.8122  -13.5796 N   0  0  0  0  0  0  0  0  0  0  0  0
   22.7070  -21.3120  -14.2037 C   0  0  1  0  0  0  0  0  0  0  0  0
   22.6016  -21.8969  -15.5619 C   0  0  0  0  0  0  0  0  0  0  0  0
   22.2979  -23.3158  -15.6712 C   0  0  0  0  0  0  0  0  0  0  0  0
   21.0520  -23.9550  -15.6485 C   0  0  0  0  0  0  0  0  0  0  0  0
   21.2201  -25.2620  -15.7501 N   0  0  0  0  0  0  0  0  0  0  0  0
   22.5376  -25.5743  -15.8446 C   0  0  0  0  0  0  0  0  0  0  0  0
   23.1566  -26.7987  -15.9776 C   0  0  0  0  0  0  0  0  0  0  0  0
   24.5306  -26.8265  -16.0696 C   0  0  0  0  0  0  0  0  0  0  0  0
   25.2499  -25.6294  -16.0262 C   0  0  0  0  0  0  0  0  0  0  0  0
   24.5953  -24.4382  -15.8928 C   0  0  0  0  0  0  0  0  0  0  0  0
   23.2095  -24.3683  -15.7962 C   0  0  0  0  0  0  0  0  0  0  0  0
   21.5258  -21.2798  -13.3649 C   0  0  0  0  0  0  0  0  0  0  0  0
   20.6561  -20.3867  -13.4562 O   0  0  0  0  0  0  0  0  0  0  0  0
   21.2951  -22.2545  -12.4086 O   0  0  0  0  0  0  0  0  0  0  0  0
  2  1  1  0
  3  2  2  0
  4  3  1  0
  5  4  2  0
  5 11  1  0
  6  5  1  0
  7  9  1  0
  7  8  1  6
  7  6  1  0
  9 13  1  0
 10  9  2  0
 11 12  2  0
 12  2  1  0
 13 14  1  0
 15 14  1  0
 16 15  2  0
 17 15  1  0
 18 19  1  6
 18 17  1  0
 19 20  1  0
 20 21  2  0
 21 22  1  0
 23 22  1  0
 24 23  2  0
 25 24  1  0
 26 27  1  0
 26 25  2  0
 27 28  2  0
 28 20  1  0
 28 23  1  0
 29 18  1  0
 29 31  1  0
 30 29  2  0
M  END
$$$$
