YGW.pdb
     RDKit          3D

 31 33  0  0  1  0  0  0  0  0999 V2000
   33.6724  -18.4738  -19.3242 O   0  0  0  0  0  0  0  0  0  0  0  0
   32.3457  -18.1430  -19.1120 C   0  0  0  0  0  0  0  0  0  0  0  0
   31.9286  -16.8369  -19.0165 C   0  0  0  0  0  0  0  0  0  0  0  0
   30.6165  -16.5107  -18.8066 C   0  0  0  0  0  0  0  0  0  0  0  0
   29.7084  -17.5376  -18.6911 C   0  0  0  0  0  0  0  0  0  0  0  0
   28.2722  -17.2375  -18.4612 C   0  0  0  0  0  0  0  0  0  0  0  0
   27.4391  -17.5562  -19.6853 C   0  0  2  0  0  0  0  0  0  0  0  0
   27.9264  -16.9114  -20.8658 N   0  0  0  0  0  0  0  0  0  0  0  0
   26.0068  -17.2723  -19.4745 C   0  0  0  0  0  0  0  0  0  0  0  0
   25.6060  -16.0666  -19.5027 O   0  0  0  0  0  0  0  0  0  0  0  0
   30.1230  -18.8658  -18.7868 C   0  0  0  0  0  0  0  0  0  0  0  0
   31.4431  -19.1914  -18.9980 C   0  0  0  0  0  0  0  0  0  0  0  0
   25.0265  -18.2592  -19.2388 N   0  0  0  0  0  0  0  0  0  0  0  0
   23.6037  -17.9440  -19.1796 C   0  0  0  0  0  0  0  0  0  0  0  0
   22.9783  -18.5760  -17.9817 C   0  0  0  0  0  0  0  0  0  0  0  0
   23.7148  -19.1970  -17.1860 O   0  0  0  0  0  0  0  0  0  0  0  0
   21.5938  -18.4981  -17.7165 N   0  0  0  0  0  0  0  0  0  0  0  0
   20.9226  -19.0848  -16.5704 C   0  0  1  0  0  0  0  0  0  0  0  0
   19.6256  -18.3924  -16.3797 C   0  0  0  0  0  0  0  0  0  0  0  0
   18.4544  -18.9443  -17.0439 C   0  0  0  0  0  0  0  0  0  0  0  0
   17.3962  -19.6811  -16.4973 C   0  0  0  0  0  0  0  0  0  0  0  0
   16.5465  -20.0160  -17.4526 N   0  0  0  0  0  0  0  0  0  0  0  0
   16.9611  -19.5443  -18.6559 C   0  0  0  0  0  0  0  0  0  0  0  0
   16.3816  -19.6481  -19.9023 C   0  0  0  0  0  0  0  0  0  0  0  0
   17.0185  -19.0511  -20.9676 C   0  0  0  0  0  0  0  0  0  0  0  0
   18.2181  -18.3658  -20.7591 C   0  0  0  0  0  0  0  0  0  0  0  0
   18.7572  -18.2883  -19.5066 C   0  0  0  0  0  0  0  0  0  0  0  0
   18.1451  -18.8782  -18.4056 C   0  0  0  0  0  0  0  0  0  0  0  0
   20.9606  -20.5307  -16.4820 C   0  0  0  0  0  0  0  0  0  0  0  0
   21.1632  -21.2635  -17.4741 O   0  0  0  0  0  0  0  0  0  0  0  0
   20.7765  -21.1833  -15.2745 O   0  0  0  0  0  0  0  0  0  0  0  0
  2  1  1  0
  3  2  2  0
  4  3  1  0
  5  4  2  0
  5 11  1  0
  6  5  1  0
  7  9  1  0
  7  8  1  6
  7  6  1  0
  9 13  1  0
 10  9  2  0
 11 12  2  0
 12  2  1  0
 13 14  1  0
 15 14  1  0
 16 15  2  0
 17 15  1  0
 18 19  1  6
 18 17  1  0
 19 20  1  0
 20 21  2  0
 21 22  1  0
 23 22  1  0
 24 23  2  0
 25 24  1  0
 26 27  1  0
 26 25  2  0
 27 28  2  0
 28 20  1  0
 28 23  1  0
 29 18  1  0
 29 31  1  0
 30 29  2  0
M  END
$$$$
