YGW.pdb
     RDKit          3D

 31 33  0  0  1  0  0  0  0  0999 V2000
   28.1419  -32.9847  -16.2695 O   0  0  0  0  0  0  0  0  0  0  0  0
   28.0018  -31.6099  -16.1978 C   0  0  0  0  0  0  0  0  0  0  0  0
   29.0883  -30.7684  -16.1843 C   0  0  0  0  0  0  0  0  0  0  0  0
   28.9488  -29.4091  -16.1132 C   0  0  0  0  0  0  0  0  0  0  0  0
   27.6742  -28.8950  -16.0546 C   0  0  0  0  0  0  0  0  0  0  0  0
   27.4680  -27.4264  -15.9750 C   0  0  0  0  0  0  0  0  0  0  0  0
   26.6442  -26.9209  -17.1410 C   0  0  2  0  0  0  0  0  0  0  0  0
   27.2208  -27.2534  -18.4074 N   0  0  0  0  0  0  0  0  0  0  0  0
   26.3678  -25.4750  -17.0434 C   0  0  0  0  0  0  0  0  0  0  0  0
   27.0398  -24.6685  -17.7599 O   0  0  0  0  0  0  0  0  0  0  0  0
   26.5661  -29.7417  -16.0679 C   0  0  0  0  0  0  0  0  0  0  0  0
   26.7088  -31.1083  -16.1393 C   0  0  0  0  0  0  0  0  0  0  0  0
   25.3929  -24.9067  -16.1966 N   0  0  0  0  0  0  0  0  0  0  0  0
   25.2169  -23.4644  -16.0708 C   0  0  0  0  0  0  0  0  0  0  0  0
   24.0668  -23.1551  -15.1722 C   0  0  0  0  0  0  0  0  0  0  0  0
   23.4299  -24.1080  -14.6745 O   0  0  0  0  0  0  0  0  0  0  0  0
   23.6750  -21.8339  -14.8660 N   0  0  0  0  0  0  0  0  0  0  0  0
   22.5483  -21.4633  -14.0284 C   0  0  1  0  0  0  0  0  0  0  0  0
   22.6915  -20.0366  -13.6517 C   0  0  0  0  0  0  0  0  0  0  0  0
   21.8623  -19.0622  -14.3448 C   0  0  0  0  0  0  0  0  0  0  0  0
   20.8465  -18.2456  -13.8324 C   0  0  0  0  0  0  0  0  0  0  0  0
   20.3233  -17.5214  -14.8063 N   0  0  0  0  0  0  0  0  0  0  0  0
   20.9297  -17.7926  -15.9900 C   0  0  0  0  0  0  0  0  0  0  0  0
   20.7122  -17.2655  -17.2449 C   0  0  0  0  0  0  0  0  0  0  0  0
   21.4953  -17.7160  -18.2845 C   0  0  0  0  0  0  0  0  0  0  0  0
   22.4756  -18.6818  -18.0424 C   0  0  0  0  0  0  0  0  0  0  0  0
   22.6565  -19.1772  -16.7826 C   0  0  0  0  0  0  0  0  0  0  0  0
   21.8858  -18.7486  -15.7069 C   0  0  0  0  0  0  0  0  0  0  0  0
   21.2506  -21.9441  -14.4581 C   0  0  0  0  0  0  0  0  0  0  0  0
   20.9672  -22.1434  -15.6590 O   0  0  0  0  0  0  0  0  0  0  0  0
   20.2452  -22.2158  -13.5453 O   0  0  0  0  0  0  0  0  0  0  0  0
  2  1  1  0
  3  2  2  0
  4  3  1  0
  5  4  2  0
  5 11  1  0
  6  5  1  0
  7  9  1  0
  7  8  1  6
  7  6  1  0
  9 13  1  0
 10  9  2  0
 11 12  2  0
 12  2  1  0
 13 14  1  0
 15 14  1  0
 16 15  2  0
 17 15  1  0
 18 19  1  6
 18 17  1  0
 19 20  1  0
 20 21  2  0
 21 22  1  0
 23 22  1  0
 24 23  2  0
 25 24  1  0
 26 27  1  0
 26 25  2  0
 27 28  2  0
 28 20  1  0
 28 23  1  0
 29 18  1  0
 29 31  1  0
 30 29  2  0
M  END
$$$$
