YGW.pdb
     RDKit          3D

 31 33  0  0  1  0  0  0  0  0999 V2000
   28.2227  -21.9966  -22.6866 O   0  0  0  0  0  0  0  0  0  0  0  0
   28.4071  -21.4083  -21.4478 C   0  0  0  0  0  0  0  0  0  0  0  0
   28.7405  -20.0815  -21.3157 C   0  0  0  0  0  0  0  0  0  0  0  0
   28.9227  -19.5006  -20.0904 C   0  0  0  0  0  0  0  0  0  0  0  0
   28.7618  -20.2884  -18.9742 C   0  0  0  0  0  0  0  0  0  0  0  0
   28.9497  -19.7068  -17.6206 C   0  0  0  0  0  0  0  0  0  0  0  0
   27.7049  -19.8685  -16.7730 C   0  0  2  0  0  0  0  0  0  0  0  0
   26.5343  -19.3473  -17.4093 N   0  0  0  0  0  0  0  0  0  0  0  0
   27.8737  -19.3037  -15.4207 C   0  0  0  0  0  0  0  0  0  0  0  0
   28.2378  -18.0921  -15.2989 O   0  0  0  0  0  0  0  0  0  0  0  0
   28.4235  -21.6356  -19.0991 C   0  0  0  0  0  0  0  0  0  0  0  0
   28.2408  -22.2176  -20.3323 C   0  0  0  0  0  0  0  0  0  0  0  0
   27.6570  -20.0218  -14.2258 N   0  0  0  0  0  0  0  0  0  0  0  0
   28.0004  -19.4769  -12.9173 C   0  0  0  0  0  0  0  0  0  0  0  0
   27.6085  -20.4276  -11.8365 C   0  0  0  0  0  0  0  0  0  0  0  0
   28.4786  -21.2010  -11.3825 O   0  0  0  0  0  0  0  0  0  0  0  0
   26.2991  -20.4846  -11.3117 N   0  0  0  0  0  0  0  0  0  0  0  0
   25.9519  -20.8767   -9.9575 C   0  0  1  0  0  0  0  0  0  0  0  0
   26.8871  -20.2096   -9.0203 C   0  0  0  0  0  0  0  0  0  0  0  0
   26.6591  -20.3803   -7.5933 C   0  0  0  0  0  0  0  0  0  0  0  0
   25.5740  -20.9768   -6.9390 C   0  0  0  0  0  0  0  0  0  0  0  0
   25.7460  -20.9003   -5.6308 N   0  0  0  0  0  0  0  0  0  0  0  0
   26.9120  -20.2730   -5.3321 C   0  0  0  0  0  0  0  0  0  0  0  0
   27.4861  -19.9919   -4.1108 C   0  0  0  0  0  0  0  0  0  0  0  0
   28.7041  -19.3492   -4.0971 C   0  0  0  0  0  0  0  0  0  0  0  0
   29.3166  -19.0042   -5.3047 C   0  0  0  0  0  0  0  0  0  0  0  0
   28.7113  -19.3017   -6.4923 C   0  0  0  0  0  0  0  0  0  0  0  0
   27.4815  -19.9491   -6.5482 C   0  0  0  0  0  0  0  0  0  0  0  0
   24.5379  -20.8883   -9.6410 C   0  0  0  0  0  0  0  0  0  0  0  0
   24.0024  -21.7979   -8.9715 O   0  0  0  0  0  0  0  0  0  0  0  0
   23.6965  -19.8740  -10.0667 O   0  0  0  0  0  0  0  0  0  0  0  0
  2  1  1  0
  3  2  2  0
  4  3  1  0
  5  4  2  0
  5 11  1  0
  6  5  1  0
  7  9  1  0
  7  8  1  6
  7  6  1  0
  9 13  1  0
 10  9  2  0
 11 12  2  0
 12  2  1  0
 13 14  1  0
 15 14  1  0
 16 15  2  0
 17 15  1  0
 18 19  1  1
 18 17  1  0
 19 20  1  0
 20 21  2  0
 21 22  1  0
 23 22  1  0
 24 23  2  0
 25 24  1  0
 26 27  1  0
 26 25  2  0
 27 28  2  0
 28 20  1  0
 28 23  1  0
 29 18  1  0
 29 31  1  0
 30 29  2  0
M  END
$$$$
