YGW.pdb
     RDKit          3D

 31 33  0  0  1  0  0  0  0  0999 V2000
   28.7258  -28.9898  -18.2740 O   0  0  0  0  0  0  0  0  0  0  0  0
   28.8543  -27.6810  -17.8436 C   0  0  0  0  0  0  0  0  0  0  0  0
   29.6978  -26.7912  -18.4645 C   0  0  0  0  0  0  0  0  0  0  0  0
   29.8243  -25.4972  -18.0381 C   0  0  0  0  0  0  0  0  0  0  0  0
   29.0750  -25.1003  -16.9548 C   0  0  0  0  0  0  0  0  0  0  0  0
   29.1766  -23.7068  -16.4513 C   0  0  0  0  0  0  0  0  0  0  0  0
   27.9909  -22.8734  -16.8914 C   0  0  2  0  0  0  0  0  0  0  0  0
   28.0263  -22.5596  -18.2867 N   0  0  0  0  0  0  0  0  0  0  0  0
   27.8312  -21.6556  -16.0742 C   0  0  0  0  0  0  0  0  0  0  0  0
   28.2474  -20.5457  -16.5327 O   0  0  0  0  0  0  0  0  0  0  0  0
   28.2166  -25.9967  -16.3188 C   0  0  0  0  0  0  0  0  0  0  0  0
   28.0911  -27.2975  -16.7494 C   0  0  0  0  0  0  0  0  0  0  0  0
   27.2385  -21.6284  -14.7941 N   0  0  0  0  0  0  0  0  0  0  0  0
   27.1102  -20.3978  -14.0220 C   0  0  0  0  0  0  0  0  0  0  0  0
   26.4289  -20.6656  -12.7221 C   0  0  0  0  0  0  0  0  0  0  0  0
   25.2511  -21.0821  -12.7445 O   0  0  0  0  0  0  0  0  0  0  0  0
   27.0626  -20.4668  -11.4763 N   0  0  0  0  0  0  0  0  0  0  0  0
   26.4478  -20.6738  -10.1773 C   0  0  1  0  0  0  0  0  0  0  0  0
   27.4817  -20.4834   -9.1320 C   0  0  0  0  0  0  0  0  0  0  0  0
   27.0463  -20.4309   -7.7444 C   0  0  0  0  0  0  0  0  0  0  0  0
   25.8352  -20.8555   -7.1838 C   0  0  0  0  0  0  0  0  0  0  0  0
   25.8317  -20.6019   -5.8867 N   0  0  0  0  0  0  0  0  0  0  0  0
   26.9943  -20.0142   -5.5057 C   0  0  0  0  0  0  0  0  0  0  0  0
   27.4169  -19.5970   -4.2617 C   0  0  0  0  0  0  0  0  0  0  0  0
   28.6714  -19.0387   -4.1543 C   0  0  0  0  0  0  0  0  0  0  0  0
   29.4708  -18.9121   -5.2933 C   0  0  0  0  0  0  0  0  0  0  0  0
   29.0114  -19.3387   -6.5067 C   0  0  0  0  0  0  0  0  0  0  0  0
   27.7508  -19.9069   -6.6566 C   0  0  0  0  0  0  0  0  0  0  0  0
   25.1442  -20.0704   -9.9867 C   0  0  0  0  0  0  0  0  0  0  0  0
   24.1664  -20.7029   -9.5326 O   0  0  0  0  0  0  0  0  0  0  0  0
   24.9139  -18.7408  -10.2980 O   0  0  0  0  0  0  0  0  0  0  0  0
  2  1  1  0
  3  2  2  0
  4  3  1  0
  5  4  2  0
  5 11  1  0
  6  5  1  0
  7  9  1  0
  7  8  1  6
  7  6  1  0
  9 13  1  0
 10  9  2  0
 11 12  2  0
 12  2  1  0
 13 14  1  0
 15 14  1  0
 16 15  2  0
 17 15  1  0
 18 19  1  1
 18 17  1  0
 19 20  1  0
 20 21  2  0
 21 22  1  0
 23 22  1  0
 24 23  2  0
 25 24  1  0
 26 27  1  0
 26 25  2  0
 27 28  2  0
 28 20  1  0
 28 23  1  0
 29 18  1  0
 29 31  1  0
 30 29  2  0
M  END
$$$$
