YGW.pdb
     RDKit          3D

 31 33  0  0  1  0  0  0  0  0999 V2000
   18.7828  -15.0898  -18.1639 O   0  0  0  0  0  0  0  0  0  0  0  0
   20.0288  -15.2121  -17.5746 C   0  0  0  0  0  0  0  0  0  0  0  0
   20.2470  -14.8766  -16.2598 C   0  0  0  0  0  0  0  0  0  0  0  0
   21.4794  -14.9978  -15.6779 C   0  0  0  0  0  0  0  0  0  0  0  0
   22.5131  -15.4713  -16.4522 C   0  0  0  0  0  0  0  0  0  0  0  0
   23.8708  -15.6203  -15.8690 C   0  0  0  0  0  0  0  0  0  0  0  0
   24.2746  -17.0771  -15.7763 C   0  0  2  0  0  0  0  0  0  0  0  0
   23.3709  -17.8491  -14.9799 N   0  0  0  0  0  0  0  0  0  0  0  0
   25.6664  -17.2419  -15.3157 C   0  0  0  0  0  0  0  0  0  0  0  0
   26.6134  -16.8151  -16.0480 O   0  0  0  0  0  0  0  0  0  0  0  0
   22.3006  -15.8141  -17.7873 C   0  0  0  0  0  0  0  0  0  0  0  0
   21.0603  -15.6914  -18.3703 C   0  0  0  0  0  0  0  0  0  0  0  0
   26.0344  -17.8506  -14.0973 N   0  0  0  0  0  0  0  0  0  0  0  0
   27.4268  -18.0965  -13.7397 C   0  0  0  0  0  0  0  0  0  0  0  0
   27.5939  -19.4826  -13.2140 C   0  0  0  0  0  0  0  0  0  0  0  0
   28.0034  -20.3679  -13.9950 O   0  0  0  0  0  0  0  0  0  0  0  0
   27.3082  -19.8278  -11.8752 N   0  0  0  0  0  0  0  0  0  0  0  0
   27.0649  -21.1733  -11.3870 C   0  0  1  0  0  0  0  0  0  0  0  0
   27.8424  -21.3690  -10.1400 C   0  0  0  0  0  0  0  0  0  0  0  0
   27.3723  -20.7065   -8.9326 C   0  0  0  0  0  0  0  0  0  0  0  0
   26.0986  -20.2011   -8.6434 C   0  0  0  0  0  0  0  0  0  0  0  0
   26.1003  -19.6505   -7.4419 N   0  0  0  0  0  0  0  0  0  0  0  0
   27.3263  -19.7466   -6.8675 C   0  0  0  0  0  0  0  0  0  0  0  0
   27.7681  -19.3237   -5.6322 C   0  0  0  0  0  0  0  0  0  0  0  0
   29.0800  -19.5687   -5.2916 C   0  0  0  0  0  0  0  0  0  0  0  0
   29.9160  -20.2300   -6.1949 C   0  0  0  0  0  0  0  0  0  0  0  0
   29.4362  -20.6312   -7.4090 C   0  0  0  0  0  0  0  0  0  0  0  0
   28.1183  -20.4020   -7.7903 C   0  0  0  0  0  0  0  0  0  0  0  0
   25.6891  -21.6266  -11.4291 C   0  0  0  0  0  0  0  0  0  0  0  0
   25.3739  -22.8353  -11.3843 O   0  0  0  0  0  0  0  0  0  0  0  0
   24.6379  -20.7294  -11.5176 O   0  0  0  0  0  0  0  0  0  0  0  0
  2  1  1  0
  3  2  2  0
  4  3  1  0
  5  4  2  0
  5 11  1  0
  6  5  1  0
  7  9  1  0
  7  8  1  1
  7  6  1  0
  9 13  1  0
 10  9  2  0
 11 12  2  0
 12  2  1  0
 13 14  1  0
 15 14  1  0
 16 15  2  0
 17 15  1  0
 18 19  1  1
 18 17  1  0
 19 20  1  0
 20 21  2  0
 21 22  1  0
 23 22  1  0
 24 23  2  0
 25 24  1  0
 26 27  1  0
 26 25  2  0
 27 28  2  0
 28 20  1  0
 28 23  1  0
 29 18  1  0
 29 31  1  0
 30 29  2  0
M  END
$$$$
