YGW.pdb
     RDKit          3D

 31 33  0  0  1  0  0  0  0  0999 V2000
   23.3658  -15.7107  -19.7048 O   0  0  0  0  0  0  0  0  0  0  0  0
   24.2167  -16.1821  -18.7206 C   0  0  0  0  0  0  0  0  0  0  0  0
   25.3292  -16.9316  -19.0196 C   0  0  0  0  0  0  0  0  0  0  0  0
   26.1700  -17.3973  -18.0458 C   0  0  0  0  0  0  0  0  0  0  0  0
   25.8713  -17.0930  -16.7379 C   0  0  0  0  0  0  0  0  0  0  0  0
   26.7510  -17.5756  -15.6429 C   0  0  0  0  0  0  0  0  0  0  0  0
   26.4621  -19.0223  -15.3001 C   0  0  2  0  0  0  0  0  0  0  0  0
   25.1344  -19.2158  -14.8036 N   0  0  0  0  0  0  0  0  0  0  0  0
   27.4648  -19.5878  -14.3775 C   0  0  0  0  0  0  0  0  0  0  0  0
   28.6793  -19.6475  -14.7471 O   0  0  0  0  0  0  0  0  0  0  0  0
   24.7445  -16.3330  -16.4256 C   0  0  0  0  0  0  0  0  0  0  0  0
   23.9004  -15.8657  -17.4066 C   0  0  0  0  0  0  0  0  0  0  0  0
   27.1717  -20.0781  -13.0874 N   0  0  0  0  0  0  0  0  0  0  0  0
   28.1915  -20.6722  -12.2306 C   0  0  0  0  0  0  0  0  0  0  0  0
   27.6321  -20.9650  -10.8789 C   0  0  0  0  0  0  0  0  0  0  0  0
   28.3734  -21.5145  -10.0364 O   0  0  0  0  0  0  0  0  0  0  0  0
   26.3046  -20.6458  -10.5199 N   0  0  0  0  0  0  0  0  0  0  0  0
   25.7237  -20.8244   -9.2013 C   0  0  1  0  0  0  0  0  0  0  0  0
   26.3520  -19.8523   -8.2749 C   0  0  0  0  0  0  0  0  0  0  0  0
   27.6601  -20.1797   -7.7279 C   0  0  0  0  0  0  0  0  0  0  0  0
   28.7208  -20.8673   -8.3306 C   0  0  0  0  0  0  0  0  0  0  0  0
   29.7239  -20.9755   -7.4769 N   0  0  0  0  0  0  0  0  0  0  0  0
   29.4155  -20.3903   -6.2917 C   0  0  0  0  0  0  0  0  0  0  0  0
   30.1622  -20.2599   -5.1404 C   0  0  0  0  0  0  0  0  0  0  0  0
   29.6014  -19.5938   -4.0733 C   0  0  0  0  0  0  0  0  0  0  0  0
   28.3086  -19.0756   -4.1848 C   0  0  0  0  0  0  0  0  0  0  0  0
   27.6042  -19.2285   -5.3448 C   0  0  0  0  0  0  0  0  0  0  0  0
   28.1350  -19.8950   -6.4442 C   0  0  0  0  0  0  0  0  0  0  0  0
   24.2859  -21.0000   -9.1576 C   0  0  0  0  0  0  0  0  0  0  0  0
   23.5555  -20.8465  -10.1602 O   0  0  0  0  0  0  0  0  0  0  0  0
   23.6395  -21.3570   -7.9861 O   0  0  0  0  0  0  0  0  0  0  0  0
  2  1  1  0
  3  2  2  0
  4  3  1  0
  5  4  2  0
  5 11  1  0
  6  5  1  0
  7  9  1  0
  7  8  1  1
  7  6  1  0
  9 13  1  0
 10  9  2  0
 11 12  2  0
 12  2  1  0
 13 14  1  0
 15 14  1  0
 16 15  2  0
 17 15  1  0
 18 19  1  1
 18 17  1  0
 19 20  1  0
 20 21  2  0
 21 22  1  0
 23 22  1  0
 24 23  2  0
 25 24  1  0
 26 27  1  0
 26 25  2  0
 27 28  2  0
 28 20  1  0
 28 23  1  0
 29 18  1  0
 29 31  1  0
 30 29  2  0
M  END
$$$$
