YGW.pdb
     RDKit          3D

 31 33  0  0  1  0  0  0  0  0999 V2000
   18.7072  -19.4432  -13.7728 O   0  0  0  0  0  0  0  0  0  0  0  0
   20.0889  -19.3805  -13.7340 C   0  0  0  0  0  0  0  0  0  0  0  0
   20.7981  -19.6751  -12.5942 C   0  0  0  0  0  0  0  0  0  0  0  0
   22.1645  -19.6128  -12.5568 C   0  0  0  0  0  0  0  0  0  0  0  0
   22.8237  -19.2419  -13.7058 C   0  0  0  0  0  0  0  0  0  0  0  0
   24.3064  -19.1573  -13.7178 C   0  0  0  0  0  0  0  0  0  0  0  0
   24.9212  -20.3480  -14.4237 C   0  0  2  0  0  0  0  0  0  0  0  0
   24.3648  -21.5926  -13.9900 N   0  0  0  0  0  0  0  0  0  0  0  0
   26.3930  -20.3572  -14.3227 C   0  0  0  0  0  0  0  0  0  0  0  0
   27.0382  -19.3014  -14.6131 O   0  0  0  0  0  0  0  0  0  0  0  0
   22.1119  -18.9412  -14.8668 C   0  0  0  0  0  0  0  0  0  0  0  0
   20.7379  -19.0047  -14.9021 C   0  0  0  0  0  0  0  0  0  0  0  0
   27.1558  -21.4734  -13.9194 N   0  0  0  0  0  0  0  0  0  0  0  0
   28.4548  -21.3349  -13.2709 C   0  0  0  0  0  0  0  0  0  0  0  0
   28.3029  -21.3600  -11.7870 C   0  0  0  0  0  0  0  0  0  0  0  0
   29.3117  -21.6051  -11.0916 O   0  0  0  0  0  0  0  0  0  0  0  0
   27.0692  -21.1184  -11.1447 N   0  0  0  0  0  0  0  0  0  0  0  0
   26.8495  -21.1400   -9.7096 C   0  0  1  0  0  0  0  0  0  0  0  0
   27.9182  -20.3453   -9.0582 C   0  0  0  0  0  0  0  0  0  0  0  0
   27.7224  -19.9466   -7.6724 C   0  0  0  0  0  0  0  0  0  0  0  0
   26.5881  -19.3920   -7.0664 C   0  0  0  0  0  0  0  0  0  0  0  0
   26.8376  -19.1505   -5.7913 N   0  0  0  0  0  0  0  0  0  0  0  0
   28.1053  -19.5133   -5.4693 C   0  0  0  0  0  0  0  0  0  0  0  0
   28.7723  -19.4504   -4.2646 C   0  0  0  0  0  0  0  0  0  0  0  0
   30.0698  -19.9096   -4.2147 C   0  0  0  0  0  0  0  0  0  0  0  0
   30.6668  -20.4197   -5.3703 C   0  0  0  0  0  0  0  0  0  0  0  0
   29.9687  -20.4627   -6.5434 C   0  0  0  0  0  0  0  0  0  0  0  0
   28.6573  -20.0082   -6.6349 C   0  0  0  0  0  0  0  0  0  0  0  0
   25.4800  -20.9574   -9.2725 C   0  0  0  0  0  0  0  0  0  0  0  0
   24.6508  -20.2768   -9.9140 O   0  0  0  0  0  0  0  0  0  0  0  0
   25.0126  -21.5407   -8.1067 O   0  0  0  0  0  0  0  0  0  0  0  0
  2  1  1  0
  3  2  2  0
  4  3  1  0
  5  4  2  0
  5 11  1  0
  6  5  1  0
  7  9  1  0
  7  8  1  1
  7  6  1  0
  9 13  1  0
 10  9  2  0
 11 12  2  0
 12  2  1  0
 13 14  1  0
 15 14  1  0
 16 15  2  0
 17 15  1  0
 18 19  1  1
 18 17  1  0
 19 20  1  0
 20 21  2  0
 21 22  1  0
 23 22  1  0
 24 23  2  0
 25 24  1  0
 26 27  1  0
 26 25  2  0
 27 28  2  0
 28 20  1  0
 28 23  1  0
 29 18  1  0
 29 31  1  0
 30 29  2  0
M  END
$$$$
