YGW.pdb
     RDKit          3D

 31 33  0  0  1  0  0  0  0  0999 V2000
   31.2482  -21.4538   -6.5162 O   0  0  0  0  0  0  0  0  0  0  0  0
   31.1461  -21.3403   -7.8914 C   0  0  0  0  0  0  0  0  0  0  0  0
   32.2388  -21.4705   -8.7147 C   0  0  0  0  0  0  0  0  0  0  0  0
   32.1368  -21.3581  -10.0745 C   0  0  0  0  0  0  0  0  0  0  0  0
   30.8940  -21.1072  -10.6082 C   0  0  0  0  0  0  0  0  0  0  0  0
   30.7294  -20.9748  -12.0783 C   0  0  0  0  0  0  0  0  0  0  0  0
   30.1498  -22.2360  -12.6844 C   0  0  2  0  0  0  0  0  0  0  0  0
   31.0239  -23.3610  -12.5545 N   0  0  0  0  0  0  0  0  0  0  0  0
   29.7350  -22.0412  -14.0867 C   0  0  0  0  0  0  0  0  0  0  0  0
   30.6262  -21.9754  -14.9904 O   0  0  0  0  0  0  0  0  0  0  0  0
   29.7798  -20.9736   -9.7802 C   0  0  0  0  0  0  0  0  0  0  0  0
   29.8848  -21.0871   -8.4130 C   0  0  0  0  0  0  0  0  0  0  0  0
   28.3948  -21.9198  -14.5104 N   0  0  0  0  0  0  0  0  0  0  0  0
   28.0379  -21.6835  -15.9046 C   0  0  0  0  0  0  0  0  0  0  0  0
   26.5666  -21.4769  -16.0392 C   0  0  0  0  0  0  0  0  0  0  0  0
   26.1037  -21.2289  -17.1730 O   0  0  0  0  0  0  0  0  0  0  0  0
   25.6845  -21.5510  -14.9394 N   0  0  0  0  0  0  0  0  0  0  0  0
   24.3015  -21.1087  -14.9390 C   0  0  1  0  0  0  0  0  0  0  0  0
   23.7861  -21.1778  -13.5507 C   0  0  0  0  0  0  0  0  0  0  0  0
   24.6048  -20.6088  -12.4907 C   0  0  0  0  0  0  0  0  0  0  0  0
   25.7649  -19.8311  -12.5938 C   0  0  0  0  0  0  0  0  0  0  0  0
   26.2152  -19.5406  -11.3857 N   0  0  0  0  0  0  0  0  0  0  0  0
   25.4185  -20.0821  -10.4295 C   0  0  0  0  0  0  0  0  0  0  0  0
   25.5067  -20.0204   -9.0552 C   0  0  0  0  0  0  0  0  0  0  0  0
   24.5379  -20.6577   -8.3120 C   0  0  0  0  0  0  0  0  0  0  0  0
   23.5063  -21.3400   -8.9620 C   0  0  0  0  0  0  0  0  0  0  0  0
   23.4582  -21.3758  -10.3264 C   0  0  0  0  0  0  0  0  0  0  0  0
   24.4176  -20.7457  -11.1121 C   0  0  0  0  0  0  0  0  0  0  0  0
   24.0092  -19.9326  -15.7335 C   0  0  0  0  0  0  0  0  0  0  0  0
   24.8800  -19.0895  -16.0388 O   0  0  0  0  0  0  0  0  0  0  0  0
   22.7317  -19.6823  -16.2061 O   0  0  0  0  0  0  0  0  0  0  0  0
  2  1  1  0
  3  2  2  0
  4  3  1  0
  5  4  2  0
  5 11  1  0
  6  5  1  0
  7  9  1  0
  7  8  1  6
  7  6  1  0
  9 13  1  0
 10  9  2  0
 11 12  2  0
 12  2  1  0
 13 14  1  0
 15 14  1  0
 16 15  2  0
 17 15  1  0
 18 19  1  1
 18 17  1  0
 19 20  1  0
 20 21  2  0
 21 22  1  0
 23 22  1  0
 24 23  2  0
 25 24  1  0
 26 27  1  0
 26 25  2  0
 27 28  2  0
 28 20  1  0
 28 23  1  0
 29 18  1  0
 29 31  1  0
 30 29  2  0
M  END
$$$$
