ICM.pdb
     RDKit          3D

 23 22  0  0  1  0  0  0  0  0999 V2000
    6.3698  -22.0615   24.2504 C   0  0  0  0  0  0  0  0  0  0  0  0
    5.6617  -20.8197   23.7758 C   0  0  0  0  0  0  0  0  0  0  0  0
    6.6140  -19.6165   23.8260 C   0  0  2  0  0  0  0  0  0  0  0  0
    7.1364  -19.5354   25.2178 C   0  0  0  0  0  0  0  0  0  0  0  0
    5.8830  -18.3943   23.3427 C   0  0  2  0  0  0  0  0  0  0  0  0
    5.4301  -18.7022   21.9644 N   0  0  0  0  0  0  0  0  0  0  0  0
    6.7168  -17.1661   23.3206 C   0  0  0  0  0  0  0  0  0  0  0  0
    7.6745  -17.0639   22.4726 O   0  0  0  0  0  0  0  0  0  0  0  0
    6.5543  -16.0519   24.1740 N   0  0  0  0  0  0  0  0  0  0  0  0
    7.5211  -14.9551   24.2192 C   0  0  1  0  0  0  0  0  0  0  0  0
    6.8720  -13.6875   24.7369 C   0  0  0  0  0  0  0  0  0  0  0  0
    5.7527  -14.0389   26.1180 S   0  0  0  0  0  0  0  0  0  0  0  0
    8.7190  -15.3241   24.9967 C   0  0  0  0  0  0  0  0  0  0  0  0
    8.5743  -15.7703   26.1862 O   0  0  0  0  0  0  0  0  0  0  0  0
   10.1812  -12.9002   29.1709 C   0  0  0  0  0  0  0  0  0  0  0  0
   10.8281  -14.5628   29.3557 S   0  0  0  0  0  0  0  0  0  0  0  0
   10.8088  -15.5012   27.7995 C   0  0  0  0  0  0  0  0  0  0  0  0
   11.1167  -14.6283   26.6177 C   0  0  0  0  0  0  0  0  0  0  0  0
   11.2228  -15.4244   25.3687 C   0  0  2  0  0  0  0  0  0  0  0  0
   10.0422  -15.2151   24.5057 N   0  0  0  0  0  0  0  0  0  0  0  0
   11.4872  -16.8612   25.5338 C   0  0  0  0  0  0  0  0  0  0  0  0
   12.7075  -17.2597   26.0585 O   0  0  0  0  0  0  0  0  0  0  0  0
   10.6720  -17.7488   25.2273 O   0  0  0  0  0  0  0  0  0  0  0  0
  2  1  1  0
  2  3  1  0
  3  4  1  1
  5  3  1  0
  5  7  1  0
  5  6  1  6
  7  8  2  0
  7  9  1  0
  9 10  1  0
 10 13  1  0
 10 11  1  1
 11 12  1  0
 13 14  2  0
 16 15  1  0
 17 16  1  0
 17 18  1  0
 19 18  1  1
 20 19  1  0
 20 13  1  0
 21 19  1  0
 22 21  1  0
 23 21  2  0
M  END
$$$$
