ICM.pdb
     RDKit          3D

 23 22  0  0  1  0  0  0  0  0999 V2000
    7.2212  -12.1011   19.4783 C   0  0  0  0  0  0  0  0  0  0  0  0
    7.6391  -13.5450   19.3830 C   0  0  0  0  0  0  0  0  0  0  0  0
    7.8556  -14.1263   20.7874 C   0  0  2  0  0  0  0  0  0  0  0  0
    8.9324  -13.3220   21.4278 C   0  0  0  0  0  0  0  0  0  0  0  0
    8.1387  -15.5985   20.6685 C   0  0  2  0  0  0  0  0  0  0  0  0
    6.9033  -16.2141   20.1259 N   0  0  0  0  0  0  0  0  0  0  0  0
    8.4840  -16.2491   21.9576 C   0  0  0  0  0  0  0  0  0  0  0  0
    7.5599  -16.4901   22.8147 O   0  0  0  0  0  0  0  0  0  0  0  0
    9.7812  -16.6471   22.3512 N   0  0  0  0  0  0  0  0  0  0  0  0
   10.0578  -17.2127   23.6715 C   0  0  1  0  0  0  0  0  0  0  0  0
   11.2488  -18.1479   23.6168 C   0  0  0  0  0  0  0  0  0  0  0  0
   10.8208  -19.7109   22.8059 S   0  0  0  0  0  0  0  0  0  0  0  0
   10.2268  -16.1556   24.6862 C   0  0  0  0  0  0  0  0  0  0  0  0
   11.0307  -15.1900   24.4491 O   0  0  0  0  0  0  0  0  0  0  0  0
    6.3765  -11.8736   26.2250 C   0  0  0  0  0  0  0  0  0  0  0  0
    7.0988  -11.9875   27.8627 S   0  0  0  0  0  0  0  0  0  0  0  0
    8.5426  -13.0899   27.9187 C   0  0  0  0  0  0  0  0  0  0  0  0
    8.4628  -14.1670   26.8762 C   0  0  0  0  0  0  0  0  0  0  0  0
    9.6789  -15.0192   26.8830 C   0  0  2  0  0  0  0  0  0  0  0  0
    9.5466  -16.1381   25.9275 N   0  0  0  0  0  0  0  0  0  0  0  0
   10.1170  -15.5167   28.1953 C   0  0  0  0  0  0  0  0  0  0  0  0
   10.2217  -16.8859   28.3894 O   0  0  0  0  0  0  0  0  0  0  0  0
   10.4020  -14.7738   29.1508 O   0  0  0  0  0  0  0  0  0  0  0  0
  2  1  1  0
  2  3  1  0
  3  4  1  6
  5  3  1  0
  5  7  1  0
  5  6  1  1
  7  8  2  0
  7  9  1  0
  9 10  1  0
 10 13  1  0
 10 11  1  6
 11 12  1  0
 13 14  2  0
 16 15  1  0
 17 16  1  0
 17 18  1  0
 19 18  1  1
 20 19  1  0
 20 13  1  0
 21 19  1  0
 22 21  1  0
 23 21  2  0
M  END
$$$$
