ICM.pdb
     RDKit          3D

 23 22  0  0  1  0  0  0  0  0999 V2000
    7.3310  -12.0960   18.7124 C   0  0  0  0  0  0  0  0  0  0  0  0
    7.9148  -13.4839   18.6757 C   0  0  0  0  0  0  0  0  0  0  0  0
    7.7726  -14.1537   20.0499 C   0  0  2  0  0  0  0  0  0  0  0  0
    8.4513  -13.2680   21.0355 C   0  0  0  0  0  0  0  0  0  0  0  0
    8.3119  -15.5552   19.9684 C   0  0  2  0  0  0  0  0  0  0  0  0
    7.4323  -16.2817   19.0208 N   0  0  0  0  0  0  0  0  0  0  0  0
    8.3246  -16.2696   21.2698 C   0  0  0  0  0  0  0  0  0  0  0  0
    7.2258  -16.7158   21.7600 O   0  0  0  0  0  0  0  0  0  0  0  0
    9.4726  -16.5190   22.0546 N   0  0  0  0  0  0  0  0  0  0  0  0
    9.3979  -17.1658   23.3646 C   0  0  1  0  0  0  0  0  0  0  0  0
   10.3250  -18.3627   23.4266 C   0  0  0  0  0  0  0  0  0  0  0  0
   12.0407  -17.8834   23.0944 S   0  0  0  0  0  0  0  0  0  0  0  0
    9.6548  -16.2062   24.4550 C   0  0  0  0  0  0  0  0  0  0  0  0
   10.6159  -15.3715   24.3341 O   0  0  0  0  0  0  0  0  0  0  0  0
    6.7101  -11.4435   27.5058 C   0  0  0  0  0  0  0  0  0  0  0  0
    6.3378  -12.5311   26.1291 S   0  0  0  0  0  0  0  0  0  0  0  0
    7.6653  -13.7279   25.8001 C   0  0  0  0  0  0  0  0  0  0  0  0
    8.2575  -14.2672   27.0698 C   0  0  0  0  0  0  0  0  0  0  0  0
    9.2893  -15.2983   26.7915 C   0  0  2  0  0  0  0  0  0  0  0  0
    8.8952  -16.1464   25.6480 N   0  0  0  0  0  0  0  0  0  0  0  0
    9.6978  -16.1334   27.9305 C   0  0  0  0  0  0  0  0  0  0  0  0
   10.3041  -15.5264   29.0202 O   0  0  0  0  0  0  0  0  0  0  0  0
    9.5296  -17.3647   27.9741 O   0  0  0  0  0  0  0  0  0  0  0  0
  2  1  1  0
  2  3  1  0
  3  4  1  1
  5  3  1  0
  5  7  1  0
  5  6  1  6
  7  8  2  0
  7  9  1  0
  9 10  1  0
 10 13  1  0
 10 11  1  6
 11 12  1  0
 13 14  2  0
 16 15  1  0
 17 16  1  0
 17 18  1  0
 19 18  1  1
 20 19  1  0
 20 13  1  0
 21 19  1  0
 22 21  1  0
 23 21  2  0
M  END
$$$$
