ICM.pdb
     RDKit          3D

 23 22  0  0  1  0  0  0  0  0999 V2000
    5.3978  -11.3410   26.4392 C   0  0  0  0  0  0  0  0  0  0  0  0
    5.1506  -12.6604   25.7560 C   0  0  0  0  0  0  0  0  0  0  0  0
    6.4857  -13.3404   25.4210 C   0  0  2  0  0  0  0  0  0  0  0  0
    7.2976  -12.3501   24.6617 C   0  0  0  0  0  0  0  0  0  0  0  0
    6.2093  -14.6312   24.7005 C   0  0  2  0  0  0  0  0  0  0  0  0
    5.4659  -15.4870   25.6569 N   0  0  0  0  0  0  0  0  0  0  0  0
    7.4334  -15.3440   24.2558 C   0  0  0  0  0  0  0  0  0  0  0  0
    8.1043  -16.0407   25.0991 O   0  0  0  0  0  0  0  0  0  0  0  0
    7.9546  -15.3328   22.9426 N   0  0  0  0  0  0  0  0  0  0  0  0
    9.1428  -16.0990   22.5674 C   0  0  1  0  0  0  0  0  0  0  0  0
    9.5955  -15.7374   21.1672 C   0  0  0  0  0  0  0  0  0  0  0  0
   11.0370  -16.7159   20.6690 S   0  0  0  0  0  0  0  0  0  0  0  0
   10.2226  -15.9396   23.5596 C   0  0  0  0  0  0  0  0  0  0  0  0
   10.7519  -14.7869   23.7217 O   0  0  0  0  0  0  0  0  0  0  0  0
   10.8126  -13.0662   27.6458 C   0  0  0  0  0  0  0  0  0  0  0  0
   10.9227  -14.7396   28.2818 S   0  0  0  0  0  0  0  0  0  0  0  0
   12.1661  -15.7409   27.4133 C   0  0  0  0  0  0  0  0  0  0  0  0
   11.5390  -16.8751   26.6558 C   0  0  0  0  0  0  0  0  0  0  0  0
   11.9122  -16.8392   25.2189 C   0  0  2  0  0  0  0  0  0  0  0  0
   10.7215  -16.9961   24.3587 N   0  0  0  0  0  0  0  0  0  0  0  0
   12.9722  -17.7675   24.7989 C   0  0  0  0  0  0  0  0  0  0  0  0
   12.6790  -18.7266   23.8410 O   0  0  0  0  0  0  0  0  0  0  0  0
   14.1279  -17.7424   25.2573 O   0  0  0  0  0  0  0  0  0  0  0  0
  2  1  1  0
  2  3  1  0
  3  4  1  6
  5  3  1  0
  5  7  1  0
  5  6  1  1
  7  8  2  0
  7  9  1  0
  9 10  1  0
 10 13  1  0
 10 11  1  6
 11 12  1  0
 13 14  2  0
 16 15  1  0
 17 16  1  0
 17 18  1  0
 19 18  1  1
 20 19  1  0
 20 13  1  0
 21 19  1  0
 22 21  1  0
 23 21  2  0
M  END
$$$$
