ICM.pdb
     RDKit          3D

 23 22  0  0  1  0  0  0  0  0999 V2000
    6.9965  -11.8444   19.3340 C   0  0  0  0  0  0  0  0  0  0  0  0
    7.5211  -13.2277   19.0511 C   0  0  0  0  0  0  0  0  0  0  0  0
    7.6986  -14.0043   20.3636 C   0  0  2  0  0  0  0  0  0  0  0  0
    8.6487  -13.2241   21.2033 C   0  0  0  0  0  0  0  0  0  0  0  0
    8.1284  -15.4099   20.0453 C   0  0  2  0  0  0  0  0  0  0  0  0
    7.0058  -16.0255   19.2967 N   0  0  0  0  0  0  0  0  0  0  0  0
    8.4257  -16.2325   21.2450 C   0  0  0  0  0  0  0  0  0  0  0  0
    7.4621  -16.6569   21.9786 O   0  0  0  0  0  0  0  0  0  0  0  0
    9.7162  -16.6118   21.6772 N   0  0  0  0  0  0  0  0  0  0  0  0
    9.9314  -17.4272   22.8724 C   0  0  1  0  0  0  0  0  0  0  0  0
   11.0234  -18.4505   22.6354 C   0  0  0  0  0  0  0  0  0  0  0  0
   10.5869  -19.5770   21.2847 S   0  0  0  0  0  0  0  0  0  0  0  0
   10.2021  -16.5887   24.0554 C   0  0  0  0  0  0  0  0  0  0  0  0
   10.6561  -15.4053   23.8871 O   0  0  0  0  0  0  0  0  0  0  0  0
    7.8458  -11.3077   26.1030 C   0  0  0  0  0  0  0  0  0  0  0  0
    7.0176  -12.8852   26.3097 S   0  0  0  0  0  0  0  0  0  0  0  0
    8.1072  -14.1656   26.9999 C   0  0  0  0  0  0  0  0  0  0  0  0
    8.4510  -15.2137   25.9817 C   0  0  0  0  0  0  0  0  0  0  0  0
    9.5574  -16.0849   26.4529 C   0  0  2  0  0  0  0  0  0  0  0  0
    9.9895  -17.0140   25.3887 N   0  0  0  0  0  0  0  0  0  0  0  0
    9.3201  -16.8173   27.7055 C   0  0  0  0  0  0  0  0  0  0  0  0
    9.8262  -16.2990   28.8881 O   0  0  0  0  0  0  0  0  0  0  0  0
    8.6856  -17.8849   27.7668 O   0  0  0  0  0  0  0  0  0  0  0  0
  2  1  1  0
  2  3  1  0
  3  4  1  1
  5  3  1  0
  5  7  1  0
  5  6  1  1
  7  8  2  0
  7  9  1  0
  9 10  1  0
 10 13  1  0
 10 11  1  6
 11 12  1  0
 13 14  2  0
 16 15  1  0
 17 16  1  0
 17 18  1  0
 19 18  1  6
 20 19  1  0
 20 13  1  0
 21 19  1  0
 22 21  1  0
 23 21  2  0
M  END
$$$$
