ICM.pdb
     RDKit          3D

 23 22  0  0  1  0  0  0  0  0999 V2000
    7.7101  -12.2137   19.4755 C   0  0  0  0  0  0  0  0  0  0  0  0
    7.2096  -13.6236   19.6503 C   0  0  0  0  0  0  0  0  0  0  0  0
    7.4383  -14.0903   21.0949 C   0  0  2  0  0  0  0  0  0  0  0  0
    8.9012  -13.9949   21.3544 C   0  0  0  0  0  0  0  0  0  0  0  0
    6.8443  -15.4614   21.2652 C   0  0  2  0  0  0  0  0  0  0  0  0
    5.4306  -15.3560   20.8297 N   0  0  0  0  0  0  0  0  0  0  0  0
    6.8900  -15.9658   22.6608 C   0  0  0  0  0  0  0  0  0  0  0  0
    6.4865  -15.2156   23.6206 O   0  0  0  0  0  0  0  0  0  0  0  0
    7.3507  -17.2420   23.0545 N   0  0  0  0  0  0  0  0  0  0  0  0
    7.6398  -17.5719   24.4500 C   0  0  1  0  0  0  0  0  0  0  0  0
    6.6889  -18.6365   24.9586 C   0  0  0  0  0  0  0  0  0  0  0  0
    7.0630  -19.0869   26.6735 S   0  0  0  0  0  0  0  0  0  0  0  0
    9.0525  -17.9553   24.6318 C   0  0  0  0  0  0  0  0  0  0  0  0
    9.6356  -18.6305   23.7159 O   0  0  0  0  0  0  0  0  0  0  0  0
   14.0832  -15.5427   23.5269 C   0  0  0  0  0  0  0  0  0  0  0  0
   14.8076  -16.5338   24.8345 S   0  0  0  0  0  0  0  0  0  0  0  0
   13.5961  -17.6166   25.6487 C   0  0  0  0  0  0  0  0  0  0  0  0
   12.1895  -17.1355   25.4407 C   0  0  0  0  0  0  0  0  0  0  0  0
   11.2000  -18.1100   25.9666 C   0  0  2  0  0  0  0  0  0  0  0  0
    9.8199  -17.6198   25.7730 N   0  0  0  0  0  0  0  0  0  0  0  0
   11.3959  -18.5503   27.3557 C   0  0  0  0  0  0  0  0  0  0  0  0
   12.3420  -19.5297   27.6185 O   0  0  0  0  0  0  0  0  0  0  0  0
   10.7563  -18.0910   28.3180 O   0  0  0  0  0  0  0  0  0  0  0  0
  2  1  1  0
  2  3  1  0
  3  4  1  6
  5  3  1  0
  5  7  1  0
  5  6  1  1
  7  8  2  0
  7  9  1  0
  9 10  1  0
 10 13  1  0
 10 11  1  6
 11 12  1  0
 13 14  2  0
 16 15  1  0
 17 16  1  0
 17 18  1  0
 19 18  1  1
 20 19  1  0
 20 13  1  0
 21 19  1  0
 22 21  1  0
 23 21  2  0
M  END
$$$$
