ICM.pdb
     RDKit          3D

 23 22  0  0  1  0  0  0  0  0999 V2000
    7.4537  -12.1879   19.1920 C   0  0  0  0  0  0  0  0  0  0  0  0
    7.6539  -13.6808   19.1895 C   0  0  0  0  0  0  0  0  0  0  0  0
    7.8765  -14.1866   20.6218 C   0  0  2  0  0  0  0  0  0  0  0  0
    9.1008  -13.5120   21.1340 C   0  0  0  0  0  0  0  0  0  0  0  0
    7.9306  -15.6895   20.6063 C   0  0  2  0  0  0  0  0  0  0  0  0
    6.5944  -16.1461   20.1528 N   0  0  0  0  0  0  0  0  0  0  0  0
    8.2305  -16.2926   21.9294 C   0  0  0  0  0  0  0  0  0  0  0  0
    7.3481  -16.2524   22.8603 O   0  0  0  0  0  0  0  0  0  0  0  0
    9.4393  -16.9340   22.2806 N   0  0  0  0  0  0  0  0  0  0  0  0
    9.6848  -17.4557   23.6250 C   0  0  1  0  0  0  0  0  0  0  0  0
   10.7773  -18.5055   23.6029 C   0  0  0  0  0  0  0  0  0  0  0  0
   10.2301  -20.0058   22.7464 S   0  0  0  0  0  0  0  0  0  0  0  0
    9.9763  -16.3697   24.5798 C   0  0  0  0  0  0  0  0  0  0  0  0
   10.8589  -15.4960   24.2760 O   0  0  0  0  0  0  0  0  0  0  0  0
    6.4352  -11.9511   26.3266 C   0  0  0  0  0  0  0  0  0  0  0  0
    7.5333  -11.7546   27.7311 S   0  0  0  0  0  0  0  0  0  0  0  0
    8.7102  -13.1291   27.9004 C   0  0  0  0  0  0  0  0  0  0  0  0
    8.4560  -14.2090   26.8891 C   0  0  0  0  0  0  0  0  0  0  0  0
    9.6301  -15.1072   26.7485 C   0  0  2  0  0  0  0  0  0  0  0  0
    9.3329  -16.2275   25.8326 N   0  0  0  0  0  0  0  0  0  0  0  0
   10.2168  -15.6112   27.9990 C   0  0  0  0  0  0  0  0  0  0  0  0
   10.8478  -14.7154   28.8491 O   0  0  0  0  0  0  0  0  0  0  0  0
   10.1797  -16.8058   28.3420 O   0  0  0  0  0  0  0  0  0  0  0  0
  2  1  1  0
  2  3  1  0
  3  4  1  6
  5  3  1  0
  5  7  1  0
  5  6  1  1
  7  8  2  0
  7  9  1  0
  9 10  1  0
 10 13  1  0
 10 11  1  6
 11 12  1  0
 13 14  2  0
 16 15  1  0
 17 16  1  0
 17 18  1  0
 19 18  1  1
 20 19  1  0
 20 13  1  0
 21 19  1  0
 22 21  1  0
 23 21  2  0
M  END
$$$$
