ICM.pdb
     RDKit          3D

 23 22  0  0  1  0  0  0  0  0999 V2000
    7.4853  -12.0311   19.3327 C   0  0  0  0  0  0  0  0  0  0  0  0
    7.9168  -13.4742   19.3387 C   0  0  0  0  0  0  0  0  0  0  0  0
    7.9158  -14.0201   20.7737 C   0  0  2  0  0  0  0  0  0  0  0  0
    8.8087  -13.1373   21.5735 C   0  0  0  0  0  0  0  0  0  0  0  0
    8.3073  -15.4719   20.7443 C   0  0  2  0  0  0  0  0  0  0  0  0
    7.2881  -16.1577   19.9135 N   0  0  0  0  0  0  0  0  0  0  0  0
    8.3540  -16.1077   22.0851 C   0  0  0  0  0  0  0  0  0  0  0  0
    7.2688  -16.5250   22.6281 O   0  0  0  0  0  0  0  0  0  0  0  0
    9.5218  -16.3092   22.8544 N   0  0  0  0  0  0  0  0  0  0  0  0
    9.4855  -16.9145   24.1856 C   0  0  1  0  0  0  0  0  0  0  0  0
    9.5300  -18.4261   24.0901 C   0  0  0  0  0  0  0  0  0  0  0  0
    9.7876  -19.1803   25.7175 S   0  0  0  0  0  0  0  0  0  0  0  0
   10.5545  -16.3801   25.0501 C   0  0  0  0  0  0  0  0  0  0  0  0
   11.4503  -17.1769   25.4945 O   0  0  0  0  0  0  0  0  0  0  0  0
    5.7444  -12.2224   26.1937 C   0  0  0  0  0  0  0  0  0  0  0  0
    7.0351  -12.0447   27.4264 S   0  0  0  0  0  0  0  0  0  0  0  0
    7.9861  -13.5736   27.6733 C   0  0  0  0  0  0  0  0  0  0  0  0
    8.6540  -14.0258   26.4072 C   0  0  0  0  0  0  0  0  0  0  0  0
   10.0391  -14.4960   26.6631 C   0  0  2  0  0  0  0  0  0  0  0  0
   10.6571  -15.0197   25.4277 N   0  0  0  0  0  0  0  0  0  0  0  0
   10.2073  -15.4548   27.7650 C   0  0  0  0  0  0  0  0  0  0  0  0
   11.0791  -15.1403   28.7967 O   0  0  0  0  0  0  0  0  0  0  0  0
    9.6071  -16.5422   27.8263 O   0  0  0  0  0  0  0  0  0  0  0  0
  2  1  1  0
  2  3  1  0
  3  4  1  1
  5  3  1  0
  5  7  1  0
  5  6  1  6
  7  8  2  0
  7  9  1  0
  9 10  1  0
 10 13  1  0
 10 11  1  6
 11 12  1  0
 13 14  2  0
 16 15  1  0
 17 16  1  0
 17 18  1  0
 19 18  1  6
 20 19  1  0
 20 13  1  0
 21 19  1  0
 22 21  1  0
 23 21  2  0
M  END
$$$$
