ICM.pdb
     RDKit          3D

 23 22  0  0  1  0  0  0  0  0999 V2000
   13.7327  -13.6702   19.7644 C   0  0  0  0  0  0  0  0  0  0  0  0
   12.3137  -14.0514   19.4331 C   0  0  0  0  0  0  0  0  0  0  0  0
   12.2645  -15.4883   18.8944 C   0  0  2  0  0  0  0  0  0  0  0  0
   13.2855  -15.5812   17.8149 C   0  0  0  0  0  0  0  0  0  0  0  0
   10.8556  -15.8045   18.4743 C   0  0  2  0  0  0  0  0  0  0  0  0
   10.5370  -14.8740   17.3642 N   0  0  0  0  0  0  0  0  0  0  0  0
    9.8543  -15.6350   19.5572 C   0  0  0  0  0  0  0  0  0  0  0  0
    8.6388  -15.3509   19.2595 O   0  0  0  0  0  0  0  0  0  0  0  0
   10.1157  -15.7617   20.9399 N   0  0  0  0  0  0  0  0  0  0  0  0
    9.0495  -15.7440   21.9413 C   0  0  1  0  0  0  0  0  0  0  0  0
    7.9775  -16.7600   21.6029 C   0  0  0  0  0  0  0  0  0  0  0  0
    8.6314  -18.4491   21.6583 S   0  0  0  0  0  0  0  0  0  0  0  0
    9.5854  -15.9333   23.3025 C   0  0  0  0  0  0  0  0  0  0  0  0
    9.9351  -17.1054   23.6749 O   0  0  0  0  0  0  0  0  0  0  0  0
    6.5959  -10.8731   26.3113 C   0  0  0  0  0  0  0  0  0  0  0  0
    7.0058  -12.2663   27.3638 S   0  0  0  0  0  0  0  0  0  0  0  0
    6.8899  -13.8596   26.4973 C   0  0  0  0  0  0  0  0  0  0  0  0
    7.7643  -13.8962   25.2777 C   0  0  0  0  0  0  0  0  0  0  0  0
    8.9259  -14.8010   25.4705 C   0  0  2  0  0  0  0  0  0  0  0  0
    9.7410  -14.8854   24.2414 N   0  0  0  0  0  0  0  0  0  0  0  0
    8.6241  -16.1479   25.9772 C   0  0  0  0  0  0  0  0  0  0  0  0
    9.2509  -16.5814   27.1359 O   0  0  0  0  0  0  0  0  0  0  0  0
    7.8315  -16.9286   25.4217 O   0  0  0  0  0  0  0  0  0  0  0  0
  2  1  1  0
  2  3  1  0
  3  4  1  6
  5  3  1  0
  5  7  1  0
  5  6  1  6
  7  8  2  0
  7  9  1  0
  9 10  1  0
 10 13  1  0
 10 11  1  6
 11 12  1  0
 13 14  2  0
 16 15  1  0
 17 16  1  0
 17 18  1  0
 19 18  1  6
 20 19  1  0
 20 13  1  0
 21 19  1  0
 22 21  1  0
 23 21  2  0
M  END
$$$$
