ICM.pdb
     RDKit          3D

 23 22  0  0  1  0  0  0  0  0999 V2000
    7.4477  -11.8391   19.4345 C   0  0  0  0  0  0  0  0  0  0  0  0
    7.8278  -13.2382   19.0264 C   0  0  0  0  0  0  0  0  0  0  0  0
    8.0581  -14.1076   20.2707 C   0  0  2  0  0  0  0  0  0  0  0  0
    9.0858  -13.4170   21.0973 C   0  0  0  0  0  0  0  0  0  0  0  0
    8.4165  -15.5012   19.8334 C   0  0  2  0  0  0  0  0  0  0  0  0
    7.2536  -16.0040   19.0625 N   0  0  0  0  0  0  0  0  0  0  0  0
    8.6962  -16.4294   20.9579 C   0  0  0  0  0  0  0  0  0  0  0  0
    7.7335  -16.8272   21.7074 O   0  0  0  0  0  0  0  0  0  0  0  0
    9.9682  -16.9410   21.2990 N   0  0  0  0  0  0  0  0  0  0  0  0
   10.1896  -17.7480   22.4988 C   0  0  1  0  0  0  0  0  0  0  0  0
   11.2363  -18.8136   22.2442 C   0  0  0  0  0  0  0  0  0  0  0  0
   11.5618  -19.7856   23.7386 S   0  0  0  0  0  0  0  0  0  0  0  0
   10.5259  -16.9045   23.6612 C   0  0  0  0  0  0  0  0  0  0  0  0
   10.7319  -15.6552   23.4833 O   0  0  0  0  0  0  0  0  0  0  0  0
   10.5362  -13.5866   29.1599 C   0  0  0  0  0  0  0  0  0  0  0  0
   10.0176  -13.7272   27.4487 S   0  0  0  0  0  0  0  0  0  0  0  0
    8.7403  -14.9965   27.2037 C   0  0  0  0  0  0  0  0  0  0  0  0
    9.0385  -15.8663   26.0171 C   0  0  0  0  0  0  0  0  0  0  0  0
   10.3469  -16.5531   26.1636 C   0  0  2  0  0  0  0  0  0  0  0  0
   10.6382  -17.3942   24.9846 N   0  0  0  0  0  0  0  0  0  0  0  0
   10.5427  -17.3223   27.4013 C   0  0  0  0  0  0  0  0  0  0  0  0
    9.8654  -18.5227   27.5556 O   0  0  0  0  0  0  0  0  0  0  0  0
   11.2876  -16.9555   28.3269 O   0  0  0  0  0  0  0  0  0  0  0  0
  2  1  1  0
  2  3  1  0
  3  4  1  6
  5  3  1  0
  5  7  1  0
  5  6  1  1
  7  8  2  0
  7  9  1  0
  9 10  1  0
 10 13  1  0
 10 11  1  6
 11 12  1  0
 13 14  2  0
 16 15  1  0
 17 16  1  0
 17 18  1  0
 19 18  1  6
 20 19  1  0
 20 13  1  0
 21 19  1  0
 22 21  1  0
 23 21  2  0
M  END
$$$$
