ICM.pdb
     RDKit          3D

 23 22  0  0  1  0  0  0  0  0999 V2000
    6.0413  -11.9597   26.9092 C   0  0  0  0  0  0  0  0  0  0  0  0
    5.6707  -13.1655   26.0861 C   0  0  0  0  0  0  0  0  0  0  0  0
    6.9371  -13.9057   25.6331 C   0  0  2  0  0  0  0  0  0  0  0  0
    7.8152  -12.8991   24.9755 C   0  0  0  0  0  0  0  0  0  0  0  0
    6.5394  -15.0716   24.7705 C   0  0  2  0  0  0  0  0  0  0  0  0
    5.7255  -15.9636   25.6316 N   0  0  0  0  0  0  0  0  0  0  0  0
    7.6904  -15.8347   24.2254 C   0  0  0  0  0  0  0  0  0  0  0  0
    8.2862  -16.6988   24.9637 O   0  0  0  0  0  0  0  0  0  0  0  0
    8.2164  -15.7005   22.9210 N   0  0  0  0  0  0  0  0  0  0  0  0
    9.3818  -16.4591   22.4669 C   0  0  1  0  0  0  0  0  0  0  0  0
    9.5839  -16.2917   20.9746 C   0  0  0  0  0  0  0  0  0  0  0  0
    8.0617  -16.6535   20.0604 S   0  0  0  0  0  0  0  0  0  0  0  0
   10.5896  -16.1028   23.2351 C   0  0  0  0  0  0  0  0  0  0  0  0
   10.9640  -14.8808   23.2725 O   0  0  0  0  0  0  0  0  0  0  0  0
   10.3575  -13.0491   27.8843 C   0  0  0  0  0  0  0  0  0  0  0  0
   10.6229  -14.7062   28.5173 S   0  0  0  0  0  0  0  0  0  0  0  0
   11.7222  -15.6944   27.4600 C   0  0  0  0  0  0  0  0  0  0  0  0
   11.0645  -16.0635   26.1621 C   0  0  0  0  0  0  0  0  0  0  0  0
   12.0250  -16.7101   25.2322 C   0  0  2  0  0  0  0  0  0  0  0  0
   11.3766  -17.0401   23.9465 N   0  0  0  0  0  0  0  0  0  0  0  0
   12.7492  -17.8784   25.7542 C   0  0  0  0  0  0  0  0  0  0  0  0
   13.9127  -17.6731   26.4804 O   0  0  0  0  0  0  0  0  0  0  0  0
   12.3753  -19.0516   25.5807 O   0  0  0  0  0  0  0  0  0  0  0  0
  2  1  1  0
  2  3  1  0
  3  4  1  6
  5  3  1  0
  5  7  1  0
  5  6  1  1
  7  8  2  0
  7  9  1  0
  9 10  1  0
 10 13  1  0
 10 11  1  6
 11 12  1  0
 13 14  2  0
 16 15  1  0
 17 16  1  0
 17 18  1  0
 19 18  1  1
 20 19  1  0
 20 13  1  0
 21 19  1  0
 22 21  1  0
 23 21  2  0
M  END
$$$$
