ICM.pdb
     RDKit          3D

 23 22  0  0  1  0  0  0  0  0999 V2000
    7.7742  -12.1498   19.0277 C   0  0  0  0  0  0  0  0  0  0  0  0
    7.8929  -13.6473   19.1388 C   0  0  0  0  0  0  0  0  0  0  0  0
    7.4335  -14.1122   20.5280 C   0  0  2  0  0  0  0  0  0  0  0  0
    8.3122  -13.4379   21.5229 C   0  0  0  0  0  0  0  0  0  0  0  0
    7.4512  -15.6154   20.5708 C   0  0  2  0  0  0  0  0  0  0  0  0
    6.4371  -16.0684   19.5879 N   0  0  0  0  0  0  0  0  0  0  0  0
    7.1269  -16.1814   21.9044 C   0  0  0  0  0  0  0  0  0  0  0  0
    6.0010  -15.9053   22.4547 O   0  0  0  0  0  0  0  0  0  0  0  0
    7.9676  -17.0298   22.6591 N   0  0  0  0  0  0  0  0  0  0  0  0
    7.6913  -17.3609   24.0569 C   0  0  1  0  0  0  0  0  0  0  0  0
    7.7077  -18.8614   24.2672 C   0  0  0  0  0  0  0  0  0  0  0  0
    7.5548  -19.2809   26.0235 S   0  0  0  0  0  0  0  0  0  0  0  0
    8.6153  -16.6613   24.9694 C   0  0  0  0  0  0  0  0  0  0  0  0
    9.8522  -16.5775   24.6566 O   0  0  0  0  0  0  0  0  0  0  0  0
    5.9327  -12.0095   27.1682 C   0  0  0  0  0  0  0  0  0  0  0  0
    7.6427  -11.5822   26.8366 S   0  0  0  0  0  0  0  0  0  0  0  0
    8.6652  -13.0317   26.4409 C   0  0  0  0  0  0  0  0  0  0  0  0
    8.6148  -14.0639   27.5297 C   0  0  0  0  0  0  0  0  0  0  0  0
    9.1714  -15.3623   27.0719 C   0  0  2  0  0  0  0  0  0  0  0  0
    8.2174  -16.0659   26.1905 N   0  0  0  0  0  0  0  0  0  0  0  0
    9.6595  -16.2673   28.1228 C   0  0  0  0  0  0  0  0  0  0  0  0
   10.7748  -15.8960   28.8588 O   0  0  0  0  0  0  0  0  0  0  0  0
    9.1251  -17.3572   28.3928 O   0  0  0  0  0  0  0  0  0  0  0  0
  2  1  1  0
  2  3  1  0
  3  4  1  1
  5  3  1  0
  5  7  1  0
  5  6  1  6
  7  8  2  0
  7  9  1  0
  9 10  1  0
 10 13  1  0
 10 11  1  6
 11 12  1  0
 13 14  2  0
 16 15  1  0
 17 16  1  0
 17 18  1  0
 19 18  1  1
 20 19  1  0
 20 13  1  0
 21 19  1  0
 22 21  1  0
 23 21  2  0
M  END
$$$$
