ANI.pdb
     RDKit          3D

 22 21  0  0  1  0  0  0  0  0999 V2000
   16.7527  -14.9945  -18.0191 C   0  0  0  0  0  0  0  0  0  0  0  0
   17.1675  -14.4089  -16.6858 C   0  0  2  0  0  0  0  0  0  0  0  0
   16.0517  -14.4173  -15.7655 N   0  0  0  0  0  0  0  0  0  0  0  0
   17.6901  -13.0503  -16.9256 C   0  0  0  0  0  0  0  0  0  0  0  0
   18.7488  -12.9388  -17.6311 O   0  0  0  0  0  0  0  0  0  0  0  0
   17.0691   -7.4502  -18.2650 N   0  0  0  0  0  0  0  0  0  0  0  0
   17.0373   -8.1312  -17.0270 C   0  0  0  0  0  0  0  0  0  0  0  0
   17.4261   -7.4791  -16.0194 O   0  0  0  0  0  0  0  0  0  0  0  0
   16.5885   -9.5103  -16.8535 C   0  0  0  0  0  0  0  0  0  0  0  0
   17.6684  -10.5371  -16.6976 C   0  0  2  0  0  0  0  0  0  0  0  0
   17.1254  -11.8551  -16.4455 N   0  0  0  0  0  0  0  0  0  0  0  0
   18.6341  -10.1105  -15.6766 C   0  0  0  0  0  0  0  0  0  0  0  0
   18.4135  -10.3296  -14.4713 O   0  0  0  0  0  0  0  0  0  0  0  0
   24.2181  -10.8702  -14.1696 C   0  0  0  0  0  0  0  0  0  0  0  0
   23.1643   -9.8172  -14.2586 C   0  0  0  0  0  0  0  0  0  0  0  0
   22.1530  -10.0580  -15.3459 C   0  0  2  0  0  0  0  0  0  0  0  0
   22.7308   -9.5770  -16.6510 C   0  0  0  0  0  0  0  0  0  0  0  0
   20.9293   -9.2323  -15.0389 C   0  0  2  0  0  0  0  0  0  0  0  0
   19.8519   -9.4372  -15.9814 N   0  0  0  0  0  0  0  0  0  0  0  0
   21.2262   -7.7768  -14.9729 C   0  0  0  0  0  0  0  0  0  0  0  0
   21.9530   -7.2874  -14.0606 O   0  0  0  0  0  0  0  0  0  0  0  0
   20.7221   -6.8804  -15.9073 O   0  0  0  0  0  0  0  0  0  0  0  0
  2  1  1  6
  2  4  1  0
  3  2  1  0
  4  5  2  0
  7  6  1  0
  7  9  1  0
  8  7  2  0
 10  9  1  1
 10 12  1  0
 11 10  1  0
 11  4  1  0
 12 13  2  0
 12 19  1  0
 14 15  1  0
 16 15  1  0
 16 17  1  6
 18 16  1  0
 18 19  1  6
 20 18  1  0
 20 22  1  0
 21 20  2  0
M  END
$$$$
