ANI.pdb
     RDKit          3D

 22 21  0  0  1  0  0  0  0  0999 V2000
   16.3034  -12.2611  -15.0637 C   0  0  0  0  0  0  0  0  0  0  0  0
   15.5671  -11.1111  -15.7179 C   0  0  2  0  0  0  0  0  0  0  0  0
   14.9385  -11.5509  -16.9441 N   0  0  0  0  0  0  0  0  0  0  0  0
   16.5321  -10.0174  -15.9401 C   0  0  0  0  0  0  0  0  0  0  0  0
   17.5935  -10.2883  -16.5966 O   0  0  0  0  0  0  0  0  0  0  0  0
   17.6369   -4.3969  -17.2152 N   0  0  0  0  0  0  0  0  0  0  0  0
   17.5642   -5.1478  -16.0200 C   0  0  0  0  0  0  0  0  0  0  0  0
   18.3255   -4.7827  -15.0826 O   0  0  0  0  0  0  0  0  0  0  0  0
   16.6780   -6.2905  -15.8144 C   0  0  0  0  0  0  0  0  0  0  0  0
   17.3404   -7.6334  -15.7624 C   0  0  2  0  0  0  0  0  0  0  0  0
   16.3904   -8.6918  -15.4923 N   0  0  0  0  0  0  0  0  0  0  0  0
   18.4606   -7.6130  -14.8127 C   0  0  0  0  0  0  0  0  0  0  0  0
   18.2721   -7.8789  -13.6115 O   0  0  0  0  0  0  0  0  0  0  0  0
   23.6719  -10.1019  -13.8434 C   0  0  0  0  0  0  0  0  0  0  0  0
   22.8694   -8.8532  -13.6892 C   0  0  0  0  0  0  0  0  0  0  0  0
   21.7501   -8.7216  -14.6856 C   0  0  2  0  0  0  0  0  0  0  0  0
   22.3487   -8.5182  -16.0527 C   0  0  0  0  0  0  0  0  0  0  0  0
   20.9509   -7.4926  -14.3330 C   0  0  2  0  0  0  0  0  0  0  0  0
   19.7989   -7.2975  -15.1851 N   0  0  0  0  0  0  0  0  0  0  0  0
   21.7712   -6.2527  -14.3597 C   0  0  0  0  0  0  0  0  0  0  0  0
   21.7601   -5.4697  -15.3531 O   0  0  0  0  0  0  0  0  0  0  0  0
   22.5907   -5.8901  -13.2977 O   0  0  0  0  0  0  0  0  0  0  0  0
  2  1  1  6
  2  4  1  0
  3  2  1  0
  4  5  2  0
  7  6  1  0
  7  9  1  0
  8  7  2  0
 10  9  1  1
 10 12  1  0
 11 10  1  0
 11  4  1  0
 12 13  2  0
 12 19  1  0
 14 15  1  0
 16 15  1  0
 16 17  1  6
 18 16  1  0
 18 19  1  6
 20 18  1  0
 20 22  1  0
 21 20  2  0
M  END
$$$$
