ANI.pdb
     RDKit          3D

 22 21  0  0  1  0  0  0  0  0999 V2000
   26.5930  -17.4896  -16.6818 C   0  0  0  0  0  0  0  0  0  0  0  0
   27.0833  -18.5305  -15.6974 C   0  0  2  0  0  0  0  0  0  0  0  0
   27.2448  -19.8076  -16.3570 N   0  0  0  0  0  0  0  0  0  0  0  0
   26.1226  -18.5911  -14.5794 C   0  0  0  0  0  0  0  0  0  0  0  0
   25.9164  -17.5189  -13.9168 O   0  0  0  0  0  0  0  0  0  0  0  0
   22.4130  -19.8110  -11.0048 N   0  0  0  0  0  0  0  0  0  0  0  0
   22.2196  -20.4044  -12.2728 C   0  0  0  0  0  0  0  0  0  0  0  0
   21.1068  -20.9674  -12.4634 O   0  0  0  0  0  0  0  0  0  0  0  0
   23.2091  -20.3996  -13.3473 C   0  0  0  0  0  0  0  0  0  0  0  0
   24.5307  -19.7745  -13.0193 C   0  0  2  0  0  0  0  0  0  0  0  0
   25.4057  -19.7303  -14.1717 N   0  0  0  0  0  0  0  0  0  0  0  0
   25.1394  -20.4456  -11.8633 C   0  0  0  0  0  0  0  0  0  0  0  0
   25.8608  -21.4469  -12.0251 O   0  0  0  0  0  0  0  0  0  0  0  0
   27.5673  -17.8224   -7.8111 C   0  0  0  0  0  0  0  0  0  0  0  0
   27.0544  -18.8115   -8.8039 C   0  0  0  0  0  0  0  0  0  0  0  0
   25.9386  -19.6752   -8.2824 C   0  0  2  0  0  0  0  0  0  0  0  0
   26.4524  -20.4600   -7.1040 C   0  0  0  0  0  0  0  0  0  0  0  0
   25.5545  -20.6498   -9.3669 C   0  0  2  0  0  0  0  0  0  0  0  0
   24.9540  -20.0139  -10.5185 N   0  0  0  0  0  0  0  0  0  0  0  0
   24.6318  -21.7093   -8.8800 C   0  0  0  0  0  0  0  0  0  0  0  0
   23.3772  -21.6065   -9.0043 O   0  0  0  0  0  0  0  0  0  0  0  0
   25.0980  -22.8645   -8.2645 O   0  0  0  0  0  0  0  0  0  0  0  0
  2  1  1  6
  2  4  1  0
  3  2  1  0
  4  5  2  0
  7  6  1  0
  7  9  1  0
  8  7  2  0
 10  9  1  6
 10 12  1  0
 11 10  1  0
 11  4  1  0
 12 13  2  0
 12 19  1  0
 14 15  1  0
 16 15  1  0
 16 17  1  1
 18 16  1  0
 18 19  1  6
 20 18  1  0
 20 22  1  0
 21 20  2  0
M  END
$$$$
