ANI.pdb
     RDKit          3D

 22 21  0  0  1  0  0  0  0  0999 V2000
   28.3493  -22.6721  -16.4946 C   0  0  0  0  0  0  0  0  0  0  0  0
   27.7073  -21.3211  -16.2590 C   0  0  2  0  0  0  0  0  0  0  0  0
   28.6962  -20.3686  -15.8040 N   0  0  0  0  0  0  0  0  0  0  0  0
   26.6089  -21.4993  -15.2904 C   0  0  0  0  0  0  0  0  0  0  0  0
   25.6433  -22.2656  -15.6242 O   0  0  0  0  0  0  0  0  0  0  0  0
   24.9265  -20.7449   -9.3081 N   0  0  0  0  0  0  0  0  0  0  0  0
   24.8176  -21.1111  -10.6689 C   0  0  0  0  0  0  0  0  0  0  0  0
   23.7646  -21.7210  -11.0017 O   0  0  0  0  0  0  0  0  0  0  0  0
   25.8282  -20.8274  -11.6846 C   0  0  0  0  0  0  0  0  0  0  0  0
   25.4205  -21.0794  -13.1041 C   0  0  2  0  0  0  0  0  0  0  0  0
   26.5255  -20.8984  -14.0216 N   0  0  0  0  0  0  0  0  0  0  0  0
   24.2489  -20.2641  -13.4506 C   0  0  0  0  0  0  0  0  0  0  0  0
   24.2624  -19.0332  -13.2666 O   0  0  0  0  0  0  0  0  0  0  0  0
   21.1316  -17.9700  -17.2580 C   0  0  0  0  0  0  0  0  0  0  0  0
   20.7420  -19.1788  -16.4745 C   0  0  0  0  0  0  0  0  0  0  0  0
   21.9072  -20.0278  -16.0449 C   0  0  2  0  0  0  0  0  0  0  0  0
   21.6564  -21.4445  -16.4905 C   0  0  0  0  0  0  0  0  0  0  0  0
   21.9689  -20.0110  -14.5384 C   0  0  2  0  0  0  0  0  0  0  0  0
   23.0526  -20.8050  -14.0032 N   0  0  0  0  0  0  0  0  0  0  0  0
   20.6992  -20.4645  -13.9113 C   0  0  0  0  0  0  0  0  0  0  0  0
   20.5748  -21.6266  -13.4276 O   0  0  0  0  0  0  0  0  0  0  0  0
   19.5859  -19.6376  -13.8241 O   0  0  0  0  0  0  0  0  0  0  0  0
  2  1  1  1
  2  4  1  0
  3  2  1  0
  4  5  2  0
  7  6  1  0
  7  9  1  0
  8  7  2  0
 10  9  1  1
 10 12  1  0
 11 10  1  0
 11  4  1  0
 12 13  2  0
 12 19  1  0
 14 15  1  0
 16 15  1  0
 16 17  1  1
 18 16  1  0
 18 19  1  6
 20 18  1  0
 20 22  1  0
 21 20  2  0
M  END
$$$$
