ANI.pdb
     RDKit          3D

 22 21  0  0  1  0  0  0  0  0999 V2000
   19.8039  -15.1368  -18.0820 C   0  0  0  0  0  0  0  0  0  0  0  0
   19.0611  -13.8254  -18.2279 C   0  0  2  0  0  0  0  0  0  0  0  0
   18.5038  -13.7100  -19.5576 N   0  0  0  0  0  0  0  0  0  0  0  0
   19.9991  -12.7310  -17.9131 C   0  0  0  0  0  0  0  0  0  0  0  0
   20.6087  -12.7775  -16.7918 O   0  0  0  0  0  0  0  0  0  0  0  0
   23.8264  -10.3690  -20.7951 N   0  0  0  0  0  0  0  0  0  0  0  0
   22.4322  -10.5209  -20.6194 C   0  0  0  0  0  0  0  0  0  0  0  0
   21.8573  -11.3401  -21.3875 O   0  0  0  0  0  0  0  0  0  0  0  0
   21.6417   -9.8033  -19.6226 C   0  0  0  0  0  0  0  0  0  0  0  0
   21.2395  -10.5910  -18.4132 C   0  0  2  0  0  0  0  0  0  0  0  0
   20.2874  -11.6311  -18.7407 N   0  0  0  0  0  0  0  0  0  0  0  0
   20.7635   -9.6916  -17.3540 C   0  0  0  0  0  0  0  0  0  0  0  0
   19.5747   -9.3237  -17.3281 O   0  0  0  0  0  0  0  0  0  0  0  0
   19.6645   -8.9487  -11.9805 C   0  0  0  0  0  0  0  0  0  0  0  0
   20.8541   -8.4304  -12.7176 C   0  0  0  0  0  0  0  0  0  0  0  0
   21.2805   -9.2963  -13.8714 C   0  0  2  0  0  0  0  0  0  0  0  0
   22.7406   -9.6270  -13.7067 C   0  0  0  0  0  0  0  0  0  0  0  0
   21.1176   -8.4990  -15.1408 C   0  0  2  0  0  0  0  0  0  0  0  0
   21.6000   -9.1916  -16.3150 N   0  0  0  0  0  0  0  0  0  0  0  0
   21.7851   -7.1722  -15.0697 C   0  0  0  0  0  0  0  0  0  0  0  0
   21.3821   -6.2668  -14.2837 O   0  0  0  0  0  0  0  0  0  0  0  0
   22.8834   -6.8584  -15.8608 O   0  0  0  0  0  0  0  0  0  0  0  0
  2  1  1  6
  2  4  1  0
  3  2  1  0
  4  5  2  0
  7  6  1  0
  7  9  1  0
  8  7  2  0
 10  9  1  6
 10 12  1  0
 11 10  1  0
 11  4  1  0
 12 13  2  0
 12 19  1  0
 14 15  1  0
 16 15  1  0
 16 17  1  1
 18 16  1  0
 18 19  1  6
 20 18  1  0
 20 22  1  0
 21 20  2  0
M  END
$$$$
