ANI.pdb
     RDKit          3D

 22 21  0  0  1  0  0  0  0  0999 V2000
   27.9295  -19.5910  -16.9930 C   0  0  0  0  0  0  0  0  0  0  0  0
   28.3980  -20.6779  -16.0486 C   0  0  2  0  0  0  0  0  0  0  0  0
   28.7373  -21.8733  -16.7888 N   0  0  0  0  0  0  0  0  0  0  0  0
   27.3315  -20.9129  -15.0566 C   0  0  0  0  0  0  0  0  0  0  0  0
   26.3543  -21.6587  -15.4029 O   0  0  0  0  0  0  0  0  0  0  0  0
   24.5650  -21.4306  -10.5230 N   0  0  0  0  0  0  0  0  0  0  0  0
   25.7530  -20.6898  -10.3294 C   0  0  0  0  0  0  0  0  0  0  0  0
   26.0442  -20.4008   -9.1364 O   0  0  0  0  0  0  0  0  0  0  0  0
   26.6401  -20.2544  -11.4050 C   0  0  0  0  0  0  0  0  0  0  0  0
   26.2504  -20.6771  -12.7886 C   0  0  2  0  0  0  0  0  0  0  0  0
   27.2906  -20.3874  -13.7528 N   0  0  0  0  0  0  0  0  0  0  0  0
   24.9527  -20.0941  -13.1534 C   0  0  0  0  0  0  0  0  0  0  0  0
   24.8562  -18.8778  -13.3994 O   0  0  0  0  0  0  0  0  0  0  0  0
   21.2712  -19.1510  -16.8481 C   0  0  0  0  0  0  0  0  0  0  0  0
   21.0861  -20.2094  -15.8125 C   0  0  0  0  0  0  0  0  0  0  0  0
   22.3750  -20.7868  -15.2945 C   0  0  2  0  0  0  0  0  0  0  0  0
   22.2805  -22.2891  -15.3459 C   0  0  0  0  0  0  0  0  0  0  0  0
   22.5280  -20.3727  -13.8528 C   0  0  2  0  0  0  0  0  0  0  0  0
   23.7508  -20.8528  -13.2482 N   0  0  0  0  0  0  0  0  0  0  0  0
   21.3834  -20.8097  -13.0102 C   0  0  0  0  0  0  0  0  0  0  0  0
   20.2198  -20.3419  -13.1752 O   0  0  0  0  0  0  0  0  0  0  0  0
   21.5317  -21.7523  -12.0000 O   0  0  0  0  0  0  0  0  0  0  0  0
  2  1  1  6
  2  4  1  0
  3  2  1  0
  4  5  2  0
  7  6  1  0
  7  9  1  0
  8  7  2  0
 10  9  1  1
 10 12  1  0
 11 10  1  0
 11  4  1  0
 12 13  2  0
 12 19  1  0
 14 15  1  0
 16 15  1  0
 16 17  1  1
 18 16  1  0
 18 19  1  1
 20 18  1  0
 20 22  1  0
 21 20  2  0
M  END
$$$$
