ANI.pdb
     RDKit          3D

 22 21  0  0  1  0  0  0  0  0999 V2000
   18.1076  -14.6927  -18.9642 C   0  0  0  0  0  0  0  0  0  0  0  0
   19.0529  -14.1657  -17.9052 C   0  0  2  0  0  0  0  0  0  0  0  0
   18.9565  -14.9657  -16.7040 N   0  0  0  0  0  0  0  0  0  0  0  0
   18.7260  -12.7472  -17.6653 C   0  0  0  0  0  0  0  0  0  0  0  0
   18.9083  -11.9266  -18.6267 O   0  0  0  0  0  0  0  0  0  0  0  0
   17.1966   -8.0625  -15.5942 N   0  0  0  0  0  0  0  0  0  0  0  0
   16.3603   -9.1566  -15.2764 C   0  0  0  0  0  0  0  0  0  0  0  0
   15.2726   -8.8807  -14.6999 O   0  0  0  0  0  0  0  0  0  0  0  0
   16.6756  -10.5516  -15.5732 C   0  0  0  0  0  0  0  0  0  0  0  0
   17.9957  -10.7989  -16.2373 C   0  0  2  0  0  0  0  0  0  0  0  0
   18.2274  -12.2096  -16.4652 N   0  0  0  0  0  0  0  0  0  0  0  0
   19.0766  -10.1560  -15.4787 C   0  0  0  0  0  0  0  0  0  0  0  0
   19.4420  -10.6240  -14.3847 O   0  0  0  0  0  0  0  0  0  0  0  0
   23.1180   -7.8221  -18.3312 C   0  0  0  0  0  0  0  0  0  0  0  0
   21.9857   -7.7285  -17.3635 C   0  0  0  0  0  0  0  0  0  0  0  0
   22.1807   -8.5475  -16.1169 C   0  0  2  0  0  0  0  0  0  0  0  0
   22.3513   -9.9901  -16.5146 C   0  0  0  0  0  0  0  0  0  0  0  0
   20.9309   -8.4332  -15.2810 C   0  0  2  0  0  0  0  0  0  0  0  0
   19.7615   -8.9894  -15.9247 N   0  0  0  0  0  0  0  0  0  0  0  0
   20.6315   -7.0294  -14.8931 C   0  0  0  0  0  0  0  0  0  0  0  0
   21.4004   -6.3710  -14.1346 O   0  0  0  0  0  0  0  0  0  0  0  0
   19.4944   -6.3689  -15.3423 O   0  0  0  0  0  0  0  0  0  0  0  0
  2  1  1  6
  2  4  1  0
  3  2  1  0
  4  5  2  0
  7  6  1  0
  7  9  1  0
  8  7  2  0
 10  9  1  1
 10 12  1  0
 11 10  1  0
 11  4  1  0
 12 13  2  0
 12 19  1  0
 14 15  1  0
 16 15  1  0
 16 17  1  6
 18 16  1  0
 18 19  1  6
 20 18  1  0
 20 22  1  0
 21 20  2  0
M  END
$$$$
