ANI.pdb
     RDKit          3D

 22 21  0  0  1  0  0  0  0  0999 V2000
   29.1926  -22.0081  -19.0839 C   0  0  0  0  0  0  0  0  0  0  0  0
   28.9424  -22.6845  -17.7525 C   0  0  2  0  0  0  0  0  0  0  0  0
   27.8557  -23.6320  -17.8678 N   0  0  0  0  0  0  0  0  0  0  0  0
   28.6719  -21.6360  -16.7505 C   0  0  0  0  0  0  0  0  0  0  0  0
   29.4134  -20.5963  -16.7661 O   0  0  0  0  0  0  0  0  0  0  0  0
   25.8316  -17.9369  -14.4792 N   0  0  0  0  0  0  0  0  0  0  0  0
   25.7421  -18.4316  -15.8001 C   0  0  0  0  0  0  0  0  0  0  0  0
   25.0954  -17.7238  -16.6201 O   0  0  0  0  0  0  0  0  0  0  0  0
   26.3433  -19.6818  -16.2571 C   0  0  0  0  0  0  0  0  0  0  0  0
   27.0277  -20.5030  -15.2073 C   0  0  2  0  0  0  0  0  0  0  0  0
   27.6637  -21.6750  -15.7707 N   0  0  0  0  0  0  0  0  0  0  0  0
   26.0924  -20.8249  -14.1216 C   0  0  0  0  0  0  0  0  0  0  0  0
   25.0924  -21.5326  -14.3418 O   0  0  0  0  0  0  0  0  0  0  0  0
   25.8110  -20.8742   -7.8593 C   0  0  0  0  0  0  0  0  0  0  0  0
   25.3056  -21.1452   -9.2370 C   0  0  0  0  0  0  0  0  0  0  0  0
   26.1355  -20.5190  -10.3243 C   0  0  2  0  0  0  0  0  0  0  0  0
   26.0894  -19.0227  -10.1591 C   0  0  0  0  0  0  0  0  0  0  0  0
   25.5091  -20.8668  -11.6510 C   0  0  2  0  0  0  0  0  0  0  0  0
   26.2560  -20.3655  -12.7832 N   0  0  0  0  0  0  0  0  0  0  0  0
   24.1066  -20.3854  -11.7623 C   0  0  0  0  0  0  0  0  0  0  0  0
   23.1801  -20.8667  -11.0481 O   0  0  0  0  0  0  0  0  0  0  0  0
   23.7412  -19.3845  -12.6542 O   0  0  0  0  0  0  0  0  0  0  0  0
  2  1  1  6
  2  4  1  0
  3  2  1  0
  4  5  2  0
  7  6  1  0
  7  9  1  0
  8  7  2  0
 10  9  1  6
 10 12  1  0
 11 10  1  0
 11  4  1  0
 12 13  2  0
 12 19  1  0
 14 15  1  0
 16 15  1  0
 16 17  1  1
 18 16  1  0
 18 19  1  6
 20 18  1  0
 20 22  1  0
 21 20  2  0
M  END
$$$$
