ANI.pdb
     RDKit          3D

 22 21  0  0  1  0  0  0  0  0999 V2000
   27.1195  -19.0153  -16.2060 C   0  0  0  0  0  0  0  0  0  0  0  0
   27.4102  -20.1013  -15.1916 C   0  0  2  0  0  0  0  0  0  0  0  0
   27.1252  -21.4027  -15.7548 N   0  0  0  0  0  0  0  0  0  0  0  0
   26.6117  -19.8233  -13.9825 C   0  0  0  0  0  0  0  0  0  0  0  0
   26.6876  -18.6521  -13.4789 O   0  0  0  0  0  0  0  0  0  0  0  0
   22.4163  -18.9665  -13.7171 N   0  0  0  0  0  0  0  0  0  0  0  0
   22.8614  -20.2999  -13.5713 C   0  0  0  0  0  0  0  0  0  0  0  0
   22.6658  -21.0658  -14.5546 O   0  0  0  0  0  0  0  0  0  0  0  0
   23.5205  -20.8257  -12.3786 C   0  0  0  0  0  0  0  0  0  0  0  0
   24.9462  -20.4103  -12.1798 C   0  0  2  0  0  0  0  0  0  0  0  0
   25.7667  -20.7365  -13.3270 N   0  0  0  0  0  0  0  0  0  0  0  0
   25.4691  -20.9662  -10.9249 C   0  0  0  0  0  0  0  0  0  0  0  0
   25.6772  -22.1885  -10.8167 O   0  0  0  0  0  0  0  0  0  0  0  0
   28.4615  -19.5986   -5.6432 C   0  0  0  0  0  0  0  0  0  0  0  0
   27.5501  -20.4264   -6.4865 C   0  0  0  0  0  0  0  0  0  0  0  0
   27.1257  -19.7555   -7.7643 C   0  0  2  0  0  0  0  0  0  0  0  0
   26.3274  -18.5265   -7.4166 C   0  0  0  0  0  0  0  0  0  0  0  0
   26.2271  -20.7047   -8.5159 C   0  0  2  0  0  0  0  0  0  0  0  0
   25.7654  -20.1733   -9.7791 N   0  0  0  0  0  0  0  0  0  0  0  0
   25.0423  -21.1192   -7.7186 C   0  0  0  0  0  0  0  0  0  0  0  0
   23.9013  -20.6073   -7.9086 O   0  0  0  0  0  0  0  0  0  0  0  0
   25.1263  -22.0878   -6.7259 O   0  0  0  0  0  0  0  0  0  0  0  0
  2  1  1  6
  2  4  1  0
  3  2  1  0
  4  5  2  0
  7  6  1  0
  7  9  1  0
  8  7  2  0
 10  9  1  6
 10 12  1  0
 11 10  1  0
 11  4  1  0
 12 13  2  0
 12 19  1  0
 14 15  1  0
 16 15  1  0
 16 17  1  1
 18 16  1  0
 18 19  1  6
 20 18  1  0
 20 22  1  0
 21 20  2  0
M  END
$$$$
