ANI.pdb
     RDKit          3D

 22 21  0  0  1  0  0  0  0  0999 V2000
   22.5040  -29.9649  -15.3895 C   0  0  0  0  0  0  0  0  0  0  0  0
   22.0897  -30.8658  -14.2452 C   0  0  2  0  0  0  0  0  0  0  0  0
   21.6797  -32.1585  -14.7479 N   0  0  0  0  0  0  0  0  0  0  0  0
   21.0166  -30.1869  -13.4941 C   0  0  0  0  0  0  0  0  0  0  0  0
   19.9092  -29.9833  -14.0968 O   0  0  0  0  0  0  0  0  0  0  0  0
   20.1800  -32.1301   -9.5022 N   0  0  0  0  0  0  0  0  0  0  0  0
   19.4001  -31.0585   -9.9929 C   0  0  0  0  0  0  0  0  0  0  0  0
   18.2359  -31.3468  -10.3843 O   0  0  0  0  0  0  0  0  0  0  0  0
   19.8539  -29.6721  -10.0672 C   0  0  0  0  0  0  0  0  0  0  0  0
   20.0138  -29.1070  -11.4455 C   0  0  2  0  0  0  0  0  0  0  0  0
   21.1003  -29.7391  -12.1635 N   0  0  0  0  0  0  0  0  0  0  0  0
   20.1407  -27.6450  -11.3857 C   0  0  0  0  0  0  0  0  0  0  0  0
   21.1525  -27.1213  -10.8845 O   0  0  0  0  0  0  0  0  0  0  0  0
   20.3903  -22.6576  -14.4114 C   0  0  0  0  0  0  0  0  0  0  0  0
   19.8575  -23.2994  -13.1740 C   0  0  0  0  0  0  0  0  0  0  0  0
   19.7893  -24.8003  -13.2473 C   0  0  2  0  0  0  0  0  0  0  0  0
   18.7868  -25.1821  -14.3045 C   0  0  0  0  0  0  0  0  0  0  0  0
   19.2923  -25.3122  -11.9190 C   0  0  2  0  0  0  0  0  0  0  0  0
   19.1482  -26.7506  -11.8798 N   0  0  0  0  0  0  0  0  0  0  0  0
   17.9977  -24.6988  -11.5204 C   0  0  0  0  0  0  0  0  0  0  0  0
   16.9042  -25.3254  -11.6282 O   0  0  0  0  0  0  0  0  0  0  0  0
   17.9216  -23.4085  -11.0103 O   0  0  0  0  0  0  0  0  0  0  0  0
  2  1  1  6
  2  4  1  0
  3  2  1  0
  4  5  2  0
  7  6  1  0
  7  9  1  0
  8  7  2  0
 10  9  1  1
 10 12  1  0
 11 10  1  0
 11  4  1  0
 12 13  2  0
 12 19  1  0
 14 15  1  0
 16 15  1  0
 16 17  1  6
 18 16  1  0
 18 19  1  6
 20 18  1  0
 20 22  1  0
 21 20  2  0
M  END
$$$$
