ANI.pdb
     RDKit          3D

 22 21  0  0  1  0  0  0  0  0999 V2000
   40.4810  -26.4948    1.9020 C   0  0  0  0  0  0  0  0  0  0  0  0
   40.1294  -25.8584    3.2303 C   0  0  2  0  0  0  0  0  0  0  0  0
   40.7465  -26.5891    4.3153 N   0  0  0  0  0  0  0  0  0  0  0  0
   38.6589  -25.8176    3.3428 C   0  0  0  0  0  0  0  0  0  0  0  0
   38.0217  -25.0827    2.5152 O   0  0  0  0  0  0  0  0  0  0  0  0
   33.5533  -28.1791    3.6913 N   0  0  0  0  0  0  0  0  0  0  0  0
   34.3552  -27.7432    4.7704 C   0  0  0  0  0  0  0  0  0  0  0  0
   33.7420  -27.3557    5.8026 O   0  0  0  0  0  0  0  0  0  0  0  0
   35.8156  -27.7200    4.7583 C   0  0  0  0  0  0  0  0  0  0  0  0
   36.4481  -26.4080    4.4068 C   0  0  2  0  0  0  0  0  0  0  0  0
   37.8863  -26.5194    4.2854 N   0  0  0  0  0  0  0  0  0  0  0  0
   36.0322  -25.3700    5.3590 C   0  0  0  0  0  0  0  0  0  0  0  0
   36.7055  -25.1487    6.3822 O   0  0  0  0  0  0  0  0  0  0  0  0
   32.1626  -21.7242    3.6892 C   0  0  0  0  0  0  0  0  0  0  0  0
   33.3987  -22.2417    4.3459 C   0  0  0  0  0  0  0  0  0  0  0  0
   33.1572  -22.8648    5.6936 C   0  0  2  0  0  0  0  0  0  0  0  0
   32.8634  -21.7670    6.6820 C   0  0  0  0  0  0  0  0  0  0  0  0
   34.4249  -23.5592    6.1228 C   0  0  2  0  0  0  0  0  0  0  0  0
   34.8672  -24.5688    5.1866 N   0  0  0  0  0  0  0  0  0  0  0  0
   34.3052  -24.1839    7.4668 C   0  0  0  0  0  0  0  0  0  0  0  0
   33.7550  -25.3113    7.6289 O   0  0  0  0  0  0  0  0  0  0  0  0
   34.7900  -23.5638    8.6118 O   0  0  0  0  0  0  0  0  0  0  0  0
  2  1  1  6
  2  4  1  0
  3  2  1  0
  4  5  2  0
  7  6  1  0
  7  9  1  0
  8  7  2  0
 10  9  1  1
 10 12  1  0
 11 10  1  0
 11  4  1  0
 12 13  2  0
 12 19  1  0
 14 15  1  0
 16 15  1  0
 16 17  1  1
 18 16  1  0
 18 19  1  6
 20 18  1  0
 20 22  1  0
 21 20  2  0
M  END
$$$$
