ANI.pdb
     RDKit          3D

 22 21  0  0  1  0  0  0  0  0999 V2000
   16.0386  -13.7195  -17.6882 C   0  0  0  0  0  0  0  0  0  0  0  0
   16.9293  -13.4586  -16.4918 C   0  0  2  0  0  0  0  0  0  0  0  0
   16.2036  -13.7003  -15.2642 N   0  0  0  0  0  0  0  0  0  0  0  0
   17.4297  -12.0740  -16.5874 C   0  0  0  0  0  0  0  0  0  0  0  0
   18.3338  -11.8296  -17.4557 O   0  0  0  0  0  0  0  0  0  0  0  0
   16.1851   -6.1541  -16.0311 N   0  0  0  0  0  0  0  0  0  0  0  0
   16.9407   -7.2297  -15.5120 C   0  0  0  0  0  0  0  0  0  0  0  0
   18.0717   -6.9398  -15.0339 O   0  0  0  0  0  0  0  0  0  0  0  0
   16.4956   -8.6208  -15.4960 C   0  0  0  0  0  0  0  0  0  0  0  0
   17.5050   -9.6377  -15.9338 C   0  0  2  0  0  0  0  0  0  0  0  0
   16.9995  -10.9880  -15.8042 N   0  0  0  0  0  0  0  0  0  0  0  0
   18.7761   -9.4316  -15.2272 C   0  0  0  0  0  0  0  0  0  0  0  0
   18.8765   -9.7110  -14.0185 O   0  0  0  0  0  0  0  0  0  0  0  0
   23.7961  -10.8138  -14.1870 C   0  0  0  0  0  0  0  0  0  0  0  0
   23.5476   -9.6718  -15.1151 C   0  0  0  0  0  0  0  0  0  0  0  0
   22.2565   -9.7782  -15.8797 C   0  0  2  0  0  0  0  0  0  0  0  0
   22.4932   -9.2956  -17.2867 C   0  0  0  0  0  0  0  0  0  0  0  0
   21.2503   -8.8624  -15.2299 C   0  0  2  0  0  0  0  0  0  0  0  0
   19.9464   -8.9140  -15.8530 N   0  0  0  0  0  0  0  0  0  0  0  0
   21.7031   -7.4463  -15.2028 C   0  0  0  0  0  0  0  0  0  0  0  0
   22.7399   -7.0920  -14.5707 O   0  0  0  0  0  0  0  0  0  0  0  0
   21.0128   -6.4407  -15.8685 O   0  0  0  0  0  0  0  0  0  0  0  0
  2  1  1  6
  2  4  1  0
  3  2  1  0
  4  5  2  0
  7  6  1  0
  7  9  1  0
  8  7  2  0
 10  9  1  1
 10 12  1  0
 11 10  1  0
 11  4  1  0
 12 13  2  0
 12 19  1  0
 14 15  1  0
 16 15  1  0
 16 17  1  6
 18 16  1  0
 18 19  1  6
 20 18  1  0
 20 22  1  0
 21 20  2  0
M  END
$$$$
