ANI.pdb
     RDKit          3D

 22 21  0  0  1  0  0  0  0  0999 V2000
   13.6758   -9.7145  -11.0031 C   0  0  0  0  0  0  0  0  0  0  0  0
   15.1217   -9.8259  -10.5674 C   0  0  2  0  0  0  0  0  0  0  0  0
   15.1980  -10.2471   -9.1858 N   0  0  0  0  0  0  0  0  0  0  0  0
   15.7699   -8.5203  -10.7952 C   0  0  0  0  0  0  0  0  0  0  0  0
   15.6162   -7.9743  -11.9395 O   0  0  0  0  0  0  0  0  0  0  0  0
   14.4761   -5.3554   -7.7240 N   0  0  0  0  0  0  0  0  0  0  0  0
   15.2881   -5.1761   -8.8668 C   0  0  0  0  0  0  0  0  0  0  0  0
   14.7344   -4.6472   -9.8694 O   0  0  0  0  0  0  0  0  0  0  0  0
   16.6961   -5.5563   -8.9483 C   0  0  0  0  0  0  0  0  0  0  0  0
   17.0629   -6.4777  -10.0713 C   0  0  2  0  0  0  0  0  0  0  0  0
   16.5483   -7.8143   -9.8607 N   0  0  0  0  0  0  0  0  0  0  0  0
   18.5137   -6.4517  -10.2990 C   0  0  0  0  0  0  0  0  0  0  0  0
   19.3007   -6.7235   -9.3738 O   0  0  0  0  0  0  0  0  0  0  0  0
   20.2705   -8.3652  -15.0358 C   0  0  0  0  0  0  0  0  0  0  0  0
   20.0331   -7.2861  -14.0327 C   0  0  0  0  0  0  0  0  0  0  0  0
   20.7906   -7.4728  -12.7465 C   0  0  2  0  0  0  0  0  0  0  0  0
   20.2693   -8.7078  -12.0598 C   0  0  0  0  0  0  0  0  0  0  0  0
   20.5089   -6.2858  -11.8603 C   0  0  2  0  0  0  0  0  0  0  0  0
   19.1052   -6.1241  -11.5528 N   0  0  0  0  0  0  0  0  0  0  0  0
   21.0140   -5.0118  -12.4371 C   0  0  0  0  0  0  0  0  0  0  0  0
   20.2304   -4.0764  -12.7706 O   0  0  0  0  0  0  0  0  0  0  0  0
   22.3695   -4.7825  -12.6394 O   0  0  0  0  0  0  0  0  0  0  0  0
  2  1  1  1
  2  4  1  0
  3  2  1  0
  4  5  2  0
  7  6  1  0
  7  9  1  0
  8  7  2  0
 10  9  1  1
 10 12  1  0
 11 10  1  0
 11  4  1  0
 12 13  2  0
 12 19  1  0
 14 15  1  0
 16 15  1  0
 16 17  1  1
 18 16  1  0
 18 19  1  6
 20 18  1  0
 20 22  1  0
 21 20  2  0
M  END
$$$$
