ANI.pdb
     RDKit          3D

 22 21  0  0  1  0  0  0  0  0999 V2000
   26.6174  -35.5361  -11.0854 C   0  0  0  0  0  0  0  0  0  0  0  0
   25.7718  -34.4500  -10.4544 C   0  0  2  0  0  0  0  0  0  0  0  0
   25.5967  -33.3507  -11.3780 N   0  0  0  0  0  0  0  0  0  0  0  0
   26.4252  -34.0328   -9.1992 C   0  0  0  0  0  0  0  0  0  0  0  0
   27.4092  -33.2231   -9.2843 O   0  0  0  0  0  0  0  0  0  0  0  0
   27.3217  -32.3961   -4.2990 N   0  0  0  0  0  0  0  0  0  0  0  0
   26.0642  -33.0270   -4.4339 C   0  0  0  0  0  0  0  0  0  0  0  0
   25.2410  -32.8404   -3.4963 O   0  0  0  0  0  0  0  0  0  0  0  0
   25.6741  -33.8585   -5.5696 C   0  0  0  0  0  0  0  0  0  0  0  0
   26.6665  -33.9482   -6.6886 C   0  0  2  0  0  0  0  0  0  0  0  0
   26.0618  -34.4474   -7.9054 N   0  0  0  0  0  0  0  0  0  0  0  0
   27.8384  -34.7280   -6.2695 C   0  0  0  0  0  0  0  0  0  0  0  0
   27.8893  -35.9527   -6.4856 O   0  0  0  0  0  0  0  0  0  0  0  0
   33.8536  -34.5557   -6.3973 C   0  0  0  0  0  0  0  0  0  0  0  0
   32.6088  -35.0449   -5.7356 C   0  0  0  0  0  0  0  0  0  0  0  0
   31.3928  -34.2105   -6.0325 C   0  0  2  0  0  0  0  0  0  0  0  0
   31.5904  -32.8455   -5.4272 C   0  0  0  0  0  0  0  0  0  0  0  0
   30.2064  -34.8563   -5.3626 C   0  0  2  0  0  0  0  0  0  0  0  0
   28.9637  -34.1584   -5.6072 N   0  0  0  0  0  0  0  0  0  0  0  0
   30.3872  -34.9942   -3.8932 C   0  0  0  0  0  0  0  0  0  0  0  0
   29.7999  -34.2273   -3.0764 O   0  0  0  0  0  0  0  0  0  0  0  0
   31.2085  -35.9700   -3.3417 O   0  0  0  0  0  0  0  0  0  0  0  0
  2  1  1  6
  2  4  1  0
  3  2  1  0
  4  5  2  0
  7  6  1  0
  7  9  1  0
  8  7  2  0
 10  9  1  1
 10 12  1  0
 11 10  1  0
 11  4  1  0
 12 13  2  0
 12 19  1  0
 14 15  1  0
 16 15  1  0
 16 17  1  1
 18 16  1  0
 18 19  1  1
 20 18  1  0
 20 22  1  0
 21 20  2  0
M  END
$$$$
