ANI.pdb
     RDKit          3D

 22 21  0  0  1  0  0  0  0  0999 V2000
   26.0789  -31.6698   -9.0640 C   0  0  0  0  0  0  0  0  0  0  0  0
   25.8540  -33.1571   -9.2380 C   0  0  2  0  0  0  0  0  0  0  0  0
   25.1102  -33.4131  -10.4517 N   0  0  0  0  0  0  0  0  0  0  0  0
   25.1611  -33.6586   -8.0359 C   0  0  0  0  0  0  0  0  0  0  0  0
   23.8903  -33.5403   -7.9921 O   0  0  0  0  0  0  0  0  0  0  0  0
   25.8592  -38.1054   -7.1066 N   0  0  0  0  0  0  0  0  0  0  0  0
   24.9926  -37.1611   -6.5108 C   0  0  0  0  0  0  0  0  0  0  0  0
   23.7942  -37.1748   -6.9046 O   0  0  0  0  0  0  0  0  0  0  0  0
   25.3961  -36.1980   -5.4895 C   0  0  0  0  0  0  0  0  0  0  0  0
   25.0607  -34.7649   -5.7700 C   0  0  2  0  0  0  0  0  0  0  0  0
   25.7756  -34.2608   -6.9234 N   0  0  0  0  0  0  0  0  0  0  0  0
   25.2662  -33.9482   -4.5667 C   0  0  0  0  0  0  0  0  0  0  0  0
   26.3246  -33.3119   -4.4114 O   0  0  0  0  0  0  0  0  0  0  0  0
   22.2565  -31.0475    0.0424 C   0  0  0  0  0  0  0  0  0  0  0  0
   23.4525  -31.7173   -0.5475 C   0  0  0  0  0  0  0  0  0  0  0  0
   23.1944  -32.3586   -1.8835 C   0  0  2  0  0  0  0  0  0  0  0  0
   22.1528  -33.4318   -1.7053 C   0  0  0  0  0  0  0  0  0  0  0  0
   24.4723  -33.0133   -2.3437 C   0  0  2  0  0  0  0  0  0  0  0  0
   24.3016  -33.8294   -3.5252 N   0  0  0  0  0  0  0  0  0  0  0  0
   25.0996  -33.8459   -1.2834 C   0  0  0  0  0  0  0  0  0  0  0  0
   24.8292  -35.0751   -1.1566 O   0  0  0  0  0  0  0  0  0  0  0  0
   26.0132  -33.3188   -0.3787 O   0  0  0  0  0  0  0  0  0  0  0  0
  2  1  1  1
  2  4  1  0
  3  2  1  0
  4  5  2  0
  7  6  1  0
  7  9  1  0
  8  7  2  0
 10  9  1  1
 10 12  1  0
 11 10  1  0
 11  4  1  0
 12 13  2  0
 12 19  1  0
 14 15  1  0
 16 15  1  0
 16 17  1  1
 18 16  1  0
 18 19  1  6
 20 18  1  0
 20 22  1  0
 21 20  2  0
M  END
$$$$
