ANI.pdb
     RDKit          3D

 22 21  0  0  1  0  0  0  0  0999 V2000
   18.3042  -15.3177  -15.7408 C   0  0  0  0  0  0  0  0  0  0  0  0
   17.1255  -14.3689  -15.6831 C   0  0  2  0  0  0  0  0  0  0  0  0
   16.0879  -14.8024  -16.5928 N   0  0  0  0  0  0  0  0  0  0  0  0
   17.6151  -13.0119  -15.9920 C   0  0  0  0  0  0  0  0  0  0  0  0
   18.6576  -12.9104  -16.7227 O   0  0  0  0  0  0  0  0  0  0  0  0
   15.2599   -9.2245  -18.3497 N   0  0  0  0  0  0  0  0  0  0  0  0
   15.3115   -9.8263  -17.0719 C   0  0  0  0  0  0  0  0  0  0  0  0
   14.4133  -10.6746  -16.8163 O   0  0  0  0  0  0  0  0  0  0  0  0
   16.3216   -9.5308  -16.0592 C   0  0  0  0  0  0  0  0  0  0  0  0
   17.4672  -10.4928  -15.9748 C   0  0  2  0  0  0  0  0  0  0  0  0
   17.0350  -11.8084  -15.5529 N   0  0  0  0  0  0  0  0  0  0  0  0
   18.5344   -9.9419  -15.1294 C   0  0  0  0  0  0  0  0  0  0  0  0
   18.4422   -9.9894  -13.8890 O   0  0  0  0  0  0  0  0  0  0  0  0
   23.2927  -11.5515  -14.7388 C   0  0  0  0  0  0  0  0  0  0  0  0
   22.0154  -10.7948  -14.5874 C   0  0  0  0  0  0  0  0  0  0  0  0
   22.1005   -9.3606  -15.0334 C   0  0  2  0  0  0  0  0  0  0  0  0
   23.0865   -8.6429  -14.1495 C   0  0  0  0  0  0  0  0  0  0  0  0
   20.7455   -8.7283  -14.8392 C   0  0  2  0  0  0  0  0  0  0  0  0
   19.7123   -9.3334  -15.6502 N   0  0  0  0  0  0  0  0  0  0  0  0
   20.7562   -7.2654  -15.1054 C   0  0  0  0  0  0  0  0  0  0  0  0
   20.3625   -6.7877  -16.2085 O   0  0  0  0  0  0  0  0  0  0  0  0
   21.1980   -6.3490  -14.1589 O   0  0  0  0  0  0  0  0  0  0  0  0
  2  1  1  6
  2  4  1  0
  3  2  1  0
  4  5  2  0
  7  6  1  0
  7  9  1  0
  8  7  2  0
 10  9  1  1
 10 12  1  0
 11 10  1  0
 11  4  1  0
 12 13  2  0
 12 19  1  0
 14 15  1  0
 16 15  1  0
 16 17  1  1
 18 16  1  0
 18 19  1  6
 20 18  1  0
 20 22  1  0
 21 20  2  0
M  END
$$$$
