ANI.pdb
     RDKit          3D

 22 21  0  0  1  0  0  0  0  0999 V2000
   15.8405  -13.1520  -15.3225 C   0  0  0  0  0  0  0  0  0  0  0  0
   15.7457  -12.2258  -16.5167 C   0  0  2  0  0  0  0  0  0  0  0  0
   15.4931  -12.9853  -17.7214 N   0  0  0  0  0  0  0  0  0  0  0  0
   16.9969  -11.4480  -16.5927 C   0  0  0  0  0  0  0  0  0  0  0  0
   17.9977  -11.8687  -15.9200 O   0  0  0  0  0  0  0  0  0  0  0  0
   20.8515   -8.3068  -19.5344 N   0  0  0  0  0  0  0  0  0  0  0  0
   19.7183   -7.8854  -18.8024 C   0  0  0  0  0  0  0  0  0  0  0  0
   19.7908   -6.7461  -18.2655 O   0  0  0  0  0  0  0  0  0  0  0  0
   18.4994   -8.6736  -18.6397 C   0  0  0  0  0  0  0  0  0  0  0  0
   18.4506   -9.5659  -17.4371 C   0  0  2  0  0  0  0  0  0  0  0  0
   17.1922  -10.2755  -17.3443 N   0  0  0  0  0  0  0  0  0  0  0  0
   18.7690   -8.8031  -16.2230 C   0  0  0  0  0  0  0  0  0  0  0  0
   17.8598   -8.2859  -15.5484 O   0  0  0  0  0  0  0  0  0  0  0  0
   23.1259  -10.2188  -13.1527 C   0  0  0  0  0  0  0  0  0  0  0  0
   22.3652   -9.3259  -14.0753 C   0  0  0  0  0  0  0  0  0  0  0  0
   21.0820   -8.7993  -13.4929 C   0  0  2  0  0  0  0  0  0  0  0  0
   20.1649   -9.9639  -13.2261 C   0  0  0  0  0  0  0  0  0  0  0  0
   20.4299   -7.9114  -14.5224 C   0  0  2  0  0  0  0  0  0  0  0  0
   20.0967   -8.6063  -15.7460 N   0  0  0  0  0  0  0  0  0  0  0  0
   21.2638   -6.7289  -14.8650 C   0  0  0  0  0  0  0  0  0  0  0  0
   21.5682   -5.8573  -14.0004 O   0  0  0  0  0  0  0  0  0  0  0  0
   21.7510   -6.5201  -16.1495 O   0  0  0  0  0  0  0  0  0  0  0  0
  2  1  1  1
  2  4  1  0
  3  2  1  0
  4  5  2  0
  7  6  1  0
  7  9  1  0
  8  7  2  0
 10  9  1  6
 10 12  1  0
 11 10  1  0
 11  4  1  0
 12 13  2  0
 12 19  1  0
 14 15  1  0
 16 15  1  0
 16 17  1  6
 18 16  1  0
 18 19  1  6
 20 18  1  0
 20 22  1  0
 21 20  2  0
M  END
$$$$
