CRE.pdb
     RDKit          3D

 27 26  0  0  1  0  0  0  0  0999 V2000
   28.2789  -18.9775  -17.4653 N   0  0  0  0  0  0  0  0  0  0  0  0
   27.4357  -18.3211  -16.5153 C   0  0  1  0  0  0  0  0  0  0  0  0
   26.8201  -17.0505  -17.0660 C   0  0  0  0  0  0  0  0  0  0  0  0
   28.0967  -15.8043  -17.3618 S   0  0  0  0  0  0  0  0  0  0  0  0
   26.3242  -19.2156  -16.1266 C   0  0  0  0  0  0  0  0  0  0  0  0
   25.8589  -20.0083  -16.9602 O   0  0  0  0  0  0  0  0  0  0  0  0
   26.8876  -20.6303   -8.9219 N   0  0  0  0  0  0  0  0  0  0  0  0
   25.5865  -20.9942   -9.3797 C   0  0  0  0  0  0  0  0  0  0  0  0
   24.5742  -20.8190   -8.6016 N   0  0  0  0  0  0  0  0  0  0  0  0
   25.3900  -21.5387  -10.6603 N   0  0  0  0  0  0  0  0  0  0  0  0
   26.5575  -21.7780  -11.4826 C   0  0  0  0  0  0  0  0  0  0  0  0
   26.3899  -21.1906  -12.8815 C   0  0  0  0  0  0  0  0  0  0  0  0
   24.9916  -20.7248  -13.0878 C   0  0  0  0  0  0  0  0  0  0  0  0
   24.7361  -20.0918  -14.4093 C   0  0  2  0  0  0  0  0  0  0  0  0
   25.7694  -19.1973  -14.8250 N   0  0  0  0  0  0  0  0  0  0  0  0
   23.4090  -19.3869  -14.4513 C   0  0  0  0  0  0  0  0  0  0  0  0
   23.2202  -18.2731  -13.9017 O   0  0  0  0  0  0  0  0  0  0  0  0
   23.6122  -21.0049   -8.9247 N   0  0  0  0  0  0  0  0  0  0  0  0
   22.2966  -19.9531  -15.1207 C   0  0  2  0  0  0  0  0  0  0  0  0
   21.0118  -19.2593  -15.2514 C   0  0  0  0  0  0  0  0  0  0  0  0
   20.6573  -19.0442  -16.6813 C   0  0  0  0  0  0  0  0  0  0  0  0
   20.8974  -20.2126  -17.5911 C   0  0  0  0  0  0  0  0  0  0  0  0
   20.4383  -19.8869  -18.9940 O   0  0  0  0  0  0  0  0  0  0  0  0
   19.2280  -19.9579  -19.2914 C   0  0  0  0  0  0  0  0  0  0  0  0
   19.9669  -19.9903  -14.5164 O   0  0  0  0  0  0  0  0  0  0  0  0
   18.7132  -19.3617  -14.3422 O   0  0  0  0  0  0  0  0  0  0  0  0
   21.3643  -19.5088  -19.9513 O   0  0  0  0  0  0  0  0  0  0  0  0
  2  5  1  0
  2  1  1  6
  3  4  1  0
  3  2  1  0
  5  6  2  0
  8  7  1  0
  8 10  1  0
  9  8  2  0
 11 10  1  0
 11 12  1  0
 13 12  1  0
 14 13  1  1
 14 15  1  0
 15  5  1  0
 16 14  1  0
 17 16  2  0
 18 16  1  0
 19 18  1  0
 19 24  1  0
 19 20  1  6
 21 20  1  0
 22 21  1  0
 23 22  2  0
 24 25  1  0
 26 22  1  0
 27 24  2  0
M  END
$$$$
