CRE.pdb
     RDKit          3D

 27 26  0  0  1  0  0  0  0  0999 V2000
   28.0432  -21.1720  -16.3011 N   0  0  0  0  0  0  0  0  0  0  0  0
   27.5874  -20.2799  -15.2810 C   0  0  1  0  0  0  0  0  0  0  0  0
   27.2936  -18.8916  -15.8128 C   0  0  0  0  0  0  0  0  0  0  0  0
   28.7574  -18.1981  -16.6169 S   0  0  0  0  0  0  0  0  0  0  0  0
   26.3368  -20.7958  -14.6837 C   0  0  0  0  0  0  0  0  0  0  0  0
   25.6514  -21.6148  -15.3155 O   0  0  0  0  0  0  0  0  0  0  0  0
   23.0262  -21.6775   -6.7253 N   0  0  0  0  0  0  0  0  0  0  0  0
   21.8464  -21.6174   -7.5246 C   0  0  0  0  0  0  0  0  0  0  0  0
   20.7634  -22.1639   -7.0895 N   0  0  0  0  0  0  0  0  0  0  0  0
   21.8443  -20.9748   -8.7745 N   0  0  0  0  0  0  0  0  0  0  0  0
   23.1208  -20.6081   -9.3512 C   0  0  0  0  0  0  0  0  0  0  0  0
   23.2059  -21.0004  -10.8239 C   0  0  0  0  0  0  0  0  0  0  0  0
   24.5016  -20.5585  -11.4076 C   0  0  0  0  0  0  0  0  0  0  0  0
   24.6086  -20.7265  -12.8817 C   0  0  2  0  0  0  0  0  0  0  0  0
   25.8925  -20.3829  -13.4052 N   0  0  0  0  0  0  0  0  0  0  0  0
   23.5416  -19.9640  -13.6165 C   0  0  0  0  0  0  0  0  0  0  0  0
   23.7801  -18.8949  -14.2315 O   0  0  0  0  0  0  0  0  0  0  0  0
   19.8889  -22.1283   -7.6358 N   0  0  0  0  0  0  0  0  0  0  0  0
   22.2016  -20.4218  -13.6496 C   0  0  2  0  0  0  0  0  0  0  0  0
   21.2908  -20.1303  -14.7608 C   0  0  0  0  0  0  0  0  0  0  0  0
   21.8966  -20.5052  -16.0681 C   0  0  0  0  0  0  0  0  0  0  0  0
   21.0271  -20.2881  -17.2710 C   0  0  0  0  0  0  0  0  0  0  0  0
   21.7567  -20.7065  -18.5271 O   0  0  0  0  0  0  0  0  0  0  0  0
   21.3659  -21.6954  -19.1809 C   0  0  0  0  0  0  0  0  0  0  0  0
   19.9924  -20.7852  -14.5337 O   0  0  0  0  0  0  0  0  0  0  0  0
   18.8344  -20.1635  -15.0531 O   0  0  0  0  0  0  0  0  0  0  0  0
   22.8621  -19.9895  -18.9525 O   0  0  0  0  0  0  0  0  0  0  0  0
  2  5  1  0
  2  1  1  6
  3  4  1  0
  3  2  1  0
  5  6  2  0
  8  7  1  0
  8 10  1  0
  9  8  2  0
 11 10  1  0
 11 12  1  0
 13 12  1  0
 14 13  1  1
 14 15  1  0
 15  5  1  0
 16 14  1  0
 17 16  2  0
 18 16  1  0
 19 18  1  0
 19 24  1  0
 19 20  1  1
 21 20  1  0
 22 21  1  0
 23 22  2  0
 24 25  1  0
 26 22  1  0
 27 24  2  0
M  END
$$$$
