CRE.pdb
     RDKit          3D

 27 26  0  0  1  0  0  0  0  0999 V2000
   26.0004  -25.9372  -17.0610 N   0  0  0  0  0  0  0  0  0  0  0  0
   25.3723  -24.6668  -17.2493 C   0  0  1  0  0  0  0  0  0  0  0  0
   24.4218  -24.6583  -18.4295 C   0  0  0  0  0  0  0  0  0  0  0  0
   23.6714  -23.0249  -18.6273 S   0  0  0  0  0  0  0  0  0  0  0  0
   24.5856  -24.3117  -16.0485 C   0  0  0  0  0  0  0  0  0  0  0  0
   23.9393  -25.1925  -15.4601 O   0  0  0  0  0  0  0  0  0  0  0  0
   26.0685  -20.5698   -8.7126 N   0  0  0  0  0  0  0  0  0  0  0  0
   26.7793  -21.0085   -9.8688 C   0  0  0  0  0  0  0  0  0  0  0  0
   28.0432  -21.2438   -9.7785 N   0  0  0  0  0  0  0  0  0  0  0  0
   26.1277  -21.1882  -11.1009 N   0  0  0  0  0  0  0  0  0  0  0  0
   24.8471  -20.5398  -11.2922 C   0  0  0  0  0  0  0  0  0  0  0  0
   23.9287  -21.3634  -12.1913 C   0  0  0  0  0  0  0  0  0  0  0  0
   24.6452  -21.7802  -13.4273 C   0  0  0  0  0  0  0  0  0  0  0  0
   23.8504  -22.6371  -14.3473 C   0  0  2  0  0  0  0  0  0  0  0  0
   24.5453  -22.9901  -15.5445 N   0  0  0  0  0  0  0  0  0  0  0  0
   22.5259  -22.0167  -14.6949 C   0  0  0  0  0  0  0  0  0  0  0  0
   22.4321  -20.9721  -15.3864 O   0  0  0  0  0  0  0  0  0  0  0  0
   28.5881  -21.5626  -10.5945 N   0  0  0  0  0  0  0  0  0  0  0  0
   21.3077  -22.5886  -14.2532 C   0  0  2  0  0  0  0  0  0  0  0  0
   19.9998  -21.9961  -14.5489 C   0  0  0  0  0  0  0  0  0  0  0  0
   18.8970  -22.7920  -13.9429 C   0  0  0  0  0  0  0  0  0  0  0  0
   17.5087  -22.3138  -14.2499 C   0  0  0  0  0  0  0  0  0  0  0  0
   16.4869  -23.2470  -13.6413 O   0  0  0  0  0  0  0  0  0  0  0  0
   16.8569  -24.2587  -13.0107 C   0  0  0  0  0  0  0  0  0  0  0  0
   19.9765  -20.5873  -14.1235 O   0  0  0  0  0  0  0  0  0  0  0  0
   19.3445  -19.6478  -14.9692 O   0  0  0  0  0  0  0  0  0  0  0  0
   15.1365  -22.9773  -13.7847 O   0  0  0  0  0  0  0  0  0  0  0  0
  2  5  1  0
  2  1  1  1
  3  4  1  0
  3  2  1  0
  5  6  2  0
  8  7  1  0
  8 10  1  0
  9  8  2  0
 11 10  1  0
 11 12  1  0
 13 12  1  0
 14 13  1  6
 14 15  1  0
 15  5  1  0
 16 14  1  0
 17 16  2  0
 18 16  1  0
 19 18  1  0
 19 24  1  0
 19 20  1  6
 21 20  1  0
 22 21  1  0
 23 22  2  0
 24 25  1  0
 26 22  1  0
 27 24  2  0
M  END
$$$$
