CRE.pdb
     RDKit          3D

 27 26  0  0  1  0  0  0  0  0999 V2000
   17.4547  -10.9847  -14.8092 N   0  0  0  0  0  0  0  0  0  0  0  0
   18.3929  -10.5272  -13.8321 C   0  0  1  0  0  0  0  0  0  0  0  0
   19.8176  -10.5320  -14.3484 C   0  0  0  0  0  0  0  0  0  0  0  0
   20.4137  -12.2275  -14.5482 S   0  0  0  0  0  0  0  0  0  0  0  0
   18.0723   -9.1383  -13.4386 C   0  0  0  0  0  0  0  0  0  0  0  0
   17.7449   -8.3175  -14.3096 O   0  0  0  0  0  0  0  0  0  0  0  0
   13.3927   -6.0898   -8.3695 N   0  0  0  0  0  0  0  0  0  0  0  0
   13.2499   -7.5063   -8.2799 C   0  0  0  0  0  0  0  0  0  0  0  0
   12.0698   -8.0143   -8.1796 N   0  0  0  0  0  0  0  0  0  0  0  0
   14.3700   -8.3548   -8.2990 N   0  0  0  0  0  0  0  0  0  0  0  0
   15.6647   -7.7638   -8.5660 C   0  0  0  0  0  0  0  0  0  0  0  0
   16.0529   -7.9009  -10.0359 C   0  0  0  0  0  0  0  0  0  0  0  0
   17.3654   -7.2479  -10.2920 C   0  0  0  0  0  0  0  0  0  0  0  0
   17.8561   -7.3666  -11.6912 C   0  0  2  0  0  0  0  0  0  0  0  0
   18.1271   -8.7111  -12.0906 N   0  0  0  0  0  0  0  0  0  0  0  0
   19.0665   -6.5107  -11.9403 C   0  0  0  0  0  0  0  0  0  0  0  0
   20.2334   -6.9067  -11.6960 O   0  0  0  0  0  0  0  0  0  0  0  0
   11.9281   -9.0355   -8.1401 N   0  0  0  0  0  0  0  0  0  0  0  0
   18.9455   -5.2020  -12.4685 C   0  0  1  0  0  0  0  0  0  0  0  0
   20.0794   -4.4686  -13.0389 C   0  0  0  0  0  0  0  0  0  0  0  0
   20.6620   -5.1940  -14.2012 C   0  0  0  0  0  0  0  0  0  0  0  0
   21.7966   -4.5002  -14.8953 C   0  0  0  0  0  0  0  0  0  0  0  0
   22.2234   -5.2855  -16.1144 O   0  0  0  0  0  0  0  0  0  0  0  0
   23.1432   -4.8620  -16.8443 C   0  0  0  0  0  0  0  0  0  0  0  0
   19.6724   -3.0957  -13.3790 O   0  0  0  0  0  0  0  0  0  0  0  0
   20.6499   -2.0770  -13.3143 O   0  0  0  0  0  0  0  0  0  0  0  0
   21.5911   -6.4784  -16.4212 O   0  0  0  0  0  0  0  0  0  0  0  0
  2  5  1  0
  2  1  1  6
  3  4  1  0
  3  2  1  0
  5  6  2  0
  8  7  1  0
  8 10  1  0
  9  8  2  0
 11 10  1  0
 11 12  1  0
 13 12  1  0
 14 13  1  1
 14 15  1  0
 15  5  1  0
 16 14  1  0
 17 16  2  0
 18 16  1  0
 19 18  1  0
 19 24  1  0
 19 20  1  1
 21 20  1  0
 22 21  1  0
 23 22  2  0
 24 25  1  0
 26 22  1  0
 27 24  2  0
M  END
$$$$
