CRE.pdb
     RDKit          3D

 27 26  0  0  1  0  0  0  0  0999 V2000
   17.4741  -14.8590  -15.1818 N   0  0  0  0  0  0  0  0  0  0  0  0
   17.6046  -13.8417  -16.1779 C   0  0  1  0  0  0  0  0  0  0  0  0
   16.3159  -13.0750  -16.3970 C   0  0  0  0  0  0  0  0  0  0  0  0
   15.0018  -14.1886  -16.9478 S   0  0  0  0  0  0  0  0  0  0  0  0
   18.6338  -12.8631  -15.7658 C   0  0  0  0  0  0  0  0  0  0  0  0
   18.6537  -12.4556  -14.5939 O   0  0  0  0  0  0  0  0  0  0  0  0
   27.2164  -11.9532  -16.3415 N   0  0  0  0  0  0  0  0  0  0  0  0
   26.3253  -12.9691  -15.8850 C   0  0  0  0  0  0  0  0  0  0  0  0
   26.7815  -13.9187  -15.1427 N   0  0  0  0  0  0  0  0  0  0  0  0
   24.9629  -12.9528  -16.2296 N   0  0  0  0  0  0  0  0  0  0  0  0
   24.4800  -11.8514  -17.0361 C   0  0  0  0  0  0  0  0  0  0  0  0
   23.2038  -11.2472  -16.4563 C   0  0  0  0  0  0  0  0  0  0  0  0
   22.0226  -12.0771  -16.8181 C   0  0  0  0  0  0  0  0  0  0  0  0
   20.7312  -11.5985  -16.2560 C   0  0  2  0  0  0  0  0  0  0  0  0
   19.6044  -12.3723  -16.6709 N   0  0  0  0  0  0  0  0  0  0  0  0
   20.4869  -10.1462  -16.5579 C   0  0  0  0  0  0  0  0  0  0  0  0
   20.2574   -9.7292  -17.7205 O   0  0  0  0  0  0  0  0  0  0  0  0
   26.1601  -14.6545  -14.7727 N   0  0  0  0  0  0  0  0  0  0  0  0
   20.5045   -9.1691  -15.5327 C   0  0  2  0  0  0  0  0  0  0  0  0
   20.3657   -7.7346  -15.8012 C   0  0  0  0  0  0  0  0  0  0  0  0
   19.1104   -7.1938  -15.2110 C   0  0  0  0  0  0  0  0  0  0  0  0
   18.8837   -5.7238  -15.4063 C   0  0  0  0  0  0  0  0  0  0  0  0
   17.5207   -5.3302  -14.8843 O   0  0  0  0  0  0  0  0  0  0  0  0
   16.7844   -6.1819  -14.3452 C   0  0  0  0  0  0  0  0  0  0  0  0
   21.5623   -7.0160  -15.3342 O   0  0  0  0  0  0  0  0  0  0  0  0
   21.8765   -5.7807  -15.9447 O   0  0  0  0  0  0  0  0  0  0  0  0
   17.0889   -4.0204  -15.0052 O   0  0  0  0  0  0  0  0  0  0  0  0
  2  5  1  0
  2  1  1  1
  3  4  1  0
  3  2  1  0
  5  6  2  0
  8  7  1  0
  8 10  1  0
  9  8  2  0
 11 10  1  0
 11 12  1  0
 13 12  1  0
 14 13  1  6
 14 15  1  0
 15  5  1  0
 16 14  1  0
 17 16  2  0
 18 16  1  0
 19 18  1  0
 19 24  1  0
 19 20  1  6
 21 20  1  0
 22 21  1  0
 23 22  2  0
 24 25  1  0
 26 22  1  0
 27 24  2  0
M  END
$$$$
