CRE.pdb
     RDKit          3D

 27 26  0  0  1  0  0  0  0  0999 V2000
   17.9524  -26.7262   -0.8461 N   0  0  0  0  0  0  0  0  0  0  0  0
   17.7226  -27.2685   -2.1489 C   0  0  1  0  0  0  0  0  0  0  0  0
   16.4792  -28.1327   -2.2069 C   0  0  0  0  0  0  0  0  0  0  0  0
   16.9232  -29.8854   -2.1690 S   0  0  0  0  0  0  0  0  0  0  0  0
   17.5424  -26.1726   -3.1252 C   0  0  0  0  0  0  0  0  0  0  0  0
   17.1430  -25.0653   -2.7328 O   0  0  0  0  0  0  0  0  0  0  0  0
   18.4604  -25.0354  -11.1577 N   0  0  0  0  0  0  0  0  0  0  0  0
   18.2942  -23.6648  -10.7996 C   0  0  0  0  0  0  0  0  0  0  0  0
   17.6622  -22.8777  -11.6009 N   0  0  0  0  0  0  0  0  0  0  0  0
   18.8058  -23.1592   -9.5923 N   0  0  0  0  0  0  0  0  0  0  0  0
   19.1177  -24.1029   -8.5393 C   0  0  0  0  0  0  0  0  0  0  0  0
   17.8540  -24.6326   -7.8666 C   0  0  0  0  0  0  0  0  0  0  0  0
   18.2017  -25.6061   -6.7961 C   0  0  0  0  0  0  0  0  0  0  0  0
   17.5791  -25.3254   -5.4747 C   0  0  2  0  0  0  0  0  0  0  0  0
   17.8127  -26.3464   -4.5033 N   0  0  0  0  0  0  0  0  0  0  0  0
   16.1032  -25.0638   -5.5893 C   0  0  0  0  0  0  0  0  0  0  0  0
   15.2457  -25.9718   -5.4540 O   0  0  0  0  0  0  0  0  0  0  0  0
   17.5421  -21.8763  -11.3835 N   0  0  0  0  0  0  0  0  0  0  0  0
   15.6054  -23.7654   -5.8585 C   0  0  2  0  0  0  0  0  0  0  0  0
   14.1726  -23.4646   -5.9330 C   0  0  0  0  0  0  0  0  0  0  0  0
   13.6616  -22.9454   -4.6345 C   0  0  0  0  0  0  0  0  0  0  0  0
   12.5459  -23.7342   -4.0154 C   0  0  0  0  0  0  0  0  0  0  0  0
   12.0449  -23.0426   -2.7681 O   0  0  0  0  0  0  0  0  0  0  0  0
   12.5343  -21.9495   -2.4162 C   0  0  0  0  0  0  0  0  0  0  0  0
   13.9079  -22.5439   -7.0504 O   0  0  0  0  0  0  0  0  0  0  0  0
   12.5620  -22.2970   -7.4039 O   0  0  0  0  0  0  0  0  0  0  0  0
   11.0398  -23.6246   -2.0145 O   0  0  0  0  0  0  0  0  0  0  0  0
  2  5  1  0
  2  1  1  1
  3  4  1  0
  3  2  1  0
  5  6  2  0
  8  7  1  0
  8 10  1  0
  9  8  2  0
 11 10  1  0
 11 12  1  0
 13 12  1  0
 14 13  1  6
 14 15  1  0
 15  5  1  0
 16 14  1  0
 17 16  2  0
 18 16  1  0
 19 18  1  0
 19 24  1  0
 19 20  1  1
 21 20  1  0
 22 21  1  0
 23 22  2  0
 24 25  1  0
 26 22  1  0
 27 24  2  0
M  END
$$$$
