CRE.pdb
     RDKit          3D

 27 26  0  0  1  0  0  0  0  0999 V2000
   23.8861  -13.5842  -17.5506 N   0  0  0  0  0  0  0  0  0  0  0  0
   23.5538  -12.9122  -16.3332 C   0  0  1  0  0  0  0  0  0  0  0  0
   24.7586  -12.2661  -15.6792 C   0  0  0  0  0  0  0  0  0  0  0  0
   25.8999  -13.5279  -15.0664 S   0  0  0  0  0  0  0  0  0  0  0  0
   22.5717  -11.8400  -16.6023 C   0  0  0  0  0  0  0  0  0  0  0  0
   22.7013  -11.1337  -17.6142 O   0  0  0  0  0  0  0  0  0  0  0  0
   14.2154  -10.5612  -13.6121 N   0  0  0  0  0  0  0  0  0  0  0  0
   14.2984  -10.1699  -14.9813 C   0  0  0  0  0  0  0  0  0  0  0  0
   13.2147  -10.0545  -15.6691 N   0  0  0  0  0  0  0  0  0  0  0  0
   15.5372   -9.9090  -15.5913 N   0  0  0  0  0  0  0  0  0  0  0  0
   16.6839  -10.6782  -15.1553 C   0  0  0  0  0  0  0  0  0  0  0  0
   17.9702  -10.1966  -15.8213 C   0  0  0  0  0  0  0  0  0  0  0  0
   19.1066  -11.0904  -15.4686 C   0  0  0  0  0  0  0  0  0  0  0  0
   20.4104  -10.7055  -16.0722 C   0  0  2  0  0  0  0  0  0  0  0  0
   21.4801  -11.5909  -15.7369 N   0  0  0  0  0  0  0  0  0  0  0  0
   20.7963   -9.2932  -15.7311 C   0  0  0  0  0  0  0  0  0  0  0  0
   21.1458   -8.9512  -14.5739 O   0  0  0  0  0  0  0  0  0  0  0  0
   13.2395   -9.7983  -16.6682 N   0  0  0  0  0  0  0  0  0  0  0  0
   20.7835   -8.2705  -16.7109 C   0  0  2  0  0  0  0  0  0  0  0  0
   20.6992   -6.8469  -16.3709 C   0  0  0  0  0  0  0  0  0  0  0  0
   19.3377   -6.4869  -15.8878 C   0  0  0  0  0  0  0  0  0  0  0  0
   19.1381   -5.0440  -15.5292 C   0  0  0  0  0  0  0  0  0  0  0  0
   17.7138   -4.8079  -15.0813 O   0  0  0  0  0  0  0  0  0  0  0  0
   16.8289   -4.5351  -15.9183 C   0  0  0  0  0  0  0  0  0  0  0  0
   21.7508   -6.4965  -15.4027 O   0  0  0  0  0  0  0  0  0  0  0  0
   22.3000   -7.5324  -14.6136 O   0  0  0  0  0  0  0  0  0  0  0  0
   17.3911   -4.8949  -13.7377 O   0  0  0  0  0  0  0  0  0  0  0  0
  2  5  1  0
  2  1  1  6
  3  4  1  0
  3  2  1  0
  5  6  2  0
  8  7  1  0
  8 10  1  0
  9  8  2  0
 11 10  1  0
 11 12  1  0
 13 12  1  0
 14 13  1  1
 14 15  1  0
 15  5  1  0
 16 14  1  0
 17 16  2  0
 18 16  1  0
 19 18  1  0
 19 24  1  0
 19 20  1  6
 21 20  1  0
 22 21  1  0
 23 22  2  0
 24 25  1  0
 26 22  1  0
 27 24  2  0
M  END
$$$$
