CRE.pdb
     RDKit          3D

 27 26  0  0  1  0  0  0  0  0999 V2000
   30.6751  -24.9272  -16.4532 N   0  0  0  0  0  0  0  0  0  0  0  0
   29.5345  -24.6433  -17.2673 C   0  0  1  0  0  0  0  0  0  0  0  0
   29.6920  -25.1536  -18.6855 C   0  0  0  0  0  0  0  0  0  0  0  0
   31.1046  -24.3621  -19.4907 S   0  0  0  0  0  0  0  0  0  0  0  0
   28.3350  -25.2932  -16.6967 C   0  0  0  0  0  0  0  0  0  0  0  0
   28.4691  -26.1499  -15.8091 O   0  0  0  0  0  0  0  0  0  0  0  0
   22.4564  -21.4407  -12.9622 N   0  0  0  0  0  0  0  0  0  0  0  0
   22.9344  -21.4116  -14.3059 C   0  0  0  0  0  0  0  0  0  0  0  0
   22.8253  -20.3242  -14.9888 N   0  0  0  0  0  0  0  0  0  0  0  0
   23.5203  -22.5445  -14.8960 N   0  0  0  0  0  0  0  0  0  0  0  0
   23.0359  -23.8477  -14.4914 C   0  0  0  0  0  0  0  0  0  0  0  0
   23.7760  -24.9713  -15.2124 C   0  0  0  0  0  0  0  0  0  0  0  0
   25.0304  -24.4590  -15.8280 C   0  0  0  0  0  0  0  0  0  0  0  0
   25.8516  -25.4910  -16.5158 C   0  0  2  0  0  0  0  0  0  0  0  0
   27.0288  -24.9678  -17.1331 N   0  0  0  0  0  0  0  0  0  0  0  0
   25.0534  -26.2682  -17.5251 C   0  0  0  0  0  0  0  0  0  0  0  0
   24.6658  -25.7654  -18.6091 O   0  0  0  0  0  0  0  0  0  0  0  0
   23.1569  -20.2691  -15.9642 N   0  0  0  0  0  0  0  0  0  0  0  0
   24.6973  -27.6201  -17.2973 C   0  0  2  0  0  0  0  0  0  0  0  0
   23.9338  -28.4133  -18.2653 C   0  0  0  0  0  0  0  0  0  0  0  0
   23.7141  -29.8010  -17.7725 C   0  0  0  0  0  0  0  0  0  0  0  0
   22.9764  -30.7117  -18.7089 C   0  0  0  0  0  0  0  0  0  0  0  0
   22.8354  -32.0875  -18.0986 O   0  0  0  0  0  0  0  0  0  0  0  0
   23.8022  -32.6173  -17.5131 C   0  0  0  0  0  0  0  0  0  0  0  0
   22.6742  -27.7281  -18.5972 O   0  0  0  0  0  0  0  0  0  0  0  0
   22.3104  -27.6286  -19.9592 O   0  0  0  0  0  0  0  0  0  0  0  0
   21.6293  -32.7611  -18.1902 O   0  0  0  0  0  0  0  0  0  0  0  0
  2  5  1  0
  2  1  1  1
  3  4  1  0
  3  2  1  0
  5  6  2  0
  8  7  1  0
  8 10  1  0
  9  8  2  0
 11 10  1  0
 11 12  1  0
 13 12  1  0
 14 13  1  6
 14 15  1  0
 15  5  1  0
 16 14  1  0
 17 16  2  0
 18 16  1  0
 19 18  1  0
 19 24  1  0
 19 20  1  1
 21 20  1  0
 22 21  1  0
 23 22  2  0
 24 25  1  0
 26 22  1  0
 27 24  2  0
M  END
$$$$
