CRE.pdb
     RDKit          3D

 27 26  0  0  1  0  0  0  0  0999 V2000
   17.6145  -11.8940    5.6792 N   0  0  0  0  0  0  0  0  0  0  0  0
   18.5588  -12.8970    5.2964 C   0  0  1  0  0  0  0  0  0  0  0  0
   19.8692  -12.7775    6.0481 C   0  0  0  0  0  0  0  0  0  0  0  0
   20.9078  -11.4936    5.3113 S   0  0  0  0  0  0  0  0  0  0  0  0
   18.0093  -14.2400    5.5810 C   0  0  0  0  0  0  0  0  0  0  0  0
   17.4995  -14.4684    6.6890 O   0  0  0  0  0  0  0  0  0  0  0  0
   14.8530  -20.8048    0.4737 N   0  0  0  0  0  0  0  0  0  0  0  0
   14.3584  -20.9703    1.8013 C   0  0  0  0  0  0  0  0  0  0  0  0
   13.3135  -21.6988    1.9969 N   0  0  0  0  0  0  0  0  0  0  0  0
   14.9886  -20.3548    2.8963 N   0  0  0  0  0  0  0  0  0  0  0  0
   15.7689  -19.1608    2.6470 C   0  0  0  0  0  0  0  0  0  0  0  0
   16.3159  -18.5661    3.9421 C   0  0  0  0  0  0  0  0  0  0  0  0
   16.9949  -17.2691    3.6747 C   0  0  0  0  0  0  0  0  0  0  0  0
   17.5377  -16.5913    4.8824 C   0  0  2  0  0  0  0  0  0  0  0  0
   18.0462  -15.2816    4.6238 N   0  0  0  0  0  0  0  0  0  0  0  0
   18.5901  -17.4165    5.5688 C   0  0  0  0  0  0  0  0  0  0  0  0
   19.7981  -17.3891    5.2250 O   0  0  0  0  0  0  0  0  0  0  0  0
   12.9303  -21.8419    2.9440 N   0  0  0  0  0  0  0  0  0  0  0  0
   18.2641  -18.2737    6.6483 C   0  0  2  0  0  0  0  0  0  0  0  0
   19.2585  -19.1131    7.3233 C   0  0  0  0  0  0  0  0  0  0  0  0
   19.8384  -18.4184    8.5055 C   0  0  0  0  0  0  0  0  0  0  0  0
   20.7940  -19.2299    9.3293 C   0  0  0  0  0  0  0  0  0  0  0  0
   21.3697  -18.3877   10.4448 O   0  0  0  0  0  0  0  0  0  0  0  0
   22.3889  -18.7677   11.0573 C   0  0  0  0  0  0  0  0  0  0  0  0
   18.6671  -20.4156    7.6700 O   0  0  0  0  0  0  0  0  0  0  0  0
   19.5381  -21.5131    7.8549 O   0  0  0  0  0  0  0  0  0  0  0  0
   20.7636  -17.1909   10.7872 O   0  0  0  0  0  0  0  0  0  0  0  0
  2  5  1  0
  2  1  1  1
  3  4  1  0
  3  2  1  0
  5  6  2  0
  8  7  1  0
  8 10  1  0
  9  8  2  0
 11 10  1  0
 11 12  1  0
 13 12  1  0
 14 13  1  6
 14 15  1  0
 15  5  1  0
 16 14  1  0
 17 16  2  0
 18 16  1  0
 19 18  1  0
 19 24  1  0
 19 20  1  1
 21 20  1  0
 22 21  1  0
 23 22  2  0
 24 25  1  0
 26 22  1  0
 27 24  2  0
M  END
$$$$
