CRE.pdb
     RDKit          3D

 27 26  0  0  1  0  0  0  0  0999 V2000
   26.4019  -11.5670  -17.4577 N   0  0  0  0  0  0  0  0  0  0  0  0
   25.6402  -11.2082  -16.3022 C   0  0  1  0  0  0  0  0  0  0  0  0
   26.2056   -9.9977  -15.5870 C   0  0  0  0  0  0  0  0  0  0  0  0
   27.8077  -10.3905  -14.8459 S   0  0  0  0  0  0  0  0  0  0  0  0
   24.2536  -10.8783  -16.6963 C   0  0  0  0  0  0  0  0  0  0  0  0
   24.0379  -10.3861  -17.8147 O   0  0  0  0  0  0  0  0  0  0  0  0
   16.9266  -12.8099  -14.0936 N   0  0  0  0  0  0  0  0  0  0  0  0
   16.4040  -12.5818  -15.4011 C   0  0  0  0  0  0  0  0  0  0  0  0
   15.1555  -12.2932  -15.5378 N   0  0  0  0  0  0  0  0  0  0  0  0
   17.2242  -12.6661  -16.5392 N   0  0  0  0  0  0  0  0  0  0  0  0
   18.6318  -12.9428  -16.3423 C   0  0  0  0  0  0  0  0  0  0  0  0
   19.4691  -11.6679  -16.4021 C   0  0  0  0  0  0  0  0  0  0  0  0
   20.9134  -11.9837  -16.2315 C   0  0  0  0  0  0  0  0  0  0  0  0
   21.8086  -10.7965  -16.1919 C   0  0  2  0  0  0  0  0  0  0  0  0
   23.1560  -11.1072  -15.8331 N   0  0  0  0  0  0  0  0  0  0  0  0
   21.2793   -9.7192  -15.2869 C   0  0  0  0  0  0  0  0  0  0  0  0
   21.3370   -9.8027  -14.0348 O   0  0  0  0  0  0  0  0  0  0  0  0
   14.7507  -12.0932  -16.4655 N   0  0  0  0  0  0  0  0  0  0  0  0
   20.6836   -8.5458  -15.8110 C   0  0  2  0  0  0  0  0  0  0  0  0
   20.2523   -7.4291  -14.9648 C   0  0  0  0  0  0  0  0  0  0  0  0
   21.2596   -6.3327  -14.9630 C   0  0  0  0  0  0  0  0  0  0  0  0
   20.8994   -5.1236  -14.1513 C   0  0  0  0  0  0  0  0  0  0  0  0
   21.9861   -4.0782  -14.2586 O   0  0  0  0  0  0  0  0  0  0  0  0
   23.0339   -4.3237  -14.8909 C   0  0  0  0  0  0  0  0  0  0  0  0
   18.9183   -6.9670  -15.3808 O   0  0  0  0  0  0  0  0  0  0  0  0
   18.1517   -6.2267  -14.4526 O   0  0  0  0  0  0  0  0  0  0  0  0
   21.8171   -2.8447  -13.6529 O   0  0  0  0  0  0  0  0  0  0  0  0
  2  5  1  0
  2  1  1  6
  3  4  1  0
  3  2  1  0
  5  6  2  0
  8  7  1  0
  8 10  1  0
  9  8  2  0
 11 10  1  0
 11 12  1  0
 13 12  1  0
 14 13  1  1
 14 15  1  0
 15  5  1  0
 16 14  1  0
 17 16  2  0
 18 16  1  0
 19 18  1  0
 19 24  1  0
 19 20  1  6
 21 20  1  0
 22 21  1  0
 23 22  2  0
 24 25  1  0
 26 22  1  0
 27 24  2  0
M  END
$$$$
