CRE.pdb
     RDKit          3D

 27 26  0  0  1  0  0  0  0  0999 V2000
   26.4165  -15.4173  -17.4670 N   0  0  0  0  0  0  0  0  0  0  0  0
   26.2086  -15.7366  -16.0889 C   0  0  1  0  0  0  0  0  0  0  0  0
   25.5109  -14.6233  -15.3339 C   0  0  0  0  0  0  0  0  0  0  0  0
   25.5279  -13.0947  -16.3001 S   0  0  0  0  0  0  0  0  0  0  0  0
   25.3618  -16.9435  -15.9745 C   0  0  0  0  0  0  0  0  0  0  0  0
   24.4633  -17.1396  -16.8075 O   0  0  0  0  0  0  0  0  0  0  0  0
   27.4765  -22.5406  -12.8988 N   0  0  0  0  0  0  0  0  0  0  0  0
   27.6152  -21.5349  -11.8968 C   0  0  0  0  0  0  0  0  0  0  0  0
   28.7916  -21.2384  -11.4620 N   0  0  0  0  0  0  0  0  0  0  0  0
   26.4952  -20.8638  -11.3772 N   0  0  0  0  0  0  0  0  0  0  0  0
   25.1817  -21.3428  -11.7541 C   0  0  0  0  0  0  0  0  0  0  0  0
   24.4703  -20.3615  -12.6820 C   0  0  0  0  0  0  0  0  0  0  0  0
   25.3066  -20.0757  -13.8793 C   0  0  0  0  0  0  0  0  0  0  0  0
   24.7377  -19.0616  -14.8070 C   0  0  2  0  0  0  0  0  0  0  0  0
   25.5438  -17.8896  -14.9381 N   0  0  0  0  0  0  0  0  0  0  0  0
   23.3361  -18.6722  -14.4281 C   0  0  0  0  0  0  0  0  0  0  0  0
   23.0655  -17.5703  -13.8887 O   0  0  0  0  0  0  0  0  0  0  0  0
   28.9244  -20.5552  -10.7005 N   0  0  0  0  0  0  0  0  0  0  0  0
   22.2423  -19.5405  -14.6648 C   0  0  1  0  0  0  0  0  0  0  0  0
   20.8724  -19.0562  -14.8593 C   0  0  0  0  0  0  0  0  0  0  0  0
   20.7998  -18.0762  -15.9777 C   0  0  0  0  0  0  0  0  0  0  0  0
   20.5837  -16.6476  -15.5742 C   0  0  0  0  0  0  0  0  0  0  0  0
   19.9598  -15.8709  -16.7112 O   0  0  0  0  0  0  0  0  0  0  0  0
   19.4758  -16.4725  -17.6919 C   0  0  0  0  0  0  0  0  0  0  0  0
   19.9573  -20.1936  -15.0475 O   0  0  0  0  0  0  0  0  0  0  0  0
   18.5676  -19.9368  -15.0418 O   0  0  0  0  0  0  0  0  0  0  0  0
   19.9260  -14.4877  -16.6632 O   0  0  0  0  0  0  0  0  0  0  0  0
  2  5  1  0
  2  1  1  6
  3  4  1  0
  3  2  1  0
  5  6  2  0
  8  7  1  0
  8 10  1  0
  9  8  2  0
 11 10  1  0
 11 12  1  0
 13 12  1  0
 14 13  1  1
 14 15  1  0
 15  5  1  0
 16 14  1  0
 17 16  2  0
 18 16  1  0
 19 18  1  0
 19 24  1  0
 19 20  1  1
 21 20  1  0
 22 21  1  0
 23 22  2  0
 24 25  1  0
 26 22  1  0
 27 24  2  0
M  END
$$$$
