CRE.pdb
     RDKit          3D

 27 26  0  0  1  0  0  0  0  0999 V2000
   27.7676  -21.0350  -10.7822 N   0  0  0  0  0  0  0  0  0  0  0  0
   26.3435  -21.1618  -10.7836 C   0  0  1  0  0  0  0  0  0  0  0  0
   25.6904  -20.3852   -9.6581 C   0  0  0  0  0  0  0  0  0  0  0  0
   26.3897  -20.8719   -8.0630 S   0  0  0  0  0  0  0  0  0  0  0  0
   25.7934  -20.6417  -12.0539 C   0  0  0  0  0  0  0  0  0  0  0  0
   25.8752  -19.4288  -12.3029 O   0  0  0  0  0  0  0  0  0  0  0  0
   28.6015  -24.9250  -16.1691 N   0  0  0  0  0  0  0  0  0  0  0  0
   27.3639  -25.5279  -16.5428 C   0  0  0  0  0  0  0  0  0  0  0  0
   27.2151  -26.7999  -16.3987 N   0  0  0  0  0  0  0  0  0  0  0  0
   26.3074  -24.7615  -17.0638 N   0  0  0  0  0  0  0  0  0  0  0  0
   26.3218  -23.3337  -16.8233 C   0  0  0  0  0  0  0  0  0  0  0  0
   25.4638  -22.9578  -15.6181 C   0  0  0  0  0  0  0  0  0  0  0  0
   25.4507  -21.4820  -15.4268 C   0  0  0  0  0  0  0  0  0  0  0  0
   24.6673  -21.0146  -14.2520 C   0  0  2  0  0  0  0  0  0  0  0  0
   25.1719  -21.4882  -13.0023 N   0  0  0  0  0  0  0  0  0  0  0  0
   23.2088  -21.3585  -14.3720 C   0  0  0  0  0  0  0  0  0  0  0  0
   22.7321  -22.4348  -13.9333 O   0  0  0  0  0  0  0  0  0  0  0  0
   26.3375  -27.2702  -16.6688 N   0  0  0  0  0  0  0  0  0  0  0  0
   22.2936  -20.4737  -14.9932 C   0  0  1  0  0  0  0  0  0  0  0  0
   20.8670  -20.7795  -15.1360 C   0  0  0  0  0  0  0  0  0  0  0  0
   20.6268  -22.2489  -15.1334 C   0  0  0  0  0  0  0  0  0  0  0  0
   19.9543  -22.7931  -13.9079 C   0  0  0  0  0  0  0  0  0  0  0  0
   18.9153  -23.8212  -14.2937 O   0  0  0  0  0  0  0  0  0  0  0  0
   17.7008  -23.5720  -14.1488 C   0  0  0  0  0  0  0  0  0  0  0  0
   20.0948  -20.0813  -14.0955 O   0  0  0  0  0  0  0  0  0  0  0  0
   18.6855  -20.1785  -14.1357 O   0  0  0  0  0  0  0  0  0  0  0  0
   19.3136  -25.0428  -14.8092 O   0  0  0  0  0  0  0  0  0  0  0  0
  2  5  1  0
  2  1  1  6
  3  4  1  0
  3  2  1  0
  5  6  2  0
  8  7  1  0
  8 10  1  0
  9  8  2  0
 11 10  1  0
 11 12  1  0
 13 12  1  0
 14 13  1  6
 14 15  1  0
 15  5  1  0
 16 14  1  0
 17 16  2  0
 18 16  1  0
 19 18  1  0
 19 24  1  0
 19 20  1  6
 21 20  1  0
 22 21  1  0
 23 22  2  0
 24 25  1  0
 26 22  1  0
 27 24  2  0
M  END
$$$$
