CRE.pdb
     RDKit          3D

 27 26  0  0  1  0  0  0  0  0999 V2000
   28.3288  -22.2791  -17.4391 N   0  0  0  0  0  0  0  0  0  0  0  0
   27.9567  -21.1530  -16.6406 C   0  0  1  0  0  0  0  0  0  0  0  0
   27.4075  -20.0095  -17.4696 C   0  0  0  0  0  0  0  0  0  0  0  0
   28.7531  -19.0990  -18.2637 S   0  0  0  0  0  0  0  0  0  0  0  0
   26.9037  -21.5442  -15.6788 C   0  0  0  0  0  0  0  0  0  0  0  0
   25.9940  -22.3040  -16.0458 O   0  0  0  0  0  0  0  0  0  0  0  0
   22.7519  -19.8288  -10.1544 N   0  0  0  0  0  0  0  0  0  0  0  0
   23.0370  -20.6021   -8.9901 C   0  0  0  0  0  0  0  0  0  0  0  0
   22.0812  -20.8845   -8.1731 N   0  0  0  0  0  0  0  0  0  0  0  0
   24.3378  -21.0600   -8.7193 N   0  0  0  0  0  0  0  0  0  0  0  0
   25.3783  -20.7541   -9.6787 C   0  0  0  0  0  0  0  0  0  0  0  0
   24.9739  -21.1569  -11.0944 C   0  0  0  0  0  0  0  0  0  0  0  0
   26.0948  -20.9206  -12.0444 C   0  0  0  0  0  0  0  0  0  0  0  0
   25.7916  -21.2610  -13.4603 C   0  0  2  0  0  0  0  0  0  0  0  0
   26.8995  -21.0770  -14.3431 N   0  0  0  0  0  0  0  0  0  0  0  0
   24.5994  -20.5073  -13.9800 C   0  0  0  0  0  0  0  0  0  0  0  0
   24.6249  -19.2692  -14.1915 O   0  0  0  0  0  0  0  0  0  0  0  0
   22.2475  -21.4598   -7.3330 N   0  0  0  0  0  0  0  0  0  0  0  0
   23.3771  -21.1665  -14.2587 C   0  0  2  0  0  0  0  0  0  0  0  0
   22.1928  -20.4634  -14.7609 C   0  0  0  0  0  0  0  0  0  0  0  0
   21.9390  -20.7874  -16.1918 C   0  0  0  0  0  0  0  0  0  0  0  0
   20.7333  -20.1338  -16.7999 C   0  0  0  0  0  0  0  0  0  0  0  0
   20.5993  -20.5305  -18.2524 O   0  0  0  0  0  0  0  0  0  0  0  0
   19.6476  -20.1003  -18.9360 C   0  0  0  0  0  0  0  0  0  0  0  0
   21.0323  -20.7542  -13.9037 O   0  0  0  0  0  0  0  0  0  0  0  0
   21.0608  -21.9319  -13.1231 O   0  0  0  0  0  0  0  0  0  0  0  0
   21.5360  -21.3740  -18.8251 O   0  0  0  0  0  0  0  0  0  0  0  0
  2  5  1  0
  2  1  1  6
  3  4  1  0
  3  2  1  0
  5  6  2  0
  8  7  1  0
  8 10  1  0
  9  8  2  0
 11 10  1  0
 11 12  1  0
 13 12  1  0
 14 13  1  1
 14 15  1  0
 15  5  1  0
 16 14  1  0
 17 16  2  0
 18 16  1  0
 19 18  1  0
 19 24  1  0
 19 20  1  6
 21 20  1  0
 22 21  1  0
 23 22  2  0
 24 25  1  0
 26 22  1  0
 27 24  2  0
M  END
$$$$
