TCA.pdb
     RDKit          3D

 19 18  0  0  1  0  0  0  0  0999 V2000
    7.2993  -15.2746   16.4250 C   0  0  0  0  0  0  0  0  0  0  0  0
    7.9668  -15.2575   17.7717 C   0  0  1  0  0  0  0  0  0  0  0  0
    9.2866  -15.6207   17.6768 O   0  0  0  0  0  0  0  0  0  0  0  0
    7.8054  -13.9005   18.4594 C   0  0  2  0  0  0  0  0  0  0  0  0
    8.4516  -12.9156   17.5720 N   0  0  0  0  0  0  0  0  0  0  0  0
    8.4187  -13.8586   19.7916 C   0  0  0  0  0  0  0  0  0  0  0  0
    9.6131  -13.4956   19.9233 O   0  0  0  0  0  0  0  0  0  0  0  0
    7.6588  -14.2285   20.9270 N   0  0  0  0  0  0  0  0  0  0  0  0
    8.2285  -14.2559   22.2668 C   0  0  1  0  0  0  0  0  0  0  0  0
    7.1065  -14.0274   23.2496 C   0  0  0  0  0  0  0  0  0  0  0  0
    7.6733  -14.3011   24.9431 S   0  0  0  0  0  0  0  0  0  0  0  0
    8.8819  -15.5655   22.4543 C   0  0  0  0  0  0  0  0  0  0  0  0
    8.3091  -16.6581   22.1163 O   0  0  0  0  0  0  0  0  0  0  0  0
   12.3031  -16.7957   22.8796 C   0  0  0  0  0  0  0  0  0  0  0  0
   10.8295  -17.0053   23.1807 C   0  0  2  0  0  0  0  0  0  0  0  0
   10.1812  -15.7189   23.0168 N   0  0  0  0  0  0  0  0  0  0  0  0
   10.6618  -17.5384   24.5550 C   0  0  0  0  0  0  0  0  0  0  0  0
   10.1432  -16.7671   25.4027 O   0  0  0  0  0  0  0  0  0  0  0  0
   11.0283  -18.7934   24.9538 O   0  0  0  0  0  0  0  0  0  0  0  0
  2  1  1  6
  2  3  1  0
  4  2  1  0
  4  5  1  6
  6  4  1  0
  7  6  2  0
  8  6  1  0
  9  8  1  0
  9 12  1  0
  9 10  1  1
 11 10  1  0
 12 16  1  0
 13 12  2  0
 15 14  1  1
 15 17  1  0
 16 15  1  0
 17 18  2  0
 17 19  1  0
M  END
$$$$
