TCA.pdb
     RDKit          3D

 19 18  0  0  1  0  0  0  0  0999 V2000
    7.0015  -15.9822   19.7289 C   0  0  0  0  0  0  0  0  0  0  0  0
    7.7070  -14.7945   19.1365 C   0  0  1  0  0  0  0  0  0  0  0  0
    7.2935  -14.5622   17.8490 O   0  0  0  0  0  0  0  0  0  0  0  0
    7.5424  -13.5511   20.0126 C   0  0  2  0  0  0  0  0  0  0  0  0
    8.1725  -12.4439   19.2696 N   0  0  0  0  0  0  0  0  0  0  0  0
    8.1684  -13.6947   21.3317 C   0  0  0  0  0  0  0  0  0  0  0  0
    9.4183  -13.6612   21.4420 O   0  0  0  0  0  0  0  0  0  0  0  0
    7.3579  -13.8707   22.4787 N   0  0  0  0  0  0  0  0  0  0  0  0
    7.9221  -14.1440   23.7931 C   0  0  1  0  0  0  0  0  0  0  0  0
    6.8265  -13.9554   24.8134 C   0  0  0  0  0  0  0  0  0  0  0  0
    6.6710  -12.2147   25.2713 S   0  0  0  0  0  0  0  0  0  0  0  0
    8.4487  -15.5223   23.7820 C   0  0  0  0  0  0  0  0  0  0  0  0
    7.6915  -16.5305   23.5661 O   0  0  0  0  0  0  0  0  0  0  0  0
   11.7085  -17.1899   23.4731 C   0  0  0  0  0  0  0  0  0  0  0  0
   10.3182  -17.1978   24.0841 C   0  0  2  0  0  0  0  0  0  0  0  0
    9.8188  -15.8389   24.0067 N   0  0  0  0  0  0  0  0  0  0  0  0
   10.3803  -17.6858   25.4837 C   0  0  0  0  0  0  0  0  0  0  0  0
   10.8262  -18.8489   25.6590 O   0  0  0  0  0  0  0  0  0  0  0  0
    9.9905  -16.9653   26.5779 O   0  0  0  0  0  0  0  0  0  0  0  0
  2  1  1  1
  2  3  1  0
  4  2  1  0
  4  5  1  6
  6  4  1  0
  7  6  2  0
  8  6  1  0
  9  8  1  0
  9 12  1  0
  9 10  1  1
 11 10  1  0
 12 16  1  0
 13 12  2  0
 15 14  1  1
 15 17  1  0
 16 15  1  0
 17 18  2  0
 17 19  1  0
M  END
$$$$
