TCA.pdb
     RDKit          3D

 19 18  0  0  1  0  0  0  0  0999 V2000
    8.4375  -17.0008   17.3594 C   0  0  0  0  0  0  0  0  0  0  0  0
    8.5436  -15.7084   16.5992 C   0  0  1  0  0  0  0  0  0  0  0  0
    7.9694  -15.8138   15.3575 O   0  0  0  0  0  0  0  0  0  0  0  0
    7.9541  -14.5415   17.3938 C   0  0  2  0  0  0  0  0  0  0  0  0
    7.9841  -13.3773   16.4890 N   0  0  0  0  0  0  0  0  0  0  0  0
    8.7050  -14.2477   18.6195 C   0  0  0  0  0  0  0  0  0  0  0  0
    9.7874  -13.6150   18.5580 O   0  0  0  0  0  0  0  0  0  0  0  0
    8.2044  -14.6800   19.8709 N   0  0  0  0  0  0  0  0  0  0  0  0
    8.9083  -14.4224   21.1193 C   0  0  1  0  0  0  0  0  0  0  0  0
    7.9114  -13.8615   22.1035 C   0  0  0  0  0  0  0  0  0  0  0  0
    6.5275  -15.0001   22.3319 S   0  0  0  0  0  0  0  0  0  0  0  0
    9.4963  -15.6954   21.5786 C   0  0  0  0  0  0  0  0  0  0  0  0
    8.9217  -16.8181   21.3648 O   0  0  0  0  0  0  0  0  0  0  0  0
   12.7534  -16.9177   22.8222 C   0  0  0  0  0  0  0  0  0  0  0  0
   11.2379  -17.0107   22.8554 C   0  0  2  0  0  0  0  0  0  0  0  0
   10.7299  -15.7784   22.2852 N   0  0  0  0  0  0  0  0  0  0  0  0
   10.7708  -17.2095   24.2494 C   0  0  0  0  0  0  0  0  0  0  0  0
   10.0959  -16.2782   24.7591 O   0  0  0  0  0  0  0  0  0  0  0  0
   11.0218  -18.3211   25.0041 O   0  0  0  0  0  0  0  0  0  0  0  0
  2  1  1  1
  2  3  1  0
  4  2  1  0
  4  5  1  6
  6  4  1  0
  7  6  2  0
  8  6  1  0
  9  8  1  0
  9 12  1  0
  9 10  1  1
 11 10  1  0
 12 16  1  0
 13 12  2  0
 15 14  1  1
 15 17  1  0
 16 15  1  0
 17 18  2  0
 17 19  1  0
M  END
$$$$
