TCA.pdb
     RDKit          3D

 19 18  0  0  1  0  0  0  0  0999 V2000
    6.7822  -15.9755   21.0202 C   0  0  0  0  0  0  0  0  0  0  0  0
    7.5624  -14.9711   20.2192 C   0  0  1  0  0  0  0  0  0  0  0  0
    7.2052  -15.0061   18.8949 O   0  0  0  0  0  0  0  0  0  0  0  0
    7.4256  -13.5628   20.8012 C   0  0  2  0  0  0  0  0  0  0  0  0
    8.1240  -12.6652   19.8622 N   0  0  0  0  0  0  0  0  0  0  0  0
    8.0060  -13.4402   22.1430 C   0  0  0  0  0  0  0  0  0  0  0  0
    9.2524  -13.4331   22.2912 O   0  0  0  0  0  0  0  0  0  0  0  0
    7.1556  -13.3298   23.2691 N   0  0  0  0  0  0  0  0  0  0  0  0
    7.6660  -13.3554   24.6327 C   0  0  1  0  0  0  0  0  0  0  0  0
    6.6284  -12.7204   25.5255 C   0  0  0  0  0  0  0  0  0  0  0  0
    7.0940  -12.8823   27.2636 S   0  0  0  0  0  0  0  0  0  0  0  0
    7.9306  -14.7622   24.9906 C   0  0  0  0  0  0  0  0  0  0  0  0
    7.0092  -15.6490   24.9610 O   0  0  0  0  0  0  0  0  0  0  0  0
   10.5329  -17.1906   25.0302 C   0  0  0  0  0  0  0  0  0  0  0  0
    9.4370  -16.5837   25.8887 C   0  0  2  0  0  0  0  0  0  0  0  0
    9.2105  -15.2408   25.3916 N   0  0  0  0  0  0  0  0  0  0  0  0
    9.8482  -16.5843   27.3141 C   0  0  0  0  0  0  0  0  0  0  0  0
   10.1424  -17.6984   27.8186 O   0  0  0  0  0  0  0  0  0  0  0  0
    9.9270  -15.4705   28.1026 O   0  0  0  0  0  0  0  0  0  0  0  0
  2  1  1  1
  2  3  1  0
  4  2  1  0
  4  5  1  6
  6  4  1  0
  7  6  2  0
  8  6  1  0
  9  8  1  0
  9 12  1  0
  9 10  1  1
 11 10  1  0
 12 16  1  0
 13 12  2  0
 15 14  1  6
 15 17  1  0
 16 15  1  0
 17 18  2  0
 17 19  1  0
M  END
$$$$
