TCA.pdb
     RDKit          3D

 19 18  0  0  1  0  0  0  0  0999 V2000
    6.7564  -17.0588   22.5551 C   0  0  0  0  0  0  0  0  0  0  0  0
    7.5799  -16.4587   21.4502 C   0  0  1  0  0  0  0  0  0  0  0  0
    7.1802  -16.9250   20.2232 O   0  0  0  0  0  0  0  0  0  0  0  0
    7.5601  -14.9299   21.5041 C   0  0  2  0  0  0  0  0  0  0  0  0
    8.3657  -14.4721   20.3568 N   0  0  0  0  0  0  0  0  0  0  0  0
    8.1118  -14.3951   22.7539 C   0  0  0  0  0  0  0  0  0  0  0  0
    9.3526  -14.3932   22.9439 O   0  0  0  0  0  0  0  0  0  0  0  0
    7.2402  -13.8813   23.7438 N   0  0  0  0  0  0  0  0  0  0  0  0
    7.7240  -13.4028   25.0312 C   0  0  1  0  0  0  0  0  0  0  0  0
    6.5956  -12.6565   25.6994 C   0  0  0  0  0  0  0  0  0  0  0  0
    6.9730  -12.3495   27.4393 S   0  0  0  0  0  0  0  0  0  0  0  0
    8.1640  -14.5742   25.8132 C   0  0  0  0  0  0  0  0  0  0  0  0
    7.4068  -15.5904   25.9872 O   0  0  0  0  0  0  0  0  0  0  0  0
   11.0483  -16.4277   26.5596 C   0  0  0  0  0  0  0  0  0  0  0  0
    9.8521  -15.7936   27.2475 C   0  0  2  0  0  0  0  0  0  0  0  0
    9.4451  -14.6690   26.4280 N   0  0  0  0  0  0  0  0  0  0  0  0
   10.2196  -15.3726   28.6218 C   0  0  0  0  0  0  0  0  0  0  0  0
   10.2005  -14.1376   28.8604 O   0  0  0  0  0  0  0  0  0  0  0  0
   10.5721  -16.2258   29.6299 O   0  0  0  0  0  0  0  0  0  0  0  0
  2  1  1  1
  2  3  1  0
  4  2  1  0
  4  5  1  6
  6  4  1  0
  7  6  2  0
  8  6  1  0
  9  8  1  0
  9 12  1  0
  9 10  1  1
 11 10  1  0
 12 16  1  0
 13 12  2  0
 15 14  1  6
 15 17  1  0
 16 15  1  0
 17 18  2  0
 17 19  1  0
M  END
$$$$
