TCA.pdb
     RDKit          3D

 19 18  0  0  1  0  0  0  0  0999 V2000
    7.2573  -17.5767   22.7233 C   0  0  0  0  0  0  0  0  0  0  0  0
    8.1164  -17.0176   21.6239 C   0  0  1  0  0  0  0  0  0  0  0  0
    7.7977  -17.5758   20.4117 O   0  0  0  0  0  0  0  0  0  0  0  0
    8.0412  -15.4903   21.5765 C   0  0  2  0  0  0  0  0  0  0  0  0
    8.8553  -15.0790   20.4175 N   0  0  0  0  0  0  0  0  0  0  0  0
    8.5461  -14.8552   22.7989 C   0  0  0  0  0  0  0  0  0  0  0  0
    9.7806  -14.8118   23.0217 O   0  0  0  0  0  0  0  0  0  0  0  0
    7.6362  -14.2917   23.7252 N   0  0  0  0  0  0  0  0  0  0  0  0
    8.0723  -13.7190   24.9911 C   0  0  1  0  0  0  0  0  0  0  0  0
    6.9137  -12.9453   25.5706 C   0  0  0  0  0  0  0  0  0  0  0  0
    7.2580  -12.4589   27.2762 S   0  0  0  0  0  0  0  0  0  0  0  0
    8.5015  -14.8274   25.8654 C   0  0  0  0  0  0  0  0  0  0  0  0
    7.6783  -15.7132   26.2826 O   0  0  0  0  0  0  0  0  0  0  0  0
   11.6746  -16.4583   26.7581 C   0  0  0  0  0  0  0  0  0  0  0  0
   10.2616  -16.0871   27.1727 C   0  0  2  0  0  0  0  0  0  0  0  0
    9.8436  -14.9999   26.3093 N   0  0  0  0  0  0  0  0  0  0  0  0
   10.2369  -15.6980   28.6041 C   0  0  0  0  0  0  0  0  0  0  0  0
   10.4029  -16.6191   29.4446 O   0  0  0  0  0  0  0  0  0  0  0  0
   10.0486  -14.4239   29.0619 O   0  0  0  0  0  0  0  0  0  0  0  0
  2  1  1  1
  2  3  1  0
  4  2  1  0
  4  5  1  6
  6  4  1  0
  7  6  2  0
  8  6  1  0
  9  8  1  0
  9 12  1  0
  9 10  1  1
 11 10  1  0
 12 16  1  0
 13 12  2  0
 15 14  1  6
 15 17  1  0
 16 15  1  0
 17 18  2  0
 17 19  1  0
M  END
$$$$
