TCA.pdb
     RDKit          3D

 19 18  0  0  1  0  0  0  0  0999 V2000
    6.4966  -18.6241   17.6677 C   0  0  0  0  0  0  0  0  0  0  0  0
    7.3025  -18.1638   18.8499 C   0  0  1  0  0  0  0  0  0  0  0  0
    8.3411  -19.0226   19.1080 O   0  0  0  0  0  0  0  0  0  0  0  0
    7.7939  -16.7266   18.6672 C   0  0  2  0  0  0  0  0  0  0  0  0
    8.7182  -16.7558   17.5184 N   0  0  0  0  0  0  0  0  0  0  0  0
    8.4795  -16.2020   19.8536 C   0  0  0  0  0  0  0  0  0  0  0  0
    9.7329  -16.2241   19.9172 O   0  0  0  0  0  0  0  0  0  0  0  0
    7.7225  -15.6710   20.9253 N   0  0  0  0  0  0  0  0  0  0  0  0
    8.3481  -15.1227   22.1205 C   0  0  1  0  0  0  0  0  0  0  0  0
    7.2857  -14.3895   22.9019 C   0  0  0  0  0  0  0  0  0  0  0  0
    7.9014  -13.9198   24.5342 S   0  0  0  0  0  0  0  0  0  0  0  0
    8.9317  -16.2444   22.8810 C   0  0  0  0  0  0  0  0  0  0  0  0
    8.2567  -17.2961   23.1539 O   0  0  0  0  0  0  0  0  0  0  0  0
   12.3251  -17.3246   23.9169 C   0  0  0  0  0  0  0  0  0  0  0  0
   10.8257  -17.3293   24.1576 C   0  0  2  0  0  0  0  0  0  0  0  0
   10.2708  -16.2490   23.3657 N   0  0  0  0  0  0  0  0  0  0  0  0
   10.5420  -17.1577   25.6037 C   0  0  0  0  0  0  0  0  0  0  0  0
    9.9428  -16.1048   25.9426 O   0  0  0  0  0  0  0  0  0  0  0  0
   10.8840  -18.0549   26.5765 O   0  0  0  0  0  0  0  0  0  0  0  0
  2  1  1  6
  2  3  1  0
  4  2  1  0
  4  5  1  6
  6  4  1  0
  7  6  2  0
  8  6  1  0
  9  8  1  0
  9 12  1  0
  9 10  1  1
 11 10  1  0
 12 16  1  0
 13 12  2  0
 15 14  1  1
 15 17  1  0
 16 15  1  0
 17 18  2  0
 17 19  1  0
M  END
$$$$
