TCA.pdb
     RDKit          3D

 19 18  0  0  1  0  0  0  0  0999 V2000
    8.7690  -16.8646   19.2596 C   0  0  0  0  0  0  0  0  0  0  0  0
    8.8204  -15.7637   20.2816 C   0  0  1  0  0  0  0  0  0  0  0  0
    7.8389  -14.8314   20.0577 O   0  0  0  0  0  0  0  0  0  0  0  0
    8.7542  -16.3184   21.7059 C   0  0  2  0  0  0  0  0  0  0  0  0
    7.4169  -16.9246   21.8443 N   0  0  0  0  0  0  0  0  0  0  0  0
    8.9493  -15.2866   22.7305 C   0  0  0  0  0  0  0  0  0  0  0  0
   10.0293  -14.6492   22.7839 O   0  0  0  0  0  0  0  0  0  0  0  0
    7.9155  -15.0127   23.6577 N   0  0  0  0  0  0  0  0  0  0  0  0
    8.1104  -14.1291   24.7987 C   0  0  1  0  0  0  0  0  0  0  0  0
    6.7679  -13.5451   25.1642 C   0  0  0  0  0  0  0  0  0  0  0  0
    6.8231  -12.7913   26.8051 S   0  0  0  0  0  0  0  0  0  0  0  0
    8.6935  -14.9268   25.8946 C   0  0  0  0  0  0  0  0  0  0  0  0
    8.2048  -16.0582   26.2375 O   0  0  0  0  0  0  0  0  0  0  0  0
   11.9275  -14.9833   27.6730 C   0  0  0  0  0  0  0  0  0  0  0  0
   10.4496  -15.3326   27.6681 C   0  0  2  0  0  0  0  0  0  0  0  0
    9.8282  -14.5109   26.6479 N   0  0  0  0  0  0  0  0  0  0  0  0
    9.8642  -15.0870   29.0090 C   0  0  0  0  0  0  0  0  0  0  0  0
    9.1280  -14.0740   29.1290 O   0  0  0  0  0  0  0  0  0  0  0  0
   10.0695  -15.8772   30.1052 O   0  0  0  0  0  0  0  0  0  0  0  0
  2  1  1  6
  2  3  1  0
  4  2  1  0
  4  5  1  1
  6  4  1  0
  7  6  2  0
  8  6  1  0
  9  8  1  0
  9 12  1  0
  9 10  1  1
 11 10  1  0
 12 16  1  0
 13 12  2  0
 15 14  1  1
 15 17  1  0
 16 15  1  0
 17 18  2  0
 17 19  1  0
M  END
$$$$
