TCA.pdb
     RDKit          3D

 19 18  0  0  1  0  0  0  0  0999 V2000
    8.5794  -18.2574   13.8375 C   0  0  0  0  0  0  0  0  0  0  0  0
    9.4933  -17.4349   14.7022 C   0  0  1  0  0  0  0  0  0  0  0  0
   10.7678  -17.4093   14.1945 O   0  0  0  0  0  0  0  0  0  0  0  0
    8.9438  -16.0227   14.9129 C   0  0  2  0  0  0  0  0  0  0  0  0
    8.8711  -15.4106   13.5731 N   0  0  0  0  0  0  0  0  0  0  0  0
    9.7863  -15.2077   15.7953 C   0  0  0  0  0  0  0  0  0  0  0  0
   10.6572  -14.4468   15.3072 O   0  0  0  0  0  0  0  0  0  0  0  0
    9.6132  -15.2825   17.1981 N   0  0  0  0  0  0  0  0  0  0  0  0
   10.4224  -14.5010   18.1227 C   0  0  1  0  0  0  0  0  0  0  0  0
    9.6925  -14.4471   19.4423 C   0  0  0  0  0  0  0  0  0  0  0  0
    9.4937  -16.1051   20.1319 S   0  0  0  0  0  0  0  0  0  0  0  0
   11.7401  -15.1556   18.2356 C   0  0  0  0  0  0  0  0  0  0  0  0
   11.8985  -16.3986   17.9784 O   0  0  0  0  0  0  0  0  0  0  0  0
   15.2441  -14.0881   18.2463 C   0  0  0  0  0  0  0  0  0  0  0  0
   14.2222  -15.1090   18.7155 C   0  0  2  0  0  0  0  0  0  0  0  0
   12.9234  -14.4701   18.6330 N   0  0  0  0  0  0  0  0  0  0  0  0
   14.5373  -15.5460   20.0977 C   0  0  0  0  0  0  0  0  0  0  0  0
   13.7399  -15.1858   21.0016 O   0  0  0  0  0  0  0  0  0  0  0  0
   15.6205  -16.3027   20.4477 O   0  0  0  0  0  0  0  0  0  0  0  0
  2  1  1  6
  2  3  1  0
  4  2  1  0
  4  5  1  6
  6  4  1  0
  7  6  2  0
  8  6  1  0
  9  8  1  0
  9 12  1  0
  9 10  1  1
 11 10  1  0
 12 16  1  0
 13 12  2  0
 15 14  1  1
 15 17  1  0
 16 15  1  0
 17 18  2  0
 17 19  1  0
M  END
$$$$
