TCA.pdb
     RDKit          3D

 19 18  0  0  1  0  0  0  0  0999 V2000
    7.6452  -16.3032   19.3786 C   0  0  0  0  0  0  0  0  0  0  0  0
    8.2991  -15.1116   18.7369 C   0  0  1  0  0  0  0  0  0  0  0  0
    8.0860  -15.0976   17.3815 O   0  0  0  0  0  0  0  0  0  0  0  0
    7.8458  -13.8047   19.3905 C   0  0  2  0  0  0  0  0  0  0  0  0
    8.3727  -12.7208   18.5404 N   0  0  0  0  0  0  0  0  0  0  0  0
    8.3371  -13.6527   20.7646 C   0  0  0  0  0  0  0  0  0  0  0  0
    9.4661  -13.1468   20.9768 O   0  0  0  0  0  0  0  0  0  0  0  0
    7.5334  -14.0782   21.8493 N   0  0  0  0  0  0  0  0  0  0  0  0
    7.9740  -13.9655   23.2327 C   0  0  1  0  0  0  0  0  0  0  0  0
    6.7446  -13.9330   24.1069 C   0  0  0  0  0  0  0  0  0  0  0  0
    7.2008  -13.7667   25.8471 S   0  0  0  0  0  0  0  0  0  0  0  0
    8.8425  -15.1216   23.5268 C   0  0  0  0  0  0  0  0  0  0  0  0
    9.4779  -15.2222   24.6324 O   0  0  0  0  0  0  0  0  0  0  0  0
    9.8556  -18.2406   21.6921 C   0  0  0  0  0  0  0  0  0  0  0  0
    9.9462  -17.3039   22.8840 C   0  0  2  0  0  0  0  0  0  0  0  0
    9.0417  -16.2018   22.6204 N   0  0  0  0  0  0  0  0  0  0  0  0
   11.3445  -16.8417   23.0628 C   0  0  0  0  0  0  0  0  0  0  0  0
   12.2107  -17.7276   23.2804 O   0  0  0  0  0  0  0  0  0  0  0  0
   11.7467  -15.5365   23.0073 O   0  0  0  0  0  0  0  0  0  0  0  0
  2  1  1  1
  2  3  1  0
  4  2  1  0
  4  5  1  6
  6  4  1  0
  7  6  2  0
  8  6  1  0
  9  8  1  0
  9 12  1  0
  9 10  1  1
 11 10  1  0
 12 16  1  0
 13 12  2  0
 15 14  1  6
 15 17  1  0
 16 15  1  0
 17 18  2  0
 17 19  1  0
M  END
$$$$
