TCA.pdb
     RDKit          3D

 19 18  0  0  1  0  0  0  0  0999 V2000
    7.0926  -16.2400   20.4620 C   0  0  0  0  0  0  0  0  0  0  0  0
    7.6463  -15.0763   19.6885 C   0  0  1  0  0  0  0  0  0  0  0  0
    7.1336  -15.0361   18.4164 O   0  0  0  0  0  0  0  0  0  0  0  0
    7.4215  -13.7554   20.4269 C   0  0  2  0  0  0  0  0  0  0  0  0
    7.8114  -12.6908   19.4837 N   0  0  0  0  0  0  0  0  0  0  0  0
    8.2082  -13.6496   21.6608 C   0  0  0  0  0  0  0  0  0  0  0  0
    9.4147  -13.3071   21.6104 O   0  0  0  0  0  0  0  0  0  0  0  0
    7.6017  -13.9348   22.9075 N   0  0  0  0  0  0  0  0  0  0  0  0
    8.3701  -14.0298   24.1408 C   0  0  1  0  0  0  0  0  0  0  0  0
    7.5027  -13.5195   25.2650 C   0  0  0  0  0  0  0  0  0  0  0  0
    5.8950  -14.3438   25.2579 S   0  0  0  0  0  0  0  0  0  0  0  0
    8.7567  -15.4418   24.3256 C   0  0  0  0  0  0  0  0  0  0  0  0
    7.9506  -16.4001   24.0647 O   0  0  0  0  0  0  0  0  0  0  0  0
   11.8883  -17.3059   24.4488 C   0  0  0  0  0  0  0  0  0  0  0  0
   10.4418  -17.2355   24.9060 C   0  0  2  0  0  0  0  0  0  0  0  0
   10.0363  -15.8475   24.8012 N   0  0  0  0  0  0  0  0  0  0  0  0
   10.3217  -17.7438   26.2946 C   0  0  0  0  0  0  0  0  0  0  0  0
    9.9411  -16.9223   27.1679 O   0  0  0  0  0  0  0  0  0  0  0  0
   10.5935  -19.0265   26.6809 O   0  0  0  0  0  0  0  0  0  0  0  0
  2  1  1  1
  2  3  1  0
  4  2  1  0
  4  5  1  6
  6  4  1  0
  7  6  2  0
  8  6  1  0
  9  8  1  0
  9 12  1  0
  9 10  1  1
 11 10  1  0
 12 16  1  0
 13 12  2  0
 15 14  1  1
 15 17  1  0
 16 15  1  0
 17 18  2  0
 17 19  1  0
M  END
$$$$
