TCA.pdb
     RDKit          3D

 19 18  0  0  1  0  0  0  0  0999 V2000
    8.1341  -16.6657   18.0430 C   0  0  0  0  0  0  0  0  0  0  0  0
    8.4129  -15.3913   17.2963 C   0  0  1  0  0  0  0  0  0  0  0  0
    8.0355  -15.4933   15.9811 O   0  0  0  0  0  0  0  0  0  0  0  0
    7.7572  -14.1885   17.9774 C   0  0  2  0  0  0  0  0  0  0  0  0
    7.8973  -13.0619   17.0360 N   0  0  0  0  0  0  0  0  0  0  0  0
    8.3778  -13.8517   19.2635 C   0  0  0  0  0  0  0  0  0  0  0  0
    8.6718  -12.6603   19.5275 O   0  0  0  0  0  0  0  0  0  0  0  0
    8.6434  -14.8749   20.2049 N   0  0  0  0  0  0  0  0  0  0  0  0
    8.8055  -14.5993   21.6255 C   0  0  1  0  0  0  0  0  0  0  0  0
    7.4806  -14.1070   22.1538 C   0  0  0  0  0  0  0  0  0  0  0  0
    7.4958  -14.0416   23.9592 S   0  0  0  0  0  0  0  0  0  0  0  0
    9.2438  -15.8463   22.2814 C   0  0  0  0  0  0  0  0  0  0  0  0
    8.5213  -16.9019   22.2715 O   0  0  0  0  0  0  0  0  0  0  0  0
   12.5509  -17.1513   23.1444 C   0  0  0  0  0  0  0  0  0  0  0  0
   11.0502  -17.2539   23.3534 C   0  0  2  0  0  0  0  0  0  0  0  0
   10.4850  -15.9758   22.9674 N   0  0  0  0  0  0  0  0  0  0  0  0
   10.7550  -17.5846   24.7692 C   0  0  0  0  0  0  0  0  0  0  0  0
   10.1073  -16.7305   25.4275 O   0  0  0  0  0  0  0  0  0  0  0  0
   11.1350  -18.7388   25.3951 O   0  0  0  0  0  0  0  0  0  0  0  0
  2  1  1  1
  2  3  1  0
  4  2  1  0
  4  5  1  6
  6  4  1  0
  7  6  2  0
  8  6  1  0
  9  8  1  0
  9 12  1  0
  9 10  1  1
 11 10  1  0
 12 16  1  0
 13 12  2  0
 15 14  1  1
 15 17  1  0
 16 15  1  0
 17 18  2  0
 17 19  1  0
M  END
$$$$
