VVK.pdb
     RDKit          3D

 24 23  0  0  1  0  0  0  0  0999 V2000
    6.2769  -18.8948   25.2479 C   0  0  0  0  0  0  0  0  0  0  0  0
    6.4408  -18.7725   23.7563 C   0  0  1  0  0  0  0  0  0  0  0  0
    5.6331  -19.7467   22.9639 C   0  0  0  0  0  0  0  0  0  0  0  0
    6.3904  -17.3870   23.2247 C   0  0  2  0  0  0  0  0  0  0  0  0
    6.7470  -17.3236   21.8049 N   0  0  0  0  0  0  0  0  0  0  0  0
    7.1493  -16.3619   23.9313 C   0  0  0  0  0  0  0  0  0  0  0  0
    8.4165  -16.2291   23.7073 O   0  0  0  0  0  0  0  0  0  0  0  0
    7.7643  -12.5748   27.0532 C   0  0  0  0  0  0  0  0  0  0  0  0
    6.8134  -13.3338   26.1802 C   0  0  1  0  0  0  0  0  0  0  0  0
    6.1483  -12.5037   25.1399 C   0  0  0  0  0  0  0  0  0  0  0  0
    7.5263  -14.5414   25.6288 C   0  0  2  0  0  0  0  0  0  0  0  0
    6.6720  -15.4293   24.8888 N   0  0  0  0  0  0  0  0  0  0  0  0
    8.3247  -15.2344   26.6888 C   0  0  0  0  0  0  0  0  0  0  0  0
    7.6805  -15.9652   27.4703 O   0  0  0  0  0  0  0  0  0  0  0  0
    9.6948  -15.0769   26.7988 N   0  0  0  0  0  0  0  0  0  0  0  0
   10.5456  -15.8931   27.6317 C   0  0  1  0  0  0  0  0  0  0  0  0
   11.8551  -16.2071   26.9917 C   0  0  0  0  0  0  0  0  0  0  0  0
   12.7289  -17.1466   27.7829 C   0  0  0  0  0  0  0  0  0  0  0  0
   13.9936  -17.4468   27.0570 C   0  0  0  0  0  0  0  0  0  0  0  0
   14.8786  -18.4315   27.7926 C   0  0  0  0  0  0  0  0  0  0  0  0
   15.9896  -18.8771   26.9860 N   0  0  0  0  0  0  0  0  0  0  0  0
   10.7503  -15.1919   28.9302 C   0  0  0  0  0  0  0  0  0  0  0  0
   10.4557  -13.8612   29.1551 O   0  0  0  0  0  0  0  0  0  0  0  0
   11.2232  -15.8560   29.8933 O   0  0  0  0  0  0  0  0  0  0  0  0
  2  1  1  1
  2  3  1  0
  4  6  1  0
  4  2  1  0
  4  5  1  6
  6  7  2  0
  9  8  1  6
  9 11  1  0
 10  9  1  0
 11 12  1  1
 12  6  1  0
 13 14  2  0
 13 11  1  0
 15 13  1  0
 16 15  1  0
 16 17  1  6
 17 18  1  0
 19 20  1  0
 19 18  1  0
 21 20  1  0
 22 16  1  0
 23 22  1  0
 24 22  2  0
M  END
$$$$
