VVK.pdb
     RDKit          3D

 24 23  0  0  1  0  0  0  0  0999 V2000
    5.8840  -17.6919   21.0332 C   0  0  0  0  0  0  0  0  0  0  0  0
    6.6215  -17.1184   22.2138 C   0  0  1  0  0  0  0  0  0  0  0  0
    7.5628  -18.0697   22.8760 C   0  0  0  0  0  0  0  0  0  0  0  0
    7.1931  -15.7638   22.0068 C   0  0  2  0  0  0  0  0  0  0  0  0
    8.1545  -15.7295   20.9015 N   0  0  0  0  0  0  0  0  0  0  0  0
    7.7966  -15.0999   23.1562 C   0  0  0  0  0  0  0  0  0  0  0  0
    9.0766  -15.1575   23.3349 O   0  0  0  0  0  0  0  0  0  0  0  0
    5.7247  -13.2722   26.4399 C   0  0  0  0  0  0  0  0  0  0  0  0
    7.0484  -12.7167   26.0140 C   0  0  1  0  0  0  0  0  0  0  0  0
    7.8069  -12.0481   27.1056 C   0  0  0  0  0  0  0  0  0  0  0  0
    7.8230  -13.8031   25.3139 C   0  0  2  0  0  0  0  0  0  0  0  0
    7.1452  -14.3524   24.1718 N   0  0  0  0  0  0  0  0  0  0  0  0
    8.2954  -14.8448   26.2797 C   0  0  0  0  0  0  0  0  0  0  0  0
    7.4412  -15.6781   26.6483 O   0  0  0  0  0  0  0  0  0  0  0  0
    9.6000  -14.8852   26.7386 N   0  0  0  0  0  0  0  0  0  0  0  0
   10.1123  -15.8757   27.6551 C   0  0  1  0  0  0  0  0  0  0  0  0
   11.3414  -16.5522   27.1506 C   0  0  0  0  0  0  0  0  0  0  0  0
   11.1482  -17.3303   25.8742 C   0  0  0  0  0  0  0  0  0  0  0  0
   12.3949  -18.0445   25.4841 C   0  0  0  0  0  0  0  0  0  0  0  0
   12.2723  -18.7683   24.1592 C   0  0  0  0  0  0  0  0  0  0  0  0
   13.5052  -18.7484   23.4089 N   0  0  0  0  0  0  0  0  0  0  0  0
   10.3754  -15.2171   28.9654 C   0  0  0  0  0  0  0  0  0  0  0  0
   10.2550  -13.8606   29.1967 O   0  0  0  0  0  0  0  0  0  0  0  0
   10.7310  -15.9450   29.9328 O   0  0  0  0  0  0  0  0  0  0  0  0
  2  1  1  6
  2  3  1  0
  4  6  1  0
  4  2  1  0
  4  5  1  6
  6  7  2  0
  9  8  1  1
  9 11  1  0
 10  9  1  0
 11 12  1  6
 12  6  1  0
 13 14  2  0
 13 11  1  0
 15 13  1  0
 16 15  1  0
 16 17  1  6
 17 18  1  0
 19 20  1  0
 19 18  1  0
 21 20  1  0
 22 16  1  0
 23 22  1  0
 24 22  2  0
M  END
$$$$
