VVK.pdb
     RDKit          3D

 24 23  0  0  1  0  0  0  0  0999 V2000
    6.1510  -18.4634   24.6323 C   0  0  0  0  0  0  0  0  0  0  0  0
    6.4686  -18.2585   23.1750 C   0  0  1  0  0  0  0  0  0  0  0  0
    5.6556  -19.0938   22.2419 C   0  0  0  0  0  0  0  0  0  0  0  0
    6.5965  -16.8424   22.7473 C   0  0  2  0  0  0  0  0  0  0  0  0
    7.0623  -16.7201   21.3633 N   0  0  0  0  0  0  0  0  0  0  0  0
    7.3993  -15.9532   23.5784 C   0  0  0  0  0  0  0  0  0  0  0  0
    8.6819  -15.9035   23.4168 O   0  0  0  0  0  0  0  0  0  0  0  0
    6.9317  -12.1069   24.6406 C   0  0  0  0  0  0  0  0  0  0  0  0
    7.2016  -12.9608   25.8406 C   0  0  1  0  0  0  0  0  0  0  0  0
    6.0227  -13.1528   26.7279 C   0  0  0  0  0  0  0  0  0  0  0  0
    7.8318  -14.2502   25.3814 C   0  0  2  0  0  0  0  0  0  0  0  0
    6.9523  -15.0786   24.6030 N   0  0  0  0  0  0  0  0  0  0  0  0
    8.4769  -14.9775   26.5198 C   0  0  0  0  0  0  0  0  0  0  0  0
    7.7465  -15.7740   27.1456 O   0  0  0  0  0  0  0  0  0  0  0  0
    9.8034  -14.7813   26.8609 N   0  0  0  0  0  0  0  0  0  0  0  0
   10.5251  -15.5796   27.8230 C   0  0  1  0  0  0  0  0  0  0  0  0
   11.9438  -15.8177   27.4316 C   0  0  0  0  0  0  0  0  0  0  0  0
   12.3676  -17.2639   27.4640 C   0  0  0  0  0  0  0  0  0  0  0  0
   12.8560  -17.7126   26.1310 C   0  0  0  0  0  0  0  0  0  0  0  0
   13.1420  -19.1990   26.0754 C   0  0  0  0  0  0  0  0  0  0  0  0
   13.5410  -19.6303   24.7570 N   0  0  0  0  0  0  0  0  0  0  0  0
   10.4522  -14.9037   29.1488 C   0  0  0  0  0  0  0  0  0  0  0  0
   10.7410  -15.5135   30.3541 O   0  0  0  0  0  0  0  0  0  0  0  0
   10.1051  -13.6909   29.1765 O   0  0  0  0  0  0  0  0  0  0  0  0
  2  1  1  1
  2  3  1  0
  4  6  1  0
  4  2  1  0
  4  5  1  6
  6  7  2  0
  9  8  1  6
  9 11  1  0
 10  9  1  0
 11 12  1  1
 12  6  1  0
 13 14  2  0
 13 11  1  0
 15 13  1  0
 16 15  1  0
 16 17  1  6
 17 18  1  0
 19 20  1  0
 19 18  1  0
 21 20  1  0
 22 16  1  0
 23 22  1  0
 24 22  2  0
M  END
$$$$
