VVK.pdb
     RDKit          3D

 24 23  0  0  1  0  0  0  0  0999 V2000
    7.8792  -11.6512   25.8893 C   0  0  0  0  0  0  0  0  0  0  0  0
    6.7127  -12.3407   26.5454 C   0  0  1  0  0  0  0  0  0  0  0  0
    5.8262  -11.4368   27.3371 C   0  0  0  0  0  0  0  0  0  0  0  0
    5.9710  -13.2928   25.6806 C   0  0  2  0  0  0  0  0  0  0  0  0
    5.0217  -14.1100   26.4408 N   0  0  0  0  0  0  0  0  0  0  0  0
    6.7504  -14.1784   24.8237 C   0  0  0  0  0  0  0  0  0  0  0  0
    7.1695  -15.3135   25.2815 O   0  0  0  0  0  0  0  0  0  0  0  0
    8.5035  -13.2752   21.0226 C   0  0  0  0  0  0  0  0  0  0  0  0
    7.8835  -14.6240   21.2190 C   0  0  1  0  0  0  0  0  0  0  0  0
    8.4924  -15.6998   20.3911 C   0  0  0  0  0  0  0  0  0  0  0  0
    7.8608  -14.9325   22.6938 C   0  0  2  0  0  0  0  0  0  0  0  0
    7.1410  -13.9651   23.4760 N   0  0  0  0  0  0  0  0  0  0  0  0
    9.2370  -15.2090   23.2141 C   0  0  0  0  0  0  0  0  0  0  0  0
    9.9078  -14.2098   23.5479 O   0  0  0  0  0  0  0  0  0  0  0  0
    9.7389  -16.4939   23.3205 N   0  0  0  0  0  0  0  0  0  0  0  0
   11.0686  -16.8148   23.7816 C   0  0  1  0  0  0  0  0  0  0  0  0
   11.1092  -18.0433   24.6255 C   0  0  0  0  0  0  0  0  0  0  0  0
   10.6558  -17.8401   26.0486 C   0  0  0  0  0  0  0  0  0  0  0  0
   10.7236  -19.1100   26.8227 C   0  0  0  0  0  0  0  0  0  0  0  0
   10.1655  -18.9789   28.2247 C   0  0  0  0  0  0  0  0  0  0  0  0
   10.0872  -20.2503   28.9035 N   0  0  0  0  0  0  0  0  0  0  0  0
   11.9582  -16.9626   22.5957 C   0  0  0  0  0  0  0  0  0  0  0  0
   11.5173  -17.2521   21.3190 O   0  0  0  0  0  0  0  0  0  0  0  0
   13.1996  -16.8120   22.7645 O   0  0  0  0  0  0  0  0  0  0  0  0
  2  1  1  6
  2  3  1  0
  4  6  1  0
  4  2  1  0
  4  5  1  1
  6  7  2  0
  9  8  1  1
  9 11  1  0
 10  9  1  0
 11 12  1  1
 12  6  1  0
 13 14  2  0
 13 11  1  0
 15 13  1  0
 16 15  1  0
 16 17  1  6
 17 18  1  0
 19 20  1  0
 19 18  1  0
 21 20  1  0
 22 16  1  0
 23 22  1  0
 24 22  2  0
M  END
$$$$
