VVK.pdb
     RDKit          3D

 24 23  0  0  1  0  0  0  0  0999 V2000
    6.3268  -17.4365   23.0792 C   0  0  0  0  0  0  0  0  0  0  0  0
    7.0330  -17.0072   21.8207 C   0  0  1  0  0  0  0  0  0  0  0  0
    6.4393  -17.5505   20.5630 C   0  0  0  0  0  0  0  0  0  0  0  0
    7.3695  -15.5631   21.7439 C   0  0  2  0  0  0  0  0  0  0  0  0
    8.2139  -15.2503   20.5879 N   0  0  0  0  0  0  0  0  0  0  0  0
    7.9620  -14.9416   22.9223 C   0  0  0  0  0  0  0  0  0  0  0  0
    9.2257  -15.0843   23.1595 O   0  0  0  0  0  0  0  0  0  0  0  0
    5.8616  -12.8911   26.0250 C   0  0  0  0  0  0  0  0  0  0  0  0
    7.2613  -12.4653   25.7061 C   0  0  1  0  0  0  0  0  0  0  0  0
    7.9912  -11.8652   26.8553 C   0  0  0  0  0  0  0  0  0  0  0  0
    7.9825  -13.6240   25.0675 C   0  0  2  0  0  0  0  0  0  0  0  0
    7.3154  -14.1531   23.9096 N   0  0  0  0  0  0  0  0  0  0  0  0
    8.3345  -14.6709   26.0780 C   0  0  0  0  0  0  0  0  0  0  0  0
    7.4262  -15.4759   26.3725 O   0  0  0  0  0  0  0  0  0  0  0  0
    9.5906  -14.7453   26.6533 N   0  0  0  0  0  0  0  0  0  0  0  0
   10.0162  -15.7926   27.5509 C   0  0  1  0  0  0  0  0  0  0  0  0
   11.2352  -16.5061   27.0735 C   0  0  0  0  0  0  0  0  0  0  0  0
   11.0163  -17.3777   25.8633 C   0  0  0  0  0  0  0  0  0  0  0  0
   12.2768  -18.0548   25.4515 C   0  0  0  0  0  0  0  0  0  0  0  0
   12.1304  -18.8487   24.1699 C   0  0  0  0  0  0  0  0  0  0  0  0
   13.3879  -19.3937   23.7173 N   0  0  0  0  0  0  0  0  0  0  0  0
   10.2492  -15.1971   28.8966 C   0  0  0  0  0  0  0  0  0  0  0  0
   10.4319  -15.9285   30.0541 O   0  0  0  0  0  0  0  0  0  0  0  0
   10.2846  -13.9392   28.9891 O   0  0  0  0  0  0  0  0  0  0  0  0
  2  1  1  1
  2  3  1  0
  4  6  1  0
  4  2  1  0
  4  5  1  6
  6  7  2  0
  9  8  1  1
  9 11  1  0
 10  9  1  0
 11 12  1  6
 12  6  1  0
 13 14  2  0
 13 11  1  0
 15 13  1  0
 16 15  1  0
 16 17  1  6
 17 18  1  0
 19 20  1  0
 19 18  1  0
 21 20  1  0
 22 16  1  0
 23 22  1  0
 24 22  2  0
M  END
$$$$
