VVK.pdb
     RDKit          3D

 24 23  0  0  1  0  0  0  0  0999 V2000
    6.7223  -19.2861   15.9822 C   0  0  0  0  0  0  0  0  0  0  0  0
    7.4734  -18.6494   17.1211 C   0  0  1  0  0  0  0  0  0  0  0  0
    8.4226  -19.5635   17.8232 C   0  0  0  0  0  0  0  0  0  0  0  0
    8.0423  -17.3083   16.8339 C   0  0  2  0  0  0  0  0  0  0  0  0
    9.0666  -17.3520   15.7870 N   0  0  0  0  0  0  0  0  0  0  0  0
    8.5702  -16.5416   17.9562 C   0  0  0  0  0  0  0  0  0  0  0  0
    9.8395  -16.5556   18.2058 O   0  0  0  0  0  0  0  0  0  0  0  0
    8.2546  -13.4952   21.8470 C   0  0  0  0  0  0  0  0  0  0  0  0
    7.6289  -13.9523   20.5657 C   0  0  1  0  0  0  0  0  0  0  0  0
    7.3662  -12.8577   19.5928 C   0  0  0  0  0  0  0  0  0  0  0  0
    8.4552  -15.0795   20.0024 C   0  0  2  0  0  0  0  0  0  0  0  0
    7.8511  -15.7306   18.8725 N   0  0  0  0  0  0  0  0  0  0  0  0
    8.8824  -16.0315   21.0758 C   0  0  0  0  0  0  0  0  0  0  0  0
    7.9898  -16.7727   21.5382 O   0  0  0  0  0  0  0  0  0  0  0  0
   10.1877  -16.0897   21.5308 N   0  0  0  0  0  0  0  0  0  0  0  0
   10.6691  -17.0346   22.5101 C   0  0  1  0  0  0  0  0  0  0  0  0
   12.0850  -17.4398   22.2782 C   0  0  0  0  0  0  0  0  0  0  0  0
   12.3342  -18.1127   20.9527 C   0  0  0  0  0  0  0  0  0  0  0  0
   13.7734  -18.4546   20.7836 C   0  0  0  0  0  0  0  0  0  0  0  0
   14.0934  -19.0044   19.4090 C   0  0  0  0  0  0  0  0  0  0  0  0
   15.4940  -19.3186   19.2579 N   0  0  0  0  0  0  0  0  0  0  0  0
   10.5093  -16.4354   23.8648 C   0  0  0  0  0  0  0  0  0  0  0  0
   10.3308  -15.0872   24.1071 O   0  0  0  0  0  0  0  0  0  0  0  0
   10.5365  -17.2090   24.8612 O   0  0  0  0  0  0  0  0  0  0  0  0
  2  1  1  6
  2  3  1  0
  4  6  1  0
  4  2  1  0
  4  5  1  6
  6  7  2  0
  9  8  1  1
  9 11  1  0
 10  9  1  0
 11 12  1  6
 12  6  1  0
 13 14  2  0
 13 11  1  0
 15 13  1  0
 16 15  1  0
 16 17  1  6
 17 18  1  0
 19 20  1  0
 19 18  1  0
 21 20  1  0
 22 16  1  0
 23 22  1  0
 24 22  2  0
M  END
$$$$
