VVK.pdb
     RDKit          3D

 24 23  0  0  1  0  0  0  0  0999 V2000
    6.1166  -16.1237   19.8675 C   0  0  0  0  0  0  0  0  0  0  0  0
    6.7959  -16.0120   21.2064 C   0  0  1  0  0  0  0  0  0  0  0  0
    7.4339  -17.2750   21.6830 C   0  0  0  0  0  0  0  0  0  0  0  0
    7.6495  -14.8104   21.3857 C   0  0  2  0  0  0  0  0  0  0  0  0
    8.7736  -14.7824   20.4462 N   0  0  0  0  0  0  0  0  0  0  0  0
    8.1657  -14.5391   22.7221 C   0  0  0  0  0  0  0  0  0  0  0  0
    9.3718  -14.8910   23.0307 O   0  0  0  0  0  0  0  0  0  0  0  0
    5.9181  -13.1739   26.0845 C   0  0  0  0  0  0  0  0  0  0  0  0
    7.3440  -12.7328   25.9656 C   0  0  1  0  0  0  0  0  0  0  0  0
    8.0078  -12.4626   27.2695 C   0  0  0  0  0  0  0  0  0  0  0  0
    8.0830  -13.7220   25.1019 C   0  0  2  0  0  0  0  0  0  0  0  0
    7.4977  -13.9053   23.8021 N   0  0  0  0  0  0  0  0  0  0  0  0
    8.3236  -15.0080   25.8296 C   0  0  0  0  0  0  0  0  0  0  0  0
    7.3445  -15.7780   25.9202 O   0  0  0  0  0  0  0  0  0  0  0  0
    9.5561  -15.3277   26.3707 N   0  0  0  0  0  0  0  0  0  0  0  0
    9.8858  -16.6084   26.9495 C   0  0  1  0  0  0  0  0  0  0  0  0
   10.9860  -17.3065   26.2250 C   0  0  0  0  0  0  0  0  0  0  0  0
   11.4259  -18.6033   26.8550 C   0  0  0  0  0  0  0  0  0  0  0  0
   12.5547  -19.2138   26.1002 C   0  0  0  0  0  0  0  0  0  0  0  0
   13.0184  -20.5293   26.6907 C   0  0  0  0  0  0  0  0  0  0  0  0
   12.2268  -21.6449   26.2302 N   0  0  0  0  0  0  0  0  0  0  0  0
   10.2466  -16.4025   28.3803 C   0  0  0  0  0  0  0  0  0  0  0  0
   10.3862  -15.1665   28.9812 O   0  0  0  0  0  0  0  0  0  0  0  0
   10.4369  -17.4243   29.0957 O   0  0  0  0  0  0  0  0  0  0  0  0
  2  1  1  6
  2  3  1  0
  4  6  1  0
  4  2  1  0
  4  5  1  6
  6  7  2  0
  9  8  1  1
  9 11  1  0
 10  9  1  0
 11 12  1  6
 12  6  1  0
 13 14  2  0
 13 11  1  0
 15 13  1  0
 16 15  1  0
 16 17  1  6
 17 18  1  0
 19 20  1  0
 19 18  1  0
 21 20  1  0
 22 16  1  0
 23 22  1  0
 24 22  2  0
M  END
$$$$
