VVK.pdb
     RDKit          3D

 24 23  0  0  1  0  0  0  0  0999 V2000
    8.1968  -11.7214   25.9906 C   0  0  0  0  0  0  0  0  0  0  0  0
    6.9110  -12.2874   26.5319 C   0  0  1  0  0  0  0  0  0  0  0  0
    6.0709  -11.3063   27.2811 C   0  0  0  0  0  0  0  0  0  0  0  0
    6.1390  -13.1278   25.5820 C   0  0  2  0  0  0  0  0  0  0  0  0
    5.0064  -13.7976   26.2268 N   0  0  0  0  0  0  0  0  0  0  0  0
    6.8721  -14.1195   24.8042 C   0  0  0  0  0  0  0  0  0  0  0  0
    7.1512  -15.2699   25.3261 O   0  0  0  0  0  0  0  0  0  0  0  0
    6.7243  -14.8061   20.7732 C   0  0  0  0  0  0  0  0  0  0  0  0
    8.1255  -14.8648   21.2978 C   0  0  1  0  0  0  0  0  0  0  0  0
    8.9867  -13.7333   20.8600 C   0  0  0  0  0  0  0  0  0  0  0  0
    8.0720  -15.0435   22.7931 C   0  0  2  0  0  0  0  0  0  0  0  0
    7.3547  -14.0011   23.4747 N   0  0  0  0  0  0  0  0  0  0  0  0
    9.4341  -15.2941   23.3613 C   0  0  0  0  0  0  0  0  0  0  0  0
    9.9521  -14.3430   23.9833 O   0  0  0  0  0  0  0  0  0  0  0  0
   10.0834  -16.5063   23.2085 N   0  0  0  0  0  0  0  0  0  0  0  0
   11.2149  -16.9310   23.9978 C   0  0  1  0  0  0  0  0  0  0  0  0
   10.8422  -17.8895   25.0773 C   0  0  0  0  0  0  0  0  0  0  0  0
   12.0012  -18.3781   25.9079 C   0  0  0  0  0  0  0  0  0  0  0  0
   11.5538  -19.3619   26.9319 C   0  0  0  0  0  0  0  0  0  0  0  0
   12.6910  -19.8896   27.7819 C   0  0  0  0  0  0  0  0  0  0  0  0
   12.2434  -20.8573   28.7549 N   0  0  0  0  0  0  0  0  0  0  0  0
   12.2281  -17.5338   23.0869 C   0  0  0  0  0  0  0  0  0  0  0  0
   13.5875  -17.5513   23.3319 O   0  0  0  0  0  0  0  0  0  0  0  0
   11.8206  -18.0672   22.0185 O   0  0  0  0  0  0  0  0  0  0  0  0
  2  1  1  6
  2  3  1  0
  4  6  1  0
  4  2  1  0
  4  5  1  1
  6  7  2  0
  9  8  1  1
  9 11  1  0
 10  9  1  0
 11 12  1  1
 12  6  1  0
 13 14  2  0
 13 11  1  0
 15 13  1  0
 16 15  1  0
 16 17  1  1
 17 18  1  0
 19 20  1  0
 19 18  1  0
 21 20  1  0
 22 16  1  0
 23 22  1  0
 24 22  2  0
M  END
$$$$
