VVK.pdb
     RDKit          3D

 24 23  0  0  1  0  0  0  0  0999 V2000
    5.3487  -19.6030   23.0027 C   0  0  0  0  0  0  0  0  0  0  0  0
    6.1586  -18.6657   23.8584 C   0  0  1  0  0  0  0  0  0  0  0  0
    7.2483  -19.3256   24.6372 C   0  0  0  0  0  0  0  0  0  0  0  0
    6.5810  -17.4066   23.1945 C   0  0  2  0  0  0  0  0  0  0  0  0
    7.3378  -17.6541   21.9644 N   0  0  0  0  0  0  0  0  0  0  0  0
    7.3156  -16.4327   23.9931 C   0  0  0  0  0  0  0  0  0  0  0  0
    8.6080  -16.4027   23.9442 O   0  0  0  0  0  0  0  0  0  0  0  0
    7.7988  -12.7127   27.2214 C   0  0  0  0  0  0  0  0  0  0  0  0
    6.8856  -13.4229   26.2707 C   0  0  1  0  0  0  0  0  0  0  0  0
    6.3107  -12.5492   25.2124 C   0  0  0  0  0  0  0  0  0  0  0  0
    7.5996  -14.6365   25.7342 C   0  0  2  0  0  0  0  0  0  0  0  0
    6.7879  -15.4506   24.8715 N   0  0  0  0  0  0  0  0  0  0  0  0
    8.2580  -15.4117   26.8327 C   0  0  0  0  0  0  0  0  0  0  0  0
    7.4981  -16.0853   27.5598 O   0  0  0  0  0  0  0  0  0  0  0  0
    9.6267  -15.3859   27.0331 N   0  0  0  0  0  0  0  0  0  0  0  0
   10.3238  -16.1898   28.0086 C   0  0  1  0  0  0  0  0  0  0  0  0
   11.5478  -16.8387   27.4577 C   0  0  0  0  0  0  0  0  0  0  0  0
   12.2852  -17.7164   28.4364 C   0  0  0  0  0  0  0  0  0  0  0  0
   13.4742  -18.3501   27.8028 C   0  0  0  0  0  0  0  0  0  0  0  0
   14.2745  -19.2017   28.7663 C   0  0  0  0  0  0  0  0  0  0  0  0
   15.2665  -20.0049   28.0923 N   0  0  0  0  0  0  0  0  0  0  0  0
   10.6656  -15.3281   29.1750 C   0  0  0  0  0  0  0  0  0  0  0  0
   10.6572  -13.9469   29.1557 O   0  0  0  0  0  0  0  0  0  0  0  0
   10.9833  -15.8949   30.2567 O   0  0  0  0  0  0  0  0  0  0  0  0
  2  1  1  6
  2  3  1  0
  4  6  1  0
  4  2  1  0
  4  5  1  6
  6  7  2  0
  9  8  1  6
  9 11  1  0
 10  9  1  0
 11 12  1  1
 12  6  1  0
 13 14  2  0
 13 11  1  0
 15 13  1  0
 16 15  1  0
 16 17  1  6
 17 18  1  0
 19 20  1  0
 19 18  1  0
 21 20  1  0
 22 16  1  0
 23 22  1  0
 24 22  2  0
M  END
$$$$
