VVK.pdb
     RDKit          3D

 24 23  0  0  1  0  0  0  0  0999 V2000
    6.8896  -17.9069   23.3737 C   0  0  0  0  0  0  0  0  0  0  0  0
    7.3279  -17.3495   22.0456 C   0  0  1  0  0  0  0  0  0  0  0  0
    6.7449  -18.0459   20.8604 C   0  0  0  0  0  0  0  0  0  0  0  0
    7.2989  -15.8689   21.9389 C   0  0  2  0  0  0  0  0  0  0  0  0
    7.9102  -15.3894   20.6965 N   0  0  0  0  0  0  0  0  0  0  0  0
    7.8528  -15.0986   23.0461 C   0  0  0  0  0  0  0  0  0  0  0  0
    9.1324  -14.9325   23.1389 O   0  0  0  0  0  0  0  0  0  0  0  0
    7.7264  -12.4780   27.2295 C   0  0  0  0  0  0  0  0  0  0  0  0
    6.9655  -12.9226   26.0189 C   0  0  1  0  0  0  0  0  0  0  0  0
    6.4931  -11.8077   25.1542 C   0  0  0  0  0  0  0  0  0  0  0  0
    7.7859  -13.9528   25.2868 C   0  0  2  0  0  0  0  0  0  0  0  0
    7.1502  -14.4639   24.1034 N   0  0  0  0  0  0  0  0  0  0  0  0
    8.2645  -15.0272   26.2129 C   0  0  0  0  0  0  0  0  0  0  0  0
    7.3813  -15.7606   26.7046 O   0  0  0  0  0  0  0  0  0  0  0  0
    9.6050  -15.2004   26.5085 N   0  0  0  0  0  0  0  0  0  0  0  0
   10.1250  -16.2462   27.3568 C   0  0  1  0  0  0  0  0  0  0  0  0
   11.4423  -16.7681   26.8930 C   0  0  0  0  0  0  0  0  0  0  0  0
   12.0358  -17.8389   27.7723 C   0  0  0  0  0  0  0  0  0  0  0  0
   12.3435  -19.0686   26.9914 C   0  0  0  0  0  0  0  0  0  0  0  0
   12.9455  -20.1715   27.8373 C   0  0  0  0  0  0  0  0  0  0  0  0
   13.0957  -21.4046   27.1024 N   0  0  0  0  0  0  0  0  0  0  0  0
   10.2281  -15.7207   28.7471 C   0  0  0  0  0  0  0  0  0  0  0  0
   10.9398  -14.5923   29.1056 O   0  0  0  0  0  0  0  0  0  0  0  0
    9.6241  -16.3451   29.6622 O   0  0  0  0  0  0  0  0  0  0  0  0
  2  1  1  1
  2  3  1  0
  4  6  1  0
  4  2  1  0
  4  5  1  6
  6  7  2  0
  9  8  1  1
  9 11  1  0
 10  9  1  0
 11 12  1  6
 12  6  1  0
 13 14  2  0
 13 11  1  0
 15 13  1  0
 16 15  1  0
 16 17  1  6
 17 18  1  0
 19 20  1  0
 19 18  1  0
 21 20  1  0
 22 16  1  0
 23 22  1  0
 24 22  2  0
M  END
$$$$
