VVK.pdb
     RDKit          3D

 24 23  0  0  1  0  0  0  0  0999 V2000
    6.2623  -18.1591   24.2188 C   0  0  0  0  0  0  0  0  0  0  0  0
    6.8249  -17.9656   22.8358 C   0  0  1  0  0  0  0  0  0  0  0  0
    6.1211  -18.7372   21.7688 C   0  0  0  0  0  0  0  0  0  0  0  0
    7.1131  -16.5584   22.4600 C   0  0  2  0  0  0  0  0  0  0  0  0
    7.8498  -16.4604   21.1972 N   0  0  0  0  0  0  0  0  0  0  0  0
    7.7832  -15.7175   23.4448 C   0  0  0  0  0  0  0  0  0  0  0  0
    9.0665  -15.7932   23.5902 O   0  0  0  0  0  0  0  0  0  0  0  0
    5.8959  -13.1894   26.3562 C   0  0  0  0  0  0  0  0  0  0  0  0
    7.2456  -12.8152   25.8269 C   0  0  1  0  0  0  0  0  0  0  0  0
    8.0672  -12.0100   26.7705 C   0  0  0  0  0  0  0  0  0  0  0  0
    7.9329  -14.0634   25.3368 C   0  0  2  0  0  0  0  0  0  0  0  0
    7.1979  -14.7680   24.3224 N   0  0  0  0  0  0  0  0  0  0  0  0
    8.3545  -14.9371   26.4771 C   0  0  0  0  0  0  0  0  0  0  0  0
    7.4555  -15.6298   26.9983 O   0  0  0  0  0  0  0  0  0  0  0  0
    9.6616  -14.9772   26.9290 N   0  0  0  0  0  0  0  0  0  0  0  0
   10.1380  -15.8553   27.9709 C   0  0  1  0  0  0  0  0  0  0  0  0
   11.2570  -16.7330   27.5233 C   0  0  0  0  0  0  0  0  0  0  0  0
   10.8977  -18.1919   27.4016 C   0  0  0  0  0  0  0  0  0  0  0  0
   11.8418  -18.9062   26.4988 C   0  0  0  0  0  0  0  0  0  0  0  0
   11.5400  -20.3856   26.3780 C   0  0  0  0  0  0  0  0  0  0  0  0
   12.5153  -21.0787   25.5708 N   0  0  0  0  0  0  0  0  0  0  0  0
   10.5552  -15.0252   29.1357 C   0  0  0  0  0  0  0  0  0  0  0  0
   10.4570  -13.6484   29.1894 O   0  0  0  0  0  0  0  0  0  0  0  0
   11.0293  -15.6166   30.1444 O   0  0  0  0  0  0  0  0  0  0  0  0
  2  1  1  1
  2  3  1  0
  4  6  1  0
  4  2  1  0
  4  5  1  6
  6  7  2  0
  9  8  1  1
  9 11  1  0
 10  9  1  0
 11 12  1  6
 12  6  1  0
 13 14  2  0
 13 11  1  0
 15 13  1  0
 16 15  1  0
 16 17  1  6
 17 18  1  0
 19 20  1  0
 19 18  1  0
 21 20  1  0
 22 16  1  0
 23 22  1  0
 24 22  2  0
M  END
$$$$
