VVK.pdb
     RDKit          3D

 24 23  0  0  1  0  0  0  0  0999 V2000
    7.2774  -15.6083   19.4546 C   0  0  0  0  0  0  0  0  0  0  0  0
    7.7942  -14.9223   20.6911 C   0  0  1  0  0  0  0  0  0  0  0  0
    7.3536  -13.5035   20.8406 C   0  0  0  0  0  0  0  0  0  0  0  0
    7.6907  -15.7121   21.9442 C   0  0  2  0  0  0  0  0  0  0  0  0
    6.3317  -16.2081   22.1775 N   0  0  0  0  0  0  0  0  0  0  0  0
    8.1680  -15.0948   23.1758 C   0  0  0  0  0  0  0  0  0  0  0  0
    9.4365  -14.9179   23.3584 O   0  0  0  0  0  0  0  0  0  0  0  0
    7.7825  -12.4418   27.2916 C   0  0  0  0  0  0  0  0  0  0  0  0
    7.0696  -13.0122   26.1048 C   0  0  1  0  0  0  0  0  0  0  0  0
    6.5358  -11.9886   25.1662 C   0  0  0  0  0  0  0  0  0  0  0  0
    7.9669  -14.0289   25.4477 C   0  0  2  0  0  0  0  0  0  0  0  0
    7.3971  -14.6296   24.2729 N   0  0  0  0  0  0  0  0  0  0  0  0
    8.4733  -15.0303   26.4386 C   0  0  0  0  0  0  0  0  0  0  0  0
    7.6346  -15.8510   26.8660 O   0  0  0  0  0  0  0  0  0  0  0  0
    9.7917  -15.0485   26.8579 N   0  0  0  0  0  0  0  0  0  0  0  0
   10.3864  -16.1103   27.6342 C   0  0  1  0  0  0  0  0  0  0  0  0
   11.7396  -16.4995   27.1439 C   0  0  0  0  0  0  0  0  0  0  0  0
   11.7545  -17.7047   26.2388 C   0  0  0  0  0  0  0  0  0  0  0  0
   13.1210  -17.9632   25.7075 C   0  0  0  0  0  0  0  0  0  0  0  0
   13.1634  -19.1064   24.7148 C   0  0  0  0  0  0  0  0  0  0  0  0
   13.3616  -18.6480   23.3606 N   0  0  0  0  0  0  0  0  0  0  0  0
   10.4480  -15.6780   29.0586 C   0  0  0  0  0  0  0  0  0  0  0  0
   10.6795  -16.5265   30.1238 O   0  0  0  0  0  0  0  0  0  0  0  0
   10.2795  -14.4537   29.3134 O   0  0  0  0  0  0  0  0  0  0  0  0
  2  1  1  6
  2  3  1  0
  4  6  1  0
  4  2  1  0
  4  5  1  1
  6  7  2  0
  9  8  1  1
  9 11  1  0
 10  9  1  0
 11 12  1  6
 12  6  1  0
 13 14  2  0
 13 11  1  0
 15 13  1  0
 16 15  1  0
 16 17  1  6
 17 18  1  0
 19 20  1  0
 19 18  1  0
 21 20  1  0
 22 16  1  0
 23 22  1  0
 24 22  2  0
M  END
$$$$
