LNY.pdb
     RDKit          3D

 29 29  0  0  1  0  0  0  0  0999 V2000
    7.5394  -14.1138   15.4192 C   0  0  0  0  0  0  0  0  0  0  0  0
    7.4450  -14.2454   16.9035 C   0  0  2  0  0  0  0  0  0  0  0  0
    7.2076  -12.9217   17.6117 C   0  0  0  0  0  0  0  0  0  0  0  0
    8.7362  -14.9026   17.3936 C   0  0  0  0  0  0  0  0  0  0  0  0
    8.4616  -15.3214   18.8462 C   0  0  2  0  0  0  0  0  0  0  0  0
    7.9934  -14.0991   19.5022 N   0  0  0  0  0  0  0  0  0  0  0  0
    9.7194  -15.7954   19.4854 C   0  0  0  0  0  0  0  0  0  0  0  0
   10.1400  -16.9472   19.1928 O   0  0  0  0  0  0  0  0  0  0  0  0
   14.2937  -15.1820   19.2978 N   0  0  0  0  0  0  0  0  0  0  0  0
   13.2511  -14.3036   19.6917 C   0  0  0  0  0  0  0  0  0  0  0  0
   12.8557  -13.4445   18.8737 O   0  0  0  0  0  0  0  0  0  0  0  0
   12.6631  -14.4121   21.0260 C   0  0  0  0  0  0  0  0  0  0  0  0
   11.5477  -15.4481   21.1356 C   0  0  2  0  0  0  0  0  0  0  0  0
   10.3824  -14.9291   20.3889 N   0  0  0  0  0  0  0  0  0  0  0  0
   11.0758  -15.6924   22.4959 C   0  0  0  0  0  0  0  0  0  0  0  0
    9.9171  -15.2907   22.8744 O   0  0  0  0  0  0  0  0  0  0  0  0
   10.8210  -14.8766   30.9310 O   0  0  0  0  0  0  0  0  0  0  0  0
   10.7952  -14.9101   29.5445 C   0  0  0  0  0  0  0  0  0  0  0  0
   11.3206  -15.9929   28.8758 C   0  0  0  0  0  0  0  0  0  0  0  0
   11.3153  -16.0659   27.4910 C   0  0  0  0  0  0  0  0  0  0  0  0
   10.7836  -15.0578   26.7103 C   0  0  0  0  0  0  0  0  0  0  0  0
   10.7894  -15.1522   25.2300 C   0  0  0  0  0  0  0  0  0  0  0  0
   11.3179  -16.5265   24.8511 C   0  0  2  0  0  0  0  0  0  0  0  0
   11.8399  -16.3790   23.4772 N   0  0  0  0  0  0  0  0  0  0  0  0
   10.3206  -17.5853   24.8793 C   0  0  0  0  0  0  0  0  0  0  0  0
    9.6981  -18.0439   23.7315 O   0  0  0  0  0  0  0  0  0  0  0  0
   10.2547  -13.9669   27.3993 C   0  0  0  0  0  0  0  0  0  0  0  0
   10.2611  -13.8969   28.7752 C   0  0  0  0  0  0  0  0  0  0  0  0
    9.9674  -18.1443   25.9505 O   0  0  0  0  0  0  0  0  0  0  0  0
  2  1  1  6
  2  3  1  0
  4  2  1  0
  5  4  1  0
  5  6  1  1
  7  5  1  0
  8  7  2  0
  9 10  1  0
 10 12  1  0
 10 11  2  0
 13 12  1  1
 13 14  1  0
 14  7  1  0
 15 13  1  0
 15 24  1  0
 16 15  2  0
 17 18  1  0
 18 28  2  0
 19 20  2  0
 19 18  1  0
 20 21  1  0
 21 22  1  0
 21 27  2  0
 23 22  1  6
 23 24  1  0
 23 25  1  0
 25 26  1  0
 28 27  1  0
 29 25  2  0
M  END
$$$$
