LNY.pdb
     RDKit          3D

 29 29  0  0  1  0  0  0  0  0999 V2000
    9.0593  -13.6233   18.2692 C   0  0  0  0  0  0  0  0  0  0  0  0
    7.7298  -13.8317   18.9163 C   0  0  2  0  0  0  0  0  0  0  0  0
    7.0357  -12.5346   19.2980 C   0  0  0  0  0  0  0  0  0  0  0  0
    7.9460  -14.7171   20.1446 C   0  0  0  0  0  0  0  0  0  0  0  0
    8.6536  -15.9784   19.6258 C   0  0  2  0  0  0  0  0  0  0  0  0
    7.5992  -16.7497   18.9646 N   0  0  0  0  0  0  0  0  0  0  0  0
    9.2148  -16.7525   20.7665 C   0  0  0  0  0  0  0  0  0  0  0  0
    8.4430  -17.5175   21.4056 O   0  0  0  0  0  0  0  0  0  0  0  0
   13.3476  -18.3421   19.7931 N   0  0  0  0  0  0  0  0  0  0  0  0
   12.8774  -18.6236   21.1021 C   0  0  0  0  0  0  0  0  0  0  0  0
   12.7041  -19.8181   21.4283 O   0  0  0  0  0  0  0  0  0  0  0  0
   12.6058  -17.5320   22.0363 C   0  0  0  0  0  0  0  0  0  0  0  0
   11.1216  -17.2699   22.2775 C   0  0  2  0  0  0  0  0  0  0  0  0
   10.5876  -16.5932   21.0767 N   0  0  0  0  0  0  0  0  0  0  0  0
   10.8354  -16.3802   23.3996 C   0  0  0  0  0  0  0  0  0  0  0  0
   11.1899  -15.1469   23.3708 O   0  0  0  0  0  0  0  0  0  0  0  0
    5.9922  -10.9984   27.6437 O   0  0  0  0  0  0  0  0  0  0  0  0
    6.6059  -11.9787   26.8778 C   0  0  0  0  0  0  0  0  0  0  0  0
    7.9476  -11.8791   26.5852 C   0  0  0  0  0  0  0  0  0  0  0  0
    8.5994  -12.8367   25.8226 C   0  0  0  0  0  0  0  0  0  0  0  0
    7.9382  -13.9392   25.3169 C   0  0  0  0  0  0  0  0  0  0  0  0
    8.6515  -14.9517   24.5007 C   0  0  0  0  0  0  0  0  0  0  0  0
    9.4927  -15.8013   25.4400 C   0  0  2  0  0  0  0  0  0  0  0  0
   10.1569  -16.7981   24.5756 N   0  0  0  0  0  0  0  0  0  0  0  0
    8.7348  -16.4866   26.4756 C   0  0  0  0  0  0  0  0  0  0  0  0
    8.0176  -17.6428   26.2227 O   0  0  0  0  0  0  0  0  0  0  0  0
    6.5801  -14.0285   25.6202 C   0  0  0  0  0  0  0  0  0  0  0  0
    5.9349  -13.0759   26.3781 C   0  0  0  0  0  0  0  0  0  0  0  0
    8.6886  -16.0657   27.6611 O   0  0  0  0  0  0  0  0  0  0  0  0
  2  1  1  1
  2  3  1  0
  4  2  1  0
  5  4  1  0
  5  6  1  1
  7  5  1  0
  8  7  2  0
  9 10  1  0
 10 12  1  0
 10 11  2  0
 13 12  1  6
 13 14  1  0
 14  7  1  0
 15 13  1  0
 15 24  1  0
 16 15  2  0
 17 18  1  0
 18 28  2  0
 19 20  2  0
 19 18  1  0
 20 21  1  0
 21 22  1  0
 21 27  2  0
 23 22  1  6
 23 24  1  0
 23 25  1  0
 25 26  1  0
 28 27  1  0
 29 25  2  0
M  END
$$$$
