LNY.pdb
     RDKit          3D

 29 29  0  0  1  0  0  0  0  0999 V2000
    8.6801  -12.1829   19.8383 C   0  0  0  0  0  0  0  0  0  0  0  0
    8.0826  -13.3390   19.1063 C   0  0  2  0  0  0  0  0  0  0  0  0
    7.0566  -12.9266   18.0636 C   0  0  0  0  0  0  0  0  0  0  0  0
    7.4600  -14.2733   20.1450 C   0  0  0  0  0  0  0  0  0  0  0  0
    8.5516  -14.5030   21.2016 C   0  0  2  0  0  0  0  0  0  0  0  0
    9.7223  -14.9373   20.4370 N   0  0  0  0  0  0  0  0  0  0  0  0
    8.1299  -15.5750   22.1441 C   0  0  0  0  0  0  0  0  0  0  0  0
    6.9178  -15.6250   22.4869 O   0  0  0  0  0  0  0  0  0  0  0  0
   11.3924  -20.0100   22.7983 N   0  0  0  0  0  0  0  0  0  0  0  0
   10.6589  -18.9252   22.2517 C   0  0  0  0  0  0  0  0  0  0  0  0
   11.2891  -18.0066   21.6839 O   0  0  0  0  0  0  0  0  0  0  0  0
    9.2009  -18.8958   22.3578 C   0  0  0  0  0  0  0  0  0  0  0  0
    8.6592  -17.7560   23.2163 C   0  0  2  0  0  0  0  0  0  0  0  0
    9.1099  -16.4866   22.6077 N   0  0  0  0  0  0  0  0  0  0  0  0
    9.1550  -17.7403   24.5898 C   0  0  0  0  0  0  0  0  0  0  0  0
    8.9861  -18.7501   25.3639 O   0  0  0  0  0  0  0  0  0  0  0  0
    6.3250  -10.8727   26.0339 O   0  0  0  0  0  0  0  0  0  0  0  0
    6.7969  -12.1639   26.2190 C   0  0  0  0  0  0  0  0  0  0  0  0
    5.9653  -13.2366   25.9883 C   0  0  0  0  0  0  0  0  0  0  0  0
    6.3970  -14.5430   26.1616 C   0  0  0  0  0  0  0  0  0  0  0  0
    7.6823  -14.8369   26.5744 C   0  0  0  0  0  0  0  0  0  0  0  0
    8.1253  -16.2405   26.7572 C   0  0  0  0  0  0  0  0  0  0  0  0
    9.6344  -16.2820   26.5761 C   0  0  2  0  0  0  0  0  0  0  0  0
    9.8479  -16.6382   25.1585 N   0  0  0  0  0  0  0  0  0  0  0  0
   10.3178  -17.2450   27.4257 C   0  0  0  0  0  0  0  0  0  0  0  0
   10.8590  -18.4167   26.9264 O   0  0  0  0  0  0  0  0  0  0  0  0
    8.5146  -13.7421   26.8046 C   0  0  0  0  0  0  0  0  0  0  0  0
    8.0833  -12.4451   26.6316 C   0  0  0  0  0  0  0  0  0  0  0  0
   10.4553  -17.0664   28.6642 O   0  0  0  0  0  0  0  0  0  0  0  0
  2  1  1  1
  2  3  1  0
  4  2  1  0
  5  4  1  0
  5  6  1  6
  7  5  1  0
  8  7  2  0
  9 10  1  0
 10 12  1  0
 10 11  2  0
 13 12  1  6
 13 14  1  0
 14  7  1  0
 15 13  1  0
 15 24  1  0
 16 15  2  0
 17 18  1  0
 18 28  2  0
 19 20  2  0
 19 18  1  0
 20 21  1  0
 21 22  1  0
 21 27  2  0
 23 22  1  1
 23 24  1  0
 23 25  1  0
 25 26  1  0
 28 27  1  0
 29 25  2  0
M  END
$$$$
