LNY.pdb
     RDKit          3D

 29 29  0  0  1  0  0  0  0  0999 V2000
    6.7587  -13.0141   19.8278 C   0  0  0  0  0  0  0  0  0  0  0  0
    7.2608  -13.6200   21.0968 C   0  0  2  0  0  0  0  0  0  0  0  0
    7.9575  -12.6215   22.0067 C   0  0  0  0  0  0  0  0  0  0  0  0
    8.2016  -14.7663   20.7225 C   0  0  0  0  0  0  0  0  0  0  0  0
    7.7485  -15.9662   21.5686 C   0  0  2  0  0  0  0  0  0  0  0  0
    7.5368  -15.4160   22.9088 N   0  0  0  0  0  0  0  0  0  0  0  0
    8.8204  -16.9982   21.6029 C   0  0  0  0  0  0  0  0  0  0  0  0
    9.2913  -17.4059   20.5068 O   0  0  0  0  0  0  0  0  0  0  0  0
   12.0913  -16.2186   20.2964 N   0  0  0  0  0  0  0  0  0  0  0  0
   12.2265  -16.0644   21.7006 C   0  0  0  0  0  0  0  0  0  0  0  0
   13.3736  -16.1069   22.1964 O   0  0  0  0  0  0  0  0  0  0  0  0
   11.0432  -15.8618   22.5353 C   0  0  0  0  0  0  0  0  0  0  0  0
   10.6144  -17.0969   23.3229 C   0  0  2  0  0  0  0  0  0  0  0  0
    9.2596  -17.4699   22.8642 N   0  0  0  0  0  0  0  0  0  0  0  0
   10.5071  -16.8920   24.7648 C   0  0  0  0  0  0  0  0  0  0  0  0
   11.4896  -16.4137   25.4382 O   0  0  0  0  0  0  0  0  0  0  0  0
    7.3486  -11.2428   25.2269 O   0  0  0  0  0  0  0  0  0  0  0  0
    7.4575  -12.5385   25.7102 C   0  0  0  0  0  0  0  0  0  0  0  0
    8.3986  -12.8343   26.6705 C   0  0  0  0  0  0  0  0  0  0  0  0
    8.5409  -14.1162   27.1801 C   0  0  0  0  0  0  0  0  0  0  0  0
    7.7471  -15.1627   26.7517 C   0  0  0  0  0  0  0  0  0  0  0  0
    7.9157  -16.5280   27.3062 C   0  0  0  0  0  0  0  0  0  0  0  0
    9.3242  -16.9961   26.9764 C   0  0  2  0  0  0  0  0  0  0  0  0
    9.3374  -17.1934   25.5126 N   0  0  0  0  0  0  0  0  0  0  0  0
    9.7192  -18.2315   27.6353 C   0  0  0  0  0  0  0  0  0  0  0  0
   10.0193  -18.2851   28.9851 O   0  0  0  0  0  0  0  0  0  0  0  0
    6.7980  -14.8503   25.7791 C   0  0  0  0  0  0  0  0  0  0  0  0
    6.6587  -13.5758   25.2746 C   0  0  0  0  0  0  0  0  0  0  0  0
    9.8104  -19.3224   27.0137 O   0  0  0  0  0  0  0  0  0  0  0  0
  2  1  1  6
  2  3  1  0
  4  2  1  0
  5  4  1  0
  5  6  1  1
  7  5  1  0
  8  7  2  0
  9 10  1  0
 10 12  1  0
 10 11  2  0
 13 12  1  6
 13 14  1  0
 14  7  1  0
 15 13  1  0
 15 24  1  0
 16 15  2  0
 17 18  1  0
 18 28  2  0
 19 20  2  0
 19 18  1  0
 20 21  1  0
 21 22  1  0
 21 27  2  0
 23 22  1  1
 23 24  1  0
 23 25  1  0
 25 26  1  0
 28 27  1  0
 29 25  2  0
M  END
$$$$
