LNY.pdb
     RDKit          3D

 29 29  0  0  1  0  0  0  0  0999 V2000
    9.6116  -13.6994   19.5419 C   0  0  0  0  0  0  0  0  0  0  0  0
    8.1485  -13.6386   19.2498 C   0  0  2  0  0  0  0  0  0  0  0  0
    7.4649  -12.4203   19.8486 C   0  0  0  0  0  0  0  0  0  0  0  0
    7.5177  -14.9303   19.7722 C   0  0  0  0  0  0  0  0  0  0  0  0
    8.4989  -16.0513   19.3960 C   0  0  2  0  0  0  0  0  0  0  0  0
    7.6671  -17.0734   18.7579 N   0  0  0  0  0  0  0  0  0  0  0  0
    9.1358  -16.6028   20.6229 C   0  0  0  0  0  0  0  0  0  0  0  0
    8.4067  -17.2124   21.4512 O   0  0  0  0  0  0  0  0  0  0  0  0
   13.4132  -19.4046   21.3789 N   0  0  0  0  0  0  0  0  0  0  0  0
   13.0747  -18.1321   20.8500 C   0  0  0  0  0  0  0  0  0  0  0  0
   13.1326  -17.9676   19.6119 O   0  0  0  0  0  0  0  0  0  0  0  0
   12.6700  -17.0482   21.7441 C   0  0  0  0  0  0  0  0  0  0  0  0
   11.1679  -16.9818   22.0064 C   0  0  2  0  0  0  0  0  0  0  0  0
   10.5290  -16.4175   20.7987 N   0  0  0  0  0  0  0  0  0  0  0  0
   10.7811  -16.1073   23.1102 C   0  0  0  0  0  0  0  0  0  0  0  0
   10.9298  -14.8351   23.0273 O   0  0  0  0  0  0  0  0  0  0  0  0
    5.8439  -11.3575   28.0434 O   0  0  0  0  0  0  0  0  0  0  0  0
    6.4602  -12.2412   27.1697 C   0  0  0  0  0  0  0  0  0  0  0  0
    7.8225  -12.1793   26.9807 C   0  0  0  0  0  0  0  0  0  0  0  0
    8.4777  -13.0435   26.1164 C   0  0  0  0  0  0  0  0  0  0  0  0
    7.7992  -14.0107   25.4003 C   0  0  0  0  0  0  0  0  0  0  0  0
    8.5167  -14.9245   24.4782 C   0  0  0  0  0  0  0  0  0  0  0  0
    9.5985  -15.6373   25.2740 C   0  0  2  0  0  0  0  0  0  0  0  0
   10.2213  -16.5835   24.3259 N   0  0  0  0  0  0  0  0  0  0  0  0
    9.1121  -16.3654   26.4357 C   0  0  0  0  0  0  0  0  0  0  0  0
    8.7630  -17.7031   26.3757 O   0  0  0  0  0  0  0  0  0  0  0  0
    6.4202  -14.0633   25.6004 C   0  0  0  0  0  0  0  0  0  0  0  0
    5.7718  -13.2035   26.4597 C   0  0  0  0  0  0  0  0  0  0  0  0
    8.9813  -15.8187   27.5621 O   0  0  0  0  0  0  0  0  0  0  0  0
  2  1  1  1
  2  3  1  0
  4  2  1  0
  5  4  1  0
  5  6  1  1
  7  5  1  0
  8  7  2  0
  9 10  1  0
 10 12  1  0
 10 11  2  0
 13 12  1  6
 13 14  1  0
 14  7  1  0
 15 13  1  0
 15 24  1  0
 16 15  2  0
 17 18  1  0
 18 28  2  0
 19 20  2  0
 19 18  1  0
 20 21  1  0
 21 22  1  0
 21 27  2  0
 23 22  1  6
 23 24  1  0
 23 25  1  0
 25 26  1  0
 28 27  1  0
 29 25  2  0
M  END
$$$$
