LNY.pdb
     RDKit          3D

 29 29  0  0  1  0  0  0  0  0999 V2000
    9.1040  -12.6609   19.3178 C   0  0  0  0  0  0  0  0  0  0  0  0
    7.8703  -13.4879   19.1646 C   0  0  2  0  0  0  0  0  0  0  0  0
    6.6238  -12.6643   18.8852 C   0  0  0  0  0  0  0  0  0  0  0  0
    7.7043  -14.3134   20.4414 C   0  0  0  0  0  0  0  0  0  0  0  0
    9.1129  -14.8145   20.7960 C   0  0  2  0  0  0  0  0  0  0  0  0
    9.5593  -15.5392   19.6046 N   0  0  0  0  0  0  0  0  0  0  0  0
    9.0459  -15.7381   21.9612 C   0  0  0  0  0  0  0  0  0  0  0  0
    8.2365  -15.4696   22.8896 O   0  0  0  0  0  0  0  0  0  0  0  0
    8.8053  -20.3217   21.3139 N   0  0  0  0  0  0  0  0  0  0  0  0
   10.0402  -19.6292   21.4103 C   0  0  0  0  0  0  0  0  0  0  0  0
   10.7227  -19.4822   20.3731 O   0  0  0  0  0  0  0  0  0  0  0  0
   10.4910  -19.1059   22.6991 C   0  0  0  0  0  0  0  0  0  0  0  0
    9.8150  -17.8025   23.1160 C   0  0  2  0  0  0  0  0  0  0  0  0
    9.8930  -16.8733   21.9690 N   0  0  0  0  0  0  0  0  0  0  0  0
   10.4563  -17.1149   24.2333 C   0  0  0  0  0  0  0  0  0  0  0  0
   11.5898  -16.5310   24.0857 O   0  0  0  0  0  0  0  0  0  0  0  0
    5.5044  -12.3784   26.0525 O   0  0  0  0  0  0  0  0  0  0  0  0
    6.7676  -12.9514   26.0585 C   0  0  0  0  0  0  0  0  0  0  0  0
    7.1083  -13.8681   25.0894 C   0  0  0  0  0  0  0  0  0  0  0  0
    8.3600  -14.4646   25.0594 C   0  0  0  0  0  0  0  0  0  0  0  0
    9.3295  -14.1712   25.9988 C   0  0  0  0  0  0  0  0  0  0  0  0
   10.6618  -14.8215   25.9523 C   0  0  0  0  0  0  0  0  0  0  0  0
   10.5293  -16.2039   26.5713 C   0  0  2  0  0  0  0  0  0  0  0  0
    9.8886  -17.0368   25.5332 N   0  0  0  0  0  0  0  0  0  0  0  0
    9.7317  -16.2467   27.7872 C   0  0  0  0  0  0  0  0  0  0  0  0
    8.5573  -16.9735   27.8745 O   0  0  0  0  0  0  0  0  0  0  0  0
    8.9723  -13.2415   26.9747 C   0  0  0  0  0  0  0  0  0  0  0  0
    7.7282  -12.6502   27.0022 C   0  0  0  0  0  0  0  0  0  0  0  0
   10.0654  -15.6242   28.8292 O   0  0  0  0  0  0  0  0  0  0  0  0
  2  1  1  1
  2  3  1  0
  4  2  1  0
  5  4  1  0
  5  6  1  6
  7  5  1  0
  8  7  2  0
  9 10  1  0
 10 12  1  0
 10 11  2  0
 13 12  1  6
 13 14  1  0
 14  7  1  0
 15 13  1  0
 15 24  1  0
 16 15  2  0
 17 18  1  0
 18 28  2  0
 19 20  2  0
 19 18  1  0
 20 21  1  0
 21 22  1  0
 21 27  2  0
 23 22  1  6
 23 24  1  0
 23 25  1  0
 25 26  1  0
 28 27  1  0
 29 25  2  0
M  END
$$$$
