LNY.pdb
     RDKit          3D

 29 29  0  0  1  0  0  0  0  0999 V2000
    6.4798  -12.9564   26.4572 C   0  0  0  0  0  0  0  0  0  0  0  0
    6.7331  -13.1800   25.0027 C   0  0  2  0  0  0  0  0  0  0  0  0
    6.3390  -11.9969   24.1337 C   0  0  0  0  0  0  0  0  0  0  0  0
    5.9711  -14.4397   24.5880 C   0  0  0  0  0  0  0  0  0  0  0  0
    6.0946  -14.5128   23.0582 C   0  0  2  0  0  0  0  0  0  0  0  0
    5.4870  -15.7954   22.6982 N   0  0  0  0  0  0  0  0  0  0  0  0
    7.5293  -14.4975   22.6624 C   0  0  0  0  0  0  0  0  0  0  0  0
    8.2140  -13.4762   22.9406 O   0  0  0  0  0  0  0  0  0  0  0  0
    8.2329  -13.0377   19.1444 N   0  0  0  0  0  0  0  0  0  0  0  0
    8.8119  -14.2727   19.5360 C   0  0  0  0  0  0  0  0  0  0  0  0
    8.5731  -15.2875   18.8457 O   0  0  0  0  0  0  0  0  0  0  0  0
    9.6650  -14.3417   20.7215 C   0  0  0  0  0  0  0  0  0  0  0  0
    9.4678  -15.6007   21.5616 C   0  0  2  0  0  0  0  0  0  0  0  0
    8.0548  -15.6307   21.9947 N   0  0  0  0  0  0  0  0  0  0  0  0
   10.2632  -15.6461   22.7855 C   0  0  0  0  0  0  0  0  0  0  0  0
   11.5446  -15.5858   22.7423 O   0  0  0  0  0  0  0  0  0  0  0  0
   12.1640  -16.6755   31.3568 O   0  0  0  0  0  0  0  0  0  0  0  0
   11.5621  -16.3598   30.1476 C   0  0  0  0  0  0  0  0  0  0  0  0
   11.5251  -15.0509   29.7222 C   0  0  0  0  0  0  0  0  0  0  0  0
   10.9329  -14.6924   28.5206 C   0  0  0  0  0  0  0  0  0  0  0  0
   10.3495  -15.6280   27.6881 C   0  0  0  0  0  0  0  0  0  0  0  0
    9.7182  -15.2253   26.4077 C   0  0  0  0  0  0  0  0  0  0  0  0
   10.5702  -15.7728   25.2737 C   0  0  2  0  0  0  0  0  0  0  0  0
    9.6957  -15.7529   24.0834 N   0  0  0  0  0  0  0  0  0  0  0  0
   11.0649  -17.1239   25.4887 C   0  0  0  0  0  0  0  0  0  0  0  0
   12.2601  -17.3779   26.1384 O   0  0  0  0  0  0  0  0  0  0  0  0
   10.3936  -16.9498   28.1300 C   0  0  0  0  0  0  0  0  0  0  0  0
   10.9826  -17.3033   29.3243 C   0  0  0  0  0  0  0  0  0  0  0  0
   10.4329  -18.1390   25.0951 O   0  0  0  0  0  0  0  0  0  0  0  0
  2  1  1  1
  2  3  1  0
  4  2  1  0
  5  4  1  0
  5  6  1  1
  7  5  1  0
  8  7  2  0
  9 10  1  0
 10 12  1  0
 10 11  2  0
 13 12  1  1
 13 14  1  0
 14  7  1  0
 15 13  1  0
 15 24  1  0
 16 15  2  0
 17 18  1  0
 18 28  2  0
 19 20  2  0
 19 18  1  0
 20 21  1  0
 21 22  1  0
 21 27  2  0
 23 22  1  1
 23 24  1  0
 23 25  1  0
 25 26  1  0
 28 27  1  0
 29 25  2  0
M  END
$$$$
