LNY.pdb
     RDKit          3D

 29 29  0  0  1  0  0  0  0  0999 V2000
    8.6598  -12.1401   18.9942 C   0  0  0  0  0  0  0  0  0  0  0  0
    7.6069  -13.0365   18.4307 C   0  0  2  0  0  0  0  0  0  0  0  0
    6.2478  -12.3672   18.3092 C   0  0  0  0  0  0  0  0  0  0  0  0
    7.5272  -14.2759   19.3232 C   0  0  0  0  0  0  0  0  0  0  0  0
    8.9464  -14.4797   19.8757 C   0  0  2  0  0  0  0  0  0  0  0  0
    9.7469  -14.8595   18.7101 N   0  0  0  0  0  0  0  0  0  0  0  0
    8.9489  -15.5797   20.8783 C   0  0  0  0  0  0  0  0  0  0  0  0
    8.1380  -15.5113   21.8411 O   0  0  0  0  0  0  0  0  0  0  0  0
    8.9517  -18.7295   19.1831 N   0  0  0  0  0  0  0  0  0  0  0  0
   10.0609  -19.3919   19.7699 C   0  0  0  0  0  0  0  0  0  0  0  0
   10.5569  -20.3694   19.1684 O   0  0  0  0  0  0  0  0  0  0  0  0
   10.6001  -18.9312   21.0487 C   0  0  0  0  0  0  0  0  0  0  0  0
    9.8321  -17.7667   21.6681 C   0  0  2  0  0  0  0  0  0  0  0  0
    9.8603  -16.6493   20.7007 N   0  0  0  0  0  0  0  0  0  0  0  0
   10.4119  -17.2434   22.9020 C   0  0  0  0  0  0  0  0  0  0  0  0
   11.5376  -16.6269   22.8926 O   0  0  0  0  0  0  0  0  0  0  0  0
   11.4026  -14.6361   31.2486 O   0  0  0  0  0  0  0  0  0  0  0  0
   10.9047  -14.9520   29.9929 C   0  0  0  0  0  0  0  0  0  0  0  0
   10.4823  -16.2351   29.7268 C   0  0  0  0  0  0  0  0  0  0  0  0
    9.9786  -16.5929   28.4851 C   0  0  0  0  0  0  0  0  0  0  0  0
    9.8744  -15.6825   27.4513 C   0  0  0  0  0  0  0  0  0  0  0  0
    9.3358  -16.0843   26.1290 C   0  0  0  0  0  0  0  0  0  0  0  0
   10.4405  -16.8060   25.3738 C   0  0  2  0  0  0  0  0  0  0  0  0
    9.7895  -17.3684   24.1729 N   0  0  0  0  0  0  0  0  0  0  0  0
   11.0837  -17.8753   26.1217 C   0  0  0  0  0  0  0  0  0  0  0  0
   12.2596  -17.6806   26.8247 O   0  0  0  0  0  0  0  0  0  0  0  0
   10.3054  -14.3867   27.7335 C   0  0  0  0  0  0  0  0  0  0  0  0
   10.8053  -14.0338   28.9679 C   0  0  0  0  0  0  0  0  0  0  0  0
   10.6062  -19.0390   26.1712 O   0  0  0  0  0  0  0  0  0  0  0  0
  2  1  1  1
  2  3  1  0
  4  2  1  0
  5  4  1  0
  5  6  1  6
  7  5  1  0
  8  7  2  0
  9 10  1  0
 10 12  1  0
 10 11  2  0
 13 12  1  6
 13 14  1  0
 14  7  1  0
 15 13  1  0
 15 24  1  0
 16 15  2  0
 17 18  1  0
 18 28  2  0
 19 20  2  0
 19 18  1  0
 20 21  1  0
 21 22  1  0
 21 27  2  0
 23 22  1  1
 23 24  1  0
 23 25  1  0
 25 26  1  0
 28 27  1  0
 29 25  2  0
M  END
$$$$
