LNY.pdb
     RDKit          3D

 29 29  0  0  1  0  0  0  0  0999 V2000
    9.0953  -13.1687   19.9479 C   0  0  0  0  0  0  0  0  0  0  0  0
    7.7763  -13.4012   20.6079 C   0  0  2  0  0  0  0  0  0  0  0  0
    7.0826  -12.1184   21.0362 C   0  0  0  0  0  0  0  0  0  0  0  0
    8.0138  -14.3200   21.8073 C   0  0  0  0  0  0  0  0  0  0  0  0
    8.5997  -15.6159   21.2258 C   0  0  2  0  0  0  0  0  0  0  0  0
    7.6368  -16.0327   20.2046 N   0  0  0  0  0  0  0  0  0  0  0  0
    8.6976  -16.6522   22.2897 C   0  0  0  0  0  0  0  0  0  0  0  0
    8.0615  -17.7294   22.1336 O   0  0  0  0  0  0  0  0  0  0  0  0
   12.2301  -19.7854   23.6698 N   0  0  0  0  0  0  0  0  0  0  0  0
   12.4889  -18.6052   22.9257 C   0  0  0  0  0  0  0  0  0  0  0  0
   13.6532  -18.4023   22.5173 O   0  0  0  0  0  0  0  0  0  0  0  0
   11.4097  -17.6577   22.6510 C   0  0  0  0  0  0  0  0  0  0  0  0
   10.4952  -17.3887   23.8431 C   0  0  2  0  0  0  0  0  0  0  0  0
    9.5013  -16.3782   23.4233 N   0  0  0  0  0  0  0  0  0  0  0  0
   11.1680  -16.8280   25.0116 C   0  0  0  0  0  0  0  0  0  0  0  0
   12.2009  -17.3993   25.5157 O   0  0  0  0  0  0  0  0  0  0  0  0
    6.2347  -10.9546   25.9059 O   0  0  0  0  0  0  0  0  0  0  0  0
    6.8971  -12.1368   26.2023 C   0  0  0  0  0  0  0  0  0  0  0  0
    6.3237  -13.3442   25.8726 C   0  0  0  0  0  0  0  0  0  0  0  0
    6.9518  -14.5488   26.1515 C   0  0  0  0  0  0  0  0  0  0  0  0
    8.1840  -14.6009   26.7740 C   0  0  0  0  0  0  0  0  0  0  0  0
    8.8393  -15.8989   27.0668 C   0  0  0  0  0  0  0  0  0  0  0  0
   10.3425  -15.6713   27.0810 C   0  0  2  0  0  0  0  0  0  0  0  0
   10.7457  -15.6367   25.6603 N   0  0  0  0  0  0  0  0  0  0  0  0
   11.1020  -16.6998   27.7751 C   0  0  0  0  0  0  0  0  0  0  0  0
   11.7754  -17.7025   27.0998 O   0  0  0  0  0  0  0  0  0  0  0  0
    8.7542  -13.3715   27.1026 C   0  0  0  0  0  0  0  0  0  0  0  0
    8.1281  -12.1763   26.8244 C   0  0  0  0  0  0  0  0  0  0  0  0
   11.1891  -16.7354   29.0305 O   0  0  0  0  0  0  0  0  0  0  0  0
  2  1  1  1
  2  3  1  0
  4  2  1  0
  5  4  1  0
  5  6  1  6
  7  5  1  0
  8  7  2  0
  9 10  1  0
 10 12  1  0
 10 11  2  0
 13 12  1  6
 13 14  1  0
 14  7  1  0
 15 13  1  0
 15 24  1  0
 16 15  2  0
 17 18  1  0
 18 28  2  0
 19 20  2  0
 19 18  1  0
 20 21  1  0
 21 22  1  0
 21 27  2  0
 23 22  1  6
 23 24  1  0
 23 25  1  0
 25 26  1  0
 28 27  1  0
 29 25  2  0
M  END
$$$$
