LNY.pdb
     RDKit          3D

 29 29  0  0  1  0  0  0  0  0999 V2000
    8.8979  -12.9638   20.0466 C   0  0  0  0  0  0  0  0  0  0  0  0
    7.6353  -13.2206   20.8012 C   0  0  2  0  0  0  0  0  0  0  0  0
    6.9700  -11.9529   21.3114 C   0  0  0  0  0  0  0  0  0  0  0  0
    7.9701  -14.1646   21.9571 C   0  0  0  0  0  0  0  0  0  0  0  0
    8.5942  -15.4091   21.3071 C   0  0  2  0  0  0  0  0  0  0  0  0
    7.4921  -16.0380   20.5766 N   0  0  0  0  0  0  0  0  0  0  0  0
    9.1028  -16.3314   22.3588 C   0  0  0  0  0  0  0  0  0  0  0  0
    8.2800  -17.0973   22.9295 O   0  0  0  0  0  0  0  0  0  0  0  0
   11.5780  -19.0107   21.5409 N   0  0  0  0  0  0  0  0  0  0  0  0
   12.6792  -18.3643   22.1600 C   0  0  0  0  0  0  0  0  0  0  0  0
   13.8189  -18.5348   21.6749 O   0  0  0  0  0  0  0  0  0  0  0  0
   12.4707  -17.5222   23.3371 C   0  0  0  0  0  0  0  0  0  0  0  0
   11.0036  -17.2604   23.6667 C   0  0  2  0  0  0  0  0  0  0  0  0
   10.4855  -16.3045   22.6653 N   0  0  0  0  0  0  0  0  0  0  0  0
   10.7740  -16.6404   24.9689 C   0  0  0  0  0  0  0  0  0  0  0  0
   11.2884  -15.5003   25.2568 O   0  0  0  0  0  0  0  0  0  0  0  0
    6.9136  -11.5556   25.3590 O   0  0  0  0  0  0  0  0  0  0  0  0
    7.2863  -12.7675   25.9217 C   0  0  0  0  0  0  0  0  0  0  0  0
    8.3562  -12.8207   26.7866 C   0  0  0  0  0  0  0  0  0  0  0  0
    8.7619  -14.0114   27.3704 C   0  0  0  0  0  0  0  0  0  0  0  0
    8.1152  -15.2053   27.1155 C   0  0  0  0  0  0  0  0  0  0  0  0
    8.5652  -16.4696   27.7470 C   0  0  0  0  0  0  0  0  0  0  0  0
   10.0192  -16.6928   27.3625 C   0  0  2  0  0  0  0  0  0  0  0  0
    9.9812  -17.2328   25.9881 N   0  0  0  0  0  0  0  0  0  0  0  0
   10.7368  -17.6174   28.2265 C   0  0  0  0  0  0  0  0  0  0  0  0
   11.0217  -17.3227   29.5482 O   0  0  0  0  0  0  0  0  0  0  0  0
    7.0334  -15.1381   26.2382 C   0  0  0  0  0  0  0  0  0  0  0  0
    6.6323  -13.9539   25.6596 C   0  0  0  0  0  0  0  0  0  0  0  0
   11.1394  -18.7386   27.8198 O   0  0  0  0  0  0  0  0  0  0  0  0
  2  1  1  1
  2  3  1  0
  4  2  1  0
  5  4  1  0
  5  6  1  1
  7  5  1  0
  8  7  2  0
  9 10  1  0
 10 12  1  0
 10 11  2  0
 13 12  1  6
 13 14  1  0
 14  7  1  0
 15 13  1  0
 15 24  1  0
 16 15  2  0
 17 18  1  0
 18 28  2  0
 19 20  2  0
 19 18  1  0
 20 21  1  0
 21 22  1  0
 21 27  2  0
 23 22  1  1
 23 24  1  0
 23 25  1  0
 25 26  1  0
 28 27  1  0
 29 25  2  0
M  END
$$$$
