YEI.pdb
     RDKit          3D

 30 30  0  0  1  0  0  0  0  0999 V2000
   18.5132  -18.3191  -14.6912 O   0  0  0  0  0  0  0  0  0  0  0  0
   19.4144  -18.8878  -13.7958 C   0  0  0  0  0  0  0  0  0  0  0  0
   19.2283  -20.1685  -13.2923 C   0  0  0  0  0  0  0  0  0  0  0  0
   20.1209  -20.7295  -12.4067 C   0  0  0  0  0  0  0  0  0  0  0  0
   21.2157  -20.0200  -12.0086 C   0  0  0  0  0  0  0  0  0  0  0  0
   22.2415  -20.5252  -11.0599 C   0  0  0  0  0  0  0  0  0  0  0  0
   23.5659  -20.6583  -11.7952 C   0  0  2  0  0  0  0  0  0  0  0  0
   23.3851  -21.6131  -12.8553 N   0  0  0  0  0  0  0  0  0  0  0  0
   24.6401  -21.1303  -10.8831 C   0  0  0  0  0  0  0  0  0  0  0  0
   24.5594  -22.2703  -10.3418 O   0  0  0  0  0  0  0  0  0  0  0  0
   21.3945  -18.7395  -12.5169 C   0  0  0  0  0  0  0  0  0  0  0  0
   20.5097  -18.1793  -13.3968 C   0  0  0  0  0  0  0  0  0  0  0  0
   25.7849  -20.3524  -10.5756 N   0  0  0  0  0  0  0  0  0  0  0  0
   26.8706  -20.8105   -9.7325 C   0  0  1  0  0  0  0  0  0  0  0  0
   28.0516  -21.2553  -10.5236 C   0  0  0  0  0  0  0  0  0  0  0  0
   27.8406  -21.6290  -11.9359 C   0  0  0  0  0  0  0  0  0  0  0  0
   28.4565  -20.8798  -12.9946 C   0  0  0  0  0  0  0  0  0  0  0  0
   29.5981  -20.4147  -12.9983 O   0  0  0  0  0  0  0  0  0  0  0  0
   27.1444  -19.9682   -8.5649 C   0  0  0  0  0  0  0  0  0  0  0  0
   26.5738  -18.8496   -8.3493 O   0  0  0  0  0  0  0  0  0  0  0  0
   27.6946  -20.6401  -14.1592 O   0  0  0  0  0  0  0  0  0  0  0  0
   27.9348  -17.4577   -4.2427 C   0  0  0  0  0  0  0  0  0  0  0  0
   27.3337  -18.8103   -4.1822 C   0  0  0  0  0  0  0  0  0  0  0  0
   27.1995  -19.5525   -5.4514 C   0  0  2  0  0  0  0  0  0  0  0  0
   26.6957  -20.9833   -5.1948 C   0  0  0  0  0  0  0  0  0  0  0  0
   28.3779  -19.5806   -6.3800 C   0  0  2  0  0  0  0  0  0  0  0  0
   28.0951  -20.3575   -7.5519 N   0  0  0  0  0  0  0  0  0  0  0  0
   29.4639  -20.3012   -5.6196 C   0  0  0  0  0  0  0  0  0  0  0  0
   29.7898  -21.4875   -5.8727 O   0  0  0  0  0  0  0  0  0  0  0  0
   30.1415  -19.6500   -4.6003 O   0  0  0  0  0  0  0  0  0  0  0  0
  2  1  1  0
  2  3  2  0
  4  3  1  0
  5  4  2  0
  6  5  1  0
  7  9  1  0
  7  6  1  0
  7  8  1  6
  9 10  2  0
 11 12  2  0
 11  5  1  0
 12  2  1  0
 13 14  1  0
 13  9  1  0
 14 15  1  6
 15 16  1  0
 16 17  1  0
 17 18  2  0
 19 20  2  0
 19 14  1  0
 21 17  1  0
 23 24  1  0
 23 22  1  0
 24 25  1  1
 24 26  1  0
 26 27  1  6
 27 19  1  0
 28 26  1  0
 28 30  1  0
 29 28  2  0
M  END
$$$$
