YEI.pdb
     RDKit          3D

 30 30  0  0  1  0  0  0  0  0999 V2000
   25.2645  -18.0370  -26.5514 O   0  0  0  0  0  0  0  0  0  0  0  0
   24.3184  -18.6384  -25.7264 C   0  0  0  0  0  0  0  0  0  0  0  0
   24.3017  -20.0115  -25.5205 C   0  0  0  0  0  0  0  0  0  0  0  0
   23.3651  -20.6046  -24.7040 C   0  0  0  0  0  0  0  0  0  0  0  0
   22.4283  -19.8354  -24.0787 C   0  0  0  0  0  0  0  0  0  0  0  0
   21.3734  -20.3675  -23.1777 C   0  0  0  0  0  0  0  0  0  0  0  0
   21.9822  -20.6238  -21.8080 C   0  0  2  0  0  0  0  0  0  0  0  0
   22.7822  -21.8153  -21.8997 N   0  0  0  0  0  0  0  0  0  0  0  0
   20.9265  -20.8155  -20.7797 C   0  0  0  0  0  0  0  0  0  0  0  0
   20.3666  -21.9413  -20.6453 O   0  0  0  0  0  0  0  0  0  0  0  0
   22.4519  -18.4624  -24.2899 C   0  0  0  0  0  0  0  0  0  0  0  0
   23.3810  -17.8701  -25.1004 C   0  0  0  0  0  0  0  0  0  0  0  0
   20.4979  -19.7772  -19.9146 N   0  0  0  0  0  0  0  0  0  0  0  0
   19.4373  -19.9247  -18.9386 C   0  0  1  0  0  0  0  0  0  0  0  0
   19.6030  -19.0033  -17.7800 C   0  0  0  0  0  0  0  0  0  0  0  0
   18.6236  -19.0889  -16.6791 C   0  0  0  0  0  0  0  0  0  0  0  0
   18.5673  -20.2479  -15.8335 C   0  0  0  0  0  0  0  0  0  0  0  0
   19.5165  -20.9580  -15.4954 O   0  0  0  0  0  0  0  0  0  0  0  0
   18.0888  -20.0316  -19.5023 C   0  0  0  0  0  0  0  0  0  0  0  0
   17.6327  -19.2511  -20.4002 O   0  0  0  0  0  0  0  0  0  0  0  0
   17.3060  -20.6308  -15.3268 O   0  0  0  0  0  0  0  0  0  0  0  0
   15.7469  -24.2787  -21.7698 C   0  0  0  0  0  0  0  0  0  0  0  0
   15.8597  -22.8553  -21.3751 C   0  0  0  0  0  0  0  0  0  0  0  0
   15.4542  -22.4960  -20.0017 C   0  0  2  0  0  0  0  0  0  0  0  0
   13.9577  -22.7786  -19.7843 C   0  0  0  0  0  0  0  0  0  0  0  0
   15.7967  -21.1234  -19.5015 C   0  0  2  0  0  0  0  0  0  0  0  0
   17.1645  -21.0539  -19.0756 N   0  0  0  0  0  0  0  0  0  0  0  0
   14.9384  -20.9228  -18.2768 C   0  0  0  0  0  0  0  0  0  0  0  0
   15.3312  -21.2239  -17.1224 O   0  0  0  0  0  0  0  0  0  0  0  0
   13.6661  -20.3872  -18.4056 O   0  0  0  0  0  0  0  0  0  0  0  0
  2  1  1  0
  2  3  2  0
  4  3  1  0
  5  4  2  0
  6  5  1  0
  7  9  1  0
  7  6  1  0
  7  8  1  6
  9 10  2  0
 11 12  2  0
 11  5  1  0
 12  2  1  0
 13 14  1  0
 13  9  1  0
 14 15  1  1
 15 16  1  0
 16 17  1  0
 17 18  2  0
 19 20  2  0
 19 14  1  0
 21 17  1  0
 23 24  1  0
 23 22  1  0
 24 25  1  6
 24 26  1  0
 26 27  1  1
 27 19  1  0
 28 26  1  0
 28 30  1  0
 29 28  2  0
M  END
$$$$
