YEI.pdb
     RDKit          3D

 30 30  0  0  1  0  0  0  0  0999 V2000
   27.0734  -27.0755  -21.7904 O   0  0  0  0  0  0  0  0  0  0  0  0
   27.2133  -26.4034  -20.5796 C   0  0  0  0  0  0  0  0  0  0  0  0
   28.3634  -26.5229  -19.8108 C   0  0  0  0  0  0  0  0  0  0  0  0
   28.5001  -25.8573  -18.6133 C   0  0  0  0  0  0  0  0  0  0  0  0
   27.4891  -25.0600  -18.1630 C   0  0  0  0  0  0  0  0  0  0  0  0
   27.5287  -24.2968  -16.8888 C   0  0  0  0  0  0  0  0  0  0  0  0
   27.8049  -22.8345  -17.2018 C   0  0  2  0  0  0  0  0  0  0  0  0
   29.2304  -22.6665  -17.2896 N   0  0  0  0  0  0  0  0  0  0  0  0
   27.2676  -21.9479  -16.1369 C   0  0  0  0  0  0  0  0  0  0  0  0
   27.8514  -21.8723  -15.0177 O   0  0  0  0  0  0  0  0  0  0  0  0
   26.3418  -24.9458  -18.9381 C   0  0  0  0  0  0  0  0  0  0  0  0
   26.2029  -25.6057  -20.1281 C   0  0  0  0  0  0  0  0  0  0  0  0
   26.1028  -21.1581  -16.3088 N   0  0  0  0  0  0  0  0  0  0  0  0
   25.5869  -20.2497  -15.3048 C   0  0  1  0  0  0  0  0  0  0  0  0
   25.0148  -19.0114  -15.9032 C   0  0  0  0  0  0  0  0  0  0  0  0
   24.9192  -18.9311  -17.3740 C   0  0  0  0  0  0  0  0  0  0  0  0
   23.6469  -18.7739  -18.0205 C   0  0  0  0  0  0  0  0  0  0  0  0
   22.5466  -18.6993  -17.4696 O   0  0  0  0  0  0  0  0  0  0  0  0
   24.8044  -20.8842  -14.2405 C   0  0  0  0  0  0  0  0  0  0  0  0
   23.9603  -21.8171  -14.4422 O   0  0  0  0  0  0  0  0  0  0  0  0
   23.6317  -18.6945  -19.4303 O   0  0  0  0  0  0  0  0  0  0  0  0
   26.7551  -20.9608   -8.9389 C   0  0  0  0  0  0  0  0  0  0  0  0
   26.0603  -21.3643  -10.1834 C   0  0  0  0  0  0  0  0  0  0  0  0
   24.7463  -20.7501  -10.4588 C   0  0  2  0  0  0  0  0  0  0  0  0
   23.7456  -21.0796   -9.3378 C   0  0  0  0  0  0  0  0  0  0  0  0
   24.1184  -20.9990  -11.7988 C   0  0  2  0  0  0  0  0  0  0  0  0
   24.9421  -20.4934  -12.8585 N   0  0  0  0  0  0  0  0  0  0  0  0
   22.8469  -20.1864  -11.7971 C   0  0  0  0  0  0  0  0  0  0  0  0
   22.8155  -18.9841  -12.1590 O   0  0  0  0  0  0  0  0  0  0  0  0
   21.6570  -20.7672  -11.3858 O   0  0  0  0  0  0  0  0  0  0  0  0
  2  1  1  0
  2  3  2  0
  4  3  1  0
  5  4  2  0
  6  5  1  0
  7  9  1  0
  7  6  1  0
  7  8  1  1
  9 10  2  0
 11 12  2  0
 11  5  1  0
 12  2  1  0
 13 14  1  0
 13  9  1  0
 14 15  1  6
 15 16  1  0
 16 17  1  0
 17 18  2  0
 19 20  2  0
 19 14  1  0
 21 17  1  0
 23 24  1  0
 23 22  1  0
 24 25  1  1
 24 26  1  0
 26 27  1  6
 27 19  1  0
 28 26  1  0
 28 30  1  0
 29 28  2  0
M  END
$$$$
