YEI.pdb
     RDKit          3D

 30 30  0  0  1  0  0  0  0  0999 V2000
   19.7935  -13.8173  -20.1092 O   0  0  0  0  0  0  0  0  0  0  0  0
   19.4193  -13.4354  -18.8242 C   0  0  0  0  0  0  0  0  0  0  0  0
   19.8401  -12.2328  -18.2719 C   0  0  0  0  0  0  0  0  0  0  0  0
   19.4688  -11.8567  -17.0005 C   0  0  0  0  0  0  0  0  0  0  0  0
   18.6701  -12.6763  -16.2584 C   0  0  0  0  0  0  0  0  0  0  0  0
   18.2090  -12.3718  -14.8792 C   0  0  0  0  0  0  0  0  0  0  0  0
   16.9315  -11.5509  -14.9595 C   0  0  2  0  0  0  0  0  0  0  0  0
   16.0403  -12.2146  -15.8724 N   0  0  0  0  0  0  0  0  0  0  0  0
   17.2081  -10.1759  -15.4510 C   0  0  0  0  0  0  0  0  0  0  0  0
   16.8787   -9.8421  -16.6254 O   0  0  0  0  0  0  0  0  0  0  0  0
   18.2535  -13.8777  -16.8182 C   0  0  0  0  0  0  0  0  0  0  0  0
   18.6205  -14.2542  -18.0809 C   0  0  0  0  0  0  0  0  0  0  0  0
   17.8393   -9.1870  -14.6548 N   0  0  0  0  0  0  0  0  0  0  0  0
   18.1126   -7.8381  -15.1078 C   0  0  1  0  0  0  0  0  0  0  0  0
   16.8859   -6.9941  -15.1427 C   0  0  0  0  0  0  0  0  0  0  0  0
   17.0125   -5.6047  -15.6247 C   0  0  0  0  0  0  0  0  0  0  0  0
   15.8643   -4.7461  -15.7031 C   0  0  0  0  0  0  0  0  0  0  0  0
   14.7114   -5.0283  -15.3704 O   0  0  0  0  0  0  0  0  0  0  0  0
   19.3132   -7.2245  -14.5336 C   0  0  0  0  0  0  0  0  0  0  0  0
   19.6276   -7.3015  -13.3013 O   0  0  0  0  0  0  0  0  0  0  0  0
   16.0528   -3.4416  -16.2098 O   0  0  0  0  0  0  0  0  0  0  0  0
   23.9446   -8.2989  -16.8483 C   0  0  0  0  0  0  0  0  0  0  0  0
   22.9013   -7.8783  -15.8844 C   0  0  0  0  0  0  0  0  0  0  0  0
   22.6317   -6.4319  -15.7619 C   0  0  2  0  0  0  0  0  0  0  0  0
   23.9183   -5.6662  -15.4086 C   0  0  0  0  0  0  0  0  0  0  0  0
   21.5110   -5.9970  -14.8638 C   0  0  2  0  0  0  0  0  0  0  0  0
   20.2476   -6.4792  -15.3418 N   0  0  0  0  0  0  0  0  0  0  0  0
   21.4814   -4.4920  -14.9682 C   0  0  0  0  0  0  0  0  0  0  0  0
   20.7661   -3.8889  -15.8062 O   0  0  0  0  0  0  0  0  0  0  0  0
   22.2634   -3.7255  -14.1178 O   0  0  0  0  0  0  0  0  0  0  0  0
  2  1  1  0
  2  3  2  0
  4  3  1  0
  5  4  2  0
  6  5  1  0
  7  9  1  0
  7  6  1  0
  7  8  1  6
  9 10  2  0
 11 12  2  0
 11  5  1  0
 12  2  1  0
 13 14  1  0
 13  9  1  0
 14 15  1  1
 15 16  1  0
 16 17  1  0
 17 18  2  0
 19 20  2  0
 19 14  1  0
 21 17  1  0
 23 24  1  0
 23 22  1  0
 24 25  1  1
 24 26  1  0
 26 27  1  6
 27 19  1  0
 28 26  1  0
 28 30  1  0
 29 28  2  0
M  END
$$$$
