YEI.pdb
     RDKit          3D

 30 30  0  0  1  0  0  0  0  0999 V2000
   27.0858  -17.7188  -15.6159 O   0  0  0  0  0  0  0  0  0  0  0  0
   26.5796  -16.4747  -15.9812 C   0  0  0  0  0  0  0  0  0  0  0  0
   26.7998  -15.9431  -17.2449 C   0  0  0  0  0  0  0  0  0  0  0  0
   26.2982  -14.7123  -17.6045 C   0  0  0  0  0  0  0  0  0  0  0  0
   25.5674  -13.9909  -16.7069 C   0  0  0  0  0  0  0  0  0  0  0  0
   24.9792  -12.6554  -16.9865 C   0  0  0  0  0  0  0  0  0  0  0  0
   23.5318  -12.8375  -17.4158 C   0  0  2  0  0  0  0  0  0  0  0  0
   23.5340  -13.4431  -18.7202 N   0  0  0  0  0  0  0  0  0  0  0  0
   22.8232  -11.5326  -17.4782 C   0  0  0  0  0  0  0  0  0  0  0  0
   23.0471  -10.7323  -18.4313 O   0  0  0  0  0  0  0  0  0  0  0  0
   25.3517  -14.5298  -15.4446 C   0  0  0  0  0  0  0  0  0  0  0  0
   25.8485  -15.7522  -15.0843 C   0  0  0  0  0  0  0  0  0  0  0  0
   21.8821  -11.1210  -16.5009 N   0  0  0  0  0  0  0  0  0  0  0  0
   21.2161   -9.8342  -16.5118 C   0  0  1  0  0  0  0  0  0  0  0  0
   19.7525   -9.9531  -16.2621 C   0  0  0  0  0  0  0  0  0  0  0  0
   18.9456   -8.7171  -16.2615 C   0  0  0  0  0  0  0  0  0  0  0  0
   17.5468   -8.7525  -15.9396 C   0  0  0  0  0  0  0  0  0  0  0  0
   16.9344   -9.6904  -15.4249 O   0  0  0  0  0  0  0  0  0  0  0  0
   21.9186   -8.7684  -15.7919 C   0  0  0  0  0  0  0  0  0  0  0  0
   22.5362   -8.9450  -14.6916 O   0  0  0  0  0  0  0  0  0  0  0  0
   16.7756   -7.6068  -16.2344 O   0  0  0  0  0  0  0  0  0  0  0  0
   24.6975   -4.9292  -18.6376 C   0  0  0  0  0  0  0  0  0  0  0  0
   24.1737   -5.8904  -17.6395 C   0  0  0  0  0  0  0  0  0  0  0  0
   23.2253   -5.3756  -16.6318 C   0  0  2  0  0  0  0  0  0  0  0  0
   23.8138   -4.1548  -15.9039 C   0  0  0  0  0  0  0  0  0  0  0  0
   22.6593   -6.3450  -15.6360 C   0  0  2  0  0  0  0  0  0  0  0  0
   21.9667   -7.4160  -16.2921 N   0  0  0  0  0  0  0  0  0  0  0  0
   21.6312   -5.5597  -14.8595 C   0  0  0  0  0  0  0  0  0  0  0  0
   21.9482   -4.6914  -14.0091 O   0  0  0  0  0  0  0  0  0  0  0  0
   20.2807   -5.7870  -15.0761 O   0  0  0  0  0  0  0  0  0  0  0  0
  2  1  1  0
  2  3  2  0
  4  3  1  0
  5  4  2  0
  6  5  1  0
  7  9  1  0
  7  6  1  0
  7  8  1  6
  9 10  2  0
 11 12  2  0
 11  5  1  0
 12  2  1  0
 13 14  1  0
 13  9  1  0
 14 15  1  1
 15 16  1  0
 16 17  1  0
 17 18  2  0
 19 20  2  0
 19 14  1  0
 21 17  1  0
 23 24  1  0
 23 22  1  0
 24 25  1  1
 24 26  1  0
 26 27  1  6
 27 19  1  0
 28 26  1  0
 28 30  1  0
 29 28  2  0
M  END
$$$$
