YEI.pdb
     RDKit          3D

 30 30  0  0  1  0  0  0  0  0999 V2000
   12.1772  -14.3528  -18.6408 O   0  0  0  0  0  0  0  0  0  0  0  0
   12.6924  -13.5890  -17.5975 C   0  0  0  0  0  0  0  0  0  0  0  0
   12.5423  -13.9743  -16.2719 C   0  0  0  0  0  0  0  0  0  0  0  0
   13.0527  -13.2174  -15.2411 C   0  0  0  0  0  0  0  0  0  0  0  0
   13.7224  -12.0617  -15.5172 C   0  0  0  0  0  0  0  0  0  0  0  0
   14.3135  -11.1696  -14.4866 C   0  0  0  0  0  0  0  0  0  0  0  0
   15.8291  -11.2599  -14.5711 C   0  0  2  0  0  0  0  0  0  0  0  0
   16.2118  -12.5896  -14.1790 N   0  0  0  0  0  0  0  0  0  0  0  0
   16.4759  -10.2731  -13.6675 C   0  0  0  0  0  0  0  0  0  0  0  0
   16.4634  -10.4531  -12.4159 O   0  0  0  0  0  0  0  0  0  0  0  0
   13.8682  -11.6833  -16.8461 C   0  0  0  0  0  0  0  0  0  0  0  0
   13.3624  -12.4329  -17.8723 C   0  0  0  0  0  0  0  0  0  0  0  0
   17.1259   -9.1059  -14.1425 N   0  0  0  0  0  0  0  0  0  0  0  0
   17.7087   -8.0979  -13.2802 C   0  0  1  0  0  0  0  0  0  0  0  0
   18.9406   -7.4979  -13.8643 C   0  0  0  0  0  0  0  0  0  0  0  0
   19.6128   -6.4210  -13.1112 C   0  0  0  0  0  0  0  0  0  0  0  0
   20.8557   -5.8680  -13.5704 C   0  0  0  0  0  0  0  0  0  0  0  0
   21.3029   -5.9175  -14.7181 O   0  0  0  0  0  0  0  0  0  0  0  0
   16.7486   -7.1675  -12.6801 C   0  0  0  0  0  0  0  0  0  0  0  0
   15.8057   -6.6070  -13.3284 O   0  0  0  0  0  0  0  0  0  0  0  0
   21.6634   -5.1947  -12.6277 O   0  0  0  0  0  0  0  0  0  0  0  0
   14.3995   -7.9589   -7.7234 C   0  0  0  0  0  0  0  0  0  0  0  0
   14.6147   -7.4437   -9.0955 C   0  0  0  0  0  0  0  0  0  0  0  0
   15.5614   -6.3229   -9.2607 C   0  0  2  0  0  0  0  0  0  0  0  0
   15.1201   -5.1096   -8.4242 C   0  0  0  0  0  0  0  0  0  0  0  0
   15.9041   -5.8890  -10.6557 C   0  0  2  0  0  0  0  0  0  0  0  0
   16.8004   -6.8177  -11.2813 N   0  0  0  0  0  0  0  0  0  0  0  0
   16.6525   -4.5889  -10.4932 C   0  0  0  0  0  0  0  0  0  0  0  0
   17.9054   -4.5211  -10.5511 O   0  0  0  0  0  0  0  0  0  0  0  0
   15.9529   -3.4125  -10.2717 O   0  0  0  0  0  0  0  0  0  0  0  0
  2  1  1  0
  2  3  2  0
  4  3  1  0
  5  4  2  0
  6  5  1  0
  7  9  1  0
  7  6  1  0
  7  8  1  1
  9 10  2  0
 11 12  2  0
 11  5  1  0
 12  2  1  0
 13 14  1  0
 13  9  1  0
 14 15  1  6
 15 16  1  0
 16 17  1  0
 17 18  2  0
 19 20  2  0
 19 14  1  0
 21 17  1  0
 23 24  1  0
 23 22  1  0
 24 25  1  1
 24 26  1  0
 26 27  1  1
 27 19  1  0
 28 26  1  0
 28 30  1  0
 29 28  2  0
M  END
$$$$
