YEI.pdb
     RDKit          3D

 30 30  0  0  1  0  0  0  0  0999 V2000
   28.6353  -19.6109   -3.8592 O   0  0  0  0  0  0  0  0  0  0  0  0
   28.2207  -19.6487   -5.1874 C   0  0  0  0  0  0  0  0  0  0  0  0
   27.1193  -20.3955   -5.5838 C   0  0  0  0  0  0  0  0  0  0  0  0
   26.7106  -20.4317   -6.8982 C   0  0  0  0  0  0  0  0  0  0  0  0
   27.3960  -19.7218   -7.8397 C   0  0  0  0  0  0  0  0  0  0  0  0
   27.0447  -19.6878   -9.2830 C   0  0  0  0  0  0  0  0  0  0  0  0
   27.1301  -21.0995   -9.8417 C   0  0  2  0  0  0  0  0  0  0  0  0
   28.5213  -21.4175  -10.0194 N   0  0  0  0  0  0  0  0  0  0  0  0
   26.4291  -21.2021  -11.1481 C   0  0  0  0  0  0  0  0  0  0  0  0
   27.0254  -20.8831  -12.2166 O   0  0  0  0  0  0  0  0  0  0  0  0
   28.4969  -18.9772   -7.4349 C   0  0  0  0  0  0  0  0  0  0  0  0
   28.9054  -18.9392   -6.1300 C   0  0  0  0  0  0  0  0  0  0  0  0
   25.0895  -21.6506  -11.2690 N   0  0  0  0  0  0  0  0  0  0  0  0
   24.3764  -21.7363  -12.5273 C   0  0  1  0  0  0  0  0  0  0  0  0
   23.9347  -23.1254  -12.8334 C   0  0  0  0  0  0  0  0  0  0  0  0
   23.2964  -23.3791  -14.1399 C   0  0  0  0  0  0  0  0  0  0  0  0
   21.8801  -23.2159  -14.3103 C   0  0  0  0  0  0  0  0  0  0  0  0
   21.0193  -23.3018  -13.4320 O   0  0  0  0  0  0  0  0  0  0  0  0
   23.3949  -20.6721  -12.7555 C   0  0  0  0  0  0  0  0  0  0  0  0
   22.7064  -20.1332  -11.8287 O   0  0  0  0  0  0  0  0  0  0  0  0
   21.4034  -22.9273  -15.6078 O   0  0  0  0  0  0  0  0  0  0  0  0
   24.7615  -17.9164  -16.6344 C   0  0  0  0  0  0  0  0  0  0  0  0
   23.6979  -17.5525  -15.6697 C   0  0  0  0  0  0  0  0  0  0  0  0
   22.4936  -18.4057  -15.6310 C   0  0  2  0  0  0  0  0  0  0  0  0
   21.2604  -17.6295  -16.1245 C   0  0  0  0  0  0  0  0  0  0  0  0
   22.1745  -19.1177  -14.3493 C   0  0  2  0  0  0  0  0  0  0  0  0
   23.1380  -20.1436  -14.0732 N   0  0  0  0  0  0  0  0  0  0  0  0
   20.8529  -19.8029  -14.5955 C   0  0  0  0  0  0  0  0  0  0  0  0
   20.7721  -20.9431  -15.1163 O   0  0  0  0  0  0  0  0  0  0  0  0
   19.6709  -19.1707  -14.2415 O   0  0  0  0  0  0  0  0  0  0  0  0
  2  1  1  0
  2  3  2  0
  4  3  1  0
  5  4  2  0
  6  5  1  0
  7  9  1  0
  7  6  1  0
  7  8  1  6
  9 10  2  0
 11 12  2  0
 11  5  1  0
 12  2  1  0
 13 14  1  0
 13  9  1  0
 14 15  1  1
 15 16  1  0
 16 17  1  0
 17 18  2  0
 19 20  2  0
 19 14  1  0
 21 17  1  0
 23 24  1  0
 23 22  1  0
 24 25  1  1
 24 26  1  0
 26 27  1  6
 27 19  1  0
 28 26  1  0
 28 30  1  0
 29 28  2  0
M  END
$$$$
