YEI.pdb
     RDKit          3D

 30 30  0  0  1  0  0  0  0  0999 V2000
   16.4624  -17.2777  -16.8235 O   0  0  0  0  0  0  0  0  0  0  0  0
   16.9164  -15.9707  -16.6722 C   0  0  0  0  0  0  0  0  0  0  0  0
   17.9424  -15.4623  -17.4578 C   0  0  0  0  0  0  0  0  0  0  0  0
   18.3901  -14.1690  -17.3068 C   0  0  0  0  0  0  0  0  0  0  0  0
   17.8201  -13.3608  -16.3676 C   0  0  0  0  0  0  0  0  0  0  0  0
   18.2227  -11.9524  -16.1190 C   0  0  0  0  0  0  0  0  0  0  0  0
   17.2586  -11.0309  -16.8496 C   0  0  2  0  0  0  0  0  0  0  0  0
   17.4606  -11.2151  -18.2615 N   0  0  0  0  0  0  0  0  0  0  0  0
   17.5056   -9.6085  -16.4967 C   0  0  0  0  0  0  0  0  0  0  0  0
   17.6924   -8.7506  -17.4067 O   0  0  0  0  0  0  0  0  0  0  0  0
   16.7943  -13.8771  -15.5857 C   0  0  0  0  0  0  0  0  0  0  0  0
   16.3471  -15.1613  -15.7331 C   0  0  0  0  0  0  0  0  0  0  0  0
   17.5450   -9.1440  -15.1576 N   0  0  0  0  0  0  0  0  0  0  0  0
   17.6356   -7.7455  -14.7897 C   0  0  1  0  0  0  0  0  0  0  0  0
   16.7890   -6.8773  -15.6547 C   0  0  0  0  0  0  0  0  0  0  0  0
   16.8901   -5.4150  -15.4817 C   0  0  0  0  0  0  0  0  0  0  0  0
   18.1421   -4.7373  -15.6682 C   0  0  0  0  0  0  0  0  0  0  0  0
   18.9741   -4.4771  -14.7965 O   0  0  0  0  0  0  0  0  0  0  0  0
   17.5869   -7.4808  -13.3491 C   0  0  0  0  0  0  0  0  0  0  0  0
   16.5639   -7.7023  -12.6227 O   0  0  0  0  0  0  0  0  0  0  0  0
   18.4737   -4.3176  -16.9751 O   0  0  0  0  0  0  0  0  0  0  0  0
   22.4734   -8.5767   -9.8563 C   0  0  0  0  0  0  0  0  0  0  0  0
   21.0610   -8.1329   -9.9075 C   0  0  0  0  0  0  0  0  0  0  0  0
   20.5307   -7.7010  -11.2159 C   0  0  2  0  0  0  0  0  0  0  0  0
   21.3982   -6.5788  -11.8115 C   0  0  0  0  0  0  0  0  0  0  0  0
   19.0793   -7.3295  -11.3008 C   0  0  2  0  0  0  0  0  0  0  0  0
   18.7204   -6.9451  -12.6352 N   0  0  0  0  0  0  0  0  0  0  0  0
   18.9324   -6.1058  -10.4303 C   0  0  0  0  0  0  0  0  0  0  0  0
   18.8323   -4.9481  -10.9071 O   0  0  0  0  0  0  0  0  0  0  0  0
   18.9034   -6.2394   -9.0506 O   0  0  0  0  0  0  0  0  0  0  0  0
  2  1  1  0
  2  3  2  0
  4  3  1  0
  5  4  2  0
  6  5  1  0
  7  9  1  0
  7  6  1  0
  7  8  1  6
  9 10  2  0
 11 12  2  0
 11  5  1  0
 12  2  1  0
 13 14  1  0
 13  9  1  0
 14 15  1  6
 15 16  1  0
 16 17  1  0
 17 18  2  0
 19 20  2  0
 19 14  1  0
 21 17  1  0
 23 24  1  0
 23 22  1  0
 24 25  1  1
 24 26  1  0
 26 27  1  6
 27 19  1  0
 28 26  1  0
 28 30  1  0
 29 28  2  0
M  END
$$$$
