YEI.pdb
     RDKit          3D

 30 30  0  0  1  0  0  0  0  0999 V2000
   22.7889  -17.6140  -20.0572 O   0  0  0  0  0  0  0  0  0  0  0  0
   22.4589  -16.3190  -19.6682 C   0  0  0  0  0  0  0  0  0  0  0  0
   22.0084  -16.0382  -18.3851 C   0  0  0  0  0  0  0  0  0  0  0  0
   21.6825  -14.7564  -18.0021 C   0  0  0  0  0  0  0  0  0  0  0  0
   21.8010  -13.7324  -18.8952 C   0  0  0  0  0  0  0  0  0  0  0  0
   21.4786  -12.3142  -18.5910 C   0  0  0  0  0  0  0  0  0  0  0  0
   20.0157  -12.2201  -18.1867 C   0  0  2  0  0  0  0  0  0  0  0  0
   19.2220  -12.6331  -19.3126 N   0  0  0  0  0  0  0  0  0  0  0  0
   19.6524  -10.8291  -17.8099 C   0  0  0  0  0  0  0  0  0  0  0  0
   19.4141   -9.9691  -18.7058 O   0  0  0  0  0  0  0  0  0  0  0  0
   22.2524  -14.0218  -20.1769 C   0  0  0  0  0  0  0  0  0  0  0  0
   22.5771  -15.2939  -20.5605 C   0  0  0  0  0  0  0  0  0  0  0  0
   19.5546  -10.3978  -16.4628 N   0  0  0  0  0  0  0  0  0  0  0  0
   19.2048   -9.0478  -16.0698 C   0  0  1  0  0  0  0  0  0  0  0  0
   17.8560   -8.9733  -15.4424 C   0  0  0  0  0  0  0  0  0  0  0  0
   17.3596   -7.6495  -15.0184 C   0  0  0  0  0  0  0  0  0  0  0  0
   16.1057   -7.5200  -14.3310 C   0  0  0  0  0  0  0  0  0  0  0  0
   15.1211   -6.8833  -14.7116 O   0  0  0  0  0  0  0  0  0  0  0  0
   20.2769   -8.2990  -15.4082 C   0  0  0  0  0  0  0  0  0  0  0  0
   20.9628   -8.7544  -14.4358 O   0  0  0  0  0  0  0  0  0  0  0  0
   15.9647   -8.1812  -13.0913 O   0  0  0  0  0  0  0  0  0  0  0  0
   23.3453   -4.7990  -18.4297 C   0  0  0  0  0  0  0  0  0  0  0  0
   22.9066   -5.7678  -17.3985 C   0  0  0  0  0  0  0  0  0  0  0  0
   22.2871   -5.2239  -16.1738 C   0  0  2  0  0  0  0  0  0  0  0  0
   23.2612   -4.2847  -15.4418 C   0  0  0  0  0  0  0  0  0  0  0  0
   21.6772   -6.1914  -15.2024 C   0  0  2  0  0  0  0  0  0  0  0  0
   20.6434   -6.9671  -15.8242 N   0  0  0  0  0  0  0  0  0  0  0  0
   21.0183   -5.3336  -14.1502 C   0  0  0  0  0  0  0  0  0  0  0  0
   19.7820   -5.1125  -14.1388 O   0  0  0  0  0  0  0  0  0  0  0  0
   21.7854   -4.7584  -13.1487 O   0  0  0  0  0  0  0  0  0  0  0  0
  2  1  1  0
  2  3  2  0
  4  3  1  0
  5  4  2  0
  6  5  1  0
  7  9  1  0
  7  6  1  0
  7  8  1  6
  9 10  2  0
 11 12  2  0
 11  5  1  0
 12  2  1  0
 13 14  1  0
 13  9  1  0
 14 15  1  1
 15 16  1  0
 16 17  1  0
 17 18  2  0
 19 20  2  0
 19 14  1  0
 21 17  1  0
 23 24  1  0
 23 22  1  0
 24 25  1  1
 24 26  1  0
 26 27  1  6
 27 19  1  0
 28 26  1  0
 28 30  1  0
 29 28  2  0
M  END
$$$$
