YEI.pdb
     RDKit          3D

 30 30  0  0  1  0  0  0  0  0999 V2000
   19.3540  -21.4822  -15.2791 O   0  0  0  0  0  0  0  0  0  0  0  0
   19.7720  -20.1784  -15.5300 C   0  0  0  0  0  0  0  0  0  0  0  0
   20.7536  -19.8985  -16.4713 C   0  0  0  0  0  0  0  0  0  0  0  0
   21.1658  -18.6081  -16.7182 C   0  0  0  0  0  0  0  0  0  0  0  0
   20.6038  -17.5745  -16.0282 C   0  0  0  0  0  0  0  0  0  0  0  0
   20.9706  -16.1466  -16.2129 C   0  0  0  0  0  0  0  0  0  0  0  0
   19.9315  -15.4850  -17.1046 C   0  0  2  0  0  0  0  0  0  0  0  0
   20.0035  -16.1080  -18.3988 N   0  0  0  0  0  0  0  0  0  0  0  0
   20.1928  -14.0285  -17.2423 C   0  0  0  0  0  0  0  0  0  0  0  0
   21.1608  -13.6197  -17.9457 O   0  0  0  0  0  0  0  0  0  0  0  0
   19.6224  -17.8631  -15.0881 C   0  0  0  0  0  0  0  0  0  0  0  0
   19.2107  -19.1438  -14.8405 C   0  0  0  0  0  0  0  0  0  0  0  0
   19.3948  -13.0410  -16.6111 N   0  0  0  0  0  0  0  0  0  0  0  0
   19.6275  -11.6159  -16.7312 C   0  0  1  0  0  0  0  0  0  0  0  0
   18.4834  -10.9081  -17.3704 C   0  0  0  0  0  0  0  0  0  0  0  0
   17.9245  -11.4735  -18.6141 C   0  0  0  0  0  0  0  0  0  0  0  0
   16.7488  -10.9093  -19.2148 C   0  0  0  0  0  0  0  0  0  0  0  0
   16.1334   -9.9125  -18.8310 O   0  0  0  0  0  0  0  0  0  0  0  0
   20.2088  -10.9823  -15.5444 C   0  0  0  0  0  0  0  0  0  0  0  0
   19.8213  -11.2188  -14.3539 O   0  0  0  0  0  0  0  0  0  0  0  0
   16.2278  -11.5453  -20.3629 O   0  0  0  0  0  0  0  0  0  0  0  0
   25.6446  -10.0153  -15.4242 C   0  0  0  0  0  0  0  0  0  0  0  0
   24.2329   -9.5842  -15.5480 C   0  0  0  0  0  0  0  0  0  0  0  0
   23.3480   -9.8113  -14.3881 C   0  0  2  0  0  0  0  0  0  0  0  0
   23.4469  -11.2684  -13.9049 C   0  0  0  0  0  0  0  0  0  0  0  0
   21.9084   -9.4057  -14.5093 C   0  0  2  0  0  0  0  0  0  0  0  0
   21.2882  -10.0300  -15.6419 N   0  0  0  0  0  0  0  0  0  0  0  0
   21.9366   -7.9214  -14.7792 C   0  0  0  0  0  0  0  0  0  0  0  0
   21.6225   -7.4332  -15.8930 O   0  0  0  0  0  0  0  0  0  0  0  0
   22.3193   -7.0444  -13.7758 O   0  0  0  0  0  0  0  0  0  0  0  0
  2  1  1  0
  2  3  2  0
  4  3  1  0
  5  4  2  0
  6  5  1  0
  7  9  1  0
  7  6  1  0
  7  8  1  6
  9 10  2  0
 11 12  2  0
 11  5  1  0
 12  2  1  0
 13 14  1  0
 13  9  1  0
 14 15  1  1
 15 16  1  0
 16 17  1  0
 17 18  2  0
 19 20  2  0
 19 14  1  0
 21 17  1  0
 23 24  1  0
 23 22  1  0
 24 25  1  6
 24 26  1  0
 26 27  1  6
 27 19  1  0
 28 26  1  0
 28 30  1  0
 29 28  2  0
M  END
$$$$
