YEI.pdb
     RDKit          3D

 30 30  0  0  1  0  0  0  0  0999 V2000
   28.0761  -18.7308   -5.0986 O   0  0  0  0  0  0  0  0  0  0  0  0
   27.7675  -19.1514   -6.3890 C   0  0  0  0  0  0  0  0  0  0  0  0
   27.1254  -18.3145   -7.2921 C   0  0  0  0  0  0  0  0  0  0  0  0
   26.8210  -18.7324   -8.5683 C   0  0  0  0  0  0  0  0  0  0  0  0
   27.1531  -19.9946   -8.9643 C   0  0  0  0  0  0  0  0  0  0  0  0
   26.8741  -20.5495  -10.3141 C   0  0  0  0  0  0  0  0  0  0  0  0
   25.4355  -20.2287  -10.6882 C   0  0  2  0  0  0  0  0  0  0  0  0
   24.5771  -21.0215   -9.8499 N   0  0  0  0  0  0  0  0  0  0  0  0
   25.1681  -20.5507  -12.1142 C   0  0  0  0  0  0  0  0  0  0  0  0
   24.7540  -21.7002  -12.4397 O   0  0  0  0  0  0  0  0  0  0  0  0
   27.7953  -20.8256   -8.0548 C   0  0  0  0  0  0  0  0  0  0  0  0
   28.0991  -20.4136   -6.7864 C   0  0  0  0  0  0  0  0  0  0  0  0
   25.3563  -19.6147  -13.1624 N   0  0  0  0  0  0  0  0  0  0  0  0
   25.0614  -19.8897  -14.5540 C   0  0  1  0  0  0  0  0  0  0  0  0
   24.8131  -18.6463  -15.3357 C   0  0  0  0  0  0  0  0  0  0  0  0
   23.6168  -17.8467  -15.0070 C   0  0  0  0  0  0  0  0  0  0  0  0
   22.2986  -18.3658  -15.2399 C   0  0  0  0  0  0  0  0  0  0  0  0
   21.3765  -18.4236  -14.4238 O   0  0  0  0  0  0  0  0  0  0  0  0
   25.9222  -20.8963  -15.1812 C   0  0  0  0  0  0  0  0  0  0  0  0
   27.1350  -21.0983  -14.8470 O   0  0  0  0  0  0  0  0  0  0  0  0
   22.0076  -18.8661  -16.5280 O   0  0  0  0  0  0  0  0  0  0  0  0
   26.6219  -26.5250  -15.6917 C   0  0  0  0  0  0  0  0  0  0  0  0
   26.6915  -25.3138  -16.5416 C   0  0  0  0  0  0  0  0  0  0  0  0
   26.0041  -24.1011  -16.0553 C   0  0  2  0  0  0  0  0  0  0  0  0
   24.5000  -24.3653  -15.8696 C   0  0  0  0  0  0  0  0  0  0  0  0
   26.2123  -22.8214  -16.8108 C   0  0  2  0  0  0  0  0  0  0  0  0
   25.4452  -21.7524  -16.2401 N   0  0  0  0  0  0  0  0  0  0  0  0
   25.6570  -23.0809  -18.1896 C   0  0  0  0  0  0  0  0  0  0  0  0
   24.4935  -22.7439  -18.5216 O   0  0  0  0  0  0  0  0  0  0  0  0
   26.4417  -23.7126  -19.1423 O   0  0  0  0  0  0  0  0  0  0  0  0
  2  1  1  0
  2  3  2  0
  4  3  1  0
  5  4  2  0
  6  5  1  0
  7  9  1  0
  7  6  1  0
  7  8  1  1
  9 10  2  0
 11 12  2  0
 11  5  1  0
 12  2  1  0
 13 14  1  0
 13  9  1  0
 14 15  1  6
 15 16  1  0
 16 17  1  0
 17 18  2  0
 19 20  2  0
 19 14  1  0
 21 17  1  0
 23 24  1  0
 23 22  1  0
 24 25  1  6
 24 26  1  0
 26 27  1  1
 27 19  1  0
 28 26  1  0
 28 30  1  0
 29 28  2  0
M  END
$$$$
