YEI.pdb
     RDKit          3D

 30 30  0  0  1  0  0  0  0  0999 V2000
   20.9532  -15.5073  -21.4347 O   0  0  0  0  0  0  0  0  0  0  0  0
   20.6018  -14.5923  -20.4465 C   0  0  0  0  0  0  0  0  0  0  0  0
   20.5574  -14.9516  -19.1060 C   0  0  0  0  0  0  0  0  0  0  0  0
   20.2096  -14.0450  -18.1298 C   0  0  0  0  0  0  0  0  0  0  0  0
   19.9000  -12.7627  -18.4765 C   0  0  0  0  0  0  0  0  0  0  0  0
   19.5124  -11.7038  -17.5089 C   0  0  0  0  0  0  0  0  0  0  0  0
   20.7306  -10.8448  -17.2083 C   0  0  2  0  0  0  0  0  0  0  0  0
   21.6647  -11.6514  -16.4701 N   0  0  0  0  0  0  0  0  0  0  0  0
   20.3602   -9.6536  -16.4005 C   0  0  0  0  0  0  0  0  0  0  0  0
   19.8100   -9.7972  -15.2710 O   0  0  0  0  0  0  0  0  0  0  0  0
   19.9468  -12.4112  -19.8198 C   0  0  0  0  0  0  0  0  0  0  0  0
   20.2919  -13.3094  -20.7920 C   0  0  0  0  0  0  0  0  0  0  0  0
   20.5954   -8.3252  -16.8366 N   0  0  0  0  0  0  0  0  0  0  0  0
   20.2036   -7.1478  -16.0885 C   0  0  1  0  0  0  0  0  0  0  0  0
   21.3747   -6.3272  -15.6717 C   0  0  0  0  0  0  0  0  0  0  0  0
   21.1184   -5.0806  -14.9240 C   0  0  0  0  0  0  0  0  0  0  0  0
   22.1952   -4.1964  -14.5776 C   0  0  0  0  0  0  0  0  0  0  0  0
   22.0984   -3.1103  -14.0025 O   0  0  0  0  0  0  0  0  0  0  0  0
   19.0564   -6.4197  -16.6378 C   0  0  0  0  0  0  0  0  0  0  0  0
   18.9403   -6.1045  -17.8668 O   0  0  0  0  0  0  0  0  0  0  0  0
   23.5065   -4.5917  -14.9215 O   0  0  0  0  0  0  0  0  0  0  0  0
   13.0592   -6.2193  -16.5165 C   0  0  0  0  0  0  0  0  0  0  0  0
   14.2823   -5.3838  -16.4995 C   0  0  0  0  0  0  0  0  0  0  0  0
   15.5519   -6.0436  -16.1353 C   0  0  2  0  0  0  0  0  0  0  0  0
   15.4699   -6.6378  -14.7187 C   0  0  0  0  0  0  0  0  0  0  0  0
   16.8232   -5.2623  -16.2929 C   0  0  2  0  0  0  0  0  0  0  0  0
   17.9507   -6.0050  -15.8089 N   0  0  0  0  0  0  0  0  0  0  0  0
   16.6632   -4.0604  -15.3948 C   0  0  0  0  0  0  0  0  0  0  0  0
   17.2575   -3.9591  -14.2929 O   0  0  0  0  0  0  0  0  0  0  0  0
   15.8356   -3.0166  -15.7792 O   0  0  0  0  0  0  0  0  0  0  0  0
  2  1  1  0
  2  3  2  0
  4  3  1  0
  5  4  2  0
  6  5  1  0
  7  9  1  0
  7  6  1  0
  7  8  1  1
  9 10  2  0
 11 12  2  0
 11  5  1  0
 12  2  1  0
 13 14  1  0
 13  9  1  0
 14 15  1  6
 15 16  1  0
 16 17  1  0
 17 18  2  0
 19 20  2  0
 19 14  1  0
 21 17  1  0
 23 24  1  0
 23 22  1  0
 24 25  1  1
 24 26  1  0
 26 27  1  1
 27 19  1  0
 28 26  1  0
 28 30  1  0
 29 28  2  0
M  END
$$$$
