ERI.pdb
     RDKit          3D

 29 28  0  0  1  0  0  0  0  0999 V2000
    9.0828  -20.2308   24.1557 N   0  0  0  0  0  0  0  0  0  0  0  0
   10.2129  -19.8259   23.3814 C   0  0  1  0  0  0  0  0  0  0  0  0
   10.2433  -20.5918   22.0843 C   0  0  0  0  0  0  0  0  0  0  0  0
   10.3966  -22.0596   22.1987 C   0  0  0  0  0  0  0  0  0  0  0  0
   10.4407  -22.8372   20.9630 C   0  0  0  0  0  0  0  0  0  0  0  0
   10.5626  -24.0952   21.0187 O   0  0  0  0  0  0  0  0  0  0  0  0
   10.2045  -18.3719   23.0146 C   0  0  0  0  0  0  0  0  0  0  0  0
   11.2812  -17.9125   22.5623 O   0  0  0  0  0  0  0  0  0  0  0  0
   10.3583  -22.2647   19.7176 O   0  0  0  0  0  0  0  0  0  0  0  0
    8.8982  -13.0234   18.0827 N   0  0  0  0  0  0  0  0  0  0  0  0
    8.3402  -12.3498   19.2220 C   0  0  0  0  0  0  0  0  0  0  0  0
    8.9199  -11.2917   19.6445 N   0  0  0  0  0  0  0  0  0  0  0  0
    7.1751  -12.8626   19.8495 N   0  0  0  0  0  0  0  0  0  0  0  0
    7.2050  -14.2423   20.2946 C   0  0  0  0  0  0  0  0  0  0  0  0
    7.6189  -14.3466   21.7450 C   0  0  0  0  0  0  0  0  0  0  0  0
    7.7500  -15.7656   22.2076 C   0  0  0  0  0  0  0  0  0  0  0  0
    9.0883  -16.1073   22.7765 C   0  0  2  0  0  0  0  0  0  0  0  0
    9.1022  -17.5140   23.1417 N   0  0  0  0  0  0  0  0  0  0  0  0
    9.3394  -15.2408   23.9624 C   0  0  0  0  0  0  0  0  0  0  0  0
    9.2924  -13.9975   23.8194 O   0  0  0  0  0  0  0  0  0  0  0  0
    8.5300  -10.7314   20.4037 C   0  0  0  0  0  0  0  0  0  0  0  0
    6.7955  -12.5645   25.9675 C   0  0  0  0  0  0  0  0  0  0  0  0
    8.0526  -13.3164   25.5886 C   0  0  2  0  0  0  0  0  0  0  0  0
    8.4952  -14.2160   26.7260 C   0  0  0  0  0  0  0  0  0  0  0  0
    8.5746  -13.4118   27.9918 C   0  0  2  0  0  0  0  0  0  0  0  0
    9.7410  -14.9713   26.4036 N   0  0  0  0  0  0  0  0  0  0  0  0
    9.6274  -15.7978   25.2333 C   0  0  0  0  0  0  0  0  0  0  0  0
   10.0782  -15.8022   27.5999 O   0  0  0  0  0  0  0  0  0  0  0  0
    9.8441  -17.0377   27.5972 O   0  0  0  0  0  0  0  0  0  0  0  0
  2  1  1  6
  3  4  1  0
  3  2  1  0
  4  5  1  0
  5  9  1  0
  5  6  2  0
  7  2  1  0
  7  8  2  0
 11 10  1  0
 11 13  1  0
 12 11  2  0
 14 13  1  0
 15 16  1  0
 15 14  1  0
 17 16  1  1
 17 18  1  0
 18  7  1  0
 19 17  1  0
 20 19  2  0
 21 22  1  0
 22 23  1  0
 23 25  1  0
 23 24  1  1
 25 26  1  6
 25 27  1  0
 26 19  1  0
 27 29  1  0
 28 27  2  0
M  END
$$$$
