ERI.pdb
     RDKit          3D

 29 28  0  0  1  0  0  0  0  0999 V2000
    8.7296  -13.3963   18.4031 N   0  0  0  0  0  0  0  0  0  0  0  0
    8.8210  -14.7015   18.9762 C   0  0  1  0  0  0  0  0  0  0  0  0
   10.2682  -15.0773   19.1612 C   0  0  0  0  0  0  0  0  0  0  0  0
   11.1129  -14.0865   19.8653 C   0  0  0  0  0  0  0  0  0  0  0  0
   12.4936  -14.4588   20.1627 C   0  0  0  0  0  0  0  0  0  0  0  0
   12.7273  -15.4034   20.9713 O   0  0  0  0  0  0  0  0  0  0  0  0
    8.1780  -14.8151   20.3263 C   0  0  0  0  0  0  0  0  0  0  0  0
    8.0082  -13.7378   20.9470 O   0  0  0  0  0  0  0  0  0  0  0  0
   13.5750  -13.8242   19.6027 O   0  0  0  0  0  0  0  0  0  0  0  0
    5.3679  -22.2547   23.6962 N   0  0  0  0  0  0  0  0  0  0  0  0
    5.7800  -20.8842   23.8177 C   0  0  0  0  0  0  0  0  0  0  0  0
    6.8494  -20.6283   24.4697 N   0  0  0  0  0  0  0  0  0  0  0  0
    5.0051  -19.8545   23.2231 N   0  0  0  0  0  0  0  0  0  0  0  0
    5.2975  -19.5047   21.8467 C   0  0  0  0  0  0  0  0  0  0  0  0
    5.5432  -18.0207   21.6935 C   0  0  0  0  0  0  0  0  0  0  0  0
    6.7436  -17.5521   22.4578 C   0  0  0  0  0  0  0  0  0  0  0  0
    7.1087  -16.1238   22.2170 C   0  0  2  0  0  0  0  0  0  0  0  0
    7.7663  -16.0145   20.9255 N   0  0  0  0  0  0  0  0  0  0  0  0
    8.0037  -15.6667   23.3171 C   0  0  0  0  0  0  0  0  0  0  0  0
    9.2369  -15.8546   23.2062 O   0  0  0  0  0  0  0  0  0  0  0  0
    7.1845  -19.6727   24.5997 C   0  0  0  0  0  0  0  0  0  0  0  0
    6.4130  -11.2804   26.1445 C   0  0  0  0  0  0  0  0  0  0  0  0
    7.2451  -12.2664   25.3540 C   0  0  2  0  0  0  0  0  0  0  0  0
    7.7568  -13.3717   26.2570 C   0  0  0  0  0  0  0  0  0  0  0  0
    8.6717  -12.7823   27.2919 C   0  0  2  0  0  0  0  0  0  0  0  0
    8.3524  -14.5044   25.4899 N   0  0  0  0  0  0  0  0  0  0  0  0
    7.4846  -15.0309   24.4724 C   0  0  0  0  0  0  0  0  0  0  0  0
    8.7079  -15.5700   26.4765 O   0  0  0  0  0  0  0  0  0  0  0  0
    7.9182  -16.5259   26.6860 O   0  0  0  0  0  0  0  0  0  0  0  0
  2  1  1  1
  3  4  1  0
  3  2  1  0
  4  5  1  0
  5  9  1  0
  5  6  2  0
  7  2  1  0
  7  8  2  0
 11 10  1  0
 11 13  1  0
 12 11  2  0
 14 13  1  0
 15 16  1  0
 15 14  1  0
 17 16  1  1
 17 18  1  0
 18  7  1  0
 19 17  1  0
 20 19  2  0
 21 22  1  0
 22 23  1  0
 23 25  1  0
 23 24  1  1
 25 26  1  6
 25 27  1  0
 26 19  1  0
 27 29  1  0
 28 27  2  0
M  END
$$$$
