ERI.pdb
     RDKit          3D

 29 28  0  0  1  0  0  0  0  0999 V2000
    7.8393  -13.3196   18.5625 N   0  0  0  0  0  0  0  0  0  0  0  0
    8.5618  -14.3829   19.1854 C   0  0  1  0  0  0  0  0  0  0  0  0
   10.0093  -13.9943   19.3396 C   0  0  0  0  0  0  0  0  0  0  0  0
   10.8878  -14.9984   19.9807 C   0  0  0  0  0  0  0  0  0  0  0  0
   12.3112  -14.6883   20.0861 C   0  0  0  0  0  0  0  0  0  0  0  0
   12.7700  -13.6527   19.5227 O   0  0  0  0  0  0  0  0  0  0  0  0
    8.0669  -14.7267   20.5586 C   0  0  0  0  0  0  0  0  0  0  0  0
    7.8376  -13.7556   21.3197 O   0  0  0  0  0  0  0  0  0  0  0  0
   13.1980  -15.4781   20.7758 O   0  0  0  0  0  0  0  0  0  0  0  0
    6.8267  -19.4147   27.0192 N   0  0  0  0  0  0  0  0  0  0  0  0
    7.2113  -20.4781   26.1336 C   0  0  0  0  0  0  0  0  0  0  0  0
    7.9892  -21.3884   26.5812 N   0  0  0  0  0  0  0  0  0  0  0  0
    6.7303  -20.4989   24.7985 N   0  0  0  0  0  0  0  0  0  0  0  0
    6.2567  -19.2489   24.2365 C   0  0  0  0  0  0  0  0  0  0  0  0
    7.3963  -18.2863   23.9903 C   0  0  0  0  0  0  0  0  0  0  0  0
    7.4785  -17.8419   22.5618 C   0  0  0  0  0  0  0  0  0  0  0  0
    7.3805  -16.3637   22.3696 C   0  0  2  0  0  0  0  0  0  0  0  0
    7.8506  -16.0276   21.0361 N   0  0  0  0  0  0  0  0  0  0  0  0
    8.2009  -15.6899   23.4153 C   0  0  0  0  0  0  0  0  0  0  0  0
    9.4355  -15.5831   23.2346 O   0  0  0  0  0  0  0  0  0  0  0  0
    8.3022  -22.1642   25.9959 C   0  0  0  0  0  0  0  0  0  0  0  0
    5.7773  -11.8550   26.5419 C   0  0  0  0  0  0  0  0  0  0  0  0
    6.7591  -12.5756   25.6441 C   0  0  2  0  0  0  0  0  0  0  0  0
    7.5819  -13.5654   26.4452 C   0  0  0  0  0  0  0  0  0  0  0  0
    8.3855  -12.8234   27.4744 C   0  0  2  0  0  0  0  0  0  0  0  0
    8.3897  -14.4702   25.5763 N   0  0  0  0  0  0  0  0  0  0  0  0
    7.6101  -15.1755   24.5963 C   0  0  0  0  0  0  0  0  0  0  0  0
    9.0962  -15.4340   26.4747 O   0  0  0  0  0  0  0  0  0  0  0  0
    8.5624  -16.5350   26.7647 O   0  0  0  0  0  0  0  0  0  0  0  0
  2  1  1  1
  3  4  1  0
  3  2  1  0
  4  5  1  0
  5  9  1  0
  5  6  2  0
  7  2  1  0
  7  8  2  0
 11 10  1  0
 11 13  1  0
 12 11  2  0
 14 13  1  0
 15 16  1  0
 15 14  1  0
 17 16  1  1
 17 18  1  0
 18  7  1  0
 19 17  1  0
 20 19  2  0
 21 22  1  0
 22 23  1  0
 23 25  1  0
 23 24  1  1
 25 26  1  6
 25 27  1  0
 26 19  1  0
 27 29  1  0
 28 27  2  0
M  END
$$$$
