ERI.pdb
     RDKit          3D

 29 28  0  0  1  0  0  0  0  0999 V2000
   11.0499  -16.4004   18.8630 N   0  0  0  0  0  0  0  0  0  0  0  0
   11.1767  -16.8976   20.1961 C   0  0  1  0  0  0  0  0  0  0  0  0
   12.4830  -16.4380   20.7898 C   0  0  0  0  0  0  0  0  0  0  0  0
   12.7295  -16.8240   22.1974 C   0  0  0  0  0  0  0  0  0  0  0  0
   13.9717  -16.3722   22.8190 C   0  0  0  0  0  0  0  0  0  0  0  0
   14.2799  -15.1458   22.7834 O   0  0  0  0  0  0  0  0  0  0  0  0
   10.0990  -16.4214   21.1238 C   0  0  0  0  0  0  0  0  0  0  0  0
    9.8925  -15.1837   21.1377 O   0  0  0  0  0  0  0  0  0  0  0  0
   14.8431  -17.2248   23.4510 O   0  0  0  0  0  0  0  0  0  0  0  0
    6.6086  -22.9208   23.0027 N   0  0  0  0  0  0  0  0  0  0  0  0
    5.5932  -21.9882   23.4054 C   0  0  0  0  0  0  0  0  0  0  0  0
    4.5527  -22.4416   23.9936 N   0  0  0  0  0  0  0  0  0  0  0  0
    5.7589  -20.6026   23.1464 N   0  0  0  0  0  0  0  0  0  0  0  0
    6.7481  -20.2186   22.1582 C   0  0  0  0  0  0  0  0  0  0  0  0
    6.7783  -18.7200   21.9595 C   0  0  0  0  0  0  0  0  0  0  0  0
    7.3724  -17.9944   23.1279 C   0  0  0  0  0  0  0  0  0  0  0  0
    8.2000  -16.8065   22.7597 C   0  0  2  0  0  0  0  0  0  0  0  0
    9.3281  -17.2463   21.9560 N   0  0  0  0  0  0  0  0  0  0  0  0
    8.6581  -16.1367   24.0095 C   0  0  0  0  0  0  0  0  0  0  0  0
    9.8301  -16.3357   24.4034 O   0  0  0  0  0  0  0  0  0  0  0  0
    3.7722  -21.8351   24.2494 C   0  0  0  0  0  0  0  0  0  0  0  0
    5.8191  -11.6786   25.7781 C   0  0  0  0  0  0  0  0  0  0  0  0
    6.9746  -12.5532   25.3431 C   0  0  2  0  0  0  0  0  0  0  0  0
    7.3095  -13.5642   26.4222 C   0  0  0  0  0  0  0  0  0  0  0  0
    7.7816  -12.8400   27.6503 C   0  0  2  0  0  0  0  0  0  0  0  0
    8.2442  -14.6230   25.9410 N   0  0  0  0  0  0  0  0  0  0  0  0
    7.7961  -15.2888   24.7487 C   0  0  0  0  0  0  0  0  0  0  0  0
    8.4143  -15.6048   27.0556 O   0  0  0  0  0  0  0  0  0  0  0  0
    7.6715  -16.6171   27.1247 O   0  0  0  0  0  0  0  0  0  0  0  0
  2  1  1  6
  3  4  1  0
  3  2  1  0
  4  5  1  0
  5  9  1  0
  5  6  2  0
  7  2  1  0
  7  8  2  0
 11 10  1  0
 11 13  1  0
 12 11  2  0
 14 13  1  0
 15 16  1  0
 15 14  1  0
 17 16  1  1
 17 18  1  0
 18  7  1  0
 19 17  1  0
 20 19  2  0
 21 22  1  0
 22 23  1  0
 23 25  1  0
 23 24  1  1
 25 26  1  6
 25 27  1  0
 26 19  1  0
 27 29  1  0
 28 27  2  0
M  END
$$$$
