ERI.pdb
     RDKit          3D

 29 28  0  0  1  0  0  0  0  0999 V2000
   13.5674  -17.4501   21.5371 N   0  0  0  0  0  0  0  0  0  0  0  0
   12.2105  -17.7979   21.8165 C   0  0  1  0  0  0  0  0  0  0  0  0
   12.1585  -18.7601   22.9748 C   0  0  0  0  0  0  0  0  0  0  0  0
   12.7398  -18.2779   24.2478 C   0  0  0  0  0  0  0  0  0  0  0  0
   12.7821  -19.2094   25.3721 C   0  0  0  0  0  0  0  0  0  0  0  0
   11.7016  -19.6251   25.8821 O   0  0  0  0  0  0  0  0  0  0  0  0
   11.3533  -16.6283   22.1988 C   0  0  0  0  0  0  0  0  0  0  0  0
   11.9167  -15.7291   22.8687 O   0  0  0  0  0  0  0  0  0  0  0  0
   13.9560  -19.6661   25.9191 O   0  0  0  0  0  0  0  0  0  0  0  0
    8.2923  -12.8303   18.2705 N   0  0  0  0  0  0  0  0  0  0  0  0
    7.9796  -13.8497   17.3082 C   0  0  0  0  0  0  0  0  0  0  0  0
    8.5003  -13.7644   16.1439 N   0  0  0  0  0  0  0  0  0  0  0  0
    7.1112  -14.9157   17.6601 N   0  0  0  0  0  0  0  0  0  0  0  0
    6.8686  -15.1454   19.0711 C   0  0  0  0  0  0  0  0  0  0  0  0
    8.1355  -14.9931   19.8820 C   0  0  0  0  0  0  0  0  0  0  0  0
    7.9468  -15.3596   21.3224 C   0  0  0  0  0  0  0  0  0  0  0  0
    9.1941  -15.2994   22.1423 C   0  0  2  0  0  0  0  0  0  0  0  0
    9.9988  -16.4780   21.8671 N   0  0  0  0  0  0  0  0  0  0  0  0
    8.8173  -15.2292   23.5822 C   0  0  0  0  0  0  0  0  0  0  0  0
    9.0504  -16.2187   24.3136 O   0  0  0  0  0  0  0  0  0  0  0  0
    8.3376  -14.4744   15.4285 C   0  0  0  0  0  0  0  0  0  0  0  0
    6.6671  -11.1643   27.7962 C   0  0  0  0  0  0  0  0  0  0  0  0
    7.0538  -12.5769   27.4164 C   0  0  2  0  0  0  0  0  0  0  0  0
    7.2795  -12.6806   25.9208 C   0  0  0  0  0  0  0  0  0  0  0  0
    6.0047  -12.3422   25.2026 C   0  0  2  0  0  0  0  0  0  0  0  0
    7.8747  -13.9900   25.5236 N   0  0  0  0  0  0  0  0  0  0  0  0
    8.2060  -14.0728   24.1276 C   0  0  0  0  0  0  0  0  0  0  0  0
    6.8911  -15.0542   25.8915 O   0  0  0  0  0  0  0  0  0  0  0  0
    6.0307  -15.4349   25.0573 O   0  0  0  0  0  0  0  0  0  0  0  0
  2  1  1  1
  3  4  1  0
  3  2  1  0
  4  5  1  0
  5  9  1  0
  5  6  2  0
  7  2  1  0
  7  8  2  0
 11 10  1  0
 11 13  1  0
 12 11  2  0
 14 13  1  0
 15 16  1  0
 15 14  1  0
 17 16  1  6
 17 18  1  0
 18  7  1  0
 19 17  1  0
 20 19  2  0
 21 22  1  0
 22 23  1  0
 23 25  1  0
 23 24  1  6
 25 26  1  1
 25 27  1  0
 26 19  1  0
 27 29  1  0
 28 27  2  0
M  END
$$$$
