ERI.pdb
     RDKit          3D

 29 28  0  0  1  0  0  0  0  0999 V2000
    8.6061  -13.2114   18.5002 N   0  0  0  0  0  0  0  0  0  0  0  0
    8.9776  -14.5158   18.9483 C   0  0  1  0  0  0  0  0  0  0  0  0
   10.4779  -14.6140   19.0450 C   0  0  0  0  0  0  0  0  0  0  0  0
   11.1330  -13.6700   19.9782 C   0  0  0  0  0  0  0  0  0  0  0  0
   12.5859  -13.7420   20.1100 C   0  0  0  0  0  0  0  0  0  0  0  0
   13.3206  -13.1121   19.2952 O   0  0  0  0  0  0  0  0  0  0  0  0
    8.4421  -14.8641   20.3051 C   0  0  0  0  0  0  0  0  0  0  0  0
    7.9077  -13.9249   20.9432 O   0  0  0  0  0  0  0  0  0  0  0  0
   13.2111  -14.4739   21.0893 O   0  0  0  0  0  0  0  0  0  0  0  0
    8.8891  -20.2325   18.8935 N   0  0  0  0  0  0  0  0  0  0  0  0
    7.5990  -20.8407   19.0632 C   0  0  0  0  0  0  0  0  0  0  0  0
    6.9530  -21.1934   18.0180 N   0  0  0  0  0  0  0  0  0  0  0  0
    7.0718  -21.0352   20.3665 N   0  0  0  0  0  0  0  0  0  0  0  0
    7.6620  -20.2729   21.4495 C   0  0  0  0  0  0  0  0  0  0  0  0
    7.5382  -18.7851   21.2101 C   0  0  0  0  0  0  0  0  0  0  0  0
    8.0316  -17.9710   22.3670 C   0  0  0  0  0  0  0  0  0  0  0  0
    7.9161  -16.4941   22.1752 C   0  0  2  0  0  0  0  0  0  0  0  0
    8.4990  -16.1363   20.8929 N   0  0  0  0  0  0  0  0  0  0  0  0
    8.6198  -15.8096   23.2961 C   0  0  0  0  0  0  0  0  0  0  0  0
    9.8650  -15.6881   23.2395 O   0  0  0  0  0  0  0  0  0  0  0  0
    5.9933  -21.5382   18.0697 C   0  0  0  0  0  0  0  0  0  0  0  0
    6.1849  -11.6951   25.8456 C   0  0  0  0  0  0  0  0  0  0  0  0
    7.2498  -12.5485   25.1921 C   0  0  2  0  0  0  0  0  0  0  0  0
    7.7621  -13.5931   26.1642 C   0  0  0  0  0  0  0  0  0  0  0  0
    8.4529  -12.9086   27.3086 C   0  0  2  0  0  0  0  0  0  0  0  0
    8.5855  -14.6410   25.4931 N   0  0  0  0  0  0  0  0  0  0  0  0
    7.9079  -15.3012   24.4111 C   0  0  0  0  0  0  0  0  0  0  0  0
    8.9851  -15.6298   26.5408 O   0  0  0  0  0  0  0  0  0  0  0  0
    9.8498  -15.3242   27.4011 O   0  0  0  0  0  0  0  0  0  0  0  0
  2  1  1  1
  3  4  1  0
  3  2  1  0
  4  5  1  0
  5  9  1  0
  5  6  2  0
  7  2  1  0
  7  8  2  0
 11 10  1  0
 11 13  1  0
 12 11  2  0
 14 13  1  0
 15 16  1  0
 15 14  1  0
 17 16  1  1
 17 18  1  0
 18  7  1  0
 19 17  1  0
 20 19  2  0
 21 22  1  0
 22 23  1  0
 23 25  1  0
 23 24  1  1
 25 26  1  6
 25 27  1  0
 26 19  1  0
 27 29  1  0
 28 27  2  0
M  END
$$$$
