ERI.pdb
     RDKit          3D

 29 28  0  0  1  0  0  0  0  0999 V2000
    8.7583  -13.4629   18.2815 N   0  0  0  0  0  0  0  0  0  0  0  0
    9.0797  -14.5680   19.1275 C   0  0  1  0  0  0  0  0  0  0  0  0
   10.5391  -14.5187   19.4989 C   0  0  0  0  0  0  0  0  0  0  0  0
   11.4543  -13.9753   18.4702 C   0  0  0  0  0  0  0  0  0  0  0  0
   12.8873  -14.0033   18.7517 C   0  0  0  0  0  0  0  0  0  0  0  0
   13.6898  -14.4327   17.8731 O   0  0  0  0  0  0  0  0  0  0  0  0
    8.3148  -14.5843   20.4173 C   0  0  0  0  0  0  0  0  0  0  0  0
    8.0810  -13.4640   20.9322 O   0  0  0  0  0  0  0  0  0  0  0  0
   13.4220  -13.5826   19.9445 O   0  0  0  0  0  0  0  0  0  0  0  0
    6.2556  -22.6329   21.4065 N   0  0  0  0  0  0  0  0  0  0  0  0
    6.7910  -21.9934   22.5758 C   0  0  0  0  0  0  0  0  0  0  0  0
    6.7259  -22.6157   23.6905 N   0  0  0  0  0  0  0  0  0  0  0  0
    7.3722  -20.7024   22.4757 N   0  0  0  0  0  0  0  0  0  0  0  0
    6.4774  -19.5615   22.4852 C   0  0  0  0  0  0  0  0  0  0  0  0
    7.2415  -18.2589   22.4111 C   0  0  0  0  0  0  0  0  0  0  0  0
    6.3407  -17.0622   22.3758 C   0  0  0  0  0  0  0  0  0  0  0  0
    7.0566  -15.7544   22.2824 C   0  0  2  0  0  0  0  0  0  0  0  0
    7.8571  -15.7386   21.0695 N   0  0  0  0  0  0  0  0  0  0  0  0
    7.9099  -15.5886   23.4927 C   0  0  0  0  0  0  0  0  0  0  0  0
    9.1454  -15.7638   23.3859 O   0  0  0  0  0  0  0  0  0  0  0  0
    7.0759  -22.2049   24.5572 C   0  0  0  0  0  0  0  0  0  0  0  0
    6.1792  -11.4379   26.2666 C   0  0  0  0  0  0  0  0  0  0  0  0
    7.0996  -12.4137   25.5667 C   0  0  2  0  0  0  0  0  0  0  0  0
    7.4928  -13.5377   26.5053 C   0  0  0  0  0  0  0  0  0  0  0  0
    8.2965  -12.9753   27.6425 C   0  0  2  0  0  0  0  0  0  0  0  0
    8.1530  -14.6704   25.7929 N   0  0  0  0  0  0  0  0  0  0  0  0
    7.3491  -15.2402   24.7467 C   0  0  0  0  0  0  0  0  0  0  0  0
    8.4863  -15.7057   26.8187 O   0  0  0  0  0  0  0  0  0  0  0  0
    7.7832  -16.7431   26.9210 O   0  0  0  0  0  0  0  0  0  0  0  0
  2  1  1  6
  3  4  1  0
  3  2  1  0
  4  5  1  0
  5  9  1  0
  5  6  2  0
  7  2  1  0
  7  8  2  0
 11 10  1  0
 11 13  1  0
 12 11  2  0
 14 13  1  0
 15 16  1  0
 15 14  1  0
 17 16  1  1
 17 18  1  0
 18  7  1  0
 19 17  1  0
 20 19  2  0
 21 22  1  0
 22 23  1  0
 23 25  1  0
 23 24  1  1
 25 26  1  6
 25 27  1  0
 26 19  1  0
 27 29  1  0
 28 27  2  0
M  END
$$$$
