ERI.pdb
     RDKit          3D

 29 28  0  0  1  0  0  0  0  0999 V2000
    6.0281  -18.9004   25.0018 N   0  0  0  0  0  0  0  0  0  0  0  0
    6.9788  -19.2561   23.9968 C   0  0  1  0  0  0  0  0  0  0  0  0
    6.2617  -19.7659   22.7738 C   0  0  0  0  0  0  0  0  0  0  0  0
    7.0414  -19.7673   21.5156 C   0  0  0  0  0  0  0  0  0  0  0  0
    6.3794  -20.2482   20.3057 C   0  0  0  0  0  0  0  0  0  0  0  0
    5.1525  -20.0001   20.1222 O   0  0  0  0  0  0  0  0  0  0  0  0
    7.8329  -18.1111   23.5405 C   0  0  0  0  0  0  0  0  0  0  0  0
    8.8251  -18.4126   22.8336 O   0  0  0  0  0  0  0  0  0  0  0  0
    7.0294  -20.9728   19.3370 O   0  0  0  0  0  0  0  0  0  0  0  0
    7.5241  -12.3229   18.9972 N   0  0  0  0  0  0  0  0  0  0  0  0
    7.9785  -13.5396   18.3839 C   0  0  0  0  0  0  0  0  0  0  0  0
    7.6023  -13.7932   17.1888 N   0  0  0  0  0  0  0  0  0  0  0  0
    8.8220  -14.4254   19.1037 N   0  0  0  0  0  0  0  0  0  0  0  0
    8.8694  -14.2832   20.5459 C   0  0  0  0  0  0  0  0  0  0  0  0
    7.6273  -14.8468   21.1983 C   0  0  0  0  0  0  0  0  0  0  0  0
    7.6208  -14.6609   22.6849 C   0  0  0  0  0  0  0  0  0  0  0  0
    8.4488  -15.6535   23.4338 C   0  0  2  0  0  0  0  0  0  0  0  0
    7.6029  -16.7614   23.8449 N   0  0  0  0  0  0  0  0  0  0  0  0
    9.0585  -14.9756   24.6124 C   0  0  0  0  0  0  0  0  0  0  0  0
    9.3083  -13.7506   24.5388 O   0  0  0  0  0  0  0  0  0  0  0  0
    7.9580  -14.5990   16.6724 C   0  0  0  0  0  0  0  0  0  0  0  0
    7.5180  -12.0271   27.1791 C   0  0  0  0  0  0  0  0  0  0  0  0
    8.5029  -12.9848   26.5451 C   0  0  2  0  0  0  0  0  0  0  0  0
    8.9566  -14.0226   27.5529 C   0  0  0  0  0  0  0  0  0  0  0  0
    9.4975  -13.3283   28.7698 C   0  0  2  0  0  0  0  0  0  0  0  0
    9.8876  -15.0257   26.9583 N   0  0  0  0  0  0  0  0  0  0  0  0
    9.3559  -15.6897   25.7999 C   0  0  0  0  0  0  0  0  0  0  0  0
   10.2114  -16.0190   28.0277 O   0  0  0  0  0  0  0  0  0  0  0  0
    9.6809  -17.1590   28.0127 O   0  0  0  0  0  0  0  0  0  0  0  0
  2  1  1  1
  3  4  1  0
  3  2  1  0
  4  5  1  0
  5  9  1  0
  5  6  2  0
  7  2  1  0
  7  8  2  0
 11 10  1  0
 11 13  1  0
 12 11  2  0
 14 13  1  0
 15 16  1  0
 15 14  1  0
 17 16  1  1
 17 18  1  0
 18  7  1  0
 19 17  1  0
 20 19  2  0
 21 22  1  0
 22 23  1  0
 23 25  1  0
 23 24  1  1
 25 26  1  6
 25 27  1  0
 26 19  1  0
 27 29  1  0
 28 27  2  0
M  END
$$$$
