ERI.pdb
     RDKit          3D

 29 28  0  0  1  0  0  0  0  0999 V2000
    5.4533  -18.8416   25.1831 N   0  0  0  0  0  0  0  0  0  0  0  0
    6.8672  -19.0337   25.2486 C   0  0  1  0  0  0  0  0  0  0  0  0
    7.2183  -20.4122   24.7522 C   0  0  0  0  0  0  0  0  0  0  0  0
    6.0779  -21.3144   24.4760 C   0  0  0  0  0  0  0  0  0  0  0  0
    6.3775  -22.6703   24.0231 C   0  0  0  0  0  0  0  0  0  0  0  0
    7.5797  -23.0596   23.9638 O   0  0  0  0  0  0  0  0  0  0  0  0
    7.6479  -18.0688   24.4069 C   0  0  0  0  0  0  0  0  0  0  0  0
    8.8734  -18.3106   24.2865 O   0  0  0  0  0  0  0  0  0  0  0  0
    5.4046  -23.5638   23.6474 O   0  0  0  0  0  0  0  0  0  0  0  0
    7.2210  -12.7861   17.7691 N   0  0  0  0  0  0  0  0  0  0  0  0
    8.0698  -13.9395   17.8792 C   0  0  0  0  0  0  0  0  0  0  0  0
    9.0245  -14.0719   17.0395 N   0  0  0  0  0  0  0  0  0  0  0  0
    7.8371  -14.8973   18.9004 N   0  0  0  0  0  0  0  0  0  0  0  0
    8.5415  -14.7239   20.1558 C   0  0  0  0  0  0  0  0  0  0  0  0
    7.6239  -14.1988   21.2368 C   0  0  0  0  0  0  0  0  0  0  0  0
    6.9744  -15.2946   22.0255 C   0  0  0  0  0  0  0  0  0  0  0  0
    7.8788  -15.9681   23.0053 C   0  0  2  0  0  0  0  0  0  0  0  0
    7.1130  -16.9431   23.7637 N   0  0  0  0  0  0  0  0  0  0  0  0
    8.4697  -14.9337   23.9004 C   0  0  0  0  0  0  0  0  0  0  0  0
    8.9663  -13.9057   23.3855 O   0  0  0  0  0  0  0  0  0  0  0  0
    9.6961  -14.8381   17.1049 C   0  0  0  0  0  0  0  0  0  0  0  0
    5.8464  -11.8649   26.9344 C   0  0  0  0  0  0  0  0  0  0  0  0
    6.6081  -13.1470   26.6783 C   0  0  2  0  0  0  0  0  0  0  0  0
    7.9941  -12.8423   26.1446 C   0  0  0  0  0  0  0  0  0  0  0  0
    7.8745  -12.2042   24.7904 C   0  0  1  0  0  0  0  0  0  0  0  0
    8.8932  -14.0325   26.1811 N   0  0  0  0  0  0  0  0  0  0  0  0
    8.4775  -15.0959   25.3082 C   0  0  0  0  0  0  0  0  0  0  0  0
    8.9426  -14.5080   27.5977 O   0  0  0  0  0  0  0  0  0  0  0  0
    9.5014  -13.8078   28.4800 O   0  0  0  0  0  0  0  0  0  0  0  0
  2  1  1  6
  3  4  1  0
  3  2  1  0
  4  5  1  0
  5  9  1  0
  5  6  2  0
  7  2  1  0
  7  8  2  0
 11 10  1  0
 11 13  1  0
 12 11  2  0
 14 13  1  0
 15 16  1  0
 15 14  1  0
 17 16  1  6
 17 18  1  0
 18  7  1  0
 19 17  1  0
 20 19  2  0
 21 22  1  0
 22 23  1  0
 23 25  1  0
 23 24  1  1
 25 26  1  6
 25 27  1  0
 26 19  1  0
 27 29  1  0
 28 27  2  0
M  END
$$$$
