ERI.pdb
     RDKit          3D

 29 28  0  0  1  0  0  0  0  0999 V2000
    9.2431  -17.3640   18.9544 N   0  0  0  0  0  0  0  0  0  0  0  0
    9.4690  -18.1470   20.1276 C   0  0  1  0  0  0  0  0  0  0  0  0
   10.9434  -18.1931   20.4340 C   0  0  0  0  0  0  0  0  0  0  0  0
   11.7705  -17.1342   19.8132 C   0  0  0  0  0  0  0  0  0  0  0  0
   13.2134  -17.1800   20.0356 C   0  0  0  0  0  0  0  0  0  0  0  0
   14.0026  -17.0549   19.0549 O   0  0  0  0  0  0  0  0  0  0  0  0
    8.7982  -17.6049   21.3544 C   0  0  0  0  0  0  0  0  0  0  0  0
    8.2758  -16.4696   21.2395 O   0  0  0  0  0  0  0  0  0  0  0  0
   13.7717  -17.3580   21.2775 O   0  0  0  0  0  0  0  0  0  0  0  0
    4.3404  -21.9306   25.8764 N   0  0  0  0  0  0  0  0  0  0  0  0
    5.0137  -22.6959   24.8645 C   0  0  0  0  0  0  0  0  0  0  0  0
    4.9764  -23.9712   24.9439 N   0  0  0  0  0  0  0  0  0  0  0  0
    5.6985  -22.0342   23.8121 N   0  0  0  0  0  0  0  0  0  0  0  0
    6.8731  -21.2584   24.1597 C   0  0  0  0  0  0  0  0  0  0  0  0
    6.5338  -19.7977   24.3526 C   0  0  0  0  0  0  0  0  0  0  0  0
    7.7372  -18.9616   24.6649 C   0  0  0  0  0  0  0  0  0  0  0  0
    7.9475  -17.8121   23.7344 C   0  0  2  0  0  0  0  0  0  0  0  0
    8.7197  -18.2649   22.5895 N   0  0  0  0  0  0  0  0  0  0  0  0
    8.6580  -16.7268   24.4676 C   0  0  0  0  0  0  0  0  0  0  0  0
    9.8886  -16.8428   24.6687 O   0  0  0  0  0  0  0  0  0  0  0  0
    5.3550  -24.5674   24.2065 C   0  0  0  0  0  0  0  0  0  0  0  0
    5.9995  -11.9645   26.6353 C   0  0  0  0  0  0  0  0  0  0  0  0
    6.5699  -13.3484   26.4147 C   0  0  2  0  0  0  0  0  0  0  0  0
    7.9211  -13.2621   25.7324 C   0  0  0  0  0  0  0  0  0  0  0  0
    7.7534  -12.6342   24.3786 C   0  0  1  0  0  0  0  0  0  0  0  0
    8.6346  -14.5724   25.7133 N   0  0  0  0  0  0  0  0  0  0  0  0
    7.9684  -15.5802   24.9347 C   0  0  0  0  0  0  0  0  0  0  0  0
    8.7799  -15.0193   27.1326 O   0  0  0  0  0  0  0  0  0  0  0  0
    9.4691  -14.3451   27.9398 O   0  0  0  0  0  0  0  0  0  0  0  0
  2  1  1  6
  3  4  1  0
  3  2  1  0
  4  5  1  0
  5  9  1  0
  5  6  2  0
  7  2  1  0
  7  8  2  0
 11 10  1  0
 11 13  1  0
 12 11  2  0
 14 13  1  0
 15 16  1  0
 15 14  1  0
 17 16  1  1
 17 18  1  0
 18  7  1  0
 19 17  1  0
 20 19  2  0
 21 22  1  0
 22 23  1  0
 23 25  1  0
 23 24  1  1
 25 26  1  6
 25 27  1  0
 26 19  1  0
 27 29  1  0
 28 27  2  0
M  END
$$$$
