ERI.pdb
     RDKit          3D

 29 28  0  0  1  0  0  0  0  0999 V2000
    8.4271  -17.9509   18.7893 N   0  0  0  0  0  0  0  0  0  0  0  0
    8.6459  -16.6526   19.3434 C   0  0  1  0  0  0  0  0  0  0  0  0
    8.0404  -15.6058   18.4448 C   0  0  0  0  0  0  0  0  0  0  0  0
    8.2190  -14.1997   18.8715 C   0  0  0  0  0  0  0  0  0  0  0  0
    7.6347  -13.1554   18.0340 C   0  0  0  0  0  0  0  0  0  0  0  0
    7.6641  -11.9516   18.4222 O   0  0  0  0  0  0  0  0  0  0  0  0
    8.0260  -16.4602   20.6953 C   0  0  0  0  0  0  0  0  0  0  0  0
    6.8636  -15.9872   20.7051 O   0  0  0  0  0  0  0  0  0  0  0  0
    7.0399  -13.4148   16.8238 O   0  0  0  0  0  0  0  0  0  0  0  0
    7.8882  -22.1488   27.1039 N   0  0  0  0  0  0  0  0  0  0  0  0
    6.9063  -21.1890   27.5252 C   0  0  0  0  0  0  0  0  0  0  0  0
    6.1281  -21.5015   28.4900 N   0  0  0  0  0  0  0  0  0  0  0  0
    6.8171  -19.9317   26.8729 N   0  0  0  0  0  0  0  0  0  0  0  0
    7.6089  -19.7407   25.6733 C   0  0  0  0  0  0  0  0  0  0  0  0
    7.4448  -18.3437   25.1190 C   0  0  0  0  0  0  0  0  0  0  0  0
    8.1236  -18.1640   23.7954 C   0  0  0  0  0  0  0  0  0  0  0  0
    7.9774  -16.7984   23.2080 C   0  0  2  0  0  0  0  0  0  0  0  0
    8.6439  -16.7645   21.9170 N   0  0  0  0  0  0  0  0  0  0  0  0
    8.5733  -15.8072   24.1476 C   0  0  0  0  0  0  0  0  0  0  0  0
    9.8027  -15.5785   24.0801 O   0  0  0  0  0  0  0  0  0  0  0  0
    5.3810  -20.8793   28.8017 C   0  0  0  0  0  0  0  0  0  0  0  0
    5.2896  -11.9180   26.4365 C   0  0  0  0  0  0  0  0  0  0  0  0
    6.4146  -12.6158   25.7037 C   0  0  2  0  0  0  0  0  0  0  0  0
    7.3381  -13.3083   26.6866 C   0  0  0  0  0  0  0  0  0  0  0  0
    7.9258  -12.2873   27.6181 C   0  0  2  0  0  0  0  0  0  0  0  0
    8.3502  -14.1694   26.0081 N   0  0  0  0  0  0  0  0  0  0  0  0
    7.7775  -15.1290   25.1044 C   0  0  0  0  0  0  0  0  0  0  0  0
    9.1331  -14.8609   27.0777 O   0  0  0  0  0  0  0  0  0  0  0  0
    9.8781  -14.1982   27.8439 O   0  0  0  0  0  0  0  0  0  0  0  0
  2  1  1  6
  3  4  1  0
  3  2  1  0
  4  5  1  0
  5  9  1  0
  5  6  2  0
  7  2  1  0
  7  8  2  0
 11 10  1  0
 11 13  1  0
 12 11  2  0
 14 13  1  0
 15 16  1  0
 15 14  1  0
 17 16  1  1
 17 18  1  0
 18  7  1  0
 19 17  1  0
 20 19  2  0
 21 22  1  0
 22 23  1  0
 23 25  1  0
 23 24  1  1
 25 26  1  6
 25 27  1  0
 26 19  1  0
 27 29  1  0
 28 27  2  0
M  END
$$$$
