ERI.pdb
     RDKit          3D

 29 28  0  0  1  0  0  0  0  0999 V2000
    7.9886  -15.7297   18.2902 N   0  0  0  0  0  0  0  0  0  0  0  0
    8.9515  -15.9263   19.3268 C   0  0  1  0  0  0  0  0  0  0  0  0
    9.9060  -14.7612   19.3642 C   0  0  0  0  0  0  0  0  0  0  0  0
   10.9040  -14.7725   20.4573 C   0  0  0  0  0  0  0  0  0  0  0  0
   12.2976  -14.5079   20.1087 C   0  0  0  0  0  0  0  0  0  0  0  0
   13.0367  -15.4574   19.7181 O   0  0  0  0  0  0  0  0  0  0  0  0
    8.3517  -16.0266   20.6976 C   0  0  0  0  0  0  0  0  0  0  0  0
    7.6066  -15.0776   21.0427 O   0  0  0  0  0  0  0  0  0  0  0  0
   12.8619  -13.2584   20.1861 O   0  0  0  0  0  0  0  0  0  0  0  0
    7.1692  -21.1538   27.8365 N   0  0  0  0  0  0  0  0  0  0  0  0
    6.3910  -21.5408   26.6930 C   0  0  0  0  0  0  0  0  0  0  0  0
    5.4123  -22.3439   26.8696 N   0  0  0  0  0  0  0  0  0  0  0  0
    6.7175  -21.0346   25.4079 N   0  0  0  0  0  0  0  0  0  0  0  0
    7.9169  -20.2285   25.2893 C   0  0  0  0  0  0  0  0  0  0  0  0
    7.6016  -18.8389   24.7837 C   0  0  0  0  0  0  0  0  0  0  0  0
    8.0893  -18.6085   23.3859 C   0  0  0  0  0  0  0  0  0  0  0  0
    7.9587  -17.1978   22.9123 C   0  0  2  0  0  0  0  0  0  0  0  0
    8.5642  -17.0824   21.5961 N   0  0  0  0  0  0  0  0  0  0  0  0
    8.6294  -16.2995   23.8939 C   0  0  0  0  0  0  0  0  0  0  0  0
    9.8810  -16.2694   23.9239 O   0  0  0  0  0  0  0  0  0  0  0  0
    4.8769  -22.7199   26.0857 C   0  0  0  0  0  0  0  0  0  0  0  0
    5.7564  -11.9315   25.8439 C   0  0  0  0  0  0  0  0  0  0  0  0
    6.8382  -12.7759   25.2066 C   0  0  2  0  0  0  0  0  0  0  0  0
    7.5927  -13.5572   26.2644 C   0  0  0  0  0  0  0  0  0  0  0  0
    8.2492  -12.5977   27.2150 C   0  0  2  0  0  0  0  0  0  0  0  0
    8.5225  -14.5640   25.6744 N   0  0  0  0  0  0  0  0  0  0  0  0
    7.8793  -15.4897   24.7828 C   0  0  0  0  0  0  0  0  0  0  0  0
    9.1657  -15.2932   26.8102 O   0  0  0  0  0  0  0  0  0  0  0  0
    8.6675  -16.3669   27.2346 O   0  0  0  0  0  0  0  0  0  0  0  0
  2  1  1  6
  3  4  1  0
  3  2  1  0
  4  5  1  0
  5  9  1  0
  5  6  2  0
  7  2  1  0
  7  8  2  0
 11 10  1  0
 11 13  1  0
 12 11  2  0
 14 13  1  0
 15 16  1  0
 15 14  1  0
 17 16  1  1
 17 18  1  0
 18  7  1  0
 19 17  1  0
 20 19  2  0
 21 22  1  0
 22 23  1  0
 23 25  1  0
 23 24  1  1
 25 26  1  6
 25 27  1  0
 26 19  1  0
 27 29  1  0
 28 27  2  0
M  END
$$$$
