TVE.pdb
     RDKit          3D

 24 23  0  0  1  0  0  0  0  0999 V2000
   -1.7003  -20.6198   24.3282 C   0  0  0  0  0  0  0  0  0  0  0  0
   -2.6218  -21.4838   25.1144 C   0  0  1  0  0  0  0  0  0  0  0  0
   -3.5070  -22.1510   24.3024 O   0  0  0  0  0  0  0  0  0  0  0  0
   -1.8351  -22.5123   25.9347 C   0  0  2  0  0  0  0  0  0  0  0  0
   -1.2684  -23.5031   25.0476 N   0  0  0  0  0  0  0  0  0  0  0  0
   -2.7988  -23.2212   26.8385 C   0  0  0  0  0  0  0  0  0  0  0  0
   -3.3138  -24.3291   26.5416 O   0  0  0  0  0  0  0  0  0  0  0  0
   -4.1954  -24.2275   31.2937 C   0  0  0  0  0  0  0  0  0  0  0  0
   -3.3367  -23.5817   30.2456 C   0  0  2  0  0  0  0  0  0  0  0  0
   -2.6568  -22.3584   30.7733 C   0  0  0  0  0  0  0  0  0  0  0  0
   -4.0830  -23.3224   28.9568 C   0  0  2  0  0  0  0  0  0  0  0  0
   -3.1436  -22.6176   28.0737 N   0  0  0  0  0  0  0  0  0  0  0  0
   -5.3219  -22.5716   29.1079 C   0  0  0  0  0  0  0  0  0  0  0  0
   -5.3629  -21.2937   29.1825 O   0  0  0  0  0  0  0  0  0  0  0  0
   -6.5768  -23.2103   29.1795 N   0  0  0  0  0  0  0  0  0  0  0  0
   -7.8102  -22.3919   29.2341 C   0  0  1  0  0  0  0  0  0  0  0  0
   -8.8907  -23.3994   28.8112 C   0  0  0  0  0  0  0  0  0  0  0  0
  -10.2660  -22.8183   28.8754 C   0  0  0  0  0  0  0  0  0  0  0  0
  -11.2650  -23.8830   28.5233 C   0  0  0  0  0  0  0  0  0  0  0  0
  -10.9141  -25.0568   28.2408 O   0  0  0  0  0  0  0  0  0  0  0  0
   -8.0143  -21.9466   30.6239 C   0  0  0  0  0  0  0  0  0  0  0  0
   -8.6978  -20.7591   30.8941 O   0  0  0  0  0  0  0  0  0  0  0  0
  -12.6230  -23.5474   28.5103 O   0  0  0  0  0  0  0  0  0  0  0  0
   -7.5660  -22.6406   31.5744 O   0  0  0  0  0  0  0  0  0  0  0  0
  2  1  1  6
  2  3  1  0
  4  5  1  6
  4  6  1  0
  4  2  1  0
  6  7  2  0
  9  8  1  1
  9 10  1  0
  9 11  1  0
 11 13  1  0
 12  6  1  0
 11 12  1  6
 13 14  2  0
 13 15  1  0
 15 16  1  0
 16 21  1  0
 16 17  1  1
 18 17  1  0
 19 20  2  0
 19 18  1  0
 21 24  2  0
 21 22  1  0
 23 19  1  0
M  END
$$$$
