TVE.pdb
     RDKit          3D

 24 23  0  0  1  0  0  0  0  0999 V2000
    5.7172  -16.3214   20.7243 C   0  0  0  0  0  0  0  0  0  0  0  0
    7.1685  -16.1262   20.9875 C   0  0  1  0  0  0  0  0  0  0  0  0
    7.9398  -16.6155   19.9610 O   0  0  0  0  0  0  0  0  0  0  0  0
    7.4910  -14.6401   21.1803 C   0  0  2  0  0  0  0  0  0  0  0  0
    8.4032  -14.2078   20.1456 N   0  0  0  0  0  0  0  0  0  0  0  0
    8.1985  -14.4846   22.4930 C   0  0  0  0  0  0  0  0  0  0  0  0
    9.4509  -14.5283   22.5951 O   0  0  0  0  0  0  0  0  0  0  0  0
    5.8920  -13.8970   26.0633 C   0  0  0  0  0  0  0  0  0  0  0  0
    7.2591  -13.3198   25.8382 C   0  0  2  0  0  0  0  0  0  0  0  0
    7.1831  -11.9056   25.3570 C   0  0  0  0  0  0  0  0  0  0  0  0
    8.1226  -14.1898   24.9534 C   0  0  2  0  0  0  0  0  0  0  0  0
    7.4252  -14.2824   23.6635 N   0  0  0  0  0  0  0  0  0  0  0  0
    8.4087  -15.5135   25.4894 C   0  0  0  0  0  0  0  0  0  0  0  0
    7.4959  -16.3550   25.8043 O   0  0  0  0  0  0  0  0  0  0  0  0
    9.7282  -15.9647   25.6969 N   0  0  0  0  0  0  0  0  0  0  0  0
    9.9600  -17.3472   26.1755 C   0  0  1  0  0  0  0  0  0  0  0  0
   11.0160  -17.8637   25.1857 C   0  0  0  0  0  0  0  0  0  0  0  0
   11.4515  -19.2591   25.4960 C   0  0  0  0  0  0  0  0  0  0  0  0
   12.4706  -19.6917   24.4813 C   0  0  0  0  0  0  0  0  0  0  0  0
   13.1078  -18.8623   23.7835 O   0  0  0  0  0  0  0  0  0  0  0  0
   10.5017  -17.2831   27.5444 C   0  0  0  0  0  0  0  0  0  0  0  0
   10.5596  -18.4310   28.3377 O   0  0  0  0  0  0  0  0  0  0  0  0
   12.7085  -21.0600   24.3142 O   0  0  0  0  0  0  0  0  0  0  0  0
   10.9122  -16.1843   28.0028 O   0  0  0  0  0  0  0  0  0  0  0  0
  2  1  1  6
  2  3  1  0
  4  5  1  6
  4  6  1  0
  4  2  1  0
  6  7  2  0
  9  8  1  6
  9 10  1  0
  9 11  1  0
 11 13  1  0
 12  6  1  0
 11 12  1  6
 13 14  2  0
 13 15  1  0
 15 16  1  0
 16 21  1  0
 16 17  1  6
 18 17  1  0
 19 20  2  0
 19 18  1  0
 21 24  2  0
 21 22  1  0
 23 19  1  0
M  END
$$$$
