TVE.pdb
     RDKit          3D

 24 23  0  0  1  0  0  0  0  0999 V2000
    6.8446  -18.6335   19.0926 C   0  0  0  0  0  0  0  0  0  0  0  0
    7.6905  -18.4880   17.8773 C   0  0  1  0  0  0  0  0  0  0  0  0
    7.1538  -19.1566   16.8035 O   0  0  0  0  0  0  0  0  0  0  0  0
    7.8563  -17.0105   17.5042 C   0  0  2  0  0  0  0  0  0  0  0  0
    8.6016  -16.9068   16.2699 N   0  0  0  0  0  0  0  0  0  0  0  0
    8.6714  -16.3494   18.5750 C   0  0  0  0  0  0  0  0  0  0  0  0
    9.9151  -16.5066   18.6717 O   0  0  0  0  0  0  0  0  0  0  0  0
    6.7250  -14.0798   21.7097 C   0  0  0  0  0  0  0  0  0  0  0  0
    8.0354  -13.7147   21.0755 C   0  0  2  0  0  0  0  0  0  0  0  0
    7.8571  -12.6845   20.0059 C   0  0  0  0  0  0  0  0  0  0  0  0
    8.8098  -14.9218   20.5972 C   0  0  2  0  0  0  0  0  0  0  0  0
    8.0138  -15.5171   19.5151 N   0  0  0  0  0  0  0  0  0  0  0  0
    9.1078  -15.9055   21.6292 C   0  0  0  0  0  0  0  0  0  0  0  0
    8.2584  -16.7728   22.0375 O   0  0  0  0  0  0  0  0  0  0  0  0
   10.3700  -15.9719   22.2537 N   0  0  0  0  0  0  0  0  0  0  0  0
   10.6566  -17.0703   23.2053 C   0  0  1  0  0  0  0  0  0  0  0  0
   11.9169  -17.7077   22.5998 C   0  0  0  0  0  0  0  0  0  0  0  0
   12.4564  -18.8150   23.4460 C   0  0  0  0  0  0  0  0  0  0  0  0
   13.6683  -19.3974   22.7770 C   0  0  0  0  0  0  0  0  0  0  0  0
   14.6800  -19.7579   23.4309 O   0  0  0  0  0  0  0  0  0  0  0  0
   10.9412  -16.4820   24.5260 C   0  0  0  0  0  0  0  0  0  0  0  0
   11.1879  -15.1133   24.6534 O   0  0  0  0  0  0  0  0  0  0  0  0
   13.6616  -19.5364   21.3851 O   0  0  0  0  0  0  0  0  0  0  0  0
   10.9654  -17.2198   25.5464 O   0  0  0  0  0  0  0  0  0  0  0  0
  2  1  1  1
  2  3  1  0
  4  5  1  6
  4  6  1  0
  4  2  1  0
  6  7  2  0
  9  8  1  6
  9 10  1  0
  9 11  1  0
 11 13  1  0
 12  6  1  0
 11 12  1  6
 13 14  2  0
 13 15  1  0
 15 16  1  0
 16 21  1  0
 16 17  1  6
 18 17  1  0
 19 20  2  0
 19 18  1  0
 21 24  2  0
 21 22  1  0
 23 19  1  0
M  END
$$$$
