TVE.pdb
     RDKit          3D

 24 23  0  0  1  0  0  0  0  0999 V2000
    6.5665  -16.1223   21.5448 C   0  0  0  0  0  0  0  0  0  0  0  0
    7.3735  -15.2601   20.6398 C   0  0  1  0  0  0  0  0  0  0  0  0
    6.9579  -15.3671   19.3345 O   0  0  0  0  0  0  0  0  0  0  0  0
    7.2836  -13.7905   21.0661 C   0  0  2  0  0  0  0  0  0  0  0  0
    7.9602  -12.9648   20.0914 N   0  0  0  0  0  0  0  0  0  0  0  0
    8.0156  -13.6380   22.3657 C   0  0  0  0  0  0  0  0  0  0  0  0
    9.2708  -13.6368   22.4384 O   0  0  0  0  0  0  0  0  0  0  0  0
    7.7984  -12.5048   27.1367 C   0  0  0  0  0  0  0  0  0  0  0  0
    7.1589  -12.6523   25.7869 C   0  0  2  0  0  0  0  0  0  0  0  0
    5.7437  -13.1229   25.9007 C   0  0  0  0  0  0  0  0  0  0  0  0
    7.9793  -13.4992   24.8408 C   0  0  2  0  0  0  0  0  0  0  0  0
    7.2630  -13.4917   23.5579 N   0  0  0  0  0  0  0  0  0  0  0  0
    8.2240  -14.8613   25.2950 C   0  0  0  0  0  0  0  0  0  0  0  0
    7.3427  -15.7888   25.2372 O   0  0  0  0  0  0  0  0  0  0  0  0
    9.4659  -15.2561   25.8328 N   0  0  0  0  0  0  0  0  0  0  0  0
    9.6762  -16.6695   26.2229 C   0  0  1  0  0  0  0  0  0  0  0  0
   11.0118  -17.0026   25.5396 C   0  0  0  0  0  0  0  0  0  0  0  0
   10.8310  -17.8450   24.3186 C   0  0  0  0  0  0  0  0  0  0  0  0
   12.1800  -18.1811   23.7507 C   0  0  0  0  0  0  0  0  0  0  0  0
   12.8201  -17.3708   23.0332 O   0  0  0  0  0  0  0  0  0  0  0  0
    9.7992  -16.7361   27.6898 C   0  0  0  0  0  0  0  0  0  0  0  0
    9.7514  -17.9661   28.3495 O   0  0  0  0  0  0  0  0  0  0  0  0
   12.7304  -19.4358   24.0327 O   0  0  0  0  0  0  0  0  0  0  0  0
    9.9449  -15.6755   28.3531 O   0  0  0  0  0  0  0  0  0  0  0  0
  2  1  1  1
  2  3  1  0
  4  5  1  6
  4  6  1  0
  4  2  1  0
  6  7  2  0
  9  8  1  1
  9 10  1  0
  9 11  1  0
 11 13  1  0
 12  6  1  0
 11 12  1  6
 13 14  2  0
 13 15  1  0
 15 16  1  0
 16 21  1  0
 16 17  1  6
 18 17  1  0
 19 20  2  0
 19 18  1  0
 21 24  2  0
 21 22  1  0
 23 19  1  0
M  END
$$$$
