TVE.pdb
     RDKit          3D

 24 23  0  0  1  0  0  0  0  0999 V2000
    8.6622  -19.4976   19.5893 C   0  0  0  0  0  0  0  0  0  0  0  0
    9.1035  -18.9482   18.2789 C   0  0  1  0  0  0  0  0  0  0  0  0
    8.7161  -19.7539   17.2354 O   0  0  0  0  0  0  0  0  0  0  0  0
    8.5288  -17.5447   18.0566 C   0  0  2  0  0  0  0  0  0  0  0  0
    8.8947  -17.0784   16.7381 N   0  0  0  0  0  0  0  0  0  0  0  0
    9.1651  -16.6193   19.0501 C   0  0  0  0  0  0  0  0  0  0  0  0
   10.3688  -16.2653   18.9694 O   0  0  0  0  0  0  0  0  0  0  0  0
    6.9208  -15.2198   22.4937 C   0  0  0  0  0  0  0  0  0  0  0  0
    7.9497  -14.4289   21.7396 C   0  0  2  0  0  0  0  0  0  0  0  0
    7.3141  -13.5277   20.7292 C   0  0  0  0  0  0  0  0  0  0  0  0
    9.0337  -15.2980   21.1437 C   0  0  2  0  0  0  0  0  0  0  0  0
    8.3794  -16.1268   20.1220 N   0  0  0  0  0  0  0  0  0  0  0  0
    9.7532  -16.1231   22.1043 C   0  0  0  0  0  0  0  0  0  0  0  0
    9.3553  -17.2851   22.4675 O   0  0  0  0  0  0  0  0  0  0  0  0
   10.9544  -15.6934   22.7043 N   0  0  0  0  0  0  0  0  0  0  0  0
   11.8149  -16.6772   23.4013 C   0  0  1  0  0  0  0  0  0  0  0  0
   13.2255  -16.1374   23.1179 C   0  0  0  0  0  0  0  0  0  0  0  0
   14.2809  -16.8838   23.8677 C   0  0  0  0  0  0  0  0  0  0  0  0
   15.6284  -16.3374   23.4920 C   0  0  0  0  0  0  0  0  0  0  0  0
   15.7948  -15.6218   22.4716 O   0  0  0  0  0  0  0  0  0  0  0  0
   11.5074  -16.6292   24.8417 C   0  0  0  0  0  0  0  0  0  0  0  0
   10.7214  -15.5998   25.3642 O   0  0  0  0  0  0  0  0  0  0  0  0
   16.7240  -16.6414   24.3069 O   0  0  0  0  0  0  0  0  0  0  0  0
   11.9599  -17.5211   25.6070 O   0  0  0  0  0  0  0  0  0  0  0  0
  2  1  1  1
  2  3  1  0
  4  5  1  6
  4  6  1  0
  4  2  1  0
  6  7  2  0
  9  8  1  6
  9 10  1  0
  9 11  1  0
 11 13  1  0
 12  6  1  0
 11 12  1  6
 13 14  2  0
 13 15  1  0
 15 16  1  0
 16 21  1  0
 16 17  1  1
 18 17  1  0
 19 20  2  0
 19 18  1  0
 21 24  2  0
 21 22  1  0
 23 19  1  0
M  END
$$$$
