TVE.pdb
     RDKit          3D

 24 23  0  0  1  0  0  0  0  0999 V2000
    6.3344  -16.1267   21.4258 C   0  0  0  0  0  0  0  0  0  0  0  0
    7.3033  -15.2916   20.6659 C   0  0  1  0  0  0  0  0  0  0  0  0
    7.0180  -15.2810   19.3218 O   0  0  0  0  0  0  0  0  0  0  0  0
    7.2980  -13.8480   21.1815 C   0  0  2  0  0  0  0  0  0  0  0  0
    8.0902  -13.0198   20.3005 N   0  0  0  0  0  0  0  0  0  0  0  0
    7.9616  -13.8323   22.5259 C   0  0  0  0  0  0  0  0  0  0  0  0
    9.2087  -13.9112   22.6650 O   0  0  0  0  0  0  0  0  0  0  0  0
    6.6526  -11.5609   25.4552 C   0  0  0  0  0  0  0  0  0  0  0  0
    6.9047  -12.9626   25.9289 C   0  0  2  0  0  0  0  0  0  0  0  0
    7.3833  -12.9833   27.3458 C   0  0  0  0  0  0  0  0  0  0  0  0
    7.8073  -13.7406   24.9986 C   0  0  2  0  0  0  0  0  0  0  0  0
    7.1513  -13.7263   23.6839 N   0  0  0  0  0  0  0  0  0  0  0  0
    8.0958  -15.1033   25.4242 C   0  0  0  0  0  0  0  0  0  0  0  0
    7.1854  -15.9775   25.6422 O   0  0  0  0  0  0  0  0  0  0  0  0
    9.4150  -15.5586   25.6239 N   0  0  0  0  0  0  0  0  0  0  0  0
    9.6466  -16.9522   26.0695 C   0  0  1  0  0  0  0  0  0  0  0  0
   10.8938  -17.3503   25.2649 C   0  0  0  0  0  0  0  0  0  0  0  0
   10.6500  -17.3286   23.7907 C   0  0  0  0  0  0  0  0  0  0  0  0
   11.8904  -17.7915   23.0818 C   0  0  0  0  0  0  0  0  0  0  0  0
   12.9051  -18.1898   23.7085 O   0  0  0  0  0  0  0  0  0  0  0  0
    9.9294  -16.9395   27.5156 C   0  0  0  0  0  0  0  0  0  0  0  0
   10.1175  -15.7311   28.1900 O   0  0  0  0  0  0  0  0  0  0  0  0
   11.9074  -17.7730   21.6832 O   0  0  0  0  0  0  0  0  0  0  0  0
   10.0052  -18.0267   28.1468 O   0  0  0  0  0  0  0  0  0  0  0  0
  2  1  1  1
  2  3  1  0
  4  5  1  6
  4  6  1  0
  4  2  1  0
  6  7  2  0
  9  8  1  6
  9 10  1  0
  9 11  1  0
 11 13  1  0
 12  6  1  0
 11 12  1  6
 13 14  2  0
 13 15  1  0
 15 16  1  0
 16 21  1  0
 16 17  1  6
 18 17  1  0
 19 20  2  0
 19 18  1  0
 21 24  2  0
 21 22  1  0
 23 19  1  0
M  END
$$$$
