TVE.pdb
     RDKit          3D

 24 23  0  0  1  0  0  0  0  0999 V2000
    7.8968  -11.9918   25.5888 C   0  0  0  0  0  0  0  0  0  0  0  0
    7.0261  -12.9155   26.3648 C   0  0  1  0  0  0  0  0  0  0  0  0
    6.2822  -12.2418   27.3034 O   0  0  0  0  0  0  0  0  0  0  0  0
    6.0736  -13.6748   25.4343 C   0  0  2  0  0  0  0  0  0  0  0  0
    5.1643  -14.4737   26.2248 N   0  0  0  0  0  0  0  0  0  0  0  0
    6.8900  -14.6184   24.6030 C   0  0  0  0  0  0  0  0  0  0  0  0
    7.1618  -15.7874   24.9778 O   0  0  0  0  0  0  0  0  0  0  0  0
    8.6724  -13.3400   20.8267 C   0  0  0  0  0  0  0  0  0  0  0  0
    8.0199  -14.6627   21.1049 C   0  0  2  0  0  0  0  0  0  0  0  0
    6.5934  -14.6741   20.6552 C   0  0  0  0  0  0  0  0  0  0  0  0
    8.1804  -15.1029   22.5423 C   0  0  2  0  0  0  0  0  0  0  0  0
    7.3754  -14.1742   23.3477 N   0  0  0  0  0  0  0  0  0  0  0  0
    9.5563  -15.1498   23.0175 C   0  0  0  0  0  0  0  0  0  0  0  0
   10.0455  -14.2937   23.8349 O   0  0  0  0  0  0  0  0  0  0  0  0
   10.4531  -16.1570   22.6067 N   0  0  0  0  0  0  0  0  0  0  0  0
   11.5584  -16.5614   23.5061 C   0  0  1  0  0  0  0  0  0  0  0  0
   10.8072  -17.2286   24.6688 C   0  0  0  0  0  0  0  0  0  0  0  0
   11.7349  -17.7963   25.6936 C   0  0  0  0  0  0  0  0  0  0  0  0
   10.9267  -18.3754   26.8192 C   0  0  0  0  0  0  0  0  0  0  0  0
    9.6700  -18.4029   26.7900 O   0  0  0  0  0  0  0  0  0  0  0  0
   12.4075  -17.5335   22.7951 C   0  0  0  0  0  0  0  0  0  0  0  0
   13.7320  -17.7378   23.1881 O   0  0  0  0  0  0  0  0  0  0  0  0
   11.6020  -18.8945   27.9288 O   0  0  0  0  0  0  0  0  0  0  0  0
   11.9358  -18.1820   21.8239 O   0  0  0  0  0  0  0  0  0  0  0  0
  2  1  1  6
  2  3  1  0
  4  5  1  1
  4  6  1  0
  4  2  1  0
  6  7  2  0
  9  8  1  1
  9 10  1  0
  9 11  1  0
 11 13  1  0
 12  6  1  0
 11 12  1  1
 13 14  2  0
 13 15  1  0
 15 16  1  0
 16 21  1  0
 16 17  1  1
 18 17  1  0
 19 20  2  0
 19 18  1  0
 21 24  2  0
 21 22  1  0
 23 19  1  0
M  END
$$$$
