TVE.pdb
     RDKit          3D

 24 23  0  0  1  0  0  0  0  0999 V2000
    6.4198  -19.5339   17.7163 C   0  0  0  0  0  0  0  0  0  0  0  0
    7.3857  -18.7169   18.4993 C   0  0  1  0  0  0  0  0  0  0  0  0
    8.6432  -19.2706   18.4884 O   0  0  0  0  0  0  0  0  0  0  0  0
    7.4705  -17.2920   17.9407 C   0  0  2  0  0  0  0  0  0  0  0  0
    7.9945  -17.3337   16.5941 N   0  0  0  0  0  0  0  0  0  0  0  0
    8.4487  -16.5225   18.7769 C   0  0  0  0  0  0  0  0  0  0  0  0
    9.6693  -16.4414   18.4864 O   0  0  0  0  0  0  0  0  0  0  0  0
    7.0616  -14.3834   22.2535 C   0  0  0  0  0  0  0  0  0  0  0  0
    8.1020  -13.8990   21.2861 C   0  0  2  0  0  0  0  0  0  0  0  0
    7.5055  -13.0110   20.2407 C   0  0  0  0  0  0  0  0  0  0  0  0
    8.9202  -15.0247   20.6955 C   0  0  2  0  0  0  0  0  0  0  0  0
    7.9791  -15.8632   19.9404 N   0  0  0  0  0  0  0  0  0  0  0  0
    9.6624  -15.8163   21.6669 C   0  0  0  0  0  0  0  0  0  0  0  0
    9.2072  -16.8941   22.1879 O   0  0  0  0  0  0  0  0  0  0  0  0
   10.9512  -15.4458   22.1021 N   0  0  0  0  0  0  0  0  0  0  0  0
   11.7515  -16.3975   22.9071 C   0  0  1  0  0  0  0  0  0  0  0  0
   13.1913  -15.9602   22.5955 C   0  0  0  0  0  0  0  0  0  0  0  0
   14.2044  -16.7698   23.3381 C   0  0  0  0  0  0  0  0  0  0  0  0
   15.5796  -16.2915   22.9698 C   0  0  0  0  0  0  0  0  0  0  0  0
   16.2952  -15.6418   23.7740 O   0  0  0  0  0  0  0  0  0  0  0  0
   11.4300  -16.1911   24.3303 C   0  0  0  0  0  0  0  0  0  0  0  0
   10.7083  -15.0670   24.7376 O   0  0  0  0  0  0  0  0  0  0  0  0
   16.0680  -16.5810   21.6913 O   0  0  0  0  0  0  0  0  0  0  0  0
   11.8122  -17.0330   25.1855 O   0  0  0  0  0  0  0  0  0  0  0  0
  2  1  1  6
  2  3  1  0
  4  5  1  6
  4  6  1  0
  4  2  1  0
  6  7  2  0
  9  8  1  6
  9 10  1  0
  9 11  1  0
 11 13  1  0
 12  6  1  0
 11 12  1  1
 13 14  2  0
 13 15  1  0
 15 16  1  0
 16 21  1  0
 16 17  1  1
 18 17  1  0
 19 20  2  0
 19 18  1  0
 21 24  2  0
 21 22  1  0
 23 19  1  0
M  END
$$$$
