TVE.pdb
     RDKit          3D

 24 23  0  0  1  0  0  0  0  0999 V2000
    7.4187  -19.6110   17.1872 C   0  0  0  0  0  0  0  0  0  0  0  0
    8.0367  -18.7101   18.1971 C   0  0  1  0  0  0  0  0  0  0  0  0
    9.1555  -19.2738   18.7616 O   0  0  0  0  0  0  0  0  0  0  0  0
    8.4272  -17.3701   17.5634 C   0  0  2  0  0  0  0  0  0  0  0  0
    9.4954  -17.5808   16.6126 N   0  0  0  0  0  0  0  0  0  0  0  0
    8.9622  -16.4822   18.6467 C   0  0  0  0  0  0  0  0  0  0  0  0
   10.1885  -16.4052   18.9135 O   0  0  0  0  0  0  0  0  0  0  0  0
    7.2651  -12.8916   19.5985 C   0  0  0  0  0  0  0  0  0  0  0  0
    7.5096  -13.8162   20.7553 C   0  0  2  0  0  0  0  0  0  0  0  0
    7.7652  -13.0563   22.0181 C   0  0  0  0  0  0  0  0  0  0  0  0
    8.5813  -14.8426   20.4669 C   0  0  2  0  0  0  0  0  0  0  0  0
    8.0499  -15.7014   19.3997 N   0  0  0  0  0  0  0  0  0  0  0  0
    8.9957  -15.6340   21.6173 C   0  0  0  0  0  0  0  0  0  0  0  0
    8.2575  -16.5337   22.1522 O   0  0  0  0  0  0  0  0  0  0  0  0
   10.2561  -15.4626   22.2252 N   0  0  0  0  0  0  0  0  0  0  0  0
   10.6868  -16.3992   23.2889 C   0  0  1  0  0  0  0  0  0  0  0  0
   12.1847  -16.0815   23.4182 C   0  0  0  0  0  0  0  0  0  0  0  0
   12.9848  -16.6448   22.2888 C   0  0  0  0  0  0  0  0  0  0  0  0
   14.4245  -16.2556   22.4658 C   0  0  0  0  0  0  0  0  0  0  0  0
   14.9475  -16.1419   23.6036 O   0  0  0  0  0  0  0  0  0  0  0  0
    9.9638  -16.0632   24.5282 C   0  0  0  0  0  0  0  0  0  0  0  0
    9.8901  -16.9828   25.5767 O   0  0  0  0  0  0  0  0  0  0  0  0
   15.1964  -16.0126   21.3249 O   0  0  0  0  0  0  0  0  0  0  0  0
    9.4057  -14.9399   24.6407 O   0  0  0  0  0  0  0  0  0  0  0  0
  2  1  1  6
  2  3  1  0
  4  5  1  6
  4  6  1  0
  4  2  1  0
  6  7  2  0
  9  8  1  6
  9 10  1  0
  9 11  1  0
 11 13  1  0
 12  6  1  0
 11 12  1  6
 13 14  2  0
 13 15  1  0
 15 16  1  0
 16 21  1  0
 16 17  1  1
 18 17  1  0
 19 20  2  0
 19 18  1  0
 21 24  2  0
 21 22  1  0
 23 19  1  0
M  END
$$$$
