TVE.pdb
     RDKit          3D

 24 23  0  0  1  0  0  0  0  0999 V2000
    6.7258  -16.5836   22.1739 C   0  0  0  0  0  0  0  0  0  0  0  0
    7.4535  -15.6776   21.2448 C   0  0  1  0  0  0  0  0  0  0  0  0
    7.0001  -15.8055   19.9539 O   0  0  0  0  0  0  0  0  0  0  0  0
    7.2983  -14.2156   21.6784 C   0  0  2  0  0  0  0  0  0  0  0  0
    7.8782  -13.3521   20.6745 N   0  0  0  0  0  0  0  0  0  0  0  0
    8.0812  -14.0200   22.9420 C   0  0  0  0  0  0  0  0  0  0  0  0
    9.3288  -13.8642   22.9468 O   0  0  0  0  0  0  0  0  0  0  0  0
    6.0131  -13.5863   26.6711 C   0  0  0  0  0  0  0  0  0  0  0  0
    7.3423  -12.9801   26.3267 C   0  0  2  0  0  0  0  0  0  0  0  0
    7.1888  -11.5885   25.8004 C   0  0  0  0  0  0  0  0  0  0  0  0
    8.1671  -13.8594   25.4145 C   0  0  2  0  0  0  0  0  0  0  0  0
    7.3879  -14.0125   24.1782 N   0  0  0  0  0  0  0  0  0  0  0  0
    8.5224  -15.1568   25.9728 C   0  0  0  0  0  0  0  0  0  0  0  0
    7.6654  -16.0813   26.1994 O   0  0  0  0  0  0  0  0  0  0  0  0
    9.8526  -15.4878   26.3022 N   0  0  0  0  0  0  0  0  0  0  0  0
   10.1429  -16.7905   26.9449 C   0  0  1  0  0  0  0  0  0  0  0  0
   11.4210  -17.2368   26.2179 C   0  0  0  0  0  0  0  0  0  0  0  0
   11.2205  -17.3645   24.7425 C   0  0  0  0  0  0  0  0  0  0  0  0
   12.5343  -17.6993   24.0964 C   0  0  0  0  0  0  0  0  0  0  0  0
   13.3759  -18.4507   24.6513 O   0  0  0  0  0  0  0  0  0  0  0  0
   10.4004  -16.5578   28.3770 C   0  0  0  0  0  0  0  0  0  0  0  0
   10.4401  -15.2586   28.8877 O   0  0  0  0  0  0  0  0  0  0  0  0
   12.8206  -17.1520   22.8413 O   0  0  0  0  0  0  0  0  0  0  0  0
   10.5893  -17.5380   29.1450 O   0  0  0  0  0  0  0  0  0  0  0  0
  2  1  1  1
  2  3  1  0
  4  5  1  6
  4  6  1  0
  4  2  1  0
  6  7  2  0
  9  8  1  6
  9 10  1  0
  9 11  1  0
 11 13  1  0
 12  6  1  0
 11 12  1  6
 13 14  2  0
 13 15  1  0
 15 16  1  0
 16 21  1  0
 16 17  1  6
 18 17  1  0
 19 20  2  0
 19 18  1  0
 21 24  2  0
 21 22  1  0
 23 19  1  0
M  END
$$$$
