TVE.pdb
     RDKit          3D

 24 23  0  0  1  0  0  0  0  0999 V2000
    6.4252  -16.8191   22.4091 C   0  0  0  0  0  0  0  0  0  0  0  0
    7.2015  -16.1201   21.3497 C   0  0  1  0  0  0  0  0  0  0  0  0
    6.7079  -16.3929   20.0966 O   0  0  0  0  0  0  0  0  0  0  0  0
    7.1767  -14.6033   21.5689 C   0  0  2  0  0  0  0  0  0  0  0  0
    7.8671  -13.9487   20.4806 N   0  0  0  0  0  0  0  0  0  0  0  0
    7.9376  -14.3029   22.8254 C   0  0  0  0  0  0  0  0  0  0  0  0
    9.1941  -14.2981   22.8699 O   0  0  0  0  0  0  0  0  0  0  0  0
    7.7082  -12.3859   27.3505 C   0  0  0  0  0  0  0  0  0  0  0  0
    7.0562  -12.8411   26.0775 C   0  0  2  0  0  0  0  0  0  0  0  0
    5.7330  -13.4866   26.3413 C   0  0  0  0  0  0  0  0  0  0  0  0
    7.9652  -13.7025   25.2307 C   0  0  2  0  0  0  0  0  0  0  0  0
    7.2120  -14.0153   24.0085 N   0  0  0  0  0  0  0  0  0  0  0  0
    8.4358  -14.9181   25.8805 C   0  0  0  0  0  0  0  0  0  0  0  0
    7.6822  -15.9284   26.1079 O   0  0  0  0  0  0  0  0  0  0  0  0
    9.7718  -15.0673   26.3051 N   0  0  0  0  0  0  0  0  0  0  0  0
   10.1922  -16.3259   26.9635 C   0  0  1  0  0  0  0  0  0  0  0  0
   11.6157  -16.5208   26.4186 C   0  0  0  0  0  0  0  0  0  0  0  0
   11.6290  -16.8025   24.9511 C   0  0  0  0  0  0  0  0  0  0  0  0
   13.0529  -16.8868   24.4809 C   0  0  0  0  0  0  0  0  0  0  0  0
   14.0227  -16.7338   25.2664 O   0  0  0  0  0  0  0  0  0  0  0  0
   10.2066  -16.1087   28.4209 C   0  0  0  0  0  0  0  0  0  0  0  0
   10.3405  -17.1883   29.2966 O   0  0  0  0  0  0  0  0  0  0  0  0
   13.2959  -17.1414   23.1271 O   0  0  0  0  0  0  0  0  0  0  0  0
   10.0937  -14.9412   28.8795 O   0  0  0  0  0  0  0  0  0  0  0  0
  2  1  1  1
  2  3  1  0
  4  5  1  6
  4  6  1  0
  4  2  1  0
  6  7  2  0
  9  8  1  1
  9 10  1  0
  9 11  1  0
 11 13  1  0
 12  6  1  0
 11 12  1  6
 13 14  2  0
 13 15  1  0
 15 16  1  0
 16 21  1  0
 16 17  1  6
 18 17  1  0
 19 20  2  0
 19 18  1  0
 21 24  2  0
 21 22  1  0
 23 19  1  0
M  END
$$$$
