TVE.pdb
     RDKit          3D

 24 23  0  0  1  0  0  0  0  0999 V2000
    6.4871  -16.7475   22.4627 C   0  0  0  0  0  0  0  0  0  0  0  0
    7.2676  -16.0851   21.3831 C   0  0  1  0  0  0  0  0  0  0  0  0
    6.7612  -16.3771   20.1396 O   0  0  0  0  0  0  0  0  0  0  0  0
    7.2694  -14.5635   21.5689 C   0  0  2  0  0  0  0  0  0  0  0  0
    7.9860  -13.9463   20.4757 N   0  0  0  0  0  0  0  0  0  0  0  0
    8.0199  -14.2501   22.8285 C   0  0  0  0  0  0  0  0  0  0  0  0
    9.2747  -14.2923   22.8959 O   0  0  0  0  0  0  0  0  0  0  0  0
    5.9005  -13.0256   26.4008 C   0  0  0  0  0  0  0  0  0  0  0  0
    7.3048  -12.6539   26.0235 C   0  0  2  0  0  0  0  0  0  0  0  0
    7.3511  -11.3345   25.3204 C   0  0  0  0  0  0  0  0  0  0  0  0
    8.0129  -13.7471   25.2561 C   0  0  2  0  0  0  0  0  0  0  0  0
    7.2860  -13.8945   23.9877 N   0  0  0  0  0  0  0  0  0  0  0  0
    8.1086  -15.0214   25.9550 C   0  0  0  0  0  0  0  0  0  0  0  0
    7.1626  -15.8846   25.9723 O   0  0  0  0  0  0  0  0  0  0  0  0
    9.2666  -15.3966   26.6662 N   0  0  0  0  0  0  0  0  0  0  0  0
    9.3466  -16.7465   27.2707 C   0  0  1  0  0  0  0  0  0  0  0  0
   10.0596  -17.5544   26.1751 C   0  0  0  0  0  0  0  0  0  0  0  0
   11.5069  -17.2009   26.0591 C   0  0  0  0  0  0  0  0  0  0  0  0
   12.1193  -18.0009   24.9453 C   0  0  0  0  0  0  0  0  0  0  0  0
   12.2314  -19.2516   25.0088 O   0  0  0  0  0  0  0  0  0  0  0  0
   10.1695  -16.6643   28.4903 C   0  0  0  0  0  0  0  0  0  0  0  0
   10.7699  -15.4587   28.8597 O   0  0  0  0  0  0  0  0  0  0  0  0
   12.5769  -17.3245   23.8097 O   0  0  0  0  0  0  0  0  0  0  0  0
   10.3351  -17.6898   29.2024 O   0  0  0  0  0  0  0  0  0  0  0  0
  2  1  1  1
  2  3  1  0
  4  5  1  6
  4  6  1  0
  4  2  1  0
  6  7  2  0
  9  8  1  6
  9 10  1  0
  9 11  1  0
 11 13  1  0
 12  6  1  0
 11 12  1  6
 13 14  2  0
 13 15  1  0
 15 16  1  0
 16 21  1  0
 16 17  1  6
 18 17  1  0
 19 20  2  0
 19 18  1  0
 21 24  2  0
 21 22  1  0
 23 19  1  0
M  END
$$$$
