MYS.pdb
     RDKit          3D

 27 27  0  0  1  0  0  0  0  0999 V2000
   28.1683  -15.6864  -16.5392 C   0  0  0  0  0  0  0  0  0  0  0  0
   28.9771  -16.7990  -17.7002 S   0  0  0  0  0  0  0  0  0  0  0  0
   27.7705  -17.6300  -18.7196 C   0  0  0  0  0  0  0  0  0  0  0  0
   27.1141  -18.8072  -18.0686 C   0  0  0  0  0  0  0  0  0  0  0  0
   28.0521  -19.7645  -17.4175 C   0  0  2  0  0  0  0  0  0  0  0  0
   28.6361  -20.7222  -18.3246 N   0  0  0  0  0  0  0  0  0  0  0  0
   27.3348  -20.4578  -16.3301 C   0  0  0  0  0  0  0  0  0  0  0  0
   26.6292  -21.4553  -16.5791 O   0  0  0  0  0  0  0  0  0  0  0  0
   23.9330  -21.4109   -8.1432 O   0  0  0  0  0  0  0  0  0  0  0  0
   24.7475  -21.1167   -9.2116 C   0  0  0  0  0  0  0  0  0  0  0  0
   24.6235  -19.8954   -9.8142 C   0  0  0  0  0  0  0  0  0  0  0  0
   25.4174  -19.5402  -10.8968 C   0  0  0  0  0  0  0  0  0  0  0  0
   26.3641  -20.4000  -11.4124 C   0  0  0  0  0  0  0  0  0  0  0  0
   27.2142  -20.0479  -12.5669 C   0  0  0  0  0  0  0  0  0  0  0  0
   26.6638  -20.4707  -13.9015 C   0  0  2  0  0  0  0  0  0  0  0  0
   27.4493  -19.9880  -15.0033 N   0  0  0  0  0  0  0  0  0  0  0  0
   25.2744  -20.0053  -14.0791 C   0  0  0  0  0  0  0  0  0  0  0  0
   24.9837  -18.7954  -14.3132 O   0  0  0  0  0  0  0  0  0  0  0  0
   26.4908  -21.6480  -10.7964 C   0  0  0  0  0  0  0  0  0  0  0  0
   25.6955  -21.9862   -9.7223 C   0  0  0  0  0  0  0  0  0  0  0  0
   22.5001  -22.6155  -15.3169 O   0  0  0  0  0  0  0  0  0  0  0  0
   22.2573  -21.2302  -15.3321 C   0  0  0  0  0  0  0  0  0  0  0  0
   22.8356  -20.5756  -14.0919 C   0  0  2  0  0  0  0  0  0  0  0  0
   24.2246  -20.9694  -13.9807 N   0  0  0  0  0  0  0  0  0  0  0  0
   22.1024  -21.1122  -12.9347 C   0  0  0  0  0  0  0  0  0  0  0  0
   20.7659  -20.7439  -12.7275 O   0  0  0  0  0  0  0  0  0  0  0  0
   22.6608  -21.8878  -12.1435 O   0  0  0  0  0  0  0  0  0  0  0  0
  2  1  1  0
  3  2  1  0
  4  3  1  0
  4  5  1  0
  5  7  1  0
  5  6  1  6
  7  8  2  0
  9 10  1  0
 10 20  2  0
 10 11  1  0
 11 12  2  0
 12 13  1  0
 13 14  1  0
 15 14  1  1
 16 15  1  0
 16  7  1  0
 17 24  1  0
 17 15  1  0
 18 17  2  0
 19 13  2  0
 20 19  1  0
 22 21  1  0
 23 24  1  0
 23 22  1  6
 25 23  1  0
 26 25  1  0
 27 25  2  0
M  END
$$$$
