MYS.pdb
     RDKit          3D

 27 27  0  0  1  0  0  0  0  0999 V2000
   28.8533  -20.9267  -16.6483 C   0  0  0  0  0  0  0  0  0  0  0  0
   29.0197  -22.5505  -15.8897 S   0  0  0  0  0  0  0  0  0  0  0  0
   27.4949  -23.4681  -16.0267 C   0  0  0  0  0  0  0  0  0  0  0  0
   26.4412  -23.0703  -15.0409 C   0  0  0  0  0  0  0  0  0  0  0  0
   25.1977  -22.5151  -15.6456 C   0  0  2  0  0  0  0  0  0  0  0  0
   25.3557  -21.1942  -16.2034 N   0  0  0  0  0  0  0  0  0  0  0  0
   24.1366  -22.5162  -14.6200 C   0  0  0  0  0  0  0  0  0  0  0  0
   23.9198  -23.5397  -13.9416 O   0  0  0  0  0  0  0  0  0  0  0  0
   26.6655  -21.0202   -8.6023 O   0  0  0  0  0  0  0  0  0  0  0  0
   25.6548  -20.7956   -9.5075 C   0  0  0  0  0  0  0  0  0  0  0  0
   25.9809  -20.6136  -10.8231 C   0  0  0  0  0  0  0  0  0  0  0  0
   25.0051  -20.3831  -11.7839 C   0  0  0  0  0  0  0  0  0  0  0  0
   23.6668  -20.3272  -11.4566 C   0  0  0  0  0  0  0  0  0  0  0  0
   22.6123  -20.0760  -12.4588 C   0  0  0  0  0  0  0  0  0  0  0  0
   22.3533  -21.2238  -13.3959 C   0  0  2  0  0  0  0  0  0  0  0  0
   23.3652  -21.3527  -14.4078 N   0  0  0  0  0  0  0  0  0  0  0  0
   21.0427  -21.0867  -14.0608 C   0  0  0  0  0  0  0  0  0  0  0  0
   20.8233  -20.2322  -14.9690 O   0  0  0  0  0  0  0  0  0  0  0  0
   23.3336  -20.5135  -10.1122 C   0  0  0  0  0  0  0  0  0  0  0  0
   24.3137  -20.7415   -9.1698 C   0  0  0  0  0  0  0  0  0  0  0  0
   18.3125  -23.9919  -13.1533 O   0  0  0  0  0  0  0  0  0  0  0  0
   18.1493  -23.3229  -14.3798 C   0  0  0  0  0  0  0  0  0  0  0  0
   18.6875  -21.9076  -14.2890 C   0  0  2  0  0  0  0  0  0  0  0  0
   19.9877  -21.9599  -13.6539 N   0  0  0  0  0  0  0  0  0  0  0  0
   17.7726  -21.1490  -13.4217 C   0  0  0  0  0  0  0  0  0  0  0  0
   16.4495  -20.9308  -13.8300 O   0  0  0  0  0  0  0  0  0  0  0  0
   18.1662  -20.7030  -12.3330 O   0  0  0  0  0  0  0  0  0  0  0  0
  2  1  1  0
  3  2  1  0
  4  3  1  0
  4  5  1  0
  5  7  1  0
  5  6  1  1
  7  8  2  0
  9 10  1  0
 10 20  2  0
 10 11  1  0
 11 12  2  0
 12 13  1  0
 13 14  1  0
 15 14  1  6
 16 15  1  0
 16  7  1  0
 17 24  1  0
 17 15  1  0
 18 17  2  0
 19 13  2  0
 20 19  1  0
 22 21  1  0
 23 24  1  0
 23 22  1  1
 25 23  1  0
 26 25  1  0
 27 25  2  0
M  END
$$$$
