MYS.pdb
     RDKit          3D

 27 27  0  0  1  0  0  0  0  0999 V2000
   27.3566  -25.3099  -20.7759 C   0  0  0  0  0  0  0  0  0  0  0  0
   28.0269  -24.0878  -19.6371 S   0  0  0  0  0  0  0  0  0  0  0  0
   28.0803  -24.7385  -17.9759 C   0  0  0  0  0  0  0  0  0  0  0  0
   28.5116  -23.7511  -16.9369 C   0  0  0  0  0  0  0  0  0  0  0  0
   27.6722  -22.5227  -16.8558 C   0  0  2  0  0  0  0  0  0  0  0  0
   28.4268  -21.2936  -16.8865 N   0  0  0  0  0  0  0  0  0  0  0  0
   26.8546  -22.5934  -15.6293 C   0  0  0  0  0  0  0  0  0  0  0  0
   26.9973  -23.5424  -14.8333 O   0  0  0  0  0  0  0  0  0  0  0  0
   22.3124  -20.1703   -8.5232 O   0  0  0  0  0  0  0  0  0  0  0  0
   23.0338  -20.2116   -9.6934 C   0  0  0  0  0  0  0  0  0  0  0  0
   24.2871  -20.7583   -9.6725 C   0  0  0  0  0  0  0  0  0  0  0  0
   25.0638  -20.8286  -10.8215 C   0  0  0  0  0  0  0  0  0  0  0  0
   24.6085  -20.3516  -12.0325 C   0  0  0  0  0  0  0  0  0  0  0  0
   25.4184  -20.4082  -13.2655 C   0  0  0  0  0  0  0  0  0  0  0  0
   25.0730  -21.5438  -14.1896 C   0  0  2  0  0  0  0  0  0  0  0  0
   25.9080  -21.5813  -15.3582 N   0  0  0  0  0  0  0  0  0  0  0  0
   23.6643  -21.4707  -14.6241 C   0  0  0  0  0  0  0  0  0  0  0  0
   23.2486  -20.6079  -15.4524 O   0  0  0  0  0  0  0  0  0  0  0  0
   23.3275  -19.7931  -12.0538 C   0  0  0  0  0  0  0  0  0  0  0  0
   22.5683  -19.7305  -10.9048 C   0  0  0  0  0  0  0  0  0  0  0  0
   21.2685  -24.7149  -15.0164 O   0  0  0  0  0  0  0  0  0  0  0  0
   20.7448  -23.7475  -14.1399 C   0  0  0  0  0  0  0  0  0  0  0  0
   21.3398  -22.3841  -14.4363 C   0  0  2  0  0  0  0  0  0  0  0  0
   22.7431  -22.4178  -14.0807 N   0  0  0  0  0  0  0  0  0  0  0  0
   20.6589  -21.4135  -13.5650 C   0  0  0  0  0  0  0  0  0  0  0  0
   19.7516  -20.4998  -14.1188 O   0  0  0  0  0  0  0  0  0  0  0  0
   20.8837  -21.4008  -12.3449 O   0  0  0  0  0  0  0  0  0  0  0  0
  2  1  1  0
  3  2  1  0
  4  3  1  0
  4  5  1  0
  5  7  1  0
  5  6  1  1
  7  8  2  0
  9 10  1  0
 10 20  2  0
 10 11  1  0
 11 12  2  0
 12 13  1  0
 13 14  1  0
 15 14  1  1
 16 15  1  0
 16  7  1  0
 17 24  1  0
 17 15  1  0
 18 17  2  0
 19 13  2  0
 20 19  1  0
 22 21  1  0
 23 24  1  0
 23 22  1  1
 25 23  1  0
 26 25  1  0
 27 25  2  0
M  END
$$$$
