MYS.pdb
     RDKit          3D

 27 27  0  0  1  0  0  0  0  0999 V2000
   25.6611  -16.5996  -15.4735 C   0  0  0  0  0  0  0  0  0  0  0  0
   27.2255  -17.0269  -16.2543 S   0  0  0  0  0  0  0  0  0  0  0  0
   27.4712  -18.7948  -16.2447 C   0  0  0  0  0  0  0  0  0  0  0  0
   26.4416  -19.5596  -15.4733 C   0  0  0  0  0  0  0  0  0  0  0  0
   26.9555  -20.2435  -14.2533 C   0  0  2  0  0  0  0  0  0  0  0  0
   27.9765  -21.2275  -14.5185 N   0  0  0  0  0  0  0  0  0  0  0  0
   25.8166  -20.8620  -13.5475 C   0  0  0  0  0  0  0  0  0  0  0  0
   25.5548  -22.0696  -13.7150 O   0  0  0  0  0  0  0  0  0  0  0  0
   27.4964  -20.8472   -6.6068 O   0  0  0  0  0  0  0  0  0  0  0  0
   26.5573  -20.6425   -7.5905 C   0  0  0  0  0  0  0  0  0  0  0  0
   26.3861  -19.3775   -8.0810 C   0  0  0  0  0  0  0  0  0  0  0  0
   25.4540  -19.1080   -9.0744 C   0  0  0  0  0  0  0  0  0  0  0  0
   24.6605  -20.1004   -9.6102 C   0  0  0  0  0  0  0  0  0  0  0  0
   23.6577  -19.8370  -10.6611 C   0  0  0  0  0  0  0  0  0  0  0  0
   23.8901  -20.5800  -11.9482 C   0  0  2  0  0  0  0  0  0  0  0  0
   25.0218  -20.0816  -12.6796 N   0  0  0  0  0  0  0  0  0  0  0  0
   22.7036  -20.5176  -12.8239 C   0  0  0  0  0  0  0  0  0  0  0  0
   22.4653  -19.5323  -13.5825 O   0  0  0  0  0  0  0  0  0  0  0  0
   24.8358  -21.3932   -9.1090 C   0  0  0  0  0  0  0  0  0  0  0  0
   25.7654  -21.6451   -8.1227 C   0  0  0  0  0  0  0  0  0  0  0  0
   19.1817  -23.2171  -14.7847 O   0  0  0  0  0  0  0  0  0  0  0  0
   20.3423  -23.1149  -13.9967 C   0  0  0  0  0  0  0  0  0  0  0  0
   20.6517  -21.6614  -13.6923 C   0  0  2  0  0  0  0  0  0  0  0  0
   21.7956  -21.6204  -12.8054 N   0  0  0  0  0  0  0  0  0  0  0  0
   19.4879  -21.1085  -12.9818 C   0  0  0  0  0  0  0  0  0  0  0  0
   19.4844  -21.0680  -11.5807 O   0  0  0  0  0  0  0  0  0  0  0  0
   18.5122  -20.6787  -13.6162 O   0  0  0  0  0  0  0  0  0  0  0  0
  2  1  1  0
  3  2  1  0
  4  3  1  0
  4  5  1  0
  5  7  1  0
  5  6  1  6
  7  8  2  0
  9 10  1  0
 10 20  2  0
 10 11  1  0
 11 12  2  0
 12 13  1  0
 13 14  1  0
 15 14  1  1
 16 15  1  0
 16  7  1  0
 17 24  1  0
 17 15  1  0
 18 17  2  0
 19 13  2  0
 20 19  1  0
 22 21  1  0
 23 24  1  0
 23 22  1  1
 25 23  1  0
 26 25  1  0
 27 25  2  0
M  END
$$$$
