MYS.pdb
     RDKit          3D

 27 27  0  0  1  0  0  0  0  0999 V2000
   18.9948  -16.0076  -15.3584 C   0  0  0  0  0  0  0  0  0  0  0  0
   17.7009  -15.9443  -16.6079 S   0  0  0  0  0  0  0  0  0  0  0  0
   18.2907  -15.1320  -18.0837 C   0  0  0  0  0  0  0  0  0  0  0  0
   19.1491  -13.9323  -17.8301 C   0  0  0  0  0  0  0  0  0  0  0  0
   19.8042  -13.3653  -19.0423 C   0  0  2  0  0  0  0  0  0  0  0  0
   20.6443  -14.3022  -19.7475 N   0  0  0  0  0  0  0  0  0  0  0  0
   20.5826  -12.1771  -18.6423 C   0  0  0  0  0  0  0  0  0  0  0  0
   21.7961  -12.2819  -18.3752 O   0  0  0  0  0  0  0  0  0  0  0  0
   16.5068   -7.6573  -22.7316 O   0  0  0  0  0  0  0  0  0  0  0  0
   17.5752   -7.9113  -21.9037 C   0  0  0  0  0  0  0  0  0  0  0  0
   18.3552   -9.0058  -22.1563 C   0  0  0  0  0  0  0  0  0  0  0  0
   19.4475   -9.3145  -21.3563 C   0  0  0  0  0  0  0  0  0  0  0  0
   19.7947   -8.5342  -20.2738 C   0  0  0  0  0  0  0  0  0  0  0  0
   20.9464   -8.8463  -19.4045 C   0  0  0  0  0  0  0  0  0  0  0  0
   20.6154   -9.6954  -18.2078 C   0  0  2  0  0  0  0  0  0  0  0  0
   19.9488  -10.9177  -18.5625 N   0  0  0  0  0  0  0  0  0  0  0  0
   19.7663   -8.9615  -17.2492 C   0  0  0  0  0  0  0  0  0  0  0  0
   18.5045   -8.9204  -17.3462 O   0  0  0  0  0  0  0  0  0  0  0  0
   18.9977   -7.4156  -20.0158 C   0  0  0  0  0  0  0  0  0  0  0  0
   17.9164   -7.1220  -20.8192 C   0  0  0  0  0  0  0  0  0  0  0  0
   21.6388   -7.5494  -13.8484 O   0  0  0  0  0  0  0  0  0  0  0  0
   20.2609   -7.8304  -13.8177 C   0  0  0  0  0  0  0  0  0  0  0  0
   19.6342   -7.5661  -15.1735 C   0  0  2  0  0  0  0  0  0  0  0  0
   20.4067   -8.2742  -16.1728 N   0  0  0  0  0  0  0  0  0  0  0  0
   19.7471   -6.1218  -15.4308 C   0  0  0  0  0  0  0  0  0  0  0  0
   18.9975   -5.2190  -14.6641 O   0  0  0  0  0  0  0  0  0  0  0  0
   20.5015   -5.7007  -16.3212 O   0  0  0  0  0  0  0  0  0  0  0  0
  2  1  1  0
  3  2  1  0
  4  3  1  0
  4  5  1  0
  5  7  1  0
  5  6  1  1
  7  8  2  0
  9 10  1  0
 10 20  2  0
 10 11  1  0
 11 12  2  0
 12 13  1  0
 13 14  1  0
 15 14  1  6
 16 15  1  0
 16  7  1  0
 17 24  1  0
 17 15  1  0
 18 17  2  0
 19 13  2  0
 20 19  1  0
 22 21  1  0
 23 24  1  0
 23 22  1  1
 25 23  1  0
 26 25  1  0
 27 25  2  0
M  END
$$$$
