MYS.pdb
     RDKit          3D

 27 27  0  0  1  0  0  0  0  0999 V2000
   25.1924  -23.0115  -21.8348 C   0  0  0  0  0  0  0  0  0  0  0  0
   25.0883  -21.2904  -22.3512 S   0  0  0  0  0  0  0  0  0  0  0  0
   25.6462  -20.2074  -21.0468 C   0  0  0  0  0  0  0  0  0  0  0  0
   25.2092  -20.6139  -19.6741 C   0  0  0  0  0  0  0  0  0  0  0  0
   26.2440  -20.4494  -18.6148 C   0  0  2  0  0  0  0  0  0  0  0  0
   27.5104  -21.0635  -18.9314 N   0  0  0  0  0  0  0  0  0  0  0  0
   25.7113  -20.9928  -17.3504 C   0  0  0  0  0  0  0  0  0  0  0  0
   26.0919  -22.1052  -16.9350 O   0  0  0  0  0  0  0  0  0  0  0  0
   23.2302  -21.2694   -8.9873 O   0  0  0  0  0  0  0  0  0  0  0  0
   23.6530  -20.9217  -10.2490 C   0  0  0  0  0  0  0  0  0  0  0  0
   22.8669  -20.0908  -10.9985 C   0  0  0  0  0  0  0  0  0  0  0  0
   23.2400  -19.7041  -12.2790 C   0  0  0  0  0  0  0  0  0  0  0  0
   24.4164  -20.1390  -12.8519 C   0  0  0  0  0  0  0  0  0  0  0  0
   24.8306  -19.7479  -14.2139 C   0  0  0  0  0  0  0  0  0  0  0  0
   24.2812  -20.6198  -15.3097 C   0  0  2  0  0  0  0  0  0  0  0  0
   24.7671  -20.2485  -16.6098 N   0  0  0  0  0  0  0  0  0  0  0  0
   22.8059  -20.5827  -15.3342 C   0  0  0  0  0  0  0  0  0  0  0  0
   22.1544  -19.5813  -15.7535 O   0  0  0  0  0  0  0  0  0  0  0  0
   25.2198  -20.9880  -12.0858 C   0  0  0  0  0  0  0  0  0  0  0  0
   24.8360  -21.3630  -10.8159 C   0  0  0  0  0  0  0  0  0  0  0  0
   18.8148  -23.3003  -14.6022 O   0  0  0  0  0  0  0  0  0  0  0  0
   20.2154  -23.1865  -14.5405 C   0  0  0  0  0  0  0  0  0  0  0  0
   20.6494  -21.7741  -14.8836 C   0  0  2  0  0  0  0  0  0  0  0  0
   22.0966  -21.7300  -14.8633 N   0  0  0  0  0  0  0  0  0  0  0  0
   20.1389  -20.8922  -13.8223 C   0  0  0  0  0  0  0  0  0  0  0  0
   20.6062  -21.0428  -12.5093 O   0  0  0  0  0  0  0  0  0  0  0  0
   19.2988  -20.0177  -14.0840 O   0  0  0  0  0  0  0  0  0  0  0  0
  2  1  1  0
  3  2  1  0
  4  3  1  0
  4  5  1  0
  5  7  1  0
  5  6  1  6
  7  8  2  0
  9 10  1  0
 10 20  2  0
 10 11  1  0
 11 12  2  0
 12 13  1  0
 13 14  1  0
 15 14  1  1
 16 15  1  0
 16  7  1  0
 17 24  1  0
 17 15  1  0
 18 17  2  0
 19 13  2  0
 20 19  1  0
 22 21  1  0
 23 24  1  0
 23 22  1  1
 25 23  1  0
 26 25  1  0
 27 25  2  0
M  END
$$$$
