MYS.pdb
     RDKit          3D

 27 27  0  0  1  0  0  0  0  0999 V2000
   28.7289  -15.7912  -16.9121 C   0  0  0  0  0  0  0  0  0  0  0  0
   28.5169  -16.9014  -18.3128 S   0  0  0  0  0  0  0  0  0  0  0  0
   27.9393  -18.4996  -17.7670 C   0  0  0  0  0  0  0  0  0  0  0  0
   27.0787  -18.4629  -16.5430 C   0  0  0  0  0  0  0  0  0  0  0  0
   25.8305  -19.2718  -16.6325 C   0  0  2  0  0  0  0  0  0  0  0  0
   24.9018  -18.8085  -17.6344 N   0  0  0  0  0  0  0  0  0  0  0  0
   25.1870  -19.2896  -15.3045 C   0  0  0  0  0  0  0  0  0  0  0  0
   24.6885  -18.2480  -14.8341 O   0  0  0  0  0  0  0  0  0  0  0  0
   19.0105  -18.3581  -15.8613 O   0  0  0  0  0  0  0  0  0  0  0  0
   20.0018  -19.0733  -15.2309 C   0  0  0  0  0  0  0  0  0  0  0  0
   20.9291  -19.7244  -15.9966 C   0  0  0  0  0  0  0  0  0  0  0  0
   21.9535  -20.4625  -15.4184 C   0  0  0  0  0  0  0  0  0  0  0  0
   22.0823  -20.5726  -14.0500 C   0  0  0  0  0  0  0  0  0  0  0  0
   23.1579  -21.3574  -13.4124 C   0  0  0  0  0  0  0  0  0  0  0  0
   24.4743  -20.6385  -13.2992 C   0  0  2  0  0  0  0  0  0  0  0  0
   25.1368  -20.4919  -14.5656 N   0  0  0  0  0  0  0  0  0  0  0  0
   25.3871  -21.3360  -12.3725 C   0  0  0  0  0  0  0  0  0  0  0  0
   25.6118  -22.5802  -12.4420 O   0  0  0  0  0  0  0  0  0  0  0  0
   21.1347  -19.9070  -13.2676 C   0  0  0  0  0  0  0  0  0  0  0  0
   20.1233  -19.1780  -13.8562 C   0  0  0  0  0  0  0  0  0  0  0  0
   28.5400  -20.2898  -10.2230 O   0  0  0  0  0  0  0  0  0  0  0  0
   27.3992  -20.3080   -9.4005 C   0  0  0  0  0  0  0  0  0  0  0  0
   26.2907  -21.1170  -10.0469 C   0  0  2  0  0  0  0  0  0  0  0  0
   26.0373  -20.5644  -11.3611 N   0  0  0  0  0  0  0  0  0  0  0  0
   25.0848  -20.9386   -9.2231 C   0  0  0  0  0  0  0  0  0  0  0  0
   23.9552  -20.3151   -9.7710 O   0  0  0  0  0  0  0  0  0  0  0  0
   25.0635  -21.3370   -8.0484 O   0  0  0  0  0  0  0  0  0  0  0  0
  2  1  1  0
  3  2  1  0
  4  3  1  0
  4  5  1  0
  5  7  1  0
  5  6  1  6
  7  8  2  0
  9 10  1  0
 10 20  2  0
 10 11  1  0
 11 12  2  0
 12 13  1  0
 13 14  1  0
 15 14  1  6
 16 15  1  0
 16  7  1  0
 17 24  1  0
 17 15  1  0
 18 17  2  0
 19 13  2  0
 20 19  1  0
 22 21  1  0
 23 24  1  0
 23 22  1  1
 25 23  1  0
 26 25  1  0
 27 25  2  0
M  END
$$$$
