MYS.pdb
     RDKit          3D

 27 27  0  0  1  0  0  0  0  0999 V2000
   14.1606  -33.2324  -11.0091 C   0  0  0  0  0  0  0  0  0  0  0  0
   14.9806  -32.4258  -12.3937 S   0  0  0  0  0  0  0  0  0  0  0  0
   15.2501  -30.6964  -12.0444 C   0  0  0  0  0  0  0  0  0  0  0  0
   16.3194  -30.4276  -11.0321 C   0  0  0  0  0  0  0  0  0  0  0  0
   17.6102  -29.9461  -11.5996 C   0  0  2  0  0  0  0  0  0  0  0  0
   18.5071  -31.0036  -11.9971 N   0  0  0  0  0  0  0  0  0  0  0  0
   18.2596  -29.0670  -10.6080 C   0  0  0  0  0  0  0  0  0  0  0  0
   19.2593  -29.4633   -9.9767 O   0  0  0  0  0  0  0  0  0  0  0  0
   22.0890  -27.1332  -14.8478 O   0  0  0  0  0  0  0  0  0  0  0  0
   21.2923  -26.7472  -13.7952 C   0  0  0  0  0  0  0  0  0  0  0  0
   21.6862  -27.0627  -12.5243 C   0  0  0  0  0  0  0  0  0  0  0  0
   20.9246  -26.7004  -11.4211 C   0  0  0  0  0  0  0  0  0  0  0  0
   19.7398  -26.0081  -11.5561 C   0  0  0  0  0  0  0  0  0  0  0  0
   18.9093  -25.6187  -10.3993 C   0  0  0  0  0  0  0  0  0  0  0  0
   18.3993  -26.7715   -9.5786 C   0  0  2  0  0  0  0  0  0  0  0  0
   17.7454  -27.7727  -10.3749 N   0  0  0  0  0  0  0  0  0  0  0  0
   17.4574  -26.3130   -8.5388 C   0  0  0  0  0  0  0  0  0  0  0  0
   16.2032  -26.2977   -8.7118 O   0  0  0  0  0  0  0  0  0  0  0  0
   19.3374  -25.6855  -12.8550 C   0  0  0  0  0  0  0  0  0  0  0  0
   20.1043  -26.0521  -13.9404 C   0  0  0  0  0  0  0  0  0  0  0  0
   18.5404  -26.2568   -4.5856 O   0  0  0  0  0  0  0  0  0  0  0  0
   17.9853  -25.0458   -5.0368 C   0  0  0  0  0  0  0  0  0  0  0  0
   17.1475  -25.2759   -6.2802 C   0  0  2  0  0  0  0  0  0  0  0  0
   17.9958  -25.8715   -7.2913 N   0  0  0  0  0  0  0  0  0  0  0  0
   16.7056  -23.9561   -6.7574 C   0  0  0  0  0  0  0  0  0  0  0  0
   15.6307  -23.3139   -6.1274 O   0  0  0  0  0  0  0  0  0  0  0  0
   17.2793  -23.4105   -7.7126 O   0  0  0  0  0  0  0  0  0  0  0  0
  2  1  1  0
  3  2  1  0
  4  3  1  0
  4  5  1  0
  5  7  1  0
  5  6  1  1
  7  8  2  0
  9 10  1  0
 10 20  2  0
 10 11  1  0
 11 12  2  0
 12 13  1  0
 13 14  1  0
 15 14  1  6
 16 15  1  0
 16  7  1  0
 17 24  1  0
 17 15  1  0
 18 17  2  0
 19 13  2  0
 20 19  1  0
 22 21  1  0
 23 24  1  0
 23 22  1  1
 25 23  1  0
 26 25  1  0
 27 25  2  0
M  END
$$$$
