MYS.pdb
     RDKit          3D

 27 27  0  0  1  0  0  0  0  0999 V2000
   20.4437  -14.9187  -21.9063 C   0  0  0  0  0  0  0  0  0  0  0  0
   20.7902  -13.5571  -20.7813 S   0  0  0  0  0  0  0  0  0  0  0  0
   20.5940  -14.0770  -19.0852 C   0  0  0  0  0  0  0  0  0  0  0  0
   20.8445  -13.0019  -18.0743 C   0  0  0  0  0  0  0  0  0  0  0  0
   22.2826  -12.7090  -17.8171 C   0  0  2  0  0  0  0  0  0  0  0  0
   23.0471  -13.8549  -17.3888 N   0  0  0  0  0  0  0  0  0  0  0  0
   22.3694  -11.6295  -16.8147 C   0  0  0  0  0  0  0  0  0  0  0  0
   22.2731  -11.8916  -15.5994 O   0  0  0  0  0  0  0  0  0  0  0  0
   28.6161  -11.7066  -15.9397 O   0  0  0  0  0  0  0  0  0  0  0  0
   27.5024  -10.9210  -16.1242 C   0  0  0  0  0  0  0  0  0  0  0  0
   26.8961  -10.3745  -15.0270 C   0  0  0  0  0  0  0  0  0  0  0  0
   25.7688   -9.5728  -15.1491 C   0  0  0  0  0  0  0  0  0  0  0  0
   25.2106   -9.2920  -16.3782 C   0  0  0  0  0  0  0  0  0  0  0  0
   24.0085   -8.4490  -16.5326 C   0  0  0  0  0  0  0  0  0  0  0  0
   22.7055   -9.1769  -16.3455 C   0  0  2  0  0  0  0  0  0  0  0  0
   22.5623  -10.2955  -17.2356 N   0  0  0  0  0  0  0  0  0  0  0  0
   21.5549   -8.2735  -16.5417 C   0  0  0  0  0  0  0  0  0  0  0  0
   21.1307   -7.9467  -17.6891 O   0  0  0  0  0  0  0  0  0  0  0  0
   25.8304   -9.8504  -17.4995 C   0  0  0  0  0  0  0  0  0  0  0  0
   26.9491  -10.6443  -17.3623 C   0  0  0  0  0  0  0  0  0  0  0  0
   17.9046   -6.0145  -14.2596 O   0  0  0  0  0  0  0  0  0  0  0  0
   18.8939   -7.0138  -14.2941 C   0  0  0  0  0  0  0  0  0  0  0  0
   19.7964   -6.8268  -15.4989 C   0  0  2  0  0  0  0  0  0  0  0  0
   20.9022   -7.7542  -15.3818 N   0  0  0  0  0  0  0  0  0  0  0  0
   20.3262   -5.4556  -15.4369 C   0  0  0  0  0  0  0  0  0  0  0  0
   19.5972   -4.4027  -16.0068 O   0  0  0  0  0  0  0  0  0  0  0  0
   21.4129   -5.2279  -14.8833 O   0  0  0  0  0  0  0  0  0  0  0  0
  2  1  1  0
  3  2  1  0
  4  3  1  0
  4  5  1  0
  5  7  1  0
  5  6  1  1
  7  8  2  0
  9 10  1  0
 10 20  2  0
 10 11  1  0
 11 12  2  0
 12 13  1  0
 13 14  1  0
 15 14  1  6
 16 15  1  0
 16  7  1  0
 17 24  1  0
 17 15  1  0
 18 17  2  0
 19 13  2  0
 20 19  1  0
 22 21  1  0
 23 24  1  0
 23 22  1  1
 25 23  1  0
 26 25  1  0
 27 25  2  0
M  END
$$$$
