MYS.pdb
     RDKit          3D

 27 27  0  0  1  0  0  0  0  0999 V2000
   27.9829  -15.3783  -14.1966 C   0  0  0  0  0  0  0  0  0  0  0  0
   26.5041  -14.6198  -14.8875 S   0  0  0  0  0  0  0  0  0  0  0  0
   26.9391  -13.3662  -16.0812 C   0  0  0  0  0  0  0  0  0  0  0  0
   25.7781  -12.5814  -16.6070 C   0  0  0  0  0  0  0  0  0  0  0  0
   24.4969  -13.3379  -16.6857 C   0  0  2  0  0  0  0  0  0  0  0  0
   24.5183  -14.4317  -17.6260 N   0  0  0  0  0  0  0  0  0  0  0  0
   23.4142  -12.3929  -17.0212 C   0  0  0  0  0  0  0  0  0  0  0  0
   23.1552  -12.1318  -18.2126 O   0  0  0  0  0  0  0  0  0  0  0  0
   18.0845  -15.8693  -18.2645 O   0  0  0  0  0  0  0  0  0  0  0  0
   18.6115  -14.7521  -17.6599 C   0  0  0  0  0  0  0  0  0  0  0  0
   19.1141  -14.8670  -16.3933 C   0  0  0  0  0  0  0  0  0  0  0  0
   19.6592  -13.7752  -15.7307 C   0  0  0  0  0  0  0  0  0  0  0  0
   19.7186  -12.5288  -16.3175 C   0  0  0  0  0  0  0  0  0  0  0  0
   20.2863  -11.3519  -15.6304 C   0  0  0  0  0  0  0  0  0  0  0  0
   21.5888  -10.8617  -16.2014 C   0  0  2  0  0  0  0  0  0  0  0  0
   22.6699  -11.7835  -15.9874 N   0  0  0  0  0  0  0  0  0  0  0  0
   21.9674   -9.5560  -15.6267 C   0  0  0  0  0  0  0  0  0  0  0  0
   22.4920   -9.4404  -14.4801 O   0  0  0  0  0  0  0  0  0  0  0  0
   19.2053  -12.4115  -17.6120 C   0  0  0  0  0  0  0  0  0  0  0  0
   18.6672  -13.5047  -18.2570 C   0  0  0  0  0  0  0  0  0  0  0  0
   23.0934   -5.0401  -16.9206 O   0  0  0  0  0  0  0  0  0  0  0  0
   22.5597   -6.2975  -17.2558 C   0  0  0  0  0  0  0  0  0  0  0  0
   22.2553   -7.0967  -16.0029 C   0  0  2  0  0  0  0  0  0  0  0  0
   21.7272   -8.3832  -16.4063 N   0  0  0  0  0  0  0  0  0  0  0  0
   21.2085   -6.3703  -15.2672 C   0  0  0  0  0  0  0  0  0  0  0  0
   21.5682   -5.4725  -14.2527 O   0  0  0  0  0  0  0  0  0  0  0  0
   20.0115   -6.5484  -15.5408 O   0  0  0  0  0  0  0  0  0  0  0  0
  2  1  1  0
  3  2  1  0
  4  3  1  0
  4  5  1  0
  5  7  1  0
  5  6  1  6
  7  8  2  0
  9 10  1  0
 10 20  2  0
 10 11  1  0
 11 12  2  0
 12 13  1  0
 13 14  1  0
 15 14  1  1
 16 15  1  0
 16  7  1  0
 17 24  1  0
 17 15  1  0
 18 17  2  0
 19 13  2  0
 20 19  1  0
 22 21  1  0
 23 24  1  0
 23 22  1  6
 25 23  1  0
 26 25  1  0
 27 25  2  0
M  END
$$$$
