MYS.pdb
     RDKit          3D

 27 27  0  0  1  0  0  0  0  0999 V2000
   27.5273  -18.9083   -6.1976 C   0  0  0  0  0  0  0  0  0  0  0  0
   28.4462  -20.1827   -7.0757 S   0  0  0  0  0  0  0  0  0  0  0  0
   27.3312  -21.3286   -7.8690 C   0  0  0  0  0  0  0  0  0  0  0  0
   26.4202  -20.7071   -8.8810 C   0  0  0  0  0  0  0  0  0  0  0  0
   26.6721  -21.1254  -10.2887 C   0  0  2  0  0  0  0  0  0  0  0  0
   28.0620  -21.0850  -10.6729 N   0  0  0  0  0  0  0  0  0  0  0  0
   25.8667  -20.2714  -11.1831 C   0  0  0  0  0  0  0  0  0  0  0  0
   26.2912  -19.1525  -11.5333 O   0  0  0  0  0  0  0  0  0  0  0  0
   26.8331  -24.8206  -15.7428 O   0  0  0  0  0  0  0  0  0  0  0  0
   26.3010  -23.6245  -15.3211 C   0  0  0  0  0  0  0  0  0  0  0  0
   25.0311  -23.6140  -14.8139 C   0  0  0  0  0  0  0  0  0  0  0  0
   24.4396  -22.4379  -14.3720 C   0  0  0  0  0  0  0  0  0  0  0  0
   25.1033  -21.2304  -14.4242 C   0  0  0  0  0  0  0  0  0  0  0  0
   24.4928  -19.9662  -13.9676 C   0  0  0  0  0  0  0  0  0  0  0  0
   23.8144  -20.0470  -12.6275 C   0  0  2  0  0  0  0  0  0  0  0  0
   24.6110  -20.7252  -11.6427 N   0  0  0  0  0  0  0  0  0  0  0  0
   22.5115  -20.7332  -12.7276 C   0  0  0  0  0  0  0  0  0  0  0  0
   22.3967  -21.9930  -12.6731 O   0  0  0  0  0  0  0  0  0  0  0  0
   26.4012  -21.2413  -14.9424 C   0  0  0  0  0  0  0  0  0  0  0  0
   26.9751  -22.4170  -15.3771 C   0  0  0  0  0  0  0  0  0  0  0  0
   18.9750  -18.7128  -11.8482 O   0  0  0  0  0  0  0  0  0  0  0  0
   18.9993  -19.4257  -13.0604 C   0  0  0  0  0  0  0  0  0  0  0  0
   20.0298  -20.5374  -13.0025 C   0  0  2  0  0  0  0  0  0  0  0  0
   21.3403  -19.9317  -12.8922 N   0  0  0  0  0  0  0  0  0  0  0  0
   19.9561  -21.2657  -14.2788 C   0  0  0  0  0  0  0  0  0  0  0  0
   18.8645  -22.1063  -14.5368 O   0  0  0  0  0  0  0  0  0  0  0  0
   20.8538  -21.1389  -15.1257 O   0  0  0  0  0  0  0  0  0  0  0  0
  2  1  1  0
  3  2  1  0
  4  3  1  0
  4  5  1  0
  5  7  1  0
  5  6  1  6
  7  8  2  0
  9 10  1  0
 10 20  2  0
 10 11  1  0
 11 12  2  0
 12 13  1  0
 13 14  1  0
 15 14  1  6
 16 15  1  0
 16  7  1  0
 17 24  1  0
 17 15  1  0
 18 17  2  0
 19 13  2  0
 20 19  1  0
 22 21  1  0
 23 24  1  0
 23 22  1  6
 25 23  1  0
 26 25  1  0
 27 25  2  0
M  END
$$$$
