LND.pdb
     RDKit          3D

 25 24  0  0  1  0  0  0  0  0999 V2000
   17.0018  -24.3884   -3.9772 C   0  0  0  0  0  0  0  0  0  0  0  0
   16.2425  -25.5219   -4.6469 C   0  0  2  0  0  0  0  0  0  0  0  0
   14.8678  -24.9543   -4.9742 C   0  0  0  0  0  0  0  0  0  0  0  0
   16.1673  -26.7368   -3.7625 C   0  0  0  0  0  0  0  0  0  0  0  0
   17.5470  -27.1082   -3.2876 C   0  0  2  0  0  0  0  0  0  0  0  0
   18.3451  -27.5021   -4.4307 N   0  0  0  0  0  0  0  0  0  0  0  0
   17.5504  -28.1836   -2.2921 C   0  0  0  0  0  0  0  0  0  0  0  0
   17.0977  -27.9490   -1.1322 O   0  0  0  0  0  0  0  0  0  0  0  0
   15.1820  -31.3449   -0.5419 N   0  0  0  0  0  0  0  0  0  0  0  0
   15.5904  -31.6101   -1.8751 C   0  0  0  0  0  0  0  0  0  0  0  0
   14.7012  -31.8410   -2.7089 O   0  0  0  0  0  0  0  0  0  0  0  0
   17.0137  -31.6038   -2.2198 C   0  0  0  0  0  0  0  0  0  0  0  0
   17.8664  -30.5869   -1.5330 C   0  0  2  0  0  0  0  0  0  0  0  0
   18.0240  -29.4913   -2.5127 N   0  0  0  0  0  0  0  0  0  0  0  0
   19.2227  -31.0779   -1.1574 C   0  0  0  0  0  0  0  0  0  0  0  0
   20.1430  -30.9511   -1.9944 O   0  0  0  0  0  0  0  0  0  0  0  0
   19.4909  -31.6724    0.0974 N   0  0  0  0  0  0  0  0  0  0  0  0
   20.8711  -32.1286    0.3664 C   0  0  1  0  0  0  0  0  0  0  0  0
   21.0496  -32.1449    1.8585 C   0  0  0  0  0  0  0  0  0  0  0  0
   22.3132  -32.6869    2.3314 C   0  0  0  0  0  0  0  0  0  0  0  0
   23.3358  -32.8961    1.6770 O   0  0  0  0  0  0  0  0  0  0  0  0
   21.0100  -33.5162   -0.2012 C   0  0  0  0  0  0  0  0  0  0  0  0
   22.2015  -33.9746   -0.7006 O   0  0  0  0  0  0  0  0  0  0  0  0
   22.3946  -33.0182    3.7036 O   0  0  0  0  0  0  0  0  0  0  0  0
   20.0233  -34.2985   -0.2320 O   0  0  0  0  0  0  0  0  0  0  0  0
  2  1  1  1
  3  2  1  0
  4  5  1  0
  4  2  1  0
  5  6  1  6
  7  5  1  0
  7  8  2  0
 10  9  1  0
 10 12  1  0
 11 10  2  0
 13 12  1  6
 13 14  1  0
 14  7  1  0
 15 16  2  0
 15 13  1  0
 17 15  1  0
 18 17  1  0
 18 19  1  1
 20 19  1  0
 20 21  2  0
 22 18  1  0
 23 22  1  0
 24 20  1  0
 25 22  2  0
M  END
$$$$
