LND.pdb
     RDKit          3D

 25 24  0  0  1  0  0  0  0  0999 V2000
   16.5287  -18.8783    9.0000 C   0  0  0  0  0  0  0  0  0  0  0  0
   16.4148  -19.7948    7.7930 C   0  0  2  0  0  0  0  0  0  0  0  0
   15.1899  -19.3113    7.0282 C   0  0  0  0  0  0  0  0  0  0  0  0
   16.3043  -21.2385    8.2021 C   0  0  0  0  0  0  0  0  0  0  0  0
   17.5430  -21.6526    8.9513 C   0  0  2  0  0  0  0  0  0  0  0  0
   18.6864  -21.5279    8.0705 N   0  0  0  0  0  0  0  0  0  0  0  0
   17.4756  -23.0183    9.4784 C   0  0  0  0  0  0  0  0  0  0  0  0
   16.5410  -23.3234   10.2775 O   0  0  0  0  0  0  0  0  0  0  0  0
   17.0159  -26.0141    6.3350 N   0  0  0  0  0  0  0  0  0  0  0  0
   16.9358  -26.2050    7.7392 C   0  0  0  0  0  0  0  0  0  0  0  0
   15.8036  -26.2721    8.2421 O   0  0  0  0  0  0  0  0  0  0  0  0
   18.1607  -26.3146    8.5342 C   0  0  0  0  0  0  0  0  0  0  0  0
   18.2713  -25.4179    9.7244 C   0  0  2  0  0  0  0  0  0  0  0  0
   18.3800  -24.0524    9.1691 N   0  0  0  0  0  0  0  0  0  0  0  0
   19.4679  -25.6742   10.5753 C   0  0  0  0  0  0  0  0  0  0  0  0
   19.5197  -26.7556   11.2009 O   0  0  0  0  0  0  0  0  0  0  0  0
   20.5264  -24.7437   10.6914 N   0  0  0  0  0  0  0  0  0  0  0  0
   21.6388  -25.0715   11.6082 C   0  0  1  0  0  0  0  0  0  0  0  0
   22.9107  -24.9772   10.8133 C   0  0  0  0  0  0  0  0  0  0  0  0
   23.5311  -26.2472   10.4727 C   0  0  0  0  0  0  0  0  0  0  0  0
   23.1158  -27.3800   10.7220 O   0  0  0  0  0  0  0  0  0  0  0  0
   21.6283  -24.0540   12.7179 C   0  0  0  0  0  0  0  0  0  0  0  0
   20.8278  -22.9422   12.6686 O   0  0  0  0  0  0  0  0  0  0  0  0
   24.7577  -26.1932    9.7713 O   0  0  0  0  0  0  0  0  0  0  0  0
   22.3636  -24.2007   13.7299 O   0  0  0  0  0  0  0  0  0  0  0  0
  2  1  1  1
  3  2  1  0
  4  5  1  0
  4  2  1  0
  5  6  1  6
  7  5  1  0
  7  8  2  0
 10  9  1  0
 10 12  1  0
 11 10  2  0
 13 12  1  6
 13 14  1  0
 14  7  1  0
 15 16  2  0
 15 13  1  0
 17 15  1  0
 18 17  1  0
 18 19  1  6
 20 19  1  0
 20 21  2  0
 22 18  1  0
 23 22  1  0
 24 20  1  0
 25 22  2  0
M  END
$$$$
