LND.pdb
     RDKit          3D

 25 24  0  0  1  0  0  0  0  0999 V2000
   20.6635  -14.5794  -19.7801 C   0  0  0  0  0  0  0  0  0  0  0  0
   19.7810  -15.0916  -18.6537 C   0  0  2  0  0  0  0  0  0  0  0  0
   19.0483  -16.2976  -19.2260 C   0  0  0  0  0  0  0  0  0  0  0  0
   18.8389  -14.0273  -18.1604 C   0  0  0  0  0  0  0  0  0  0  0  0
   19.6237  -12.8729  -17.5960 C   0  0  2  0  0  0  0  0  0  0  0  0
   20.4247  -13.3494  -16.4868 N   0  0  0  0  0  0  0  0  0  0  0  0
   18.7823  -11.7585  -17.1513 C   0  0  0  0  0  0  0  0  0  0  0  0
   17.9516  -11.2533  -17.9636 O   0  0  0  0  0  0  0  0  0  0  0  0
   17.0663   -9.1497  -11.9345 N   0  0  0  0  0  0  0  0  0  0  0  0
   16.7875   -9.3873  -13.3057 C   0  0  0  0  0  0  0  0  0  0  0  0
   15.9001   -8.7002  -13.8348 O   0  0  0  0  0  0  0  0  0  0  0  0
   17.5362  -10.4106  -14.0385 C   0  0  0  0  0  0  0  0  0  0  0  0
   17.9120  -10.0872  -15.4481 C   0  0  2  0  0  0  0  0  0  0  0  0
   18.8130  -11.1815  -15.8672 N   0  0  0  0  0  0  0  0  0  0  0  0
   18.6383   -8.7954  -15.6073 C   0  0  0  0  0  0  0  0  0  0  0  0
   19.7988   -8.7167  -15.1483 O   0  0  0  0  0  0  0  0  0  0  0  0
   18.0601   -7.6774  -16.2519 N   0  0  0  0  0  0  0  0  0  0  0  0
   18.8604   -6.4373  -16.3372 C   0  0  1  0  0  0  0  0  0  0  0  0
   19.1033   -6.1661  -17.7953 C   0  0  0  0  0  0  0  0  0  0  0  0
   19.7415   -4.8951  -18.0973 C   0  0  0  0  0  0  0  0  0  0  0  0
   20.1858   -4.0666  -17.3010 O   0  0  0  0  0  0  0  0  0  0  0  0
   18.0499   -5.3298  -15.7180 C   0  0  0  0  0  0  0  0  0  0  0  0
   18.6406   -4.2017  -15.2103 O   0  0  0  0  0  0  0  0  0  0  0  0
   19.8762   -4.5545  -19.4630 O   0  0  0  0  0  0  0  0  0  0  0  0
   16.7950   -5.4139  -15.6499 O   0  0  0  0  0  0  0  0  0  0  0  0
  2  1  1  6
  3  2  1  0
  4  5  1  0
  4  2  1  0
  5  6  1  1
  7  5  1  0
  7  8  2  0
 10  9  1  0
 10 12  1  0
 11 10  2  0
 13 12  1  1
 13 14  1  0
 14  7  1  0
 15 16  2  0
 15 13  1  0
 17 15  1  0
 18 17  1  0
 18 19  1  6
 20 19  1  0
 20 21  2  0
 22 18  1  0
 23 22  1  0
 24 20  1  0
 25 22  2  0
M  END
$$$$
