LND.pdb
     RDKit          3D

 25 24  0  0  1  0  0  0  0  0999 V2000
   21.1682  -15.8820  -17.6250 C   0  0  0  0  0  0  0  0  0  0  0  0
   19.7034  -15.5035  -17.7695 C   0  0  2  0  0  0  0  0  0  0  0  0
   19.1346  -16.4632  -18.8060 C   0  0  0  0  0  0  0  0  0  0  0  0
   19.5405  -14.0623  -18.1698 C   0  0  0  0  0  0  0  0  0  0  0  0
   20.0660  -13.1674  -17.0789 C   0  0  2  0  0  0  0  0  0  0  0  0
   19.5327  -13.6153  -15.8085 N   0  0  0  0  0  0  0  0  0  0  0  0
   19.7387  -11.7528  -17.2778 C   0  0  0  0  0  0  0  0  0  0  0  0
   20.1487  -11.1683  -18.3244 O   0  0  0  0  0  0  0  0  0  0  0  0
   15.8474   -7.7300  -17.6919 N   0  0  0  0  0  0  0  0  0  0  0  0
   16.5085   -8.1852  -16.5213 C   0  0  0  0  0  0  0  0  0  0  0  0
   16.5300   -7.4206  -15.5444 O   0  0  0  0  0  0  0  0  0  0  0  0
   17.1306   -9.5107  -16.5004 C   0  0  0  0  0  0  0  0  0  0  0  0
   18.6149   -9.5586  -16.6664 C   0  0  2  0  0  0  0  0  0  0  0  0
   18.9887  -10.9611  -16.3870 N   0  0  0  0  0  0  0  0  0  0  0  0
   19.3649   -8.6778  -15.7264 C   0  0  0  0  0  0  0  0  0  0  0  0
   19.5042   -9.0666  -14.5462 O   0  0  0  0  0  0  0  0  0  0  0  0
   19.9129   -7.4373  -16.1271 N   0  0  0  0  0  0  0  0  0  0  0  0
   20.6095   -6.6262  -15.1062 C   0  0  1  0  0  0  0  0  0  0  0  0
   21.8724   -6.1100  -15.7364 C   0  0  0  0  0  0  0  0  0  0  0  0
   22.5915   -5.1080  -14.9663 C   0  0  0  0  0  0  0  0  0  0  0  0
   22.2987   -4.6555  -13.8584 O   0  0  0  0  0  0  0  0  0  0  0  0
   19.6985   -5.4878  -14.7307 C   0  0  0  0  0  0  0  0  0  0  0  0
   18.7463   -5.0118  -15.5944 O   0  0  0  0  0  0  0  0  0  0  0  0
   23.7694   -4.5802  -15.5435 O   0  0  0  0  0  0  0  0  0  0  0  0
   19.7906   -4.9381  -13.6012 O   0  0  0  0  0  0  0  0  0  0  0  0
  2  1  1  6
  3  2  1  0
  4  5  1  0
  4  2  1  0
  5  6  1  1
  7  5  1  0
  7  8  2  0
 10  9  1  0
 10 12  1  0
 11 10  2  0
 13 12  1  1
 13 14  1  0
 14  7  1  0
 15 16  2  0
 15 13  1  0
 17 15  1  0
 18 17  1  0
 18 19  1  6
 20 19  1  0
 20 21  2  0
 22 18  1  0
 23 22  1  0
 24 20  1  0
 25 22  2  0
M  END
$$$$
