LND.pdb
     RDKit          3D

 25 24  0  0  1  0  0  0  0  0999 V2000
   28.5343  -21.2826  -17.1931 C   0  0  0  0  0  0  0  0  0  0  0  0
   28.0901  -22.1490  -16.0260 C   0  0  2  0  0  0  0  0  0  0  0  0
   28.6617  -23.5327  -16.3047 C   0  0  0  0  0  0  0  0  0  0  0  0
   26.5923  -22.1632  -15.8852 C   0  0  0  0  0  0  0  0  0  0  0  0
   26.1036  -20.7938  -15.4942 C   0  0  2  0  0  0  0  0  0  0  0  0
   26.9811  -20.2575  -14.4738 N   0  0  0  0  0  0  0  0  0  0  0  0
   24.7214  -20.7857  -15.0072 C   0  0  0  0  0  0  0  0  0  0  0  0
   23.8164  -21.3170  -15.7171 O   0  0  0  0  0  0  0  0  0  0  0  0
   20.4807  -20.2713  -11.8064 N   0  0  0  0  0  0  0  0  0  0  0  0
   21.7036  -20.1039  -11.1058 C   0  0  0  0  0  0  0  0  0  0  0  0
   21.6432  -19.9894   -9.8719 O   0  0  0  0  0  0  0  0  0  0  0  0
   22.9699  -20.0719  -11.8408 C   0  0  0  0  0  0  0  0  0  0  0  0
   22.8935  -20.2743  -13.3193 C   0  0  2  0  0  0  0  0  0  0  0  0
   24.2947  -20.2258  -13.7876 N   0  0  0  0  0  0  0  0  0  0  0  0
   22.1214  -19.2240  -14.0422 C   0  0  0  0  0  0  0  0  0  0  0  0
   22.6066  -18.0727  -14.0930 O   0  0  0  0  0  0  0  0  0  0  0  0
   20.8779  -19.4907  -14.6603 N   0  0  0  0  0  0  0  0  0  0  0  0
   20.1695  -18.3643  -15.3045 C   0  0  1  0  0  0  0  0  0  0  0  0
   20.5783  -18.3525  -16.7506 C   0  0  0  0  0  0  0  0  0  0  0  0
   19.9011  -17.3725  -17.5842 C   0  0  0  0  0  0  0  0  0  0  0  0
   19.0665  -16.5354  -17.2369 O   0  0  0  0  0  0  0  0  0  0  0  0
   18.6919  -18.6208  -15.1715 C   0  0  0  0  0  0  0  0  0  0  0  0
   18.2084  -19.7612  -14.5841 O   0  0  0  0  0  0  0  0  0  0  0  0
   20.2283  -17.3660  -18.9597 O   0  0  0  0  0  0  0  0  0  0  0  0
   17.8542  -17.7846  -15.6023 O   0  0  0  0  0  0  0  0  0  0  0  0
  2  1  1  6
  3  2  1  0
  4  5  1  0
  4  2  1  0
  5  6  1  1
  7  5  1  0
  7  8  2  0
 10  9  1  0
 10 12  1  0
 11 10  2  0
 13 12  1  1
 13 14  1  0
 14  7  1  0
 15 16  2  0
 15 13  1  0
 17 15  1  0
 18 17  1  0
 18 19  1  6
 20 19  1  0
 20 21  2  0
 22 18  1  0
 23 22  1  0
 24 20  1  0
 25 22  2  0
M  END
$$$$
