LND.pdb
     RDKit          3D

 25 24  0  0  1  0  0  0  0  0999 V2000
   17.2526  -15.3542  -15.9964 C   0  0  0  0  0  0  0  0  0  0  0  0
   18.4064  -14.8269  -16.8334 C   0  0  2  0  0  0  0  0  0  0  0  0
   19.2534  -16.0457  -17.1740 C   0  0  0  0  0  0  0  0  0  0  0  0
   19.1870  -13.7714  -16.0984 C   0  0  0  0  0  0  0  0  0  0  0  0
   18.3092  -12.5759  -15.8386 C   0  0  2  0  0  0  0  0  0  0  0  0
   17.7499  -12.1239  -17.0962 N   0  0  0  0  0  0  0  0  0  0  0  0
   19.0125  -11.4676  -15.1870 C   0  0  0  0  0  0  0  0  0  0  0  0
   19.5544  -11.6621  -14.0585 O   0  0  0  0  0  0  0  0  0  0  0  0
   21.9137   -6.2781  -16.5685 N   0  0  0  0  0  0  0  0  0  0  0  0
   21.2704   -7.1053  -15.6112 C   0  0  0  0  0  0  0  0  0  0  0  0
   21.3316   -6.7560  -14.4223 O   0  0  0  0  0  0  0  0  0  0  0  0
   20.5703   -8.3169  -16.0432 C   0  0  0  0  0  0  0  0  0  0  0  0
   19.8124   -9.0645  -14.9946 C   0  0  2  0  0  0  0  0  0  0  0  0
   19.1452  -10.1691  -15.7155 N   0  0  0  0  0  0  0  0  0  0  0  0
   18.7672   -8.2581  -14.3025 C   0  0  0  0  0  0  0  0  0  0  0  0
   17.6914   -8.0536  -14.9062 O   0  0  0  0  0  0  0  0  0  0  0  0
   18.9568   -7.7282  -13.0052 N   0  0  0  0  0  0  0  0  0  0  0  0
   17.8594   -6.9324  -12.4153 C   0  0  1  0  0  0  0  0  0  0  0  0
   17.9195   -7.1299  -10.9266 C   0  0  0  0  0  0  0  0  0  0  0  0
   17.0342   -6.2802  -10.1468 C   0  0  0  0  0  0  0  0  0  0  0  0
   16.1190   -5.5657  -10.5587 O   0  0  0  0  0  0  0  0  0  0  0  0
   18.1022   -5.4897  -12.7707 C   0  0  0  0  0  0  0  0  0  0  0  0
   19.3684   -4.9712  -12.8538 O   0  0  0  0  0  0  0  0  0  0  0  0
   17.2341   -6.2605   -8.7471 O   0  0  0  0  0  0  0  0  0  0  0  0
   17.1366   -4.7148  -13.0024 O   0  0  0  0  0  0  0  0  0  0  0  0
  2  1  1  1
  3  2  1  0
  4  5  1  0
  4  2  1  0
  5  6  1  6
  7  5  1  0
  7  8  2  0
 10  9  1  0
 10 12  1  0
 11 10  2  0
 13 12  1  6
 13 14  1  0
 14  7  1  0
 15 16  2  0
 15 13  1  0
 17 15  1  0
 18 17  1  0
 18 19  1  1
 20 19  1  0
 20 21  2  0
 22 18  1  0
 23 22  1  0
 24 20  1  0
 25 22  2  0
M  END
$$$$
