LND.pdb
     RDKit          3D

 25 24  0  0  1  0  0  0  0  0999 V2000
   12.0934  -10.2964  -10.9911 C   0  0  0  0  0  0  0  0  0  0  0  0
   12.6809  -11.0964   -9.8401 C   0  0  2  0  0  0  0  0  0  0  0  0
   11.5785  -11.1732   -8.7924 C   0  0  0  0  0  0  0  0  0  0  0  0
   13.9367  -10.4611   -9.3080 C   0  0  0  0  0  0  0  0  0  0  0  0
   14.9384  -10.3009  -10.4207 C   0  0  2  0  0  0  0  0  0  0  0  0
   15.5208  -11.5942  -10.7157 N   0  0  0  0  0  0  0  0  0  0  0  0
   16.0025   -9.3415  -10.1128 C   0  0  0  0  0  0  0  0  0  0  0  0
   16.2207   -9.0326   -8.9036 O   0  0  0  0  0  0  0  0  0  0  0  0
   20.2910   -6.2281  -10.5118 N   0  0  0  0  0  0  0  0  0  0  0  0
   20.2166   -7.2200  -11.5244 C   0  0  0  0  0  0  0  0  0  0  0  0
   21.1985   -7.3466  -12.2721 O   0  0  0  0  0  0  0  0  0  0  0  0
   19.0135   -8.0448  -11.6544 C   0  0  0  0  0  0  0  0  0  0  0  0
   17.8951   -7.7551  -10.7067 C   0  0  2  0  0  0  0  0  0  0  0  0
   16.8286   -8.7138  -11.0648 N   0  0  0  0  0  0  0  0  0  0  0  0
   17.3411   -6.3756  -10.8165 C   0  0  0  0  0  0  0  0  0  0  0  0
   16.8587   -6.0251  -11.9156 O   0  0  0  0  0  0  0  0  0  0  0  0
   17.3468   -5.4699   -9.7305 N   0  0  0  0  0  0  0  0  0  0  0  0
   16.7587   -4.1304   -9.9433 C   0  0  1  0  0  0  0  0  0  0  0  0
   16.2251   -3.6650   -8.6176 C   0  0  0  0  0  0  0  0  0  0  0  0
   14.8273   -3.9733   -8.3629 C   0  0  0  0  0  0  0  0  0  0  0  0
   14.0026   -4.4399   -9.1503 O   0  0  0  0  0  0  0  0  0  0  0  0
   17.8593   -3.2216  -10.4224 C   0  0  0  0  0  0  0  0  0  0  0  0
   19.1519   -3.6601  -10.5495 O   0  0  0  0  0  0  0  0  0  0  0  0
   14.3407   -3.7125   -7.0612 O   0  0  0  0  0  0  0  0  0  0  0  0
   17.6167   -2.0222  -10.7208 O   0  0  0  0  0  0  0  0  0  0  0  0
  2  1  1  6
  3  2  1  0
  4  5  1  0
  4  2  1  0
  5  6  1  1
  7  5  1  0
  7  8  2  0
 10  9  1  0
 10 12  1  0
 11 10  2  0
 13 12  1  6
 13 14  1  0
 14  7  1  0
 15 16  2  0
 15 13  1  0
 17 15  1  0
 18 17  1  0
 18 19  1  1
 20 19  1  0
 20 21  2  0
 22 18  1  0
 23 22  1  0
 24 20  1  0
 25 22  2  0
M  END
$$$$
