LND.pdb
     RDKit          3D

 25 24  0  0  1  0  0  0  0  0999 V2000
   11.1655  -13.3673  -12.6477 C   0  0  0  0  0  0  0  0  0  0  0  0
   11.9387  -13.4432  -11.3415 C   0  0  2  0  0  0  0  0  0  0  0  0
   11.1090  -14.3352  -10.4278 C   0  0  0  0  0  0  0  0  0  0  0  0
   12.1712  -12.0772  -10.7552 C   0  0  0  0  0  0  0  0  0  0  0  0
   12.9991  -11.2497  -11.7022 C   0  0  2  0  0  0  0  0  0  0  0  0
   14.2977  -11.8734  -11.8560 N   0  0  0  0  0  0  0  0  0  0  0  0
   13.1696   -9.8611  -11.2659 C   0  0  0  0  0  0  0  0  0  0  0  0
   12.1475   -9.1201  -11.1601 O   0  0  0  0  0  0  0  0  0  0  0  0
   16.3663   -6.5509   -7.5082 N   0  0  0  0  0  0  0  0  0  0  0  0
   15.2228   -6.7246   -8.3309 C   0  0  0  0  0  0  0  0  0  0  0  0
   14.4161   -5.7840   -8.3926 O   0  0  0  0  0  0  0  0  0  0  0  0
   15.0326   -7.9775   -9.0650 C   0  0  0  0  0  0  0  0  0  0  0  0
   14.5199   -7.8648  -10.4641 C   0  0  2  0  0  0  0  0  0  0  0  0
   14.4006   -9.2577  -10.9439 N   0  0  0  0  0  0  0  0  0  0  0  0
   15.4246   -7.1262  -11.3902 C   0  0  0  0  0  0  0  0  0  0  0  0
   15.6712   -5.9273  -11.1343 O   0  0  0  0  0  0  0  0  0  0  0  0
   16.0005   -7.7345  -12.5296 N   0  0  0  0  0  0  0  0  0  0  0  0
   16.8218   -6.8911  -13.4238 C   0  0  1  0  0  0  0  0  0  0  0  0
   17.7128   -7.8132  -14.2077 C   0  0  0  0  0  0  0  0  0  0  0  0
   18.8098   -8.4074  -13.4611 C   0  0  0  0  0  0  0  0  0  0  0  0
   19.1896   -8.1224  -12.3242 O   0  0  0  0  0  0  0  0  0  0  0  0
   15.8833   -6.1520  -14.3402 C   0  0  0  0  0  0  0  0  0  0  0  0
   16.3281   -5.1721  -15.1894 O   0  0  0  0  0  0  0  0  0  0  0  0
   19.5375   -9.4365  -14.1019 O   0  0  0  0  0  0  0  0  0  0  0  0
   14.6523   -6.4185  -14.3486 O   0  0  0  0  0  0  0  0  0  0  0  0
  2  1  1  6
  3  2  1  0
  4  5  1  0
  4  2  1  0
  5  6  1  1
  7  5  1  0
  7  8  2  0
 10  9  1  0
 10 12  1  0
 11 10  2  0
 13 12  1  1
 13 14  1  0
 14  7  1  0
 15 16  2  0
 15 13  1  0
 17 15  1  0
 18 17  1  0
 18 19  1  6
 20 19  1  0
 20 21  2  0
 22 18  1  0
 23 22  1  0
 24 20  1  0
 25 22  2  0
M  END
$$$$
