HHP.pdb
     RDKit          3D

 28 30  0  0  1  0  0  0  0  0999 V2000
    8.5854  -15.8171   21.1417 N   0  0  0  0  0  0  0  0  0  0  0  0
    8.2544  -14.4766   21.4953 C   0  0  1  0  0  0  0  0  0  0  0  0
    7.2151  -13.8953   20.5665 C   0  0  0  0  0  0  0  0  0  0  0  0
    7.6496  -14.0084   19.1395 C   0  0  0  0  0  0  0  0  0  0  0  0
    8.3991  -13.1164   18.4359 C   0  0  0  0  0  0  0  0  0  0  0  0
    8.5677  -13.5876   17.1886 N   0  0  0  0  0  0  0  0  0  0  0  0
    7.9309  -14.7679   17.1013 C   0  0  0  0  0  0  0  0  0  0  0  0
    7.3696  -15.0192   18.3038 N   0  0  0  0  0  0  0  0  0  0  0  0
    7.7966  -14.3209   22.8866 C   0  0  0  0  0  0  0  0  0  0  0  0
    7.3536  -13.2475   23.3630 O   0  0  0  0  0  0  0  0  0  0  0  0
    7.8605  -15.4538   23.7394 N   0  0  0  0  0  0  0  0  0  0  0  0
    7.8401  -15.3511   25.1966 C   0  0  1  0  0  0  0  0  0  0  0  0
    6.6202  -16.1425   25.7107 C   0  0  0  0  0  0  0  0  0  0  0  0
    6.7341  -17.5681   25.3151 C   0  0  0  0  0  0  0  0  0  0  0  0
    6.8163  -18.0378   24.0215 C   0  0  0  0  0  0  0  0  0  0  0  0
    6.9085  -19.3962   24.0603 N   0  0  0  0  0  0  0  0  0  0  0  0
    6.8842  -19.7722   25.3638 C   0  0  0  0  0  0  0  0  0  0  0  0
    6.7792  -18.6603   26.1002 N   0  0  0  0  0  0  0  0  0  0  0  0
    9.0750  -15.8127   25.8089 C   0  0  0  0  0  0  0  0  0  0  0  0
    9.8342  -16.5534   25.1335 O   0  0  0  0  0  0  0  0  0  0  0  0
    9.4369  -15.4544   27.1192 N   0  0  0  0  0  0  0  0  0  0  0  0
    8.5483  -14.6986   28.0229 C   0  0  0  0  0  0  0  0  0  0  0  0
    9.4208  -14.0109   29.0193 C   0  0  0  0  0  0  0  0  0  0  0  0
   10.8252  -14.2394   28.4440 C   0  0  0  0  0  0  0  0  0  0  0  0
   10.6229  -15.6578   27.8921 C   0  0  1  0  0  0  0  0  0  0  0  0
   10.3719  -16.5191   29.0901 C   0  0  0  0  0  0  0  0  0  0  0  0
    9.1645  -16.7652   29.3475 O   0  0  0  0  0  0  0  0  0  0  0  0
   11.3662  -17.0307   29.8879 O   0  0  0  0  0  0  0  0  0  0  0  0
  2  3  1  0
  2  1  1  6
  3  4  1  0
  4  5  2  0
  4  8  1  0
  5  6  1  0
  6  7  1  0
  8  7  2  0
  9 11  1  0
  9  2  1  0
 10  9  2  0
 12 19  1  0
 12 11  1  0
 12 13  1  1
 14 13  1  0
 15 14  2  0
 16 17  1  0
 16 15  1  0
 17 18  2  0
 18 14  1  0
 19 21  1  0
 20 19  2  0
 21 25  1  0
 21 22  1  0
 22 23  1  0
 24 23  1  0
 25 24  1  0
 25 26  1  1
 26 27  2  0
 26 28  1  0
M  END
$$$$
