HHP.pdb
     RDKit          3D

 28 30  0  0  1  0  0  0  0  0999 V2000
    9.0700  -15.4497   19.9653 N   0  0  0  0  0  0  0  0  0  0  0  0
    8.2373  -14.3671   20.3731 C   0  0  1  0  0  0  0  0  0  0  0  0
    7.0535  -14.1960   19.4511 C   0  0  0  0  0  0  0  0  0  0  0  0
    7.4901  -14.1621   18.0206 C   0  0  0  0  0  0  0  0  0  0  0  0
    8.2744  -13.2238   17.4231 C   0  0  0  0  0  0  0  0  0  0  0  0
    8.4314  -13.5562   16.1304 N   0  0  0  0  0  0  0  0  0  0  0  0
    7.7529  -14.6951   15.9094 C   0  0  0  0  0  0  0  0  0  0  0  0
    7.1775  -15.0606   17.0754 N   0  0  0  0  0  0  0  0  0  0  0  0
    7.7544  -14.4740   21.7605 C   0  0  0  0  0  0  0  0  0  0  0  0
    7.0218  -13.6193   22.3158 O   0  0  0  0  0  0  0  0  0  0  0  0
    8.1413  -15.6128   22.5144 N   0  0  0  0  0  0  0  0  0  0  0  0
    7.7801  -15.7940   23.9184 C   0  0  1  0  0  0  0  0  0  0  0  0
    7.4128  -17.2775   24.1258 C   0  0  0  0  0  0  0  0  0  0  0  0
    6.2037  -17.6182   23.3362 C   0  0  0  0  0  0  0  0  0  0  0  0
    6.1990  -18.2084   22.0902 C   0  0  0  0  0  0  0  0  0  0  0  0
    4.9061  -18.3620   21.6899 N   0  0  0  0  0  0  0  0  0  0  0  0
    4.1107  -17.8733   22.6746 C   0  0  0  0  0  0  0  0  0  0  0  0
    4.9090  -17.4320   23.6532 N   0  0  0  0  0  0  0  0  0  0  0  0
    8.8323  -15.3704   24.8275 C   0  0  0  0  0  0  0  0  0  0  0  0
   10.0224  -15.6498   24.5329 O   0  0  0  0  0  0  0  0  0  0  0  0
    8.5553  -14.6640   26.0110 N   0  0  0  0  0  0  0  0  0  0  0  0
    7.1982  -14.2247   26.3889 C   0  0  0  0  0  0  0  0  0  0  0  0
    7.3561  -13.0606   27.3093 C   0  0  0  0  0  0  0  0  0  0  0  0
    8.8554  -12.7515   27.1989 C   0  0  0  0  0  0  0  0  0  0  0  0
    9.3813  -14.1889   27.0775 C   0  0  1  0  0  0  0  0  0  0  0  0
    9.0490  -14.8457   28.3807 C   0  0  0  0  0  0  0  0  0  0  0  0
    9.7944  -14.5508   29.3513 O   0  0  0  0  0  0  0  0  0  0  0  0
    8.0055  -15.7222   28.5530 O   0  0  0  0  0  0  0  0  0  0  0  0
  2  3  1  0
  2  1  1  6
  3  4  1  0
  4  5  2  0
  4  8  1  0
  5  6  1  0
  6  7  1  0
  8  7  2  0
  9 11  1  0
  9  2  1  0
 10  9  2  0
 12 19  1  0
 12 11  1  0
 12 13  1  6
 14 13  1  0
 15 14  2  0
 16 17  1  0
 16 15  1  0
 17 18  2  0
 18 14  1  0
 19 21  1  0
 20 19  2  0
 21 25  1  0
 21 22  1  0
 22 23  1  0
 24 23  1  0
 25 24  1  0
 25 26  1  1
 26 27  2  0
 26 28  1  0
M  END
$$$$
