HHP.pdb
     RDKit          3D

 28 30  0  0  1  0  0  0  0  0999 V2000
    9.1798  -15.5935   20.2597 N   0  0  0  0  0  0  0  0  0  0  0  0
    8.2987  -14.5736   20.7236 C   0  0  1  0  0  0  0  0  0  0  0  0
    7.1188  -14.3928   19.7985 C   0  0  0  0  0  0  0  0  0  0  0  0
    7.5672  -14.2743   18.3762 C   0  0  0  0  0  0  0  0  0  0  0  0
    8.0968  -13.1764   17.7706 C   0  0  0  0  0  0  0  0  0  0  0  0
    8.3667  -13.4815   16.4899 N   0  0  0  0  0  0  0  0  0  0  0  0
    8.0117  -14.7613   16.2844 C   0  0  0  0  0  0  0  0  0  0  0  0
    7.5215  -15.2411   17.4480 N   0  0  0  0  0  0  0  0  0  0  0  0
    7.8058  -14.7877   22.0950 C   0  0  0  0  0  0  0  0  0  0  0  0
    6.9236  -14.0814   22.6412 O   0  0  0  0  0  0  0  0  0  0  0  0
    8.3627  -15.8575   22.8434 N   0  0  0  0  0  0  0  0  0  0  0  0
    8.1118  -16.0412   24.2709 C   0  0  1  0  0  0  0  0  0  0  0  0
    8.1701  -17.5526   24.5720 C   0  0  0  0  0  0  0  0  0  0  0  0
    7.0663  -18.2547   23.8719 C   0  0  0  0  0  0  0  0  0  0  0  0
    5.7445  -18.2630   24.2637 C   0  0  0  0  0  0  0  0  0  0  0  0
    5.0350  -19.0121   23.3744 N   0  0  0  0  0  0  0  0  0  0  0  0
    5.9034  -19.4674   22.4365 C   0  0  0  0  0  0  0  0  0  0  0  0
    7.1168  -19.0017   22.7534 N   0  0  0  0  0  0  0  0  0  0  0  0
    9.0383  -15.2927   25.1042 C   0  0  0  0  0  0  0  0  0  0  0  0
   10.2516  -15.2708   24.7747 O   0  0  0  0  0  0  0  0  0  0  0  0
    8.6160  -14.6006   26.2527 N   0  0  0  0  0  0  0  0  0  0  0  0
    7.2003  -14.4958   26.6559 C   0  0  0  0  0  0  0  0  0  0  0  0
    7.0752  -13.2697   27.4973 C   0  0  0  0  0  0  0  0  0  0  0  0
    8.4425  -12.5981   27.3102 C   0  0  0  0  0  0  0  0  0  0  0  0
    9.3161  -13.8595   27.2556 C   0  0  1  0  0  0  0  0  0  0  0  0
    9.1922  -14.4885   28.6080 C   0  0  0  0  0  0  0  0  0  0  0  0
    9.8369  -13.9318   29.5349 O   0  0  0  0  0  0  0  0  0  0  0  0
    8.4338  -15.6039   28.8677 O   0  0  0  0  0  0  0  0  0  0  0  0
  2  3  1  0
  2  1  1  6
  3  4  1  0
  4  5  2  0
  4  8  1  0
  5  6  1  0
  6  7  1  0
  8  7  2  0
  9 11  1  0
  9  2  1  0
 10  9  2  0
 12 19  1  0
 12 11  1  0
 12 13  1  1
 14 13  1  0
 15 14  2  0
 16 17  1  0
 16 15  1  0
 17 18  2  0
 18 14  1  0
 19 21  1  0
 20 19  2  0
 21 25  1  0
 21 22  1  0
 22 23  1  0
 24 23  1  0
 25 24  1  0
 25 26  1  1
 26 27  2  0
 26 28  1  0
M  END
$$$$
