HHP.pdb
     RDKit          3D

 28 30  0  0  1  0  0  0  0  0999 V2000
    8.6105  -16.0774   19.4933 N   0  0  0  0  0  0  0  0  0  0  0  0
    8.1260  -14.9123   20.1562 C   0  0  1  0  0  0  0  0  0  0  0  0
    7.0808  -14.1968   19.3338 C   0  0  0  0  0  0  0  0  0  0  0  0
    7.4832  -14.1344   17.8943 C   0  0  0  0  0  0  0  0  0  0  0  0
    8.1563  -13.1282   17.2724 C   0  0  0  0  0  0  0  0  0  0  0  0
    8.3205  -13.4570   15.9796 N   0  0  0  0  0  0  0  0  0  0  0  0
    7.7566  -14.6610   15.7828 C   0  0  0  0  0  0  0  0  0  0  0  0
    7.2446  -15.0702   16.9638 N   0  0  0  0  0  0  0  0  0  0  0  0
    7.5848  -15.1713   21.5014 C   0  0  0  0  0  0  0  0  0  0  0  0
    6.4487  -14.7990   21.8836 O   0  0  0  0  0  0  0  0  0  0  0  0
    8.3977  -15.8851   22.4203 N   0  0  0  0  0  0  0  0  0  0  0  0
    8.0183  -16.0979   23.8150 C   0  0  1  0  0  0  0  0  0  0  0  0
    8.1354  -17.6065   24.1134 C   0  0  0  0  0  0  0  0  0  0  0  0
    7.9652  -17.8532   25.5665 C   0  0  0  0  0  0  0  0  0  0  0  0
    8.9638  -18.2318   26.4385 C   0  0  0  0  0  0  0  0  0  0  0  0
    8.4247  -18.3611   27.6827 N   0  0  0  0  0  0  0  0  0  0  0  0
    7.1034  -18.0667   27.5901 C   0  0  0  0  0  0  0  0  0  0  0  0
    6.8482  -17.7646   26.3121 N   0  0  0  0  0  0  0  0  0  0  0  0
    8.8126  -15.3056   24.7395 C   0  0  0  0  0  0  0  0  0  0  0  0
   10.0464  -15.1967   24.5229 O   0  0  0  0  0  0  0  0  0  0  0  0
    8.2419  -14.6656   25.8535 N   0  0  0  0  0  0  0  0  0  0  0  0
    6.8108  -14.7699   26.1977 C   0  0  0  0  0  0  0  0  0  0  0  0
    6.4662  -13.5623   27.0041 C   0  0  0  0  0  0  0  0  0  0  0  0
    7.7232  -12.6943   26.8552 C   0  0  0  0  0  0  0  0  0  0  0  0
    8.7787  -13.8093   26.8654 C   0  0  1  0  0  0  0  0  0  0  0  0
    8.6934  -14.4259   28.2265 C   0  0  0  0  0  0  0  0  0  0  0  0
    9.1936  -13.7549   29.1668 O   0  0  0  0  0  0  0  0  0  0  0  0
    8.1146  -15.6455   28.4803 O   0  0  0  0  0  0  0  0  0  0  0  0
  2  3  1  0
  2  1  1  6
  3  4  1  0
  4  5  2  0
  4  8  1  0
  5  6  1  0
  6  7  1  0
  8  7  2  0
  9 11  1  0
  9  2  1  0
 10  9  2  0
 12 19  1  0
 12 11  1  0
 12 13  1  1
 14 13  1  0
 15 14  2  0
 16 17  1  0
 16 15  1  0
 17 18  2  0
 18 14  1  0
 19 21  1  0
 20 19  2  0
 21 25  1  0
 21 22  1  0
 22 23  1  0
 24 23  1  0
 25 24  1  0
 25 26  1  1
 26 27  2  0
 26 28  1  0
M  END
$$$$
