HHP.pdb
     RDKit          3D

 28 30  0  0  1  0  0  0  0  0999 V2000
    8.8351  -15.7339   19.5761 N   0  0  0  0  0  0  0  0  0  0  0  0
    8.4587  -14.4414   20.0444 C   0  0  1  0  0  0  0  0  0  0  0  0
    7.4602  -13.7831   19.1222 C   0  0  0  0  0  0  0  0  0  0  0  0
    7.8884  -13.9067   17.6942 C   0  0  0  0  0  0  0  0  0  0  0  0
    7.1800  -14.4531   16.6686 C   0  0  0  0  0  0  0  0  0  0  0  0
    7.9162  -14.3709   15.5472 N   0  0  0  0  0  0  0  0  0  0  0  0
    9.0813  -13.7776   15.8583 C   0  0  0  0  0  0  0  0  0  0  0  0
    9.0563  -13.4956   17.1790 N   0  0  0  0  0  0  0  0  0  0  0  0
    7.9226  -14.4353   21.4163 C   0  0  0  0  0  0  0  0  0  0  0  0
    7.4121  -13.4285   21.9652 O   0  0  0  0  0  0  0  0  0  0  0  0
    7.9875  -15.6414   22.1620 N   0  0  0  0  0  0  0  0  0  0  0  0
    7.5738  -15.7320   23.5602 C   0  0  1  0  0  0  0  0  0  0  0  0
    7.2121  -17.2023   23.8534 C   0  0  0  0  0  0  0  0  0  0  0  0
    6.1036  -17.6404   22.9697 C   0  0  0  0  0  0  0  0  0  0  0  0
    4.9677  -16.9121   22.6862 C   0  0  0  0  0  0  0  0  0  0  0  0
    4.1866  -17.6415   21.8417 N   0  0  0  0  0  0  0  0  0  0  0  0
    4.8267  -18.8131   21.5995 C   0  0  0  0  0  0  0  0  0  0  0  0
    5.9749  -18.7923   22.2857 N   0  0  0  0  0  0  0  0  0  0  0  0
    8.5861  -15.2360   24.4780 C   0  0  0  0  0  0  0  0  0  0  0  0
    9.7956  -15.3937   24.1727 O   0  0  0  0  0  0  0  0  0  0  0  0
    8.2499  -14.5915   25.6813 N   0  0  0  0  0  0  0  0  0  0  0  0
    6.8574  -14.3350   26.0969 C   0  0  0  0  0  0  0  0  0  0  0  0
    6.8882  -13.1766   27.0372 C   0  0  0  0  0  0  0  0  0  0  0  0
    8.3332  -12.6775   26.9013 C   0  0  0  0  0  0  0  0  0  0  0  0
    9.0340  -14.0340   26.7396 C   0  0  1  0  0  0  0  0  0  0  0  0
    8.8185  -14.7505   28.0358 C   0  0  0  0  0  0  0  0  0  0  0  0
    7.8236  -15.5204   28.0802 O   0  0  0  0  0  0  0  0  0  0  0  0
    9.6302  -14.6071   29.1347 O   0  0  0  0  0  0  0  0  0  0  0  0
  2  3  1  0
  2  1  1  6
  3  4  1  0
  4  5  2  0
  4  8  1  0
  5  6  1  0
  6  7  1  0
  8  7  2  0
  9 11  1  0
  9  2  1  0
 10  9  2  0
 12 19  1  0
 12 11  1  0
 12 13  1  1
 14 13  1  0
 15 14  2  0
 16 17  1  0
 16 15  1  0
 17 18  2  0
 18 14  1  0
 19 21  1  0
 20 19  2  0
 21 25  1  0
 21 22  1  0
 22 23  1  0
 24 23  1  0
 25 24  1  0
 25 26  1  1
 26 27  2  0
 26 28  1  0
M  END
$$$$
