HHP.pdb
     RDKit          3D

 28 30  0  0  1  0  0  0  0  0999 V2000
    8.2918  -16.3057   19.6856 N   0  0  0  0  0  0  0  0  0  0  0  0
    8.0553  -15.0581   20.3331 C   0  0  1  0  0  0  0  0  0  0  0  0
    7.1249  -14.1805   19.5300 C   0  0  0  0  0  0  0  0  0  0  0  0
    7.6155  -14.0252   18.1253 C   0  0  0  0  0  0  0  0  0  0  0  0
    8.6472  -13.2478   17.6968 C   0  0  0  0  0  0  0  0  0  0  0  0
    8.7648  -13.3871   16.3652 N   0  0  0  0  0  0  0  0  0  0  0  0
    7.8162  -14.2450   15.9524 C   0  0  0  0  0  0  0  0  0  0  0  0
    7.1146  -14.6323   17.0395 N   0  0  0  0  0  0  0  0  0  0  0  0
    7.5318  -15.1857   21.7039 C   0  0  0  0  0  0  0  0  0  0  0  0
    6.3319  -14.9916   22.0171 O   0  0  0  0  0  0  0  0  0  0  0  0
    8.4397  -15.5503   22.7323 N   0  0  0  0  0  0  0  0  0  0  0  0
    8.0408  -15.6832   24.1314 C   0  0  1  0  0  0  0  0  0  0  0  0
    7.9713  -17.1876   24.4639 C   0  0  0  0  0  0  0  0  0  0  0  0
    6.9019  -17.8369   23.6661 C   0  0  0  0  0  0  0  0  0  0  0  0
    5.5662  -17.8859   24.0041 C   0  0  0  0  0  0  0  0  0  0  0  0
    4.8986  -18.5639   23.0294 N   0  0  0  0  0  0  0  0  0  0  0  0
    5.8067  -18.9349   22.0919 C   0  0  0  0  0  0  0  0  0  0  0  0
    7.0025  -18.4890   22.4930 N   0  0  0  0  0  0  0  0  0  0  0  0
    8.9294  -14.9747   25.0379 C   0  0  0  0  0  0  0  0  0  0  0  0
   10.1504  -14.9090   24.7449 O   0  0  0  0  0  0  0  0  0  0  0  0
    8.4625  -14.3679   26.2169 N   0  0  0  0  0  0  0  0  0  0  0  0
    7.0341  -14.3102   26.5829 C   0  0  0  0  0  0  0  0  0  0  0  0
    6.8648  -13.1456   27.5007 C   0  0  0  0  0  0  0  0  0  0  0  0
    8.2262  -12.4440   27.4009 C   0  0  0  0  0  0  0  0  0  0  0  0
    9.1209  -13.6867   27.2882 C   0  0  1  0  0  0  0  0  0  0  0  0
    8.9671  -14.4074   28.5909 C   0  0  0  0  0  0  0  0  0  0  0  0
    8.6954  -13.6891   29.5884 O   0  0  0  0  0  0  0  0  0  0  0  0
    9.1053  -15.7664   28.7358 O   0  0  0  0  0  0  0  0  0  0  0  0
  2  3  1  0
  2  1  1  6
  3  4  1  0
  4  5  2  0
  4  8  1  0
  5  6  1  0
  6  7  1  0
  8  7  2  0
  9 11  1  0
  9  2  1  0
 10  9  2  0
 12 19  1  0
 12 11  1  0
 12 13  1  1
 14 13  1  0
 15 14  2  0
 16 17  1  0
 16 15  1  0
 17 18  2  0
 18 14  1  0
 19 21  1  0
 20 19  2  0
 21 25  1  0
 21 22  1  0
 22 23  1  0
 24 23  1  0
 25 24  1  0
 25 26  1  1
 26 27  2  0
 26 28  1  0
M  END
$$$$
