HHP.pdb
     RDKit          3D

 28 30  0  0  1  0  0  0  0  0999 V2000
    8.2178  -17.3039   19.5037 N   0  0  0  0  0  0  0  0  0  0  0  0
    8.9274  -16.6421   20.5478 C   0  0  1  0  0  0  0  0  0  0  0  0
    9.7058  -15.4567   20.0286 C   0  0  0  0  0  0  0  0  0  0  0  0
    8.8792  -14.6478   19.0797 C   0  0  0  0  0  0  0  0  0  0  0  0
    7.6170  -14.9220   18.6505 C   0  0  0  0  0  0  0  0  0  0  0  0
    7.2311  -13.9509   17.8054 N   0  0  0  0  0  0  0  0  0  0  0  0
    8.2391  -13.0684   17.6992 C   0  0  0  0  0  0  0  0  0  0  0  0
    9.2477  -13.5038   18.4850 N   0  0  0  0  0  0  0  0  0  0  0  0
    8.0745  -16.2045   21.6661 C   0  0  0  0  0  0  0  0  0  0  0  0
    6.9461  -15.6742   21.5215 O   0  0  0  0  0  0  0  0  0  0  0  0
    8.5587  -16.3944   22.9868 N   0  0  0  0  0  0  0  0  0  0  0  0
    7.8346  -15.9361   24.1701 C   0  0  1  0  0  0  0  0  0  0  0  0
    7.4640  -17.1760   25.0091 C   0  0  0  0  0  0  0  0  0  0  0  0
    6.8766  -18.2237   24.1380 C   0  0  0  0  0  0  0  0  0  0  0  0
    5.6150  -18.1911   23.5827 C   0  0  0  0  0  0  0  0  0  0  0  0
    5.4367  -19.3247   22.8488 N   0  0  0  0  0  0  0  0  0  0  0  0
    6.5741  -20.0583   22.9439 C   0  0  0  0  0  0  0  0  0  0  0  0
    7.4253  -19.3800   23.7217 N   0  0  0  0  0  0  0  0  0  0  0  0
    8.5887  -14.9679   24.9492 C   0  0  0  0  0  0  0  0  0  0  0  0
    9.7825  -14.7424   24.6250 O   0  0  0  0  0  0  0  0  0  0  0  0
    8.0226  -14.2856   26.0402 N   0  0  0  0  0  0  0  0  0  0  0  0
    6.6074  -14.4273   26.4334 C   0  0  0  0  0  0  0  0  0  0  0  0
    6.2342  -13.1883   27.1770 C   0  0  0  0  0  0  0  0  0  0  0  0
    7.4484  -12.2802   26.9387 C   0  0  0  0  0  0  0  0  0  0  0  0
    8.5504  -13.3483   26.9827 C   0  0  1  0  0  0  0  0  0  0  0  0
    8.5296  -13.8844   28.3800 C   0  0  0  0  0  0  0  0  0  0  0  0
    9.0749  -13.1619   29.2547 O   0  0  0  0  0  0  0  0  0  0  0  0
    7.9623  -15.0850   28.7316 O   0  0  0  0  0  0  0  0  0  0  0  0
  2  3  1  0
  2  1  1  6
  3  4  1  0
  4  5  2  0
  4  8  1  0
  5  6  1  0
  6  7  1  0
  8  7  2  0
  9 11  1  0
  9  2  1  0
 10  9  2  0
 12 19  1  0
 12 11  1  0
 12 13  1  1
 14 13  1  0
 15 14  2  0
 16 17  1  0
 16 15  1  0
 17 18  2  0
 18 14  1  0
 19 21  1  0
 20 19  2  0
 21 25  1  0
 21 22  1  0
 22 23  1  0
 24 23  1  0
 25 24  1  0
 25 26  1  1
 26 27  2  0
 26 28  1  0
M  END
$$$$
