HHP.pdb
     RDKit          3D

 28 30  0  0  1  0  0  0  0  0999 V2000
    9.0482  -15.4628   20.2026 N   0  0  0  0  0  0  0  0  0  0  0  0
    8.2079  -14.4209   20.6923 C   0  0  1  0  0  0  0  0  0  0  0  0
    7.0048  -14.2108   19.8039 C   0  0  0  0  0  0  0  0  0  0  0  0
    7.4123  -14.0995   18.3688 C   0  0  0  0  0  0  0  0  0  0  0  0
    8.0328  -13.0463   17.7705 C   0  0  0  0  0  0  0  0  0  0  0  0
    8.2232  -13.3413   16.4732 N   0  0  0  0  0  0  0  0  0  0  0  0
    7.7280  -14.5706   16.2502 C   0  0  0  0  0  0  0  0  0  0  0  0
    7.2318  -15.0294   17.4196 N   0  0  0  0  0  0  0  0  0  0  0  0
    7.7525  -14.6219   22.0786 C   0  0  0  0  0  0  0  0  0  0  0  0
    6.9289  -13.8751   22.6612 O   0  0  0  0  0  0  0  0  0  0  0  0
    8.2772  -15.7271   22.7983 N   0  0  0  0  0  0  0  0  0  0  0  0
    8.0372  -15.9299   24.2250 C   0  0  1  0  0  0  0  0  0  0  0  0
    8.0122  -17.4490   24.4904 C   0  0  0  0  0  0  0  0  0  0  0  0
    6.9080  -18.0815   23.7273 C   0  0  0  0  0  0  0  0  0  0  0  0
    5.5622  -17.8721   23.9409 C   0  0  0  0  0  0  0  0  0  0  0  0
    4.8609  -18.6245   23.0479 N   0  0  0  0  0  0  0  0  0  0  0  0
    5.7582  -19.2971   22.2840 C   0  0  0  0  0  0  0  0  0  0  0  0
    6.9807  -18.9573   22.7079 N   0  0  0  0  0  0  0  0  0  0  0  0
    9.0178  -15.2561   25.0602 C   0  0  0  0  0  0  0  0  0  0  0  0
   10.2258  -15.2998   24.7139 O   0  0  0  0  0  0  0  0  0  0  0  0
    8.6529  -14.5649   26.2287 N   0  0  0  0  0  0  0  0  0  0  0  0
    7.2510  -14.3751   26.6486 C   0  0  0  0  0  0  0  0  0  0  0  0
    7.2159  -13.1637   27.5195 C   0  0  0  0  0  0  0  0  0  0  0  0
    8.6237  -12.5810   27.3341 C   0  0  0  0  0  0  0  0  0  0  0  0
    9.4099  -13.8966   27.2414 C   0  0  1  0  0  0  0  0  0  0  0  0
    9.2555  -14.5479   28.5801 C   0  0  0  0  0  0  0  0  0  0  0  0
    9.9698  -14.0803   29.5051 O   0  0  0  0  0  0  0  0  0  0  0  0
    8.4001  -15.5934   28.8294 O   0  0  0  0  0  0  0  0  0  0  0  0
  2  3  1  0
  2  1  1  6
  3  4  1  0
  4  5  2  0
  4  8  1  0
  5  6  1  0
  6  7  1  0
  8  7  2  0
  9 11  1  0
  9  2  1  0
 10  9  2  0
 12 19  1  0
 12 11  1  0
 12 13  1  6
 14 13  1  0
 15 14  2  0
 16 17  1  0
 16 15  1  0
 17 18  2  0
 18 14  1  0
 19 21  1  0
 20 19  2  0
 21 25  1  0
 21 22  1  0
 22 23  1  0
 24 23  1  0
 25 24  1  0
 25 26  1  1
 26 27  2  0
 26 28  1  0
M  END
$$$$
