HHP.pdb
     RDKit          3D

 28 30  0  0  1  0  0  0  0  0999 V2000
    9.3706  -15.3648   20.2045 N   0  0  0  0  0  0  0  0  0  0  0  0
    8.4166  -14.3924   20.6243 C   0  0  1  0  0  0  0  0  0  0  0  0
    7.2902  -14.2503   19.6284 C   0  0  0  0  0  0  0  0  0  0  0  0
    7.8192  -14.1550   18.2323 C   0  0  0  0  0  0  0  0  0  0  0  0
    8.4627  -13.0966   17.6682 C   0  0  0  0  0  0  0  0  0  0  0  0
    8.7738  -13.4108   16.3990 N   0  0  0  0  0  0  0  0  0  0  0  0
    8.3317  -14.6572   16.1598 C   0  0  0  0  0  0  0  0  0  0  0  0
    7.7466  -15.1073   17.2909 N   0  0  0  0  0  0  0  0  0  0  0  0
    7.8487  -14.6494   21.9588 C   0  0  0  0  0  0  0  0  0  0  0  0
    6.8859  -14.0084   22.4463 O   0  0  0  0  0  0  0  0  0  0  0  0
    8.4256  -15.6845   22.7401 N   0  0  0  0  0  0  0  0  0  0  0  0
    8.0794  -15.9063   24.1420 C   0  0  1  0  0  0  0  0  0  0  0  0
    7.9939  -17.4286   24.3742 C   0  0  0  0  0  0  0  0  0  0  0  0
    6.8231  -17.9888   23.6552 C   0  0  0  0  0  0  0  0  0  0  0  0
    5.6210  -18.3411   24.2312 C   0  0  0  0  0  0  0  0  0  0  0  0
    4.7972  -18.8154   23.2556 N   0  0  0  0  0  0  0  0  0  0  0  0
    5.4764  -18.7605   22.0823 C   0  0  0  0  0  0  0  0  0  0  0  0
    6.6898  -18.2616   22.3440 N   0  0  0  0  0  0  0  0  0  0  0  0
    9.0164  -15.2764   25.0577 C   0  0  0  0  0  0  0  0  0  0  0  0
   10.2333  -15.2531   24.7421 O   0  0  0  0  0  0  0  0  0  0  0  0
    8.6001  -14.6991   26.2700 N   0  0  0  0  0  0  0  0  0  0  0  0
    7.2042  -14.7429   26.7465 C   0  0  0  0  0  0  0  0  0  0  0  0
    7.0231  -13.5891   27.6755 C   0  0  0  0  0  0  0  0  0  0  0  0
    8.3183  -12.7915   27.4702 C   0  0  0  0  0  0  0  0  0  0  0  0
    9.2891  -13.9669   27.2871 C   0  0  1  0  0  0  0  0  0  0  0  0
    9.2899  -14.6904   28.5973 C   0  0  0  0  0  0  0  0  0  0  0  0
    9.9356  -14.1418   29.5283 O   0  0  0  0  0  0  0  0  0  0  0  0
    8.6405  -15.8810   28.8156 O   0  0  0  0  0  0  0  0  0  0  0  0
  2  3  1  0
  2  1  1  6
  3  4  1  0
  4  5  2  0
  4  8  1  0
  5  6  1  0
  6  7  1  0
  8  7  2  0
  9 11  1  0
  9  2  1  0
 10  9  2  0
 12 19  1  0
 12 11  1  0
 12 13  1  1
 14 13  1  0
 15 14  2  0
 16 17  1  0
 16 15  1  0
 17 18  2  0
 18 14  1  0
 19 21  1  0
 20 19  2  0
 21 25  1  0
 21 22  1  0
 22 23  1  0
 24 23  1  0
 25 24  1  0
 25 26  1  1
 26 27  2  0
 26 28  1  0
M  END
$$$$
