HHP.pdb
     RDKit          3D

 28 30  0  0  1  0  0  0  0  0999 V2000
    8.6273  -15.9223   20.6951 N   0  0  0  0  0  0  0  0  0  0  0  0
    8.1388  -14.6639   21.1527 C   0  0  1  0  0  0  0  0  0  0  0  0
    7.1305  -14.0753   20.1947 C   0  0  0  0  0  0  0  0  0  0  0  0
    7.6835  -14.0155   18.8060 C   0  0  0  0  0  0  0  0  0  0  0  0
    8.4862  -13.0492   18.2824 C   0  0  0  0  0  0  0  0  0  0  0  0
    8.7603  -13.3649   17.0051 N   0  0  0  0  0  0  0  0  0  0  0  0
    8.1371  -14.5212   16.7206 C   0  0  0  0  0  0  0  0  0  0  0  0
    7.4779  -14.9142   17.8320 N   0  0  0  0  0  0  0  0  0  0  0  0
    7.5516  -14.7056   22.5028 C   0  0  0  0  0  0  0  0  0  0  0  0
    6.6382  -13.9388   22.8942 O   0  0  0  0  0  0  0  0  0  0  0  0
    8.0492  -15.6718   23.4159 N   0  0  0  0  0  0  0  0  0  0  0  0
    7.8794  -15.5567   24.8624 C   0  0  1  0  0  0  0  0  0  0  0  0
    6.6602  -16.4106   25.2661 C   0  0  0  0  0  0  0  0  0  0  0  0
    6.9922  -17.8532   25.1641 C   0  0  0  0  0  0  0  0  0  0  0  0
    6.7352  -18.6607   24.0765 C   0  0  0  0  0  0  0  0  0  0  0  0
    7.1820  -19.9167   24.3560 N   0  0  0  0  0  0  0  0  0  0  0  0
    7.7127  -19.8952   25.6046 C   0  0  0  0  0  0  0  0  0  0  0  0
    7.5888  -18.6478   26.0718 N   0  0  0  0  0  0  0  0  0  0  0  0
    9.0714  -15.9423   25.5997 C   0  0  0  0  0  0  0  0  0  0  0  0
    9.8533  -16.7753   25.0744 O   0  0  0  0  0  0  0  0  0  0  0  0
    9.3679  -15.4122   26.8675 N   0  0  0  0  0  0  0  0  0  0  0  0
    8.3905  -14.6558   27.6738 C   0  0  0  0  0  0  0  0  0  0  0  0
    9.1702  -13.7829   28.5998 C   0  0  0  0  0  0  0  0  0  0  0  0
   10.6025  -13.9318   28.0687 C   0  0  0  0  0  0  0  0  0  0  0  0
   10.5507  -15.4140   27.6715 C   0  0  1  0  0  0  0  0  0  0  0  0
   10.3580  -16.1630   28.9528 C   0  0  0  0  0  0  0  0  0  0  0  0
   11.3645  -16.2337   29.7055 O   0  0  0  0  0  0  0  0  0  0  0  0
    9.1745  -16.7527   29.3251 O   0  0  0  0  0  0  0  0  0  0  0  0
  2  3  1  0
  2  1  1  6
  3  4  1  0
  4  5  2  0
  4  8  1  0
  5  6  1  0
  6  7  1  0
  8  7  2  0
  9 11  1  0
  9  2  1  0
 10  9  2  0
 12 19  1  0
 12 11  1  0
 12 13  1  1
 14 13  1  0
 15 14  2  0
 16 17  1  0
 16 15  1  0
 17 18  2  0
 18 14  1  0
 19 21  1  0
 20 19  2  0
 21 25  1  0
 21 22  1  0
 22 23  1  0
 24 23  1  0
 25 24  1  0
 25 26  1  1
 26 27  2  0
 26 28  1  0
M  END
$$$$
