HHP.pdb
     RDKit          3D

 28 30  0  0  1  0  0  0  0  0999 V2000
    8.9007  -15.7038   19.7791 N   0  0  0  0  0  0  0  0  0  0  0  0
    8.3056  -14.5276   20.3212 C   0  0  1  0  0  0  0  0  0  0  0  0
    7.2025  -14.0012   19.4343 C   0  0  0  0  0  0  0  0  0  0  0  0
    7.6265  -13.9948   17.9997 C   0  0  0  0  0  0  0  0  0  0  0  0
    8.1389  -12.9464   17.2992 C   0  0  0  0  0  0  0  0  0  0  0  0
    8.3895  -13.3518   16.0425 N   0  0  0  0  0  0  0  0  0  0  0  0
    8.0393  -14.6457   15.9463 C   0  0  0  0  0  0  0  0  0  0  0  0
    7.5716  -15.0331   17.1528 N   0  0  0  0  0  0  0  0  0  0  0  0
    7.7837  -14.6973   21.6881 C   0  0  0  0  0  0  0  0  0  0  0  0
    7.1666  -13.8046   22.3188 O   0  0  0  0  0  0  0  0  0  0  0  0
    7.9915  -15.9460   22.3301 N   0  0  0  0  0  0  0  0  0  0  0  0
    7.7076  -16.1662   23.7462 C   0  0  1  0  0  0  0  0  0  0  0  0
    7.7448  -17.6859   24.0065 C   0  0  0  0  0  0  0  0  0  0  0  0
    7.6612  -17.9555   25.4632 C   0  0  0  0  0  0  0  0  0  0  0  0
    8.7161  -18.3165   26.2743 C   0  0  0  0  0  0  0  0  0  0  0  0
    8.2495  -18.4766   27.5439 N   0  0  0  0  0  0  0  0  0  0  0  0
    6.9175  -18.2187   27.5274 C   0  0  0  0  0  0  0  0  0  0  0  0
    6.5846  -17.9081   26.2695 N   0  0  0  0  0  0  0  0  0  0  0  0
    8.6227  -15.4503   24.6198 C   0  0  0  0  0  0  0  0  0  0  0  0
    9.8471  -15.4565   24.3335 O   0  0  0  0  0  0  0  0  0  0  0  0
    8.1776  -14.7592   25.7602 N   0  0  0  0  0  0  0  0  0  0  0  0
    6.7652  -14.7326   26.1867 C   0  0  0  0  0  0  0  0  0  0  0  0
    6.5784  -13.4973   27.0030 C   0  0  0  0  0  0  0  0  0  0  0  0
    7.8981  -12.7472   26.7762 C   0  0  0  0  0  0  0  0  0  0  0  0
    8.8472  -13.9533   26.7336 C   0  0  1  0  0  0  0  0  0  0  0  0
    8.7853  -14.5572   28.1016 C   0  0  0  0  0  0  0  0  0  0  0  0
    9.4375  -13.9592   28.9971 O   0  0  0  0  0  0  0  0  0  0  0  0
    8.0741  -15.6921   28.4068 O   0  0  0  0  0  0  0  0  0  0  0  0
  2  3  1  0
  2  1  1  6
  3  4  1  0
  4  5  2  0
  4  8  1  0
  5  6  1  0
  6  7  1  0
  8  7  2  0
  9 11  1  0
  9  2  1  0
 10  9  2  0
 12 19  1  0
 12 11  1  0
 12 13  1  1
 14 13  1  0
 15 14  2  0
 16 17  1  0
 16 15  1  0
 17 18  2  0
 18 14  1  0
 19 21  1  0
 20 19  2  0
 21 25  1  0
 21 22  1  0
 22 23  1  0
 24 23  1  0
 25 24  1  0
 25 26  1  1
 26 27  2  0
 26 28  1  0
M  END
$$$$
