HHP.pdb
     RDKit          3D

 28 30  0  0  1  0  0  0  0  0999 V2000
    7.3049  -16.3496   19.5102 N   0  0  0  0  0  0  0  0  0  0  0  0
    8.0439  -15.4939   20.3781 C   0  0  1  0  0  0  0  0  0  0  0  0
    8.0968  -14.0787   19.8536 C   0  0  0  0  0  0  0  0  0  0  0  0
    8.3198  -14.0644   18.3744 C   0  0  0  0  0  0  0  0  0  0  0  0
    8.4486  -15.1416   17.5526 C   0  0  0  0  0  0  0  0  0  0  0  0
    8.6369  -14.7026   16.2964 N   0  0  0  0  0  0  0  0  0  0  0  0
    8.6277  -13.3589   16.3207 C   0  0  0  0  0  0  0  0  0  0  0  0
    8.4324  -12.9748   17.6008 N   0  0  0  0  0  0  0  0  0  0  0  0
    7.5464  -15.4744   21.7644 C   0  0  0  0  0  0  0  0  0  0  0  0
    6.4413  -14.9869   22.1059 O   0  0  0  0  0  0  0  0  0  0  0  0
    8.3668  -16.0414   22.7744 N   0  0  0  0  0  0  0  0  0  0  0  0
    8.0158  -16.0078   24.1922 C   0  0  1  0  0  0  0  0  0  0  0  0
    7.5898  -17.4303   24.6090 C   0  0  0  0  0  0  0  0  0  0  0  0
    6.4229  -17.8691   23.8045 C   0  0  0  0  0  0  0  0  0  0  0  0
    5.7762  -17.1128   22.8502 C   0  0  0  0  0  0  0  0  0  0  0  0
    4.7576  -17.8527   22.3302 N   0  0  0  0  0  0  0  0  0  0  0  0
    4.7669  -19.0585   22.9522 C   0  0  0  0  0  0  0  0  0  0  0  0
    5.7737  -19.0477   23.8331 N   0  0  0  0  0  0  0  0  0  0  0  0
    9.0959  -15.5061   25.0258 C   0  0  0  0  0  0  0  0  0  0  0  0
   10.2791  -15.6891   24.6417 O   0  0  0  0  0  0  0  0  0  0  0  0
    8.8526  -14.8289   26.2335 N   0  0  0  0  0  0  0  0  0  0  0  0
    7.4995  -14.4614   26.6934 C   0  0  0  0  0  0  0  0  0  0  0  0
    7.6529  -13.3025   27.6210 C   0  0  0  0  0  0  0  0  0  0  0  0
    9.1269  -12.9189   27.4315 C   0  0  0  0  0  0  0  0  0  0  0  0
    9.7138  -14.3272   27.2592 C   0  0  1  0  0  0  0  0  0  0  0  0
    9.4879  -15.0156   28.5688 C   0  0  0  0  0  0  0  0  0  0  0  0
    8.4663  -15.7479   28.6365 O   0  0  0  0  0  0  0  0  0  0  0  0
   10.3173  -14.8853   29.6560 O   0  0  0  0  0  0  0  0  0  0  0  0
  2  3  1  0
  2  1  1  6
  3  4  1  0
  4  5  2  0
  4  8  1  0
  5  6  1  0
  6  7  1  0
  8  7  2  0
  9 11  1  0
  9  2  1  0
 10  9  2  0
 12 19  1  0
 12 11  1  0
 12 13  1  1
 14 13  1  0
 15 14  2  0
 16 17  1  0
 16 15  1  0
 17 18  2  0
 18 14  1  0
 19 21  1  0
 20 19  2  0
 21 25  1  0
 21 22  1  0
 22 23  1  0
 24 23  1  0
 25 24  1  0
 25 26  1  1
 26 27  2  0
 26 28  1  0
M  END
$$$$
