HHP.pdb
     RDKit          3D

 28 30  0  0  1  0  0  0  0  0999 V2000
   11.9283  -17.2652   20.8972 N   0  0  0  0  0  0  0  0  0  0  0  0
   11.1976  -17.4253   22.1105 C   0  0  1  0  0  0  0  0  0  0  0  0
   11.9849  -18.2045   23.1369 C   0  0  0  0  0  0  0  0  0  0  0  0
   12.0042  -19.6625   22.8024 C   0  0  0  0  0  0  0  0  0  0  0  0
   10.9363  -20.5032   22.7316 C   0  0  0  0  0  0  0  0  0  0  0  0
   11.3770  -21.7296   22.4030 N   0  0  0  0  0  0  0  0  0  0  0  0
   12.7127  -21.6678   22.2666 C   0  0  0  0  0  0  0  0  0  0  0  0
   13.0900  -20.3947   22.5136 N   0  0  0  0  0  0  0  0  0  0  0  0
   10.7493  -16.1568   22.7102 C   0  0  0  0  0  0  0  0  0  0  0  0
   11.4961  -15.3870   23.3622 O   0  0  0  0  0  0  0  0  0  0  0  0
    9.3905  -15.7833   22.5400 N   0  0  0  0  0  0  0  0  0  0  0  0
    8.7820  -14.6611   23.2506 C   0  0  1  0  0  0  0  0  0  0  0  0
    7.3838  -14.4193   22.6464 C   0  0  0  0  0  0  0  0  0  0  0  0
    7.4841  -14.2688   21.1737 C   0  0  0  0  0  0  0  0  0  0  0  0
    7.9598  -13.1571   20.5113 C   0  0  0  0  0  0  0  0  0  0  0  0
    7.8969  -13.3930   19.1713 N   0  0  0  0  0  0  0  0  0  0  0  0
    7.3875  -14.6385   18.9972 C   0  0  0  0  0  0  0  0  0  0  0  0
    7.1466  -15.1467   20.2110 N   0  0  0  0  0  0  0  0  0  0  0  0
    8.7152  -14.8764   24.6867 C   0  0  0  0  0  0  0  0  0  0  0  0
    9.3814  -15.8224   25.1789 O   0  0  0  0  0  0  0  0  0  0  0  0
    7.9357  -14.0625   25.5271 N   0  0  0  0  0  0  0  0  0  0  0  0
    6.8549  -13.1902   25.0286 C   0  0  0  0  0  0  0  0  0  0  0  0
    6.6790  -12.0970   26.0292 C   0  0  0  0  0  0  0  0  0  0  0  0
    7.8885  -12.2952   26.9530 C   0  0  0  0  0  0  0  0  0  0  0  0
    7.9439  -13.8295   26.9382 C   0  0  1  0  0  0  0  0  0  0  0  0
    6.6739  -14.2802   27.5894 C   0  0  0  0  0  0  0  0  0  0  0  0
    6.6221  -14.1531   28.8407 O   0  0  0  0  0  0  0  0  0  0  0  0
    5.6059  -14.8058   26.9038 O   0  0  0  0  0  0  0  0  0  0  0  0
  2  3  1  0
  2  1  1  6
  3  4  1  0
  4  5  2  0
  4  8  1  0
  5  6  1  0
  6  7  1  0
  8  7  2  0
  9 11  1  0
  9  2  1  0
 10  9  2  0
 12 19  1  0
 12 11  1  0
 12 13  1  6
 14 13  1  0
 15 14  2  0
 16 17  1  0
 16 15  1  0
 17 18  2  0
 18 14  1  0
 19 21  1  0
 20 19  2  0
 21 25  1  0
 21 22  1  0
 22 23  1  0
 24 23  1  0
 25 24  1  0
 25 26  1  1
 26 27  2  0
 26 28  1  0
M  END
$$$$
