HHP.pdb
     RDKit          3D

 28 30  0  0  1  0  0  0  0  0999 V2000
    8.3589  -16.0916   19.3590 N   0  0  0  0  0  0  0  0  0  0  0  0
    8.0272  -14.9175   20.0959 C   0  0  1  0  0  0  0  0  0  0  0  0
    7.0213  -14.0636   19.3611 C   0  0  0  0  0  0  0  0  0  0  0  0
    7.3873  -13.9289   17.9169 C   0  0  0  0  0  0  0  0  0  0  0  0
    7.8982  -12.8296   17.2980 C   0  0  0  0  0  0  0  0  0  0  0  0
    8.0874  -13.1179   15.9990 N   0  0  0  0  0  0  0  0  0  0  0  0
    7.7002  -14.3886   15.7953 C   0  0  0  0  0  0  0  0  0  0  0  0
    7.2715  -14.8797   16.9783 N   0  0  0  0  0  0  0  0  0  0  0  0
    7.5278  -15.1860   21.4553 C   0  0  0  0  0  0  0  0  0  0  0  0
    6.3332  -15.0288   21.8072 O   0  0  0  0  0  0  0  0  0  0  0  0
    8.4540  -15.6505   22.4254 N   0  0  0  0  0  0  0  0  0  0  0  0
    8.0772  -15.9381   23.8073 C   0  0  1  0  0  0  0  0  0  0  0  0
    8.0590  -17.4701   23.9848 C   0  0  0  0  0  0  0  0  0  0  0  0
    7.8581  -17.8151   25.4139 C   0  0  0  0  0  0  0  0  0  0  0  0
    6.6501  -18.1227   26.0029 C   0  0  0  0  0  0  0  0  0  0  0  0
    6.8666  -18.3818   27.3225 N   0  0  0  0  0  0  0  0  0  0  0  0
    8.1954  -18.2380   27.5565 C   0  0  0  0  0  0  0  0  0  0  0  0
    8.7722  -17.8978   26.3983 N   0  0  0  0  0  0  0  0  0  0  0  0
    8.9545  -15.2972   24.7730 C   0  0  0  0  0  0  0  0  0  0  0  0
   10.1918  -15.3018   24.5488 O   0  0  0  0  0  0  0  0  0  0  0  0
    8.4596  -14.6793   25.9347 N   0  0  0  0  0  0  0  0  0  0  0  0
    7.0343  -14.7038   26.3163 C   0  0  0  0  0  0  0  0  0  0  0  0
    6.7961  -13.5196   27.1927 C   0  0  0  0  0  0  0  0  0  0  0  0
    8.1059  -12.7325   27.0501 C   0  0  0  0  0  0  0  0  0  0  0  0
    9.0814  -13.9157   26.9720 C   0  0  1  0  0  0  0  0  0  0  0  0
    8.9897  -14.5957   28.3021 C   0  0  0  0  0  0  0  0  0  0  0  0
    8.2127  -15.5844   28.3622 O   0  0  0  0  0  0  0  0  0  0  0  0
    9.6910  -14.2000   29.4150 O   0  0  0  0  0  0  0  0  0  0  0  0
  2  3  1  0
  2  1  1  6
  3  4  1  0
  4  5  2  0
  4  8  1  0
  5  6  1  0
  6  7  1  0
  8  7  2  0
  9 11  1  0
  9  2  1  0
 10  9  2  0
 12 19  1  0
 12 11  1  0
 12 13  1  6
 14 13  1  0
 15 14  2  0
 16 17  1  0
 16 15  1  0
 17 18  2  0
 18 14  1  0
 19 21  1  0
 20 19  2  0
 21 25  1  0
 21 22  1  0
 22 23  1  0
 24 23  1  0
 25 24  1  0
 25 26  1  1
 26 27  2  0
 26 28  1  0
M  END
$$$$
