MDT.pdb
     RDKit          3D

 24 23  0  0  1  0  0  0  0  0999 V2000
    7.7403  -11.5903   19.0559 C   0  0  0  0  0  0  0  0  0  0  0  0
    7.6045  -12.8862   20.3179 S   0  0  0  0  0  0  0  0  0  0  0  0
    8.6439  -14.3135   19.9018 C   0  0  0  0  0  0  0  0  0  0  0  0
    7.8695  -15.2949   19.0239 C   0  0  0  0  0  0  0  0  0  0  0  0
    8.7778  -16.4374   18.7140 C   0  0  2  0  0  0  0  0  0  0  0  0
    8.0759  -17.4002   17.9088 N   0  0  0  0  0  0  0  0  0  0  0  0
    9.4220  -17.0352   19.8965 C   0  0  0  0  0  0  0  0  0  0  0  0
    8.7295  -17.7846   20.6505 O   0  0  0  0  0  0  0  0  0  0  0  0
   10.7616  -16.8449   20.2697 N   0  0  0  0  0  0  0  0  0  0  0  0
   11.3999  -17.4593   21.4382 C   0  0  1  0  0  0  0  0  0  0  0  0
   12.8832  -17.3516   21.1343 C   0  0  0  0  0  0  0  0  0  0  0  0
   13.4144  -18.4609   20.3358 C   0  0  0  0  0  0  0  0  0  0  0  0
   12.7132  -19.5030   20.2185 O   0  0  0  0  0  0  0  0  0  0  0  0
   11.0553  -16.7189   22.6630 C   0  0  0  0  0  0  0  0  0  0  0  0
   11.7272  -15.6860   22.9280 O   0  0  0  0  0  0  0  0  0  0  0  0
   14.6399  -18.3684   19.7315 O   0  0  0  0  0  0  0  0  0  0  0  0
    7.9302  -14.8525   23.8489 C   0  0  0  0  0  0  0  0  0  0  0  0
    8.3845  -15.8324   24.9077 C   0  0  1  0  0  0  0  0  0  0  0  0
    7.6145  -16.9917   24.7446 O   0  0  0  0  0  0  0  0  0  0  0  0
    9.8236  -16.2397   24.7272 C   0  0  2  0  0  0  0  0  0  0  0  0
   10.0301  -17.0701   23.5652 N   0  0  0  0  0  0  0  0  0  0  0  0
   10.2020  -17.0191   25.9285 C   0  0  0  0  0  0  0  0  0  0  0  0
   10.4807  -18.2301   25.8594 O   0  0  0  0  0  0  0  0  0  0  0  0
   10.2573  -16.4099   27.1871 O   0  0  0  0  0  0  0  0  0  0  0  0
  1  2  1  0
  2  3  1  0
  4  5  1  0
  4  3  1  0
  5  7  1  0
  5  6  1  1
  7  8  2  0
  9  7  1  0
  9 10  1  0
 10 11  1  6
 12 11  1  0
 13 12  2  0
 14 10  1  0
 14 15  2  0
 16 12  1  0
 18 17  1  6
 18 20  1  0
 19 18  1  0
 20 21  1  6
 20 22  1  0
 21 14  1  0
 22 24  1  0
 23 22  2  0
M  END
$$$$
