MDT.pdb
     RDKit          3D

 24 23  0  0  1  0  0  0  0  0999 V2000
    7.0076  -12.8174   26.8220 C   0  0  0  0  0  0  0  0  0  0  0  0
    6.2761  -12.0490   25.3505 S   0  0  0  0  0  0  0  0  0  0  0  0
    7.1034  -12.6163   23.8390 C   0  0  0  0  0  0  0  0  0  0  0  0
    6.4870  -13.9287   23.3582 C   0  0  0  0  0  0  0  0  0  0  0  0
    7.3268  -14.4371   22.2346 C   0  0  2  0  0  0  0  0  0  0  0  0
    6.4788  -14.7976   21.1304 N   0  0  0  0  0  0  0  0  0  0  0  0
    8.2624  -15.5091   22.6165 C   0  0  0  0  0  0  0  0  0  0  0  0
    7.8487  -16.7084   22.6036 O   0  0  0  0  0  0  0  0  0  0  0  0
    9.5985  -15.3164   23.0011 N   0  0  0  0  0  0  0  0  0  0  0  0
   10.5003  -16.3802   23.4544 C   0  0  1  0  0  0  0  0  0  0  0  0
   11.8837  -15.7983   23.2269 C   0  0  0  0  0  0  0  0  0  0  0  0
   12.9813  -16.7086   23.5686 C   0  0  0  0  0  0  0  0  0  0  0  0
   12.7994  -17.9479   23.4189 O   0  0  0  0  0  0  0  0  0  0  0  0
   10.2770  -16.6731   24.8797 C   0  0  0  0  0  0  0  0  0  0  0  0
   10.3111  -15.7050   25.6858 O   0  0  0  0  0  0  0  0  0  0  0  0
   14.1745  -16.2265   24.0373 O   0  0  0  0  0  0  0  0  0  0  0  0
    7.3261  -17.5690   26.8144 C   0  0  0  0  0  0  0  0  0  0  0  0
    8.4021  -18.5754   27.1562 C   0  0  1  0  0  0  0  0  0  0  0  0
    8.1870  -19.6928   26.3386 O   0  0  0  0  0  0  0  0  0  0  0  0
    9.7827  -18.0642   26.8362 C   0  0  2  0  0  0  0  0  0  0  0  0
   10.0244  -17.9517   25.4180 N   0  0  0  0  0  0  0  0  0  0  0  0
   10.7423  -19.0443   27.3949 C   0  0  0  0  0  0  0  0  0  0  0  0
   11.5337  -19.6705   26.6665 O   0  0  0  0  0  0  0  0  0  0  0  0
   10.7867  -19.2961   28.7707 O   0  0  0  0  0  0  0  0  0  0  0  0
  1  2  1  0
  2  3  1  0
  4  5  1  0
  4  3  1  0
  5  7  1  0
  5  6  1  6
  7  8  2  0
  9  7  1  0
  9 10  1  0
 10 11  1  1
 12 11  1  0
 13 12  2  0
 14 10  1  0
 14 15  2  0
 16 12  1  0
 18 17  1  6
 18 20  1  0
 19 18  1  0
 20 21  1  6
 20 22  1  0
 21 14  1  0
 22 24  1  0
 23 22  2  0
M  END
$$$$
