MDT.pdb
     RDKit          3D

 24 23  0  0  1  0  0  0  0  0999 V2000
    7.7081  -11.3546   20.7873 C   0  0  0  0  0  0  0  0  0  0  0  0
    7.3658  -12.2249   19.2329 S   0  0  0  0  0  0  0  0  0  0  0  0
    7.6659  -14.0058   19.4028 C   0  0  0  0  0  0  0  0  0  0  0  0
    7.7275  -14.3943   20.8789 C   0  0  0  0  0  0  0  0  0  0  0  0
    8.0418  -15.8512   20.9497 C   0  0  2  0  0  0  0  0  0  0  0  0
    7.0068  -16.5955   20.2839 N   0  0  0  0  0  0  0  0  0  0  0  0
    8.3218  -16.3436   22.3097 C   0  0  0  0  0  0  0  0  0  0  0  0
    7.3431  -16.6128   23.0708 O   0  0  0  0  0  0  0  0  0  0  0  0
    9.6022  -16.5454   22.8483 N   0  0  0  0  0  0  0  0  0  0  0  0
    9.8744  -16.9316   24.2365 C   0  0  1  0  0  0  0  0  0  0  0  0
   11.2206  -17.6285   24.1571 C   0  0  0  0  0  0  0  0  0  0  0  0
   11.7157  -18.1259   25.4446 C   0  0  0  0  0  0  0  0  0  0  0  0
   10.8877  -18.2848   26.3831 O   0  0  0  0  0  0  0  0  0  0  0  0
    9.9450  -15.7404   25.0987 C   0  0  0  0  0  0  0  0  0  0  0  0
   10.8749  -14.9180   24.8814 O   0  0  0  0  0  0  0  0  0  0  0  0
   13.0429  -18.4122   25.6243 O   0  0  0  0  0  0  0  0  0  0  0  0
    8.4298  -12.4374   25.6023 C   0  0  0  0  0  0  0  0  0  0  0  0
    8.3079  -13.2201   26.8908 C   0  0  1  0  0  0  0  0  0  0  0  0
    7.0581  -13.8530   26.8641 O   0  0  0  0  0  0  0  0  0  0  0  0
    9.3428  -14.3098   26.9956 C   0  0  2  0  0  0  0  0  0  0  0  0
    9.0529  -15.4420   26.1491 N   0  0  0  0  0  0  0  0  0  0  0  0
    9.3397  -14.7693   28.4036 C   0  0  0  0  0  0  0  0  0  0  0  0
    9.0557  -15.9427   28.7063 O   0  0  0  0  0  0  0  0  0  0  0  0
    9.6590  -13.8886   29.4432 O   0  0  0  0  0  0  0  0  0  0  0  0
  1  2  1  0
  2  3  1  0
  4  5  1  0
  4  3  1  0
  5  7  1  0
  5  6  1  1
  7  8  2  0
  9  7  1  0
  9 10  1  0
 10 11  1  6
 12 11  1  0
 13 12  2  0
 14 10  1  0
 14 15  2  0
 16 12  1  0
 18 17  1  6
 18 20  1  0
 19 18  1  0
 20 21  1  6
 20 22  1  0
 21 14  1  0
 22 24  1  0
 23 22  2  0
M  END
$$$$
