MDT.pdb
     RDKit          3D

 24 23  0  0  1  0  0  0  0  0999 V2000
    9.4040  -12.1508   19.3849 C   0  0  0  0  0  0  0  0  0  0  0  0
    7.6938  -12.2144   18.7836 S   0  0  0  0  0  0  0  0  0  0  0  0
    7.0731  -13.9187   18.7617 C   0  0  0  0  0  0  0  0  0  0  0  0
    6.9419  -14.4533   20.1866 C   0  0  0  0  0  0  0  0  0  0  0  0
    8.2215  -15.1387   20.5315 C   0  0  2  0  0  0  0  0  0  0  0  0
    8.4584  -16.2056   19.5967 N   0  0  0  0  0  0  0  0  0  0  0  0
    8.3153  -15.5722   21.9364 C   0  0  0  0  0  0  0  0  0  0  0  0
    7.2647  -15.5566   22.6474 O   0  0  0  0  0  0  0  0  0  0  0  0
    9.4887  -16.0099   22.5703 N   0  0  0  0  0  0  0  0  0  0  0  0
    9.5646  -16.4807   23.9570 C   0  0  1  0  0  0  0  0  0  0  0  0
   10.8824  -17.2323   24.0086 C   0  0  0  0  0  0  0  0  0  0  0  0
   11.1580  -17.8727   25.2986 C   0  0  0  0  0  0  0  0  0  0  0  0
   12.3082  -18.3523   25.4949 O   0  0  0  0  0  0  0  0  0  0  0  0
    9.5682  -15.3412   24.8890 C   0  0  0  0  0  0  0  0  0  0  0  0
   10.5184  -14.5180   24.7993 O   0  0  0  0  0  0  0  0  0  0  0  0
   10.1922  -17.9478   26.2668 O   0  0  0  0  0  0  0  0  0  0  0  0
    7.1016  -12.3792   25.5470 C   0  0  0  0  0  0  0  0  0  0  0  0
    7.4367  -13.1360   26.8129 C   0  0  1  0  0  0  0  0  0  0  0  0
    6.4172  -14.0779   27.0043 O   0  0  0  0  0  0  0  0  0  0  0  0
    8.7235  -13.9097   26.6904 C   0  0  2  0  0  0  0  0  0  0  0  0
    8.5912  -15.0929   25.8749 N   0  0  0  0  0  0  0  0  0  0  0  0
    9.1032  -14.3287   28.0593 C   0  0  0  0  0  0  0  0  0  0  0  0
    9.3299  -13.4969   28.9569 O   0  0  0  0  0  0  0  0  0  0  0  0
    9.2188  -15.6847   28.3851 O   0  0  0  0  0  0  0  0  0  0  0  0
  1  2  1  0
  2  3  1  0
  4  5  1  0
  4  3  1  0
  5  7  1  0
  5  6  1  6
  7  8  2  0
  9  7  1  0
  9 10  1  0
 10 11  1  6
 12 11  1  0
 13 12  2  0
 14 10  1  0
 14 15  2  0
 16 12  1  0
 18 17  1  6
 18 20  1  0
 19 18  1  0
 20 21  1  6
 20 22  1  0
 21 14  1  0
 22 24  1  0
 23 22  2  0
M  END
$$$$
