MDT.pdb
     RDKit          3D

 24 23  0  0  1  0  0  0  0  0999 V2000
    8.7739  -12.4329   18.7736 C   0  0  0  0  0  0  0  0  0  0  0  0
    7.8004  -12.1420   20.2763 S   0  0  0  0  0  0  0  0  0  0  0  0
    7.2431  -13.7066   21.0056 C   0  0  0  0  0  0  0  0  0  0  0  0
    7.8179  -14.8885   20.2269 C   0  0  0  0  0  0  0  0  0  0  0  0
    7.3564  -16.1388   20.8980 C   0  0  2  0  0  0  0  0  0  0  0  0
    5.9268  -16.2432   20.7811 N   0  0  0  0  0  0  0  0  0  0  0  0
    7.8341  -16.2929   22.2831 C   0  0  0  0  0  0  0  0  0  0  0  0
    6.9905  -16.2171   23.2276 O   0  0  0  0  0  0  0  0  0  0  0  0
    9.1676  -16.5210   22.6572 N   0  0  0  0  0  0  0  0  0  0  0  0
    9.6084  -16.8711   24.0112 C   0  0  1  0  0  0  0  0  0  0  0  0
   10.9803  -17.4835   23.7944 C   0  0  0  0  0  0  0  0  0  0  0  0
   11.5849  -18.0458   25.0061 C   0  0  0  0  0  0  0  0  0  0  0  0
   12.8354  -18.2114   25.0294 O   0  0  0  0  0  0  0  0  0  0  0  0
    9.6933  -15.6667   24.8535 C   0  0  0  0  0  0  0  0  0  0  0  0
   10.4044  -14.7132   24.4368 O   0  0  0  0  0  0  0  0  0  0  0  0
   10.8128  -18.3818   26.0863 O   0  0  0  0  0  0  0  0  0  0  0  0
    7.2580  -13.0030   25.7013 C   0  0  0  0  0  0  0  0  0  0  0  0
    7.8509  -13.5352   26.9870 C   0  0  1  0  0  0  0  0  0  0  0  0
    6.9674  -14.5108   27.4677 O   0  0  0  0  0  0  0  0  0  0  0  0
    9.1733  -14.2212   26.7634 C   0  0  2  0  0  0  0  0  0  0  0  0
    9.0400  -15.4909   26.0906 N   0  0  0  0  0  0  0  0  0  0  0  0
    9.7616  -14.4635   28.1009 C   0  0  0  0  0  0  0  0  0  0  0  0
    9.9824  -13.5309   28.8950 O   0  0  0  0  0  0  0  0  0  0  0  0
   10.0888  -15.7600   28.5133 O   0  0  0  0  0  0  0  0  0  0  0  0
  1  2  1  0
  2  3  1  0
  4  5  1  0
  4  3  1  0
  5  7  1  0
  5  6  1  1
  7  8  2  0
  9  7  1  0
  9 10  1  0
 10 11  1  6
 12 11  1  0
 13 12  2  0
 14 10  1  0
 14 15  2  0
 16 12  1  0
 18 17  1  6
 18 20  1  0
 19 18  1  0
 20 21  1  1
 20 22  1  0
 21 14  1  0
 22 24  1  0
 23 22  2  0
M  END
$$$$
