MDT.pdb
     RDKit          3D

 24 23  0  0  1  0  0  0  0  0999 V2000
    7.4834  -11.6271   18.8709 C   0  0  0  0  0  0  0  0  0  0  0  0
    8.0590  -13.0094   19.8948 S   0  0  0  0  0  0  0  0  0  0  0  0
    6.9776  -14.4538   19.7083 C   0  0  0  0  0  0  0  0  0  0  0  0
    7.4036  -15.5623   20.6692 C   0  0  0  0  0  0  0  0  0  0  0  0
    8.1762  -16.5686   19.8838 C   0  0  2  0  0  0  0  0  0  0  0  0
    7.2627  -17.4309   19.1836 N   0  0  0  0  0  0  0  0  0  0  0  0
    9.1791  -17.3081   20.6697 C   0  0  0  0  0  0  0  0  0  0  0  0
    8.8390  -18.4052   21.2083 O   0  0  0  0  0  0  0  0  0  0  0  0
   10.5048  -16.8972   20.8792 N   0  0  0  0  0  0  0  0  0  0  0  0
   11.3721  -17.3864   21.9557 C   0  0  1  0  0  0  0  0  0  0  0  0
   12.7654  -16.9915   21.5009 C   0  0  0  0  0  0  0  0  0  0  0  0
   13.1348  -17.5096   20.1799 C   0  0  0  0  0  0  0  0  0  0  0  0
   12.8299  -18.7008   19.8977 O   0  0  0  0  0  0  0  0  0  0  0  0
   11.0275  -16.7367   23.2310 C   0  0  0  0  0  0  0  0  0  0  0  0
   11.7418  -15.7672   23.6028 O   0  0  0  0  0  0  0  0  0  0  0  0
   13.7932  -16.7209   19.2742 O   0  0  0  0  0  0  0  0  0  0  0  0
    8.2549  -14.5749   24.5705 C   0  0  0  0  0  0  0  0  0  0  0  0
    8.4269  -15.7834   25.4635 C   0  0  1  0  0  0  0  0  0  0  0  0
    7.4989  -16.7410   25.0331 O   0  0  0  0  0  0  0  0  0  0  0  0
    9.7906  -16.4075   25.3213 C   0  0  2  0  0  0  0  0  0  0  0  0
    9.9587  -17.1096   24.0718 N   0  0  0  0  0  0  0  0  0  0  0  0
    9.9318  -17.3842   26.4258 C   0  0  0  0  0  0  0  0  0  0  0  0
    9.9088  -17.0282   27.6182 O   0  0  0  0  0  0  0  0  0  0  0  0
   10.0966  -18.7476   26.1572 O   0  0  0  0  0  0  0  0  0  0  0  0
  1  2  1  0
  2  3  1  0
  4  5  1  0
  4  3  1  0
  5  7  1  0
  5  6  1  1
  7  8  2  0
  9  7  1  0
  9 10  1  0
 10 11  1  6
 12 11  1  0
 13 12  2  0
 14 10  1  0
 14 15  2  0
 16 12  1  0
 18 17  1  6
 18 20  1  0
 19 18  1  0
 20 21  1  6
 20 22  1  0
 21 14  1  0
 22 24  1  0
 23 22  2  0
M  END
$$$$
