MDT.pdb
     RDKit          3D

 24 23  0  0  1  0  0  0  0  0999 V2000
    6.0079  -11.2103   26.3447 C   0  0  0  0  0  0  0  0  0  0  0  0
    6.7972  -12.4826   25.3206 S   0  0  0  0  0  0  0  0  0  0  0  0
    5.7217  -13.9319   25.1371 C   0  0  0  0  0  0  0  0  0  0  0  0
    6.3200  -14.9115   24.1292 C   0  0  0  0  0  0  0  0  0  0  0  0
    7.3957  -15.6756   24.8259 C   0  0  2  0  0  0  0  0  0  0  0  0
    7.8829  -14.9064   25.9392 N   0  0  0  0  0  0  0  0  0  0  0  0
    8.4718  -16.1500   23.9384 C   0  0  0  0  0  0  0  0  0  0  0  0
    8.2059  -17.0604   23.0958 O   0  0  0  0  0  0  0  0  0  0  0  0
    9.7920  -15.6734   23.9431 N   0  0  0  0  0  0  0  0  0  0  0  0
   10.9874  -16.5216   23.9872 C   0  0  1  0  0  0  0  0  0  0  0  0
   11.9902  -15.7726   23.1284 C   0  0  0  0  0  0  0  0  0  0  0  0
   13.1494  -16.5736   22.7225 C   0  0  0  0  0  0  0  0  0  0  0  0
   12.9445  -17.7220   22.2423 O   0  0  0  0  0  0  0  0  0  0  0  0
   11.4724  -16.6577   25.3705 C   0  0  0  0  0  0  0  0  0  0  0  0
   12.6295  -17.1281   25.5387 O   0  0  0  0  0  0  0  0  0  0  0  0
   14.4225  -16.0877   22.8598 O   0  0  0  0  0  0  0  0  0  0  0  0
   11.4611  -14.0651   28.4623 C   0  0  0  0  0  0  0  0  0  0  0  0
   10.9555  -15.4448   28.8207 C   0  0  1  0  0  0  0  0  0  0  0  0
    9.5560  -15.3865   28.7824 O   0  0  0  0  0  0  0  0  0  0  0  0
   11.3731  -16.4842   27.8133 C   0  0  2  0  0  0  0  0  0  0  0  0
   10.7473  -16.3011   26.5261 N   0  0  0  0  0  0  0  0  0  0  0  0
   10.9509  -17.7973   28.3529 C   0  0  0  0  0  0  0  0  0  0  0  0
   10.1375  -18.5199   27.7485 O   0  0  0  0  0  0  0  0  0  0  0  0
   11.4597  -18.2670   29.5689 O   0  0  0  0  0  0  0  0  0  0  0  0
  1  2  1  0
  2  3  1  0
  4  5  1  0
  4  3  1  0
  5  7  1  0
  5  6  1  1
  7  8  2  0
  9  7  1  0
  9 10  1  0
 10 11  1  6
 12 11  1  0
 13 12  2  0
 14 10  1  0
 14 15  2  0
 16 12  1  0
 18 17  1  6
 18 20  1  0
 19 18  1  0
 20 21  1  6
 20 22  1  0
 21 14  1  0
 22 24  1  0
 23 22  2  0
M  END
$$$$
