MDT.pdb
     RDKit          3D

 24 23  0  0  1  0  0  0  0  0999 V2000
    7.7079  -11.2768   19.9495 C   0  0  0  0  0  0  0  0  0  0  0  0
    7.8628  -12.8047   20.9150 S   0  0  0  0  0  0  0  0  0  0  0  0
    6.9563  -14.1664   20.1310 C   0  0  0  0  0  0  0  0  0  0  0  0
    6.9587  -15.3959   21.0375 C   0  0  0  0  0  0  0  0  0  0  0  0
    7.9051  -16.3885   20.4498 C   0  0  2  0  0  0  0  0  0  0  0  0
    7.1679  -17.3495   19.6744 N   0  0  0  0  0  0  0  0  0  0  0  0
    8.8120  -17.0120   21.4292 C   0  0  0  0  0  0  0  0  0  0  0  0
    8.4857  -18.1302   21.9319 O   0  0  0  0  0  0  0  0  0  0  0  0
   10.0303  -16.4668   21.8636 N   0  0  0  0  0  0  0  0  0  0  0  0
   10.8849  -17.0505   22.9025 C   0  0  1  0  0  0  0  0  0  0  0  0
   12.2063  -16.3237   22.7296 C   0  0  0  0  0  0  0  0  0  0  0  0
   13.0170  -16.8106   21.6090 C   0  0  0  0  0  0  0  0  0  0  0  0
   12.9479  -18.0337   21.3076 O   0  0  0  0  0  0  0  0  0  0  0  0
   10.3156  -16.8036   24.2374 C   0  0  0  0  0  0  0  0  0  0  0  0
   10.1567  -15.6042   24.5905 O   0  0  0  0  0  0  0  0  0  0  0  0
   13.8280  -15.9598   20.9061 O   0  0  0  0  0  0  0  0  0  0  0  0
    7.3474  -16.1941   25.5679 C   0  0  0  0  0  0  0  0  0  0  0  0
    7.8700  -17.3347   26.4126 C   0  0  1  0  0  0  0  0  0  0  0  0
    7.4255  -18.5204   25.8129 O   0  0  0  0  0  0  0  0  0  0  0  0
    9.3754  -17.3928   26.4229 C   0  0  2  0  0  0  0  0  0  0  0  0
    9.9296  -17.8023   25.1551 N   0  0  0  0  0  0  0  0  0  0  0  0
    9.7582  -18.3958   27.4433 C   0  0  0  0  0  0  0  0  0  0  0  0
   10.3521  -19.4454   27.1357 O   0  0  0  0  0  0  0  0  0  0  0  0
    9.4600  -18.1895   28.7949 O   0  0  0  0  0  0  0  0  0  0  0  0
  1  2  1  0
  2  3  1  0
  4  5  1  0
  4  3  1  0
  5  7  1  0
  5  6  1  1
  7  8  2  0
  9  7  1  0
  9 10  1  0
 10 11  1  1
 12 11  1  0
 13 12  2  0
 14 10  1  0
 14 15  2  0
 16 12  1  0
 18 17  1  6
 18 20  1  0
 19 18  1  0
 20 21  1  6
 20 22  1  0
 21 14  1  0
 22 24  1  0
 23 22  2  0
M  END
$$$$
