MDT.pdb
     RDKit          3D

 24 23  0  0  1  0  0  0  0  0999 V2000
    6.7107  -10.6830   25.6214 C   0  0  0  0  0  0  0  0  0  0  0  0
    5.9036  -12.2584   26.0181 S   0  0  0  0  0  0  0  0  0  0  0  0
    6.1865  -13.4836   24.7106 C   0  0  0  0  0  0  0  0  0  0  0  0
    7.0998  -14.5982   25.2175 C   0  0  0  0  0  0  0  0  0  0  0  0
    7.3954  -15.4989   24.0654 C   0  0  2  0  0  0  0  0  0  0  0  0
    6.2411  -16.3097   23.7851 N   0  0  0  0  0  0  0  0  0  0  0  0
    8.6306  -16.2877   24.2163 C   0  0  0  0  0  0  0  0  0  0  0  0
    8.5483  -17.4565   24.7025 O   0  0  0  0  0  0  0  0  0  0  0  0
    9.9166  -15.8507   23.8620 N   0  0  0  0  0  0  0  0  0  0  0  0
   11.1581  -16.5679   24.1697 C   0  0  1  0  0  0  0  0  0  0  0  0
   12.1790  -15.9302   23.2449 C   0  0  0  0  0  0  0  0  0  0  0  0
   12.3557  -16.6330   21.9702 C   0  0  0  0  0  0  0  0  0  0  0  0
   13.0202  -16.0648   21.0608 O   0  0  0  0  0  0  0  0  0  0  0  0
   11.5290  -16.3747   25.5812 C   0  0  0  0  0  0  0  0  0  0  0  0
   12.3058  -15.4206   25.8543 O   0  0  0  0  0  0  0  0  0  0  0  0
   11.8146  -17.8754   21.7714 O   0  0  0  0  0  0  0  0  0  0  0  0
   10.2684  -14.5491   28.0258 C   0  0  0  0  0  0  0  0  0  0  0  0
   10.3681  -15.9231   28.6502 C   0  0  1  0  0  0  0  0  0  0  0  0
    9.1439  -16.5639   28.4180 O   0  0  0  0  0  0  0  0  0  0  0  0
   11.4302  -16.7695   27.9982 C   0  0  2  0  0  0  0  0  0  0  0  0
   11.0826  -17.1705   26.6563 N   0  0  0  0  0  0  0  0  0  0  0  0
   11.5731  -17.9896   28.8257 C   0  0  0  0  0  0  0  0  0  0  0  0
   11.2413  -19.1103   28.3981 O   0  0  0  0  0  0  0  0  0  0  0  0
   12.0903  -17.9159   30.1239 O   0  0  0  0  0  0  0  0  0  0  0  0
  1  2  1  0
  2  3  1  0
  4  5  1  0
  4  3  1  0
  5  7  1  0
  5  6  1  1
  7  8  2  0
  9  7  1  0
  9 10  1  0
 10 11  1  6
 12 11  1  0
 13 12  2  0
 14 10  1  0
 14 15  2  0
 16 12  1  0
 18 17  1  6
 18 20  1  0
 19 18  1  0
 20 21  1  6
 20 22  1  0
 21 14  1  0
 22 24  1  0
 23 22  2  0
M  END
$$$$
