MDT.pdb
     RDKit          3D

 24 23  0  0  1  0  0  0  0  0999 V2000
    5.9604  -11.5706   27.1529 C   0  0  0  0  0  0  0  0  0  0  0  0
    7.1896  -12.5736   28.0323 S   0  0  0  0  0  0  0  0  0  0  0  0
    7.6022  -14.0703   27.0940 C   0  0  0  0  0  0  0  0  0  0  0  0
    6.6032  -14.2748   25.9566 C   0  0  0  0  0  0  0  0  0  0  0  0
    7.0300  -15.4832   25.1925 C   0  0  2  0  0  0  0  0  0  0  0  0
    7.5840  -16.4510   26.1007 N   0  0  0  0  0  0  0  0  0  0  0  0
    7.9130  -15.1945   24.0490 C   0  0  0  0  0  0  0  0  0  0  0  0
    7.7236  -14.1265   23.3910 O   0  0  0  0  0  0  0  0  0  0  0  0
    8.9668  -16.0137   23.6149 N   0  0  0  0  0  0  0  0  0  0  0  0
    9.7836  -15.7646   22.4228 C   0  0  1  0  0  0  0  0  0  0  0  0
   10.7833  -16.9069   22.4283 C   0  0  0  0  0  0  0  0  0  0  0  0
   11.8712  -16.7477   23.3985 C   0  0  0  0  0  0  0  0  0  0  0  0
   12.4609  -15.6340   23.4588 O   0  0  0  0  0  0  0  0  0  0  0  0
    8.9496  -15.7969   21.2102 C   0  0  0  0  0  0  0  0  0  0  0  0
    8.0181  -16.6448   21.1660 O   0  0  0  0  0  0  0  0  0  0  0  0
   12.2377  -17.7807   24.2196 O   0  0  0  0  0  0  0  0  0  0  0  0
    7.1811  -12.7731   19.4822 C   0  0  0  0  0  0  0  0  0  0  0  0
    7.7793  -13.6983   18.4460 C   0  0  1  0  0  0  0  0  0  0  0  0
    8.9762  -13.1086   18.0184 O   0  0  0  0  0  0  0  0  0  0  0  0
    8.1408  -15.0422   19.0230 C   0  0  2  0  0  0  0  0  0  0  0  0
    9.1061  -14.9524   20.0919 N   0  0  0  0  0  0  0  0  0  0  0  0
    8.7379  -15.8339   17.9228 C   0  0  0  0  0  0  0  0  0  0  0  0
    9.9361  -16.1705   17.9371 O   0  0  0  0  0  0  0  0  0  0  0  0
    7.9643  -16.2296   16.8259 O   0  0  0  0  0  0  0  0  0  0  0  0
  1  2  1  0
  2  3  1  0
  4  5  1  0
  4  3  1  0
  5  7  1  0
  5  6  1  1
  7  8  2  0
  9  7  1  0
  9 10  1  0
 10 11  1  6
 12 11  1  0
 13 12  2  0
 14 10  1  0
 14 15  2  0
 16 12  1  0
 18 17  1  1
 18 20  1  0
 19 18  1  0
 20 21  1  1
 20 22  1  0
 21 14  1  0
 22 24  1  0
 23 22  2  0
M  END
$$$$
