MDT.pdb
     RDKit          3D

 24 23  0  0  1  0  0  0  0  0999 V2000
    7.3240  -12.2093   19.3993 C   0  0  0  0  0  0  0  0  0  0  0  0
    6.9954  -12.9139   21.0382 S   0  0  0  0  0  0  0  0  0  0  0  0
    7.1969  -14.7167   21.0255 C   0  0  0  0  0  0  0  0  0  0  0  0
    8.3877  -15.1106   20.1536 C   0  0  0  0  0  0  0  0  0  0  0  0
    8.5084  -16.5971   20.1987 C   0  0  2  0  0  0  0  0  0  0  0  0
    7.2028  -17.1859   20.0676 N   0  0  0  0  0  0  0  0  0  0  0  0
    9.2569  -17.1077   21.3604 C   0  0  0  0  0  0  0  0  0  0  0  0
    8.7417  -18.0377   22.0527 O   0  0  0  0  0  0  0  0  0  0  0  0
   10.5154  -16.6465   21.7769 N   0  0  0  0  0  0  0  0  0  0  0  0
   11.2817  -17.2028   22.8966 C   0  0  1  0  0  0  0  0  0  0  0  0
   12.6481  -16.5580   22.7511 C   0  0  0  0  0  0  0  0  0  0  0  0
   13.3284  -16.8712   21.4904 C   0  0  0  0  0  0  0  0  0  0  0  0
   13.3570  -18.0732   21.1086 O   0  0  0  0  0  0  0  0  0  0  0  0
   10.6583  -16.8385   24.1795 C   0  0  0  0  0  0  0  0  0  0  0  0
   10.8785  -15.6809   24.6264 O   0  0  0  0  0  0  0  0  0  0  0  0
   13.9171  -15.8844   20.7452 O   0  0  0  0  0  0  0  0  0  0  0  0
    7.4144  -15.8401   25.4165 C   0  0  0  0  0  0  0  0  0  0  0  0
    7.8645  -17.0089   26.2643 C   0  0  1  0  0  0  0  0  0  0  0  0
    7.2978  -18.1602   25.7015 O   0  0  0  0  0  0  0  0  0  0  0  0
    9.3585  -17.1987   26.2260 C   0  0  2  0  0  0  0  0  0  0  0  0
    9.8302  -17.6803   24.9501 N   0  0  0  0  0  0  0  0  0  0  0  0
    9.6881  -18.2110   27.2557 C   0  0  0  0  0  0  0  0  0  0  0  0
   10.1377  -19.3305   26.9496 O   0  0  0  0  0  0  0  0  0  0  0  0
    9.5015  -17.9346   28.6147 O   0  0  0  0  0  0  0  0  0  0  0  0
  1  2  1  0
  2  3  1  0
  4  5  1  0
  4  3  1  0
  5  7  1  0
  5  6  1  1
  7  8  2  0
  9  7  1  0
  9 10  1  0
 10 11  1  1
 12 11  1  0
 13 12  2  0
 14 10  1  0
 14 15  2  0
 16 12  1  0
 18 17  1  6
 18 20  1  0
 19 18  1  0
 20 21  1  6
 20 22  1  0
 21 14  1  0
 22 24  1  0
 23 22  2  0
M  END
$$$$
