MDT.pdb
     RDKit          3D

 24 23  0  0  1  0  0  0  0  0999 V2000
    5.9571  -10.6092   26.1629 C   0  0  0  0  0  0  0  0  0  0  0  0
    6.8254  -12.1682   25.8369 S   0  0  0  0  0  0  0  0  0  0  0  0
    5.7679  -13.3251   24.9237 C   0  0  0  0  0  0  0  0  0  0  0  0
    6.4258  -14.7019   24.8534 C   0  0  0  0  0  0  0  0  0  0  0  0
    7.8060  -14.5162   24.3176 C   0  0  2  0  0  0  0  0  0  0  0  0
    7.7422  -14.3114   22.8955 N   0  0  0  0  0  0  0  0  0  0  0  0
    8.7525  -15.5765   24.7052 C   0  0  0  0  0  0  0  0  0  0  0  0
    8.5670  -16.1831   25.8039 O   0  0  0  0  0  0  0  0  0  0  0  0
    9.8639  -15.9830   23.9505 N   0  0  0  0  0  0  0  0  0  0  0  0
   10.7861  -17.0576   24.3314 C   0  0  1  0  0  0  0  0  0  0  0  0
   11.8228  -17.0499   23.2227 C   0  0  0  0  0  0  0  0  0  0  0  0
   11.2959  -17.4212   21.9056 C   0  0  0  0  0  0  0  0  0  0  0  0
   10.4624  -18.3659   21.8393 O   0  0  0  0  0  0  0  0  0  0  0  0
   11.4039  -16.7687   25.6359 C   0  0  0  0  0  0  0  0  0  0  0  0
   12.2176  -15.8080   25.6954 O   0  0  0  0  0  0  0  0  0  0  0  0
   11.6968  -16.7591   20.7758 O   0  0  0  0  0  0  0  0  0  0  0  0
   11.3746  -14.6737   28.1495 C   0  0  0  0  0  0  0  0  0  0  0  0
   11.2436  -16.0277   28.8107 C   0  0  1  0  0  0  0  0  0  0  0  0
    9.8758  -16.3291   28.8505 O   0  0  0  0  0  0  0  0  0  0  0  0
   11.9043  -17.1192   28.0096 C   0  0  2  0  0  0  0  0  0  0  0  0
   11.1570  -17.4790   26.8287 N   0  0  0  0  0  0  0  0  0  0  0  0
   11.9837  -18.3080   28.8896 C   0  0  0  0  0  0  0  0  0  0  0  0
   12.6782  -18.3098   29.9223 O   0  0  0  0  0  0  0  0  0  0  0  0
   11.2731  -19.4735   28.5816 O   0  0  0  0  0  0  0  0  0  0  0  0
  1  2  1  0
  2  3  1  0
  4  5  1  0
  4  3  1  0
  5  7  1  0
  5  6  1  6
  7  8  2  0
  9  7  1  0
  9 10  1  0
 10 11  1  6
 12 11  1  0
 13 12  2  0
 14 10  1  0
 14 15  2  0
 16 12  1  0
 18 17  1  6
 18 20  1  0
 19 18  1  0
 20 21  1  6
 20 22  1  0
 21 14  1  0
 22 24  1  0
 23 22  2  0
M  END
$$$$
