MDT.pdb
     RDKit          3D

 24 23  0  0  1  0  0  0  0  0999 V2000
    7.5298  -14.9750   15.5613 C   0  0  0  0  0  0  0  0  0  0  0  0
    7.2716  -13.2585   16.0881 S   0  0  0  0  0  0  0  0  0  0  0  0
    8.1943  -12.8967   17.6074 C   0  0  0  0  0  0  0  0  0  0  0  0
    7.8636  -13.9265   18.6861 C   0  0  0  0  0  0  0  0  0  0  0  0
    8.7132  -13.6242   19.8748 C   0  0  2  0  0  0  0  0  0  0  0  0
   10.0138  -13.1960   19.4351 N   0  0  0  0  0  0  0  0  0  0  0  0
    8.7696  -14.7098   20.8692 C   0  0  0  0  0  0  0  0  0  0  0  0
    7.6834  -15.1246   21.3765 O   0  0  0  0  0  0  0  0  0  0  0  0
    9.9434  -15.3384   21.3134 N   0  0  0  0  0  0  0  0  0  0  0  0
    9.9907  -16.4155   22.3073 C   0  0  1  0  0  0  0  0  0  0  0  0
   11.3959  -16.9720   22.1660 C   0  0  0  0  0  0  0  0  0  0  0  0
   11.6708  -17.5840   20.8621 C   0  0  0  0  0  0  0  0  0  0  0  0
   12.7152  -17.2358   20.2461 O   0  0  0  0  0  0  0  0  0  0  0  0
    9.7672  -15.8793   23.6600 C   0  0  0  0  0  0  0  0  0  0  0  0
   10.7769  -15.7166   24.3964 O   0  0  0  0  0  0  0  0  0  0  0  0
   10.8166  -18.5109   20.3264 O   0  0  0  0  0  0  0  0  0  0  0  0
    7.2100  -12.9810   25.2270 C   0  0  0  0  0  0  0  0  0  0  0  0
    7.2119  -14.3318   25.9075 C   0  0  1  0  0  0  0  0  0  0  0  0
    6.1237  -15.0477   25.3910 O   0  0  0  0  0  0  0  0  0  0  0  0
    8.4478  -15.1305   25.5850 C   0  0  2  0  0  0  0  0  0  0  0  0
    8.5125  -15.5292   24.1997 N   0  0  0  0  0  0  0  0  0  0  0  0
    8.3969  -16.3536   26.4188 C   0  0  0  0  0  0  0  0  0  0  0  0
    8.3454  -17.4882   25.9100 O   0  0  0  0  0  0  0  0  0  0  0  0
    8.4053  -16.2669   27.8155 O   0  0  0  0  0  0  0  0  0  0  0  0
  1  2  1  0
  2  3  1  0
  4  5  1  0
  4  3  1  0
  5  7  1  0
  5  6  1  6
  7  8  2  0
  9  7  1  0
  9 10  1  0
 10 11  1  1
 12 11  1  0
 13 12  2  0
 14 10  1  0
 14 15  2  0
 16 12  1  0
 18 17  1  6
 18 20  1  0
 19 18  1  0
 20 21  1  6
 20 22  1  0
 21 14  1  0
 22 24  1  0
 23 22  2  0
M  END
$$$$
