MDT.pdb
     RDKit          3D

 24 23  0  0  1  0  0  0  0  0999 V2000
    6.3500  -11.8660   26.8353 C   0  0  0  0  0  0  0  0  0  0  0  0
    7.0456  -11.8617   25.1599 S   0  0  0  0  0  0  0  0  0  0  0  0
    7.1237  -13.5424   24.4819 C   0  0  0  0  0  0  0  0  0  0  0  0
    7.7046  -13.5174   23.0693 C   0  0  0  0  0  0  0  0  0  0  0  0
    7.7888  -14.9280   22.5906 C   0  0  2  0  0  0  0  0  0  0  0  0
    6.4647  -15.4825   22.5041 N   0  0  0  0  0  0  0  0  0  0  0  0
    8.7182  -15.7730   23.3606 C   0  0  0  0  0  0  0  0  0  0  0  0
    8.2468  -16.5166   24.2740 O   0  0  0  0  0  0  0  0  0  0  0  0
   10.1075  -15.8289   23.1685 N   0  0  0  0  0  0  0  0  0  0  0  0
   11.0110  -16.7543   23.8595 C   0  0  1  0  0  0  0  0  0  0  0  0
   12.2732  -16.7189   23.0170 C   0  0  0  0  0  0  0  0  0  0  0  0
   13.2588  -17.7459   23.3691 C   0  0  0  0  0  0  0  0  0  0  0  0
   14.4377  -17.6160   22.9394 O   0  0  0  0  0  0  0  0  0  0  0  0
   11.2764  -16.2886   25.2306 C   0  0  0  0  0  0  0  0  0  0  0  0
   12.0146  -15.2766   25.3696 O   0  0  0  0  0  0  0  0  0  0  0  0
   12.9096  -18.8187   24.1457 O   0  0  0  0  0  0  0  0  0  0  0  0
   10.1212  -14.1146   27.5780 C   0  0  0  0  0  0  0  0  0  0  0  0
   10.2121  -15.4343   28.3113 C   0  0  1  0  0  0  0  0  0  0  0  0
    8.9574  -16.0478   28.1991 O   0  0  0  0  0  0  0  0  0  0  0  0
   11.2095  -16.3698   27.6793 C   0  0  2  0  0  0  0  0  0  0  0  0
   10.7684  -16.8821   26.4045 N   0  0  0  0  0  0  0  0  0  0  0  0
   11.3732  -17.5120   28.6078 C   0  0  0  0  0  0  0  0  0  0  0  0
   11.0818  -18.6740   28.2703 O   0  0  0  0  0  0  0  0  0  0  0  0
   11.8649  -17.3150   29.9031 O   0  0  0  0  0  0  0  0  0  0  0  0
  1  2  1  0
  2  3  1  0
  4  5  1  0
  4  3  1  0
  5  7  1  0
  5  6  1  1
  7  8  2  0
  9  7  1  0
  9 10  1  0
 10 11  1  6
 12 11  1  0
 13 12  2  0
 14 10  1  0
 14 15  2  0
 16 12  1  0
 18 17  1  6
 18 20  1  0
 19 18  1  0
 20 21  1  6
 20 22  1  0
 21 14  1  0
 22 24  1  0
 23 22  2  0
M  END
$$$$
