MDT.pdb
     RDKit          3D

 24 23  0  0  1  0  0  0  0  0999 V2000
    8.0378  -11.6178   21.0225 C   0  0  0  0  0  0  0  0  0  0  0  0
    6.7348  -12.8594   20.7966 S   0  0  0  0  0  0  0  0  0  0  0  0
    7.4379  -14.5264   20.6660 C   0  0  0  0  0  0  0  0  0  0  0  0
    8.2741  -14.8473   21.9035 C   0  0  0  0  0  0  0  0  0  0  0  0
    8.8197  -16.2257   21.7349 C   0  0  2  0  0  0  0  0  0  0  0  0
    7.7378  -17.1401   21.4864 N   0  0  0  0  0  0  0  0  0  0  0  0
    9.7044  -16.6635   22.8287 C   0  0  0  0  0  0  0  0  0  0  0  0
    9.2457  -17.4702   23.6937 O   0  0  0  0  0  0  0  0  0  0  0  0
   11.0371  -16.2583   23.0013 N   0  0  0  0  0  0  0  0  0  0  0  0
   11.9192  -16.7201   24.0778 C   0  0  1  0  0  0  0  0  0  0  0  0
   13.3130  -16.4972   23.5196 C   0  0  0  0  0  0  0  0  0  0  0  0
   14.3836  -17.0999   24.3200 C   0  0  0  0  0  0  0  0  0  0  0  0
   14.0649  -17.9158   25.2279 O   0  0  0  0  0  0  0  0  0  0  0  0
   11.7040  -15.9248   25.2978 C   0  0  0  0  0  0  0  0  0  0  0  0
   12.4023  -14.8862   25.4470 O   0  0  0  0  0  0  0  0  0  0  0  0
   15.6965  -16.7866   24.0879 O   0  0  0  0  0  0  0  0  0  0  0  0
    9.4866  -13.4268   26.6466 C   0  0  0  0  0  0  0  0  0  0  0  0
    9.5102  -14.5793   27.6258 C   0  0  1  0  0  0  0  0  0  0  0  0
    8.4383  -15.4176   27.2915 O   0  0  0  0  0  0  0  0  0  0  0  0
   10.7625  -15.4074   27.5008 C   0  0  2  0  0  0  0  0  0  0  0  0
   10.7757  -16.2291   26.3147 N   0  0  0  0  0  0  0  0  0  0  0  0
   10.8068  -16.2978   28.6836 C   0  0  0  0  0  0  0  0  0  0  0  0
   10.7585  -17.5363   28.5699 O   0  0  0  0  0  0  0  0  0  0  0  0
   10.9053  -15.7666   29.9744 O   0  0  0  0  0  0  0  0  0  0  0  0
  1  2  1  0
  2  3  1  0
  4  5  1  0
  4  3  1  0
  5  7  1  0
  5  6  1  1
  7  8  2  0
  9  7  1  0
  9 10  1  0
 10 11  1  6
 12 11  1  0
 13 12  2  0
 14 10  1  0
 14 15  2  0
 16 12  1  0
 18 17  1  6
 18 20  1  0
 19 18  1  0
 20 21  1  6
 20 22  1  0
 21 14  1  0
 22 24  1  0
 23 22  2  0
M  END
$$$$
