MDT.pdb
     RDKit          3D

 24 23  0  0  1  0  0  0  0  0999 V2000
    7.0336  -11.4925   19.6929 C   0  0  0  0  0  0  0  0  0  0  0  0
    7.1223  -12.4441   21.2347 S   0  0  0  0  0  0  0  0  0  0  0  0
    7.9198  -14.0508   20.9645 C   0  0  0  0  0  0  0  0  0  0  0  0
    8.1012  -14.7825   22.2931 C   0  0  0  0  0  0  0  0  0  0  0  0
    8.7277  -16.1043   21.9989 C   0  0  2  0  0  0  0  0  0  0  0  0
    7.7082  -17.0377   21.6019 N   0  0  0  0  0  0  0  0  0  0  0  0
    9.5904  -16.6175   23.0773 C   0  0  0  0  0  0  0  0  0  0  0  0
    9.0731  -17.3600   23.9664 O   0  0  0  0  0  0  0  0  0  0  0  0
   10.9623  -16.3520   23.2100 N   0  0  0  0  0  0  0  0  0  0  0  0
   11.8002  -16.8143   24.3210 C   0  0  1  0  0  0  0  0  0  0  0  0
   13.2135  -16.6822   23.7831 C   0  0  0  0  0  0  0  0  0  0  0  0
   13.4957  -17.5323   22.6222 C   0  0  0  0  0  0  0  0  0  0  0  0
   13.1016  -18.7304   22.6480 O   0  0  0  0  0  0  0  0  0  0  0  0
   11.6027  -15.9622   25.5051 C   0  0  0  0  0  0  0  0  0  0  0  0
   12.2490  -14.8816   25.5598 O   0  0  0  0  0  0  0  0  0  0  0  0
   14.1689  -17.0387   21.5364 O   0  0  0  0  0  0  0  0  0  0  0  0
    9.5342  -13.4316   26.7221 C   0  0  0  0  0  0  0  0  0  0  0  0
    9.5351  -14.4936   27.7991 C   0  0  1  0  0  0  0  0  0  0  0  0
    8.4278  -15.3175   27.5572 O   0  0  0  0  0  0  0  0  0  0  0  0
   10.7544  -15.3755   27.7286 C   0  0  2  0  0  0  0  0  0  0  0  0
   10.7448  -16.2556   26.5851 N   0  0  0  0  0  0  0  0  0  0  0  0
   10.7534  -16.2063   28.9547 C   0  0  0  0  0  0  0  0  0  0  0  0
   10.6379  -17.4445   28.9036 O   0  0  0  0  0  0  0  0  0  0  0  0
   10.8835  -15.6170   30.2172 O   0  0  0  0  0  0  0  0  0  0  0  0
  1  2  1  0
  2  3  1  0
  4  5  1  0
  4  3  1  0
  5  7  1  0
  5  6  1  1
  7  8  2  0
  9  7  1  0
  9 10  1  0
 10 11  1  6
 12 11  1  0
 13 12  2  0
 14 10  1  0
 14 15  2  0
 16 12  1  0
 18 17  1  6
 18 20  1  0
 19 18  1  0
 20 21  1  6
 20 22  1  0
 21 14  1  0
 22 24  1  0
 23 22  2  0
M  END
$$$$
