NVC.pdb
     RDKit          3D

 22 21  0  0  1  0  0  0  0  0999 V2000
    6.5831  -21.2647   17.7995 N   0  0  0  0  0  0  0  0  0  0  0  0
    6.7039  -19.8707   17.5967 C   0  0  0  0  0  0  0  0  0  0  0  0
    6.1561  -19.3637   16.5690 O   0  0  0  0  0  0  0  0  0  0  0  0
    7.4488  -19.0426   18.5668 C   0  0  0  0  0  0  0  0  0  0  0  0
    7.8150  -17.7442   17.9362 C   0  0  2  0  0  0  0  0  0  0  0  0
    8.8114  -17.9337   16.9167 N   0  0  0  0  0  0  0  0  0  0  0  0
    8.3751  -16.7779   18.9201 C   0  0  0  0  0  0  0  0  0  0  0  0
    9.5858  -16.9778   19.2183 O   0  0  0  0  0  0  0  0  0  0  0  0
    7.4486  -12.7750   19.3792 C   0  0  0  0  0  0  0  0  0  0  0  0
    7.4507  -13.5671   20.6543 C   0  0  2  0  0  0  0  0  0  0  0  0
    7.8488  -12.6447   21.7624 C   0  0  0  0  0  0  0  0  0  0  0  0
    8.2183  -14.8151   20.5355 C   0  0  2  0  0  0  0  0  0  0  0  0
    7.6765  -15.7146   19.5041 N   0  0  0  0  0  0  0  0  0  0  0  0
    8.6043  -15.5489   21.7264 C   0  0  0  0  0  0  0  0  0  0  0  0
    7.7659  -16.3971   22.2060 O   0  0  0  0  0  0  0  0  0  0  0  0
    9.7965  -15.4807   22.4679 N   0  0  0  0  0  0  0  0  0  0  0  0
   10.2033  -16.5013   23.4495 C   0  0  1  0  0  0  0  0  0  0  0  0
   10.1990  -17.8007   22.6838 C   0  0  0  0  0  0  0  0  0  0  0  0
   10.8425  -19.1974   23.6242 S   0  0  0  0  0  0  0  0  0  0  0  0
   11.5094  -16.2376   24.0351 C   0  0  0  0  0  0  0  0  0  0  0  0
   12.4096  -15.6946   23.3646 O   0  0  0  0  0  0  0  0  0  0  0  0
   11.7452  -16.6058   25.3693 O   0  0  0  0  0  0  0  0  0  0  0  0
  1  2  1  0
  2  3  2  0
  4  2  1  0
  5  4  1  0
  5  6  1  6
  7  8  2  0
  7  5  1  0
 10  9  1  6
 10 12  1  0
 11 10  1  0
 12 14  1  0
 12 13  1  6
 13  7  1  0
 14 16  1  0
 15 14  2  0
 16 17  1  0
 17 20  1  0
 18 19  1  0
 17 18  1  6
 20 21  2  0
 20 22  1  0
M  END
$$$$
