NVC.pdb
     RDKit          3D

 22 21  0  0  1  0  0  0  0  0999 V2000
    5.7860  -18.8492   21.3845 N   0  0  0  0  0  0  0  0  0  0  0  0
    7.1749  -18.5938   21.4525 C   0  0  0  0  0  0  0  0  0  0  0  0
    7.9167  -19.0585   20.5321 O   0  0  0  0  0  0  0  0  0  0  0  0
    7.7291  -17.8034   22.5704 C   0  0  0  0  0  0  0  0  0  0  0  0
    7.6023  -16.3514   22.2652 C   0  0  2  0  0  0  0  0  0  0  0  0
    8.3541  -16.0086   21.0881 N   0  0  0  0  0  0  0  0  0  0  0  0
    8.1105  -15.4962   23.3725 C   0  0  0  0  0  0  0  0  0  0  0  0
    9.3576  -15.2991   23.3508 O   0  0  0  0  0  0  0  0  0  0  0  0
    6.3957  -12.2399   25.2155 C   0  0  0  0  0  0  0  0  0  0  0  0
    6.8595  -13.3101   26.1603 C   0  0  2  0  0  0  0  0  0  0  0  0
    7.2551  -12.6463   27.4410 C   0  0  0  0  0  0  0  0  0  0  0  0
    7.8579  -14.1999   25.5501 C   0  0  2  0  0  0  0  0  0  0  0  0
    7.3289  -14.9256   24.3840 N   0  0  0  0  0  0  0  0  0  0  0  0
    8.6709  -15.0639   26.3856 C   0  0  0  0  0  0  0  0  0  0  0  0
    8.1287  -16.1337   26.8480 O   0  0  0  0  0  0  0  0  0  0  0  0
   10.0105  -14.9146   26.7843 N   0  0  0  0  0  0  0  0  0  0  0  0
   10.6839  -15.8224   27.7294 C   0  0  1  0  0  0  0  0  0  0  0  0
   12.1236  -15.8524   27.2810 C   0  0  0  0  0  0  0  0  0  0  0  0
   13.2009  -16.8046   28.3681 S   0  0  0  0  0  0  0  0  0  0  0  0
   10.5707  -15.3873   29.1136 C   0  0  0  0  0  0  0  0  0  0  0  0
   10.4568  -14.1775   29.3932 O   0  0  0  0  0  0  0  0  0  0  0  0
   10.5938  -16.3504   30.1350 O   0  0  0  0  0  0  0  0  0  0  0  0
  1  2  1  0
  2  3  2  0
  4  2  1  0
  5  4  1  0
  5  6  1  6
  7  8  2  0
  7  5  1  0
 10  9  1  6
 10 12  1  0
 11 10  1  0
 12 14  1  0
 12 13  1  6
 13  7  1  0
 14 16  1  0
 15 14  2  0
 16 17  1  0
 17 20  1  0
 18 19  1  0
 17 18  1  6
 20 21  2  0
 20 22  1  0
M  END
$$$$
