NVC.pdb
     RDKit          3D

 22 21  0  0  1  0  0  0  0  0999 V2000
    7.6733  -21.6136   18.2582 N   0  0  0  0  0  0  0  0  0  0  0  0
    7.5528  -20.2278   18.0049 C   0  0  0  0  0  0  0  0  0  0  0  0
    6.8382  -19.8568   17.0226 O   0  0  0  0  0  0  0  0  0  0  0  0
    8.2448  -19.2532   18.8726 C   0  0  0  0  0  0  0  0  0  0  0  0
    8.6230  -18.0548   18.0734 C   0  0  2  0  0  0  0  0  0  0  0  0
    9.7122  -18.3562   17.1839 N   0  0  0  0  0  0  0  0  0  0  0  0
    9.0610  -16.9203   18.9316 C   0  0  0  0  0  0  0  0  0  0  0  0
   10.2570  -16.9970   19.3296 O   0  0  0  0  0  0  0  0  0  0  0  0
    8.3561  -12.4719   21.0387 C   0  0  0  0  0  0  0  0  0  0  0  0
    7.8241  -13.5936   20.1948 C   0  0  2  0  0  0  0  0  0  0  0  0
    6.3717  -13.7539   20.5139 C   0  0  0  0  0  0  0  0  0  0  0  0
    8.6514  -14.8049   20.2895 C   0  0  2  0  0  0  0  0  0  0  0  0
    8.2678  -15.8286   19.3040 N   0  0  0  0  0  0  0  0  0  0  0  0
    8.9303  -15.3969   21.5847 C   0  0  0  0  0  0  0  0  0  0  0  0
    8.0989  -16.2662   22.0380 O   0  0  0  0  0  0  0  0  0  0  0  0
   10.0081  -15.1656   22.4569 N   0  0  0  0  0  0  0  0  0  0  0  0
   10.1560  -15.8333   23.7619 C   0  0  1  0  0  0  0  0  0  0  0  0
   11.6435  -15.8844   24.0061 C   0  0  0  0  0  0  0  0  0  0  0  0
   12.5311  -16.9444   22.8496 S   0  0  0  0  0  0  0  0  0  0  0  0
    9.4677  -15.1360   24.8381 C   0  0  0  0  0  0  0  0  0  0  0  0
    8.9727  -14.0070   24.6507 O   0  0  0  0  0  0  0  0  0  0  0  0
    9.3695  -15.7516   26.0961 O   0  0  0  0  0  0  0  0  0  0  0  0
  1  2  1  0
  2  3  2  0
  4  2  1  0
  5  4  1  0
  5  6  1  6
  7  8  2  0
  7  5  1  0
 10  9  1  1
 10 12  1  0
 11 10  1  0
 12 14  1  0
 12 13  1  6
 13  7  1  0
 14 16  1  0
 15 14  2  0
 16 17  1  0
 17 20  1  0
 18 19  1  0
 17 18  1  1
 20 21  2  0
 20 22  1  0
M  END
$$$$
