NVC.pdb
     RDKit          3D

 22 21  0  0  1  0  0  0  0  0999 V2000
    7.8122  -21.1024   16.2630 N   0  0  0  0  0  0  0  0  0  0  0  0
    7.4131  -19.7843   16.5832 C   0  0  0  0  0  0  0  0  0  0  0  0
    6.3828  -19.3127   16.0093 O   0  0  0  0  0  0  0  0  0  0  0  0
    8.1849  -18.9940   17.5636 C   0  0  0  0  0  0  0  0  0  0  0  0
    8.1901  -17.5617   17.1560 C   0  0  2  0  0  0  0  0  0  0  0  0
    9.0137  -17.3637   15.9938 N   0  0  0  0  0  0  0  0  0  0  0  0
    8.7224  -16.6733   18.2250 C   0  0  0  0  0  0  0  0  0  0  0  0
    9.9736  -16.7371   18.3832 O   0  0  0  0  0  0  0  0  0  0  0  0
    7.2532  -12.9803   19.3529 C   0  0  0  0  0  0  0  0  0  0  0  0
    7.5683  -13.9000   20.4966 C   0  0  2  0  0  0  0  0  0  0  0  0
    7.9816  -13.0550   21.6595 C   0  0  0  0  0  0  0  0  0  0  0  0
    8.4919  -14.9762   20.1100 C   0  0  2  0  0  0  0  0  0  0  0  0
    7.9586  -15.8144   19.0241 N   0  0  0  0  0  0  0  0  0  0  0  0
    9.1397  -15.7810   21.1289 C   0  0  0  0  0  0  0  0  0  0  0  0
    8.4791  -16.7661   21.6245 O   0  0  0  0  0  0  0  0  0  0  0  0
   10.4260  -15.6534   21.6812 N   0  0  0  0  0  0  0  0  0  0  0  0
   10.9419  -16.5251   22.7511 C   0  0  1  0  0  0  0  0  0  0  0  0
   12.4428  -16.4533   22.6213 C   0  0  0  0  0  0  0  0  0  0  0  0
   13.3254  -17.3139   23.9365 S   0  0  0  0  0  0  0  0  0  0  0  0
   10.5062  -16.1150   24.0778 C   0  0  0  0  0  0  0  0  0  0  0  0
   10.0958  -14.9555   24.2827 O   0  0  0  0  0  0  0  0  0  0  0  0
   10.5562  -17.0440   25.1293 O   0  0  0  0  0  0  0  0  0  0  0  0
  1  2  1  0
  2  3  2  0
  4  2  1  0
  5  4  1  0
  5  6  1  6
  7  8  2  0
  7  5  1  0
 10  9  1  6
 10 12  1  0
 11 10  1  0
 12 14  1  0
 12 13  1  6
 13  7  1  0
 14 16  1  0
 15 14  2  0
 16 17  1  0
 17 20  1  0
 18 19  1  0
 17 18  1  1
 20 21  2  0
 20 22  1  0
M  END
$$$$
