NVC.pdb
     RDKit          3D

 22 21  0  0  1  0  0  0  0  0999 V2000
    7.7046  -19.4579   15.9144 N   0  0  0  0  0  0  0  0  0  0  0  0
    7.8132  -19.8671   17.2634 C   0  0  0  0  0  0  0  0  0  0  0  0
    7.2797  -20.9690   17.6015 O   0  0  0  0  0  0  0  0  0  0  0  0
    8.5342  -19.0232   18.2379 C   0  0  0  0  0  0  0  0  0  0  0  0
    8.8671  -17.7132   17.6127 C   0  0  2  0  0  0  0  0  0  0  0  0
    9.9680  -17.8484   16.6973 N   0  0  0  0  0  0  0  0  0  0  0  0
    9.2603  -16.6913   18.6209 C   0  0  0  0  0  0  0  0  0  0  0  0
   10.4680  -16.7528   18.9843 O   0  0  0  0  0  0  0  0  0  0  0  0
    8.4000  -12.5697   21.2531 C   0  0  0  0  0  0  0  0  0  0  0  0
    7.8811  -13.6317   20.3278 C   0  0  2  0  0  0  0  0  0  0  0  0
    6.4633  -13.9155   20.7106 C   0  0  0  0  0  0  0  0  0  0  0  0
    8.7809  -14.7913   20.2477 C   0  0  2  0  0  0  0  0  0  0  0  0
    8.4152  -15.7151   19.1619 N   0  0  0  0  0  0  0  0  0  0  0  0
    9.1496  -15.5115   21.4522 C   0  0  0  0  0  0  0  0  0  0  0  0
    8.3886  -16.4758   21.8308 O   0  0  0  0  0  0  0  0  0  0  0  0
   10.2509  -15.3185   22.3042 N   0  0  0  0  0  0  0  0  0  0  0  0
   10.4615  -16.0815   23.5468 C   0  0  1  0  0  0  0  0  0  0  0  0
   11.9590  -16.1448   23.7152 C   0  0  0  0  0  0  0  0  0  0  0  0
   12.8066  -16.9660   22.3527 S   0  0  0  0  0  0  0  0  0  0  0  0
    9.8253  -15.4695   24.7040 C   0  0  0  0  0  0  0  0  0  0  0  0
    9.2355  -14.3756   24.6017 O   0  0  0  0  0  0  0  0  0  0  0  0
    9.8860  -16.1275   25.9428 O   0  0  0  0  0  0  0  0  0  0  0  0
  1  2  1  0
  2  3  2  0
  4  2  1  0
  5  4  1  0
  5  6  1  6
  7  8  2  0
  7  5  1  0
 10  9  1  1
 10 12  1  0
 11 10  1  0
 12 14  1  0
 12 13  1  6
 13  7  1  0
 14 16  1  0
 15 14  2  0
 16 17  1  0
 17 20  1  0
 18 19  1  0
 17 18  1  1
 20 21  2  0
 20 22  1  0
M  END
$$$$
