NVC.pdb
     RDKit          3D

 22 21  0  0  1  0  0  0  0  0999 V2000
    4.5180  -19.1878   22.5891 N   0  0  0  0  0  0  0  0  0  0  0  0
    5.4044  -19.5739   23.6207 C   0  0  0  0  0  0  0  0  0  0  0  0
    5.2356  -20.7097   24.1636 O   0  0  0  0  0  0  0  0  0  0  0  0
    6.4930  -18.6680   24.0399 C   0  0  0  0  0  0  0  0  0  0  0  0
    6.3166  -17.3413   23.3869 C   0  0  2  0  0  0  0  0  0  0  0  0
    6.7184  -17.3928   22.0070 N   0  0  0  0  0  0  0  0  0  0  0  0
    7.1303  -16.2793   24.0394 C   0  0  0  0  0  0  0  0  0  0  0  0
    8.2766  -16.1153   23.5358 O   0  0  0  0  0  0  0  0  0  0  0  0
    6.0782  -12.6527   25.5582 C   0  0  0  0  0  0  0  0  0  0  0  0
    6.8430  -13.4978   26.5351 C   0  0  2  0  0  0  0  0  0  0  0  0
    7.6322  -12.5782   27.4119 C   0  0  0  0  0  0  0  0  0  0  0  0
    7.5939  -14.5748   25.8741 C   0  0  2  0  0  0  0  0  0  0  0  0
    6.7217  -15.4910   25.1216 N   0  0  0  0  0  0  0  0  0  0  0  0
    8.6196  -15.2996   26.6008 C   0  0  0  0  0  0  0  0  0  0  0  0
    8.2423  -16.2366   27.3957 O   0  0  0  0  0  0  0  0  0  0  0  0
   10.0155  -15.1373   26.5719 N   0  0  0  0  0  0  0  0  0  0  0  0
   10.9432  -15.9235   27.4039 C   0  0  1  0  0  0  0  0  0  0  0  0
   12.2966  -15.7287   26.7674 C   0  0  0  0  0  0  0  0  0  0  0  0
   13.6275  -16.5999   27.6152 S   0  0  0  0  0  0  0  0  0  0  0  0
   10.9499  -15.5051   28.7979 C   0  0  0  0  0  0  0  0  0  0  0  0
   10.5753  -14.3604   29.1206 O   0  0  0  0  0  0  0  0  0  0  0  0
   11.3874  -16.4092   29.7788 O   0  0  0  0  0  0  0  0  0  0  0  0
  1  2  1  0
  2  3  2  0
  4  2  1  0
  5  4  1  0
  5  6  1  6
  7  8  2  0
  7  5  1  0
 10  9  1  6
 10 12  1  0
 11 10  1  0
 12 14  1  0
 12 13  1  1
 13  7  1  0
 14 16  1  0
 15 14  2  0
 16 17  1  0
 17 20  1  0
 18 19  1  0
 17 18  1  6
 20 21  2  0
 20 22  1  0
M  END
$$$$
