NVC.pdb
     RDKit          3D

 22 21  0  0  1  0  0  0  0  0999 V2000
    7.6822  -21.4848   17.9515 N   0  0  0  0  0  0  0  0  0  0  0  0
    7.0134  -20.2895   18.3024 C   0  0  0  0  0  0  0  0  0  0  0  0
    5.8070  -20.1455   17.9324 O   0  0  0  0  0  0  0  0  0  0  0  0
    7.7153  -19.2492   19.0812 C   0  0  0  0  0  0  0  0  0  0  0  0
    7.8113  -18.0017   18.2736 C   0  0  2  0  0  0  0  0  0  0  0  0
    8.6288  -18.2082   17.1086 N   0  0  0  0  0  0  0  0  0  0  0  0
    8.4187  -16.8795   19.0400 C   0  0  0  0  0  0  0  0  0  0  0  0
    9.6811  -16.8883   19.0682 O   0  0  0  0  0  0  0  0  0  0  0  0
    7.3794  -12.9632   19.2999 C   0  0  0  0  0  0  0  0  0  0  0  0
    7.5202  -13.6180   20.6433 C   0  0  2  0  0  0  0  0  0  0  0  0
    7.9876  -12.5770   21.6102 C   0  0  0  0  0  0  0  0  0  0  0  0
    8.3119  -14.8550   20.5816 C   0  0  2  0  0  0  0  0  0  0  0  0
    7.7108  -15.8660   19.6969 N   0  0  0  0  0  0  0  0  0  0  0  0
    8.8208  -15.4555   21.8007 C   0  0  0  0  0  0  0  0  0  0  0  0
    7.9769  -16.0225   22.5873 O   0  0  0  0  0  0  0  0  0  0  0  0
   10.1414  -15.5220   22.2775 N   0  0  0  0  0  0  0  0  0  0  0  0
   10.5210  -16.1996   23.5295 C   0  0  1  0  0  0  0  0  0  0  0  0
   10.1346  -17.6428   23.3232 C   0  0  0  0  0  0  0  0  0  0  0  0
   10.5800  -18.7157   24.7014 S   0  0  0  0  0  0  0  0  0  0  0  0
   11.9375  -16.0710   23.8382 C   0  0  0  0  0  0  0  0  0  0  0  0
   12.3884  -16.4627   24.9328 O   0  0  0  0  0  0  0  0  0  0  0  0
   12.7933  -15.4957   22.8854 O   0  0  0  0  0  0  0  0  0  0  0  0
  1  2  1  0
  2  3  2  0
  4  2  1  0
  5  4  1  0
  5  6  1  6
  7  8  2  0
  7  5  1  0
 10  9  1  6
 10 12  1  0
 11 10  1  0
 12 14  1  0
 12 13  1  1
 13  7  1  0
 14 16  1  0
 15 14  2  0
 16 17  1  0
 17 20  1  0
 18 19  1  0
 17 18  1  6
 20 21  2  0
 20 22  1  0
M  END
$$$$
