NVC.pdb
     RDKit          3D

 22 21  0  0  1  0  0  0  0  0999 V2000
    8.8118  -18.5479   15.0199 N   0  0  0  0  0  0  0  0  0  0  0  0
   10.1375  -18.0910   15.2012 C   0  0  0  0  0  0  0  0  0  0  0  0
   10.9535  -18.2173   14.2362 O   0  0  0  0  0  0  0  0  0  0  0  0
   10.5426  -17.4833   16.4850 C   0  0  0  0  0  0  0  0  0  0  0  0
    9.4281  -17.6006   17.4658 C   0  0  2  0  0  0  0  0  0  0  0  0
    8.1635  -17.3262   16.8382 N   0  0  0  0  0  0  0  0  0  0  0  0
    9.5704  -16.6447   18.5978 C   0  0  0  0  0  0  0  0  0  0  0  0
   10.7476  -16.5294   19.0401 O   0  0  0  0  0  0  0  0  0  0  0  0
    7.4956  -13.2408   19.3387 C   0  0  0  0  0  0  0  0  0  0  0  0
    7.5833  -14.1196   20.5525 C   0  0  2  0  0  0  0  0  0  0  0  0
    7.6612  -13.2308   21.7531 C   0  0  0  0  0  0  0  0  0  0  0  0
    8.6319  -15.1421   20.4275 C   0  0  2  0  0  0  0  0  0  0  0  0
    8.5311  -15.9028   19.1715 N   0  0  0  0  0  0  0  0  0  0  0  0
    8.9388  -16.0113   21.5482 C   0  0  0  0  0  0  0  0  0  0  0  0
    8.6489  -17.2586   21.4364 O   0  0  0  0  0  0  0  0  0  0  0  0
    9.5286  -15.6966   22.7847 N   0  0  0  0  0  0  0  0  0  0  0  0
   10.4528  -16.5958   23.4974 C   0  0  1  0  0  0  0  0  0  0  0  0
   11.5734  -16.8544   22.5216 C   0  0  0  0  0  0  0  0  0  0  0  0
   12.4987  -18.3627   22.8650 S   0  0  0  0  0  0  0  0  0  0  0  0
   10.9547  -16.0265   24.7393 C   0  0  0  0  0  0  0  0  0  0  0  0
   11.3526  -16.7642   25.6625 O   0  0  0  0  0  0  0  0  0  0  0  0
   10.9832  -14.6306   24.8868 O   0  0  0  0  0  0  0  0  0  0  0  0
  1  2  1  0
  2  3  2  0
  4  2  1  0
  5  4  1  0
  5  6  1  6
  7  8  2  0
  7  5  1  0
 10  9  1  6
 10 12  1  0
 11 10  1  0
 12 14  1  0
 12 13  1  6
 13  7  1  0
 14 16  1  0
 15 14  2  0
 16 17  1  0
 17 20  1  0
 18 19  1  0
 17 18  1  6
 20 21  2  0
 20 22  1  0
M  END
$$$$
