NVC.pdb
     RDKit          3D

 22 21  0  0  1  0  0  0  0  0999 V2000
    7.7176  -21.0775   16.7035 N   0  0  0  0  0  0  0  0  0  0  0  0
    7.2252  -19.8249   17.1370 C   0  0  0  0  0  0  0  0  0  0  0  0
    6.1228  -19.4146   16.6580 O   0  0  0  0  0  0  0  0  0  0  0  0
    7.9858  -19.0310   18.1233 C   0  0  0  0  0  0  0  0  0  0  0  0
    8.2280  -17.6645   17.5830 C   0  0  2  0  0  0  0  0  0  0  0  0
    9.2089  -17.6966   16.5318 N   0  0  0  0  0  0  0  0  0  0  0  0
    8.7336  -16.7284   18.6239 C   0  0  0  0  0  0  0  0  0  0  0  0
    9.9704  -16.8264   18.8591 O   0  0  0  0  0  0  0  0  0  0  0  0
    7.6015  -12.8678   19.4488 C   0  0  0  0  0  0  0  0  0  0  0  0
    7.6183  -13.7674   20.6503 C   0  0  2  0  0  0  0  0  0  0  0  0
    7.9569  -12.9289   21.8418 C   0  0  0  0  0  0  0  0  0  0  0  0
    8.4426  -14.9660   20.4394 C   0  0  2  0  0  0  0  0  0  0  0  0
    7.9603  -15.7928   19.3213 N   0  0  0  0  0  0  0  0  0  0  0  0
    8.8391  -15.7854   21.5695 C   0  0  0  0  0  0  0  0  0  0  0  0
    7.9636  -16.5842   22.0672 O   0  0  0  0  0  0  0  0  0  0  0  0
   10.0770  -15.8507   22.2322 N   0  0  0  0  0  0  0  0  0  0  0  0
   10.3378  -16.7326   23.3833 C   0  0  1  0  0  0  0  0  0  0  0  0
   11.6703  -17.3742   23.0876 C   0  0  0  0  0  0  0  0  0  0  0  0
   13.0012  -16.1884   22.8197 S   0  0  0  0  0  0  0  0  0  0  0  0
   10.3651  -16.0186   24.6513 C   0  0  0  0  0  0  0  0  0  0  0  0
   10.2764  -14.7752   24.6836 O   0  0  0  0  0  0  0  0  0  0  0  0
   10.4954  -16.7498   25.8427 O   0  0  0  0  0  0  0  0  0  0  0  0
  1  2  1  0
  2  3  2  0
  4  2  1  0
  5  4  1  0
  5  6  1  6
  7  8  2  0
  7  5  1  0
 10  9  1  6
 10 12  1  0
 11 10  1  0
 12 14  1  0
 12 13  1  6
 13  7  1  0
 14 16  1  0
 15 14  2  0
 16 17  1  0
 17 20  1  0
 18 19  1  0
 17 18  1  6
 20 21  2  0
 20 22  1  0
M  END
$$$$
