NVC.pdb
     RDKit          3D

 22 21  0  0  1  0  0  0  0  0999 V2000
    8.0732  -21.1848   16.6289 N   0  0  0  0  0  0  0  0  0  0  0  0
    7.7172  -19.8249   16.7810 C   0  0  0  0  0  0  0  0  0  0  0  0
    6.8608  -19.3352   15.9810 O   0  0  0  0  0  0  0  0  0  0  0  0
    8.3336  -19.0128   17.8496 C   0  0  0  0  0  0  0  0  0  0  0  0
    8.5338  -17.6193   17.3641 C   0  0  2  0  0  0  0  0  0  0  0  0
    9.5380  -17.5754   16.3355 N   0  0  0  0  0  0  0  0  0  0  0  0
    8.9795  -16.7029   18.4490 C   0  0  0  0  0  0  0  0  0  0  0  0
   10.2162  -16.7515   18.6995 O   0  0  0  0  0  0  0  0  0  0  0  0
    7.3801  -13.0284   19.6294 C   0  0  0  0  0  0  0  0  0  0  0  0
    7.5911  -14.0311   20.7263 C   0  0  2  0  0  0  0  0  0  0  0  0
    7.8695  -13.2751   21.9866 C   0  0  0  0  0  0  0  0  0  0  0  0
    8.5665  -15.0667   20.3566 C   0  0  2  0  0  0  0  0  0  0  0  0
    8.1526  -15.8340   19.1707 N   0  0  0  0  0  0  0  0  0  0  0  0
    9.1309  -15.9325   21.3752 C   0  0  0  0  0  0  0  0  0  0  0  0
    8.4027  -16.8972   21.8128 O   0  0  0  0  0  0  0  0  0  0  0  0
   10.3976  -15.8857   21.9827 N   0  0  0  0  0  0  0  0  0  0  0  0
   10.8086  -16.7827   23.0769 C   0  0  1  0  0  0  0  0  0  0  0  0
   11.7994  -17.7317   22.4504 C   0  0  0  0  0  0  0  0  0  0  0  0
   12.6081  -18.8214   23.6368 S   0  0  0  0  0  0  0  0  0  0  0  0
   11.3966  -16.0727   24.2031 C   0  0  0  0  0  0  0  0  0  0  0  0
   11.8232  -14.9087   24.0690 O   0  0  0  0  0  0  0  0  0  0  0  0
   11.4804  -16.7180   25.4472 O   0  0  0  0  0  0  0  0  0  0  0  0
  1  2  1  0
  2  3  2  0
  4  2  1  0
  5  4  1  0
  5  6  1  6
  7  8  2  0
  7  5  1  0
 10  9  1  6
 10 12  1  0
 11 10  1  0
 12 14  1  0
 12 13  1  6
 13  7  1  0
 14 16  1  0
 15 14  2  0
 16 17  1  0
 17 20  1  0
 18 19  1  0
 17 18  1  6
 20 21  2  0
 20 22  1  0
M  END
$$$$
