NVC.pdb
     RDKit          3D

 22 21  0  0  1  0  0  0  0  0999 V2000
    5.4922  -21.3789   23.3407 N   0  0  0  0  0  0  0  0  0  0  0  0
    6.0209  -20.9136   24.5667 C   0  0  0  0  0  0  0  0  0  0  0  0
    5.9035  -21.6549   25.5913 O   0  0  0  0  0  0  0  0  0  0  0  0
    6.6907  -19.5988   24.6332 C   0  0  0  0  0  0  0  0  0  0  0  0
    6.6175  -18.9342   23.3026 C   0  0  2  0  0  0  0  0  0  0  0  0
    6.9156  -19.8658   22.2484 N   0  0  0  0  0  0  0  0  0  0  0  0
    7.5863  -17.8108   23.1797 C   0  0  0  0  0  0  0  0  0  0  0  0
    8.7807  -18.1696   22.9819 O   0  0  0  0  0  0  0  0  0  0  0  0
    6.7446  -13.4096   23.4582 C   0  0  0  0  0  0  0  0  0  0  0  0
    7.6563  -14.1507   22.5239 C   0  0  2  0  0  0  0  0  0  0  0  0
    6.9194  -14.3591   21.2390 C   0  0  0  0  0  0  0  0  0  0  0  0
    8.2384  -15.3491   23.1449 C   0  0  2  0  0  0  0  0  0  0  0  0
    7.2689  -16.4501   23.2647 N   0  0  0  0  0  0  0  0  0  0  0  0
    9.0504  -15.2279   24.3415 C   0  0  0  0  0  0  0  0  0  0  0  0
    9.8388  -14.2166   24.4311 O   0  0  0  0  0  0  0  0  0  0  0  0
    9.1138  -16.0707   25.4646 N   0  0  0  0  0  0  0  0  0  0  0  0
    9.7105  -15.6689   26.7504 C   0  0  1  0  0  0  0  0  0  0  0  0
    8.7959  -14.5954   27.2849 C   0  0  0  0  0  0  0  0  0  0  0  0
    9.4236  -12.9231   27.0433 S   0  0  0  0  0  0  0  0  0  0  0  0
    9.8334  -16.7739   27.6897 C   0  0  0  0  0  0  0  0  0  0  0  0
    9.3800  -17.9011   27.4091 O   0  0  0  0  0  0  0  0  0  0  0  0
   10.4693  -16.5537   28.9218 O   0  0  0  0  0  0  0  0  0  0  0  0
  1  2  1  0
  2  3  2  0
  4  2  1  0
  5  4  1  0
  5  6  1  6
  7  8  2  0
  7  5  1  0
 10  9  1  1
 10 12  1  0
 11 10  1  0
 12 14  1  0
 12 13  1  1
 13  7  1  0
 14 16  1  0
 15 14  2  0
 16 17  1  0
 17 20  1  0
 18 19  1  0
 17 18  1  1
 20 21  2  0
 20 22  1  0
M  END
$$$$
