NWR.pdb
     RDKit          3D

 34 35  0  0  1  0  0  0  0  0999 V2000
   28.6197  -27.8920  -19.4688 N   0  0  0  0  0  0  0  0  0  0  0  0
   28.9475  -26.5341  -19.2708 C   0  0  0  0  0  0  0  0  0  0  0  0
   29.8879  -26.0145  -19.9298 O   0  0  0  0  0  0  0  0  0  0  0  0
   28.1728  -25.7267  -18.2785 C   0  0  0  0  0  0  0  0  0  0  0  0
   29.1387  -25.0587  -17.3154 C   0  0  2  0  0  0  0  0  0  0  0  0
   29.5929  -26.1046  -16.4213 N   0  0  0  0  0  0  0  0  0  0  0  0
   28.4768  -24.0053  -16.5254 C   0  0  0  0  0  0  0  0  0  0  0  0
   27.4583  -24.2535  -15.8429 O   0  0  0  0  0  0  0  0  0  0  0  0
   28.9502  -22.6544  -16.4897 N   0  0  0  0  0  0  0  0  0  0  0  0
   28.3139  -21.6423  -15.7221 C   0  0  1  0  0  0  0  0  0  0  0  0
   29.0776  -20.3334  -15.7806 C   0  0  0  0  0  0  0  0  0  0  0  0
   28.3453  -19.2462  -15.1024 C   0  0  0  0  0  0  0  0  0  0  0  0
   27.9102  -19.2134  -13.7814 C   0  0  0  0  0  0  0  0  0  0  0  0
   27.3164  -18.0387  -13.5362 N   0  0  0  0  0  0  0  0  0  0  0  0
   27.3442  -17.2935  -14.6529 C   0  0  0  0  0  0  0  0  0  0  0  0
   26.8611  -16.0289  -14.9077 C   0  0  0  0  0  0  0  0  0  0  0  0
   26.9953  -15.4578  -16.1518 C   0  0  0  0  0  0  0  0  0  0  0  0
   27.6171  -16.1778  -17.1195 C   0  0  0  0  0  0  0  0  0  0  0  0
   28.1061  -17.4363  -16.8916 C   0  0  0  0  0  0  0  0  0  0  0  0
   27.9888  -18.0419  -15.6474 C   0  0  0  0  0  0  0  0  0  0  0  0
   26.9248  -21.3554  -16.1636 C   0  0  0  0  0  0  0  0  0  0  0  0
   26.7024  -21.4325  -17.4016 O   0  0  0  0  0  0  0  0  0  0  0  0
   22.6303  -25.9571  -15.4180 N   0  0  0  0  0  0  0  0  0  0  0  0
   21.7117  -25.1545  -14.6919 C   0  0  0  0  0  0  0  0  0  0  0  0
   21.2791  -25.5587  -13.5629 N   0  0  0  0  0  0  0  0  0  0  0  0
   21.2320  -23.9022  -15.1511 N   0  0  0  0  0  0  0  0  0  0  0  0
   21.7092  -23.3508  -16.3679 C   0  0  0  0  0  0  0  0  0  0  0  0
   22.3413  -21.9908  -16.2417 C   0  0  0  0  0  0  0  0  0  0  0  0
   23.7426  -22.1009  -15.7831 C   0  0  0  0  0  0  0  0  0  0  0  0
   24.5000  -20.8084  -15.7457 C   0  0  2  0  0  0  0  0  0  0  0  0
   25.8685  -21.0097  -15.2958 N   0  0  0  0  0  0  0  0  0  0  0  0
   23.8432  -19.7028  -15.0562 C   0  0  0  0  0  0  0  0  0  0  0  0
   23.1871  -18.7471  -15.8617 O   0  0  0  0  0  0  0  0  0  0  0  0
   23.7917  -19.5001  -13.8414 O   0  0  0  0  0  0  0  0  0  0  0  0
  2  4  1  0
  2  1  1  0
  3  2  2  0
  5  4  1  0
  5  7  1  0
  5  6  1  1
  7  8  2  0
  9 10  1  0
  9  7  1  0
 11 12  1  0
 10 11  1  6
 12 13  2  0
 14 13  1  0
 15 14  1  0
 16 15  2  0
 17 16  1  0
 18 19  1  0
 18 17  2  0
 19 20  2  0
 20 15  1  0
 20 12  1  0
 21 10  1  0
 21 22  2  0
 23 24  1  0
 24 26  1  0
 25 24  2  0
 26 27  1  0
 28 27  1  0
 28 29  1  0
 30 29  1  1
 30 31  1  0
 30 32  1  0
 31 21  1  0
 32 34  2  0
 32 33  1  0
M  END
$$$$
