NWR.pdb
     RDKit          3D

 34 35  0  0  1  0  0  0  0  0999 V2000
   20.3163  -27.6189  -15.7956 N   0  0  0  0  0  0  0  0  0  0  0  0
   21.3804  -27.9520  -14.9311 C   0  0  0  0  0  0  0  0  0  0  0  0
   21.2336  -28.8731  -14.0834 O   0  0  0  0  0  0  0  0  0  0  0  0
   22.6723  -27.2054  -15.0321 C   0  0  0  0  0  0  0  0  0  0  0  0
   22.5888  -26.2162  -16.1816 C   0  0  2  0  0  0  0  0  0  0  0  0
   23.3029  -26.8288  -17.2836 N   0  0  0  0  0  0  0  0  0  0  0  0
   23.2339  -24.9350  -15.8439 C   0  0  0  0  0  0  0  0  0  0  0  0
   24.4353  -24.7240  -16.1211 O   0  0  0  0  0  0  0  0  0  0  0  0
   22.5377  -23.8689  -15.1888 N   0  0  0  0  0  0  0  0  0  0  0  0
   23.1286  -22.5971  -14.9614 C   0  0  1  0  0  0  0  0  0  0  0  0
   22.1831  -21.4686  -15.3253 C   0  0  0  0  0  0  0  0  0  0  0  0
   22.3341  -21.0673  -16.7376 C   0  0  0  0  0  0  0  0  0  0  0  0
   21.6924  -21.6107  -17.8458 C   0  0  0  0  0  0  0  0  0  0  0  0
   22.0686  -20.9498  -18.9479 N   0  0  0  0  0  0  0  0  0  0  0  0
   22.9392  -19.9870  -18.6041 C   0  0  0  0  0  0  0  0  0  0  0  0
   23.6079  -19.0578  -19.3703 C   0  0  0  0  0  0  0  0  0  0  0  0
   24.4752  -18.1587  -18.7946 C   0  0  0  0  0  0  0  0  0  0  0  0
   24.6520  -18.2154  -17.4504 C   0  0  0  0  0  0  0  0  0  0  0  0
   23.9993  -19.1292  -16.6668 C   0  0  0  0  0  0  0  0  0  0  0  0
   23.1160  -20.0500  -17.2152 C   0  0  0  0  0  0  0  0  0  0  0  0
   23.5381  -22.3831  -13.5496 C   0  0  0  0  0  0  0  0  0  0  0  0
   22.6948  -22.6964  -12.6671 O   0  0  0  0  0  0  0  0  0  0  0  0
   30.5218  -20.7439   -8.4700 N   0  0  0  0  0  0  0  0  0  0  0  0
   30.4080  -21.2815   -9.7788 C   0  0  0  0  0  0  0  0  0  0  0  0
   31.3207  -22.0525  -10.2235 N   0  0  0  0  0  0  0  0  0  0  0  0
   29.3192  -21.0109  -10.6452 N   0  0  0  0  0  0  0  0  0  0  0  0
   28.3180  -20.0773  -10.2732 C   0  0  0  0  0  0  0  0  0  0  0  0
   26.9133  -20.6174  -10.2843 C   0  0  0  0  0  0  0  0  0  0  0  0
   26.5083  -21.0059  -11.6521 C   0  0  0  0  0  0  0  0  0  0  0  0
   25.0934  -21.4822  -11.7822 C   0  0  2  0  0  0  0  0  0  0  0  0
   24.7865  -21.8612  -13.1526 N   0  0  0  0  0  0  0  0  0  0  0  0
   24.0721  -20.6174  -11.2008 C   0  0  0  0  0  0  0  0  0  0  0  0
   23.8266  -20.7593   -9.8179 O   0  0  0  0  0  0  0  0  0  0  0  0
   23.3900  -19.7683  -11.7779 O   0  0  0  0  0  0  0  0  0  0  0  0
  2  4  1  0
  2  1  1  0
  3  2  2  0
  5  4  1  0
  5  7  1  0
  5  6  1  6
  7  8  2  0
  9 10  1  0
  9  7  1  0
 11 12  1  0
 10 11  1  1
 12 13  2  0
 14 13  1  0
 15 14  1  0
 16 15  2  0
 17 16  1  0
 18 19  1  0
 18 17  2  0
 19 20  2  0
 20 15  1  0
 20 12  1  0
 21 10  1  0
 21 22  2  0
 23 24  1  0
 24 26  1  0
 25 24  2  0
 26 27  1  0
 28 27  1  0
 28 29  1  0
 30 29  1  6
 30 31  1  0
 30 32  1  0
 31 21  1  0
 32 34  2  0
 32 33  1  0
M  END
$$$$
