NWR.pdb
     RDKit          3D

 34 35  0  0  1  0  0  0  0  0999 V2000
   28.7660  -23.4932  -18.5747 N   0  0  0  0  0  0  0  0  0  0  0  0
   27.4203  -23.1425  -18.8134 C   0  0  0  0  0  0  0  0  0  0  0  0
   27.0642  -22.7734  -19.9647 O   0  0  0  0  0  0  0  0  0  0  0  0
   26.4313  -23.2134  -17.6938 C   0  0  0  0  0  0  0  0  0  0  0  0
   27.1274  -23.7247  -16.4444 C   0  0  2  0  0  0  0  0  0  0  0  0
   27.0680  -25.1704  -16.5218 N   0  0  0  0  0  0  0  0  0  0  0  0
   26.4397  -23.2805  -15.2190 C   0  0  0  0  0  0  0  0  0  0  0  0
   25.5060  -23.9496  -14.7238 O   0  0  0  0  0  0  0  0  0  0  0  0
   26.7915  -22.0758  -14.5295 N   0  0  0  0  0  0  0  0  0  0  0  0
   26.1561  -21.6721  -13.3248 C   0  0  1  0  0  0  0  0  0  0  0  0
   26.9609  -20.6131  -12.5962 C   0  0  0  0  0  0  0  0  0  0  0  0
   26.4284  -20.3612  -11.2430 C   0  0  0  0  0  0  0  0  0  0  0  0
   25.1431  -19.9534  -10.9008 C   0  0  0  0  0  0  0  0  0  0  0  0
   25.0411  -19.8704   -9.5683 N   0  0  0  0  0  0  0  0  0  0  0  0
   26.2181  -20.2097   -9.0181 C   0  0  0  0  0  0  0  0  0  0  0  0
   26.6152  -20.2721   -7.7005 C   0  0  0  0  0  0  0  0  0  0  0  0
   27.8967  -20.6420   -7.3647 C   0  0  0  0  0  0  0  0  0  0  0  0
   28.7571  -20.9428   -8.3702 C   0  0  0  0  0  0  0  0  0  0  0  0
   28.3870  -20.8887   -9.6874 C   0  0  0  0  0  0  0  0  0  0  0  0
   27.1011  -20.5206  -10.0612 C   0  0  0  0  0  0  0  0  0  0  0  0
   24.7951  -21.1153  -13.5359 C   0  0  0  0  0  0  0  0  0  0  0  0
   24.7069  -20.1301  -14.3167 O   0  0  0  0  0  0  0  0  0  0  0  0
   20.5843  -26.6054  -14.1022 N   0  0  0  0  0  0  0  0  0  0  0  0
   19.4486  -26.1459  -13.3852 C   0  0  0  0  0  0  0  0  0  0  0  0
   18.3429  -26.7718  -13.4903 N   0  0  0  0  0  0  0  0  0  0  0  0
   19.4634  -25.0087  -12.5391 N   0  0  0  0  0  0  0  0  0  0  0  0
   20.6686  -24.2954  -12.3130 C   0  0  0  0  0  0  0  0  0  0  0  0
   20.9245  -23.1646  -13.2727 C   0  0  0  0  0  0  0  0  0  0  0  0
   21.2362  -21.9157  -12.5454 C   0  0  0  0  0  0  0  0  0  0  0  0
   22.3014  -21.0676  -13.1712 C   0  0  2  0  0  0  0  0  0  0  0  0
   23.6263  -21.6153  -12.9257 N   0  0  0  0  0  0  0  0  0  0  0  0
   22.2279  -19.6379  -12.8888 C   0  0  0  0  0  0  0  0  0  0  0  0
   21.2371  -18.9017  -13.5736 O   0  0  0  0  0  0  0  0  0  0  0  0
   22.9345  -18.9881  -12.1158 O   0  0  0  0  0  0  0  0  0  0  0  0
  2  4  1  0
  2  1  1  0
  3  2  2  0
  5  4  1  0
  5  7  1  0
  5  6  1  6
  7  8  2  0
  9 10  1  0
  9  7  1  0
 11 12  1  0
 10 11  1  6
 12 13  2  0
 14 13  1  0
 15 14  1  0
 16 15  2  0
 17 16  1  0
 18 19  1  0
 18 17  2  0
 19 20  2  0
 20 15  1  0
 20 12  1  0
 21 10  1  0
 21 22  2  0
 23 24  1  0
 24 26  1  0
 25 24  2  0
 26 27  1  0
 28 27  1  0
 28 29  1  0
 30 29  1  1
 30 31  1  0
 30 32  1  0
 31 21  1  0
 32 34  2  0
 32 33  1  0
M  END
$$$$
