NWR.pdb
     RDKit          3D

 34 35  0  0  1  0  0  0  0  0999 V2000
   28.1818  -19.9327  -17.6355 N   0  0  0  0  0  0  0  0  0  0  0  0
   27.4151  -21.0198  -18.1057 C   0  0  0  0  0  0  0  0  0  0  0  0
   26.7224  -20.8918  -19.1509 O   0  0  0  0  0  0  0  0  0  0  0  0
   27.4344  -22.3134  -17.3555 C   0  0  0  0  0  0  0  0  0  0  0  0
   28.2638  -22.1467  -16.0941 C   0  0  2  0  0  0  0  0  0  0  0  0
   29.1557  -23.2879  -16.0531 N   0  0  0  0  0  0  0  0  0  0  0  0
   27.4210  -22.1519  -14.8851 C   0  0  0  0  0  0  0  0  0  0  0  0
   26.6390  -23.0988  -14.6471 O   0  0  0  0  0  0  0  0  0  0  0  0
   27.4443  -21.0916  -13.9230 N   0  0  0  0  0  0  0  0  0  0  0  0
   26.5847  -21.0676  -12.7921 C   0  0  1  0  0  0  0  0  0  0  0  0
   27.0257  -20.0310  -11.7769 C   0  0  0  0  0  0  0  0  0  0  0  0
   28.0292  -20.5777  -10.8428 C   0  0  0  0  0  0  0  0  0  0  0  0
   29.1919  -21.2725  -11.1601 C   0  0  0  0  0  0  0  0  0  0  0  0
   29.8555  -21.5691  -10.0356 N   0  0  0  0  0  0  0  0  0  0  0  0
   29.1686  -21.0932   -8.9845 C   0  0  0  0  0  0  0  0  0  0  0  0
   29.4304  -21.1499   -7.6333 C   0  0  0  0  0  0  0  0  0  0  0  0
   28.5649  -20.5925   -6.7211 C   0  0  0  0  0  0  0  0  0  0  0  0
   27.4462  -19.9860   -7.1926 C   0  0  0  0  0  0  0  0  0  0  0  0
   27.1633  -19.9161   -8.5305 C   0  0  0  0  0  0  0  0  0  0  0  0
   28.0159  -20.4670   -9.4782 C   0  0  0  0  0  0  0  0  0  0  0  0
   25.1708  -20.7669  -13.1346 C   0  0  0  0  0  0  0  0  0  0  0  0
   24.9388  -20.4496  -14.3320 O   0  0  0  0  0  0  0  0  0  0  0  0
   24.7253  -24.4729  -16.5891 N   0  0  0  0  0  0  0  0  0  0  0  0
   23.6447  -24.8145  -15.7343 C   0  0  0  0  0  0  0  0  0  0  0  0
   23.5787  -25.9889  -15.2426 N   0  0  0  0  0  0  0  0  0  0  0  0
   22.6086  -23.9133  -15.3826 N   0  0  0  0  0  0  0  0  0  0  0  0
   22.5667  -22.6107  -15.9429 C   0  0  0  0  0  0  0  0  0  0  0  0
   22.9253  -21.5007  -14.9919 C   0  0  0  0  0  0  0  0  0  0  0  0
   22.3651  -21.7561  -13.6477 C   0  0  0  0  0  0  0  0  0  0  0  0
   22.7048  -20.7257  -12.6139 C   0  0  2  0  0  0  0  0  0  0  0  0
   24.1013  -20.8149  -12.2169 N   0  0  0  0  0  0  0  0  0  0  0  0
   21.8035  -20.6478  -11.4691 C   0  0  0  0  0  0  0  0  0  0  0  0
   22.3924  -20.7044  -10.1875 O   0  0  0  0  0  0  0  0  0  0  0  0
   20.5759  -20.5373  -11.4863 O   0  0  0  0  0  0  0  0  0  0  0  0
  2  4  1  0
  2  1  1  0
  3  2  2  0
  5  4  1  0
  5  7  1  0
  5  6  1  1
  7  8  2  0
  9 10  1  0
  9  7  1  0
 11 12  1  0
 10 11  1  1
 12 13  2  0
 14 13  1  0
 15 14  1  0
 16 15  2  0
 17 16  1  0
 18 19  1  0
 18 17  2  0
 19 20  2  0
 20 15  1  0
 20 12  1  0
 21 10  1  0
 21 22  2  0
 23 24  1  0
 24 26  1  0
 25 24  2  0
 26 27  1  0
 28 27  1  0
 28 29  1  0
 30 29  1  1
 30 31  1  0
 30 32  1  0
 31 21  1  0
 32 34  2  0
 32 33  1  0
M  END
$$$$
