NWR.pdb
     RDKit          3D

 34 35  0  0  1  0  0  0  0  0999 V2000
   28.9208  -19.8085  -16.0862 N   0  0  0  0  0  0  0  0  0  0  0  0
   27.9288  -20.6509  -15.5412 C   0  0  0  0  0  0  0  0  0  0  0  0
   28.0586  -21.9022  -15.6181 O   0  0  0  0  0  0  0  0  0  0  0  0
   26.7327  -20.0462  -14.8777 C   0  0  0  0  0  0  0  0  0  0  0  0
   25.5869  -21.0426  -14.9098 C   0  0  2  0  0  0  0  0  0  0  0  0
   25.4189  -21.4079  -16.3019 N   0  0  0  0  0  0  0  0  0  0  0  0
   24.3336  -20.4456  -14.4151 C   0  0  0  0  0  0  0  0  0  0  0  0
   24.2731  -19.9162  -13.2834 O   0  0  0  0  0  0  0  0  0  0  0  0
   23.1270  -20.4337  -15.1861 N   0  0  0  0  0  0  0  0  0  0  0  0
   21.9089  -19.8971  -14.6895 C   0  0  1  0  0  0  0  0  0  0  0  0
   21.4928  -18.6551  -15.4539 C   0  0  0  0  0  0  0  0  0  0  0  0
   22.3964  -17.5206  -15.1806 C   0  0  0  0  0  0  0  0  0  0  0  0
   23.7804  -17.5540  -15.0437 C   0  0  0  0  0  0  0  0  0  0  0  0
   24.2385  -16.3130  -14.8369 N   0  0  0  0  0  0  0  0  0  0  0  0
   23.2017  -15.4597  -14.8319 C   0  0  0  0  0  0  0  0  0  0  0  0
   23.1556  -14.0947  -14.6525 C   0  0  0  0  0  0  0  0  0  0  0  0
   21.9582  -13.4181  -14.6772 C   0  0  0  0  0  0  0  0  0  0  0  0
   20.8251  -14.1358  -14.8832 C   0  0  0  0  0  0  0  0  0  0  0  0
   20.8442  -15.4930  -15.0644 C   0  0  0  0  0  0  0  0  0  0  0  0
   22.0353  -16.2068  -15.0467 C   0  0  0  0  0  0  0  0  0  0  0  0
   20.7734  -20.8522  -14.7607 C   0  0  0  0  0  0  0  0  0  0  0  0
   20.7347  -21.6035  -15.7717 O   0  0  0  0  0  0  0  0  0  0  0  0
   19.0075  -24.9385   -8.4959 N   0  0  0  0  0  0  0  0  0  0  0  0
   18.7623  -23.5634   -8.2430 C   0  0  0  0  0  0  0  0  0  0  0  0
   19.1759  -23.0403   -7.1564 N   0  0  0  0  0  0  0  0  0  0  0  0
   18.0708  -22.7125   -9.1414 N   0  0  0  0  0  0  0  0  0  0  0  0
   17.6374  -23.1968  -10.4023 C   0  0  0  0  0  0  0  0  0  0  0  0
   17.7699  -22.2167  -11.5366 C   0  0  0  0  0  0  0  0  0  0  0  0
   18.6166  -22.7694  -12.6153 C   0  0  0  0  0  0  0  0  0  0  0  0
   18.6836  -21.9349  -13.8582 C   0  0  2  0  0  0  0  0  0  0  0  0
   19.7618  -20.9613  -13.7844 N   0  0  0  0  0  0  0  0  0  0  0  0
   17.4253  -21.3413  -14.2978 C   0  0  0  0  0  0  0  0  0  0  0  0
   17.2919  -19.9439  -14.1492 O   0  0  0  0  0  0  0  0  0  0  0  0
   16.4536  -21.9194  -14.7887 O   0  0  0  0  0  0  0  0  0  0  0  0
  2  4  1  0
  2  1  1  0
  3  2  2  0
  5  4  1  0
  5  7  1  0
  5  6  1  6
  7  8  2  0
  9 10  1  0
  9  7  1  0
 11 12  1  0
 10 11  1  6
 12 13  2  0
 14 13  1  0
 15 14  1  0
 16 15  2  0
 17 16  1  0
 18 19  1  0
 18 17  2  0
 19 20  2  0
 20 15  1  0
 20 12  1  0
 21 10  1  0
 21 22  2  0
 23 24  1  0
 24 26  1  0
 25 24  2  0
 26 27  1  0
 28 27  1  0
 28 29  1  0
 30 29  1  1
 30 31  1  0
 30 32  1  0
 31 21  1  0
 32 34  2  0
 32 33  1  0
M  END
$$$$
