NWR.pdb
     RDKit          3D

 34 35  0  0  1  0  0  0  0  0999 V2000
   27.9958  -18.7281   -6.1212 N   0  0  0  0  0  0  0  0  0  0  0  0
   27.0884  -19.7530   -6.4629 C   0  0  0  0  0  0  0  0  0  0  0  0
   26.9906  -20.7730   -5.7291 O   0  0  0  0  0  0  0  0  0  0  0  0
   26.2521  -19.6153   -7.6952 C   0  0  0  0  0  0  0  0  0  0  0  0
   26.7553  -20.5846   -8.7508 C   0  0  2  0  0  0  0  0  0  0  0  0
   28.1758  -20.3287   -8.8782 N   0  0  0  0  0  0  0  0  0  0  0  0
   26.1067  -20.3535  -10.0538 C   0  0  0  0  0  0  0  0  0  0  0  0
   25.7537  -19.2059  -10.4050 O   0  0  0  0  0  0  0  0  0  0  0  0
   25.8448  -21.4099  -10.9842 N   0  0  0  0  0  0  0  0  0  0  0  0
   25.2689  -21.1770  -12.2618 C   0  0  1  0  0  0  0  0  0  0  0  0
   26.0932  -21.8047  -13.3692 C   0  0  0  0  0  0  0  0  0  0  0  0
   27.2702  -20.9797  -13.7048 C   0  0  0  0  0  0  0  0  0  0  0  0
   28.6088  -21.2803  -13.4745 C   0  0  0  0  0  0  0  0  0  0  0  0
   29.3767  -20.2947  -13.9558 N   0  0  0  0  0  0  0  0  0  0  0  0
   28.5888  -19.3513  -14.4965 C   0  0  0  0  0  0  0  0  0  0  0  0
   28.8987  -18.1548  -15.1047 C   0  0  0  0  0  0  0  0  0  0  0  0
   27.9095  -17.3279  -15.5840 C   0  0  0  0  0  0  0  0  0  0  0  0
   26.6204  -17.7263  -15.4389 C   0  0  0  0  0  0  0  0  0  0  0  0
   26.2863  -18.9106  -14.8384 C   0  0  0  0  0  0  0  0  0  0  0  0
   27.2596  -19.7695  -14.3449 C   0  0  0  0  0  0  0  0  0  0  0  0
   23.8888  -21.7113  -12.3909 C   0  0  0  0  0  0  0  0  0  0  0  0
   23.6729  -22.8391  -11.8715 O   0  0  0  0  0  0  0  0  0  0  0  0
   17.7979  -23.2512   -8.0985 N   0  0  0  0  0  0  0  0  0  0  0  0
   18.5426  -24.0519   -9.0036 C   0  0  0  0  0  0  0  0  0  0  0  0
   18.8761  -25.2358   -8.6682 N   0  0  0  0  0  0  0  0  0  0  0  0
   18.9498  -23.6108  -10.2877 N   0  0  0  0  0  0  0  0  0  0  0  0
   18.7573  -22.2612  -10.6798 C   0  0  0  0  0  0  0  0  0  0  0  0
   19.2950  -21.9149  -12.0421 C   0  0  0  0  0  0  0  0  0  0  0  0
   20.6897  -21.4324  -11.9519 C   0  0  0  0  0  0  0  0  0  0  0  0
   21.5029  -21.6100  -13.1979 C   0  0  2  0  0  0  0  0  0  0  0  0
   22.8340  -21.0434  -13.0464 N   0  0  0  0  0  0  0  0  0  0  0  0
   20.8614  -21.2016  -14.4432 C   0  0  0  0  0  0  0  0  0  0  0  0
   19.9401  -22.1062  -15.0137 O   0  0  0  0  0  0  0  0  0  0  0  0
   21.0289  -20.1501  -15.0643 O   0  0  0  0  0  0  0  0  0  0  0  0
  2  4  1  0
  2  1  1  0
  3  2  2  0
  5  4  1  0
  5  7  1  0
  5  6  1  6
  7  8  2  0
  9 10  1  0
  9  7  1  0
 11 12  1  0
 10 11  1  6
 12 13  2  0
 14 13  1  0
 15 14  1  0
 16 15  2  0
 17 16  1  0
 18 19  1  0
 18 17  2  0
 19 20  2  0
 20 15  1  0
 20 12  1  0
 21 10  1  0
 21 22  2  0
 23 24  1  0
 24 26  1  0
 25 24  2  0
 26 27  1  0
 28 27  1  0
 28 29  1  0
 30 29  1  1
 30 31  1  0
 30 32  1  0
 31 21  1  0
 32 34  2  0
 32 33  1  0
M  END
$$$$
