NWR.pdb
     RDKit          3D

 34 35  0  0  1  0  0  0  0  0999 V2000
   26.4624  -22.4623  -18.3592 N   0  0  0  0  0  0  0  0  0  0  0  0
   25.4061  -23.3360  -18.6933 C   0  0  0  0  0  0  0  0  0  0  0  0
   25.2574  -23.7107  -19.8874 O   0  0  0  0  0  0  0  0  0  0  0  0
   24.4739  -23.8072  -17.6229 C   0  0  0  0  0  0  0  0  0  0  0  0
   25.0304  -23.4111  -16.2663 C   0  0  2  0  0  0  0  0  0  0  0  0
   25.6327  -24.6104  -15.7201 N   0  0  0  0  0  0  0  0  0  0  0  0
   23.9667  -22.9502  -15.3563 C   0  0  0  0  0  0  0  0  0  0  0  0
   23.2376  -23.7658  -14.7497 O   0  0  0  0  0  0  0  0  0  0  0  0
   23.7058  -21.5635  -15.1130 N   0  0  0  0  0  0  0  0  0  0  0  0
   22.7440  -21.1223  -14.1650 C   0  0  1  0  0  0  0  0  0  0  0  0
   23.2425  -19.9249  -13.3791 C   0  0  0  0  0  0  0  0  0  0  0  0
   24.1957  -20.3249  -12.3257 C   0  0  0  0  0  0  0  0  0  0  0  0
   25.5630  -20.5440  -12.4593 C   0  0  0  0  0  0  0  0  0  0  0  0
   26.0835  -20.8573  -11.2661 N   0  0  0  0  0  0  0  0  0  0  0  0
   25.1040  -20.8531  -10.3475 C   0  0  0  0  0  0  0  0  0  0  0  0
   25.1319  -21.1162   -8.9956 C   0  0  0  0  0  0  0  0  0  0  0  0
   23.9835  -21.0613   -8.2405 C   0  0  0  0  0  0  0  0  0  0  0  0
   22.8235  -20.7408   -8.8676 C   0  0  0  0  0  0  0  0  0  0  0  0
   22.7693  -20.4749  -10.2098 C   0  0  0  0  0  0  0  0  0  0  0  0
   23.9097  -20.5200  -11.0011 C   0  0  0  0  0  0  0  0  0  0  0  0
   21.4495  -20.7308  -14.7795 C   0  0  0  0  0  0  0  0  0  0  0  0
   21.4685  -20.4755  -16.0135 O   0  0  0  0  0  0  0  0  0  0  0  0
   21.3127  -23.5373  -19.2173 N   0  0  0  0  0  0  0  0  0  0  0  0
   21.4786  -24.2975  -18.0300 C   0  0  0  0  0  0  0  0  0  0  0  0
   22.5998  -24.8557  -17.7922 N   0  0  0  0  0  0  0  0  0  0  0  0
   20.4542  -24.4813  -17.0676 N   0  0  0  0  0  0  0  0  0  0  0  0
   19.2059  -23.8227  -17.2102 C   0  0  0  0  0  0  0  0  0  0  0  0
   19.1791  -22.4024  -16.7132 C   0  0  0  0  0  0  0  0  0  0  0  0
   18.9739  -22.3595  -15.2496 C   0  0  0  0  0  0  0  0  0  0  0  0
   18.9447  -20.9845  -14.6544 C   0  0  2  0  0  0  0  0  0  0  0  0
   20.2316  -20.6309  -14.0759 N   0  0  0  0  0  0  0  0  0  0  0  0
   17.8318  -20.7015  -13.7541 C   0  0  0  0  0  0  0  0  0  0  0  0
   16.8226  -19.8407  -14.2371 O   0  0  0  0  0  0  0  0  0  0  0  0
   17.6648  -21.1280  -12.6098 O   0  0  0  0  0  0  0  0  0  0  0  0
  2  4  1  0
  2  1  1  0
  3  2  2  0
  5  4  1  0
  5  7  1  0
  5  6  1  1
  7  8  2  0
  9 10  1  0
  9  7  1  0
 11 12  1  0
 10 11  1  6
 12 13  2  0
 14 13  1  0
 15 14  1  0
 16 15  2  0
 17 16  1  0
 18 19  1  0
 18 17  2  0
 19 20  2  0
 20 15  1  0
 20 12  1  0
 21 10  1  0
 21 22  2  0
 23 24  1  0
 24 26  1  0
 25 24  2  0
 26 27  1  0
 28 27  1  0
 28 29  1  0
 30 29  1  1
 30 31  1  0
 30 32  1  0
 31 21  1  0
 32 34  2  0
 32 33  1  0
M  END
$$$$
