NWR.pdb
     RDKit          3D

 34 35  0  0  1  0  0  0  0  0999 V2000
   28.7865  -17.0603  -15.1729 N   0  0  0  0  0  0  0  0  0  0  0  0
   28.2342  -18.1409  -15.8926 C   0  0  0  0  0  0  0  0  0  0  0  0
   28.5618  -18.3246  -17.0957 O   0  0  0  0  0  0  0  0  0  0  0  0
   27.2643  -19.0567  -15.2164 C   0  0  0  0  0  0  0  0  0  0  0  0
   27.9913  -19.8514  -14.1456 C   0  0  2  0  0  0  0  0  0  0  0  0
   28.7963  -20.8259  -14.8539 N   0  0  0  0  0  0  0  0  0  0  0  0
   27.0491  -20.5588  -13.2603 C   0  0  0  0  0  0  0  0  0  0  0  0
   26.4084  -21.5548  -13.6630 O   0  0  0  0  0  0  0  0  0  0  0  0
   26.8123  -20.1576  -11.9063 N   0  0  0  0  0  0  0  0  0  0  0  0
   25.8592  -20.8036  -11.0740 C   0  0  1  0  0  0  0  0  0  0  0  0
   26.0005  -20.3754   -9.6261 C   0  0  0  0  0  0  0  0  0  0  0  0
   27.3414  -20.6889   -9.0951 C   0  0  0  0  0  0  0  0  0  0  0  0
   28.3443  -21.4304   -9.7112 C   0  0  0  0  0  0  0  0  0  0  0  0
   29.4264  -21.4590   -8.9230 N   0  0  0  0  0  0  0  0  0  0  0  0
   29.1710  -20.7606   -7.8049 C   0  0  0  0  0  0  0  0  0  0  0  0
   29.9531  -20.5065   -6.6998 C   0  0  0  0  0  0  0  0  0  0  0  0
   29.4716  -19.7613   -5.6487 C   0  0  0  0  0  0  0  0  0  0  0  0
   28.2036  -19.2851   -5.7335 C   0  0  0  0  0  0  0  0  0  0  0  0
   27.4063  -19.5235   -6.8209 C   0  0  0  0  0  0  0  0  0  0  0  0
   27.8613  -20.2704   -7.8996 C   0  0  0  0  0  0  0  0  0  0  0  0
   24.4533  -20.5348  -11.4718 C   0  0  0  0  0  0  0  0  0  0  0  0
   24.1178  -19.3235  -11.5627 O   0  0  0  0  0  0  0  0  0  0  0  0
   24.2900  -26.2210  -14.9210 N   0  0  0  0  0  0  0  0  0  0  0  0
   23.0902  -25.6632  -15.4351 C   0  0  0  0  0  0  0  0  0  0  0  0
   22.5428  -26.1858  -16.4611 N   0  0  0  0  0  0  0  0  0  0  0  0
   22.4447  -24.5355  -14.8687 N   0  0  0  0  0  0  0  0  0  0  0  0
   21.9232  -24.5913  -13.5506 C   0  0  0  0  0  0  0  0  0  0  0  0
   21.1400  -23.3776  -13.1278 C   0  0  0  0  0  0  0  0  0  0  0  0
   21.8709  -22.1361  -13.4600 C   0  0  0  0  0  0  0  0  0  0  0  0
   22.1796  -21.2510  -12.2908 C   0  0  2  0  0  0  0  0  0  0  0  0
   23.4978  -21.5350  -11.7455 N   0  0  0  0  0  0  0  0  0  0  0  0
   21.1525  -21.1768  -11.2569 C   0  0  0  0  0  0  0  0  0  0  0  0
   21.4775  -21.7170   -9.9939 O   0  0  0  0  0  0  0  0  0  0  0  0
   20.0226  -20.6941  -11.3544 O   0  0  0  0  0  0  0  0  0  0  0  0
  2  4  1  0
  2  1  1  0
  3  2  2  0
  5  4  1  0
  5  7  1  0
  5  6  1  6
  7  8  2  0
  9 10  1  0
  9  7  1  0
 11 12  1  0
 10 11  1  1
 12 13  2  0
 14 13  1  0
 15 14  1  0
 16 15  2  0
 17 16  1  0
 18 19  1  0
 18 17  2  0
 19 20  2  0
 20 15  1  0
 20 12  1  0
 21 10  1  0
 21 22  2  0
 23 24  1  0
 24 26  1  0
 25 24  2  0
 26 27  1  0
 28 27  1  0
 28 29  1  0
 30 29  1  6
 30 31  1  0
 30 32  1  0
 31 21  1  0
 32 34  2  0
 32 33  1  0
M  END
$$$$
