NWR.pdb
     RDKit          3D

 34 35  0  0  1  0  0  0  0  0999 V2000
   29.7941  -20.7083  -16.8384 N   0  0  0  0  0  0  0  0  0  0  0  0
   28.4746  -20.2125  -16.9016 C   0  0  0  0  0  0  0  0  0  0  0  0
   28.1344  -19.4573  -17.8516 O   0  0  0  0  0  0  0  0  0  0  0  0
   27.4944  -20.5905  -15.8372 C   0  0  0  0  0  0  0  0  0  0  0  0
   28.1838  -21.4788  -14.8162 C   0  0  2  0  0  0  0  0  0  0  0  0
   28.2029  -22.8067  -15.3956 N   0  0  0  0  0  0  0  0  0  0  0  0
   27.4421  -21.5205  -13.5434 C   0  0  0  0  0  0  0  0  0  0  0  0
   26.2714  -21.9582  -13.4923 O   0  0  0  0  0  0  0  0  0  0  0  0
   28.0055  -21.0708  -12.3062 N   0  0  0  0  0  0  0  0  0  0  0  0
   27.2832  -21.0991  -11.0832 C   0  0  1  0  0  0  0  0  0  0  0  0
   28.1120  -20.5623   -9.9322 C   0  0  0  0  0  0  0  0  0  0  0  0
   27.3479  -20.5550   -8.6694 C   0  0  0  0  0  0  0  0  0  0  0  0
   25.9946  -20.8269   -8.4967 C   0  0  0  0  0  0  0  0  0  0  0  0
   25.6871  -20.7529   -7.1956 N   0  0  0  0  0  0  0  0  0  0  0  0
   26.7936  -20.4401   -6.5022 C   0  0  0  0  0  0  0  0  0  0  0  0
   26.9894  -20.2446   -5.1528 C   0  0  0  0  0  0  0  0  0  0  0  0
   28.2299  -19.9149   -4.6584 C   0  0  0  0  0  0  0  0  0  0  0  0
   29.2537  -19.7878   -5.5400 C   0  0  0  0  0  0  0  0  0  0  0  0
   29.0852  -19.9771   -6.8856 C   0  0  0  0  0  0  0  0  0  0  0  0
   27.8470  -20.3119   -7.4179 C   0  0  0  0  0  0  0  0  0  0  0  0
   26.0283  -20.3050  -11.1229 C   0  0  0  0  0  0  0  0  0  0  0  0
   26.1399  -19.0960  -11.4606 O   0  0  0  0  0  0  0  0  0  0  0  0
   20.9556  -17.5189  -15.4954 N   0  0  0  0  0  0  0  0  0  0  0  0
   22.2731  -17.2698  -15.9615 C   0  0  0  0  0  0  0  0  0  0  0  0
   22.5363  -16.1661  -16.5428 N   0  0  0  0  0  0  0  0  0  0  0  0
   23.3417  -18.1902  -15.8195 N   0  0  0  0  0  0  0  0  0  0  0  0
   23.1624  -19.3947  -15.0919 C   0  0  0  0  0  0  0  0  0  0  0  0
   23.0273  -19.2208  -13.6031 C   0  0  0  0  0  0  0  0  0  0  0  0
   23.5351  -20.4092  -12.8849 C   0  0  0  0  0  0  0  0  0  0  0  0
   23.5219  -20.2994  -11.3905 C   0  0  2  0  0  0  0  0  0  0  0  0
   24.7518  -20.8163  -10.8109 N   0  0  0  0  0  0  0  0  0  0  0  0
   22.3312  -20.8142  -10.7225 C   0  0  0  0  0  0  0  0  0  0  0  0
   21.1680  -20.0170  -10.7861 O   0  0  0  0  0  0  0  0  0  0  0  0
   22.2171  -21.8733  -10.1022 O   0  0  0  0  0  0  0  0  0  0  0  0
  2  4  1  0
  2  1  1  0
  3  2  2  0
  5  4  1  0
  5  7  1  0
  5  6  1  6
  7  8  2  0
  9 10  1  0
  9  7  1  0
 11 12  1  0
 10 11  1  1
 12 13  2  0
 14 13  1  0
 15 14  1  0
 16 15  2  0
 17 16  1  0
 18 19  1  0
 18 17  2  0
 19 20  2  0
 20 15  1  0
 20 12  1  0
 21 10  1  0
 21 22  2  0
 23 24  1  0
 24 26  1  0
 25 24  2  0
 26 27  1  0
 28 27  1  0
 28 29  1  0
 30 29  1  6
 30 31  1  0
 30 32  1  0
 31 21  1  0
 32 34  2  0
 32 33  1  0
M  END
$$$$
