NWR.pdb
     RDKit          3D

 34 35  0  0  1  0  0  0  0  0999 V2000
   28.2694  -22.3932  -18.1077 N   0  0  0  0  0  0  0  0  0  0  0  0
   26.9004  -22.4729  -18.4397 C   0  0  0  0  0  0  0  0  0  0  0  0
   26.5308  -22.2642  -19.6264 O   0  0  0  0  0  0  0  0  0  0  0  0
   25.9029  -22.8048  -17.3759 C   0  0  0  0  0  0  0  0  0  0  0  0
   26.6280  -23.0035  -16.0562 C   0  0  2  0  0  0  0  0  0  0  0  0
   27.0783  -24.3808  -16.0555 N   0  0  0  0  0  0  0  0  0  0  0  0
   25.7312  -22.7907  -14.9062 C   0  0  0  0  0  0  0  0  0  0  0  0
   25.0824  -23.7377  -14.4093 O   0  0  0  0  0  0  0  0  0  0  0  0
   25.5499  -21.5084  -14.2954 N   0  0  0  0  0  0  0  0  0  0  0  0
   24.7062  -21.3113  -13.1695 C   0  0  1  0  0  0  0  0  0  0  0  0
   25.1420  -20.1137  -12.3474 C   0  0  0  0  0  0  0  0  0  0  0  0
   25.9698  -20.5182  -11.1944 C   0  0  0  0  0  0  0  0  0  0  0  0
   25.5349  -20.8624   -9.9186 C   0  0  0  0  0  0  0  0  0  0  0  0
   26.5877  -21.2045   -9.1654 N   0  0  0  0  0  0  0  0  0  0  0  0
   27.7053  -21.0971   -9.9020 C   0  0  0  0  0  0  0  0  0  0  0  0
   29.0249  -21.3271   -9.5807 C   0  0  0  0  0  0  0  0  0  0  0  0
   30.0222  -21.1384  -10.5091 C   0  0  0  0  0  0  0  0  0  0  0  0
   29.6665  -20.7188  -11.7497 C   0  0  0  0  0  0  0  0  0  0  0  0
   28.3622  -20.4835  -12.0940 C   0  0  0  0  0  0  0  0  0  0  0  0
   27.3309  -20.6652  -11.1818 C   0  0  0  0  0  0  0  0  0  0  0  0
   23.2822  -21.0945  -13.5326 C   0  0  0  0  0  0  0  0  0  0  0  0
   23.0625  -20.3292  -14.5095 O   0  0  0  0  0  0  0  0  0  0  0  0
   19.6371  -24.2142   -8.6575 N   0  0  0  0  0  0  0  0  0  0  0  0
   18.2736  -23.8723   -8.8550 C   0  0  0  0  0  0  0  0  0  0  0  0
   17.5234  -23.6693   -7.8445 N   0  0  0  0  0  0  0  0  0  0  0  0
   17.6767  -23.7383  -10.1337 N   0  0  0  0  0  0  0  0  0  0  0  0
   18.4701  -23.7967  -11.3082 C   0  0  0  0  0  0  0  0  0  0  0  0
   19.1426  -22.5036  -11.6829 C   0  0  0  0  0  0  0  0  0  0  0  0
   19.9604  -22.6686  -12.9036 C   0  0  0  0  0  0  0  0  0  0  0  0
   20.8065  -21.4853  -13.2635 C   0  0  2  0  0  0  0  0  0  0  0  0
   22.1904  -21.6824  -12.8612 N   0  0  0  0  0  0  0  0  0  0  0  0
   20.2883  -20.1826  -12.8592 C   0  0  0  0  0  0  0  0  0  0  0  0
   19.3293  -19.5858  -13.7060 O   0  0  0  0  0  0  0  0  0  0  0  0
   20.5904  -19.5328  -11.8563 O   0  0  0  0  0  0  0  0  0  0  0  0
  2  4  1  0
  2  1  1  0
  3  2  2  0
  5  4  1  0
  5  7  1  0
  5  6  1  6
  7  8  2  0
  9 10  1  0
  9  7  1  0
 11 12  1  0
 10 11  1  6
 12 13  2  0
 14 13  1  0
 15 14  1  0
 16 15  2  0
 17 16  1  0
 18 19  1  0
 18 17  2  0
 19 20  2  0
 20 15  1  0
 20 12  1  0
 21 10  1  0
 21 22  2  0
 23 24  1  0
 24 26  1  0
 25 24  2  0
 26 27  1  0
 28 27  1  0
 28 29  1  0
 30 29  1  1
 30 31  1  0
 30 32  1  0
 31 21  1  0
 32 34  2  0
 32 33  1  0
M  END
$$$$
