NWR.pdb
     RDKit          3D

 34 35  0  0  1  0  0  0  0  0999 V2000
   27.8405  -20.8996  -15.4942 N   0  0  0  0  0  0  0  0  0  0  0  0
   27.5202  -19.5513  -15.2291 C   0  0  0  0  0  0  0  0  0  0  0  0
   28.3039  -18.6369  -15.6007 O   0  0  0  0  0  0  0  0  0  0  0  0
   26.2513  -19.2240  -14.5082 C   0  0  0  0  0  0  0  0  0  0  0  0
   25.5135  -20.5120  -14.1863 C   0  0  2  0  0  0  0  0  0  0  0  0
   25.4294  -21.2426  -15.4348 N   0  0  0  0  0  0  0  0  0  0  0  0
   24.1507  -20.2482  -13.6913 C   0  0  0  0  0  0  0  0  0  0  0  0
   23.9592  -19.5737  -12.6554 O   0  0  0  0  0  0  0  0  0  0  0  0
   22.9800  -20.7387  -14.3540 N   0  0  0  0  0  0  0  0  0  0  0  0
   21.6670  -20.4748  -13.8798 C   0  0  1  0  0  0  0  0  0  0  0  0
   20.7923  -19.8730  -14.9626 C   0  0  0  0  0  0  0  0  0  0  0  0
   21.2056  -18.4949  -15.2916 C   0  0  0  0  0  0  0  0  0  0  0  0
   22.4995  -18.0217  -15.4839 C   0  0  0  0  0  0  0  0  0  0  0  0
   22.4567  -16.7219  -15.8024 N   0  0  0  0  0  0  0  0  0  0  0  0
   21.1757  -16.3199  -15.8263 C   0  0  0  0  0  0  0  0  0  0  0  0
   20.6201  -15.0873  -16.0901 C   0  0  0  0  0  0  0  0  0  0  0  0
   19.2579  -14.9014  -16.0463 C   0  0  0  0  0  0  0  0  0  0  0  0
   18.4791  -15.9683  -15.7352 C   0  0  0  0  0  0  0  0  0  0  0  0
   19.0067  -17.2035  -15.4692 C   0  0  0  0  0  0  0  0  0  0  0  0
   20.3769  -17.4263  -15.5059 C   0  0  0  0  0  0  0  0  0  0  0  0
   20.9681  -21.6864  -13.3794 C   0  0  0  0  0  0  0  0  0  0  0  0
   21.0070  -22.7036  -14.1223 O   0  0  0  0  0  0  0  0  0  0  0  0
   16.9715  -23.9779   -5.6744 N   0  0  0  0  0  0  0  0  0  0  0  0
   17.5710  -25.1421   -6.2224 C   0  0  0  0  0  0  0  0  0  0  0  0
   17.3937  -26.2685   -5.6523 N   0  0  0  0  0  0  0  0  0  0  0  0
   18.3735  -25.1343   -7.3908 N   0  0  0  0  0  0  0  0  0  0  0  0
   18.6152  -23.9240   -8.0901 C   0  0  0  0  0  0  0  0  0  0  0  0
   18.7481  -24.0705   -9.5821 C   0  0  0  0  0  0  0  0  0  0  0  0
   19.4479  -22.9064  -10.1662 C   0  0  0  0  0  0  0  0  0  0  0  0
   19.6765  -22.9819  -11.6453 C   0  0  2  0  0  0  0  0  0  0  0  0
   20.2803  -21.7589  -12.1506 N   0  0  0  0  0  0  0  0  0  0  0  0
   18.5360  -23.4133  -12.4468 C   0  0  0  0  0  0  0  0  0  0  0  0
   17.5280  -22.4556  -12.6907 O   0  0  0  0  0  0  0  0  0  0  0  0
   18.3443  -24.5255  -12.9421 O   0  0  0  0  0  0  0  0  0  0  0  0
  2  4  1  0
  2  1  1  0
  3  2  2  0
  5  4  1  0
  5  7  1  0
  5  6  1  6
  7  8  2  0
  9 10  1  0
  9  7  1  0
 11 12  1  0
 10 11  1  6
 12 13  2  0
 14 13  1  0
 15 14  1  0
 16 15  2  0
 17 16  1  0
 18 19  1  0
 18 17  2  0
 19 20  2  0
 20 15  1  0
 20 12  1  0
 21 10  1  0
 21 22  2  0
 23 24  1  0
 24 26  1  0
 25 24  2  0
 26 27  1  0
 28 27  1  0
 28 29  1  0
 30 29  1  1
 30 31  1  0
 30 32  1  0
 31 21  1  0
 32 34  2  0
 32 33  1  0
M  END
$$$$
