SCL.pdb
     RDKit          3D

 21 20  0  0  1  0  0  0  0  0999 V2000
    8.4290  -17.7070   22.3897 O   0  0  0  0  0  0  0  0  0  0  0  0
    7.4113  -17.0990   21.6967 C   0  0  0  0  0  0  0  0  0  0  0  0
    7.7816  -15.6675   21.3791 C   0  0  2  0  0  0  0  0  0  0  0  0
    8.9406  -15.7255   20.5074 N   0  0  0  0  0  0  0  0  0  0  0  0
    8.1612  -14.9119   22.5934 C   0  0  0  0  0  0  0  0  0  0  0  0
    9.3645  -14.7969   22.9457 O   0  0  0  0  0  0  0  0  0  0  0  0
    7.2056  -14.2702   23.4375 N   0  0  0  0  0  0  0  0  0  0  0  0
    7.5801  -13.5938   24.6725 C   0  0  1  0  0  0  0  0  0  0  0  0
    6.3298  -12.9718   25.2606 C   0  0  0  0  0  0  0  0  0  0  0  0
    6.6629  -12.1541   26.8398 S   0  0  0  0  0  0  0  0  0  0  0  0
    8.0667  -14.5840   25.6873 C   0  0  0  0  0  0  0  0  0  0  0  0
    7.5742  -15.7398   25.7011 O   0  0  0  0  0  0  0  0  0  0  0  0
   11.2097  -17.8839   27.4693 C   0  0  0  0  0  0  0  0  0  0  0  0
   11.9210  -16.5437   27.5439 C   0  0  1  0  0  0  0  0  0  0  0  0
   13.3352  -16.6518   27.0148 C   0  0  0  0  0  0  0  0  0  0  0  0
   11.1828  -15.5182   26.7232 C   0  0  0  0  0  0  0  0  0  0  0  0
    9.8630  -15.2382   27.3609 C   0  0  2  0  0  0  0  0  0  0  0  0
    9.0623  -14.2721   26.6361 N   0  0  0  0  0  0  0  0  0  0  0  0
   10.0508  -14.6782   28.7477 C   0  0  0  0  0  0  0  0  0  0  0  0
   10.4964  -15.4268   29.6491 O   0  0  0  0  0  0  0  0  0  0  0  0
    9.7438  -13.3767   29.0306 O   0  0  0  0  0  0  0  0  0  0  0  0
  2  1  1  0
  3  2  1  0
  3  4  1  6
  5  3  1  0
  5  6  2  0
  7  5  1  0
  8  7  1  0
  9 10  1  0
  8  9  1  1
 11 12  2  0
 11  8  1  0
 14 13  1  6
 14 15  1  0
 16 14  1  0
 17 18  1  0
 17 16  1  6
 18 11  1  0
 19 17  1  0
 20 19  2  0
 21 19  1  0
M  END
$$$$
