SCL.pdb
     RDKit          3D

 21 20  0  0  1  0  0  0  0  0999 V2000
   11.2058  -17.4123   20.2598 O   0  0  0  0  0  0  0  0  0  0  0  0
   10.1944  -18.2835   19.9379 C   0  0  0  0  0  0  0  0  0  0  0  0
    8.9267  -17.5177   19.6318 C   0  0  2  0  0  0  0  0  0  0  0  0
    9.3144  -16.3963   18.7960 N   0  0  0  0  0  0  0  0  0  0  0  0
    8.2973  -16.9774   20.8572 C   0  0  0  0  0  0  0  0  0  0  0  0
    8.0747  -15.7456   20.9926 O   0  0  0  0  0  0  0  0  0  0  0  0
    7.9042  -17.8012   21.9547 N   0  0  0  0  0  0  0  0  0  0  0  0
    7.2945  -17.2596   23.1621 C   0  0  1  0  0  0  0  0  0  0  0  0
    6.7731  -18.4221   23.9824 C   0  0  0  0  0  0  0  0  0  0  0  0
    6.2301  -17.8967   25.6263 S   0  0  0  0  0  0  0  0  0  0  0  0
    8.3258  -16.5819   24.0131 C   0  0  0  0  0  0  0  0  0  0  0  0
    9.4832  -17.0664   24.0761 O   0  0  0  0  0  0  0  0  0  0  0  0
    6.8435  -12.1021   27.1864 C   0  0  0  0  0  0  0  0  0  0  0  0
    7.1341  -13.2863   26.2804 C   0  0  1  0  0  0  0  0  0  0  0  0
    6.3193  -13.2058   25.0071 C   0  0  0  0  0  0  0  0  0  0  0  0
    8.5944  -13.3103   25.9103 C   0  0  0  0  0  0  0  0  0  0  0  0
    8.9975  -14.7127   25.5975 C   0  0  2  0  0  0  0  0  0  0  0  0
    8.0511  -15.4132   24.7531 N   0  0  0  0  0  0  0  0  0  0  0  0
    9.1206  -15.5249   26.8613 C   0  0  0  0  0  0  0  0  0  0  0  0
    9.9021  -15.1340   27.7601 O   0  0  0  0  0  0  0  0  0  0  0  0
    8.3971  -16.6712   27.0365 O   0  0  0  0  0  0  0  0  0  0  0  0
  2  1  1  0
  3  2  1  0
  3  4  1  6
  5  3  1  0
  5  6  2  0
  7  5  1  0
  8  7  1  0
  9 10  1  0
  8  9  1  1
 11 12  2  0
 11  8  1  0
 14 13  1  1
 14 15  1  0
 16 14  1  0
 17 18  1  0
 17 16  1  1
 18 11  1  0
 19 17  1  0
 20 19  2  0
 21 19  1  0
M  END
$$$$
