SCL.pdb
     RDKit          3D

 21 20  0  0  1  0  0  0  0  0999 V2000
    8.0215  -15.4088   19.4047 O   0  0  0  0  0  0  0  0  0  0  0  0
    8.6775  -16.5459   19.8076 C   0  0  0  0  0  0  0  0  0  0  0  0
    7.6798  -17.5898   20.2570 C   0  0  2  0  0  0  0  0  0  0  0  0
    6.5276  -17.4615   19.3838 N   0  0  0  0  0  0  0  0  0  0  0  0
    7.2269  -17.3600   21.6469 C   0  0  0  0  0  0  0  0  0  0  0  0
    6.0965  -16.8643   21.8956 O   0  0  0  0  0  0  0  0  0  0  0  0
    8.0265  -17.6789   22.7856 N   0  0  0  0  0  0  0  0  0  0  0  0
    7.5795  -17.4337   24.1505 C   0  0  1  0  0  0  0  0  0  0  0  0
    7.7853  -18.7080   24.9441 C   0  0  0  0  0  0  0  0  0  0  0  0
    7.4503  -18.4662   26.7056 S   0  0  0  0  0  0  0  0  0  0  0  0
    8.4380  -16.3943   24.8060 C   0  0  0  0  0  0  0  0  0  0  0  0
    9.6833  -16.4375   24.6453 O   0  0  0  0  0  0  0  0  0  0  0  0
    5.8663  -11.9139   26.6316 C   0  0  0  0  0  0  0  0  0  0  0  0
    6.8705  -12.8497   25.9809 C   0  0  1  0  0  0  0  0  0  0  0  0
    7.6289  -12.1455   24.8761 C   0  0  0  0  0  0  0  0  0  0  0  0
    7.8634  -13.3374   27.0038 C   0  0  0  0  0  0  0  0  0  0  0  0
    8.6772  -14.4386   26.4102 C   0  0  2  0  0  0  0  0  0  0  0  0
    7.9041  -15.3604   25.6027 N   0  0  0  0  0  0  0  0  0  0  0  0
    9.3253  -15.2635   27.4925 C   0  0  0  0  0  0  0  0  0  0  0  0
   10.1425  -14.7132   28.2677 O   0  0  0  0  0  0  0  0  0  0  0  0
    9.0350  -16.5913   27.6369 O   0  0  0  0  0  0  0  0  0  0  0  0
  2  1  1  0
  3  2  1  0
  3  4  1  6
  5  3  1  0
  5  6  2  0
  7  5  1  0
  8  7  1  0
  9 10  1  0
  8  9  1  1
 11 12  2  0
 11  8  1  0
 14 13  1  1
 14 15  1  0
 16 14  1  0
 17 18  1  0
 17 16  1  1
 18 11  1  0
 19 17  1  0
 20 19  2  0
 21 19  1  0
M  END
$$$$
