SCL.pdb
     RDKit          3D

 21 20  0  0  1  0  0  0  0  0999 V2000
    8.0820  -15.7481   18.0581 O   0  0  0  0  0  0  0  0  0  0  0  0
    9.2506  -16.2663   18.5594 C   0  0  0  0  0  0  0  0  0  0  0  0
    8.9599  -17.4978   19.3877 C   0  0  2  0  0  0  0  0  0  0  0  0
    8.2333  -18.4120   18.5259 N   0  0  0  0  0  0  0  0  0  0  0  0
    8.1019  -17.1904   20.5535 C   0  0  0  0  0  0  0  0  0  0  0  0
    6.8465  -17.1756   20.4590 O   0  0  0  0  0  0  0  0  0  0  0  0
    8.6283  -16.8936   21.8468 N   0  0  0  0  0  0  0  0  0  0  0  0
    7.7776  -16.7020   23.0140 C   0  0  1  0  0  0  0  0  0  0  0  0
    7.4939  -18.0648   23.6125 C   0  0  0  0  0  0  0  0  0  0  0  0
    9.0172  -18.9544   24.0146 S   0  0  0  0  0  0  0  0  0  0  0  0
    8.5040  -15.9279   24.0724 C   0  0  0  0  0  0  0  0  0  0  0  0
    9.7553  -15.8322   24.0118 O   0  0  0  0  0  0  0  0  0  0  0  0
    5.7987  -11.8550   26.6171 C   0  0  0  0  0  0  0  0  0  0  0  0
    6.8266  -12.7216   25.9100 C   0  0  1  0  0  0  0  0  0  0  0  0
    7.8622  -11.8689   25.2086 C   0  0  0  0  0  0  0  0  0  0  0  0
    7.5325  -13.6055   26.9051 C   0  0  0  0  0  0  0  0  0  0  0  0
    8.4742  -14.5067   26.1783 C   0  0  2  0  0  0  0  0  0  0  0  0
    7.8382  -15.2966   25.1433 N   0  0  0  0  0  0  0  0  0  0  0  0
    9.1117  -15.4876   27.1289 C   0  0  0  0  0  0  0  0  0  0  0  0
    9.8668  -15.0549   28.0311 O   0  0  0  0  0  0  0  0  0  0  0  0
    8.8780  -16.8298   27.0193 O   0  0  0  0  0  0  0  0  0  0  0  0
  2  1  1  0
  3  2  1  0
  3  4  1  6
  5  3  1  0
  5  6  2  0
  7  5  1  0
  8  7  1  0
  9 10  1  0
  8  9  1  1
 11 12  2  0
 11  8  1  0
 14 13  1  1
 14 15  1  0
 16 14  1  0
 17 18  1  0
 17 16  1  1
 18 11  1  0
 19 17  1  0
 20 19  2  0
 21 19  1  0
M  END
$$$$
