SCL.pdb
     RDKit          3D

 21 20  0  0  1  0  0  0  0  0999 V2000
   10.2862  -12.9502   19.9542 O   0  0  0  0  0  0  0  0  0  0  0  0
   10.4862  -14.0187   19.1153 C   0  0  0  0  0  0  0  0  0  0  0  0
    9.1572  -14.5648   18.6433 C   0  0  2  0  0  0  0  0  0  0  0  0
    8.6238  -13.5957   17.7038 N   0  0  0  0  0  0  0  0  0  0  0  0
    8.1900  -14.7032   19.7547 C   0  0  0  0  0  0  0  0  0  0  0  0
    6.9479  -14.6647   19.5525 O   0  0  0  0  0  0  0  0  0  0  0  0
    8.5903  -14.8872   21.1124 N   0  0  0  0  0  0  0  0  0  0  0  0
    7.6604  -15.3033   22.1540 C   0  0  1  0  0  0  0  0  0  0  0  0
    7.2103  -16.7156   21.8396 C   0  0  0  0  0  0  0  0  0  0  0  0
    6.2464  -17.4325   23.1925 S   0  0  0  0  0  0  0  0  0  0  0  0
    8.3550  -15.3757   23.4804 C   0  0  0  0  0  0  0  0  0  0  0  0
    9.4153  -16.0421   23.5815 O   0  0  0  0  0  0  0  0  0  0  0  0
    5.9252  -12.3738   27.3448 C   0  0  0  0  0  0  0  0  0  0  0  0
    6.7041  -13.0159   26.2095 C   0  0  1  0  0  0  0  0  0  0  0  0
    6.8051  -12.0785   25.0251 C   0  0  0  0  0  0  0  0  0  0  0  0
    8.0985  -13.3584   26.6658 C   0  0  0  0  0  0  0  0  0  0  0  0
    8.6153  -14.4961   25.8498 C   0  0  2  0  0  0  0  0  0  0  0  0
    7.8658  -14.7225   24.6306 N   0  0  0  0  0  0  0  0  0  0  0  0
    8.5519  -15.7831   26.6319 C   0  0  0  0  0  0  0  0  0  0  0  0
    7.8270  -16.7146   26.2095 O   0  0  0  0  0  0  0  0  0  0  0  0
    9.2685  -15.9443   27.7845 O   0  0  0  0  0  0  0  0  0  0  0  0
  2  1  1  0
  3  2  1  0
  3  4  1  6
  5  3  1  0
  5  6  2  0
  7  5  1  0
  8  7  1  0
  9 10  1  0
  8  9  1  6
 11 12  2  0
 11  8  1  0
 14 13  1  1
 14 15  1  0
 16 14  1  0
 17 18  1  0
 17 16  1  1
 18 11  1  0
 19 17  1  0
 20 19  2  0
 21 19  1  0
M  END
$$$$
