SCL.pdb
     RDKit          3D

 21 20  0  0  1  0  0  0  0  0999 V2000
    9.8551  -15.2701   18.1733 O   0  0  0  0  0  0  0  0  0  0  0  0
    8.7680  -15.0940   18.9935 C   0  0  0  0  0  0  0  0  0  0  0  0
    8.2098  -16.4358   19.4119 C   0  0  2  0  0  0  0  0  0  0  0  0
    7.2370  -16.8104   18.4021 N   0  0  0  0  0  0  0  0  0  0  0  0
    7.5107  -16.3624   20.7140 C   0  0  0  0  0  0  0  0  0  0  0  0
    6.3450  -15.8958   20.8079 O   0  0  0  0  0  0  0  0  0  0  0  0
    8.0987  -16.8082   21.9359 N   0  0  0  0  0  0  0  0  0  0  0  0
    7.3933  -16.7565   23.2097 C   0  0  1  0  0  0  0  0  0  0  0  0
    7.2742  -18.1732   23.7341 C   0  0  0  0  0  0  0  0  0  0  0  0
    6.5522  -18.2193   25.3924 S   0  0  0  0  0  0  0  0  0  0  0  0
    8.1986  -16.0050   24.2264 C   0  0  0  0  0  0  0  0  0  0  0  0
    9.4370  -16.2048   24.2969 O   0  0  0  0  0  0  0  0  0  0  0  0
    5.6118  -11.7414   26.6172 C   0  0  0  0  0  0  0  0  0  0  0  0
    6.6014  -12.6280   25.8807 C   0  0  1  0  0  0  0  0  0  0  0  0
    7.4812  -11.8084   24.9610 C   0  0  0  0  0  0  0  0  0  0  0  0
    7.4841  -13.3497   26.8655 C   0  0  0  0  0  0  0  0  0  0  0  0
    8.3374  -14.3299   26.1317 C   0  0  2  0  0  0  0  0  0  0  0  0
    7.6217  -15.0749   25.1157 N   0  0  0  0  0  0  0  0  0  0  0  0
    8.9109  -15.3506   27.0810 C   0  0  0  0  0  0  0  0  0  0  0  0
    9.6335  -14.9599   28.0280 O   0  0  0  0  0  0  0  0  0  0  0  0
    8.6548  -16.6838   26.9226 O   0  0  0  0  0  0  0  0  0  0  0  0
  2  1  1  0
  3  2  1  0
  3  4  1  6
  5  3  1  0
  5  6  2  0
  7  5  1  0
  8  7  1  0
  9 10  1  0
  8  9  1  1
 11 12  2  0
 11  8  1  0
 14 13  1  1
 14 15  1  0
 16 14  1  0
 17 18  1  0
 17 16  1  1
 18 11  1  0
 19 17  1  0
 20 19  2  0
 21 19  1  0
M  END
$$$$
