SCL.pdb
     RDKit          3D

 21 20  0  0  1  0  0  0  0  0999 V2000
    6.8324  -18.1002   24.6634 O   0  0  0  0  0  0  0  0  0  0  0  0
    5.7476  -18.5864   23.9760 C   0  0  0  0  0  0  0  0  0  0  0  0
    6.0018  -18.5158   22.4868 C   0  0  2  0  0  0  0  0  0  0  0  0
    6.4912  -19.8232   22.0899 N   0  0  0  0  0  0  0  0  0  0  0  0
    7.0410  -17.5178   22.1498 C   0  0  0  0  0  0  0  0  0  0  0  0
    8.2658  -17.8074   22.1863 O   0  0  0  0  0  0  0  0  0  0  0  0
    6.7335  -16.1779   21.7655 N   0  0  0  0  0  0  0  0  0  0  0  0
    7.7640  -15.1941   21.4600 C   0  0  1  0  0  0  0  0  0  0  0  0
    7.0837  -13.9735   20.8740 C   0  0  0  0  0  0  0  0  0  0  0  0
    8.2816  -12.7570   20.2753 S   0  0  0  0  0  0  0  0  0  0  0  0
    8.4366  -14.7300   22.7167 C   0  0  0  0  0  0  0  0  0  0  0  0
    9.5247  -14.1071   22.6354 O   0  0  0  0  0  0  0  0  0  0  0  0
    5.5619  -12.5387   26.6383 C   0  0  0  0  0  0  0  0  0  0  0  0
    6.8014  -12.8158   25.8051 C   0  0  1  0  0  0  0  0  0  0  0  0
    7.8059  -11.6911   25.9394 C   0  0  0  0  0  0  0  0  0  0  0  0
    7.4558  -14.0950   26.2581 C   0  0  0  0  0  0  0  0  0  0  0  0
    8.4727  -14.5097   25.2476 C   0  0  2  0  0  0  0  0  0  0  0  0
    7.8965  -14.9642   23.9982 N   0  0  0  0  0  0  0  0  0  0  0  0
    9.3065  -15.6514   25.7702 C   0  0  0  0  0  0  0  0  0  0  0  0
    9.9290  -15.5044   26.8484 O   0  0  0  0  0  0  0  0  0  0  0  0
    9.3909  -16.8332   25.0888 O   0  0  0  0  0  0  0  0  0  0  0  0
  2  1  1  0
  3  2  1  0
  3  4  1  1
  5  3  1  0
  5  6  2  0
  7  5  1  0
  8  7  1  0
  9 10  1  0
  8  9  1  1
 11 12  2  0
 11  8  1  0
 14 13  1  1
 14 15  1  0
 16 14  1  0
 17 18  1  0
 17 16  1  1
 18 11  1  0
 19 17  1  0
 20 19  2  0
 21 19  1  0
M  END
$$$$
