SCL.pdb
     RDKit          3D

 21 20  0  0  1  0  0  0  0  0999 V2000
   10.2423  -13.3891   20.1710 O   0  0  0  0  0  0  0  0  0  0  0  0
    9.8094  -14.4546   19.4207 C   0  0  0  0  0  0  0  0  0  0  0  0
    8.2984  -14.4656   19.3571 C   0  0  2  0  0  0  0  0  0  0  0  0
    7.8981  -13.1683   18.8441 N   0  0  0  0  0  0  0  0  0  0  0  0
    7.6897  -14.6350   20.6952 C   0  0  0  0  0  0  0  0  0  0  0  0
    7.2529  -13.6503   21.3471 O   0  0  0  0  0  0  0  0  0  0  0  0
    7.5567  -15.9060   21.3311 N   0  0  0  0  0  0  0  0  0  0  0  0
    6.9845  -16.0601   22.6622 C   0  0  1  0  0  0  0  0  0  0  0  0
    6.8831  -17.5430   22.9568 C   0  0  0  0  0  0  0  0  0  0  0  0
    6.1057  -17.8599   24.5595 S   0  0  0  0  0  0  0  0  0  0  0  0
    7.9066  -15.4939   23.6996 C   0  0  0  0  0  0  0  0  0  0  0  0
    9.1388  -15.4396   23.4603 O   0  0  0  0  0  0  0  0  0  0  0  0
    5.3914  -12.2817   27.3096 C   0  0  0  0  0  0  0  0  0  0  0  0
    6.3141  -12.9026   26.2748 C   0  0  1  0  0  0  0  0  0  0  0  0
    6.8753  -11.8459   25.3474 C   0  0  0  0  0  0  0  0  0  0  0  0
    7.4643  -13.5977   26.9559 C   0  0  0  0  0  0  0  0  0  0  0  0
    8.2606  -14.3412   25.9359 C   0  0  2  0  0  0  0  0  0  0  0  0
    7.4473  -15.0151   24.9440 N   0  0  0  0  0  0  0  0  0  0  0  0
    9.1006  -15.4074   26.5912 C   0  0  0  0  0  0  0  0  0  0  0  0
    9.9310  -15.0719   27.4683 O   0  0  0  0  0  0  0  0  0  0  0  0
    8.9685  -16.7226   26.2434 O   0  0  0  0  0  0  0  0  0  0  0  0
  2  1  1  0
  3  2  1  0
  3  4  1  1
  5  3  1  0
  5  6  2  0
  7  5  1  0
  8  7  1  0
  9 10  1  0
  8  9  1  1
 11 12  2  0
 11  8  1  0
 14 13  1  1
 14 15  1  0
 16 14  1  0
 17 18  1  0
 17 16  1  1
 18 11  1  0
 19 17  1  0
 20 19  2  0
 21 19  1  0
M  END
$$$$
