SCL.pdb
     RDKit          3D

 21 20  0  0  1  0  0  0  0  0999 V2000
    6.6068  -13.8312   19.3085 O   0  0  0  0  0  0  0  0  0  0  0  0
    7.9636  -13.9503   19.1334 C   0  0  0  0  0  0  0  0  0  0  0  0
    8.3685  -15.4065   19.1862 C   0  0  2  0  0  0  0  0  0  0  0  0
    7.5570  -16.0958   18.1999 N   0  0  0  0  0  0  0  0  0  0  0  0
    8.0907  -16.0102   20.5083 C   0  0  0  0  0  0  0  0  0  0  0  0
    7.0501  -16.6882   20.7149 O   0  0  0  0  0  0  0  0  0  0  0  0
    8.9688  -15.8691   21.6249 N   0  0  0  0  0  0  0  0  0  0  0  0
    8.7181  -16.5171   22.9056 C   0  0  1  0  0  0  0  0  0  0  0  0
    9.5664  -17.7712   22.9670 C   0  0  0  0  0  0  0  0  0  0  0  0
    9.3692  -18.6415   24.5409 S   0  0  0  0  0  0  0  0  0  0  0  0
    9.1827  -15.6472   24.0346 C   0  0  0  0  0  0  0  0  0  0  0  0
   10.3687  -15.2327   24.0411 O   0  0  0  0  0  0  0  0  0  0  0  0
    5.5757  -12.3227   26.4073 C   0  0  0  0  0  0  0  0  0  0  0  0
    6.8205  -12.9510   25.8045 C   0  0  1  0  0  0  0  0  0  0  0  0
    7.7430  -11.8908   25.2417 C   0  0  0  0  0  0  0  0  0  0  0  0
    7.5715  -13.7261   26.8558 C   0  0  0  0  0  0  0  0  0  0  0  0
    8.7216  -14.4305   26.2169 C   0  0  2  0  0  0  0  0  0  0  0  0
    8.3389  -15.2703   25.0998 N   0  0  0  0  0  0  0  0  0  0  0  0
    9.4101  -15.3324   27.2091 C   0  0  0  0  0  0  0  0  0  0  0  0
    9.1577  -16.5601   27.1901 O   0  0  0  0  0  0  0  0  0  0  0  0
   10.2977  -14.8317   28.1201 O   0  0  0  0  0  0  0  0  0  0  0  0
  2  1  1  0
  3  2  1  0
  3  4  1  6
  5  3  1  0
  5  6  2  0
  7  5  1  0
  8  7  1  0
  9 10  1  0
  8  9  1  6
 11 12  2  0
 11  8  1  0
 14 13  1  1
 14 15  1  0
 16 14  1  0
 17 18  1  0
 17 16  1  1
 18 11  1  0
 19 17  1  0
 20 19  2  0
 21 19  1  0
M  END
$$$$
