SCL.pdb
     RDKit          3D

 21 20  0  0  1  0  0  0  0  0999 V2000
    6.5378  -18.2210   24.4060 O   0  0  0  0  0  0  0  0  0  0  0  0
    5.3912  -18.3537   23.6623 C   0  0  0  0  0  0  0  0  0  0  0  0
    5.7123  -18.2451   22.1884 C   0  0  2  0  0  0  0  0  0  0  0  0
    6.1087  -19.5721   21.7543 N   0  0  0  0  0  0  0  0  0  0  0  0
    6.8433  -17.3251   21.9350 C   0  0  0  0  0  0  0  0  0  0  0  0
    8.0378  -17.7106   22.0337 O   0  0  0  0  0  0  0  0  0  0  0  0
    6.6629  -15.9579   21.5667 N   0  0  0  0  0  0  0  0  0  0  0  0
    7.7822  -15.0524   21.3430 C   0  0  1  0  0  0  0  0  0  0  0  0
    7.2214  -13.7262   20.8711 C   0  0  0  0  0  0  0  0  0  0  0  0
    8.5254  -12.6051   20.3086 S   0  0  0  0  0  0  0  0  0  0  0  0
    8.4927  -14.7665   22.6316 C   0  0  0  0  0  0  0  0  0  0  0  0
    9.6959  -14.4061   22.6014 O   0  0  0  0  0  0  0  0  0  0  0  0
    5.6782  -12.4930   26.5983 C   0  0  0  0  0  0  0  0  0  0  0  0
    6.9045  -12.8118   25.7604 C   0  0  1  0  0  0  0  0  0  0  0  0
    7.9536  -11.7299   25.9037 C   0  0  0  0  0  0  0  0  0  0  0  0
    7.5074  -14.1207   26.2001 C   0  0  0  0  0  0  0  0  0  0  0  0
    8.4778  -14.5851   25.1659 C   0  0  2  0  0  0  0  0  0  0  0  0
    7.8638  -14.8856   23.8882 N   0  0  0  0  0  0  0  0  0  0  0  0
    9.1669  -15.8490   25.6129 C   0  0  0  0  0  0  0  0  0  0  0  0
    8.8707  -16.9316   25.0546 O   0  0  0  0  0  0  0  0  0  0  0  0
   10.1015  -15.8281   26.6100 O   0  0  0  0  0  0  0  0  0  0  0  0
  2  1  1  0
  3  2  1  0
  3  4  1  1
  5  3  1  0
  5  6  2  0
  7  5  1  0
  8  7  1  0
  9 10  1  0
  8  9  1  1
 11 12  2  0
 11  8  1  0
 14 13  1  1
 14 15  1  0
 16 14  1  0
 17 18  1  0
 17 16  1  1
 18 11  1  0
 19 17  1  0
 20 19  2  0
 21 19  1  0
M  END
$$$$
