SCL.pdb
     RDKit          3D

 21 20  0  0  1  0  0  0  0  0999 V2000
    8.5701  -15.4824   18.8378 O   0  0  0  0  0  0  0  0  0  0  0  0
    9.2537  -16.6617   19.0037 C   0  0  0  0  0  0  0  0  0  0  0  0
    8.3124  -17.7458   19.4788 C   0  0  2  0  0  0  0  0  0  0  0  0
    7.3519  -17.9545   18.4109 N   0  0  0  0  0  0  0  0  0  0  0  0
    7.5665  -17.3388   20.6903 C   0  0  0  0  0  0  0  0  0  0  0  0
    6.3128  -17.2239   20.6818 O   0  0  0  0  0  0  0  0  0  0  0  0
    8.2054  -17.0524   21.9343 N   0  0  0  0  0  0  0  0  0  0  0  0
    7.4680  -16.9365   23.1855 C   0  0  1  0  0  0  0  0  0  0  0  0
    7.2026  -18.3364   23.7012 C   0  0  0  0  0  0  0  0  0  0  0  0
    6.4933  -18.3181   25.3655 S   0  0  0  0  0  0  0  0  0  0  0  0
    8.3066  -16.2627   24.2294 C   0  0  0  0  0  0  0  0  0  0  0  0
    9.5246  -16.5569   24.3210 O   0  0  0  0  0  0  0  0  0  0  0  0
    5.8750  -11.9827   26.8395 C   0  0  0  0  0  0  0  0  0  0  0  0
    6.7875  -12.8790   26.0200 C   0  0  1  0  0  0  0  0  0  0  0  0
    7.6138  -12.0649   25.0473 C   0  0  0  0  0  0  0  0  0  0  0  0
    7.7255  -13.6324   26.9270 C   0  0  0  0  0  0  0  0  0  0  0  0
    8.5490  -14.5709   26.1095 C   0  0  2  0  0  0  0  0  0  0  0  0
    7.7833  -15.3041   25.1216 N   0  0  0  0  0  0  0  0  0  0  0  0
    9.2073  -15.6038   26.9879 C   0  0  0  0  0  0  0  0  0  0  0  0
    8.7156  -16.7557   27.0431 O   0  0  0  0  0  0  0  0  0  0  0  0
   10.3228  -15.3018   27.7177 O   0  0  0  0  0  0  0  0  0  0  0  0
  2  1  1  0
  3  2  1  0
  3  4  1  6
  5  3  1  0
  5  6  2  0
  7  5  1  0
  8  7  1  0
  9 10  1  0
  8  9  1  1
 11 12  2  0
 11  8  1  0
 14 13  1  1
 14 15  1  0
 16 14  1  0
 17 18  1  0
 17 16  1  1
 18 11  1  0
 19 17  1  0
 20 19  2  0
 21 19  1  0
M  END
$$$$
