SCL.pdb
     RDKit          3D

 21 20  0  0  1  0  0  0  0  0999 V2000
    8.7362  -16.7521   18.3640 O   0  0  0  0  0  0  0  0  0  0  0  0
    7.9533  -16.4100   19.4390 C   0  0  0  0  0  0  0  0  0  0  0  0
    7.2992  -17.6440   20.0191 C   0  0  2  0  0  0  0  0  0  0  0  0
    6.1119  -17.8940   19.2228 N   0  0  0  0  0  0  0  0  0  0  0  0
    6.8733  -17.4371   21.4211 C   0  0  0  0  0  0  0  0  0  0  0  0
    5.8191  -16.8081   21.7008 O   0  0  0  0  0  0  0  0  0  0  0  0
    7.6153  -17.9281   22.5373 N   0  0  0  0  0  0  0  0  0  0  0  0
    7.2391  -17.6415   23.9155 C   0  0  1  0  0  0  0  0  0  0  0  0
    7.4474  -18.9039   24.7273 C   0  0  0  0  0  0  0  0  0  0  0  0
    7.1660  -18.6239   26.4924 S   0  0  0  0  0  0  0  0  0  0  0  0
    8.1549  -16.6128   24.5072 C   0  0  0  0  0  0  0  0  0  0  0  0
    9.3787  -16.6468   24.2251 O   0  0  0  0  0  0  0  0  0  0  0  0
    5.9087  -11.9877   26.6420 C   0  0  0  0  0  0  0  0  0  0  0  0
    6.7685  -12.9881   25.8887 C   0  0  1  0  0  0  0  0  0  0  0  0
    7.5118  -12.3160   24.7540 C   0  0  0  0  0  0  0  0  0  0  0  0
    7.7791  -13.6076   26.8187 C   0  0  0  0  0  0  0  0  0  0  0  0
    8.5425  -14.6579   26.0831 C   0  0  2  0  0  0  0  0  0  0  0  0
    7.6986  -15.5991   25.3749 N   0  0  0  0  0  0  0  0  0  0  0  0
    9.3794  -15.4724   27.0361 C   0  0  0  0  0  0  0  0  0  0  0  0
   10.4051  -14.9547   27.5375 O   0  0  0  0  0  0  0  0  0  0  0  0
    9.0360  -16.7560   27.3565 O   0  0  0  0  0  0  0  0  0  0  0  0
  2  1  1  0
  3  2  1  0
  3  4  1  6
  5  3  1  0
  5  6  2  0
  7  5  1  0
  8  7  1  0
  9 10  1  0
  8  9  1  1
 11 12  2  0
 11  8  1  0
 14 13  1  1
 14 15  1  0
 16 14  1  0
 17 18  1  0
 17 16  1  1
 18 11  1  0
 19 17  1  0
 20 19  2  0
 21 19  1  0
M  END
$$$$
