SCL.pdb
     RDKit          3D

 21 20  0  0  1  0  0  0  0  0999 V2000
    7.3355  -18.7539   24.4498 O   0  0  0  0  0  0  0  0  0  0  0  0
    6.5858  -19.4725   23.5514 C   0  0  0  0  0  0  0  0  0  0  0  0
    6.9512  -19.0792   22.1376 C   0  0  2  0  0  0  0  0  0  0  0  0
    7.5078  -20.2641   21.5111 N   0  0  0  0  0  0  0  0  0  0  0  0
    7.9835  -18.0194   22.1076 C   0  0  0  0  0  0  0  0  0  0  0  0
    9.2104  -18.2962   22.1652 O   0  0  0  0  0  0  0  0  0  0  0  0
    7.6665  -16.6309   22.0125 N   0  0  0  0  0  0  0  0  0  0  0  0
    8.6895  -15.5938   21.9833 C   0  0  1  0  0  0  0  0  0  0  0  0
    8.1012  -14.3784   21.2956 C   0  0  0  0  0  0  0  0  0  0  0  0
    6.4815  -13.9398   21.9719 S   0  0  0  0  0  0  0  0  0  0  0  0
    9.0340  -15.1559   23.3749 C   0  0  0  0  0  0  0  0  0  0  0  0
    9.9804  -14.3475   23.5465 O   0  0  0  0  0  0  0  0  0  0  0  0
    6.0417  -12.6416   26.6340 C   0  0  0  0  0  0  0  0  0  0  0  0
    7.3192  -13.2398   26.0703 C   0  0  1  0  0  0  0  0  0  0  0  0
    8.5207  -12.3972   26.4418 C   0  0  0  0  0  0  0  0  0  0  0  0
    7.5257  -14.6294   26.6148 C   0  0  0  0  0  0  0  0  0  0  0  0
    8.6527  -15.2795   25.8839 C   0  0  2  0  0  0  0  0  0  0  0  0
    8.3357  -15.6158   24.5105 N   0  0  0  0  0  0  0  0  0  0  0  0
    9.0485  -16.5693   26.5559 C   0  0  0  0  0  0  0  0  0  0  0  0
    8.8691  -17.6505   25.9473 O   0  0  0  0  0  0  0  0  0  0  0  0
    9.5951  -16.5734   27.8086 O   0  0  0  0  0  0  0  0  0  0  0  0
  2  1  1  0
  3  2  1  0
  3  4  1  6
  5  3  1  0
  5  6  2  0
  7  5  1  0
  8  7  1  0
  9 10  1  0
  8  9  1  6
 11 12  2  0
 11  8  1  0
 14 13  1  1
 14 15  1  0
 16 14  1  0
 17 18  1  0
 17 16  1  1
 18 11  1  0
 19 17  1  0
 20 19  2  0
 21 19  1  0
M  END
$$$$
