SCL.pdb
     RDKit          3D

 21 20  0  0  1  0  0  0  0  0999 V2000
   11.5446  -16.5316   21.2856 O   0  0  0  0  0  0  0  0  0  0  0  0
   10.8543  -17.5112   20.6152 C   0  0  0  0  0  0  0  0  0  0  0  0
    9.3793  -17.1790   20.5841 C   0  0  2  0  0  0  0  0  0  0  0  0
    9.2361  -16.0196   19.7230 N   0  0  0  0  0  0  0  0  0  0  0  0
    8.8651  -16.8185   21.9241 C   0  0  0  0  0  0  0  0  0  0  0  0
    8.8176  -15.6205   22.3086 O   0  0  0  0  0  0  0  0  0  0  0  0
    8.3942  -17.7877   22.8603 N   0  0  0  0  0  0  0  0  0  0  0  0
    7.8740  -17.4226   24.1714 C   0  0  1  0  0  0  0  0  0  0  0  0
    7.2260  -18.6524   24.7745 C   0  0  0  0  0  0  0  0  0  0  0  0
    6.5167  -18.3101   26.4033 S   0  0  0  0  0  0  0  0  0  0  0  0
    8.9935  -17.0490   25.0956 C   0  0  0  0  0  0  0  0  0  0  0  0
   10.1188  -17.5867   24.9440 O   0  0  0  0  0  0  0  0  0  0  0  0
    7.6951  -12.8291   28.2683 C   0  0  0  0  0  0  0  0  0  0  0  0
    8.1797  -13.9403   27.3528 C   0  0  1  0  0  0  0  0  0  0  0  0
    8.3227  -13.4447   25.9296 C   0  0  0  0  0  0  0  0  0  0  0  0
    9.5202  -14.4474   27.8172 C   0  0  0  0  0  0  0  0  0  0  0  0
    9.8927  -15.6508   27.0170 C   0  0  2  0  0  0  0  0  0  0  0  0
    8.8373  -16.1116   26.1376 N   0  0  0  0  0  0  0  0  0  0  0  0
   10.2263  -16.8089   27.9224 C   0  0  0  0  0  0  0  0  0  0  0  0
    9.5088  -17.8360   27.8831 O   0  0  0  0  0  0  0  0  0  0  0  0
   11.2915  -16.7522   28.7770 O   0  0  0  0  0  0  0  0  0  0  0  0
  2  1  1  0
  3  2  1  0
  3  4  1  6
  5  3  1  0
  5  6  2  0
  7  5  1  0
  8  7  1  0
  9 10  1  0
  8  9  1  1
 11 12  2  0
 11  8  1  0
 14 13  1  1
 14 15  1  0
 16 14  1  0
 17 18  1  0
 17 16  1  1
 18 11  1  0
 19 17  1  0
 20 19  2  0
 21 19  1  0
M  END
$$$$
