SCL.pdb
     RDKit          3D

 21 20  0  0  1  0  0  0  0  0999 V2000
    7.5728  -15.2174   18.9857 O   0  0  0  0  0  0  0  0  0  0  0  0
    8.7792  -15.8635   18.8733 C   0  0  0  0  0  0  0  0  0  0  0  0
    8.6222  -17.3238   19.2339 C   0  0  2  0  0  0  0  0  0  0  0  0
    7.5700  -17.8476   18.3825 N   0  0  0  0  0  0  0  0  0  0  0  0
    8.2025  -17.5040   20.6414 C   0  0  0  0  0  0  0  0  0  0  0  0
    7.0117  -17.7824   20.9409 O   0  0  0  0  0  0  0  0  0  0  0  0
    9.1034  -17.3770   21.7413 N   0  0  0  0  0  0  0  0  0  0  0  0
    8.6792  -17.5451   23.1251 C   0  0  1  0  0  0  0  0  0  0  0  0
    9.5285  -18.6371   23.7433 C   0  0  0  0  0  0  0  0  0  0  0  0
    9.0881  -18.9356   25.4725 S   0  0  0  0  0  0  0  0  0  0  0  0
    8.9614  -16.3033   23.9159 C   0  0  0  0  0  0  0  0  0  0  0  0
   10.0948  -15.7677   23.8323 O   0  0  0  0  0  0  0  0  0  0  0  0
    7.3461  -12.1678   24.5776 C   0  0  0  0  0  0  0  0  0  0  0  0
    7.0534  -12.5006   26.0306 C   0  0  1  0  0  0  0  0  0  0  0  0
    5.7226  -11.9212   26.4607 C   0  0  0  0  0  0  0  0  0  0  0  0
    7.0062  -13.9944   26.2213 C   0  0  0  0  0  0  0  0  0  0  0  0
    8.2502  -14.5993   25.6612 C   0  0  2  0  0  0  0  0  0  0  0  0
    8.0013  -15.7043   24.7575 N   0  0  0  0  0  0  0  0  0  0  0  0
    9.1211  -15.1421   26.7652 C   0  0  0  0  0  0  0  0  0  0  0  0
    9.9258  -14.3704   27.3382 O   0  0  0  0  0  0  0  0  0  0  0  0
    9.0441  -16.4530   27.1446 O   0  0  0  0  0  0  0  0  0  0  0  0
  2  1  1  0
  3  2  1  0
  3  4  1  6
  5  3  1  0
  5  6  2  0
  7  5  1  0
  8  7  1  0
  9 10  1  0
  8  9  1  1
 11 12  2  0
 11  8  1  0
 14 13  1  6
 14 15  1  0
 16 14  1  0
 17 18  1  0
 17 16  1  1
 18 11  1  0
 19 17  1  0
 20 19  2  0
 21 19  1  0
M  END
$$$$
