SCL.pdb
     RDKit          3D

 21 20  0  0  1  0  0  0  0  0999 V2000
    7.5779  -12.7728   18.4704 O   0  0  0  0  0  0  0  0  0  0  0  0
    8.8646  -13.2467   18.3967 C   0  0  0  0  0  0  0  0  0  0  0  0
    8.8593  -14.7578   18.3366 C   0  0  2  0  0  0  0  0  0  0  0  0
    8.0951  -15.1206   17.1573 N   0  0  0  0  0  0  0  0  0  0  0  0
    8.1923  -15.3558   19.5145 C   0  0  0  0  0  0  0  0  0  0  0  0
    7.0437  -15.8646   19.4305 O   0  0  0  0  0  0  0  0  0  0  0  0
    8.7942  -15.3976   20.8081 N   0  0  0  0  0  0  0  0  0  0  0  0
    8.1453  -16.0201   21.9546 C   0  0  1  0  0  0  0  0  0  0  0  0
    8.6047  -17.4624   22.0234 C   0  0  0  0  0  0  0  0  0  0  0  0
   10.4042  -17.6030   21.8993 S   0  0  0  0  0  0  0  0  0  0  0  0
    8.6027  -15.3785   23.2298 C   0  0  0  0  0  0  0  0  0  0  0  0
    9.7815  -14.9519   23.3129 O   0  0  0  0  0  0  0  0  0  0  0  0
    7.5519  -11.9826   24.9462 C   0  0  0  0  0  0  0  0  0  0  0  0
    7.1886  -12.4775   26.3357 C   0  0  1  0  0  0  0  0  0  0  0  0
    5.9105  -11.8292   26.8236 C   0  0  0  0  0  0  0  0  0  0  0  0
    6.9886  -13.9707   26.3188 C   0  0  0  0  0  0  0  0  0  0  0  0
    8.1329  -14.6102   25.6056 C   0  0  2  0  0  0  0  0  0  0  0  0
    7.7598  -15.2314   24.3508 N   0  0  0  0  0  0  0  0  0  0  0  0
    8.7458  -15.6970   26.4512 C   0  0  0  0  0  0  0  0  0  0  0  0
    9.2795  -15.3884   27.5427 O   0  0  0  0  0  0  0  0  0  0  0  0
    8.7265  -17.0021   26.0455 O   0  0  0  0  0  0  0  0  0  0  0  0
  2  1  1  0
  3  2  1  0
  3  4  1  6
  5  3  1  0
  5  6  2  0
  7  5  1  0
  8  7  1  0
  9 10  1  0
  8  9  1  1
 11 12  2  0
 11  8  1  0
 14 13  1  6
 14 15  1  0
 16 14  1  0
 17 18  1  0
 17 16  1  1
 18 11  1  0
 19 17  1  0
 20 19  2  0
 21 19  1  0
M  END
$$$$
