SCL.pdb
     RDKit          3D

 21 20  0  0  1  0  0  0  0  0999 V2000
   10.2168  -17.9790   21.6647 O   0  0  0  0  0  0  0  0  0  0  0  0
    9.1964  -17.4664   20.9020 C   0  0  0  0  0  0  0  0  0  0  0  0
    9.2992  -15.9588   20.8421 C   0  0  2  0  0  0  0  0  0  0  0  0
   10.5737  -15.6571   20.2168 N   0  0  0  0  0  0  0  0  0  0  0  0
    9.2972  -15.3502   22.1910 C   0  0  0  0  0  0  0  0  0  0  0  0
   10.3604  -14.9444   22.7297 O   0  0  0  0  0  0  0  0  0  0  0  0
    8.1091  -15.1829   22.9642 N   0  0  0  0  0  0  0  0  0  0  0  0
    8.1307  -14.7060   24.3408 C   0  0  1  0  0  0  0  0  0  0  0  0
    6.6963  -14.5806   24.8129 C   0  0  0  0  0  0  0  0  0  0  0  0
    6.5852  -13.7529   26.4179 S   0  0  0  0  0  0  0  0  0  0  0  0
    8.7749  -15.7193   25.2381 C   0  0  0  0  0  0  0  0  0  0  0  0
    8.7651  -16.9299   24.9020 O   0  0  0  0  0  0  0  0  0  0  0  0
   10.5290  -13.6326   29.9935 C   0  0  0  0  0  0  0  0  0  0  0  0
   10.3500  -14.2127   28.6010 C   0  0  1  0  0  0  0  0  0  0  0  0
   11.4057  -13.6824   27.6544 C   0  0  0  0  0  0  0  0  0  0  0  0
   10.4624  -15.7145   28.6462 C   0  0  0  0  0  0  0  0  0  0  0  0
   10.1642  -16.2690   27.2931 C   0  0  2  0  0  0  0  0  0  0  0  0
    9.3974  -15.3700   26.4543 N   0  0  0  0  0  0  0  0  0  0  0  0
    9.3571  -17.5372   27.4044 C   0  0  0  0  0  0  0  0  0  0  0  0
    9.8740  -18.5392   27.9524 O   0  0  0  0  0  0  0  0  0  0  0  0
    8.0811  -17.6062   26.9196 O   0  0  0  0  0  0  0  0  0  0  0  0
  2  1  1  0
  3  2  1  0
  3  4  1  1
  5  3  1  0
  5  6  2  0
  7  5  1  0
  8  7  1  0
  9 10  1  0
  8  9  1  1
 11 12  2  0
 11  8  1  0
 14 13  1  1
 14 15  1  0
 16 14  1  0
 17 18  1  0
 17 16  1  1
 18 11  1  0
 19 17  1  0
 20 19  2  0
 21 19  1  0
M  END
$$$$
