WRS.pdb
     RDKit          3D

 32 33  0  0  1  0  0  0  0  0999 V2000
    7.3919  -18.4515   26.0652 N   0  0  0  0  0  0  0  0  0  0  0  0
    7.3711  -17.0993   25.5401 C   0  0  1  0  0  0  0  0  0  0  0  0
    8.3743  -16.3198   26.3361 C   0  0  0  0  0  0  0  0  0  0  0  0
    7.6529  -15.2238   27.0377 C   0  0  0  0  0  0  0  0  0  0  0  0
    6.8392  -15.3154   28.1595 C   0  0  0  0  0  0  0  0  0  0  0  0
    6.4144  -14.0731   28.4176 N   0  0  0  0  0  0  0  0  0  0  0  0
    6.9118  -13.2038   27.5256 C   0  0  0  0  0  0  0  0  0  0  0  0
    6.7925  -11.8292   27.3417 C   0  0  0  0  0  0  0  0  0  0  0  0
    7.4306  -11.1872   26.3215 C   0  0  0  0  0  0  0  0  0  0  0  0
    8.2251  -11.8910   25.4276 C   0  0  0  0  0  0  0  0  0  0  0  0
    8.3520  -13.2444   25.5957 C   0  0  0  0  0  0  0  0  0  0  0  0
    7.7140  -13.9089   26.6214 C   0  0  0  0  0  0  0  0  0  0  0  0
    7.6607  -17.1522   24.0992 C   0  0  0  0  0  0  0  0  0  0  0  0
    8.3904  -18.0846   23.6826 O   0  0  0  0  0  0  0  0  0  0  0  0
    9.7756  -14.5014   17.5231 N   0  0  0  0  0  0  0  0  0  0  0  0
    8.7094  -13.6251   17.1070 C   0  0  0  0  0  0  0  0  0  0  0  0
    9.0128  -12.5898   16.4116 N   0  0  0  0  0  0  0  0  0  0  0  0
    7.3600  -13.8938   17.4531 N   0  0  0  0  0  0  0  0  0  0  0  0
    6.9454  -13.7921   18.8374 C   0  0  0  0  0  0  0  0  0  0  0  0
    7.7946  -14.7140   19.7152 C   0  0  0  0  0  0  0  0  0  0  0  0
    7.1812  -14.9926   21.0268 C   0  0  0  0  0  0  0  0  0  0  0  0
    7.8590  -16.0175   21.8901 C   0  0  2  0  0  0  0  0  0  0  0  0
    7.1816  -16.2365   23.1445 N   0  0  0  0  0  0  0  0  0  0  0  0
    9.2747  -15.5940   22.1070 C   0  0  0  0  0  0  0  0  0  0  0  0
    9.5693  -14.6779   22.8830 O   0  0  0  0  0  0  0  0  0  0  0  0
    8.3097  -11.9038   16.0776 O   0  0  0  0  0  0  0  0  0  0  0  0
   12.1959  -18.0153   22.3072 C   0  0  0  0  0  0  0  0  0  0  0  0
   12.4449  -16.6575   22.5195 C   0  0  1  0  0  0  0  0  0  0  0  0
   11.6910  -15.9088   21.4458 N   0  0  0  0  0  0  0  0  0  0  0  0
   10.2869  -16.2607   21.4062 C   0  0  0  0  0  0  0  0  0  0  0  0
   12.3306  -16.0213   20.1239 O   0  0  0  0  0  0  0  0  0  0  0  0
   11.7055  -16.4485   19.1288 O   0  0  0  0  0  0  0  0  0  0  0  0
  2  1  1  1
  2  3  1  0
  4  5  2  0
  4  3  1  0
  6  5  1  0
  7 12  2  0
  7  6  1  0
  8  7  1  0
  9 10  1  0
  9  8  2  0
 10 11  2  0
 11 12  1  0
 12  4  1  0
 13  2  1  0
 13 14  2  0
 16 17  2  0
 16 15  1  0
 18 16  1  0
 19 18  1  0
 20 21  1  0
 20 19  1  0
 22 21  1  1
 22 23  1  0
 23 13  1  0
 24 22  1  0
 25 24  2  0
 26 27  1  0
 28 27  1  1
 28 29  1  0
 28 30  1  0
 29 24  1  0
 30 32  1  0
 31 30  2  0
M  END
$$$$
