WRS.pdb
     RDKit          3D

 32 33  0  0  1  0  0  0  0  0999 V2000
    6.9792  -18.4077   25.4776 N   0  0  0  0  0  0  0  0  0  0  0  0
    7.3636  -17.1204   24.9300 C   0  0  1  0  0  0  0  0  0  0  0  0
    7.8050  -16.2805   26.0907 C   0  0  0  0  0  0  0  0  0  0  0  0
    6.8037  -15.1964   26.2806 C   0  0  0  0  0  0  0  0  0  0  0  0
    5.4750  -15.3164   26.6669 C   0  0  0  0  0  0  0  0  0  0  0  0
    4.9789  -14.0742   26.6963 N   0  0  0  0  0  0  0  0  0  0  0  0
    5.9154  -13.1781   26.3518 C   0  0  0  0  0  0  0  0  0  0  0  0
    5.9307  -11.7919   26.2264 C   0  0  0  0  0  0  0  0  0  0  0  0
    7.0573  -11.1212   25.8507 C   0  0  0  0  0  0  0  0  0  0  0  0
    8.2332  -11.8063   25.5795 C   0  0  0  0  0  0  0  0  0  0  0  0
    8.2335  -13.1709   25.6985 C   0  0  0  0  0  0  0  0  0  0  0  0
    7.1037  -13.8643   26.0771 C   0  0  0  0  0  0  0  0  0  0  0  0
    8.4066  -17.3358   23.9157 C   0  0  0  0  0  0  0  0  0  0  0  0
    9.2867  -18.1981   24.1551 O   0  0  0  0  0  0  0  0  0  0  0  0
    7.8868  -13.8660   16.1702 N   0  0  0  0  0  0  0  0  0  0  0  0
    7.9936  -13.3440   17.5096 C   0  0  0  0  0  0  0  0  0  0  0  0
    7.9235  -12.0726   17.6716 N   0  0  0  0  0  0  0  0  0  0  0  0
    8.1712  -14.2061   18.6223 N   0  0  0  0  0  0  0  0  0  0  0  0
    8.0766  -15.6396   18.4355 C   0  0  0  0  0  0  0  0  0  0  0  0
    8.1632  -16.3577   19.7840 C   0  0  0  0  0  0  0  0  0  0  0  0
    9.4392  -16.1236   20.4847 C   0  0  0  0  0  0  0  0  0  0  0  0
    9.6247  -16.8116   21.8067 C   0  0  2  0  0  0  0  0  0  0  0  0
    8.4969  -16.6494   22.6910 N   0  0  0  0  0  0  0  0  0  0  0  0
   10.8810  -16.3031   22.4341 C   0  0  0  0  0  0  0  0  0  0  0  0
   11.0999  -15.0936   22.5671 O   0  0  0  0  0  0  0  0  0  0  0  0
    8.0164  -11.6118   18.5965 O   0  0  0  0  0  0  0  0  0  0  0  0
   13.2667  -19.0238   24.3595 C   0  0  0  0  0  0  0  0  0  0  0  0
   13.4522  -17.6759   24.6750 C   0  0  1  0  0  0  0  0  0  0  0  0
   13.1271  -16.8928   23.4249 N   0  0  0  0  0  0  0  0  0  0  0  0
   11.8291  -17.2317   22.8800 C   0  0  0  0  0  0  0  0  0  0  0  0
   14.1945  -16.9755   22.4133 O   0  0  0  0  0  0  0  0  0  0  0  0
   15.3711  -16.6430   22.6750 O   0  0  0  0  0  0  0  0  0  0  0  0
  2  1  1  1
  2  3  1  0
  4  5  2  0
  4  3  1  0
  6  5  1  0
  7 12  2  0
  7  6  1  0
  8  7  1  0
  9 10  1  0
  9  8  2  0
 10 11  2  0
 11 12  1  0
 12  4  1  0
 13  2  1  0
 13 14  2  0
 16 17  2  0
 16 15  1  0
 18 16  1  0
 19 18  1  0
 20 21  1  0
 20 19  1  0
 22 21  1  6
 22 23  1  0
 23 13  1  0
 24 22  1  0
 25 24  2  0
 26 27  1  0
 28 27  1  1
 28 29  1  0
 28 30  1  0
 29 24  1  0
 30 32  1  0
 31 30  2  0
M  END
$$$$
