WRS.pdb
     RDKit          3D

 32 33  0  0  1  0  0  0  0  0999 V2000
    6.4315  -18.6159   24.8513 N   0  0  0  0  0  0  0  0  0  0  0  0
    6.6579  -17.2012   24.6230 C   0  0  1  0  0  0  0  0  0  0  0  0
    7.3506  -16.6798   25.8461 C   0  0  0  0  0  0  0  0  0  0  0  0
    6.7346  -15.3728   26.2011 C   0  0  0  0  0  0  0  0  0  0  0  0
    5.4226  -15.1196   26.5801 C   0  0  0  0  0  0  0  0  0  0  0  0
    5.3413  -13.8012   26.7938 N   0  0  0  0  0  0  0  0  0  0  0  0
    6.5237  -13.2082   26.5723 C   0  0  0  0  0  0  0  0  0  0  0  0
    6.9783  -11.8948   26.6481 C   0  0  0  0  0  0  0  0  0  0  0  0
    8.2712  -11.5689   26.3612 C   0  0  0  0  0  0  0  0  0  0  0  0
    9.1811  -12.5454   25.9815 C   0  0  0  0  0  0  0  0  0  0  0  0
    8.7483  -13.8426   25.9023 C   0  0  0  0  0  0  0  0  0  0  0  0
    7.4451  -14.1892   26.1888 C   0  0  0  0  0  0  0  0  0  0  0  0
    7.4335  -17.0453   23.3832 C   0  0  0  0  0  0  0  0  0  0  0  0
    8.2872  -17.9247   23.1123 O   0  0  0  0  0  0  0  0  0  0  0  0
    9.7361  -14.4475   16.4229 N   0  0  0  0  0  0  0  0  0  0  0  0
    8.3187  -14.2082   16.3152 C   0  0  0  0  0  0  0  0  0  0  0  0
    7.7218  -14.5785   15.2409 N   0  0  0  0  0  0  0  0  0  0  0  0
    7.5975  -13.5815   17.3640 N   0  0  0  0  0  0  0  0  0  0  0  0
    8.3054  -13.1271   18.5434 C   0  0  0  0  0  0  0  0  0  0  0  0
    8.7589  -14.3227   19.3841 C   0  0  0  0  0  0  0  0  0  0  0  0
    7.8297  -14.6447   20.4827 C   0  0  0  0  0  0  0  0  0  0  0  0
    8.1734  -15.8303   21.3380 C   0  0  2  0  0  0  0  0  0  0  0  0
    7.2937  -15.9837   22.4707 N   0  0  0  0  0  0  0  0  0  0  0  0
    9.5969  -15.7056   21.7721 C   0  0  0  0  0  0  0  0  0  0  0  0
   10.0401  -14.6599   22.2605 O   0  0  0  0  0  0  0  0  0  0  0  0
    6.6981  -14.4862   15.0992 O   0  0  0  0  0  0  0  0  0  0  0  0
   11.8981  -19.0935   21.4008 C   0  0  0  0  0  0  0  0  0  0  0  0
   12.3193  -18.2015   22.3895 C   0  0  1  0  0  0  0  0  0  0  0  0
   11.8489  -16.8314   21.9615 N   0  0  0  0  0  0  0  0  0  0  0  0
   10.4427  -16.8104   21.6167 C   0  0  0  0  0  0  0  0  0  0  0  0
   12.6907  -16.2511   20.9012 O   0  0  0  0  0  0  0  0  0  0  0  0
   13.9085  -16.0309   21.0798 O   0  0  0  0  0  0  0  0  0  0  0  0
  2  1  1  1
  2  3  1  0
  4  5  2  0
  4  3  1  0
  6  5  1  0
  7 12  2  0
  7  6  1  0
  8  7  1  0
  9 10  1  0
  9  8  2  0
 10 11  2  0
 11 12  1  0
 12  4  1  0
 13  2  1  0
 13 14  2  0
 16 17  2  0
 16 15  1  0
 18 16  1  0
 19 18  1  0
 20 21  1  0
 20 19  1  0
 22 21  1  1
 22 23  1  0
 23 13  1  0
 24 22  1  0
 25 24  2  0
 26 27  1  0
 28 27  1  1
 28 29  1  0
 28 30  1  0
 29 24  1  0
 30 32  1  0
 31 30  2  0
M  END
$$$$
