WRS.pdb
     RDKit          3D

 32 33  0  0  1  0  0  0  0  0999 V2000
    6.8521  -17.3710   25.2136 N   0  0  0  0  0  0  0  0  0  0  0  0
    7.2368  -16.0455   24.7666 C   0  0  1  0  0  0  0  0  0  0  0  0
    8.5017  -15.7028   25.4947 C   0  0  0  0  0  0  0  0  0  0  0  0
    8.1514  -14.8009   26.6251 C   0  0  0  0  0  0  0  0  0  0  0  0
    8.4758  -14.9455   27.9678 C   0  0  0  0  0  0  0  0  0  0  0  0
    7.9415  -13.8934   28.5986 N   0  0  0  0  0  0  0  0  0  0  0  0
    7.2998  -13.0941   27.7337 C   0  0  0  0  0  0  0  0  0  0  0  0
    6.5933  -11.9012   27.8577 C   0  0  0  0  0  0  0  0  0  0  0  0
    6.0309  -11.2885   26.7768 C   0  0  0  0  0  0  0  0  0  0  0  0
    6.1468  -11.8406   25.5089 C   0  0  0  0  0  0  0  0  0  0  0  0
    6.8392  -13.0144   25.3711 C   0  0  0  0  0  0  0  0  0  0  0  0
    7.4138  -13.6467   26.4531 C   0  0  0  0  0  0  0  0  0  0  0  0
    7.3757  -16.0672   23.3026 C   0  0  0  0  0  0  0  0  0  0  0  0
    7.5518  -17.1793   22.7477 O   0  0  0  0  0  0  0  0  0  0  0  0
    7.7067  -15.8600   15.8406 N   0  0  0  0  0  0  0  0  0  0  0  0
    8.5446  -14.7483   16.2145 C   0  0  0  0  0  0  0  0  0  0  0  0
    9.8137  -14.8690   16.0642 N   0  0  0  0  0  0  0  0  0  0  0  0
    7.9885  -13.5512   16.7345 N   0  0  0  0  0  0  0  0  0  0  0  0
    7.3841  -13.5592   18.0510 C   0  0  0  0  0  0  0  0  0  0  0  0
    8.4659  -13.5144   19.1323 C   0  0  0  0  0  0  0  0  0  0  0  0
    7.9219  -13.5928   20.5005 C   0  0  0  0  0  0  0  0  0  0  0  0
    7.8312  -14.9585   21.1185 C   0  0  2  0  0  0  0  0  0  0  0  0
    7.3258  -14.9348   22.4692 N   0  0  0  0  0  0  0  0  0  0  0  0
    9.1795  -15.5977   21.0570 C   0  0  0  0  0  0  0  0  0  0  0  0
   10.1273  -15.1867   21.7361 O   0  0  0  0  0  0  0  0  0  0  0  0
   10.4885  -14.1203   16.3101 O   0  0  0  0  0  0  0  0  0  0  0  0
    9.4463  -19.0483   18.8448 C   0  0  0  0  0  0  0  0  0  0  0  0
   10.3884  -18.9027   19.8657 C   0  0  1  0  0  0  0  0  0  0  0  0
   10.6048  -17.4183   20.0428 N   0  0  0  0  0  0  0  0  0  0  0  0
    9.3625  -16.6919   20.2029 C   0  0  0  0  0  0  0  0  0  0  0  0
   11.4548  -16.8417   18.9872 O   0  0  0  0  0  0  0  0  0  0  0  0
   11.0324  -15.9466   18.2232 O   0  0  0  0  0  0  0  0  0  0  0  0
  2  1  1  1
  2  3  1  0
  4  5  2  0
  4  3  1  0
  6  5  1  0
  7 12  2  0
  7  6  1  0
  8  7  1  0
  9 10  1  0
  9  8  2  0
 10 11  2  0
 11 12  1  0
 12  4  1  0
 13  2  1  0
 13 14  2  0
 16 17  2  0
 16 15  1  0
 18 16  1  0
 19 18  1  0
 20 21  1  0
 20 19  1  0
 22 21  1  1
 22 23  1  0
 23 13  1  0
 24 22  1  0
 25 24  2  0
 26 27  1  0
 28 27  1  1
 28 29  1  0
 28 30  1  0
 29 24  1  0
 30 32  1  0
 31 30  2  0
M  END
$$$$
