WRS.pdb
     RDKit          3D

 32 33  0  0  1  0  0  0  0  0999 V2000
    6.8398  -18.0646   24.5684 N   0  0  0  0  0  0  0  0  0  0  0  0
    7.4525  -16.8990   23.9596 C   0  0  1  0  0  0  0  0  0  0  0  0
    8.2983  -16.2615   25.0205 C   0  0  0  0  0  0  0  0  0  0  0  0
    7.4373  -15.3276   25.7953 C   0  0  0  0  0  0  0  0  0  0  0  0
    6.3288  -15.6324   26.5747 C   0  0  0  0  0  0  0  0  0  0  0  0
    5.8853  -14.4702   27.0675 N   0  0  0  0  0  0  0  0  0  0  0  0
    6.6481  -13.4509   26.6455 C   0  0  0  0  0  0  0  0  0  0  0  0
    6.6299  -12.0751   26.8560 C   0  0  0  0  0  0  0  0  0  0  0  0
    7.5576  -11.2532   26.2867 C   0  0  0  0  0  0  0  0  0  0  0  0
    8.5568  -11.7681   25.4730 C   0  0  0  0  0  0  0  0  0  0  0  0
    8.5875  -13.1203   25.2565 C   0  0  0  0  0  0  0  0  0  0  0  0
    7.6576  -13.9651   25.8240 C   0  0  0  0  0  0  0  0  0  0  0  0
    8.2059  -17.3321   22.7731 C   0  0  0  0  0  0  0  0  0  0  0  0
    8.6709  -18.4980   22.7683 O   0  0  0  0  0  0  0  0  0  0  0  0
    7.4437  -14.5965   14.7550 N   0  0  0  0  0  0  0  0  0  0  0  0
    8.0175  -14.0616   15.9643 C   0  0  0  0  0  0  0  0  0  0  0  0
    7.9813  -12.7908   16.1414 N   0  0  0  0  0  0  0  0  0  0  0  0
    8.6072  -14.9107   16.9359 N   0  0  0  0  0  0  0  0  0  0  0  0
    8.4718  -16.3470   16.8037 C   0  0  0  0  0  0  0  0  0  0  0  0
    8.2949  -16.9926   18.1798 C   0  0  0  0  0  0  0  0  0  0  0  0
    8.9894  -16.2627   19.2563 C   0  0  0  0  0  0  0  0  0  0  0  0
    9.2452  -17.0138   20.5313 C   0  0  2  0  0  0  0  0  0  0  0  0
    8.4477  -16.5400   21.6358 N   0  0  0  0  0  0  0  0  0  0  0  0
   10.7034  -16.9345   20.8444 C   0  0  0  0  0  0  0  0  0  0  0  0
   11.5463  -16.7048   19.9697 O   0  0  0  0  0  0  0  0  0  0  0  0
    8.4668  -12.3122   16.9236 O   0  0  0  0  0  0  0  0  0  0  0  0
   13.9936  -15.0287   22.8935 C   0  0  0  0  0  0  0  0  0  0  0  0
   12.7049  -15.2657   22.4098 C   0  0  2  0  0  0  0  0  0  0  0  0
   12.3932  -16.7135   22.7072 N   0  0  0  0  0  0  0  0  0  0  0  0
   11.1144  -17.1274   22.1688 C   0  0  0  0  0  0  0  0  0  0  0  0
   12.5261  -17.0373   24.1379 O   0  0  0  0  0  0  0  0  0  0  0  0
   11.5555  -17.4538   24.8073 O   0  0  0  0  0  0  0  0  0  0  0  0
  2  1  1  1
  2  3  1  0
  4  5  2  0
  4  3  1  0
  6  5  1  0
  7 12  2  0
  7  6  1  0
  8  7  1  0
  9 10  1  0
  9  8  2  0
 10 11  2  0
 11 12  1  0
 12  4  1  0
 13  2  1  0
 13 14  2  0
 16 17  2  0
 16 15  1  0
 18 16  1  0
 19 18  1  0
 20 21  1  0
 20 19  1  0
 22 21  1  6
 22 23  1  0
 23 13  1  0
 24 22  1  0
 25 24  2  0
 26 27  1  0
 28 27  1  6
 28 29  1  0
 28 30  1  0
 29 24  1  0
 30 32  1  0
 31 30  2  0
M  END
$$$$
