WRS.pdb
     RDKit          3D

 32 33  0  0  1  0  0  0  0  0999 V2000
    7.1833  -17.4202   25.6401 N   0  0  0  0  0  0  0  0  0  0  0  0
    7.5267  -16.1086   25.1239 C   0  0  1  0  0  0  0  0  0  0  0  0
    8.7137  -15.6404   25.9109 C   0  0  0  0  0  0  0  0  0  0  0  0
    8.2384  -14.6488   26.9133 C   0  0  0  0  0  0  0  0  0  0  0  0
    8.4667  -14.6398   28.2833 C   0  0  0  0  0  0  0  0  0  0  0  0
    7.8391  -13.5592   28.7614 N   0  0  0  0  0  0  0  0  0  0  0  0
    7.2289  -12.8863   27.7747 C   0  0  0  0  0  0  0  0  0  0  0  0
    6.4615  -11.7261   27.7233 C   0  0  0  0  0  0  0  0  0  0  0  0
    5.9551  -11.2563   26.5472 C   0  0  0  0  0  0  0  0  0  0  0  0
    6.1914  -11.9267   25.3554 C   0  0  0  0  0  0  0  0  0  0  0  0
    6.9448  -13.0700   25.3902 C   0  0  0  0  0  0  0  0  0  0  0  0
    7.4642  -13.5586   26.5701 C   0  0  0  0  0  0  0  0  0  0  0  0
    7.7743  -16.2244   23.6788 C   0  0  0  0  0  0  0  0  0  0  0  0
    8.0864  -17.3531   23.2269 O   0  0  0  0  0  0  0  0  0  0  0  0
    9.5924  -14.4585   16.3872 N   0  0  0  0  0  0  0  0  0  0  0  0
    8.1551  -14.5190   16.2953 C   0  0  0  0  0  0  0  0  0  0  0  0
    7.6374  -15.2122   15.3473 N   0  0  0  0  0  0  0  0  0  0  0  0
    7.3300  -13.8337   17.2239 N   0  0  0  0  0  0  0  0  0  0  0  0
    7.9413  -13.0653   18.2891 C   0  0  0  0  0  0  0  0  0  0  0  0
    8.6511  -13.9957   19.2751 C   0  0  0  0  0  0  0  0  0  0  0  0
    8.0118  -14.0294   20.6034 C   0  0  0  0  0  0  0  0  0  0  0  0
    8.1773  -15.2882   21.4055 C   0  0  2  0  0  0  0  0  0  0  0  0
    7.6878  -15.1653   22.7567 N   0  0  0  0  0  0  0  0  0  0  0  0
    9.6192  -15.6770   21.3862 C   0  0  0  0  0  0  0  0  0  0  0  0
   10.4865  -14.9921   21.9402 O   0  0  0  0  0  0  0  0  0  0  0  0
    6.6155  -15.3583   15.2431 O   0  0  0  0  0  0  0  0  0  0  0  0
   10.3990  -19.3515   19.7974 C   0  0  0  0  0  0  0  0  0  0  0  0
   11.3191  -18.9197   20.7553 C   0  0  1  0  0  0  0  0  0  0  0  0
   11.3219  -17.4102   20.6994 N   0  0  0  0  0  0  0  0  0  0  0  0
    9.9859  -16.8520   20.7191 C   0  0  0  0  0  0  0  0  0  0  0  0
   12.1270  -16.8880   19.5821 O   0  0  0  0  0  0  0  0  0  0  0  0
   13.3763  -16.9369   19.5970 O   0  0  0  0  0  0  0  0  0  0  0  0
  2  1  1  1
  2  3  1  0
  4  5  2  0
  4  3  1  0
  6  5  1  0
  7 12  2  0
  7  6  1  0
  8  7  1  0
  9 10  1  0
  9  8  2  0
 10 11  2  0
 11 12  1  0
 12  4  1  0
 13  2  1  0
 13 14  2  0
 16 17  2  0
 16 15  1  0
 18 16  1  0
 19 18  1  0
 20 21  1  0
 20 19  1  0
 22 21  1  1
 22 23  1  0
 23 13  1  0
 24 22  1  0
 25 24  2  0
 26 27  1  0
 28 27  1  1
 28 29  1  0
 28 30  1  0
 29 24  1  0
 30 32  1  0
 31 30  2  0
M  END
$$$$
