WRS.pdb
     RDKit          3D

 32 33  0  0  1  0  0  0  0  0999 V2000
    7.1976  -18.1522   25.5680 N   0  0  0  0  0  0  0  0  0  0  0  0
    7.6338  -17.0069   24.7917 C   0  0  1  0  0  0  0  0  0  0  0  0
    8.2430  -16.0424   25.7644 C   0  0  0  0  0  0  0  0  0  0  0  0
    7.1947  -15.0625   26.1577 C   0  0  0  0  0  0  0  0  0  0  0  0
    5.9655  -15.3165   26.7525 C   0  0  0  0  0  0  0  0  0  0  0  0
    5.3721  -14.1277   26.9105 N   0  0  0  0  0  0  0  0  0  0  0  0
    6.1539  -13.1395   26.4511 C   0  0  0  0  0  0  0  0  0  0  0  0
    6.0239  -11.7555   26.3781 C   0  0  0  0  0  0  0  0  0  0  0  0
    7.0071  -10.9728   25.8481 C   0  0  0  0  0  0  0  0  0  0  0  0
    8.1775  -11.5374   25.3612 C   0  0  0  0  0  0  0  0  0  0  0  0
    8.3199  -12.8981   25.4262 C   0  0  0  0  0  0  0  0  0  0  0  0
    7.3360  -13.7037   25.9587 C   0  0  0  0  0  0  0  0  0  0  0  0
    8.5615  -17.4732   23.7501 C   0  0  0  0  0  0  0  0  0  0  0  0
    9.4000  -18.3529   24.0642 O   0  0  0  0  0  0  0  0  0  0  0  0
    7.7137  -14.7354   15.6185 N   0  0  0  0  0  0  0  0  0  0  0  0
    8.0308  -13.7475   16.6193 C   0  0  0  0  0  0  0  0  0  0  0  0
    7.9248  -12.5083   16.3020 N   0  0  0  0  0  0  0  0  0  0  0  0
    8.4488  -14.1277   17.9206 N   0  0  0  0  0  0  0  0  0  0  0  0
    8.6345  -15.5312   18.2279 C   0  0  0  0  0  0  0  0  0  0  0  0
    9.0134  -15.7068   19.7001 C   0  0  0  0  0  0  0  0  0  0  0  0
    9.2767  -17.1103   20.0676 C   0  0  0  0  0  0  0  0  0  0  0  0
    9.6303  -17.3825   21.5015 C   0  0  2  0  0  0  0  0  0  0  0  0
    8.5838  -17.0104   22.4217 N   0  0  0  0  0  0  0  0  0  0  0  0
   10.9060  -16.6736   21.8184 C   0  0  0  0  0  0  0  0  0  0  0  0
   11.0226  -15.4502   21.6842 O   0  0  0  0  0  0  0  0  0  0  0  0
    8.1828  -11.7339   16.9425 O   0  0  0  0  0  0  0  0  0  0  0  0
   13.9236  -18.9568   23.4816 C   0  0  0  0  0  0  0  0  0  0  0  0
   13.9179  -17.5974   23.8020 C   0  0  1  0  0  0  0  0  0  0  0  0
   13.2876  -16.8819   22.6305 N   0  0  0  0  0  0  0  0  0  0  0  0
   11.9926  -17.4265   22.2796 C   0  0  0  0  0  0  0  0  0  0  0  0
   14.1893  -16.7973   21.4689 O   0  0  0  0  0  0  0  0  0  0  0  0
   13.8562  -17.2411   20.3484 O   0  0  0  0  0  0  0  0  0  0  0  0
  2  1  1  1
  2  3  1  0
  4  5  2  0
  4  3  1  0
  6  5  1  0
  7 12  2  0
  7  6  1  0
  8  7  1  0
  9 10  1  0
  9  8  2  0
 10 11  2  0
 11 12  1  0
 12  4  1  0
 13  2  1  0
 13 14  2  0
 16 17  2  0
 16 15  1  0
 18 16  1  0
 19 18  1  0
 20 21  1  0
 20 19  1  0
 22 21  1  6
 22 23  1  0
 23 13  1  0
 24 22  1  0
 25 24  2  0
 26 27  1  0
 28 27  1  1
 28 29  1  0
 28 30  1  0
 29 24  1  0
 30 32  1  0
 31 30  2  0
M  END
$$$$
