WRS.pdb
     RDKit          3D

 32 33  0  0  1  0  0  0  0  0999 V2000
    6.7096  -16.6634   23.6582 N   0  0  0  0  0  0  0  0  0  0  0  0
    7.9981  -16.1390   24.0696 C   0  0  1  0  0  0  0  0  0  0  0  0
    7.9637  -16.0551   25.5661 C   0  0  0  0  0  0  0  0  0  0  0  0
    7.0569  -14.9373   25.9430 C   0  0  0  0  0  0  0  0  0  0  0  0
    5.8473  -15.0080   26.6220 C   0  0  0  0  0  0  0  0  0  0  0  0
    5.3999  -13.7512   26.7239 N   0  0  0  0  0  0  0  0  0  0  0  0
    6.2553  -12.8923   26.1500 C   0  0  0  0  0  0  0  0  0  0  0  0
    6.2744  -11.5107   25.9817 C   0  0  0  0  0  0  0  0  0  0  0  0
    7.3025  -10.8834   25.3416 C   0  0  0  0  0  0  0  0  0  0  0  0
    8.3703  -11.6098   24.8339 C   0  0  0  0  0  0  0  0  0  0  0  0
    8.3655  -12.9704   24.9918 C   0  0  0  0  0  0  0  0  0  0  0  0
    7.3343  -13.6202   25.6362 C   0  0  0  0  0  0  0  0  0  0  0  0
    9.0517  -17.0200   23.5434 C   0  0  0  0  0  0  0  0  0  0  0  0
    9.0786  -18.2075   23.9492 O   0  0  0  0  0  0  0  0  0  0  0  0
   12.4648  -20.0800   16.9917 N   0  0  0  0  0  0  0  0  0  0  0  0
   13.7805  -19.8435   17.5309 C   0  0  0  0  0  0  0  0  0  0  0  0
   14.7147  -20.6721   17.2339 N   0  0  0  0  0  0  0  0  0  0  0  0
   14.0423  -18.7278   18.3672 N   0  0  0  0  0  0  0  0  0  0  0  0
   12.9445  -17.8855   18.7962 C   0  0  0  0  0  0  0  0  0  0  0  0
   12.6202  -18.1449   20.2690 C   0  0  0  0  0  0  0  0  0  0  0  0
   11.5536  -17.2706   20.7906 C   0  0  0  0  0  0  0  0  0  0  0  0
   11.0769  -17.5404   22.1889 C   0  0  2  0  0  0  0  0  0  0  0  0
   10.0370  -16.6363   22.6154 N   0  0  0  0  0  0  0  0  0  0  0  0
   12.2515  -17.4859   23.1096 C   0  0  0  0  0  0  0  0  0  0  0  0
   12.9268  -16.4592   23.2446 O   0  0  0  0  0  0  0  0  0  0  0  0
   15.6881  -20.5789   17.5806 O   0  0  0  0  0  0  0  0  0  0  0  0
   12.9569  -20.9177   25.1164 C   0  0  0  0  0  0  0  0  0  0  0  0
   13.5291  -19.8249   25.7714 C   0  0  1  0  0  0  0  0  0  0  0  0
   13.7208  -18.7498   24.7278 N   0  0  0  0  0  0  0  0  0  0  0  0
   12.5870  -18.6359   23.8343 C   0  0  0  0  0  0  0  0  0  0  0  0
   14.9925  -18.8913   23.9983 O   0  0  0  0  0  0  0  0  0  0  0  0
   15.0256  -18.9745   22.7512 O   0  0  0  0  0  0  0  0  0  0  0  0
  2  1  1  1
  2  3  1  0
  4  5  2  0
  4  3  1  0
  6  5  1  0
  7 12  2  0
  7  6  1  0
  8  7  1  0
  9 10  1  0
  9  8  2  0
 10 11  2  0
 11 12  1  0
 12  4  1  0
 13  2  1  0
 13 14  2  0
 16 17  2  0
 16 15  1  0
 18 16  1  0
 19 18  1  0
 20 21  1  0
 20 19  1  0
 22 21  1  6
 22 23  1  0
 23 13  1  0
 24 22  1  0
 25 24  2  0
 26 27  1  0
 28 27  1  1
 28 29  1  0
 28 30  1  0
 29 24  1  0
 30 32  1  0
 31 30  2  0
M  END
$$$$
