WRS.pdb
     RDKit          3D

 32 33  0  0  1  0  0  0  0  0999 V2000
    6.7506  -18.0931   25.4394 N   0  0  0  0  0  0  0  0  0  0  0  0
    7.3524  -17.0173   24.6744 C   0  0  1  0  0  0  0  0  0  0  0  0
    8.0209  -16.1138   25.6666 C   0  0  0  0  0  0  0  0  0  0  0  0
    7.0640  -15.0303   26.0191 C   0  0  0  0  0  0  0  0  0  0  0  0
    5.7414  -15.1546   26.4244 C   0  0  0  0  0  0  0  0  0  0  0  0
    5.2911  -13.9105   26.6234 N   0  0  0  0  0  0  0  0  0  0  0  0
    6.2508  -13.0092   26.3678 C   0  0  0  0  0  0  0  0  0  0  0  0
    6.3130  -11.6195   26.4170 C   0  0  0  0  0  0  0  0  0  0  0  0
    7.4538  -10.9439   26.0970 C   0  0  0  0  0  0  0  0  0  0  0  0
    8.5975  -11.6274   25.7091 C   0  0  0  0  0  0  0  0  0  0  0  0
    8.5515  -12.9953   25.6559 C   0  0  0  0  0  0  0  0  0  0  0  0
    7.4068  -13.6937   25.9760 C   0  0  0  0  0  0  0  0  0  0  0  0
    8.2694  -17.6026   23.6848 C   0  0  0  0  0  0  0  0  0  0  0  0
    8.9926  -18.5607   24.0517 O   0  0  0  0  0  0  0  0  0  0  0  0
    6.8550  -13.5113   18.0480 N   0  0  0  0  0  0  0  0  0  0  0  0
    8.2551  -13.2537   18.2739 C   0  0  0  0  0  0  0  0  0  0  0  0
    8.5857  -12.1397   18.8191 N   0  0  0  0  0  0  0  0  0  0  0  0
    9.2452  -14.2010   17.9063 N   0  0  0  0  0  0  0  0  0  0  0  0
    9.0414  -15.6015   18.2157 C   0  0  0  0  0  0  0  0  0  0  0  0
    9.3138  -15.8629   19.6986 C   0  0  0  0  0  0  0  0  0  0  0  0
    9.2617  -17.2928   20.0545 C   0  0  0  0  0  0  0  0  0  0  0  0
    9.4673  -17.6412   21.5007 C   0  0  2  0  0  0  0  0  0  0  0  0
    8.4010  -17.1729   22.3516 N   0  0  0  0  0  0  0  0  0  0  0  0
   10.7869  -17.0948   21.9374 C   0  0  0  0  0  0  0  0  0  0  0  0
   11.0083  -15.8791   21.9765 O   0  0  0  0  0  0  0  0  0  0  0  0
    9.5699  -11.8664   19.0013 O   0  0  0  0  0  0  0  0  0  0  0  0
   13.3423  -19.6773   23.7580 C   0  0  0  0  0  0  0  0  0  0  0  0
   13.6143  -18.3185   23.9324 C   0  0  1  0  0  0  0  0  0  0  0  0
   13.1425  -17.6209   22.6784 N   0  0  0  0  0  0  0  0  0  0  0  0
   11.7928  -17.9944   22.3104 C   0  0  0  0  0  0  0  0  0  0  0  0
   14.0871  -17.7725   21.5586 O   0  0  0  0  0  0  0  0  0  0  0  0
   13.7230  -18.2290   20.4529 O   0  0  0  0  0  0  0  0  0  0  0  0
  2  1  1  1
  2  3  1  0
  4  5  2  0
  4  3  1  0
  6  5  1  0
  7 12  2  0
  7  6  1  0
  8  7  1  0
  9 10  1  0
  9  8  2  0
 10 11  2  0
 11 12  1  0
 12  4  1  0
 13  2  1  0
 13 14  2  0
 16 17  2  0
 16 15  1  0
 18 16  1  0
 19 18  1  0
 20 21  1  0
 20 19  1  0
 22 21  1  6
 22 23  1  0
 23 13  1  0
 24 22  1  0
 25 24  2  0
 26 27  1  0
 28 27  1  1
 28 29  1  0
 28 30  1  0
 29 24  1  0
 30 32  1  0
 31 30  2  0
M  END
$$$$
