WRS.pdb
     RDKit          3D

 32 33  0  0  1  0  0  0  0  0999 V2000
    6.8793  -18.7341   24.9878 N   0  0  0  0  0  0  0  0  0  0  0  0
    6.7818  -17.2930   24.8520 C   0  0  1  0  0  0  0  0  0  0  0  0
    7.2702  -16.7111   26.1444 C   0  0  0  0  0  0  0  0  0  0  0  0
    6.5103  -15.4578   26.4005 C   0  0  0  0  0  0  0  0  0  0  0  0
    5.1357  -15.2996   26.5207 C   0  0  0  0  0  0  0  0  0  0  0  0
    4.9257  -13.9970   26.7431 N   0  0  0  0  0  0  0  0  0  0  0  0
    6.0858  -13.3246   26.7704 C   0  0  0  0  0  0  0  0  0  0  0  0
    6.4274  -11.9890   26.9625 C   0  0  0  0  0  0  0  0  0  0  0  0
    7.7264  -11.5739   26.9415 C   0  0  0  0  0  0  0  0  0  0  0  0
    8.7564  -12.4785   26.7260 C   0  0  0  0  0  0  0  0  0  0  0  0
    8.4358  -13.7964   26.5353 C   0  0  0  0  0  0  0  0  0  0  0  0
    7.1281  -14.2328   26.5534 C   0  0  0  0  0  0  0  0  0  0  0  0
    7.5626  -16.8797   23.6762 C   0  0  0  0  0  0  0  0  0  0  0  0
    8.6289  -17.4966   23.4353 O   0  0  0  0  0  0  0  0  0  0  0  0
    7.6080  -15.4314   15.8832 N   0  0  0  0  0  0  0  0  0  0  0  0
    8.2696  -14.1832   16.1697 C   0  0  0  0  0  0  0  0  0  0  0  0
    8.4817  -13.3729   15.1971 N   0  0  0  0  0  0  0  0  0  0  0  0
    8.6773  -13.8533   17.4879 N   0  0  0  0  0  0  0  0  0  0  0  0
    7.7979  -14.1479   18.6007 C   0  0  0  0  0  0  0  0  0  0  0  0
    8.4306  -13.6846   19.9147 C   0  0  0  0  0  0  0  0  0  0  0  0
    7.6801  -14.1227   21.1059 C   0  0  0  0  0  0  0  0  0  0  0  0
    8.0562  -15.4518   21.6953 C   0  0  2  0  0  0  0  0  0  0  0  0
    7.2076  -15.8429   22.7940 N   0  0  0  0  0  0  0  0  0  0  0  0
    9.4894  -15.3977   22.1118 C   0  0  0  0  0  0  0  0  0  0  0  0
    9.8920  -14.5922   22.9588 O   0  0  0  0  0  0  0  0  0  0  0  0
    8.9456  -12.4524   15.3154 O   0  0  0  0  0  0  0  0  0  0  0  0
   11.6137  -18.1470   22.9646 C   0  0  0  0  0  0  0  0  0  0  0  0
   12.4389  -17.5677   21.9980 C   0  0  2  0  0  0  0  0  0  0  0  0
   11.8316  -16.2261   21.6620 N   0  0  0  0  0  0  0  0  0  0  0  0
   10.3920  -16.2891   21.5195 C   0  0  0  0  0  0  0  0  0  0  0  0
   12.4784  -15.5880   20.5027 O   0  0  0  0  0  0  0  0  0  0  0  0
   11.8270  -15.2666   19.4850 O   0  0  0  0  0  0  0  0  0  0  0  0
  2  1  1  1
  2  3  1  0
  4  5  2  0
  4  3  1  0
  6  5  1  0
  7 12  2  0
  7  6  1  0
  8  7  1  0
  9 10  1  0
  9  8  2  0
 10 11  2  0
 11 12  1  0
 12  4  1  0
 13  2  1  0
 13 14  2  0
 16 17  2  0
 16 15  1  0
 18 16  1  0
 19 18  1  0
 20 21  1  0
 20 19  1  0
 22 21  1  1
 22 23  1  0
 23 13  1  0
 24 22  1  0
 25 24  2  0
 26 27  1  0
 28 27  1  1
 28 29  1  0
 28 30  1  0
 29 24  1  0
 30 32  1  0
 31 30  2  0
M  END
$$$$
