WRS.pdb
     RDKit          3D

 32 33  0  0  1  0  0  0  0  0999 V2000
    7.4705  -18.4822   25.0670 N   0  0  0  0  0  0  0  0  0  0  0  0
    7.3143  -17.1172   24.6010 C   0  0  1  0  0  0  0  0  0  0  0  0
    7.8584  -16.2345   25.6838 C   0  0  0  0  0  0  0  0  0  0  0  0
    6.8115  -15.2365   26.0327 C   0  0  0  0  0  0  0  0  0  0  0  0
    5.4395  -15.4320   26.1255 C   0  0  0  0  0  0  0  0  0  0  0  0
    4.9136  -14.2486   26.4621 N   0  0  0  0  0  0  0  0  0  0  0  0
    5.8721  -13.3188   26.5873 C   0  0  0  0  0  0  0  0  0  0  0  0
    5.8728  -11.9657   26.9136 C   0  0  0  0  0  0  0  0  0  0  0  0
    7.0296  -11.2454   26.9709 C   0  0  0  0  0  0  0  0  0  0  0  0
    8.2521  -11.8450   26.7032 C   0  0  0  0  0  0  0  0  0  0  0  0
    8.2673  -13.1761   26.3805 C   0  0  0  0  0  0  0  0  0  0  0  0
    7.1074  -13.9186   26.3181 C   0  0  0  0  0  0  0  0  0  0  0  0
    8.0084  -16.9804   23.3117 C   0  0  0  0  0  0  0  0  0  0  0  0
    8.8962  -17.8228   23.0325 O   0  0  0  0  0  0  0  0  0  0  0  0
    9.3664  -14.9173   16.3237 N   0  0  0  0  0  0  0  0  0  0  0  0
    8.1493  -14.1478   16.2579 C   0  0  0  0  0  0  0  0  0  0  0  0
    7.4485  -14.2135   15.1845 N   0  0  0  0  0  0  0  0  0  0  0  0
    7.7319  -13.3384   17.3457 N   0  0  0  0  0  0  0  0  0  0  0  0
    8.6514  -13.0784   18.4345 C   0  0  0  0  0  0  0  0  0  0  0  0
    9.0140  -14.3834   19.1466 C   0  0  0  0  0  0  0  0  0  0  0  0
    8.2226  -14.6164   20.3686 C   0  0  0  0  0  0  0  0  0  0  0  0
    8.5158  -15.8717   21.1391 C   0  0  2  0  0  0  0  0  0  0  0  0
    7.7548  -15.9758   22.3600 N   0  0  0  0  0  0  0  0  0  0  0  0
    9.9833  -15.9302   21.4102 C   0  0  0  0  0  0  0  0  0  0  0  0
   10.5452  -15.1037   22.1379 O   0  0  0  0  0  0  0  0  0  0  0  0
    6.5884  -13.6534   15.0325 O   0  0  0  0  0  0  0  0  0  0  0  0
   11.9353  -19.4279   20.8155 C   0  0  0  0  0  0  0  0  0  0  0  0
   12.5485  -18.4306   21.5771 C   0  0  1  0  0  0  0  0  0  0  0  0
   12.1659  -17.1120   20.9474 N   0  0  0  0  0  0  0  0  0  0  0  0
   10.7324  -16.9543   20.8183 C   0  0  0  0  0  0  0  0  0  0  0  0
   12.8695  -16.8679   19.6766 O   0  0  0  0  0  0  0  0  0  0  0  0
   14.1169  -16.8010   19.6218 O   0  0  0  0  0  0  0  0  0  0  0  0
  2  1  1  1
  2  3  1  0
  4  5  2  0
  4  3  1  0
  6  5  1  0
  7 12  2  0
  7  6  1  0
  8  7  1  0
  9 10  1  0
  9  8  2  0
 10 11  2  0
 11 12  1  0
 12  4  1  0
 13  2  1  0
 13 14  2  0
 16 17  2  0
 16 15  1  0
 18 16  1  0
 19 18  1  0
 20 21  1  0
 20 19  1  0
 22 21  1  1
 22 23  1  0
 23 13  1  0
 24 22  1  0
 25 24  2  0
 26 27  1  0
 28 27  1  1
 28 29  1  0
 28 30  1  0
 29 24  1  0
 30 32  1  0
 31 30  2  0
M  END
$$$$
