WRS.pdb
     RDKit          3D

 32 33  0  0  1  0  0  0  0  0999 V2000
    6.4285  -17.8814   25.1453 N   0  0  0  0  0  0  0  0  0  0  0  0
    7.0972  -16.6469   24.7800 C   0  0  1  0  0  0  0  0  0  0  0  0
    8.0318  -16.3215   25.9062 C   0  0  0  0  0  0  0  0  0  0  0  0
    7.4569  -15.1778   26.6647 C   0  0  0  0  0  0  0  0  0  0  0  0
    6.8434  -15.1988   27.9106 C   0  0  0  0  0  0  0  0  0  0  0  0
    6.4880  -13.9363   28.1755 N   0  0  0  0  0  0  0  0  0  0  0  0
    6.8409  -13.1207   27.1710 C   0  0  0  0  0  0  0  0  0  0  0  0
    6.7139  -11.7534   26.9429 C   0  0  0  0  0  0  0  0  0  0  0  0
    7.1802  -11.1739   25.7997 C   0  0  0  0  0  0  0  0  0  0  0  0
    7.8008  -11.9363   24.8203 C   0  0  0  0  0  0  0  0  0  0  0  0
    7.9329  -13.2834   25.0306 C   0  0  0  0  0  0  0  0  0  0  0  0
    7.4674  -13.8851   26.1803 C   0  0  0  0  0  0  0  0  0  0  0  0
    7.7656  -16.8421   23.4846 C   0  0  0  0  0  0  0  0  0  0  0  0
    8.3228  -17.9470   23.2740 O   0  0  0  0  0  0  0  0  0  0  0  0
    8.1531  -14.7336   14.9571 N   0  0  0  0  0  0  0  0  0  0  0  0
    7.6209  -13.9120   16.0151 C   0  0  0  0  0  0  0  0  0  0  0  0
    7.3181  -12.6947   15.7428 N   0  0  0  0  0  0  0  0  0  0  0  0
    7.4344  -14.4283   17.3233 N   0  0  0  0  0  0  0  0  0  0  0  0
    8.1994  -15.5822   17.7500 C   0  0  0  0  0  0  0  0  0  0  0  0
    9.0966  -15.2161   18.9343 C   0  0  0  0  0  0  0  0  0  0  0  0
    8.3546  -15.0681   20.1998 C   0  0  0  0  0  0  0  0  0  0  0  0
    8.6108  -16.0980   21.2623 C   0  0  2  0  0  0  0  0  0  0  0  0
    7.8301  -15.8843   22.4561 N   0  0  0  0  0  0  0  0  0  0  0  0
   10.0727  -16.1113   21.5676 C   0  0  0  0  0  0  0  0  0  0  0  0
   10.6509  -15.1214   22.0304 O   0  0  0  0  0  0  0  0  0  0  0  0
    6.8809  -12.0510   16.4290 O   0  0  0  0  0  0  0  0  0  0  0  0
   12.0875  -19.6621   20.8511 C   0  0  0  0  0  0  0  0  0  0  0  0
   12.6162  -18.8501   21.8570 C   0  0  1  0  0  0  0  0  0  0  0  0
   12.2240  -17.4319   21.5156 N   0  0  0  0  0  0  0  0  0  0  0  0
   10.7972  -17.2832   21.3186 C   0  0  0  0  0  0  0  0  0  0  0  0
   13.0013  -16.8866   20.3896 O   0  0  0  0  0  0  0  0  0  0  0  0
   12.5022  -16.7613   19.2500 O   0  0  0  0  0  0  0  0  0  0  0  0
  2  1  1  1
  2  3  1  0
  4  5  2  0
  4  3  1  0
  6  5  1  0
  7 12  2  0
  7  6  1  0
  8  7  1  0
  9 10  1  0
  9  8  2  0
 10 11  2  0
 11 12  1  0
 12  4  1  0
 13  2  1  0
 13 14  2  0
 16 17  2  0
 16 15  1  0
 18 16  1  0
 19 18  1  0
 20 21  1  0
 20 19  1  0
 22 21  1  6
 22 23  1  0
 23 13  1  0
 24 22  1  0
 25 24  2  0
 26 27  1  0
 28 27  1  1
 28 29  1  0
 28 30  1  0
 29 24  1  0
 30 32  1  0
 31 30  2  0
M  END
$$$$
