WRS.pdb
     RDKit          3D

 32 33  0  0  1  0  0  0  0  0999 V2000
    6.2599  -18.0565   25.9303 N   0  0  0  0  0  0  0  0  0  0  0  0
    6.9936  -16.8348   25.6586 C   0  0  1  0  0  0  0  0  0  0  0  0
    7.7023  -16.4741   26.9296 C   0  0  0  0  0  0  0  0  0  0  0  0
    8.2432  -15.0962   26.7791 C   0  0  0  0  0  0  0  0  0  0  0  0
    9.5704  -14.7066   26.6530 C   0  0  0  0  0  0  0  0  0  0  0  0
    9.5618  -13.3727   26.5490 N   0  0  0  0  0  0  0  0  0  0  0  0
    8.3085  -12.8981   26.6018 C   0  0  0  0  0  0  0  0  0  0  0  0
    7.7514  -11.6240   26.5394 C   0  0  0  0  0  0  0  0  0  0  0  0
    6.4038  -11.4291   26.6185 C   0  0  0  0  0  0  0  0  0  0  0  0
    5.5393  -12.5047   26.7650 C   0  0  0  0  0  0  0  0  0  0  0  0
    6.0728  -13.7646   26.8280 C   0  0  0  0  0  0  0  0  0  0  0  0
    7.4324  -13.9792   26.7496 C   0  0  0  0  0  0  0  0  0  0  0  0
    7.8920  -17.0721   24.5187 C   0  0  0  0  0  0  0  0  0  0  0  0
    8.4187  -18.2067   24.4147 O   0  0  0  0  0  0  0  0  0  0  0  0
    8.5987  -12.0393   18.1336 N   0  0  0  0  0  0  0  0  0  0  0  0
    8.2469  -13.4031   17.8269 C   0  0  0  0  0  0  0  0  0  0  0  0
    8.6011  -13.8787   16.6885 N   0  0  0  0  0  0  0  0  0  0  0  0
    7.5294  -14.2030   18.7532 N   0  0  0  0  0  0  0  0  0  0  0  0
    7.5752  -15.6460   18.6343 C   0  0  0  0  0  0  0  0  0  0  0  0
    8.4529  -16.2421   19.7370 C   0  0  0  0  0  0  0  0  0  0  0  0
    8.0099  -15.8728   21.0940 C   0  0  0  0  0  0  0  0  0  0  0  0
    8.7367  -16.5103   22.2432 C   0  0  2  0  0  0  0  0  0  0  0  0
    8.2095  -16.1239   23.5290 N   0  0  0  0  0  0  0  0  0  0  0  0
   10.1878  -16.1755   22.1312 C   0  0  0  0  0  0  0  0  0  0  0  0
   10.7640  -16.1306   21.0383 O   0  0  0  0  0  0  0  0  0  0  0  0
    8.4057  -14.8544   16.3948 O   0  0  0  0  0  0  0  0  0  0  0  0
   13.4684  -18.0656   24.7166 C   0  0  0  0  0  0  0  0  0  0  0  0
   12.1493  -17.6640   24.4942 C   0  0  2  0  0  0  0  0  0  0  0  0
   12.2153  -16.4392   23.6127 N   0  0  0  0  0  0  0  0  0  0  0  0
   10.9046  -15.9071   23.3036 C   0  0  0  0  0  0  0  0  0  0  0  0
   13.0271  -16.6571   22.4031 O   0  0  0  0  0  0  0  0  0  0  0  0
   12.7274  -17.5335   21.5632 O   0  0  0  0  0  0  0  0  0  0  0  0
  2  1  1  1
  2  3  1  0
  4  5  2  0
  4  3  1  0
  6  5  1  0
  7 12  2  0
  7  6  1  0
  8  7  1  0
  9 10  1  0
  9  8  2  0
 10 11  2  0
 11 12  1  0
 12  4  1  0
 13  2  1  0
 13 14  2  0
 16 17  2  0
 16 15  1  0
 18 16  1  0
 19 18  1  0
 20 21  1  0
 20 19  1  0
 22 21  1  6
 22 23  1  0
 23 13  1  0
 24 22  1  0
 25 24  2  0
 26 27  1  0
 28 27  1  1
 28 29  1  0
 28 30  1  0
 29 24  1  0
 30 32  1  0
 31 30  2  0
M  END
$$$$
