WRS.pdb
     RDKit          3D

 32 33  0  0  1  0  0  0  0  0999 V2000
    8.1906  -17.8705   26.4433 N   0  0  0  0  0  0  0  0  0  0  0  0
    8.0274  -16.7728   25.5089 C   0  0  1  0  0  0  0  0  0  0  0  0
    9.1222  -15.7936   25.8094 C   0  0  0  0  0  0  0  0  0  0  0  0
    8.6043  -14.8163   26.8047 C   0  0  0  0  0  0  0  0  0  0  0  0
    8.8151  -14.7993   28.1774 C   0  0  0  0  0  0  0  0  0  0  0  0
    8.1488  -13.7380   28.6464 N   0  0  0  0  0  0  0  0  0  0  0  0
    7.5307  -13.0849   27.6514 C   0  0  0  0  0  0  0  0  0  0  0  0
    6.7290  -11.9487   27.5891 C   0  0  0  0  0  0  0  0  0  0  0  0
    6.2232  -11.4955   26.4063 C   0  0  0  0  0  0  0  0  0  0  0  0
    6.4948  -12.1591   25.2183 C   0  0  0  0  0  0  0  0  0  0  0  0
    7.2823  -13.2789   25.2637 C   0  0  0  0  0  0  0  0  0  0  0  0
    7.8015  -13.7505   26.4506 C   0  0  0  0  0  0  0  0  0  0  0  0
    8.0656  -17.3126   24.1414 C   0  0  0  0  0  0  0  0  0  0  0  0
    8.4038  -18.5124   23.9949 O   0  0  0  0  0  0  0  0  0  0  0  0
   10.1450  -13.3569   18.8762 N   0  0  0  0  0  0  0  0  0  0  0  0
    8.8965  -13.1551   18.1847 C   0  0  0  0  0  0  0  0  0  0  0  0
    8.9204  -13.0682   16.9043 N   0  0  0  0  0  0  0  0  0  0  0  0
    7.6717  -13.0545   18.8936 N   0  0  0  0  0  0  0  0  0  0  0  0
    6.9553  -14.2611   19.2533 C   0  0  0  0  0  0  0  0  0  0  0  0
    7.7942  -15.1118   20.2094 C   0  0  0  0  0  0  0  0  0  0  0  0
    7.1242  -16.3616   20.6134 C   0  0  0  0  0  0  0  0  0  0  0  0
    7.8047  -17.1877   21.6669 C   0  0  2  0  0  0  0  0  0  0  0  0
    7.7504  -16.5878   22.9774 N   0  0  0  0  0  0  0  0  0  0  0  0
    9.2156  -17.4305   21.2416 C   0  0  0  0  0  0  0  0  0  0  0  0
    9.4886  -18.1175   20.2507 O   0  0  0  0  0  0  0  0  0  0  0  0
    8.0854  -12.8331   16.3352 O   0  0  0  0  0  0  0  0  0  0  0  0
   12.3291  -15.2992   23.1323 C   0  0  0  0  0  0  0  0  0  0  0  0
   12.4341  -15.7433   21.8123 C   0  0  1  0  0  0  0  0  0  0  0  0
   11.6612  -17.0386   21.7314 N   0  0  0  0  0  0  0  0  0  0  0  0
   10.2486  -16.8588   21.9940 C   0  0  0  0  0  0  0  0  0  0  0  0
   12.2513  -18.1011   22.5633 O   0  0  0  0  0  0  0  0  0  0  0  0
   11.6008  -18.6541   23.4768 O   0  0  0  0  0  0  0  0  0  0  0  0
  2  1  1  1
  2  3  1  0
  4  5  2  0
  4  3  1  0
  6  5  1  0
  7 12  2  0
  7  6  1  0
  8  7  1  0
  9 10  1  0
  9  8  2  0
 10 11  2  0
 11 12  1  0
 12  4  1  0
 13  2  1  0
 13 14  2  0
 16 17  2  0
 16 15  1  0
 18 16  1  0
 19 18  1  0
 20 21  1  0
 20 19  1  0
 22 21  1  6
 22 23  1  0
 23 13  1  0
 24 22  1  0
 25 24  2  0
 26 27  1  0
 28 27  1  6
 28 29  1  0
 28 30  1  0
 29 24  1  0
 30 32  1  0
 31 30  2  0
M  END
$$$$
