WRS.pdb
     RDKit          3D

 32 33  0  0  1  0  0  0  0  0999 V2000
    6.3616  -18.1127   25.0608 N   0  0  0  0  0  0  0  0  0  0  0  0
    6.7702  -16.7395   24.8329 C   0  0  1  0  0  0  0  0  0  0  0  0
    7.3853  -16.2619   26.1139 C   0  0  0  0  0  0  0  0  0  0  0  0
    6.6866  -15.0131   26.5217 C   0  0  0  0  0  0  0  0  0  0  0  0
    5.4109  -14.8811   27.0549 C   0  0  0  0  0  0  0  0  0  0  0  0
    5.2219  -13.5719   27.2565 N   0  0  0  0  0  0  0  0  0  0  0  0
    6.3023  -12.8708   26.8826 C   0  0  0  0  0  0  0  0  0  0  0  0
    6.6265  -11.5171   26.8819 C   0  0  0  0  0  0  0  0  0  0  0  0
    7.8354  -11.0724   26.4336 C   0  0  0  0  0  0  0  0  0  0  0  0
    8.7877  -11.9640   25.9602 C   0  0  0  0  0  0  0  0  0  0  0  0
    8.4831  -13.2994   25.9546 C   0  0  0  0  0  0  0  0  0  0  0  0
    7.2660  -13.7656   26.4041 C   0  0  0  0  0  0  0  0  0  0  0  0
    7.6846  -16.7082   23.6814 C   0  0  0  0  0  0  0  0  0  0  0  0
    8.4994  -17.6546   23.5550 O   0  0  0  0  0  0  0  0  0  0  0  0
    8.4399  -14.8236   16.9951 N   0  0  0  0  0  0  0  0  0  0  0  0
    9.2288  -13.7887   17.6152 C   0  0  0  0  0  0  0  0  0  0  0  0
   10.4806  -13.7326   17.3370 N   0  0  0  0  0  0  0  0  0  0  0  0
    8.6440  -12.8549   18.5088 N   0  0  0  0  0  0  0  0  0  0  0  0
    7.3441  -13.1359   19.0833 C   0  0  0  0  0  0  0  0  0  0  0  0
    7.4103  -14.3888   19.9593 C   0  0  0  0  0  0  0  0  0  0  0  0
    8.6258  -14.4509   20.7916 C   0  0  0  0  0  0  0  0  0  0  0  0
    8.7614  -15.6318   21.7094 C   0  0  2  0  0  0  0  0  0  0  0  0
    7.7187  -15.6970   22.7039 N   0  0  0  0  0  0  0  0  0  0  0  0
   10.1122  -15.5863   22.3448 C   0  0  0  0  0  0  0  0  0  0  0  0
   10.3505  -14.8629   23.3186 O   0  0  0  0  0  0  0  0  0  0  0  0
   11.1255  -13.0375   17.7581 O   0  0  0  0  0  0  0  0  0  0  0  0
   12.3671  -18.7016   22.5470 C   0  0  0  0  0  0  0  0  0  0  0  0
   12.8065  -17.5444   23.1939 C   0  0  1  0  0  0  0  0  0  0  0  0
   12.5039  -16.3915   22.2660 N   0  0  0  0  0  0  0  0  0  0  0  0
   11.1284  -16.3899   21.8138 C   0  0  0  0  0  0  0  0  0  0  0  0
   13.4579  -16.3017   21.1474 O   0  0  0  0  0  0  0  0  0  0  0  0
   13.0784  -16.3619   19.9575 O   0  0  0  0  0  0  0  0  0  0  0  0
  2  1  1  1
  2  3  1  0
  4  5  2  0
  4  3  1  0
  6  5  1  0
  7 12  2  0
  7  6  1  0
  8  7  1  0
  9 10  1  0
  9  8  2  0
 10 11  2  0
 11 12  1  0
 12  4  1  0
 13  2  1  0
 13 14  2  0
 16 17  2  0
 16 15  1  0
 18 16  1  0
 19 18  1  0
 20 21  1  0
 20 19  1  0
 22 21  1  1
 22 23  1  0
 23 13  1  0
 24 22  1  0
 25 24  2  0
 26 27  1  0
 28 27  1  1
 28 29  1  0
 28 30  1  0
 29 24  1  0
 30 32  1  0
 31 30  2  0
M  END
$$$$
