FVC.pdb
     RDKit          3D

 25 25  0  0  1  0  0  0  0  0999 V2000
   28.4114  -20.9498   -8.9301 N   0  0  0  0  0  0  0  0  0  0  0  0
   27.0111  -20.6157   -8.7953 C   0  0  1  0  0  0  0  0  0  0  0  0
   26.9126  -19.3184   -8.0293 C   0  0  0  0  0  0  0  0  0  0  0  0
   27.5187  -19.4686   -6.6868 C   0  0  0  0  0  0  0  0  0  0  0  0
   28.7010  -18.8232   -6.3632 C   0  0  0  0  0  0  0  0  0  0  0  0
   29.2571  -18.9722   -5.0912 C   0  0  0  0  0  0  0  0  0  0  0  0
   28.6551  -19.7503   -4.1417 C   0  0  0  0  0  0  0  0  0  0  0  0
   27.4784  -20.3956   -4.4581 C   0  0  0  0  0  0  0  0  0  0  0  0
   26.9399  -20.2459   -5.7040 C   0  0  0  0  0  0  0  0  0  0  0  0
   26.3943  -20.4042  -10.1385 C   0  0  0  0  0  0  0  0  0  0  0  0
   27.1100  -19.9261  -11.0519 O   0  0  0  0  0  0  0  0  0  0  0  0
   24.8295  -21.8705  -13.9809 C   0  0  0  0  0  0  0  0  0  0  0  0
   25.2907  -21.6952  -12.5575 C   0  0  1  0  0  0  0  0  0  0  0  0
   26.7678  -21.4626  -12.4512 C   0  0  0  0  0  0  0  0  0  0  0  0
   24.4626  -20.7668  -11.7524 C   0  0  2  0  0  0  0  0  0  0  0  0
   25.0384  -20.7280  -10.4002 N   0  0  0  0  0  0  0  0  0  0  0  0
   23.0252  -20.9887  -11.7141 C   0  0  0  0  0  0  0  0  0  0  0  0
   22.5240  -21.3307  -10.5788 O   0  0  0  0  0  0  0  0  0  0  0  0
   22.0927  -20.8811  -12.7522 N   0  0  0  0  0  0  0  0  0  0  0  0
   20.9398  -20.0062  -12.7318 C   0  0  1  0  0  0  0  0  0  0  0  0
   21.2784  -18.5767  -12.4475 C   0  0  0  0  0  0  0  0  0  0  0  0
   19.9689  -17.7776  -11.4985 S   0  0  0  0  0  0  0  0  0  0  0  0
   20.1093  -20.1188  -13.9301 C   0  0  0  0  0  0  0  0  0  0  0  0
   18.7446  -20.2376  -13.8051 O   0  0  0  0  0  0  0  0  0  0  0  0
   20.6229  -20.1080  -15.0608 O   0  0  0  0  0  0  0  0  0  0  0  0
  2 10  1  0
  2  1  1  6
  3  2  1  0
  4  3  1  0
  5  4  2  0
  6  5  1  0
  7  6  2  0
  7  8  1  0
  8  9  2  0
  9  4  1  0
 10 16  1  0
 11 10  2  0
 13 12  1  6
 14 13  1  0
 15 13  1  0
 15 16  1  1
 17 18  2  0
 17 15  1  0
 19 17  1  0
 20 19  1  0
 21 22  1  0
 20 21  1  6
 23 20  1  0
 23 24  1  0
 25 23  2  0
M  END
$$$$
