FVC.pdb
     RDKit          3D

 25 25  0  0  1  0  0  0  0  0999 V2000
   25.0830  -18.3089  -19.5326 N   0  0  0  0  0  0  0  0  0  0  0  0
   25.0268  -19.3801  -18.5630 C   0  0  1  0  0  0  0  0  0  0  0  0
   26.4014  -19.9975  -18.4696 C   0  0  0  0  0  0  0  0  0  0  0  0
   26.7133  -20.7442  -19.7095 C   0  0  0  0  0  0  0  0  0  0  0  0
   26.0150  -21.8932  -20.0434 C   0  0  0  0  0  0  0  0  0  0  0  0
   26.3189  -22.5832  -21.2185 C   0  0  0  0  0  0  0  0  0  0  0  0
   27.3029  -22.1470  -22.0616 C   0  0  0  0  0  0  0  0  0  0  0  0
   28.0017  -21.0043  -21.7343 C   0  0  0  0  0  0  0  0  0  0  0  0
   27.6997  -20.3342  -20.5835 C   0  0  0  0  0  0  0  0  0  0  0  0
   24.6708  -18.8449  -17.2153 C   0  0  0  0  0  0  0  0  0  0  0  0
   24.9048  -17.6353  -16.9761 O   0  0  0  0  0  0  0  0  0  0  0  0
   22.8026  -17.0139  -16.1274 C   0  0  0  0  0  0  0  0  0  0  0  0
   22.3924  -18.2339  -15.3445 C   0  0  1  0  0  0  0  0  0  0  0  0
   21.2083  -18.9341  -15.9404 C   0  0  0  0  0  0  0  0  0  0  0  0
   23.5118  -19.1296  -14.9697 C   0  0  2  0  0  0  0  0  0  0  0  0
   24.0824  -19.6614  -16.2159 N   0  0  0  0  0  0  0  0  0  0  0  0
   23.2486  -20.1896  -14.0084 C   0  0  0  0  0  0  0  0  0  0  0  0
   22.4483  -21.1248  -14.3852 O   0  0  0  0  0  0  0  0  0  0  0  0
   23.7499  -20.3417  -12.7107 N   0  0  0  0  0  0  0  0  0  0  0  0
   23.3703  -21.4041  -11.8038 C   0  0  1  0  0  0  0  0  0  0  0  0
   24.3367  -21.6046  -10.6792 C   0  0  0  0  0  0  0  0  0  0  0  0
   26.0208  -21.2164  -11.1958 S   0  0  0  0  0  0  0  0  0  0  0  0
   22.0033  -21.2725  -11.3017 C   0  0  0  0  0  0  0  0  0  0  0  0
   21.3975  -22.3426  -10.6851 O   0  0  0  0  0  0  0  0  0  0  0  0
   21.3823  -20.2041  -11.4255 O   0  0  0  0  0  0  0  0  0  0  0  0
  2 10  1  0
  2  1  1  6
  3  2  1  0
  4  3  1  0
  5  4  2  0
  6  5  1  0
  7  6  2  0
  7  8  1  0
  8  9  2  0
  9  4  1  0
 10 16  1  0
 11 10  2  0
 13 12  1  6
 14 13  1  0
 15 13  1  0
 15 16  1  6
 17 18  2  0
 17 15  1  0
 19 17  1  0
 20 19  1  0
 21 22  1  0
 20 21  1  1
 23 20  1  0
 23 24  1  0
 25 23  2  0
M  END
$$$$
