FVC.pdb
     RDKit          3D

 25 25  0  0  1  0  0  0  0  0999 V2000
   21.1171  -32.3874  -10.5204 N   0  0  0  0  0  0  0  0  0  0  0  0
   22.1784  -31.7314   -9.7898 C   0  0  1  0  0  0  0  0  0  0  0  0
   21.5459  -30.8075   -8.7771 C   0  0  0  0  0  0  0  0  0  0  0  0
   20.8970  -29.6653   -9.4602 C   0  0  0  0  0  0  0  0  0  0  0  0
   21.6154  -28.8457  -10.3154 C   0  0  0  0  0  0  0  0  0  0  0  0
   20.9872  -27.7753  -10.9549 C   0  0  0  0  0  0  0  0  0  0  0  0
   19.6605  -27.5113  -10.7561 C   0  0  0  0  0  0  0  0  0  0  0  0
   18.9404  -28.3233   -9.9056 C   0  0  0  0  0  0  0  0  0  0  0  0
   19.5608  -29.3684   -9.2831 C   0  0  0  0  0  0  0  0  0  0  0  0
   22.9976  -32.7351   -9.0476 C   0  0  0  0  0  0  0  0  0  0  0  0
   22.4773  -33.8454   -8.7803 O   0  0  0  0  0  0  0  0  0  0  0  0
   27.6486  -33.9615   -7.7316 C   0  0  0  0  0  0  0  0  0  0  0  0
   26.5781  -33.2261   -8.4950 C   0  0  1  0  0  0  0  0  0  0  0  0
   26.7386  -33.3469   -9.9805 C   0  0  0  0  0  0  0  0  0  0  0  0
   25.2000  -33.4623   -8.0043 C   0  0  2  0  0  0  0  0  0  0  0  0
   24.3306  -32.4648   -8.6452 N   0  0  0  0  0  0  0  0  0  0  0  0
   24.9840  -33.5130   -6.5663 C   0  0  0  0  0  0  0  0  0  0  0  0
   24.8427  -32.3844   -5.9638 O   0  0  0  0  0  0  0  0  0  0  0  0
   24.9057  -34.6322   -5.7297 N   0  0  0  0  0  0  0  0  0  0  0  0
   24.6951  -34.5737   -4.2988 C   0  0  1  0  0  0  0  0  0  0  0  0
   23.2577  -34.6913   -3.9003 C   0  0  0  0  0  0  0  0  0  0  0  0
   23.0744  -34.6119   -2.1076 S   0  0  0  0  0  0  0  0  0  0  0  0
   25.5236  -35.5217   -3.5550 C   0  0  0  0  0  0  0  0  0  0  0  0
   25.8079  -35.2852   -2.2300 O   0  0  0  0  0  0  0  0  0  0  0  0
   25.9736  -36.5394   -4.1065 O   0  0  0  0  0  0  0  0  0  0  0  0
  2 10  1  0
  2  1  1  1
  3  2  1  0
  4  3  1  0
  5  4  2  0
  6  5  1  0
  7  6  2  0
  7  8  1  0
  8  9  2  0
  9  4  1  0
 10 16  1  0
 11 10  2  0
 13 12  1  1
 14 13  1  0
 15 13  1  0
 15 16  1  1
 17 18  2  0
 17 15  1  0
 19 17  1  0
 20 19  1  0
 21 22  1  0
 20 21  1  6
 23 20  1  0
 23 24  1  0
 25 23  2  0
M  END
$$$$
