FVC.pdb
     RDKit          3D

 25 25  0  0  1  0  0  0  0  0999 V2000
   27.5510  -22.0494  -16.2339 N   0  0  0  0  0  0  0  0  0  0  0  0
   26.6049  -21.0459  -15.7995 C   0  0  1  0  0  0  0  0  0  0  0  0
   25.6730  -20.7538  -16.9509 C   0  0  0  0  0  0  0  0  0  0  0  0
   26.3830  -19.9941  -18.0049 C   0  0  0  0  0  0  0  0  0  0  0  0
   26.6977  -20.5840  -19.2183 C   0  0  0  0  0  0  0  0  0  0  0  0
   27.3639  -19.8521  -20.2031 C   0  0  0  0  0  0  0  0  0  0  0  0
   27.7186  -18.5477  -19.9979 C   0  0  0  0  0  0  0  0  0  0  0  0
   27.4085  -17.9554  -18.7921 C   0  0  0  0  0  0  0  0  0  0  0  0
   26.7571  -18.6767  -17.8329 C   0  0  0  0  0  0  0  0  0  0  0  0
   25.7843  -21.5608  -14.6633 C   0  0  0  0  0  0  0  0  0  0  0  0
   25.5225  -22.7877  -14.6281 O   0  0  0  0  0  0  0  0  0  0  0  0
   24.3165  -20.8504  -10.0165 C   0  0  0  0  0  0  0  0  0  0  0  0
   25.1340  -20.6605  -11.2675 C   0  0  1  0  0  0  0  0  0  0  0  0
   26.5677  -21.0606  -11.0896 C   0  0  0  0  0  0  0  0  0  0  0  0
   24.4995  -21.1797  -12.5019 C   0  0  2  0  0  0  0  0  0  0  0  0
   25.3025  -20.7063  -13.6388 N   0  0  0  0  0  0  0  0  0  0  0  0
   23.0823  -20.9202  -12.7050 C   0  0  0  0  0  0  0  0  0  0  0  0
   22.7386  -19.6909  -12.8711 O   0  0  0  0  0  0  0  0  0  0  0  0
   22.0207  -21.8312  -12.7472 N   0  0  0  0  0  0  0  0  0  0  0  0
   20.6489  -21.4790  -13.0462 C   0  0  1  0  0  0  0  0  0  0  0  0
   19.8569  -22.6041  -13.6343 C   0  0  0  0  0  0  0  0  0  0  0  0
   20.8397  -23.5327  -14.8283 S   0  0  0  0  0  0  0  0  0  0  0  0
   19.9464  -20.8820  -11.9112 C   0  0  0  0  0  0  0  0  0  0  0  0
   18.8431  -20.0907  -12.1319 O   0  0  0  0  0  0  0  0  0  0  0  0
   20.3349  -21.0820  -10.7486 O   0  0  0  0  0  0  0  0  0  0  0  0
  2 10  1  0
  2  1  1  6
  3  2  1  0
  4  3  1  0
  5  4  2  0
  6  5  1  0
  7  6  2  0
  7  8  1  0
  8  9  2  0
  9  4  1  0
 10 16  1  0
 11 10  2  0
 13 12  1  1
 14 13  1  0
 15 13  1  0
 15 16  1  6
 17 18  2  0
 17 15  1  0
 19 17  1  0
 20 19  1  0
 21 22  1  0
 20 21  1  1
 23 20  1  0
 23 24  1  0
 25 23  2  0
M  END
$$$$
