FVC.pdb
     RDKit          3D

 25 25  0  0  1  0  0  0  0  0999 V2000
   26.7462  -22.0280  -11.3360 N   0  0  0  0  0  0  0  0  0  0  0  0
   25.9915  -20.8179  -11.5746 C   0  0  1  0  0  0  0  0  0  0  0  0
   25.7152  -20.1694  -10.2395 C   0  0  0  0  0  0  0  0  0  0  0  0
   24.5212  -20.7790   -9.6109 C   0  0  0  0  0  0  0  0  0  0  0  0
   24.4708  -21.0003   -8.2442 C   0  0  0  0  0  0  0  0  0  0  0  0
   23.3356  -21.5724   -7.6668 C   0  0  0  0  0  0  0  0  0  0  0  0
   22.2554  -21.9249   -8.4273 C   0  0  0  0  0  0  0  0  0  0  0  0
   22.2999  -21.7076   -9.7881 C   0  0  0  0  0  0  0  0  0  0  0  0
   23.4133  -21.1478  -10.3466 C   0  0  0  0  0  0  0  0  0  0  0  0
   26.7900  -19.8591  -12.3947 C   0  0  0  0  0  0  0  0  0  0  0  0
   27.9879  -19.6606  -12.0773 O   0  0  0  0  0  0  0  0  0  0  0  0
   29.0246  -19.8335  -14.0825 C   0  0  0  0  0  0  0  0  0  0  0  0
   28.0401  -19.2324  -15.0515 C   0  0  1  0  0  0  0  0  0  0  0  0
   27.4848  -20.2394  -16.0132 C   0  0  0  0  0  0  0  0  0  0  0  0
   27.0242  -18.3512  -14.4292 C   0  0  2  0  0  0  0  0  0  0  0  0
   26.2325  -19.1793  -13.5077 N   0  0  0  0  0  0  0  0  0  0  0  0
   26.1709  -17.5639  -15.3060 C   0  0  0  0  0  0  0  0  0  0  0  0
   25.1025  -18.1368  -15.7386 O   0  0  0  0  0  0  0  0  0  0  0  0
   26.3475  -16.2497  -15.7538 N   0  0  0  0  0  0  0  0  0  0  0  0
   25.3519  -15.4893  -16.4789 C   0  0  1  0  0  0  0  0  0  0  0  0
   25.4754  -14.0100  -16.2916 C   0  0  0  0  0  0  0  0  0  0  0  0
   25.5282  -13.5813  -14.5403 S   0  0  0  0  0  0  0  0  0  0  0  0
   25.2851  -15.8331  -17.8986 C   0  0  0  0  0  0  0  0  0  0  0  0
   24.1423  -15.5588  -18.6135 O   0  0  0  0  0  0  0  0  0  0  0  0
   26.2498  -16.3703  -18.4671 O   0  0  0  0  0  0  0  0  0  0  0  0
  2 10  1  0
  2  1  1  1
  3  2  1  0
  4  3  1  0
  5  4  2  0
  6  5  1  0
  7  6  2  0
  7  8  1  0
  8  9  2  0
  9  4  1  0
 10 16  1  0
 11 10  2  0
 13 12  1  1
 14 13  1  0
 15 13  1  0
 15 16  1  6
 17 18  2  0
 17 15  1  0
 19 17  1  0
 20 19  1  0
 21 22  1  0
 20 21  1  6
 23 20  1  0
 23 24  1  0
 25 23  2  0
M  END
$$$$
