FVC.pdb
     RDKit          3D

 25 25  0  0  1  0  0  0  0  0999 V2000
   25.1422  -18.5231  -15.0827 N   0  0  0  0  0  0  0  0  0  0  0  0
   26.1560  -18.7930  -14.0877 C   0  0  1  0  0  0  0  0  0  0  0  0
   27.0318  -17.5689  -13.9698 C   0  0  0  0  0  0  0  0  0  0  0  0
   27.7834  -17.3533  -15.2272 C   0  0  0  0  0  0  0  0  0  0  0  0
   27.5287  -16.2528  -16.0292 C   0  0  0  0  0  0  0  0  0  0  0  0
   28.2494  -16.0622  -17.2098 C   0  0  0  0  0  0  0  0  0  0  0  0
   29.2155  -16.9473  -17.6005 C   0  0  0  0  0  0  0  0  0  0  0  0
   29.4731  -18.0448  -16.8066 C   0  0  0  0  0  0  0  0  0  0  0  0
   28.7645  -18.2255  -15.6533 C   0  0  0  0  0  0  0  0  0  0  0  0
   25.5268  -19.0378  -12.7559 C   0  0  0  0  0  0  0  0  0  0  0  0
   24.2998  -18.8077  -12.6277 O   0  0  0  0  0  0  0  0  0  0  0  0
   24.1077  -21.7775   -9.5607 C   0  0  0  0  0  0  0  0  0  0  0  0
   24.7765  -21.1263  -10.7431 C   0  0  1  0  0  0  0  0  0  0  0  0
   23.8270  -20.8599  -11.8721 C   0  0  0  0  0  0  0  0  0  0  0  0
   25.6591  -19.9864  -10.4001 C   0  0  2  0  0  0  0  0  0  0  0  0
   26.2745  -19.5181  -11.6505 N   0  0  0  0  0  0  0  0  0  0  0  0
   26.6535  -20.1801   -9.3558 C   0  0  0  0  0  0  0  0  0  0  0  0
   27.5373  -21.0929   -9.5625 O   0  0  0  0  0  0  0  0  0  0  0  0
   26.7902  -19.5040   -8.1380 N   0  0  0  0  0  0  0  0  0  0  0  0
   27.7185  -19.8776   -7.0920 C   0  0  1  0  0  0  0  0  0  0  0  0
   28.0244  -18.7658   -6.1385 C   0  0  0  0  0  0  0  0  0  0  0  0
   27.7187  -17.1587   -6.8984 S   0  0  0  0  0  0  0  0  0  0  0  0
   27.3215  -21.0881   -6.3742 C   0  0  0  0  0  0  0  0  0  0  0  0
   28.2090  -21.6930   -5.5147 O   0  0  0  0  0  0  0  0  0  0  0  0
   26.1906  -21.5767   -6.5317 O   0  0  0  0  0  0  0  0  0  0  0  0
  2 10  1  0
  2  1  1  6
  3  2  1  0
  4  3  1  0
  5  4  2  0
  6  5  1  0
  7  6  2  0
  7  8  1  0
  8  9  2  0
  9  4  1  0
 10 16  1  0
 11 10  2  0
 13 12  1  1
 14 13  1  0
 15 13  1  0
 15 16  1  6
 17 18  2  0
 17 15  1  0
 19 17  1  0
 20 19  1  0
 21 22  1  0
 20 21  1  1
 23 20  1  0
 23 24  1  0
 25 23  2  0
M  END
$$$$
