FVC.pdb
     RDKit          3D

 25 25  0  0  1  0  0  0  0  0999 V2000
   27.3408  -20.3061  -17.3429 N   0  0  0  0  0  0  0  0  0  0  0  0
   26.6082  -19.4795  -16.4098 C   0  0  1  0  0  0  0  0  0  0  0  0
   25.4928  -18.7984  -17.1657 C   0  0  0  0  0  0  0  0  0  0  0  0
   26.0471  -17.7961  -18.1041 C   0  0  0  0  0  0  0  0  0  0  0  0
   26.5905  -16.6096  -17.6392 C   0  0  0  0  0  0  0  0  0  0  0  0
   27.1127  -15.6768  -18.5374 C   0  0  0  0  0  0  0  0  0  0  0  0
   27.1019  -15.9082  -19.8849 C   0  0  0  0  0  0  0  0  0  0  0  0
   26.5619  -17.0871  -20.3536 C   0  0  0  0  0  0  0  0  0  0  0  0
   26.0526  -17.9951  -19.4699 C   0  0  0  0  0  0  0  0  0  0  0  0
   25.9922  -20.3207  -15.3410 C   0  0  0  0  0  0  0  0  0  0  0  0
   25.6180  -21.4807  -15.6402 O   0  0  0  0  0  0  0  0  0  0  0  0
   25.7103  -21.4489  -10.6122 C   0  0  0  0  0  0  0  0  0  0  0  0
   26.1867  -20.6894  -11.8229 C   0  0  1  0  0  0  0  0  0  0  0  0
   27.5823  -21.0589  -12.2270 C   0  0  0  0  0  0  0  0  0  0  0  0
   25.2153  -20.6416  -12.9408 C   0  0  2  0  0  0  0  0  0  0  0  0
   25.8243  -19.8444  -14.0156 N   0  0  0  0  0  0  0  0  0  0  0  0
   23.8594  -20.2001  -12.6518 C   0  0  0  0  0  0  0  0  0  0  0  0
   23.6218  -18.9419  -12.7832 O   0  0  0  0  0  0  0  0  0  0  0  0
   22.7570  -20.9603  -12.2450 N   0  0  0  0  0  0  0  0  0  0  0  0
   21.3961  -20.7304  -12.6814 C   0  0  1  0  0  0  0  0  0  0  0  0
   21.2484  -20.6599  -14.1686 C   0  0  0  0  0  0  0  0  0  0  0  0
   21.2361  -18.9481  -14.7375 S   0  0  0  0  0  0  0  0  0  0  0  0
   20.4387  -21.6734  -12.1047 C   0  0  0  0  0  0  0  0  0  0  0  0
   19.3785  -21.2023  -11.3657 O   0  0  0  0  0  0  0  0  0  0  0  0
   20.5720  -22.8963  -12.2753 O   0  0  0  0  0  0  0  0  0  0  0  0
  2 10  1  0
  2  1  1  6
  3  2  1  0
  4  3  1  0
  5  4  2  0
  6  5  1  0
  7  6  2  0
  7  8  1  0
  8  9  2  0
  9  4  1  0
 10 16  1  0
 11 10  2  0
 13 12  1  1
 14 13  1  0
 15 13  1  0
 15 16  1  6
 17 18  2  0
 17 15  1  0
 19 17  1  0
 20 19  1  0
 21 22  1  0
 20 21  1  6
 23 20  1  0
 23 24  1  0
 25 23  2  0
M  END
$$$$
