FVC.pdb
     RDKit          3D

 25 25  0  0  1  0  0  0  0  0999 V2000
   28.5018  -20.8342   -8.9987 N   0  0  0  0  0  0  0  0  0  0  0  0
   27.0647  -20.7100   -8.8980 C   0  0  1  0  0  0  0  0  0  0  0  0
   26.7597  -19.5562   -7.9734 C   0  0  0  0  0  0  0  0  0  0  0  0
   27.5128  -19.7013   -6.7069 C   0  0  0  0  0  0  0  0  0  0  0  0
   27.0760  -20.5624   -5.7134 C   0  0  0  0  0  0  0  0  0  0  0  0
   27.8002  -20.6904   -4.5267 C   0  0  0  0  0  0  0  0  0  0  0  0
   28.9477  -19.9772   -4.3167 C   0  0  0  0  0  0  0  0  0  0  0  0
   29.3872  -19.1183   -5.3017 C   0  0  0  0  0  0  0  0  0  0  0  0
   28.6741  -18.9974   -6.4600 C   0  0  0  0  0  0  0  0  0  0  0  0
   26.4740  -20.3975  -10.2333 C   0  0  0  0  0  0  0  0  0  0  0  0
   27.2221  -19.9069  -11.1134 O   0  0  0  0  0  0  0  0  0  0  0  0
   26.7729  -21.0418  -12.8538 C   0  0  0  0  0  0  0  0  0  0  0  0
   25.3034  -21.3648  -12.7798 C   0  0  1  0  0  0  0  0  0  0  0  0
   25.0397  -22.8312  -12.6138 C   0  0  0  0  0  0  0  0  0  0  0  0
   24.5271  -20.4934  -11.8666 C   0  0  2  0  0  0  0  0  0  0  0  0
   25.1070  -20.6404  -10.5237 N   0  0  0  0  0  0  0  0  0  0  0  0
   23.0801  -20.6431  -11.8422 C   0  0  0  0  0  0  0  0  0  0  0  0
   22.6055  -21.5350  -11.0446 O   0  0  0  0  0  0  0  0  0  0  0  0
   22.1131  -19.9440  -12.5736 N   0  0  0  0  0  0  0  0  0  0  0  0
   20.6843  -20.0862  -12.3903 C   0  0  1  0  0  0  0  0  0  0  0  0
   19.9372  -18.7933  -12.4861 C   0  0  0  0  0  0  0  0  0  0  0  0
   20.5489  -17.6011  -11.2786 S   0  0  0  0  0  0  0  0  0  0  0  0
   20.0895  -21.0999  -13.2602 C   0  0  0  0  0  0  0  0  0  0  0  0
   18.8677  -21.6434  -12.9375 O   0  0  0  0  0  0  0  0  0  0  0  0
   20.6755  -21.4759  -14.2886 O   0  0  0  0  0  0  0  0  0  0  0  0
  2 10  1  0
  2  1  1  6
  3  2  1  0
  4  3  1  0
  5  4  2  0
  6  5  1  0
  7  6  2  0
  7  8  1  0
  8  9  2  0
  9  4  1  0
 10 16  1  0
 11 10  2  0
 13 12  1  1
 14 13  1  0
 15 13  1  0
 15 16  1  1
 17 18  2  0
 17 15  1  0
 19 17  1  0
 20 19  1  0
 21 22  1  0
 20 21  1  6
 23 20  1  0
 23 24  1  0
 25 23  2  0
M  END
$$$$
