FVC.pdb
     RDKit          3D

 25 25  0  0  1  0  0  0  0  0999 V2000
   23.4550  -20.0872  -14.7333 N   0  0  0  0  0  0  0  0  0  0  0  0
   22.6707  -19.6540  -13.5985 C   0  0  1  0  0  0  0  0  0  0  0  0
   21.2114  -19.8010  -13.9563 C   0  0  0  0  0  0  0  0  0  0  0  0
   20.8726  -18.9220  -15.0985 C   0  0  0  0  0  0  0  0  0  0  0  0
   20.5553  -17.5880  -14.9007 C   0  0  0  0  0  0  0  0  0  0  0  0
   20.2421  -16.7717  -15.9893 C   0  0  0  0  0  0  0  0  0  0  0  0
   20.2412  -17.2625  -17.2654 C   0  0  0  0  0  0  0  0  0  0  0  0
   20.5557  -18.5895  -17.4685 C   0  0  0  0  0  0  0  0  0  0  0  0
   20.8608  -19.3826  -16.3996 C   0  0  0  0  0  0  0  0  0  0  0  0
   22.9435  -20.5224  -12.4148 C   0  0  0  0  0  0  0  0  0  0  0  0
   24.0159  -21.1738  -12.3908 O   0  0  0  0  0  0  0  0  0  0  0  0
   23.9639  -20.9223   -8.1255 C   0  0  0  0  0  0  0  0  0  0  0  0
   23.5946  -20.5724   -9.5434 C   0  0  1  0  0  0  0  0  0  0  0  0
   24.7642  -20.6339  -10.4792 C   0  0  0  0  0  0  0  0  0  0  0  0
   22.3712  -21.2423  -10.0438 C   0  0  2  0  0  0  0  0  0  0  0  0
   22.0309  -20.6245  -11.3338 N   0  0  0  0  0  0  0  0  0  0  0  0
   21.2159  -21.3064   -9.1617 C   0  0  0  0  0  0  0  0  0  0  0  0
   20.6471  -20.1883   -8.8733 O   0  0  0  0  0  0  0  0  0  0  0  0
   20.6233  -22.4289   -8.5721 N   0  0  0  0  0  0  0  0  0  0  0  0
   19.4592  -22.3859   -7.7129 C   0  0  1  0  0  0  0  0  0  0  0  0
   18.1668  -22.5558   -8.4474 C   0  0  0  0  0  0  0  0  0  0  0  0
   18.4097  -23.4734   -9.9813 S   0  0  0  0  0  0  0  0  0  0  0  0
   19.5433  -23.3086   -6.5816 C   0  0  0  0  0  0  0  0  0  0  0  0
   18.5999  -23.2496   -5.5821 O   0  0  0  0  0  0  0  0  0  0  0  0
   20.4576  -24.1463   -6.5131 O   0  0  0  0  0  0  0  0  0  0  0  0
  2 10  1  0
  2  1  1  6
  3  2  1  0
  4  3  1  0
  5  4  2  0
  6  5  1  0
  7  6  2  0
  7  8  1  0
  8  9  2  0
  9  4  1  0
 10 16  1  0
 11 10  2  0
 13 12  1  1
 14 13  1  0
 15 13  1  0
 15 16  1  6
 17 18  2  0
 17 15  1  0
 19 17  1  0
 20 19  1  0
 21 22  1  0
 20 21  1  6
 23 20  1  0
 23 24  1  0
 25 23  2  0
M  END
$$$$
