FVC.pdb
     RDKit          3D

 25 25  0  0  1  0  0  0  0  0999 V2000
   25.7311  -38.3658   -7.8845 N   0  0  0  0  0  0  0  0  0  0  0  0
   25.0708  -38.0054   -6.6497 C   0  0  1  0  0  0  0  0  0  0  0  0
   25.1014  -39.2071   -5.7362 C   0  0  0  0  0  0  0  0  0  0  0  0
   24.1645  -40.2451   -6.2231 C   0  0  0  0  0  0  0  0  0  0  0  0
   24.6340  -41.4361   -6.7526 C   0  0  0  0  0  0  0  0  0  0  0  0
   23.7368  -42.4062   -7.2035 C   0  0  0  0  0  0  0  0  0  0  0  0
   22.3858  -42.2082   -7.1343 C   0  0  0  0  0  0  0  0  0  0  0  0
   21.9125  -41.0246   -6.6088 C   0  0  0  0  0  0  0  0  0  0  0  0
   22.7953  -40.0797   -6.1697 C   0  0  0  0  0  0  0  0  0  0  0  0
   25.8031  -36.8944   -5.9723 C   0  0  0  0  0  0  0  0  0  0  0  0
   27.0295  -36.7634   -6.2043 O   0  0  0  0  0  0  0  0  0  0  0  0
   25.3535  -32.5038   -3.7398 C   0  0  0  0  0  0  0  0  0  0  0  0
   24.9826  -33.6739   -4.6132 C   0  0  1  0  0  0  0  0  0  0  0  0
   24.7600  -33.2824   -6.0431 C   0  0  0  0  0  0  0  0  0  0  0  0
   25.8335  -34.8730   -4.4294 C   0  0  2  0  0  0  0  0  0  0  0  0
   25.1521  -35.9977   -5.0868 N   0  0  0  0  0  0  0  0  0  0  0  0
   26.2494  -35.2173   -3.0783 C   0  0  0  0  0  0  0  0  0  0  0  0
   25.3446  -35.7023   -2.3018 O   0  0  0  0  0  0  0  0  0  0  0  0
   27.5143  -35.0955   -2.4917 N   0  0  0  0  0  0  0  0  0  0  0  0
   27.8340  -35.5016   -1.1396 C   0  0  1  0  0  0  0  0  0  0  0  0
   29.2949  -35.7336   -0.9143 C   0  0  0  0  0  0  0  0  0  0  0  0
   30.2620  -34.2902   -1.3993 S   0  0  0  0  0  0  0  0  0  0  0  0
   27.2836  -34.6060   -0.1232 C   0  0  0  0  0  0  0  0  0  0  0  0
   26.8262  -33.3608   -0.4873 O   0  0  0  0  0  0  0  0  0  0  0  0
   27.2239  -34.9575    1.0664 O   0  0  0  0  0  0  0  0  0  0  0  0
  2 10  1  0
  2  1  1  6
  3  2  1  0
  4  3  1  0
  5  4  2  0
  6  5  1  0
  7  6  2  0
  7  8  1  0
  8  9  2  0
  9  4  1  0
 10 16  1  0
 11 10  2  0
 13 12  1  1
 14 13  1  0
 15 13  1  0
 15 16  1  1
 17 18  2  0
 17 15  1  0
 19 17  1  0
 20 19  1  0
 21 22  1  0
 20 21  1  6
 23 20  1  0
 23 24  1  0
 25 23  2  0
M  END
$$$$
