FVC.pdb
     RDKit          3D

 25 25  0  0  1  0  0  0  0  0999 V2000
   23.7978  -32.8715  -11.0479 N   0  0  0  0  0  0  0  0  0  0  0  0
   23.9596  -32.3435   -9.7116 C   0  0  1  0  0  0  0  0  0  0  0  0
   22.5853  -32.0849   -9.1425 C   0  0  0  0  0  0  0  0  0  0  0  0
   21.9882  -30.8842   -9.7703 C   0  0  0  0  0  0  0  0  0  0  0  0
   22.4595  -29.6160   -9.4722 C   0  0  0  0  0  0  0  0  0  0  0  0
   21.8879  -28.4944  -10.0761 C   0  0  0  0  0  0  0  0  0  0  0  0
   20.8594  -28.6174  -10.9686 C   0  0  0  0  0  0  0  0  0  0  0  0
   20.3858  -29.8770  -11.2688 C   0  0  0  0  0  0  0  0  0  0  0  0
   20.9490  -30.9699  -10.6745 C   0  0  0  0  0  0  0  0  0  0  0  0
   24.6392  -33.3432   -8.8352 C   0  0  0  0  0  0  0  0  0  0  0  0
   24.5143  -34.5602   -9.1150 O   0  0  0  0  0  0  0  0  0  0  0  0
   28.3282  -34.2400   -5.7266 C   0  0  0  0  0  0  0  0  0  0  0  0
   27.5231  -33.5271   -6.7816 C   0  0  1  0  0  0  0  0  0  0  0  0
   28.2037  -33.5097   -8.1172 C   0  0  0  0  0  0  0  0  0  0  0  0
   26.0919  -33.9089   -6.8259 C   0  0  2  0  0  0  0  0  0  0  0  0
   25.4114  -32.9526   -7.7113 N   0  0  0  0  0  0  0  0  0  0  0  0
   25.3848  -34.0636   -5.5637 C   0  0  0  0  0  0  0  0  0  0  0  0
   24.5557  -33.1309   -5.2486 O   0  0  0  0  0  0  0  0  0  0  0  0
   25.4777  -35.0994   -4.6272 N   0  0  0  0  0  0  0  0  0  0  0  0
   24.7215  -35.1611   -3.3945 C   0  0  1  0  0  0  0  0  0  0  0  0
   23.2725  -35.4747   -3.5965 C   0  0  0  0  0  0  0  0  0  0  0  0
   22.4333  -35.7041   -2.0164 S   0  0  0  0  0  0  0  0  0  0  0  0
   25.3153  -36.0510   -2.3977 C   0  0  0  0  0  0  0  0  0  0  0  0
   25.2641  -35.7129   -1.0652 O   0  0  0  0  0  0  0  0  0  0  0  0
   25.8657  -37.1101   -2.7409 O   0  0  0  0  0  0  0  0  0  0  0  0
  2 10  1  0
  2  1  1  6
  3  2  1  0
  4  3  1  0
  5  4  2  0
  6  5  1  0
  7  6  2  0
  7  8  1  0
  8  9  2  0
  9  4  1  0
 10 16  1  0
 11 10  2  0
 13 12  1  1
 14 13  1  0
 15 13  1  0
 15 16  1  6
 17 18  2  0
 17 15  1  0
 19 17  1  0
 20 19  1  0
 21 22  1  0
 20 21  1  6
 23 20  1  0
 23 24  1  0
 25 23  2  0
M  END
$$$$
