FVC.pdb
     RDKit          3D

 25 25  0  0  1  0  0  0  0  0999 V2000
   27.4000  -19.7237  -17.7827 N   0  0  0  0  0  0  0  0  0  0  0  0
   27.0400  -18.9795  -16.5964 C   0  0  1  0  0  0  0  0  0  0  0  0
   26.1598  -17.8275  -17.0173 C   0  0  0  0  0  0  0  0  0  0  0  0
   26.9272  -16.8737  -17.8502 C   0  0  0  0  0  0  0  0  0  0  0  0
   26.3936  -16.3623  -19.0220 C   0  0  0  0  0  0  0  0  0  0  0  0
   27.1291  -15.4606  -19.7937 C   0  0  0  0  0  0  0  0  0  0  0  0
   28.3815  -15.0627  -19.4164 C   0  0  0  0  0  0  0  0  0  0  0  0
   28.9180  -15.5686  -18.2514 C   0  0  0  0  0  0  0  0  0  0  0  0
   28.1937  -16.4503  -17.5013 C   0  0  0  0  0  0  0  0  0  0  0  0
   26.2559  -19.8389  -15.6603 C   0  0  0  0  0  0  0  0  0  0  0  0
   25.5935  -20.7901  -16.1413 O   0  0  0  0  0  0  0  0  0  0  0  0
   25.8159  -21.3993  -10.9827 C   0  0  0  0  0  0  0  0  0  0  0  0
   26.4401  -20.6657  -12.1411 C   0  0  1  0  0  0  0  0  0  0  0  0
   27.8035  -21.1834  -12.4882 C   0  0  0  0  0  0  0  0  0  0  0  0
   25.5414  -20.4729  -13.3034 C   0  0  2  0  0  0  0  0  0  0  0  0
   26.2447  -19.6070  -14.2610 N   0  0  0  0  0  0  0  0  0  0  0  0
   24.1880  -20.0015  -13.0521 C   0  0  0  0  0  0  0  0  0  0  0  0
   24.0721  -18.8282  -12.5355 O   0  0  0  0  0  0  0  0  0  0  0  0
   22.9729  -20.6515  -13.2965 N   0  0  0  0  0  0  0  0  0  0  0  0
   21.6701  -20.0921  -13.0050 C   0  0  1  0  0  0  0  0  0  0  0  0
   20.9657  -19.5559  -14.2112 C   0  0  0  0  0  0  0  0  0  0  0  0
   20.9426  -20.7734  -15.5420 S   0  0  0  0  0  0  0  0  0  0  0  0
   20.8057  -21.0034  -12.2563 C   0  0  0  0  0  0  0  0  0  0  0  0
   19.6596  -20.5246  -11.6652 O   0  0  0  0  0  0  0  0  0  0  0  0
   21.0948  -22.2064  -12.1484 O   0  0  0  0  0  0  0  0  0  0  0  0
  2 10  1  0
  2  1  1  6
  3  2  1  0
  4  3  1  0
  5  4  2  0
  6  5  1  0
  7  6  2  0
  7  8  1  0
  8  9  2  0
  9  4  1  0
 10 16  1  0
 11 10  2  0
 13 12  1  1
 14 13  1  0
 15 13  1  0
 15 16  1  6
 17 18  2  0
 17 15  1  0
 19 17  1  0
 20 19  1  0
 21 22  1  0
 20 21  1  6
 23 20  1  0
 23 24  1  0
 25 23  2  0
M  END
$$$$
