FVC.pdb
     RDKit          3D

 25 25  0  0  1  0  0  0  0  0999 V2000
   15.8628  -14.7490  -17.0686 N   0  0  0  0  0  0  0  0  0  0  0  0
   16.4494  -15.3457  -15.8894 C   0  0  1  0  0  0  0  0  0  0  0  0
   15.7710  -14.7510  -14.6788 C   0  0  0  0  0  0  0  0  0  0  0  0
   16.0533  -13.3000  -14.5941 C   0  0  0  0  0  0  0  0  0  0  0  0
   15.0700  -12.3657  -14.8759 C   0  0  0  0  0  0  0  0  0  0  0  0
   15.3518  -11.0010  -14.7872 C   0  0  0  0  0  0  0  0  0  0  0  0
   16.5924  -10.5562  -14.4232 C   0  0  0  0  0  0  0  0  0  0  0  0
   17.5753  -11.4814  -14.1420 C   0  0  0  0  0  0  0  0  0  0  0  0
   17.2932  -12.8146  -14.2308 C   0  0  0  0  0  0  0  0  0  0  0  0
   16.2064  -16.8188  -15.8750 C   0  0  0  0  0  0  0  0  0  0  0  0
   15.0587  -17.2341  -16.1671 O   0  0  0  0  0  0  0  0  0  0  0  0
   18.4191  -21.2513  -15.9622 C   0  0  0  0  0  0  0  0  0  0  0  0
   18.1522  -19.8050  -16.2888 C   0  0  1  0  0  0  0  0  0  0  0  0
   18.1238  -19.5395  -17.7639 C   0  0  0  0  0  0  0  0  0  0  0  0
   17.0295  -19.2007  -15.5336 C   0  0  2  0  0  0  0  0  0  0  0  0
   17.2292  -17.7442  -15.5442 N   0  0  0  0  0  0  0  0  0  0  0  0
   16.7638  -19.6930  -14.1905 C   0  0  0  0  0  0  0  0  0  0  0  0
   17.5891  -19.3339  -13.2703 O   0  0  0  0  0  0  0  0  0  0  0  0
   15.7210  -20.5146  -13.7474 N   0  0  0  0  0  0  0  0  0  0  0  0
   15.5119  -20.9033  -12.3689 C   0  0  1  0  0  0  0  0  0  0  0  0
   14.3372  -20.2322  -11.7296 C   0  0  0  0  0  0  0  0  0  0  0  0
   12.8003  -20.6955  -12.5522 S   0  0  0  0  0  0  0  0  0  0  0  0
   15.4529  -22.3522  -12.1810 C   0  0  0  0  0  0  0  0  0  0  0  0
   15.4613  -22.8756  -10.9089 O   0  0  0  0  0  0  0  0  0  0  0  0
   15.3946  -23.1165  -13.1581 O   0  0  0  0  0  0  0  0  0  0  0  0
  2 10  1  0
  2  1  1  6
  3  2  1  0
  4  3  1  0
  5  4  2  0
  6  5  1  0
  7  6  2  0
  7  8  1  0
  8  9  2  0
  9  4  1  0
 10 16  1  0
 11 10  2  0
 13 12  1  6
 14 13  1  0
 15 13  1  0
 15 16  1  1
 17 18  2  0
 17 15  1  0
 19 17  1  0
 20 19  1  0
 21 22  1  0
 20 21  1  6
 23 20  1  0
 23 24  1  0
 25 23  2  0
M  END
$$$$
