FVC.pdb
     RDKit          3D

 25 25  0  0  1  0  0  0  0  0999 V2000
   26.5837  -22.2461  -10.0635 N   0  0  0  0  0  0  0  0  0  0  0  0
   26.2658  -20.9218  -10.5491 C   0  0  1  0  0  0  0  0  0  0  0  0
   27.4604  -20.0334  -10.2981 C   0  0  0  0  0  0  0  0  0  0  0  0
   27.6669  -19.8511   -8.8433 C   0  0  0  0  0  0  0  0  0  0  0  0
   26.8383  -19.0218   -8.1050 C   0  0  0  0  0  0  0  0  0  0  0  0
   27.0444  -18.8641   -6.7331 C   0  0  0  0  0  0  0  0  0  0  0  0
   28.0583  -19.5177   -6.0895 C   0  0  0  0  0  0  0  0  0  0  0  0
   28.8865  -20.3440   -6.8191 C   0  0  0  0  0  0  0  0  0  0  0  0
   28.6798  -20.4937   -8.1606 C   0  0  0  0  0  0  0  0  0  0  0  0
   26.0170  -20.9524  -12.0211 C   0  0  0  0  0  0  0  0  0  0  0  0
   26.2970  -22.0025  -12.6488 O   0  0  0  0  0  0  0  0  0  0  0  0
   23.2841  -20.9939  -15.5337 C   0  0  0  0  0  0  0  0  0  0  0  0
   24.0253  -20.9623  -14.2226 C   0  0  1  0  0  0  0  0  0  0  0  0
   24.5012  -22.3173  -13.7927 C   0  0  0  0  0  0  0  0  0  0  0  0
   25.0437  -19.8910  -14.1171 C   0  0  2  0  0  0  0  0  0  0  0  0
   25.4788  -19.8379  -12.7137 N   0  0  0  0  0  0  0  0  0  0  0  0
   24.7021  -18.5692  -14.6202 C   0  0  0  0  0  0  0  0  0  0  0  0
   23.7149  -17.9718  -14.0497 O   0  0  0  0  0  0  0  0  0  0  0  0
   25.3038  -17.8409  -15.6528 N   0  0  0  0  0  0  0  0  0  0  0  0
   24.9694  -16.4750  -15.9962 C   0  0  1  0  0  0  0  0  0  0  0  0
   26.1061  -15.7154  -16.6041 C   0  0  0  0  0  0  0  0  0  0  0  0
   27.6450  -16.0346  -15.7187 S   0  0  0  0  0  0  0  0  0  0  0  0
   23.7668  -16.3658  -16.8208 C   0  0  0  0  0  0  0  0  0  0  0  0
   23.0159  -15.2139  -16.7822 O   0  0  0  0  0  0  0  0  0  0  0  0
   23.4155  -17.3024  -17.5570 O   0  0  0  0  0  0  0  0  0  0  0  0
  2 10  1  0
  2  1  1  6
  3  2  1  0
  4  3  1  0
  5  4  2  0
  6  5  1  0
  7  6  2  0
  7  8  1  0
  8  9  2  0
  9  4  1  0
 10 16  1  0
 11 10  2  0
 13 12  1  6
 14 13  1  0
 15 13  1  0
 15 16  1  1
 17 18  2  0
 17 15  1  0
 19 17  1  0
 20 19  1  0
 21 22  1  0
 20 21  1  6
 23 20  1  0
 23 24  1  0
 25 23  2  0
M  END
$$$$
