FVC.pdb
     RDKit          3D

 25 25  0  0  1  0  0  0  0  0999 V2000
   26.6743  -18.2848   -8.1965 N   0  0  0  0  0  0  0  0  0  0  0  0
   26.9059  -19.6631   -8.5670 C   0  0  1  0  0  0  0  0  0  0  0  0
   26.5062  -20.5336   -7.4000 C   0  0  0  0  0  0  0  0  0  0  0  0
   27.3646  -20.2459   -6.2284 C   0  0  0  0  0  0  0  0  0  0  0  0
   26.8580  -20.3138   -4.9408 C   0  0  0  0  0  0  0  0  0  0  0  0
   27.6821  -20.0435   -3.8466 C   0  0  0  0  0  0  0  0  0  0  0  0
   28.9970  -19.7089   -4.0159 C   0  0  0  0  0  0  0  0  0  0  0  0
   29.5068  -19.6392   -5.2951 C   0  0  0  0  0  0  0  0  0  0  0  0
   28.6953  -19.9045   -6.3609 C   0  0  0  0  0  0  0  0  0  0  0  0
   26.0535  -20.0392   -9.7339 C   0  0  0  0  0  0  0  0  0  0  0  0
   24.8656  -19.6351   -9.7561 O   0  0  0  0  0  0  0  0  0  0  0  0
   26.9121  -20.7154  -14.5456 C   0  0  0  0  0  0  0  0  0  0  0  0
   27.2387  -20.7305  -13.0750 C   0  0  1  0  0  0  0  0  0  0  0  0
   28.2987  -19.7367  -12.7063 C   0  0  0  0  0  0  0  0  0  0  0  0
   26.0560  -20.7277  -12.1821 C   0  0  2  0  0  0  0  0  0  0  0  0
   26.5504  -20.8302  -10.8012 N   0  0  0  0  0  0  0  0  0  0  0  0
   24.9983  -21.6920  -12.4430 C   0  0  0  0  0  0  0  0  0  0  0  0
   24.9240  -22.6978  -11.6431 O   0  0  0  0  0  0  0  0  0  0  0  0
   24.0327  -21.6827  -13.4560 N   0  0  0  0  0  0  0  0  0  0  0  0
   22.6103  -21.8351  -13.2350 C   0  0  1  0  0  0  0  0  0  0  0  0
   22.0860  -20.9962  -12.1124 C   0  0  0  0  0  0  0  0  0  0  0  0
   20.4767  -21.5914  -11.5563 S   0  0  0  0  0  0  0  0  0  0  0  0
   21.8148  -21.6438  -14.4469 C   0  0  0  0  0  0  0  0  0  0  0  0
   20.8524  -22.5672  -14.7835 O   0  0  0  0  0  0  0  0  0  0  0  0
   21.9981  -20.6555  -15.1764 O   0  0  0  0  0  0  0  0  0  0  0  0
  2 10  1  0
  2  1  1  1
  3  2  1  0
  4  3  1  0
  5  4  2  0
  6  5  1  0
  7  6  2  0
  7  8  1  0
  8  9  2  0
  9  4  1  0
 10 16  1  0
 11 10  2  0
 13 12  1  6
 14 13  1  0
 15 13  1  0
 15 16  1  1
 17 18  2  0
 17 15  1  0
 19 17  1  0
 20 19  1  0
 21 22  1  0
 20 21  1  1
 23 20  1  0
 23 24  1  0
 25 23  2  0
M  END
$$$$
