FVC.pdb
     RDKit          3D

 25 25  0  0  1  0  0  0  0  0999 V2000
   27.1217  -18.5312   -8.4549 N   0  0  0  0  0  0  0  0  0  0  0  0
   26.9978  -19.9489   -8.7110 C   0  0  1  0  0  0  0  0  0  0  0  0
   26.6151  -20.6252   -7.4166 C   0  0  0  0  0  0  0  0  0  0  0  0
   27.6490  -20.3808   -6.3853 C   0  0  0  0  0  0  0  0  0  0  0  0
   28.8429  -21.0835   -6.3935 C   0  0  0  0  0  0  0  0  0  0  0  0
   29.8091  -20.8379   -5.4159 C   0  0  0  0  0  0  0  0  0  0  0  0
   29.6043  -19.9067   -4.4360 C   0  0  0  0  0  0  0  0  0  0  0  0
   28.4179  -19.2044   -4.4224 C   0  0  0  0  0  0  0  0  0  0  0  0
   27.4769  -19.4496   -5.3812 C   0  0  0  0  0  0  0  0  0  0  0  0
   25.9115  -20.2061   -9.7026 C   0  0  0  0  0  0  0  0  0  0  0  0
   24.8415  -19.5596   -9.5922 O   0  0  0  0  0  0  0  0  0  0  0  0
   26.1550  -21.3874  -14.5034 C   0  0  0  0  0  0  0  0  0  0  0  0
   26.5799  -21.3941  -13.0581 C   0  0  1  0  0  0  0  0  0  0  0  0
   27.9264  -20.7701  -12.8467 C   0  0  0  0  0  0  0  0  0  0  0  0
   25.5366  -20.9416  -12.1080 C   0  0  2  0  0  0  0  0  0  0  0  0
   26.0612  -21.1502  -10.7505 N   0  0  0  0  0  0  0  0  0  0  0  0
   24.1958  -21.4879  -12.2516 C   0  0  0  0  0  0  0  0  0  0  0  0
   24.0683  -22.7572  -12.0798 O   0  0  0  0  0  0  0  0  0  0  0  0
   23.0038  -20.8199  -12.5543 N   0  0  0  0  0  0  0  0  0  0  0  0
   21.7216  -21.4684  -12.7295 C   0  0  1  0  0  0  0  0  0  0  0  0
   20.5618  -20.5243  -12.6791 C   0  0  0  0  0  0  0  0  0  0  0  0
   20.5013  -19.6568  -11.0988 S   0  0  0  0  0  0  0  0  0  0  0  0
   21.6596  -22.3102  -13.9235 C   0  0  0  0  0  0  0  0  0  0  0  0
   21.0703  -23.5511  -13.8530 O   0  0  0  0  0  0  0  0  0  0  0  0
   22.1332  -21.9166  -15.0021 O   0  0  0  0  0  0  0  0  0  0  0  0
  2 10  1  0
  2  1  1  1
  3  2  1  0
  4  3  1  0
  5  4  2  0
  6  5  1  0
  7  6  2  0
  7  8  1  0
  8  9  2  0
  9  4  1  0
 10 16  1  0
 11 10  2  0
 13 12  1  6
 14 13  1  0
 15 13  1  0
 15 16  1  1
 17 18  2  0
 17 15  1  0
 19 17  1  0
 20 19  1  0
 21 22  1  0
 20 21  1  6
 23 20  1  0
 23 24  1  0
 25 23  2  0
M  END
$$$$
