FVC.pdb
     RDKit          3D

 25 25  0  0  1  0  0  0  0  0999 V2000
   26.1264  -11.8335  -17.3215 N   0  0  0  0  0  0  0  0  0  0  0  0
   26.0225  -10.4551  -16.8974 C   0  0  1  0  0  0  0  0  0  0  0  0
   26.7302   -9.5980  -17.9191 C   0  0  0  0  0  0  0  0  0  0  0  0
   28.1546   -9.9898  -18.0186 C   0  0  0  0  0  0  0  0  0  0  0  0
   28.5726  -10.9235  -18.9527 C   0  0  0  0  0  0  0  0  0  0  0  0
   29.9203  -11.2788  -19.0361 C   0  0  0  0  0  0  0  0  0  0  0  0
   30.8527  -10.7198  -18.2070 C   0  0  0  0  0  0  0  0  0  0  0  0
   30.4426   -9.7902  -17.2748 C   0  0  0  0  0  0  0  0  0  0  0  0
   29.1230   -9.4472  -17.1983 C   0  0  0  0  0  0  0  0  0  0  0  0
   24.5919  -10.0301  -16.8527 C   0  0  0  0  0  0  0  0  0  0  0  0
   23.7232  -10.8221  -17.2923 O   0  0  0  0  0  0  0  0  0  0  0  0
   20.6895   -9.0768  -15.0406 C   0  0  0  0  0  0  0  0  0  0  0  0
   22.0700   -9.4452  -15.5183 C   0  0  1  0  0  0  0  0  0  0  0  0
   22.1024  -10.7587  -16.2399 C   0  0  0  0  0  0  0  0  0  0  0  0
   22.7971   -8.3499  -16.2021 C   0  0  2  0  0  0  0  0  0  0  0  0
   24.1999   -8.7705  -16.3316 N   0  0  0  0  0  0  0  0  0  0  0  0
   22.6912   -7.0080  -15.6499 C   0  0  0  0  0  0  0  0  0  0  0  0
   23.0395   -6.8611  -14.4194 O   0  0  0  0  0  0  0  0  0  0  0  0
   22.2584   -5.8333  -16.2755 N   0  0  0  0  0  0  0  0  0  0  0  0
   22.2396   -4.5289  -15.6484 C   0  0  1  0  0  0  0  0  0  0  0  0
   22.3484   -3.3963  -16.6201 C   0  0  0  0  0  0  0  0  0  0  0  0
   22.3349   -1.8073  -15.7665 S   0  0  0  0  0  0  0  0  0  0  0  0
   21.1033   -4.3383  -14.7480 C   0  0  0  0  0  0  0  0  0  0  0  0
   21.3167   -3.8821  -13.4680 O   0  0  0  0  0  0  0  0  0  0  0  0
   19.9462   -4.5837  -15.1265 O   0  0  0  0  0  0  0  0  0  0  0  0
  2 10  1  0
  2  1  1  6
  3  2  1  0
  4  3  1  0
  5  4  2  0
  6  5  1  0
  7  6  2  0
  7  8  1  0
  8  9  2  0
  9  4  1  0
 10 16  1  0
 11 10  2  0
 13 12  1  6
 14 13  1  0
 15 13  1  0
 15 16  1  1
 17 18  2  0
 17 15  1  0
 19 17  1  0
 20 19  1  0
 21 22  1  0
 20 21  1  6
 23 20  1  0
 23 24  1  0
 25 23  2  0
M  END
$$$$
