FVC.pdb
     RDKit          3D

 25 25  0  0  1  0  0  0  0  0999 V2000
   24.2712  -19.6979  -18.0714 N   0  0  0  0  0  0  0  0  0  0  0  0
   24.3972  -19.0956  -16.7629 C   0  0  1  0  0  0  0  0  0  0  0  0
   23.0092  -18.7855  -16.2563 C   0  0  0  0  0  0  0  0  0  0  0  0
   22.4031  -17.6967  -17.0560 C   0  0  0  0  0  0  0  0  0  0  0  0
   21.6107  -17.9782  -18.1570 C   0  0  0  0  0  0  0  0  0  0  0  0
   21.0433  -16.9396  -18.8978 C   0  0  0  0  0  0  0  0  0  0  0  0
   21.2524  -15.6316  -18.5591 C   0  0  0  0  0  0  0  0  0  0  0  0
   22.0405  -15.3452  -17.4646 C   0  0  0  0  0  0  0  0  0  0  0  0
   22.5927  -16.3656  -16.7443 C   0  0  0  0  0  0  0  0  0  0  0  0
   25.0319  -20.0521  -15.8081 C   0  0  0  0  0  0  0  0  0  0  0  0
   25.4803  -21.1333  -16.2608 O   0  0  0  0  0  0  0  0  0  0  0  0
   27.5186  -20.7523  -15.5545 C   0  0  0  0  0  0  0  0  0  0  0  0
   27.4226  -20.3460  -14.1070 C   0  0  1  0  0  0  0  0  0  0  0  0
   28.1067  -19.0425  -13.8241 C   0  0  0  0  0  0  0  0  0  0  0  0
   26.0664  -20.4682  -13.5224 C   0  0  2  0  0  0  0  0  0  0  0  0
   25.1376  -19.7688  -14.4223 N   0  0  0  0  0  0  0  0  0  0  0  0
   25.8776  -20.0601  -12.1387 C   0  0  0  0  0  0  0  0  0  0  0  0
   25.9140  -18.7958  -11.8997 O   0  0  0  0  0  0  0  0  0  0  0  0
   25.6575  -20.8586  -11.0106 N   0  0  0  0  0  0  0  0  0  0  0  0
   25.4364  -20.3478   -9.6744 C   0  0  1  0  0  0  0  0  0  0  0  0
   24.2641  -20.9692   -8.9826 C   0  0  0  0  0  0  0  0  0  0  0  0
   22.8480  -21.0928  -10.0931 S   0  0  0  0  0  0  0  0  0  0  0  0
   26.6302  -20.4019   -8.8317 C   0  0  0  0  0  0  0  0  0  0  0  0
   27.7569  -21.0469   -9.2862 O   0  0  0  0  0  0  0  0  0  0  0  0
   26.6384  -19.8710   -7.7089 O   0  0  0  0  0  0  0  0  0  0  0  0
  2 10  1  0
  2  1  1  6
  3  2  1  0
  4  3  1  0
  5  4  2  0
  6  5  1  0
  7  6  2  0
  7  8  1  0
  8  9  2  0
  9  4  1  0
 10 16  1  0
 11 10  2  0
 13 12  1  6
 14 13  1  0
 15 13  1  0
 15 16  1  6
 17 18  2  0
 17 15  1  0
 19 17  1  0
 20 19  1  0
 21 22  1  0
 20 21  1  1
 23 20  1  0
 23 24  1  0
 25 23  2  0
M  END
$$$$
