YIV.pdb
     RDKit          3D

 28 28  0  0  1  0  0  0  0  0999 V2000
   26.8442  -13.1393  -18.7112 O   0  0  0  0  0  0  0  0  0  0  0  0
   26.6932  -14.2809  -17.9503 C   0  0  0  0  0  0  0  0  0  0  0  0
   27.4195  -14.3983  -16.7649 C   0  0  0  0  0  0  0  0  0  0  0  0
   27.2296  -15.5593  -16.0454 C   0  0  0  0  0  0  0  0  0  0  0  0
   26.3744  -16.5596  -16.4575 C   0  0  0  0  0  0  0  0  0  0  0  0
   26.2259  -17.7720  -15.6320 C   0  0  0  0  0  0  0  0  0  0  0  0
   27.5266  -18.5409  -15.5201 C   0  0  2  0  0  0  0  0  0  0  0  0
   27.7682  -19.1494  -16.8152 N   0  0  0  0  0  0  0  0  0  0  0  0
   27.3293  -19.5953  -14.4696 C   0  0  0  0  0  0  0  0  0  0  0  0
   26.6789  -20.6322  -14.7851 O   0  0  0  0  0  0  0  0  0  0  0  0
   25.6655  -16.4288  -17.6284 C   0  0  0  0  0  0  0  0  0  0  0  0
   25.8416  -15.2659  -18.3702 C   0  0  0  0  0  0  0  0  0  0  0  0
   31.1021  -21.0752  -11.0698 C   0  0  0  0  0  0  0  0  0  0  0  0
   29.9404  -20.9770  -12.0759 C   0  0  0  0  0  0  0  0  0  0  0  0
   28.7363  -20.6112  -11.2867 C   0  0  2  0  0  0  0  0  0  0  0  0
   28.4206  -21.5750  -10.1752 C   0  0  0  0  0  0  0  0  0  0  0  0
   27.5217  -20.4707  -12.1774 C   0  0  2  0  0  0  0  0  0  0  0  0
   27.8488  -19.4498  -13.1600 N   0  0  0  0  0  0  0  0  0  0  0  0
   26.2732  -20.1703  -11.4712 C   0  0  0  0  0  0  0  0  0  0  0  0
   26.0835  -19.0587  -10.9306 O   0  0  0  0  0  0  0  0  0  0  0  0
   22.7402  -20.8961  -12.9015 C   0  0  0  0  0  0  0  0  0  0  0  0
   22.7660  -21.3815  -11.4713 C   0  0  2  0  0  0  0  0  0  0  0  0
   21.5028  -20.9166  -10.7905 C   0  0  0  0  0  0  0  0  0  0  0  0
   23.9420  -20.8045  -10.7403 C   0  0  2  0  0  0  0  0  0  0  0  0
   25.2038  -21.1100  -11.3529 N   0  0  0  0  0  0  0  0  0  0  0  0
   23.9180  -21.1353   -9.2936 C   0  0  0  0  0  0  0  0  0  0  0  0
   23.2670  -20.3699   -8.3523 O   0  0  0  0  0  0  0  0  0  0  0  0
   24.5209  -22.1692   -8.8863 O   0  0  0  0  0  0  0  0  0  0  0  0
  2 12  2  0
  2  1  1  0
  3  2  1  0
  4  5  1  0
  4  3  2  0
  5 11  2  0
  6  5  1  0
  7  6  1  0
  7  8  1  6
  9 18  1  0
  9  7  1  0
 10  9  2  0
 11 12  1  0
 13 14  1  0
 15 16  1  1
 15 14  1  0
 17 18  1  6
 17 15  1  0
 19 17  1  0
 20 19  2  0
 22 21  1  6
 22 24  1  0
 23 22  1  0
 24 26  1  0
 24 25  1  6
 25 19  1  0
 26 27  1  0
 28 26  2  0
M  END
$$$$
