YIV.pdb
     RDKit          3D

 28 28  0  0  1  0  0  0  0  0999 V2000
   20.1183  -23.1781   -6.4440 O   0  0  0  0  0  0  0  0  0  0  0  0
   20.7717  -22.4787   -7.4385 C   0  0  0  0  0  0  0  0  0  0  0  0
   20.5251  -22.8165   -8.7695 C   0  0  0  0  0  0  0  0  0  0  0  0
   21.2050  -22.0851   -9.7205 C   0  0  0  0  0  0  0  0  0  0  0  0
   22.0832  -21.0731   -9.3946 C   0  0  0  0  0  0  0  0  0  0  0  0
   22.7723  -20.3369  -10.4702 C   0  0  0  0  0  0  0  0  0  0  0  0
   24.0279  -21.0509  -10.9274 C   0  0  2  0  0  0  0  0  0  0  0  0
   25.0488  -20.7862   -9.9305 N   0  0  0  0  0  0  0  0  0  0  0  0
   24.4169  -20.4596  -12.2516 C   0  0  0  0  0  0  0  0  0  0  0  0
   24.9113  -19.2963  -12.2592 O   0  0  0  0  0  0  0  0  0  0  0  0
   22.3155  -20.7522   -8.0780 C   0  0  0  0  0  0  0  0  0  0  0  0
   21.6405  -21.4769   -7.1019 C   0  0  0  0  0  0  0  0  0  0  0  0
   28.0167  -22.3654  -14.8829 C   0  0  0  0  0  0  0  0  0  0  0  0
   26.9131  -21.5215  -14.2185 C   0  0  0  0  0  0  0  0  0  0  0  0
   25.8258  -21.3939  -15.2224 C   0  0  2  0  0  0  0  0  0  0  0  0
   26.2809  -20.8435  -16.5467 C   0  0  0  0  0  0  0  0  0  0  0  0
   24.6941  -20.5394  -14.6959 C   0  0  2  0  0  0  0  0  0  0  0  0
   24.2423  -21.1687  -13.4652 N   0  0  0  0  0  0  0  0  0  0  0  0
   23.5924  -20.3291  -15.6392 C   0  0  0  0  0  0  0  0  0  0  0  0
   22.7992  -21.2516  -15.9282 O   0  0  0  0  0  0  0  0  0  0  0  0
   21.0596  -17.3800  -15.5650 C   0  0  0  0  0  0  0  0  0  0  0  0
   21.5962  -17.5036  -16.9715 C   0  0  2  0  0  0  0  0  0  0  0  0
   20.4390  -17.3865  -17.9319 C   0  0  0  0  0  0  0  0  0  0  0  0
   22.2486  -18.8396  -17.1711 C   0  0  2  0  0  0  0  0  0  0  0  0
   23.3517  -19.0771  -16.2837 N   0  0  0  0  0  0  0  0  0  0  0  0
   22.6001  -19.0833  -18.5923 C   0  0  0  0  0  0  0  0  0  0  0  0
   21.7812  -19.7571  -19.4703 O   0  0  0  0  0  0  0  0  0  0  0  0
   23.7043  -18.6577  -19.0371 O   0  0  0  0  0  0  0  0  0  0  0  0
  2 12  2  0
  2  1  1  0
  3  2  1  0
  4  5  1  0
  4  3  2  0
  5 11  2  0
  6  5  1  0
  7  6  1  0
  7  8  1  1
  9 18  1  0
  9  7  1  0
 10  9  2  0
 11 12  1  0
 13 14  1  0
 15 16  1  6
 15 14  1  0
 17 18  1  1
 17 15  1  0
 19 17  1  0
 20 19  2  0
 22 21  1  1
 22 24  1  0
 23 22  1  0
 24 26  1  0
 24 25  1  1
 25 19  1  0
 26 27  1  0
 28 26  2  0
M  END
$$$$
