YIV.pdb
     RDKit          3D

 28 28  0  0  1  0  0  0  0  0999 V2000
   28.2031  -13.9537  -18.4352 O   0  0  0  0  0  0  0  0  0  0  0  0
   27.6516  -14.9972  -17.7198 C   0  0  0  0  0  0  0  0  0  0  0  0
   26.9040  -15.9575  -18.4021 C   0  0  0  0  0  0  0  0  0  0  0  0
   26.3770  -16.9769  -17.6373 C   0  0  0  0  0  0  0  0  0  0  0  0
   26.5668  -17.0601  -16.2740 C   0  0  0  0  0  0  0  0  0  0  0  0
   25.9700  -18.1817  -15.5261 C   0  0  0  0  0  0  0  0  0  0  0  0
   27.0212  -19.1599  -15.0428 C   0  0  2  0  0  0  0  0  0  0  0  0
   27.5306  -19.8441  -16.2169 N   0  0  0  0  0  0  0  0  0  0  0  0
   26.3357  -20.1286  -14.1228 C   0  0  0  0  0  0  0  0  0  0  0  0
   25.7747  -21.1382  -14.6363 O   0  0  0  0  0  0  0  0  0  0  0  0
   27.3062  -16.1056  -15.6161 C   0  0  0  0  0  0  0  0  0  0  0  0
   27.8473  -15.0683  -16.3676 C   0  0  0  0  0  0  0  0  0  0  0  0
   28.1356  -21.2512   -9.2606 C   0  0  0  0  0  0  0  0  0  0  0  0
   27.5463  -21.3235  -10.6815 C   0  0  0  0  0  0  0  0  0  0  0  0
   26.1237  -20.9128  -10.5634 C   0  0  2  0  0  0  0  0  0  0  0  0
   25.2996  -21.8165   -9.6870 C   0  0  0  0  0  0  0  0  0  0  0  0
   25.4692  -20.8141  -11.9236 C   0  0  2  0  0  0  0  0  0  0  0  0
   26.3083  -19.9333  -12.7203 N   0  0  0  0  0  0  0  0  0  0  0  0
   24.0732  -20.3687  -11.9029 C   0  0  0  0  0  0  0  0  0  0  0  0
   23.7599  -19.2311  -11.4889 O   0  0  0  0  0  0  0  0  0  0  0  0
   21.1374  -21.8291  -14.5843 C   0  0  0  0  0  0  0  0  0  0  0  0
   21.1427  -20.5254  -13.8215 C   0  0  2  0  0  0  0  0  0  0  0  0
   22.0836  -19.5734  -14.5172 C   0  0  0  0  0  0  0  0  0  0  0  0
   21.6300  -20.7377  -12.4187 C   0  0  2  0  0  0  0  0  0  0  0  0
   22.9910  -21.1888  -12.3467 N   0  0  0  0  0  0  0  0  0  0  0  0
   20.7065  -21.5902  -11.6292 C   0  0  0  0  0  0  0  0  0  0  0  0
   21.0508  -22.8314  -11.1429 O   0  0  0  0  0  0  0  0  0  0  0  0
   19.5399  -21.1715  -11.3806 O   0  0  0  0  0  0  0  0  0  0  0  0
  2 12  2  0
  2  1  1  0
  3  2  1  0
  4  5  1  0
  4  3  2  0
  5 11  2  0
  6  5  1  0
  7  6  1  0
  7  8  1  6
  9 18  1  0
  9  7  1  0
 10  9  2  0
 11 12  1  0
 13 14  1  0
 15 16  1  1
 15 14  1  0
 17 18  1  6
 17 15  1  0
 19 17  1  0
 20 19  2  0
 22 21  1  6
 22 24  1  0
 23 22  1  0
 24 26  1  0
 24 25  1  6
 25 19  1  0
 26 27  1  0
 28 26  2  0
M  END
$$$$
