YIV.pdb
     RDKit          3D

 28 28  0  0  1  0  0  0  0  0999 V2000
   24.9917  -14.4585  -20.0036 O   0  0  0  0  0  0  0  0  0  0  0  0
   24.6072  -15.4673  -19.1437 C   0  0  0  0  0  0  0  0  0  0  0  0
   24.3998  -16.7467  -19.6601 C   0  0  0  0  0  0  0  0  0  0  0  0
   24.0170  -17.7149  -18.7559 C   0  0  0  0  0  0  0  0  0  0  0  0
   23.8436  -17.4533  -17.4130 C   0  0  0  0  0  0  0  0  0  0  0  0
   23.4324  -18.5433  -16.5094 C   0  0  0  0  0  0  0  0  0  0  0  0
   24.6097  -19.1215  -15.7511 C   0  0  2  0  0  0  0  0  0  0  0  0
   25.4450  -19.7999  -16.7249 N   0  0  0  0  0  0  0  0  0  0  0  0
   24.0580  -20.1003  -14.7551 C   0  0  0  0  0  0  0  0  0  0  0  0
   23.6740  -21.2267  -15.1811 O   0  0  0  0  0  0  0  0  0  0  0  0
   24.0519  -16.1870  -16.9195 C   0  0  0  0  0  0  0  0  0  0  0  0
   24.4386  -15.1947  -17.8136 C   0  0  0  0  0  0  0  0  0  0  0  0
   26.0667  -20.4630   -9.8096 C   0  0  0  0  0  0  0  0  0  0  0  0
   25.5244  -20.6938  -11.2323 C   0  0  0  0  0  0  0  0  0  0  0  0
   24.0464  -20.5795  -11.1378 C   0  0  2  0  0  0  0  0  0  0  0  0
   23.4250  -21.5210  -10.1420 C   0  0  0  0  0  0  0  0  0  0  0  0
   23.3952  -20.7886  -12.4870 C   0  0  2  0  0  0  0  0  0  0  0  0
   23.9633  -19.7885  -13.3768 N   0  0  0  0  0  0  0  0  0  0  0  0
   21.9304  -20.7425  -12.4762 C   0  0  0  0  0  0  0  0  0  0  0  0
   21.3152  -19.7045  -12.1479 O   0  0  0  0  0  0  0  0  0  0  0  0
   19.4633  -23.9110  -14.1855 C   0  0  0  0  0  0  0  0  0  0  0  0
   19.1103  -22.4436  -14.1244 C   0  0  2  0  0  0  0  0  0  0  0  0
   19.7077  -21.7621  -15.3303 C   0  0  0  0  0  0  0  0  0  0  0  0
   19.6830  -21.8149  -12.8887 C   0  0  2  0  0  0  0  0  0  0  0  0
   21.1168  -21.8608  -12.8340 N   0  0  0  0  0  0  0  0  0  0  0  0
   19.0503  -22.3365  -11.6515 C   0  0  0  0  0  0  0  0  0  0  0  0
   17.8154  -21.9265  -11.2015 O   0  0  0  0  0  0  0  0  0  0  0  0
   19.6621  -23.2023  -10.9628 O   0  0  0  0  0  0  0  0  0  0  0  0
  2 12  2  0
  2  1  1  0
  3  2  1  0
  4  5  1  0
  4  3  2  0
  5 11  2  0
  6  5  1  0
  7  6  1  0
  7  8  1  6
  9 18  1  0
  9  7  1  0
 10  9  2  0
 11 12  1  0
 13 14  1  0
 15 16  1  1
 15 14  1  0
 17 18  1  6
 17 15  1  0
 19 17  1  0
 20 19  2  0
 22 21  1  6
 22 24  1  0
 23 22  1  0
 24 26  1  0
 24 25  1  1
 25 19  1  0
 26 27  1  0
 28 26  2  0
M  END
$$$$
