YIV.pdb
     RDKit          3D

 28 28  0  0  1  0  0  0  0  0999 V2000
   19.0275  -16.7406  -17.0130 O   0  0  0  0  0  0  0  0  0  0  0  0
   19.8984  -17.4608  -16.2207 C   0  0  0  0  0  0  0  0  0  0  0  0
   21.2683  -17.3583  -16.4641 C   0  0  0  0  0  0  0  0  0  0  0  0
   22.0912  -18.0994  -15.6424 C   0  0  0  0  0  0  0  0  0  0  0  0
   21.6067  -18.9026  -14.6315 C   0  0  0  0  0  0  0  0  0  0  0  0
   22.5518  -19.6648  -13.7952 C   0  0  0  0  0  0  0  0  0  0  0  0
   23.4848  -20.5164  -14.6317 C   0  0  2  0  0  0  0  0  0  0  0  0
   22.7064  -21.6412  -15.1165 N   0  0  0  0  0  0  0  0  0  0  0  0
   24.5864  -20.9873  -13.7266 C   0  0  0  0  0  0  0  0  0  0  0  0
   24.3142  -21.8842  -12.8785 O   0  0  0  0  0  0  0  0  0  0  0  0
   20.2537  -18.9929  -14.4041 C   0  0  0  0  0  0  0  0  0  0  0  0
   19.4050  -18.2539  -15.2210 C   0  0  0  0  0  0  0  0  0  0  0  0
   29.4924  -22.0564  -12.2504 C   0  0  0  0  0  0  0  0  0  0  0  0
   29.2110  -20.5463  -12.1408 C   0  0  0  0  0  0  0  0  0  0  0  0
   28.1721  -20.2417  -13.1578 C   0  0  2  0  0  0  0  0  0  0  0  0
   28.0872  -18.7848  -13.5243 C   0  0  0  0  0  0  0  0  0  0  0  0
   26.8092  -20.7166  -12.7052 C   0  0  2  0  0  0  0  0  0  0  0  0
   25.8962  -20.4544  -13.8062 N   0  0  0  0  0  0  0  0  0  0  0  0
   26.3374  -20.1244  -11.4503 C   0  0  0  0  0  0  0  0  0  0  0  0
   25.8409  -18.9772  -11.4194 O   0  0  0  0  0  0  0  0  0  0  0  0
   24.3311  -20.0923   -7.1361 C   0  0  0  0  0  0  0  0  0  0  0  0
   24.8172  -20.8810   -8.3291 C   0  0  2  0  0  0  0  0  0  0  0  0
   25.2248  -22.2538   -7.8551 C   0  0  0  0  0  0  0  0  0  0  0  0
   26.0106  -20.2166   -8.9492 C   0  0  2  0  0  0  0  0  0  0  0  0
   26.4105  -20.8046  -10.1962 N   0  0  0  0  0  0  0  0  0  0  0  0
   27.1390  -20.0893   -7.9934 C   0  0  0  0  0  0  0  0  0  0  0  0
   28.2898  -20.8407   -8.0758 O   0  0  0  0  0  0  0  0  0  0  0  0
   27.0570  -19.2532   -7.0488 O   0  0  0  0  0  0  0  0  0  0  0  0
  2 12  2  0
  2  1  1  0
  3  2  1  0
  4  5  1  0
  4  3  2  0
  5 11  2  0
  6  5  1  0
  7  6  1  0
  7  8  1  1
  9 18  1  0
  9  7  1  0
 10  9  2  0
 11 12  1  0
 13 14  1  0
 15 16  1  1
 15 14  1  0
 17 18  1  6
 17 15  1  0
 19 17  1  0
 20 19  2  0
 22 21  1  1
 22 24  1  0
 23 22  1  0
 24 26  1  0
 24 25  1  6
 25 19  1  0
 26 27  1  0
 28 26  2  0
M  END
$$$$
