YIV.pdb
     RDKit          3D

 28 28  0  0  1  0  0  0  0  0999 V2000
   29.0361  -20.3697   -3.8435 O   0  0  0  0  0  0  0  0  0  0  0  0
   28.4113  -20.2213   -5.0652 C   0  0  0  0  0  0  0  0  0  0  0  0
   28.9315  -19.3033   -5.9780 C   0  0  0  0  0  0  0  0  0  0  0  0
   28.2675  -19.1967   -7.1818 C   0  0  0  0  0  0  0  0  0  0  0  0
   27.1504  -19.9463   -7.4854 C   0  0  0  0  0  0  0  0  0  0  0  0
   26.4961  -19.7743   -8.7953 C   0  0  0  0  0  0  0  0  0  0  0  0
   26.8345  -20.9034   -9.7472 C   0  0  2  0  0  0  0  0  0  0  0  0
   28.2672  -20.8492   -9.9715 N   0  0  0  0  0  0  0  0  0  0  0  0
   26.0897  -20.6442  -11.0249 C   0  0  0  0  0  0  0  0  0  0  0  0
   26.4707  -19.6801  -11.7481 O   0  0  0  0  0  0  0  0  0  0  0  0
   26.6499  -20.8469   -6.5750 C   0  0  0  0  0  0  0  0  0  0  0  0
   27.3039  -20.9709   -5.3541 C   0  0  0  0  0  0  0  0  0  0  0  0
   26.0529  -23.8742  -14.6900 C   0  0  0  0  0  0  0  0  0  0  0  0
   25.9841  -22.6353  -13.7778 C   0  0  0  0  0  0  0  0  0  0  0  0
   24.5411  -22.3477  -13.5749 C   0  0  2  0  0  0  0  0  0  0  0  0
   23.7737  -22.1493  -14.8539 C   0  0  0  0  0  0  0  0  0  0  0  0
   24.3449  -21.1372  -12.6893 C   0  0  2  0  0  0  0  0  0  0  0  0
   24.9916  -21.4449  -11.4237 N   0  0  0  0  0  0  0  0  0  0  0  0
   22.9492  -20.7297  -12.5057 C   0  0  0  0  0  0  0  0  0  0  0  0
   22.2289  -21.2543  -11.6283 O   0  0  0  0  0  0  0  0  0  0  0  0
   19.3635  -17.3857  -13.3160 C   0  0  0  0  0  0  0  0  0  0  0  0
   20.7333  -17.8940  -13.6995 C   0  0  2  0  0  0  0  0  0  0  0  0
   20.7717  -18.0678  -15.1974 C   0  0  0  0  0  0  0  0  0  0  0  0
   21.0006  -19.2234  -13.0580 C   0  0  2  0  0  0  0  0  0  0  0  0
   22.3244  -19.7220  -13.3025 N   0  0  0  0  0  0  0  0  0  0  0  0
   19.9495  -20.2208  -13.3797 C   0  0  0  0  0  0  0  0  0  0  0  0
   18.8644  -20.4660  -12.5685 O   0  0  0  0  0  0  0  0  0  0  0  0
   20.0386  -20.8888  -14.4493 O   0  0  0  0  0  0  0  0  0  0  0  0
  2 12  2  0
  2  1  1  0
  3  2  1  0
  4  5  1  0
  4  3  2  0
  5 11  2  0
  6  5  1  0
  7  6  1  0
  7  8  1  6
  9 18  1  0
  9  7  1  0
 10  9  2  0
 11 12  1  0
 13 14  1  0
 15 16  1  6
 15 14  1  0
 17 18  1  1
 17 15  1  0
 19 17  1  0
 20 19  2  0
 22 21  1  6
 22 24  1  0
 23 22  1  0
 24 26  1  0
 24 25  1  6
 25 19  1  0
 26 27  1  0
 28 26  2  0
M  END
$$$$
