YIV.pdb
     RDKit          3D

 28 28  0  0  1  0  0  0  0  0999 V2000
   28.7671  -13.9834  -17.6811 O   0  0  0  0  0  0  0  0  0  0  0  0
   28.1944  -15.0896  -17.0868 C   0  0  0  0  0  0  0  0  0  0  0  0
   27.9686  -16.2269  -17.8627 C   0  0  0  0  0  0  0  0  0  0  0  0
   27.3944  -17.3018  -17.2172 C   0  0  0  0  0  0  0  0  0  0  0  0
   27.0552  -17.2738  -15.8808 C   0  0  0  0  0  0  0  0  0  0  0  0
   26.4443  -18.4648  -15.2629 C   0  0  0  0  0  0  0  0  0  0  0  0
   27.4421  -19.2419  -14.4288 C   0  0  2  0  0  0  0  0  0  0  0  0
   28.2970  -19.9595  -15.3563 N   0  0  0  0  0  0  0  0  0  0  0  0
   26.6588  -20.2024  -13.5812 C   0  0  0  0  0  0  0  0  0  0  0  0
   26.3440  -21.3178  -14.0859 O   0  0  0  0  0  0  0  0  0  0  0  0
   27.2842  -16.1452  -15.1295 C   0  0  0  0  0  0  0  0  0  0  0  0
   27.8625  -15.0490  -15.7601 C   0  0  0  0  0  0  0  0  0  0  0  0
   26.9523  -20.4604   -8.1976 C   0  0  0  0  0  0  0  0  0  0  0  0
   26.8786  -20.7925   -9.6995 C   0  0  0  0  0  0  0  0  0  0  0  0
   25.4756  -20.5354  -10.1142 C   0  0  2  0  0  0  0  0  0  0  0  0
   24.4608  -21.3683   -9.3790 C   0  0  0  0  0  0  0  0  0  0  0  0
   25.2993  -20.7430  -11.6021 C   0  0  2  0  0  0  0  0  0  0  0  0
   26.2755  -19.8855  -12.2551 N   0  0  0  0  0  0  0  0  0  0  0  0
   23.9416  -20.5040  -12.0994 C   0  0  0  0  0  0  0  0  0  0  0  0
   23.4193  -19.3692  -12.0432 O   0  0  0  0  0  0  0  0  0  0  0  0
   20.3986  -21.4656  -15.2705 C   0  0  0  0  0  0  0  0  0  0  0  0
   21.7910  -21.6773  -14.7245 C   0  0  2  0  0  0  0  0  0  0  0  0
   22.1306  -23.1418  -14.8480 C   0  0  0  0  0  0  0  0  0  0  0  0
   21.8527  -21.2938  -13.2756 C   0  0  2  0  0  0  0  0  0  0  0  0
   23.1337  -21.5328  -12.6734 N   0  0  0  0  0  0  0  0  0  0  0  0
   20.7381  -21.8843  -12.4931 C   0  0  0  0  0  0  0  0  0  0  0  0
   20.8785  -22.9997  -11.6983 O   0  0  0  0  0  0  0  0  0  0  0  0
   19.5942  -21.3489  -12.5470 O   0  0  0  0  0  0  0  0  0  0  0  0
  2 12  2  0
  2  1  1  0
  3  2  1  0
  4  5  1  0
  4  3  2  0
  5 11  2  0
  6  5  1  0
  7  6  1  0
  7  8  1  6
  9 18  1  0
  9  7  1  0
 10  9  2  0
 11 12  1  0
 13 14  1  0
 15 16  1  1
 15 14  1  0
 17 18  1  6
 17 15  1  0
 19 17  1  0
 20 19  2  0
 22 21  1  1
 22 24  1  0
 23 22  1  0
 24 26  1  0
 24 25  1  1
 25 19  1  0
 26 27  1  0
 28 26  2  0
M  END
$$$$
