YIV.pdb
     RDKit          3D

 28 28  0  0  1  0  0  0  0  0999 V2000
   18.1001  -18.2724  -16.9129 O   0  0  0  0  0  0  0  0  0  0  0  0
   19.0914  -18.7855  -16.1010 C   0  0  0  0  0  0  0  0  0  0  0  0
   18.7665  -19.8086  -15.2099 C   0  0  0  0  0  0  0  0  0  0  0  0
   19.7956  -20.2827  -14.4238 C   0  0  0  0  0  0  0  0  0  0  0  0
   21.0801  -19.7866  -14.4993 C   0  0  0  0  0  0  0  0  0  0  0  0
   22.1260  -20.3467  -13.6242 C   0  0  0  0  0  0  0  0  0  0  0  0
   23.2186  -21.0324  -14.4189 C   0  0  2  0  0  0  0  0  0  0  0  0
   22.6377  -22.2388  -14.9784 N   0  0  0  0  0  0  0  0  0  0  0  0
   24.3194  -21.3734  -13.4564 C   0  0  0  0  0  0  0  0  0  0  0  0
   24.1457  -22.3566  -12.6813 O   0  0  0  0  0  0  0  0  0  0  0  0
   21.3843  -18.7779  -15.3828 C   0  0  0  0  0  0  0  0  0  0  0  0
   20.3617  -18.2846  -16.1856 C   0  0  0  0  0  0  0  0  0  0  0  0
   29.3900  -21.4622  -14.8512 C   0  0  0  0  0  0  0  0  0  0  0  0
   27.9795  -21.7007  -14.2810 C   0  0  0  0  0  0  0  0  0  0  0  0
   27.8662  -20.8384  -13.0769 C   0  0  2  0  0  0  0  0  0  0  0  0
   28.9472  -21.0719  -12.0566 C   0  0  0  0  0  0  0  0  0  0  0  0
   26.5173  -21.0029  -12.4125 C   0  0  2  0  0  0  0  0  0  0  0  0
   25.5223  -20.6275  -13.4044 N   0  0  0  0  0  0  0  0  0  0  0  0
   26.3526  -20.2559  -11.1625 C   0  0  0  0  0  0  0  0  0  0  0  0
   26.3997  -19.0065  -11.1409 O   0  0  0  0  0  0  0  0  0  0  0  0
   25.2011  -22.1062   -7.3424 C   0  0  0  0  0  0  0  0  0  0  0  0
   24.9185  -20.6874   -7.7766 C   0  0  2  0  0  0  0  0  0  0  0  0
   23.6293  -20.6795   -8.5596 C   0  0  0  0  0  0  0  0  0  0  0  0
   26.0175  -20.1786   -8.6619 C   0  0  2  0  0  0  0  0  0  0  0  0
   26.1306  -20.8917   -9.9026 N   0  0  0  0  0  0  0  0  0  0  0  0
   27.3127  -20.0788   -7.9440 C   0  0  0  0  0  0  0  0  0  0  0  0
   28.4047  -20.8636   -8.2392 O   0  0  0  0  0  0  0  0  0  0  0  0
   27.4380  -19.2355   -7.0105 O   0  0  0  0  0  0  0  0  0  0  0  0
  2 12  2  0
  2  1  1  0
  3  2  1  0
  4  5  1  0
  4  3  2  0
  5 11  2  0
  6  5  1  0
  7  6  1  0
  7  8  1  1
  9 18  1  0
  9  7  1  0
 10  9  2  0
 11 12  1  0
 13 14  1  0
 15 16  1  1
 15 14  1  0
 17 18  1  6
 17 15  1  0
 19 17  1  0
 20 19  2  0
 22 21  1  6
 22 24  1  0
 23 22  1  0
 24 26  1  0
 24 25  1  6
 25 19  1  0
 26 27  1  0
 28 26  2  0
M  END
$$$$
