FMA.pdb
     RDKit          3D

 25 25  0  0  1  0  0  0  0  0999 V2000
   28.2392  -19.6951  -16.0270 N   0  0  0  0  0  0  0  0  0  0  0  0
   27.4644  -19.0048  -15.0193 C   0  0  1  0  0  0  0  0  0  0  0  0
   26.4911  -18.0767  -15.7279 C   0  0  0  0  0  0  0  0  0  0  0  0
   27.1688  -16.8306  -16.1661 C   0  0  0  0  0  0  0  0  0  0  0  0
   27.5631  -16.6396  -17.4748 C   0  0  0  0  0  0  0  0  0  0  0  0
   28.1924  -15.4775  -17.8722 C   0  0  0  0  0  0  0  0  0  0  0  0
   28.4078  -14.5156  -16.8959 C   0  0  0  0  0  0  0  0  0  0  0  0
   28.0258  -14.6799  -15.5873 C   0  0  0  0  0  0  0  0  0  0  0  0
   27.4031  -15.8493  -15.2323 C   0  0  0  0  0  0  0  0  0  0  0  0
   26.7225  -19.9927  -14.2310 C   0  0  0  0  0  0  0  0  0  0  0  0
   26.2460  -21.0626  -14.7198 O   0  0  0  0  0  0  0  0  0  0  0  0
   27.2072  -20.9257   -7.6564 C   0  0  0  0  0  0  0  0  0  0  0  0
   25.4258  -20.9469   -7.9605 S   0  0  0  0  0  0  0  0  0  0  0  0
   25.0556  -21.3457   -9.7063 C   0  0  0  0  0  0  0  0  0  0  0  0
   25.8619  -20.4107  -10.5529 C   0  0  0  0  0  0  0  0  0  0  0  0
   25.6567  -20.6460  -12.0339 C   0  0  2  0  0  0  0  0  0  0  0  0
   26.4869  -19.8043  -12.8328 N   0  0  0  0  0  0  0  0  0  0  0  0
   24.2246  -20.5450  -12.3673 C   0  0  0  0  0  0  0  0  0  0  0  0
   23.5952  -19.4594  -12.3327 O   0  0  0  0  0  0  0  0  0  0  0  0
   21.6060  -22.8125  -13.8411 C   0  0  0  0  0  0  0  0  0  0  0  0
   22.0947  -21.5890  -13.1178 C   0  0  2  0  0  0  0  0  0  0  0  0
   23.5037  -21.7082  -12.7462 N   0  0  0  0  0  0  0  0  0  0  0  0
   21.3011  -21.3573  -11.8773 C   0  0  0  0  0  0  0  0  0  0  0  0
   19.9692  -20.9857  -11.9070 O   0  0  0  0  0  0  0  0  0  0  0  0
   21.8274  -21.4951  -10.7461 O   0  0  0  0  0  0  0  0  0  0  0  0
  2  1  1  6
  3  4  1  0
  3  2  1  0
  4  9  2  0
  5  6  2  0
  5  4  1  0
  6  7  1  0
  7  8  2  0
  9  8  1  0
 10  2  1  0
 10 17  1  0
 11 10  2  0
 12 13  1  0
 13 14  1  0
 15 14  1  0
 16 17  1  0
 16 15  1  1
 18 19  2  0
 18 16  1  0
 21 20  1  1
 21 23  1  0
 21 22  1  0
 22 18  1  0
 23 24  1  0
 25 23  2  0
M  END
$$$$
