FMA.pdb
     RDKit          3D

 25 25  0  0  1  0  0  0  0  0999 V2000
   28.2536  -20.1923  -15.6498 N   0  0  0  0  0  0  0  0  0  0  0  0
   27.4999  -19.4074  -14.6968 C   0  0  1  0  0  0  0  0  0  0  0  0
   26.5945  -18.4656  -15.4742 C   0  0  0  0  0  0  0  0  0  0  0  0
   27.3551  -17.2959  -15.9817 C   0  0  0  0  0  0  0  0  0  0  0  0
   27.7927  -17.2253  -17.2887 C   0  0  0  0  0  0  0  0  0  0  0  0
   28.4990  -16.1335  -17.7507 C   0  0  0  0  0  0  0  0  0  0  0  0
   28.7460  -15.1156  -16.8409 C   0  0  0  0  0  0  0  0  0  0  0  0
   28.3223  -15.1604  -15.5356 C   0  0  0  0  0  0  0  0  0  0  0  0
   27.6232  -16.2631  -15.1151 C   0  0  0  0  0  0  0  0  0  0  0  0
   26.6882  -20.3092  -13.8749 C   0  0  0  0  0  0  0  0  0  0  0  0
   26.1682  -21.3798  -14.3157 O   0  0  0  0  0  0  0  0  0  0  0  0
   26.9199  -20.1083   -7.4354 C   0  0  0  0  0  0  0  0  0  0  0  0
   25.3150  -20.9261   -7.5840 S   0  0  0  0  0  0  0  0  0  0  0  0
   24.9826  -21.4261   -9.3112 C   0  0  0  0  0  0  0  0  0  0  0  0
   25.7899  -20.5261  -10.1940 C   0  0  0  0  0  0  0  0  0  0  0  0
   25.5638  -20.8015  -11.6651 C   0  0  2  0  0  0  0  0  0  0  0  0
   26.4287  -20.0290  -12.4965 N   0  0  0  0  0  0  0  0  0  0  0  0
   24.1361  -20.6421  -11.9947 C   0  0  0  0  0  0  0  0  0  0  0  0
   23.5629  -19.5254  -12.0037 O   0  0  0  0  0  0  0  0  0  0  0  0
   21.5504  -22.7071  -13.7009 C   0  0  0  0  0  0  0  0  0  0  0  0
   21.9781  -21.6009  -12.7777 C   0  0  2  0  0  0  0  0  0  0  0  0
   23.3545  -21.7822  -12.3190 N   0  0  0  0  0  0  0  0  0  0  0  0
   21.0901  -21.5388  -11.5819 C   0  0  0  0  0  0  0  0  0  0  0  0
   21.5657  -21.7104  -10.2947 O   0  0  0  0  0  0  0  0  0  0  0  0
   19.8598  -21.3248  -11.7092 O   0  0  0  0  0  0  0  0  0  0  0  0
  2  1  1  6
  3  4  1  0
  3  2  1  0
  4  9  2  0
  5  6  2  0
  5  4  1  0
  6  7  1  0
  7  8  2  0
  9  8  1  0
 10  2  1  0
 10 17  1  0
 11 10  2  0
 12 13  1  0
 13 14  1  0
 15 14  1  0
 16 17  1  0
 16 15  1  1
 18 19  2  0
 18 16  1  0
 21 20  1  6
 21 23  1  0
 21 22  1  0
 22 18  1  0
 23 24  1  0
 25 23  2  0
M  END
$$$$
