FMA.pdb
     RDKit          3D

 25 25  0  0  1  0  0  0  0  0999 V2000
   25.4483  -10.1017  -18.5039 N   0  0  0  0  0  0  0  0  0  0  0  0
   24.8941  -10.1980  -17.1713 C   0  0  1  0  0  0  0  0  0  0  0  0
   26.0088   -9.9166  -16.1767 C   0  0  0  0  0  0  0  0  0  0  0  0
   27.0646  -10.9575  -16.2537 C   0  0  0  0  0  0  0  0  0  0  0  0
   28.2785  -10.7172  -16.8647 C   0  0  0  0  0  0  0  0  0  0  0  0
   29.2536  -11.6915  -16.9310 C   0  0  0  0  0  0  0  0  0  0  0  0
   28.9546  -12.9182  -16.3560 C   0  0  0  0  0  0  0  0  0  0  0  0
   27.7554  -13.1837  -15.7421 C   0  0  0  0  0  0  0  0  0  0  0  0
   26.8123  -12.1888  -15.6970 C   0  0  0  0  0  0  0  0  0  0  0  0
   23.8341   -9.1968  -17.0240 C   0  0  0  0  0  0  0  0  0  0  0  0
   23.8480   -8.0718  -17.6114 O   0  0  0  0  0  0  0  0  0  0  0  0
   18.9922  -12.1791  -14.9364 C   0  0  0  0  0  0  0  0  0  0  0  0
   18.5430  -11.2876  -16.4430 S   0  0  0  0  0  0  0  0  0  0  0  0
   19.9084  -10.2108  -17.0087 C   0  0  0  0  0  0  0  0  0  0  0  0
   20.2808   -9.3292  -15.8575 C   0  0  0  0  0  0  0  0  0  0  0  0
   21.5661   -8.5680  -16.1019 C   0  0  2  0  0  0  0  0  0  0  0  0
   22.6962   -9.4345  -16.1907 N   0  0  0  0  0  0  0  0  0  0  0  0
   21.7208   -7.5027  -15.0953 C   0  0  0  0  0  0  0  0  0  0  0  0
   22.4596   -7.6239  -14.0877 O   0  0  0  0  0  0  0  0  0  0  0  0
   22.1435   -5.6355  -13.1655 C   0  0  0  0  0  0  0  0  0  0  0  0
   21.2047   -5.2161  -14.2616 C   0  0  2  0  0  0  0  0  0  0  0  0
   21.0165   -6.2792  -15.2476 N   0  0  0  0  0  0  0  0  0  0  0  0
   21.7229   -4.0094  -14.9670 C   0  0  0  0  0  0  0  0  0  0  0  0
   22.0458   -4.0174  -16.3118 O   0  0  0  0  0  0  0  0  0  0  0  0
   21.8852   -2.9283  -14.3502 O   0  0  0  0  0  0  0  0  0  0  0  0
  2  1  1  6
  3  4  1  0
  3  2  1  0
  4  9  2  0
  5  6  2  0
  5  4  1  0
  6  7  1  0
  7  8  2  0
  9  8  1  0
 10  2  1  0
 10 17  1  0
 11 10  2  0
 12 13  1  0
 13 14  1  0
 15 14  1  0
 16 17  1  0
 16 15  1  1
 18 19  2  0
 18 16  1  0
 21 20  1  1
 21 23  1  0
 21 22  1  0
 22 18  1  0
 23 24  1  0
 25 23  2  0
M  END
$$$$
