FMA.pdb
     RDKit          3D

 25 25  0  0  1  0  0  0  0  0999 V2000
   23.9065   -9.5518  -18.2231 N   0  0  0  0  0  0  0  0  0  0  0  0
   23.4332   -8.8396  -17.0564 C   0  0  1  0  0  0  0  0  0  0  0  0
   24.6062   -8.0763  -16.4630 C   0  0  0  0  0  0  0  0  0  0  0  0
   25.7409   -8.9885  -16.1722 C   0  0  0  0  0  0  0  0  0  0  0  0
   26.8999   -8.9682  -16.9212 C   0  0  0  0  0  0  0  0  0  0  0  0
   27.9491   -9.8203  -16.6427 C   0  0  0  0  0  0  0  0  0  0  0  0
   27.7819  -10.6939  -15.5779 C   0  0  0  0  0  0  0  0  0  0  0  0
   26.6398  -10.7349  -14.8167 C   0  0  0  0  0  0  0  0  0  0  0  0
   25.6196   -9.8716  -15.1257 C   0  0  0  0  0  0  0  0  0  0  0  0
   22.3864   -7.8992  -17.4661 C   0  0  0  0  0  0  0  0  0  0  0  0
   22.3714   -7.3171  -18.5938 O   0  0  0  0  0  0  0  0  0  0  0  0
   15.5522   -7.0064  -15.1464 C   0  0  0  0  0  0  0  0  0  0  0  0
   16.1804   -7.6466  -16.7154 S   0  0  0  0  0  0  0  0  0  0  0  0
   17.6797   -6.7448  -17.2471 C   0  0  0  0  0  0  0  0  0  0  0  0
   18.8593   -7.5002  -16.7188 C   0  0  0  0  0  0  0  0  0  0  0  0
   20.1689   -6.7875  -16.9800 C   0  0  2  0  0  0  0  0  0  0  0  0
   21.2959   -7.5754  -16.5992 N   0  0  0  0  0  0  0  0  0  0  0  0
   20.1492   -5.4517  -16.3576 C   0  0  0  0  0  0  0  0  0  0  0  0
   20.3760   -5.2691  -15.1365 O   0  0  0  0  0  0  0  0  0  0  0  0
   20.2101   -1.9212  -17.6023 C   0  0  0  0  0  0  0  0  0  0  0  0
   19.9876   -2.9769  -16.5560 C   0  0  2  0  0  0  0  0  0  0  0  0
   19.8648   -4.3076  -17.1492 N   0  0  0  0  0  0  0  0  0  0  0  0
   18.7481   -2.6949  -15.7773 C   0  0  0  0  0  0  0  0  0  0  0  0
   18.7418   -1.8749  -14.6637 O   0  0  0  0  0  0  0  0  0  0  0  0
   17.6511   -3.2029  -16.1150 O   0  0  0  0  0  0  0  0  0  0  0  0
  2  1  1  6
  3  4  1  0
  3  2  1  0
  4  9  2  0
  5  6  2  0
  5  4  1  0
  6  7  1  0
  7  8  2  0
  9  8  1  0
 10  2  1  0
 10 17  1  0
 11 10  2  0
 12 13  1  0
 13 14  1  0
 15 14  1  0
 16 17  1  0
 16 15  1  1
 18 19  2  0
 18 16  1  0
 21 20  1  6
 21 23  1  0
 21 22  1  0
 22 18  1  0
 23 24  1  0
 25 23  2  0
M  END
$$$$
