FMA.pdb
     RDKit          3D

 25 25  0  0  1  0  0  0  0  0999 V2000
   22.2586  -21.2833  -17.6393 N   0  0  0  0  0  0  0  0  0  0  0  0
   20.9348  -21.1888  -17.0640 C   0  0  1  0  0  0  0  0  0  0  0  0
   19.9706  -21.9274  -17.9782 C   0  0  0  0  0  0  0  0  0  0  0  0
   19.7447  -21.1701  -19.2350 C   0  0  0  0  0  0  0  0  0  0  0  0
   20.5001  -21.3992  -20.3671 C   0  0  0  0  0  0  0  0  0  0  0  0
   20.2821  -20.6899  -21.5306 C   0  0  0  0  0  0  0  0  0  0  0  0
   19.2713  -19.7399  -21.5060 C   0  0  0  0  0  0  0  0  0  0  0  0
   18.5052  -19.4920  -20.3938 C   0  0  0  0  0  0  0  0  0  0  0  0
   18.7530  -20.2183  -19.2569 C   0  0  0  0  0  0  0  0  0  0  0  0
   20.9455  -21.8199  -15.7413 C   0  0  0  0  0  0  0  0  0  0  0  0
   21.6685  -22.8214  -15.4499 O   0  0  0  0  0  0  0  0  0  0  0  0
   21.3540  -18.5262  -10.5141 C   0  0  0  0  0  0  0  0  0  0  0  0
   20.3854  -19.8667   -9.7852 S   0  0  0  0  0  0  0  0  0  0  0  0
   20.2849  -21.3021  -10.9136 C   0  0  0  0  0  0  0  0  0  0  0  0
   20.1687  -20.7621  -12.3050 C   0  0  0  0  0  0  0  0  0  0  0  0
   20.1265  -21.8561  -13.3502 C   0  0  2  0  0  0  0  0  0  0  0  0
   20.1229  -21.3326  -14.6775 N   0  0  0  0  0  0  0  0  0  0  0  0
   19.0044  -22.7719  -13.0772 C   0  0  0  0  0  0  0  0  0  0  0  0
   17.8165  -22.4963  -13.3749 O   0  0  0  0  0  0  0  0  0  0  0  0
   18.5975  -26.2365  -11.6184 C   0  0  0  0  0  0  0  0  0  0  0  0
   18.1347  -24.9408  -12.2233 C   0  0  2  0  0  0  0  0  0  0  0  0
   19.2498  -24.0233  -12.4528 N   0  0  0  0  0  0  0  0  0  0  0  0
   17.1481  -24.2656  -11.3328 C   0  0  0  0  0  0  0  0  0  0  0  0
   17.5106  -23.2700  -10.4439 O   0  0  0  0  0  0  0  0  0  0  0  0
   15.9349  -24.5861  -11.3631 O   0  0  0  0  0  0  0  0  0  0  0  0
  2  1  1  6
  3  4  1  0
  3  2  1  0
  4  9  2  0
  5  6  2  0
  5  4  1  0
  6  7  1  0
  7  8  2  0
  9  8  1  0
 10  2  1  0
 10 17  1  0
 11 10  2  0
 12 13  1  0
 13 14  1  0
 15 14  1  0
 16 17  1  0
 16 15  1  1
 18 19  2  0
 18 16  1  0
 21 20  1  1
 21 23  1  0
 21 22  1  0
 22 18  1  0
 23 24  1  0
 25 23  2  0
M  END
$$$$
