FMA.pdb
     RDKit          3D

 25 25  0  0  1  0  0  0  0  0999 V2000
   19.2110  -12.0656  -18.9096 N   0  0  0  0  0  0  0  0  0  0  0  0
   19.4631  -10.6477  -19.0454 C   0  0  1  0  0  0  0  0  0  0  0  0
   18.1432   -9.9156  -18.8641 C   0  0  0  0  0  0  0  0  0  0  0  0
   17.2623  -10.1088  -20.0434 C   0  0  0  0  0  0  0  0  0  0  0  0
   16.1694  -10.9507  -20.0039 C   0  0  0  0  0  0  0  0  0  0  0  0
   15.3567  -11.1234  -21.1056 C   0  0  0  0  0  0  0  0  0  0  0  0
   15.6908  -10.4124  -22.2492 C   0  0  0  0  0  0  0  0  0  0  0  0
   16.7719   -9.5685  -22.3156 C   0  0  0  0  0  0  0  0  0  0  0  0
   17.5552   -9.4241  -21.1989 C   0  0  0  0  0  0  0  0  0  0  0  0
   20.4077  -10.2313  -18.0053 C   0  0  0  0  0  0  0  0  0  0  0  0
   20.4460  -10.7491  -16.8472 O   0  0  0  0  0  0  0  0  0  0  0  0
   26.2540  -10.2428  -14.5706 C   0  0  0  0  0  0  0  0  0  0  0  0
   25.0099  -10.3913  -15.8731 S   0  0  0  0  0  0  0  0  0  0  0  0
   24.8151   -8.8194  -16.7867 C   0  0  0  0  0  0  0  0  0  0  0  0
   23.7645   -9.0427  -17.8296 C   0  0  0  0  0  0  0  0  0  0  0  0
   22.3660   -8.7937  -17.3068 C   0  0  2  0  0  0  0  0  0  0  0  0
   21.3634   -9.1933  -18.2400 N   0  0  0  0  0  0  0  0  0  0  0  0
   22.2337   -7.3932  -16.8667 C   0  0  0  0  0  0  0  0  0  0  0  0
   22.3966   -6.4203  -17.6430 O   0  0  0  0  0  0  0  0  0  0  0  0
   20.6949   -5.6108  -13.9944 C   0  0  0  0  0  0  0  0  0  0  0  0
   21.6985   -5.7167  -15.1082 C   0  0  2  0  0  0  0  0  0  0  0  0
   21.9095   -7.1053  -15.5147 N   0  0  0  0  0  0  0  0  0  0  0  0
   23.0111   -5.1459  -14.6917 C   0  0  0  0  0  0  0  0  0  0  0  0
   24.1370   -5.9285  -14.5115 O   0  0  0  0  0  0  0  0  0  0  0  0
   23.1370   -3.9138  -14.4877 O   0  0  0  0  0  0  0  0  0  0  0  0
  2  1  1  1
  3  4  1  0
  3  2  1  0
  4  9  2  0
  5  6  2  0
  5  4  1  0
  6  7  1  0
  7  8  2  0
  9  8  1  0
 10  2  1  0
 10 17  1  0
 11 10  2  0
 12 13  1  0
 13 14  1  0
 15 14  1  0
 16 17  1  0
 16 15  1  6
 18 19  2  0
 18 16  1  0
 21 20  1  1
 21 23  1  0
 21 22  1  0
 22 18  1  0
 23 24  1  0
 25 23  2  0
M  END
$$$$
