FMA.pdb
     RDKit          3D

 25 25  0  0  1  0  0  0  0  0999 V2000
   26.3382  -31.8898    5.6080 N   0  0  0  0  0  0  0  0  0  0  0  0
   26.7946  -30.9090    6.5683 C   0  0  1  0  0  0  0  0  0  0  0  0
   25.5782  -30.1656    7.0960 C   0  0  0  0  0  0  0  0  0  0  0  0
   24.9271  -29.3795    6.0178 C   0  0  0  0  0  0  0  0  0  0  0  0
   23.5941  -29.5456    5.7012 C   0  0  0  0  0  0  0  0  0  0  0  0
   22.9982  -28.8100    4.6972 C   0  0  0  0  0  0  0  0  0  0  0  0
   23.8014  -27.8998    4.0253 C   0  0  0  0  0  0  0  0  0  0  0  0
   25.1296  -27.7147    4.3200 C   0  0  0  0  0  0  0  0  0  0  0  0
   25.6848  -28.4654    5.3249 C   0  0  0  0  0  0  0  0  0  0  0  0
   27.4690  -31.6010    7.6702 C   0  0  0  0  0  0  0  0  0  0  0  0
   27.2166  -32.7996    8.0023 O   0  0  0  0  0  0  0  0  0  0  0  0
   32.3175  -28.9085   11.8459 C   0  0  0  0  0  0  0  0  0  0  0  0
   32.7865  -30.5168   11.1678 S   0  0  0  0  0  0  0  0  0  0  0  0
   31.3164  -31.5557   10.8468 C   0  0  0  0  0  0  0  0  0  0  0  0
   30.4618  -30.8187    9.8631 C   0  0  0  0  0  0  0  0  0  0  0  0
   29.1954  -31.5717    9.5164 C   0  0  2  0  0  0  0  0  0  0  0  0
   28.4739  -30.9509    8.4534 N   0  0  0  0  0  0  0  0  0  0  0  0
   28.3861  -31.7838   10.7298 C   0  0  0  0  0  0  0  0  0  0  0  0
   27.7681  -30.8541   11.3038 O   0  0  0  0  0  0  0  0  0  0  0  0
   26.6533  -34.5836   12.3453 C   0  0  0  0  0  0  0  0  0  0  0  0
   27.4212  -33.2962   12.4536 C   0  0  2  0  0  0  0  0  0  0  0  0
   28.2848  -33.0832   11.2932 N   0  0  0  0  0  0  0  0  0  0  0  0
   28.2716  -33.2906   13.6779 C   0  0  0  0  0  0  0  0  0  0  0  0
   29.6447  -33.1335   13.6269 O   0  0  0  0  0  0  0  0  0  0  0  0
   27.7577  -33.4310   14.8144 O   0  0  0  0  0  0  0  0  0  0  0  0
  2  1  1  6
  3  4  1  0
  3  2  1  0
  4  9  2  0
  5  6  2  0
  5  4  1  0
  6  7  1  0
  7  8  2  0
  9  8  1  0
 10  2  1  0
 10 17  1  0
 11 10  2  0
 12 13  1  0
 13 14  1  0
 15 14  1  0
 16 17  1  0
 16 15  1  1
 18 19  2  0
 18 16  1  0
 21 20  1  6
 21 23  1  0
 21 22  1  0
 22 18  1  0
 23 24  1  0
 25 23  2  0
M  END
$$$$
