FMA.pdb
     RDKit          3D

 25 25  0  0  1  0  0  0  0  0999 V2000
   28.4162  -19.5968  -15.8512 N   0  0  0  0  0  0  0  0  0  0  0  0
   27.5529  -18.8974  -14.9249 C   0  0  1  0  0  0  0  0  0  0  0  0
   26.6175  -18.0109  -15.7311 C   0  0  0  0  0  0  0  0  0  0  0  0
   27.2227  -16.6759  -15.9667 C   0  0  0  0  0  0  0  0  0  0  0  0
   27.2083  -15.6909  -15.0001 C   0  0  0  0  0  0  0  0  0  0  0  0
   27.7736  -14.4529  -15.2290 C   0  0  0  0  0  0  0  0  0  0  0  0
   28.3541  -14.2487  -16.4725 C   0  0  0  0  0  0  0  0  0  0  0  0
   28.3822  -15.2110  -17.4515 C   0  0  0  0  0  0  0  0  0  0  0  0
   27.8094  -16.4285  -17.1850 C   0  0  0  0  0  0  0  0  0  0  0  0
   26.7736  -19.8804  -14.1671 C   0  0  0  0  0  0  0  0  0  0  0  0
   26.3759  -20.9831  -14.6536 O   0  0  0  0  0  0  0  0  0  0  0  0
   27.2533  -20.6355   -7.7654 C   0  0  0  0  0  0  0  0  0  0  0  0
   25.4873  -20.9706   -7.9531 S   0  0  0  0  0  0  0  0  0  0  0  0
   25.0567  -21.3017   -9.6991 C   0  0  0  0  0  0  0  0  0  0  0  0
   25.7988  -20.3043  -10.5332 C   0  0  0  0  0  0  0  0  0  0  0  0
   25.6201  -20.5418  -12.0173 C   0  0  2  0  0  0  0  0  0  0  0  0
   26.4075  -19.6490  -12.8040 N   0  0  0  0  0  0  0  0  0  0  0  0
   24.1875  -20.5211  -12.3628 C   0  0  0  0  0  0  0  0  0  0  0  0
   23.5044  -19.4679  -12.3598 O   0  0  0  0  0  0  0  0  0  0  0  0
   21.6833  -22.9653  -13.7579 C   0  0  0  0  0  0  0  0  0  0  0  0
   22.1151  -21.6906  -13.0890 C   0  0  2  0  0  0  0  0  0  0  0  0
   23.5287  -21.7280  -12.7172 N   0  0  0  0  0  0  0  0  0  0  0  0
   21.3131  -21.4435  -11.8570 C   0  0  0  0  0  0  0  0  0  0  0  0
   19.9827  -21.0681  -11.9004 O   0  0  0  0  0  0  0  0  0  0  0  0
   21.8306  -21.5709  -10.7205 O   0  0  0  0  0  0  0  0  0  0  0  0
  2  1  1  6
  3  4  1  0
  3  2  1  0
  4  9  2  0
  5  6  2  0
  5  4  1  0
  6  7  1  0
  7  8  2  0
  9  8  1  0
 10  2  1  0
 10 17  1  0
 11 10  2  0
 12 13  1  0
 13 14  1  0
 15 14  1  0
 16 17  1  0
 16 15  1  1
 18 19  2  0
 18 16  1  0
 21 20  1  1
 21 23  1  0
 21 22  1  0
 22 18  1  0
 23 24  1  0
 25 23  2  0
M  END
$$$$
