FMA.pdb
     RDKit          3D

 25 25  0  0  1  0  0  0  0  0999 V2000
   18.3945  -14.6075    3.6712 N   0  0  0  0  0  0  0  0  0  0  0  0
   17.6307  -15.8188    3.8756 C   0  0  1  0  0  0  0  0  0  0  0  0
   16.7670  -16.0438    2.6451 C   0  0  0  0  0  0  0  0  0  0  0  0
   15.5872  -15.1426    2.6522 C   0  0  0  0  0  0  0  0  0  0  0  0
   15.6037  -13.9191    2.0138 C   0  0  0  0  0  0  0  0  0  0  0  0
   14.5016  -13.0886    2.0262 C   0  0  0  0  0  0  0  0  0  0  0  0
   13.3821  -13.5421    2.7088 C   0  0  0  0  0  0  0  0  0  0  0  0
   13.3390  -14.7544    3.3521 C   0  0  0  0  0  0  0  0  0  0  0  0
   14.4551  -15.5510    3.3164 C   0  0  0  0  0  0  0  0  0  0  0  0
   18.5570  -16.9421    4.0430 C   0  0  0  0  0  0  0  0  0  0  0  0
   19.6298  -17.0693    3.3769 O   0  0  0  0  0  0  0  0  0  0  0  0
   23.0682  -17.1006    8.5292 C   0  0  0  0  0  0  0  0  0  0  0  0
   21.6252  -18.1737    8.3488 S   0  0  0  0  0  0  0  0  0  0  0  0
   21.0448  -18.2190    6.6153 C   0  0  0  0  0  0  0  0  0  0  0  0
   19.8020  -19.0532    6.5880 C   0  0  0  0  0  0  0  0  0  0  0  0
   19.1631  -19.0974    5.2165 C   0  0  2  0  0  0  0  0  0  0  0  0
   18.3002  -17.9841    4.9885 N   0  0  0  0  0  0  0  0  0  0  0  0
   18.5077  -20.4007    5.0069 C   0  0  0  0  0  0  0  0  0  0  0  0
   17.3333  -20.6373    5.3817 O   0  0  0  0  0  0  0  0  0  0  0  0
   19.3619  -23.6260    3.2357 C   0  0  0  0  0  0  0  0  0  0  0  0
   18.5282  -22.7140    4.0913 C   0  0  2  0  0  0  0  0  0  0  0  0
   19.2114  -21.4488    4.3569 N   0  0  0  0  0  0  0  0  0  0  0  0
   18.2121  -23.3590    5.3975 C   0  0  0  0  0  0  0  0  0  0  0  0
   17.0342  -24.0491    5.6185 O   0  0  0  0  0  0  0  0  0  0  0  0
   19.0210  -23.2943    6.3552 O   0  0  0  0  0  0  0  0  0  0  0  0
  2  1  1  6
  3  4  1  0
  3  2  1  0
  4  9  2  0
  5  6  2  0
  5  4  1  0
  6  7  1  0
  7  8  2  0
  9  8  1  0
 10  2  1  0
 10 17  1  0
 11 10  2  0
 12 13  1  0
 13 14  1  0
 15 14  1  0
 16 17  1  0
 16 15  1  1
 18 19  2  0
 18 16  1  0
 21 20  1  6
 21 23  1  0
 21 22  1  0
 22 18  1  0
 23 24  1  0
 25 23  2  0
M  END
$$$$
