FMA.pdb
     RDKit          3D

 25 25  0  0  1  0  0  0  0  0999 V2000
   28.5701  -20.5216  -15.1647 N   0  0  0  0  0  0  0  0  0  0  0  0
   27.5389  -19.7108  -14.5552 C   0  0  1  0  0  0  0  0  0  0  0  0
   26.8398  -18.9317  -15.6576 C   0  0  0  0  0  0  0  0  0  0  0  0
   27.6592  -17.7716  -16.0899 C   0  0  0  0  0  0  0  0  0  0  0  0
   28.4804  -17.8346  -17.1974 C   0  0  0  0  0  0  0  0  0  0  0  0
   29.2381  -16.7505  -17.5911 C   0  0  0  0  0  0  0  0  0  0  0  0
   29.1341  -15.6002  -16.8224 C   0  0  0  0  0  0  0  0  0  0  0  0
   28.3253  -15.5107  -15.7164 C   0  0  0  0  0  0  0  0  0  0  0  0
   27.5879  -16.6103  -15.3579 C   0  0  0  0  0  0  0  0  0  0  0  0
   26.5778  -20.5901  -13.8838 C   0  0  0  0  0  0  0  0  0  0  0  0
   26.2469  -21.7325  -14.3267 O   0  0  0  0  0  0  0  0  0  0  0  0
   26.4734  -19.2984   -7.7295 C   0  0  0  0  0  0  0  0  0  0  0  0
   26.2914  -21.0619   -8.0808 S   0  0  0  0  0  0  0  0  0  0  0  0
   26.3313  -21.3876   -9.8797 C   0  0  0  0  0  0  0  0  0  0  0  0
   25.0793  -20.8080  -10.4608 C   0  0  0  0  0  0  0  0  0  0  0  0
   24.9914  -21.0019  -11.9593 C   0  0  2  0  0  0  0  0  0  0  0  0
   25.9424  -20.2033  -12.6621 N   0  0  0  0  0  0  0  0  0  0  0  0
   23.6042  -20.7988  -12.4139 C   0  0  0  0  0  0  0  0  0  0  0  0
   23.0917  -19.6598  -12.5399 O   0  0  0  0  0  0  0  0  0  0  0  0
   20.9367  -22.8677  -14.0243 C   0  0  0  0  0  0  0  0  0  0  0  0
   21.4273  -21.7064  -13.2060 C   0  0  2  0  0  0  0  0  0  0  0  0
   22.7926  -21.9206  -12.7288 N   0  0  0  0  0  0  0  0  0  0  0  0
   20.5470  -21.4850  -12.0235 C   0  0  0  0  0  0  0  0  0  0  0  0
   19.2507  -21.0174  -12.1406 O   0  0  0  0  0  0  0  0  0  0  0  0
   20.9633  -21.7206  -10.8630 O   0  0  0  0  0  0  0  0  0  0  0  0
  2  1  1  6
  3  4  1  0
  3  2  1  0
  4  9  2  0
  5  6  2  0
  5  4  1  0
  6  7  1  0
  7  8  2  0
  9  8  1  0
 10  2  1  0
 10 17  1  0
 11 10  2  0
 12 13  1  0
 13 14  1  0
 15 14  1  0
 16 17  1  0
 16 15  1  1
 18 19  2  0
 18 16  1  0
 21 20  1  1
 21 23  1  0
 21 22  1  0
 22 18  1  0
 23 24  1  0
 25 23  2  0
M  END
$$$$
