FMA.pdb
     RDKit          3D

 25 25  0  0  1  0  0  0  0  0999 V2000
   26.3022  -18.9811  -16.8243 N   0  0  0  0  0  0  0  0  0  0  0  0
   25.1319  -18.7045  -16.0204 C   0  0  1  0  0  0  0  0  0  0  0  0
   23.9514  -18.5119  -16.9585 C   0  0  0  0  0  0  0  0  0  0  0  0
   24.1008  -17.2657  -17.7516 C   0  0  0  0  0  0  0  0  0  0  0  0
   24.1616  -16.0249  -17.1504 C   0  0  0  0  0  0  0  0  0  0  0  0
   24.3006  -14.8723  -17.8966 C   0  0  0  0  0  0  0  0  0  0  0  0
   24.3759  -15.0221  -19.2738 C   0  0  0  0  0  0  0  0  0  0  0  0
   24.3181  -16.2441  -19.8973 C   0  0  0  0  0  0  0  0  0  0  0  0
   24.1795  -17.3659  -19.1203 C   0  0  0  0  0  0  0  0  0  0  0  0
   24.8816  -19.8466  -15.1369 C   0  0  0  0  0  0  0  0  0  0  0  0
   24.5333  -20.9926  -15.5567 O   0  0  0  0  0  0  0  0  0  0  0  0
   26.0643  -19.4462   -8.7860 C   0  0  0  0  0  0  0  0  0  0  0  0
   25.4697  -21.1525   -8.8240 S   0  0  0  0  0  0  0  0  0  0  0  0
   24.6959  -21.5497  -10.4325 C   0  0  0  0  0  0  0  0  0  0  0  0
   25.1036  -20.4778  -11.3948 C   0  0  0  0  0  0  0  0  0  0  0  0
   24.5385  -20.6978  -12.7816 C   0  0  2  0  0  0  0  0  0  0  0  0
   25.0185  -19.7338  -13.7177 N   0  0  0  0  0  0  0  0  0  0  0  0
   23.0679  -20.7755  -12.7208 C   0  0  0  0  0  0  0  0  0  0  0  0
   22.3433  -19.7694  -12.5247 O   0  0  0  0  0  0  0  0  0  0  0  0
   20.4401  -23.4109  -13.3229 C   0  0  0  0  0  0  0  0  0  0  0  0
   20.9601  -22.0934  -12.8201 C   0  0  2  0  0  0  0  0  0  0  0  0
   22.4191  -22.0274  -12.8877 N   0  0  0  0  0  0  0  0  0  0  0  0
   20.5459  -21.8678  -11.4060 C   0  0  0  0  0  0  0  0  0  0  0  0
   19.2429  -21.5670  -11.0533 O   0  0  0  0  0  0  0  0  0  0  0  0
   21.3832  -21.9454  -10.4741 O   0  0  0  0  0  0  0  0  0  0  0  0
  2  1  1  6
  3  4  1  0
  3  2  1  0
  4  9  2  0
  5  6  2  0
  5  4  1  0
  6  7  1  0
  7  8  2  0
  9  8  1  0
 10  2  1  0
 10 17  1  0
 11 10  2  0
 12 13  1  0
 13 14  1  0
 15 14  1  0
 16 17  1  0
 16 15  1  1
 18 19  2  0
 18 16  1  0
 21 20  1  1
 21 23  1  0
 21 22  1  0
 22 18  1  0
 23 24  1  0
 25 23  2  0
M  END
$$$$
