FMA.pdb
     RDKit          3D

 25 25  0  0  1  0  0  0  0  0999 V2000
   28.5709  -20.3790  -14.5179 N   0  0  0  0  0  0  0  0  0  0  0  0
   27.5779  -19.6092  -13.8011 C   0  0  1  0  0  0  0  0  0  0  0  0
   26.6627  -18.9540  -14.8227 C   0  0  0  0  0  0  0  0  0  0  0  0
   27.3147  -17.7707  -15.4382 C   0  0  0  0  0  0  0  0  0  0  0  0
   28.0074  -17.8600  -16.6286 C   0  0  0  0  0  0  0  0  0  0  0  0
   28.6100  -16.7540  -17.1926 C   0  0  0  0  0  0  0  0  0  0  0  0
   28.4856  -15.5541  -16.5072 C   0  0  0  0  0  0  0  0  0  0  0  0
   27.8025  -15.4376  -15.3218 C   0  0  0  0  0  0  0  0  0  0  0  0
   27.2175  -16.5603  -14.7939 C   0  0  0  0  0  0  0  0  0  0  0  0
   26.8014  -20.5129  -12.9476 C   0  0  0  0  0  0  0  0  0  0  0  0
   26.4150  -21.6640  -13.3168 O   0  0  0  0  0  0  0  0  0  0  0  0
   28.0168  -20.6593   -6.0004 C   0  0  0  0  0  0  0  0  0  0  0  0
   26.5314  -20.2553   -6.9475 S   0  0  0  0  0  0  0  0  0  0  0  0
   26.6543  -20.8658   -8.6667 C   0  0  0  0  0  0  0  0  0  0  0  0
   25.4429  -20.3752   -9.3967 C   0  0  0  0  0  0  0  0  0  0  0  0
   25.4256  -20.8064  -10.8475 C   0  0  2  0  0  0  0  0  0  0  0  0
   26.4254  -20.1416  -11.6185 N   0  0  0  0  0  0  0  0  0  0  0  0
   24.0667  -20.6638  -11.4002 C   0  0  0  0  0  0  0  0  0  0  0  0
   23.5752  -19.5520  -11.7131 O   0  0  0  0  0  0  0  0  0  0  0  0
   21.6368  -22.8152  -13.1414 C   0  0  0  0  0  0  0  0  0  0  0  0
   21.9433  -21.6710  -12.2164 C   0  0  2  0  0  0  0  0  0  0  0  0
   23.2596  -21.8154  -11.5966 N   0  0  0  0  0  0  0  0  0  0  0  0
   20.9230  -21.5803  -11.1334 C   0  0  0  0  0  0  0  0  0  0  0  0
   19.5823  -21.3617  -11.3933 O   0  0  0  0  0  0  0  0  0  0  0  0
   21.2558  -21.7020   -9.9292 O   0  0  0  0  0  0  0  0  0  0  0  0
  2  1  1  6
  3  4  1  0
  3  2  1  0
  4  9  2  0
  5  6  2  0
  5  4  1  0
  6  7  1  0
  7  8  2  0
  9  8  1  0
 10  2  1  0
 10 17  1  0
 11 10  2  0
 12 13  1  0
 13 14  1  0
 15 14  1  0
 16 17  1  0
 16 15  1  1
 18 19  2  0
 18 16  1  0
 21 20  1  6
 21 23  1  0
 21 22  1  0
 22 18  1  0
 23 24  1  0
 25 23  2  0
M  END
$$$$
