FYD.pdb
     RDKit          3D

 32 33  0  0  1  0  0  0  0  0999 V2000
   24.2682  -25.5341   10.3402 N   0  0  0  0  0  0  0  0  0  0  0  0
   25.5581  -25.6437    9.7407 C   0  0  1  0  0  0  0  0  0  0  0  0
   26.6209  -25.5362   10.7996 C   0  0  0  0  0  0  0  0  0  0  0  0
   26.8640  -24.0778   11.0131 C   0  0  0  0  0  0  0  0  0  0  0  0
   27.6381  -23.3403   10.1328 C   0  0  0  0  0  0  0  0  0  0  0  0
   27.8766  -21.9937   10.3093 C   0  0  0  0  0  0  0  0  0  0  0  0
   27.3422  -21.3226   11.3890 C   0  0  0  0  0  0  0  0  0  0  0  0
   26.5707  -22.0491   12.2696 C   0  0  0  0  0  0  0  0  0  0  0  0
   26.3308  -23.4029   12.0923 C   0  0  0  0  0  0  0  0  0  0  0  0
   25.6634  -26.9235    8.9660 C   0  0  0  0  0  0  0  0  0  0  0  0
   25.0047  -27.8924    9.3836 O   0  0  0  0  0  0  0  0  0  0  0  0
   27.3007  -33.0287    2.9103 O   0  0  0  0  0  0  0  0  0  0  0  0
   27.2565  -31.8166    3.6005 C   0  0  0  0  0  0  0  0  0  0  0  0
   28.3201  -31.4431    4.3843 C   0  0  0  0  0  0  0  0  0  0  0  0
   28.3214  -30.2532    5.0855 C   0  0  0  0  0  0  0  0  0  0  0  0
   27.2183  -29.4172    4.9930 C   0  0  0  0  0  0  0  0  0  0  0  0
   27.2214  -28.1367    5.7477 C   0  0  0  0  0  0  0  0  0  0  0  0
   26.6516  -28.2649    7.1153 C   0  0  2  0  0  0  0  0  0  0  0  0
   26.4664  -27.0355    7.8185 N   0  0  0  0  0  0  0  0  0  0  0  0
   27.2422  -29.3714    7.9252 C   0  0  0  0  0  0  0  0  0  0  0  0
   28.3475  -29.2756    8.5102 O   0  0  0  0  0  0  0  0  0  0  0  0
   26.1388  -29.7961    4.1976 C   0  0  0  0  0  0  0  0  0  0  0  0
   26.1457  -30.9868    3.5002 C   0  0  0  0  0  0  0  0  0  0  0  0
   26.5735  -30.6173    8.0817 N   0  0  0  0  0  0  0  0  0  0  0  0
   27.1442  -31.7433    8.7949 C   0  0  1  0  0  0  0  0  0  0  0  0
   26.5768  -31.8795   10.1836 C   0  0  0  0  0  0  0  0  0  0  0  0
   25.1003  -31.8534   10.1633 C   0  0  0  0  0  0  0  0  0  0  0  0
   24.3904  -31.7380    9.1337 O   0  0  0  0  0  0  0  0  0  0  0  0
   27.0023  -32.9398    7.9556 C   0  0  0  0  0  0  0  0  0  0  0  0
   26.1000  -32.9610    6.9190 O   0  0  0  0  0  0  0  0  0  0  0  0
   24.4143  -31.9634   11.3653 O   0  0  0  0  0  0  0  0  0  0  0  0
   27.7005  -33.9454    8.1781 O   0  0  0  0  0  0  0  0  0  0  0  0
  2  1  1  1
  2  3  1  0
  3  4  1  0
  4  5  2  0
  5  6  1  0
  7  6  2  0
  8  7  1  0
  9  8  2  0
  9  4  1  0
 10  2  1  0
 11 10  2  0
 13 23  2  0
 13 12  1  0
 14 13  1  0
 15 16  1  0
 15 14  2  0
 16 22  2  0
 17 16  1  0
 18 19  1  0
 18 17  1  6
 19 10  1  0
 20 18  1  0
 21 20  2  0
 22 23  1  0
 24 20  1  0
 25 29  1  0
 25 24  1  0
 26 27  1  0
 25 26  1  1
 27 28  2  0
 29 30  1  0
 31 27  1  0
 32 29  2  0
M  END
$$$$
