FYD.pdb
     RDKit          3D

 32 33  0  0  1  0  0  0  0  0999 V2000
   32.4604  -32.1427  -16.3965 N   0  0  0  0  0  0  0  0  0  0  0  0
   31.4472  -32.1336  -17.4008 C   0  0  1  0  0  0  0  0  0  0  0  0
   30.8874  -33.5194  -17.5699 C   0  0  0  0  0  0  0  0  0  0  0  0
   31.9221  -34.3108  -18.3012 C   0  0  0  0  0  0  0  0  0  0  0  0
   32.1210  -34.1519  -19.6626 C   0  0  0  0  0  0  0  0  0  0  0  0
   33.0693  -34.8711  -20.3590 C   0  0  0  0  0  0  0  0  0  0  0  0
   33.8672  -35.7906  -19.7111 C   0  0  0  0  0  0  0  0  0  0  0  0
   33.6756  -35.9547  -18.3566 C   0  0  0  0  0  0  0  0  0  0  0  0
   32.7223  -35.2317  -17.6564 C   0  0  0  0  0  0  0  0  0  0  0  0
   30.3828  -31.1353  -17.0551 C   0  0  0  0  0  0  0  0  0  0  0  0
   30.0845  -31.0210  -15.8530 O   0  0  0  0  0  0  0  0  0  0  0  0
   25.2374  -24.1212  -16.7474 O   0  0  0  0  0  0  0  0  0  0  0  0
   26.2209  -25.0698  -17.0306 C   0  0  0  0  0  0  0  0  0  0  0  0
   26.4667  -25.4236  -18.3343 C   0  0  0  0  0  0  0  0  0  0  0  0
   27.4298  -26.3574  -18.6629 C   0  0  0  0  0  0  0  0  0  0  0  0
   28.1652  -26.9505  -17.6471 C   0  0  0  0  0  0  0  0  0  0  0  0
   29.2018  -27.9549  -18.0023 C   0  0  0  0  0  0  0  0  0  0  0  0
   28.7779  -29.3530  -17.7250 C   0  0  2  0  0  0  0  0  0  0  0  0
   29.7438  -30.3582  -18.0360 N   0  0  0  0  0  0  0  0  0  0  0  0
   27.3819  -29.6672  -18.1513 C   0  0  0  0  0  0  0  0  0  0  0  0
   27.0878  -30.0293  -19.3156 O   0  0  0  0  0  0  0  0  0  0  0  0
   27.9159  -26.5916  -16.3240 C   0  0  0  0  0  0  0  0  0  0  0  0
   26.9517  -25.6576  -16.0045 C   0  0  0  0  0  0  0  0  0  0  0  0
   26.2886  -29.5722  -17.2459 N   0  0  0  0  0  0  0  0  0  0  0  0
   24.9191  -29.8710  -17.6169 C   0  0  1  0  0  0  0  0  0  0  0  0
   24.0175  -29.9750  -16.4147 C   0  0  0  0  0  0  0  0  0  0  0  0
   22.6857  -30.4930  -16.7878 C   0  0  0  0  0  0  0  0  0  0  0  0
   22.4429  -31.2233  -17.7804 O   0  0  0  0  0  0  0  0  0  0  0  0
   24.4896  -28.8899  -18.6214 C   0  0  0  0  0  0  0  0  0  0  0  0
   24.3967  -27.5571  -18.2988 O   0  0  0  0  0  0  0  0  0  0  0  0
   21.5949  -30.1622  -15.9953 O   0  0  0  0  0  0  0  0  0  0  0  0
   24.2059  -29.2602  -19.7749 O   0  0  0  0  0  0  0  0  0  0  0  0
  2  1  1  1
  2  3  1  0
  3  4  1  0
  4  5  2  0
  5  6  1  0
  7  6  2  0
  8  7  1  0
  9  8  2  0
  9  4  1  0
 10  2  1  0
 11 10  2  0
 13 23  2  0
 13 12  1  0
 14 13  1  0
 15 16  1  0
 15 14  2  0
 16 22  2  0
 17 16  1  0
 18 19  1  0
 18 17  1  6
 19 10  1  0
 20 18  1  0
 21 20  2  0
 22 23  1  0
 24 20  1  0
 25 29  1  0
 25 24  1  0
 26 27  1  0
 25 26  1  1
 27 28  2  0
 29 30  1  0
 31 27  1  0
 32 29  2  0
M  END
$$$$
