FYD.pdb
     RDKit          3D

 32 33  0  0  1  0  0  0  0  0999 V2000
   27.7726  -20.3890  -19.0622 N   0  0  0  0  0  0  0  0  0  0  0  0
   27.5715  -19.4236  -18.0314 C   0  0  1  0  0  0  0  0  0  0  0  0
   26.5990  -18.3761  -18.4995 C   0  0  0  0  0  0  0  0  0  0  0  0
   27.2957  -17.5927  -19.5636 C   0  0  0  0  0  0  0  0  0  0  0  0
   26.7315  -17.4197  -20.8166 C   0  0  0  0  0  0  0  0  0  0  0  0
   27.3557  -16.7013  -21.8145 C   0  0  0  0  0  0  0  0  0  0  0  0
   28.5866  -16.1195  -21.5945 C   0  0  0  0  0  0  0  0  0  0  0  0
   29.1547  -16.2868  -20.3506 C   0  0  0  0  0  0  0  0  0  0  0  0
   28.5273  -17.0090  -19.3473 C   0  0  0  0  0  0  0  0  0  0  0  0
   27.1108  -20.0965  -16.7728 C   0  0  0  0  0  0  0  0  0  0  0  0
   26.3085  -21.0387  -16.8971 O   0  0  0  0  0  0  0  0  0  0  0  0
   24.6935  -21.0240   -8.3711 O   0  0  0  0  0  0  0  0  0  0  0  0
   25.4196  -20.7379   -9.5279 C   0  0  0  0  0  0  0  0  0  0  0  0
   25.5989  -19.4316   -9.9107 C   0  0  0  0  0  0  0  0  0  0  0  0
   26.3098  -19.1002  -11.0474 C   0  0  0  0  0  0  0  0  0  0  0  0
   26.8549  -20.1158  -11.8193 C   0  0  0  0  0  0  0  0  0  0  0  0
   27.6203  -19.7577  -13.0422 C   0  0  0  0  0  0  0  0  0  0  0  0
   26.8600  -19.9989  -14.2971 C   0  0  2  0  0  0  0  0  0  0  0  0
   27.5582  -19.6901  -15.5043 N   0  0  0  0  0  0  0  0  0  0  0  0
   25.4410  -19.5362  -14.2539 C   0  0  0  0  0  0  0  0  0  0  0  0
   25.1094  -18.3345  -14.3921 O   0  0  0  0  0  0  0  0  0  0  0  0
   26.6730  -21.4416  -11.4311 C   0  0  0  0  0  0  0  0  0  0  0  0
   25.9612  -21.7640  -10.2937 C   0  0  0  0  0  0  0  0  0  0  0  0
   24.3676  -20.4473  -14.0501 N   0  0  0  0  0  0  0  0  0  0  0  0
   22.9813  -20.0347  -13.9487 C   0  0  1  0  0  0  0  0  0  0  0  0
   22.3927  -19.6946  -15.2929 C   0  0  0  0  0  0  0  0  0  0  0  0
   22.2062  -20.9057  -16.1172 C   0  0  0  0  0  0  0  0  0  0  0  0
   22.6570  -21.0704  -17.2779 O   0  0  0  0  0  0  0  0  0  0  0  0
   22.2478  -21.0646  -13.2020 C   0  0  0  0  0  0  0  0  0  0  0  0
   22.7206  -22.3539  -13.1451 O   0  0  0  0  0  0  0  0  0  0  0  0
   21.4777  -21.9647  -15.5924 O   0  0  0  0  0  0  0  0  0  0  0  0
   21.1900  -20.7756  -12.6139 O   0  0  0  0  0  0  0  0  0  0  0  0
  2  1  1  6
  2  3  1  0
  3  4  1  0
  4  5  2  0
  5  6  1  0
  7  6  2  0
  8  7  1  0
  9  8  2  0
  9  4  1  0
 10  2  1  0
 11 10  2  0
 13 23  2  0
 13 12  1  0
 14 13  1  0
 15 16  1  0
 15 14  2  0
 16 22  2  0
 17 16  1  0
 18 19  1  0
 18 17  1  1
 19 10  1  0
 20 18  1  0
 21 20  2  0
 22 23  1  0
 24 20  1  0
 25 29  1  0
 25 24  1  0
 26 27  1  0
 25 26  1  6
 27 28  2  0
 29 30  1  0
 31 27  1  0
 32 29  2  0
M  END
$$$$
