FYD.pdb
     RDKit          3D

 32 33  0  0  1  0  0  0  0  0999 V2000
   24.2907  -19.4153  -19.2494 N   0  0  0  0  0  0  0  0  0  0  0  0
   23.5046  -18.3990  -18.6295 C   0  0  1  0  0  0  0  0  0  0  0  0
   22.6474  -17.7196  -19.6620 C   0  0  0  0  0  0  0  0  0  0  0  0
   23.5781  -16.9961  -20.5796 C   0  0  0  0  0  0  0  0  0  0  0  0
   24.2031  -15.8223  -20.1925 C   0  0  0  0  0  0  0  0  0  0  0  0
   25.0654  -15.1369  -21.0221 C   0  0  0  0  0  0  0  0  0  0  0  0
   25.3401  -15.6059  -22.2895 C   0  0  0  0  0  0  0  0  0  0  0  0
   24.7223  -16.7731  -22.6823 C   0  0  0  0  0  0  0  0  0  0  0  0
   23.8554  -17.4623  -21.8485 C   0  0  0  0  0  0  0  0  0  0  0  0
   22.6875  -18.9820  -17.5153 C   0  0  0  0  0  0  0  0  0  0  0  0
   22.0633  -20.0294  -17.7609 O   0  0  0  0  0  0  0  0  0  0  0  0
   18.3789  -20.2344   -9.9713 O   0  0  0  0  0  0  0  0  0  0  0  0
   19.2776  -19.7699  -10.9326 C   0  0  0  0  0  0  0  0  0  0  0  0
   19.0803  -18.5383  -11.5067 C   0  0  0  0  0  0  0  0  0  0  0  0
   19.9427  -18.0371  -12.4618 C   0  0  0  0  0  0  0  0  0  0  0  0
   21.0348  -18.8003  -12.8482 C   0  0  0  0  0  0  0  0  0  0  0  0
   21.9625  -18.2593  -13.8759 C   0  0  0  0  0  0  0  0  0  0  0  0
   21.6960  -18.7904  -15.2391 C   0  0  2  0  0  0  0  0  0  0  0  0
   22.6220  -18.3814  -16.2467 N   0  0  0  0  0  0  0  0  0  0  0  0
   20.2603  -18.7438  -15.6463 C   0  0  0  0  0  0  0  0  0  0  0  0
   19.7356  -17.7416  -16.1878 O   0  0  0  0  0  0  0  0  0  0  0  0
   21.2352  -20.0501  -12.2658 C   0  0  0  0  0  0  0  0  0  0  0  0
   20.3685  -20.5434  -11.3120 C   0  0  0  0  0  0  0  0  0  0  0  0
   19.3923  -19.8518  -15.4396 N   0  0  0  0  0  0  0  0  0  0  0  0
   17.9836  -19.8348  -15.7827 C   0  0  1  0  0  0  0  0  0  0  0  0
   17.7040  -20.5803  -17.0614 C   0  0  0  0  0  0  0  0  0  0  0  0
   18.0838  -22.0027  -16.9454 C   0  0  0  0  0  0  0  0  0  0  0  0
   17.3524  -22.9142  -16.4852 O   0  0  0  0  0  0  0  0  0  0  0  0
   17.2207  -20.3060  -14.6199 C   0  0  0  0  0  0  0  0  0  0  0  0
   17.7182  -21.3057  -13.8184 O   0  0  0  0  0  0  0  0  0  0  0  0
   19.3458  -22.3935  -17.3720 O   0  0  0  0  0  0  0  0  0  0  0  0
   16.1154  -19.8015  -14.3517 O   0  0  0  0  0  0  0  0  0  0  0  0
  2  1  1  6
  2  3  1  0
  3  4  1  0
  4  5  2  0
  5  6  1  0
  7  6  2  0
  8  7  1  0
  9  8  2  0
  9  4  1  0
 10  2  1  0
 11 10  2  0
 13 23  2  0
 13 12  1  0
 14 13  1  0
 15 16  1  0
 15 14  2  0
 16 22  2  0
 17 16  1  0
 18 19  1  0
 18 17  1  1
 19 10  1  0
 20 18  1  0
 21 20  2  0
 22 23  1  0
 24 20  1  0
 25 29  1  0
 25 24  1  0
 26 27  1  0
 25 26  1  6
 27 28  2  0
 29 30  1  0
 31 27  1  0
 32 29  2  0
M  END
$$$$
