FYD.pdb
     RDKit          3D

 32 33  0  0  1  0  0  0  0  0999 V2000
   29.3600  -30.8491  -17.0556 N   0  0  0  0  0  0  0  0  0  0  0  0
   28.5120  -30.1972  -17.9997 C   0  0  1  0  0  0  0  0  0  0  0  0
   28.5943  -30.9006  -19.3266 C   0  0  0  0  0  0  0  0  0  0  0  0
   29.9476  -30.6018  -19.8843 C   0  0  0  0  0  0  0  0  0  0  0  0
   30.2620  -29.3465  -20.3777 C   0  0  0  0  0  0  0  0  0  0  0  0
   31.5037  -29.0474  -20.8975 C   0  0  0  0  0  0  0  0  0  0  0  0
   32.4937  -30.0064  -20.9445 C   0  0  0  0  0  0  0  0  0  0  0  0
   32.1889  -31.2579  -20.4555 C   0  0  0  0  0  0  0  0  0  0  0  0
   30.9406  -31.5587  -19.9329 C   0  0  0  0  0  0  0  0  0  0  0  0
   27.1063  -30.1382  -17.4806 C   0  0  0  0  0  0  0  0  0  0  0  0
   26.7946  -30.9587  -16.5993 O   0  0  0  0  0  0  0  0  0  0  0  0
   23.5225  -24.2049  -21.3404 O   0  0  0  0  0  0  0  0  0  0  0  0
   23.7636  -25.0803  -20.2807 C   0  0  0  0  0  0  0  0  0  0  0  0
   22.7099  -25.7203  -19.6763 C   0  0  0  0  0  0  0  0  0  0  0  0
   22.8997  -26.5950  -18.6245 C   0  0  0  0  0  0  0  0  0  0  0  0
   24.1891  -26.8302  -18.1702 C   0  0  0  0  0  0  0  0  0  0  0  0
   24.3920  -27.7723  -17.0385 C   0  0  0  0  0  0  0  0  0  0  0  0
   24.8322  -29.1234  -17.4768 C   0  0  2  0  0  0  0  0  0  0  0  0
   26.1739  -29.2027  -17.9601 N   0  0  0  0  0  0  0  0  0  0  0  0
   23.8238  -29.8631  -18.2925 C   0  0  0  0  0  0  0  0  0  0  0  0
   23.9355  -30.0297  -19.5306 O   0  0  0  0  0  0  0  0  0  0  0  0
   25.2586  -26.1808  -18.7834 C   0  0  0  0  0  0  0  0  0  0  0  0
   25.0601  -25.3083  -19.8339 C   0  0  0  0  0  0  0  0  0  0  0  0
   22.6604  -30.4299  -17.7016 N   0  0  0  0  0  0  0  0  0  0  0  0
   21.6294  -31.1069  -18.4638 C   0  0  1  0  0  0  0  0  0  0  0  0
   21.3370  -32.4820  -17.9227 C   0  0  0  0  0  0  0  0  0  0  0  0
   20.3042  -33.1652  -18.7274 C   0  0  0  0  0  0  0  0  0  0  0  0
   20.2172  -33.1278  -19.9797 O   0  0  0  0  0  0  0  0  0  0  0  0
   20.4615  -30.2207  -18.5472 C   0  0  0  0  0  0  0  0  0  0  0  0
   19.4989  -30.4246  -19.5067 O   0  0  0  0  0  0  0  0  0  0  0  0
   19.3378  -33.9174  -18.0732 O   0  0  0  0  0  0  0  0  0  0  0  0
   20.3356  -29.2763  -17.7468 O   0  0  0  0  0  0  0  0  0  0  0  0
  2  1  1  1
  2  3  1  0
  3  4  1  0
  4  5  2  0
  5  6  1  0
  7  6  2  0
  8  7  1  0
  9  8  2  0
  9  4  1  0
 10  2  1  0
 11 10  2  0
 13 23  2  0
 13 12  1  0
 14 13  1  0
 15 16  1  0
 15 14  2  0
 16 22  2  0
 17 16  1  0
 18 19  1  0
 18 17  1  6
 19 10  1  0
 20 18  1  0
 21 20  2  0
 22 23  1  0
 24 20  1  0
 25 29  1  0
 25 24  1  0
 26 27  1  0
 25 26  1  1
 27 28  2  0
 29 30  1  0
 31 27  1  0
 32 29  2  0
M  END
$$$$
