FYD.pdb
     RDKit          3D

 32 33  0  0  1  0  0  0  0  0999 V2000
   26.8671  -23.5314  -17.1678 N   0  0  0  0  0  0  0  0  0  0  0  0
   26.2274  -22.2604  -17.0654 C   0  0  1  0  0  0  0  0  0  0  0  0
   25.4800  -21.9642  -18.3366 C   0  0  0  0  0  0  0  0  0  0  0  0
   26.5105  -21.6895  -19.3828 C   0  0  0  0  0  0  0  0  0  0  0  0
   26.8032  -22.6191  -20.3669 C   0  0  0  0  0  0  0  0  0  0  0  0
   27.7501  -22.3881  -21.3423 C   0  0  0  0  0  0  0  0  0  0  0  0
   28.4513  -21.2009  -21.3717 C   0  0  0  0  0  0  0  0  0  0  0  0
   28.1659  -20.2707  -20.3961 C   0  0  0  0  0  0  0  0  0  0  0  0
   27.2140  -20.5028  -19.4155 C   0  0  0  0  0  0  0  0  0  0  0  0
   25.3300  -22.2262  -15.8644 C   0  0  0  0  0  0  0  0  0  0  0  0
   24.5569  -23.1882  -15.7093 O   0  0  0  0  0  0  0  0  0  0  0  0
   21.1252  -20.2521   -8.4691 O   0  0  0  0  0  0  0  0  0  0  0  0
   22.0614  -20.2674   -9.5038 C   0  0  0  0  0  0  0  0  0  0  0  0
   21.8682  -19.4707  -10.6053 C   0  0  0  0  0  0  0  0  0  0  0  0
   22.7672  -19.4524  -11.6536 C   0  0  0  0  0  0  0  0  0  0  0  0
   23.8925  -20.2608  -11.5881 C   0  0  0  0  0  0  0  0  0  0  0  0
   24.8596  -20.2396  -12.7168 C   0  0  0  0  0  0  0  0  0  0  0  0
   24.3977  -21.0209  -13.8947 C   0  0  2  0  0  0  0  0  0  0  0  0
   25.3521  -21.1612  -14.9481 N   0  0  0  0  0  0  0  0  0  0  0  0
   23.0101  -20.6970  -14.3406 C   0  0  0  0  0  0  0  0  0  0  0  0
   22.7208  -19.6510  -14.9693 O   0  0  0  0  0  0  0  0  0  0  0  0
   24.0889  -21.0694  -10.4705 C   0  0  0  0  0  0  0  0  0  0  0  0
   23.1856  -21.0816   -9.4274 C   0  0  0  0  0  0  0  0  0  0  0  0
   21.9199  -21.5709  -14.0730 N   0  0  0  0  0  0  0  0  0  0  0  0
   20.5512  -21.2751  -14.4493 C   0  0  1  0  0  0  0  0  0  0  0  0
   20.0168  -22.2587  -15.4573 C   0  0  0  0  0  0  0  0  0  0  0  0
   20.4902  -21.9396  -16.8194 C   0  0  0  0  0  0  0  0  0  0  0  0
   20.8074  -22.7834  -17.6939 O   0  0  0  0  0  0  0  0  0  0  0  0
   19.7513  -21.1592  -13.2234 C   0  0  0  0  0  0  0  0  0  0  0  0
   18.6703  -20.3118  -13.1740 O   0  0  0  0  0  0  0  0  0  0  0  0
   20.6037  -20.6068  -17.1913 O   0  0  0  0  0  0  0  0  0  0  0  0
   20.0481  -21.8297  -12.2181 O   0  0  0  0  0  0  0  0  0  0  0  0
  2  1  1  6
  2  3  1  0
  3  4  1  0
  4  5  2  0
  5  6  1  0
  7  6  2  0
  8  7  1  0
  9  8  2  0
  9  4  1  0
 10  2  1  0
 11 10  2  0
 13 23  2  0
 13 12  1  0
 14 13  1  0
 15 16  1  0
 15 14  2  0
 16 22  2  0
 17 16  1  0
 18 19  1  0
 18 17  1  1
 19 10  1  0
 20 18  1  0
 21 20  2  0
 22 23  1  0
 24 20  1  0
 25 29  1  0
 25 24  1  0
 26 27  1  0
 25 26  1  6
 27 28  2  0
 29 30  1  0
 31 27  1  0
 32 29  2  0
M  END
$$$$
