FYD.pdb
     RDKit          3D

 32 33  0  0  1  0  0  0  0  0999 V2000
   24.9013  -31.8749   -9.2266 N   0  0  0  0  0  0  0  0  0  0  0  0
   25.1153  -33.1042   -8.5350 C   0  0  1  0  0  0  0  0  0  0  0  0
   26.0235  -33.9899   -9.3431 C   0  0  0  0  0  0  0  0  0  0  0  0
   25.2421  -34.4226  -10.5405 C   0  0  0  0  0  0  0  0  0  0  0  0
   25.4438  -33.8404  -11.7809 C   0  0  0  0  0  0  0  0  0  0  0  0
   24.7346  -34.2228  -12.8999 C   0  0  0  0  0  0  0  0  0  0  0  0
   23.7822  -35.2170  -12.8205 C   0  0  0  0  0  0  0  0  0  0  0  0
   23.5754  -35.8014  -11.5900 C   0  0  0  0  0  0  0  0  0  0  0  0
   24.2883  -35.4171  -10.4649 C   0  0  0  0  0  0  0  0  0  0  0  0
   25.6617  -32.8399   -7.1637 C   0  0  0  0  0  0  0  0  0  0  0  0
   26.4377  -31.8755   -7.0410 O   0  0  0  0  0  0  0  0  0  0  0  0
   19.2945  -33.0992   -4.1888 O   0  0  0  0  0  0  0  0  0  0  0  0
   20.6730  -32.8856   -4.1505 C   0  0  0  0  0  0  0  0  0  0  0  0
   21.2756  -32.1632   -5.1507 C   0  0  0  0  0  0  0  0  0  0  0  0
   22.6362  -31.9262   -5.1551 C   0  0  0  0  0  0  0  0  0  0  0  0
   23.4100  -32.4326   -4.1211 C   0  0  0  0  0  0  0  0  0  0  0  0
   24.8742  -32.1762   -4.1268 C   0  0  0  0  0  0  0  0  0  0  0  0
   25.6592  -33.2938   -4.7152 C   0  0  2  0  0  0  0  0  0  0  0  0
   25.3201  -33.6384   -6.0592 N   0  0  0  0  0  0  0  0  0  0  0  0
   25.8569  -34.4549   -3.7976 C   0  0  0  0  0  0  0  0  0  0  0  0
   25.0878  -35.4454   -3.7732 O   0  0  0  0  0  0  0  0  0  0  0  0
   22.7988  -33.1657   -3.1060 C   0  0  0  0  0  0  0  0  0  0  0  0
   21.4385  -33.3978   -3.1093 C   0  0  0  0  0  0  0  0  0  0  0  0
   26.9465  -34.5041   -2.8843 N   0  0  0  0  0  0  0  0  0  0  0  0
   27.2007  -35.6307   -2.0078 C   0  0  1  0  0  0  0  0  0  0  0  0
   28.6287  -35.6642   -1.5295 C   0  0  0  0  0  0  0  0  0  0  0  0
   29.5715  -35.7334   -2.6642 C   0  0  0  0  0  0  0  0  0  0  0  0
   30.2309  -34.7665   -3.1201 O   0  0  0  0  0  0  0  0  0  0  0  0
   26.1965  -35.6165   -0.9366 C   0  0  0  0  0  0  0  0  0  0  0  0
   25.9466  -36.7498   -0.2002 O   0  0  0  0  0  0  0  0  0  0  0  0
   29.7649  -36.9534   -3.2978 O   0  0  0  0  0  0  0  0  0  0  0  0
   25.5632  -34.5746   -0.6878 O   0  0  0  0  0  0  0  0  0  0  0  0
  2  1  1  6
  2  3  1  0
  3  4  1  0
  4  5  2  0
  5  6  1  0
  7  6  2  0
  8  7  1  0
  9  8  2  0
  9  4  1  0
 10  2  1  0
 11 10  2  0
 13 23  2  0
 13 12  1  0
 14 13  1  0
 15 16  1  0
 15 14  2  0
 16 22  2  0
 17 16  1  0
 18 19  1  0
 18 17  1  1
 19 10  1  0
 20 18  1  0
 21 20  2  0
 22 23  1  0
 24 20  1  0
 25 29  1  0
 25 24  1  0
 26 27  1  0
 25 26  1  1
 27 28  2  0
 29 30  1  0
 31 27  1  0
 32 29  2  0
M  END
$$$$
