FYD.pdb
     RDKit          3D

 32 33  0  0  1  0  0  0  0  0999 V2000
   27.2521  -20.9882  -15.3624 N   0  0  0  0  0  0  0  0  0  0  0  0
   26.2175  -20.5464  -14.4851 C   0  0  1  0  0  0  0  0  0  0  0  0
   26.7140  -19.3958  -13.6533 C   0  0  0  0  0  0  0  0  0  0  0  0
   27.7618  -19.9486  -12.7432 C   0  0  0  0  0  0  0  0  0  0  0  0
   29.1056  -19.8907  -13.0732 C   0  0  0  0  0  0  0  0  0  0  0  0
   30.0903  -20.3944  -12.2497 C   0  0  0  0  0  0  0  0  0  0  0  0
   29.7642  -20.9842  -11.0465 C   0  0  0  0  0  0  0  0  0  0  0  0
   28.4294  -21.0458  -10.7108 C   0  0  0  0  0  0  0  0  0  0  0  0
   27.4393  -20.5394  -11.5386 C   0  0  0  0  0  0  0  0  0  0  0  0
   24.9910  -20.1856  -15.2691 C   0  0  0  0  0  0  0  0  0  0  0  0
   25.1428  -19.4115  -16.2308 O   0  0  0  0  0  0  0  0  0  0  0  0
   24.5878  -22.6074  -21.3051 O   0  0  0  0  0  0  0  0  0  0  0  0
   23.9150  -22.3235  -20.1160 C   0  0  0  0  0  0  0  0  0  0  0  0
   24.4120  -22.7952  -18.9261 C   0  0  0  0  0  0  0  0  0  0  0  0
   23.7808  -22.5397  -17.7245 C   0  0  0  0  0  0  0  0  0  0  0  0
   22.6155  -21.7872  -17.7241 C   0  0  0  0  0  0  0  0  0  0  0  0
   21.9376  -21.5125  -16.4301 C   0  0  0  0  0  0  0  0  0  0  0  0
   22.5432  -20.3774  -15.6843 C   0  0  2  0  0  0  0  0  0  0  0  0
   23.7221  -20.6927  -14.9421 N   0  0  0  0  0  0  0  0  0  0  0  0
   21.5559  -19.5194  -14.9644 C   0  0  0  0  0  0  0  0  0  0  0  0
   21.7470  -19.0838  -13.8039 O   0  0  0  0  0  0  0  0  0  0  0  0
   22.1109  -21.3084  -18.9314 C   0  0  0  0  0  0  0  0  0  0  0  0
   22.7480  -21.5683  -20.1276 C   0  0  0  0  0  0  0  0  0  0  0  0
   20.3224  -19.1414  -15.5640 N   0  0  0  0  0  0  0  0  0  0  0  0
   19.3544  -18.2771  -14.9173 C   0  0  1  0  0  0  0  0  0  0  0  0
   19.9539  -16.9531  -14.5216 C   0  0  0  0  0  0  0  0  0  0  0  0
   18.9185  -16.0235  -14.0266 C   0  0  0  0  0  0  0  0  0  0  0  0
   18.0296  -16.3077  -13.1860 O   0  0  0  0  0  0  0  0  0  0  0  0
   18.1728  -18.1798  -15.7836 C   0  0  0  0  0  0  0  0  0  0  0  0
   18.3151  -18.0073  -17.1397 O   0  0  0  0  0  0  0  0  0  0  0  0
   18.9020  -14.7229  -14.5123 O   0  0  0  0  0  0  0  0  0  0  0  0
   17.0313  -18.2532  -15.2938 O   0  0  0  0  0  0  0  0  0  0  0  0
  2  1  1  6
  2  3  1  0
  3  4  1  0
  4  5  2  0
  5  6  1  0
  7  6  2  0
  8  7  1  0
  9  8  2  0
  9  4  1  0
 10  2  1  0
 11 10  2  0
 13 23  2  0
 13 12  1  0
 14 13  1  0
 15 16  1  0
 15 14  2  0
 16 22  2  0
 17 16  1  0
 18 19  1  0
 18 17  1  1
 19 10  1  0
 20 18  1  0
 21 20  2  0
 22 23  1  0
 24 20  1  0
 25 29  1  0
 25 24  1  0
 26 27  1  0
 25 26  1  6
 27 28  2  0
 29 30  1  0
 31 27  1  0
 32 29  2  0
M  END
$$$$
