FYD.pdb
     RDKit          3D

 32 33  0  0  1  0  0  0  0  0999 V2000
   25.7673  -20.4917  -18.0141 N   0  0  0  0  0  0  0  0  0  0  0  0
   25.3939  -19.4544  -17.1086 C   0  0  1  0  0  0  0  0  0  0  0  0
   24.6129  -18.3979  -17.8408 C   0  0  0  0  0  0  0  0  0  0  0  0
   25.5848  -17.6835  -18.7223 C   0  0  0  0  0  0  0  0  0  0  0  0
   26.5952  -16.8985  -18.1924 C   0  0  0  0  0  0  0  0  0  0  0  0
   27.5034  -16.2296  -18.9858 C   0  0  0  0  0  0  0  0  0  0  0  0
   27.4350  -16.3214  -20.3601 C   0  0  0  0  0  0  0  0  0  0  0  0
   26.4326  -17.1006  -20.8952 C   0  0  0  0  0  0  0  0  0  0  0  0
   25.5196  -17.7731  -20.0978 C   0  0  0  0  0  0  0  0  0  0  0  0
   24.6239  -20.0248  -15.9550 C   0  0  0  0  0  0  0  0  0  0  0  0
   23.8763  -20.9891  -16.1964 O   0  0  0  0  0  0  0  0  0  0  0  0
   21.2481  -21.5996   -8.0036 O   0  0  0  0  0  0  0  0  0  0  0  0
   21.9741  -21.0381   -9.0547 C   0  0  0  0  0  0  0  0  0  0  0  0
   23.2681  -21.4400   -9.2764 C   0  0  0  0  0  0  0  0  0  0  0  0
   24.0252  -20.9126  -10.3040 C   0  0  0  0  0  0  0  0  0  0  0  0
   23.4603  -19.9528  -11.1310 C   0  0  0  0  0  0  0  0  0  0  0  0
   24.2761  -19.3865  -12.2370 C   0  0  0  0  0  0  0  0  0  0  0  0
   23.9140  -19.9380  -13.5697 C   0  0  2  0  0  0  0  0  0  0  0  0
   24.7336  -19.5022  -14.6553 N   0  0  0  0  0  0  0  0  0  0  0  0
   22.4479  -19.9489  -13.8518 C   0  0  0  0  0  0  0  0  0  0  0  0
   21.8128  -18.9279  -14.2084 O   0  0  0  0  0  0  0  0  0  0  0  0
   22.1471  -19.5447  -10.9063 C   0  0  0  0  0  0  0  0  0  0  0  0
   21.3976  -20.0769   -9.8771 C   0  0  0  0  0  0  0  0  0  0  0  0
   21.6759  -21.1377  -13.7301 N   0  0  0  0  0  0  0  0  0  0  0  0
   20.2526  -21.1942  -14.0007 C   0  0  1  0  0  0  0  0  0  0  0  0
   19.9566  -21.8021  -15.3468 C   0  0  0  0  0  0  0  0  0  0  0  0
   18.5018  -21.9062  -15.5787 C   0  0  0  0  0  0  0  0  0  0  0  0
   17.7633  -22.8293  -15.1546 O   0  0  0  0  0  0  0  0  0  0  0  0
   19.5949  -21.8610  -12.8698 C   0  0  0  0  0  0  0  0  0  0  0  0
   20.3205  -22.6456  -12.0055 O   0  0  0  0  0  0  0  0  0  0  0  0
   17.8721  -20.9174  -16.3226 O   0  0  0  0  0  0  0  0  0  0  0  0
   18.3724  -21.7195  -12.6862 O   0  0  0  0  0  0  0  0  0  0  0  0
  2  1  1  6
  2  3  1  0
  3  4  1  0
  4  5  2  0
  5  6  1  0
  7  6  2  0
  8  7  1  0
  9  8  2  0
  9  4  1  0
 10  2  1  0
 11 10  2  0
 13 23  2  0
 13 12  1  0
 14 13  1  0
 15 16  1  0
 15 14  2  0
 16 22  2  0
 17 16  1  0
 18 19  1  0
 18 17  1  1
 19 10  1  0
 20 18  1  0
 21 20  2  0
 22 23  1  0
 24 20  1  0
 25 29  1  0
 25 24  1  0
 26 27  1  0
 25 26  1  6
 27 28  2  0
 29 30  1  0
 31 27  1  0
 32 29  2  0
M  END
$$$$
