FYD.pdb
     RDKit          3D

 32 33  0  0  1  0  0  0  0  0999 V2000
   27.2782   -9.8762  -20.3839 N   0  0  0  0  0  0  0  0  0  0  0  0
   25.9763   -9.4064  -20.7292 C   0  0  1  0  0  0  0  0  0  0  0  0
   25.3081  -10.3917  -21.6485 C   0  0  0  0  0  0  0  0  0  0  0  0
   26.1157  -10.4177  -22.9050 C   0  0  0  0  0  0  0  0  0  0  0  0
   26.2001   -9.3083  -23.7298 C   0  0  0  0  0  0  0  0  0  0  0  0
   26.9386   -9.3087  -24.8943 C   0  0  0  0  0  0  0  0  0  0  0  0
   27.6316  -10.4354  -25.2846 C   0  0  0  0  0  0  0  0  0  0  0  0
   27.5528  -11.5434  -24.4695 C   0  0  0  0  0  0  0  0  0  0  0  0
   26.8104  -11.5431  -23.2988 C   0  0  0  0  0  0  0  0  0  0  0  0
   25.1691   -9.1564  -19.4902 C   0  0  0  0  0  0  0  0  0  0  0  0
   24.0476   -9.6908  -19.4293 O   0  0  0  0  0  0  0  0  0  0  0  0
   27.8380  -13.5680  -15.5918 O   0  0  0  0  0  0  0  0  0  0  0  0
   27.2795  -12.2919  -15.6758 C   0  0  0  0  0  0  0  0  0  0  0  0
   28.0283  -11.2553  -16.1757 C   0  0  0  0  0  0  0  0  0  0  0  0
   27.5183   -9.9759  -16.2779 C   0  0  0  0  0  0  0  0  0  0  0  0
   26.2162   -9.7363  -15.8637 C   0  0  0  0  0  0  0  0  0  0  0  0
   25.6684   -8.3589  -15.9748 C   0  0  0  0  0  0  0  0  0  0  0  0
   24.9119   -8.1325  -17.2349 C   0  0  2  0  0  0  0  0  0  0  0  0
   25.6473   -8.3565  -18.4386 N   0  0  0  0  0  0  0  0  0  0  0  0
   24.0686   -6.9004  -17.2317 C   0  0  0  0  0  0  0  0  0  0  0  0
   24.5359   -5.7517  -17.4195 O   0  0  0  0  0  0  0  0  0  0  0  0
   25.4562  -10.7881  -15.3563 C   0  0  0  0  0  0  0  0  0  0  0  0
   25.9735  -12.0636  -15.2577 C   0  0  0  0  0  0  0  0  0  0  0  0
   22.6643   -6.9608  -17.0118 N   0  0  0  0  0  0  0  0  0  0  0  0
   21.8143   -5.7871  -16.9654 C   0  0  1  0  0  0  0  0  0  0  0  0
   21.0175   -5.6156  -18.2322 C   0  0  0  0  0  0  0  0  0  0  0  0
   20.0921   -4.4690  -18.1312 C   0  0  0  0  0  0  0  0  0  0  0  0
   20.3951   -3.3269  -17.7056 O   0  0  0  0  0  0  0  0  0  0  0  0
   21.0089   -5.8500  -15.7393 C   0  0  0  0  0  0  0  0  0  0  0  0
   20.5205   -4.7000  -15.1663 O   0  0  0  0  0  0  0  0  0  0  0  0
   18.7736   -4.6381  -18.5321 O   0  0  0  0  0  0  0  0  0  0  0  0
   20.7625   -6.9485  -15.2094 O   0  0  0  0  0  0  0  0  0  0  0  0
  2  1  1  1
  2  3  1  0
  3  4  1  0
  4  5  2  0
  5  6  1  0
  7  6  2  0
  8  7  1  0
  9  8  2  0
  9  4  1  0
 10  2  1  0
 11 10  2  0
 13 23  2  0
 13 12  1  0
 14 13  1  0
 15 16  1  0
 15 14  2  0
 16 22  2  0
 17 16  1  0
 18 19  1  0
 18 17  1  1
 19 10  1  0
 20 18  1  0
 21 20  2  0
 22 23  1  0
 24 20  1  0
 25 29  1  0
 25 24  1  0
 26 27  1  0
 25 26  1  6
 27 28  2  0
 29 30  1  0
 31 27  1  0
 32 29  2  0
M  END
$$$$
