FYD.pdb
     RDKit          3D

 32 33  0  0  1  0  0  0  0  0999 V2000
   28.3917  -20.0880   -8.7154 N   0  0  0  0  0  0  0  0  0  0  0  0
   27.0510  -20.5061   -8.4644 C   0  0  1  0  0  0  0  0  0  0  0  0
   26.4557  -19.6697   -7.3652 C   0  0  0  0  0  0  0  0  0  0  0  0
   27.3968  -19.7540   -6.2080 C   0  0  0  0  0  0  0  0  0  0  0  0
   27.6229  -20.9512   -5.5495 C   0  0  0  0  0  0  0  0  0  0  0  0
   28.4863  -21.0533   -4.4792 C   0  0  0  0  0  0  0  0  0  0  0  0
   29.1672  -19.9457   -4.0194 C   0  0  0  0  0  0  0  0  0  0  0  0
   28.9478  -18.7507   -4.6693 C   0  0  0  0  0  0  0  0  0  0  0  0
   28.0798  -18.6479   -5.7453 C   0  0  0  0  0  0  0  0  0  0  0  0
   26.2413  -20.4374   -9.7248 C   0  0  0  0  0  0  0  0  0  0  0  0
   25.8954  -19.3076  -10.1131 O   0  0  0  0  0  0  0  0  0  0  0  0
   23.9709  -22.1043  -17.9798 O   0  0  0  0  0  0  0  0  0  0  0  0
   24.4430  -22.2415  -16.6738 C   0  0  0  0  0  0  0  0  0  0  0  0
   25.3872  -21.3655  -16.1982 C   0  0  0  0  0  0  0  0  0  0  0  0
   25.8839  -21.4620  -14.9132 C   0  0  0  0  0  0  0  0  0  0  0  0
   25.4143  -22.4711  -14.0851 C   0  0  0  0  0  0  0  0  0  0  0  0
   25.9492  -22.5734  -12.7020 C   0  0  0  0  0  0  0  0  0  0  0  0
   25.3860  -21.5497  -11.7821 C   0  0  2  0  0  0  0  0  0  0  0  0
   25.8832  -21.5904  -10.4437 N   0  0  0  0  0  0  0  0  0  0  0  0
   23.9093  -21.3640  -11.9004 C   0  0  0  0  0  0  0  0  0  0  0  0
   23.0831  -21.9854  -11.1901 O   0  0  0  0  0  0  0  0  0  0  0  0
   24.4561  -23.3602  -14.5675 C   0  0  0  0  0  0  0  0  0  0  0  0
   23.9651  -23.2566  -15.8529 C   0  0  0  0  0  0  0  0  0  0  0  0
   23.3468  -20.4570  -12.8410 N   0  0  0  0  0  0  0  0  0  0  0  0
   21.9194  -20.2572  -12.9992 C   0  0  1  0  0  0  0  0  0  0  0  0
   21.5736  -18.8102  -13.2351 C   0  0  0  0  0  0  0  0  0  0  0  0
   20.1133  -18.5947  -13.1890 C   0  0  0  0  0  0  0  0  0  0  0  0
   19.2530  -19.4897  -12.9985 O   0  0  0  0  0  0  0  0  0  0  0  0
   21.4376  -21.1787  -14.0360 C   0  0  0  0  0  0  0  0  0  0  0  0
   20.5480  -22.1781  -13.7215 O   0  0  0  0  0  0  0  0  0  0  0  0
   19.6226  -17.3082  -13.3675 O   0  0  0  0  0  0  0  0  0  0  0  0
   21.8330  -21.0603  -15.2098 O   0  0  0  0  0  0  0  0  0  0  0  0
  2  1  1  6
  2  3  1  0
  3  4  1  0
  4  5  2  0
  5  6  1  0
  7  6  2  0
  8  7  1  0
  9  8  2  0
  9  4  1  0
 10  2  1  0
 11 10  2  0
 13 23  2  0
 13 12  1  0
 14 13  1  0
 15 16  1  0
 15 14  2  0
 16 22  2  0
 17 16  1  0
 18 19  1  0
 18 17  1  1
 19 10  1  0
 20 18  1  0
 21 20  2  0
 22 23  1  0
 24 20  1  0
 25 29  1  0
 25 24  1  0
 26 27  1  0
 25 26  1  6
 27 28  2  0
 29 30  1  0
 31 27  1  0
 32 29  2  0
M  END
$$$$
