FYD.pdb
     RDKit          3D

 32 33  0  0  1  0  0  0  0  0999 V2000
   24.3145  -20.5973  -16.9040 N   0  0  0  0  0  0  0  0  0  0  0  0
   23.4823  -19.6324  -16.2625 C   0  0  1  0  0  0  0  0  0  0  0  0
   22.4765  -19.0964  -17.2440 C   0  0  0  0  0  0  0  0  0  0  0  0
   23.2459  -18.3166  -18.2597 C   0  0  0  0  0  0  0  0  0  0  0  0
   23.6133  -17.0010  -18.0304 C   0  0  0  0  0  0  0  0  0  0  0  0
   24.3229  -16.2613  -18.9527 C   0  0  0  0  0  0  0  0  0  0  0  0
   24.6981  -16.8169  -20.1579 C   0  0  0  0  0  0  0  0  0  0  0  0
   24.3365  -18.1253  -20.3938 C   0  0  0  0  0  0  0  0  0  0  0  0
   23.6231  -18.8691  -19.4666 C   0  0  0  0  0  0  0  0  0  0  0  0
   22.8254  -20.2339  -15.0559 C   0  0  0  0  0  0  0  0  0  0  0  0
   22.5232  -21.4388  -15.1189 O   0  0  0  0  0  0  0  0  0  0  0  0
   19.7480  -21.8519   -7.0278 O   0  0  0  0  0  0  0  0  0  0  0  0
   20.3587  -21.2390   -8.1226 C   0  0  0  0  0  0  0  0  0  0  0  0
   19.6817  -20.2715   -8.8233 C   0  0  0  0  0  0  0  0  0  0  0  0
   20.2452  -19.6375   -9.9132 C   0  0  0  0  0  0  0  0  0  0  0  0
   21.5279  -19.9899  -10.3068 C   0  0  0  0  0  0  0  0  0  0  0  0
   22.1333  -19.3062  -11.4796 C   0  0  0  0  0  0  0  0  0  0  0  0
   21.8814  -20.0158  -12.7619 C   0  0  2  0  0  0  0  0  0  0  0  0
   22.5580  -19.4807  -13.9003 N   0  0  0  0  0  0  0  0  0  0  0  0
   20.4516  -20.3791  -12.9919 C   0  0  0  0  0  0  0  0  0  0  0  0
   19.6160  -19.5860  -13.4877 O   0  0  0  0  0  0  0  0  0  0  0  0
   22.2151  -20.9716   -9.5959 C   0  0  0  0  0  0  0  0  0  0  0  0
   21.6446  -21.6002   -8.5079 C   0  0  0  0  0  0  0  0  0  0  0  0
   19.9481  -21.6666  -12.6560 N   0  0  0  0  0  0  0  0  0  0  0  0
   18.5928  -22.0923  -12.9462 C   0  0  1  0  0  0  0  0  0  0  0  0
   18.5597  -23.2985  -13.8478 C   0  0  0  0  0  0  0  0  0  0  0  0
   17.1722  -23.6824  -14.1772 C   0  0  0  0  0  0  0  0  0  0  0  0
   16.8318  -24.7355  -14.7710 O   0  0  0  0  0  0  0  0  0  0  0  0
   17.8802  -22.2596  -11.6733 C   0  0  0  0  0  0  0  0  0  0  0  0
   16.5702  -21.8622  -11.5503 O   0  0  0  0  0  0  0  0  0  0  0  0
   16.1392  -22.8293  -13.8130 O   0  0  0  0  0  0  0  0  0  0  0  0
   18.4598  -22.7640  -10.6945 O   0  0  0  0  0  0  0  0  0  0  0  0
  2  1  1  6
  2  3  1  0
  3  4  1  0
  4  5  2  0
  5  6  1  0
  7  6  2  0
  8  7  1  0
  9  8  2  0
  9  4  1  0
 10  2  1  0
 11 10  2  0
 13 23  2  0
 13 12  1  0
 14 13  1  0
 15 16  1  0
 15 14  2  0
 16 22  2  0
 17 16  1  0
 18 19  1  0
 18 17  1  1
 19 10  1  0
 20 18  1  0
 21 20  2  0
 22 23  1  0
 24 20  1  0
 25 29  1  0
 25 24  1  0
 26 27  1  0
 25 26  1  1
 27 28  2  0
 29 30  1  0
 31 27  1  0
 32 29  2  0
M  END
$$$$
