FYD.pdb
     RDKit          3D

 32 33  0  0  1  0  0  0  0  0999 V2000
   26.5295  -32.0674  -15.8943 N   0  0  0  0  0  0  0  0  0  0  0  0
   27.2372  -32.7277  -14.8462 C   0  0  1  0  0  0  0  0  0  0  0  0
   28.3205  -31.8271  -14.3191 C   0  0  0  0  0  0  0  0  0  0  0  0
   29.4333  -31.8711  -15.3148 C   0  0  0  0  0  0  0  0  0  0  0  0
   30.2695  -32.9709  -15.4119 C   0  0  0  0  0  0  0  0  0  0  0  0
   31.3032  -33.0341  -16.3225 C   0  0  0  0  0  0  0  0  0  0  0  0
   31.5439  -31.9844  -17.1839 C   0  0  0  0  0  0  0  0  0  0  0  0
   30.7164  -30.8865  -17.0937 C   0  0  0  0  0  0  0  0  0  0  0  0
   29.6772  -30.8228  -16.1783 C   0  0  0  0  0  0  0  0  0  0  0  0
   26.2870  -33.1553  -13.7676 C   0  0  0  0  0  0  0  0  0  0  0  0
   25.4044  -32.3434  -13.4378 O   0  0  0  0  0  0  0  0  0  0  0  0
   20.8881  -37.1175   -8.3318 O   0  0  0  0  0  0  0  0  0  0  0  0
   21.8254  -36.8573   -9.3324 C   0  0  0  0  0  0  0  0  0  0  0  0
   21.5886  -35.8543  -10.2396 C   0  0  0  0  0  0  0  0  0  0  0  0
   22.4868  -35.5605  -11.2466 C   0  0  0  0  0  0  0  0  0  0  0  0
   23.6567  -36.2999  -11.3406 C   0  0  0  0  0  0  0  0  0  0  0  0
   24.6229  -35.9823  -12.4246 C   0  0  0  0  0  0  0  0  0  0  0  0
   25.5061  -34.8310  -12.0992 C   0  0  2  0  0  0  0  0  0  0  0  0
   26.3793  -34.4139  -13.1497 N   0  0  0  0  0  0  0  0  0  0  0  0
   26.1360  -34.9033  -10.7475 C   0  0  0  0  0  0  0  0  0  0  0  0
   27.2824  -35.3730  -10.5518 O   0  0  0  0  0  0  0  0  0  0  0  0
   23.8973  -37.3179  -10.4201 C   0  0  0  0  0  0  0  0  0  0  0  0
   22.9944  -37.6048   -9.4168 C   0  0  0  0  0  0  0  0  0  0  0  0
   25.4603  -34.4358   -9.5861 N   0  0  0  0  0  0  0  0  0  0  0  0
   26.0846  -34.3546   -8.2800 C   0  0  1  0  0  0  0  0  0  0  0  0
   25.8927  -33.0024   -7.6446 C   0  0  0  0  0  0  0  0  0  0  0  0
   26.4423  -32.9724   -6.2741 C   0  0  0  0  0  0  0  0  0  0  0  0
   26.1399  -32.1342   -5.3889 O   0  0  0  0  0  0  0  0  0  0  0  0
   25.6091  -35.4842   -7.4713 C   0  0  0  0  0  0  0  0  0  0  0  0
   26.4462  -36.5350   -7.1811 O   0  0  0  0  0  0  0  0  0  0  0  0
   27.3707  -33.9368   -5.9060 O   0  0  0  0  0  0  0  0  0  0  0  0
   24.4413  -35.4973   -7.0420 O   0  0  0  0  0  0  0  0  0  0  0  0
  2  1  1  6
  2  3  1  0
  3  4  1  0
  4  5  2  0
  5  6  1  0
  7  6  2  0
  8  7  1  0
  9  8  2  0
  9  4  1  0
 10  2  1  0
 11 10  2  0
 13 23  2  0
 13 12  1  0
 14 13  1  0
 15 16  1  0
 15 14  2  0
 16 22  2  0
 17 16  1  0
 18 19  1  0
 18 17  1  6
 19 10  1  0
 20 18  1  0
 21 20  2  0
 22 23  1  0
 24 20  1  0
 25 29  1  0
 25 24  1  0
 26 27  1  0
 25 26  1  1
 27 28  2  0
 29 30  1  0
 31 27  1  0
 32 29  2  0
M  END
$$$$
