FYD.pdb
     RDKit          3D

 32 33  0  0  1  0  0  0  0  0999 V2000
   28.1958  -20.2307  -19.4301 N   0  0  0  0  0  0  0  0  0  0  0  0
   27.8643  -19.2043  -18.4964 C   0  0  1  0  0  0  0  0  0  0  0  0
   26.8928  -18.2421  -19.1232 C   0  0  0  0  0  0  0  0  0  0  0  0
   27.6637  -17.4542  -20.1314 C   0  0  0  0  0  0  0  0  0  0  0  0
   27.5475  -17.7105  -21.4875 C   0  0  0  0  0  0  0  0  0  0  0  0
   28.2489  -16.9970  -22.4364 C   0  0  0  0  0  0  0  0  0  0  0  0
   29.1064  -15.9846  -22.0601 C   0  0  0  0  0  0  0  0  0  0  0  0
   29.2277  -15.7232  -20.7128 C   0  0  0  0  0  0  0  0  0  0  0  0
   28.5226  -16.4404  -19.7588 C   0  0  0  0  0  0  0  0  0  0  0  0
   27.3242  -19.8062  -17.2334 C   0  0  0  0  0  0  0  0  0  0  0  0
   26.4578  -20.6903  -17.3546 O   0  0  0  0  0  0  0  0  0  0  0  0
   25.1097  -21.0255   -8.8148 O   0  0  0  0  0  0  0  0  0  0  0  0
   25.8053  -20.6890   -9.9768 C   0  0  0  0  0  0  0  0  0  0  0  0
   25.8424  -19.3802  -10.3902 C   0  0  0  0  0  0  0  0  0  0  0  0
   26.5179  -18.9997  -11.5332 C   0  0  0  0  0  0  0  0  0  0  0  0
   27.1741  -19.9675  -12.2797 C   0  0  0  0  0  0  0  0  0  0  0  0
   27.9012  -19.5565  -13.5093 C   0  0  0  0  0  0  0  0  0  0  0  0
   27.1149  -19.7763  -14.7522 C   0  0  2  0  0  0  0  0  0  0  0  0
   27.7688  -19.3982  -15.9645 N   0  0  0  0  0  0  0  0  0  0  0  0
   25.6830  -19.3650  -14.6537 C   0  0  0  0  0  0  0  0  0  0  0  0
   25.2825  -18.2104  -14.9359 O   0  0  0  0  0  0  0  0  0  0  0  0
   27.1365  -21.2957  -11.8604 C   0  0  0  0  0  0  0  0  0  0  0  0
   26.4592  -21.6673  -10.7169 C   0  0  0  0  0  0  0  0  0  0  0  0
   24.6756  -20.2745  -14.2272 N   0  0  0  0  0  0  0  0  0  0  0  0
   23.2640  -19.9443  -14.2009 C   0  0  1  0  0  0  0  0  0  0  0  0
   22.7155  -19.6959  -15.5816 C   0  0  0  0  0  0  0  0  0  0  0  0
   21.2529  -19.4941  -15.5481 C   0  0  0  0  0  0  0  0  0  0  0  0
   20.6730  -18.4482  -15.1642 O   0  0  0  0  0  0  0  0  0  0  0  0
   22.5615  -20.9863  -13.4413 C   0  0  0  0  0  0  0  0  0  0  0  0
   23.0797  -22.2565  -13.3570 O   0  0  0  0  0  0  0  0  0  0  0  0
   20.4268  -20.5273  -15.9693 O   0  0  0  0  0  0  0  0  0  0  0  0
   21.4889  -20.7250  -12.8672 O   0  0  0  0  0  0  0  0  0  0  0  0
  2  1  1  6
  2  3  1  0
  3  4  1  0
  4  5  2  0
  5  6  1  0
  7  6  2  0
  8  7  1  0
  9  8  2  0
  9  4  1  0
 10  2  1  0
 11 10  2  0
 13 23  2  0
 13 12  1  0
 14 13  1  0
 15 16  1  0
 15 14  2  0
 16 22  2  0
 17 16  1  0
 18 19  1  0
 18 17  1  1
 19 10  1  0
 20 18  1  0
 21 20  2  0
 22 23  1  0
 24 20  1  0
 25 29  1  0
 25 24  1  0
 26 27  1  0
 25 26  1  6
 27 28  2  0
 29 30  1  0
 31 27  1  0
 32 29  2  0
M  END
$$$$
