FYD.pdb
     RDKit          3D

 32 33  0  0  1  0  0  0  0  0999 V2000
   26.7653  -19.6524  -19.6979 N   0  0  0  0  0  0  0  0  0  0  0  0
   26.0462  -18.8534  -18.7599 C   0  0  1  0  0  0  0  0  0  0  0  0
   24.6957  -18.5028  -19.3216 C   0  0  0  0  0  0  0  0  0  0  0  0
   24.9342  -17.5281  -20.4282 C   0  0  0  0  0  0  0  0  0  0  0  0
   25.2731  -16.2108  -20.1669 C   0  0  0  0  0  0  0  0  0  0  0  0
   25.4976  -15.2932  -21.1715 C   0  0  0  0  0  0  0  0  0  0  0  0
   25.3903  -15.6630  -22.4957 C   0  0  0  0  0  0  0  0  0  0  0  0
   25.0536  -16.9718  -22.7641 C   0  0  0  0  0  0  0  0  0  0  0  0
   24.8278  -17.8944  -21.7543 C   0  0  0  0  0  0  0  0  0  0  0  0
   25.9406  -19.5660  -17.4445 C   0  0  0  0  0  0  0  0  0  0  0  0
   25.5423  -20.7440  -17.4706 O   0  0  0  0  0  0  0  0  0  0  0  0
   25.5505  -21.5576   -8.9204 O   0  0  0  0  0  0  0  0  0  0  0  0
   25.8631  -20.9446  -10.1344 C   0  0  0  0  0  0  0  0  0  0  0  0
   25.3003  -19.7317  -10.4466 C   0  0  0  0  0  0  0  0  0  0  0  0
   25.5797  -19.0873  -11.6358 C   0  0  0  0  0  0  0  0  0  0  0  0
   26.4516  -19.6840  -12.5348 C   0  0  0  0  0  0  0  0  0  0  0  0
   26.7519  -18.9890  -13.8140 C   0  0  0  0  0  0  0  0  0  0  0  0
   25.9435  -19.4940  -14.9553 C   0  0  2  0  0  0  0  0  0  0  0  0
   26.2737  -18.9418  -16.2305 N   0  0  0  0  0  0  0  0  0  0  0  0
   24.4810  -19.5979  -14.6733 C   0  0  0  0  0  0  0  0  0  0  0  0
   23.6945  -18.6262  -14.7749 O   0  0  0  0  0  0  0  0  0  0  0  0
   27.0229  -20.9148  -12.2182 C   0  0  0  0  0  0  0  0  0  0  0  0
   26.7382  -21.5518  -11.0276 C   0  0  0  0  0  0  0  0  0  0  0  0
   23.8874  -20.8252  -14.2667 N   0  0  0  0  0  0  0  0  0  0  0  0
   22.4659  -20.9814  -14.0268 C   0  0  1  0  0  0  0  0  0  0  0  0
   21.9785  -22.3587  -14.3935 C   0  0  0  0  0  0  0  0  0  0  0  0
   20.5296  -22.4977  -14.1435 C   0  0  0  0  0  0  0  0  0  0  0  0
   19.7868  -21.6057  -13.6639 O   0  0  0  0  0  0  0  0  0  0  0  0
   22.1860  -20.5814  -12.6419 C   0  0  0  0  0  0  0  0  0  0  0  0
   23.1638  -20.6688  -11.6800 O   0  0  0  0  0  0  0  0  0  0  0  0
   19.9112  -23.7012  -14.4543 O   0  0  0  0  0  0  0  0  0  0  0  0
   21.0580  -20.1593  -12.3295 O   0  0  0  0  0  0  0  0  0  0  0  0
  2  1  1  6
  2  3  1  0
  3  4  1  0
  4  5  2  0
  5  6  1  0
  7  6  2  0
  8  7  1  0
  9  8  2  0
  9  4  1  0
 10  2  1  0
 11 10  2  0
 13 23  2  0
 13 12  1  0
 14 13  1  0
 15 16  1  0
 15 14  2  0
 16 22  2  0
 17 16  1  0
 18 19  1  0
 18 17  1  1
 19 10  1  0
 20 18  1  0
 21 20  2  0
 22 23  1  0
 24 20  1  0
 25 29  1  0
 25 24  1  0
 26 27  1  0
 25 26  1  1
 27 28  2  0
 29 30  1  0
 31 27  1  0
 32 29  2  0
M  END
$$$$
