EMR.pdb
     RDKit          3D

 29 28  0  0  1  0  0  0  0  0999 V2000
    8.1116  -15.5328   18.6420 N   0  0  0  0  0  0  0  0  0  0  0  0
    7.3248  -15.6911   19.8245 C   0  0  1  0  0  0  0  0  0  0  0  0
    6.6398  -17.0365   19.9251 C   0  0  0  0  0  0  0  0  0  0  0  0
    7.6881  -18.1296   19.8742 C   0  0  0  0  0  0  0  0  0  0  0  0
    7.0498  -19.4642   19.9863 C   0  0  0  0  0  0  0  0  0  0  0  0
    7.7476  -20.5003   19.9311 O   0  0  0  0  0  0  0  0  0  0  0  0
    8.1058  -15.3515   21.0278 C   0  0  0  0  0  0  0  0  0  0  0  0
    9.3332  -15.6092   21.1527 O   0  0  0  0  0  0  0  0  0  0  0  0
    5.6811  -19.5841   20.1528 O   0  0  0  0  0  0  0  0  0  0  0  0
    5.1244  -12.9338   26.6750 C   0  0  0  0  0  0  0  0  0  0  0  0
    6.5750  -11.9087   26.3224 S   0  0  0  0  0  0  0  0  0  0  0  0
    7.7912  -12.9611   25.4599 C   0  0  0  0  0  0  0  0  0  0  0  0
    7.2465  -13.4419   24.1462 C   0  0  0  0  0  0  0  0  0  0  0  0
    8.1507  -14.3093   23.3414 C   0  0  2  0  0  0  0  0  0  0  0  0
    7.4726  -14.7086   22.1033 N   0  0  0  0  0  0  0  0  0  0  0  0
    8.7119  -15.4820   24.0324 C   0  0  0  0  0  0  0  0  0  0  0  0
    8.0372  -16.5392   24.0877 O   0  0  0  0  0  0  0  0  0  0  0  0
   15.7993  -19.2917   24.1268 N   0  0  0  0  0  0  0  0  0  0  0  0
   15.0390  -20.4560   24.4478 C   0  0  0  0  0  0  0  0  0  0  0  0
   15.6315  -21.5540   24.7239 N   0  0  0  0  0  0  0  0  0  0  0  0
   13.6205  -20.3143   24.4370 N   0  0  0  0  0  0  0  0  0  0  0  0
   13.0534  -19.1034   23.9025 C   0  0  0  0  0  0  0  0  0  0  0  0
   12.5077  -18.2392   25.0424 C   0  0  0  0  0  0  0  0  0  0  0  0
   11.9059  -16.9710   24.5104 C   0  0  0  0  0  0  0  0  0  0  0  0
   10.5502  -16.7418   25.0833 C   0  0  2  0  0  0  0  0  0  0  0  0
   10.0111  -15.4518   24.6469 N   0  0  0  0  0  0  0  0  0  0  0  0
   10.6206  -16.6866   26.5591 C   0  0  0  0  0  0  0  0  0  0  0  0
   11.0663  -17.7287   27.1632 O   0  0  0  0  0  0  0  0  0  0  0  0
   10.2351  -15.5759   27.2956 O   0  0  0  0  0  0  0  0  0  0  0  0
  2  1  1  6
  2  3  1  0
  3  4  1  0
  4  5  1  0
  5  9  1  0
  5  6  2  0
  7  2  1  0
  7  8  2  0
 10 11  1  0
 11 12  1  0
 13 12  1  0
 14 13  1  1
 14 15  1  0
 15  7  1  0
 16 14  1  0
 17 16  2  0
 18 19  1  0
 19 21  1  0
 20 19  2  0
 21 22  1  0
 22 23  1  0
 23 24  1  0
 25 24  1  6
 25 26  1  0
 25 27  1  0
 26 16  1  0
 27 29  1  0
 28 27  2  0
M  END
$$$$
