EMR.pdb
     RDKit          3D

 29 28  0  0  1  0  0  0  0  0999 V2000
    8.5905  -16.0623   19.7518 N   0  0  0  0  0  0  0  0  0  0  0  0
    9.0335  -16.8655   20.8478 C   0  0  1  0  0  0  0  0  0  0  0  0
   10.1291  -17.8433   20.4830 C   0  0  0  0  0  0  0  0  0  0  0  0
   10.0271  -18.1714   19.0071 C   0  0  0  0  0  0  0  0  0  0  0  0
   11.0434  -19.1848   18.6310 C   0  0  0  0  0  0  0  0  0  0  0  0
   12.2501  -18.9917   18.8954 O   0  0  0  0  0  0  0  0  0  0  0  0
    9.3738  -16.0282   22.0124 C   0  0  0  0  0  0  0  0  0  0  0  0
   10.5293  -15.5711   22.2231 O   0  0  0  0  0  0  0  0  0  0  0  0
   10.6755  -20.3526   17.9857 O   0  0  0  0  0  0  0  0  0  0  0  0
    6.1745  -10.9852   27.1089 C   0  0  0  0  0  0  0  0  0  0  0  0
    5.9396  -12.1398   25.7336 S   0  0  0  0  0  0  0  0  0  0  0  0
    7.4771  -13.1083   25.5646 C   0  0  0  0  0  0  0  0  0  0  0  0
    7.4045  -14.0249   24.3779 C   0  0  0  0  0  0  0  0  0  0  0  0
    8.5981  -14.8830   24.1402 C   0  0  2  0  0  0  0  0  0  0  0  0
    8.3775  -15.7103   22.9491 N   0  0  0  0  0  0  0  0  0  0  0  0
    9.0422  -15.7083   25.2758 C   0  0  0  0  0  0  0  0  0  0  0  0
    8.3822  -16.7311   25.5826 O   0  0  0  0  0  0  0  0  0  0  0  0
   13.4089  -20.4673   29.6458 N   0  0  0  0  0  0  0  0  0  0  0  0
   12.7701  -19.7816   30.7221 C   0  0  0  0  0  0  0  0  0  0  0  0
   12.5197  -20.3942   31.8152 N   0  0  0  0  0  0  0  0  0  0  0  0
   12.4397  -18.4128   30.4996 N   0  0  0  0  0  0  0  0  0  0  0  0
   12.3407  -17.9400   29.1431 C   0  0  0  0  0  0  0  0  0  0  0  0
   11.9635  -16.4562   29.1374 C   0  0  0  0  0  0  0  0  0  0  0  0
   11.8707  -15.9339   27.7330 C   0  0  0  0  0  0  0  0  0  0  0  0
   10.5765  -16.3192   27.1043 C   0  0  2  0  0  0  0  0  0  0  0  0
   10.2106  -15.3766   26.0448 N   0  0  0  0  0  0  0  0  0  0  0  0
    9.4871  -16.2682   28.1026 C   0  0  0  0  0  0  0  0  0  0  0  0
    8.9976  -15.1128   28.3762 O   0  0  0  0  0  0  0  0  0  0  0  0
    8.9853  -17.3962   28.7355 O   0  0  0  0  0  0  0  0  0  0  0  0
  2  1  1  6
  2  3  1  0
  3  4  1  0
  4  5  1  0
  5  9  1  0
  5  6  2  0
  7  2  1  0
  7  8  2  0
 10 11  1  0
 11 12  1  0
 13 12  1  0
 14 13  1  1
 14 15  1  0
 15  7  1  0
 16 14  1  0
 17 16  2  0
 18 19  1  0
 19 21  1  0
 20 19  2  0
 21 22  1  0
 22 23  1  0
 23 24  1  0
 25 24  1  1
 25 26  1  0
 25 27  1  0
 26 16  1  0
 27 29  1  0
 28 27  2  0
M  END
$$$$
