EMR.pdb
     RDKit          3D

 29 28  0  0  1  0  0  0  0  0999 V2000
    8.4165  -17.6944   21.3646 N   0  0  0  0  0  0  0  0  0  0  0  0
    9.7978  -17.3819   21.5569 C   0  0  1  0  0  0  0  0  0  0  0  0
   10.4952  -16.9054   20.3015 C   0  0  0  0  0  0  0  0  0  0  0  0
   11.4825  -17.9638   19.8527 C   0  0  0  0  0  0  0  0  0  0  0  0
   12.1297  -17.5613   18.5799 C   0  0  0  0  0  0  0  0  0  0  0  0
   11.8301  -16.4741   18.0398 O   0  0  0  0  0  0  0  0  0  0  0  0
    9.9782  -16.4664   22.6982 C   0  0  0  0  0  0  0  0  0  0  0  0
   11.1071  -16.0830   23.1070 O   0  0  0  0  0  0  0  0  0  0  0  0
   13.0694  -18.3764   17.9732 O   0  0  0  0  0  0  0  0  0  0  0  0
    6.1977  -11.2077   27.2054 C   0  0  0  0  0  0  0  0  0  0  0  0
    6.3136  -12.1306   25.6516 S   0  0  0  0  0  0  0  0  0  0  0  0
    7.5622  -13.4407   25.8861 C   0  0  0  0  0  0  0  0  0  0  0  0
    7.7241  -14.2559   24.6359 C   0  0  0  0  0  0  0  0  0  0  0  0
    8.9099  -15.1554   24.5905 C   0  0  2  0  0  0  0  0  0  0  0  0
    8.8506  -15.9836   23.3811 N   0  0  0  0  0  0  0  0  0  0  0  0
    9.1416  -15.9868   25.7833 C   0  0  0  0  0  0  0  0  0  0  0  0
    8.3273  -16.9019   26.0576 O   0  0  0  0  0  0  0  0  0  0  0  0
   14.6479  -20.0531   31.5634 N   0  0  0  0  0  0  0  0  0  0  0  0
   13.2929  -20.2338   31.1530 C   0  0  0  0  0  0  0  0  0  0  0  0
   12.3785  -20.4272   32.0243 N   0  0  0  0  0  0  0  0  0  0  0  0
   13.0397  -20.1876   29.7509 N   0  0  0  0  0  0  0  0  0  0  0  0
   13.1822  -18.9287   29.0665 C   0  0  0  0  0  0  0  0  0  0  0  0
   11.8462  -18.1810   29.0727 C   0  0  0  0  0  0  0  0  0  0  0  0
   11.6477  -17.4309   27.7877 C   0  0  0  0  0  0  0  0  0  0  0  0
   10.3707  -16.6644   27.8085 C   0  0  2  0  0  0  0  0  0  0  0  0
   10.2741  -15.7807   26.6445 N   0  0  0  0  0  0  0  0  0  0  0  0
   10.3167  -15.7915   29.0006 C   0  0  0  0  0  0  0  0  0  0  0  0
   10.4202  -14.5264   28.8048 O   0  0  0  0  0  0  0  0  0  0  0  0
   10.1588  -16.2781   30.2901 O   0  0  0  0  0  0  0  0  0  0  0  0
  2  1  1  6
  2  3  1  0
  3  4  1  0
  4  5  1  0
  5  9  1  0
  5  6  2  0
  7  2  1  0
  7  8  2  0
 10 11  1  0
 11 12  1  0
 13 12  1  0
 14 13  1  1
 14 15  1  0
 15  7  1  0
 16 14  1  0
 17 16  2  0
 18 19  1  0
 19 21  1  0
 20 19  2  0
 21 22  1  0
 22 23  1  0
 23 24  1  0
 25 24  1  6
 25 26  1  0
 25 27  1  0
 26 16  1  0
 27 29  1  0
 28 27  2  0
M  END
$$$$
