EMR.pdb
     RDKit          3D

 29 28  0  0  1  0  0  0  0  0999 V2000
    9.1643  -15.5279   19.3490 N   0  0  0  0  0  0  0  0  0  0  0  0
    8.9303  -16.5459   20.3245 C   0  0  1  0  0  0  0  0  0  0  0  0
    9.5138  -17.8916   19.9529 C   0  0  0  0  0  0  0  0  0  0  0  0
    8.3895  -18.8995   19.8257 C   0  0  0  0  0  0  0  0  0  0  0  0
    8.9318  -20.2411   19.4983 C   0  0  0  0  0  0  0  0  0  0  0  0
    9.5411  -20.4263   18.4223 O   0  0  0  0  0  0  0  0  0  0  0  0
    9.3365  -16.0936   21.6676 C   0  0  0  0  0  0  0  0  0  0  0  0
   10.5381  -16.0252   22.0415 O   0  0  0  0  0  0  0  0  0  0  0  0
    8.7735  -21.3026   20.3721 O   0  0  0  0  0  0  0  0  0  0  0  0
    6.8852  -11.3270   27.3995 C   0  0  0  0  0  0  0  0  0  0  0  0
    6.5829  -12.0907   25.7855 S   0  0  0  0  0  0  0  0  0  0  0  0
    7.7934  -13.4415   25.5849 C   0  0  0  0  0  0  0  0  0  0  0  0
    7.6642  -14.0794   24.2321 C   0  0  0  0  0  0  0  0  0  0  0  0
    8.6407  -15.1603   23.9226 C   0  0  2  0  0  0  0  0  0  0  0  0
    8.3532  -15.7150   22.5954 N   0  0  0  0  0  0  0  0  0  0  0  0
    8.7618  -16.2334   24.9234 C   0  0  0  0  0  0  0  0  0  0  0  0
    7.8787  -17.1241   24.9739 O   0  0  0  0  0  0  0  0  0  0  0  0
   14.9533  -19.5774   30.2682 N   0  0  0  0  0  0  0  0  0  0  0  0
   13.8486  -20.4630   30.4475 C   0  0  0  0  0  0  0  0  0  0  0  0
   13.9799  -21.5182   31.1562 N   0  0  0  0  0  0  0  0  0  0  0  0
   12.6304  -20.1022   29.8009 N   0  0  0  0  0  0  0  0  0  0  0  0
   12.6053  -18.9081   28.9964 C   0  0  0  0  0  0  0  0  0  0  0  0
   11.2235  -18.7417   28.3586 C   0  0  0  0  0  0  0  0  0  0  0  0
   11.2132  -17.5866   27.3999 C   0  0  0  0  0  0  0  0  0  0  0  0
    9.8722  -17.4259   26.7717 C   0  0  2  0  0  0  0  0  0  0  0  0
    9.8628  -16.2909   25.8460 N   0  0  0  0  0  0  0  0  0  0  0  0
    8.8553  -17.1309   27.8036 C   0  0  0  0  0  0  0  0  0  0  0  0
    8.6192  -15.8939   28.0559 O   0  0  0  0  0  0  0  0  0  0  0  0
    8.1623  -18.1179   28.4892 O   0  0  0  0  0  0  0  0  0  0  0  0
  2  1  1  6
  2  3  1  0
  3  4  1  0
  4  5  1  0
  5  9  1  0
  5  6  2  0
  7  2  1  0
  7  8  2  0
 10 11  1  0
 11 12  1  0
 13 12  1  0
 14 13  1  1
 14 15  1  0
 15  7  1  0
 16 14  1  0
 17 16  2  0
 18 19  1  0
 19 21  1  0
 20 19  2  0
 21 22  1  0
 22 23  1  0
 23 24  1  0
 25 24  1  1
 25 26  1  0
 25 27  1  0
 26 16  1  0
 27 29  1  0
 28 27  2  0
M  END
$$$$
