EMR.pdb
     RDKit          3D

 29 28  0  0  1  0  0  0  0  0999 V2000
    5.2913  -19.6333   22.4415 N   0  0  0  0  0  0  0  0  0  0  0  0
    5.5748  -19.2209   23.7801 C   0  0  1  0  0  0  0  0  0  0  0  0
    6.0143  -20.3507   24.6856 C   0  0  0  0  0  0  0  0  0  0  0  0
    7.3937  -20.8145   24.2630 C   0  0  0  0  0  0  0  0  0  0  0  0
    7.8244  -21.9725   25.0842 C   0  0  0  0  0  0  0  0  0  0  0  0
    7.0908  -22.3979   26.0030 O   0  0  0  0  0  0  0  0  0  0  0  0
    6.5045  -18.0769   23.7946 C   0  0  0  0  0  0  0  0  0  0  0  0
    7.4592  -17.9498   22.9817 O   0  0  0  0  0  0  0  0  0  0  0  0
    9.0368  -22.5971   24.8489 O   0  0  0  0  0  0  0  0  0  0  0  0
    7.1220  -10.7688   26.8057 C   0  0  0  0  0  0  0  0  0  0  0  0
    6.2227  -12.3404   26.7783 S   0  0  0  0  0  0  0  0  0  0  0  0
    7.2021  -13.5131   25.7803 C   0  0  0  0  0  0  0  0  0  0  0  0
    6.4975  -14.8334   25.6614 C   0  0  0  0  0  0  0  0  0  0  0  0
    7.1897  -15.8736   24.8513 C   0  0  2  0  0  0  0  0  0  0  0  0
    6.3392  -17.0648   24.7534 N   0  0  0  0  0  0  0  0  0  0  0  0
    8.5499  -16.2357   25.2832 C   0  0  0  0  0  0  0  0  0  0  0  0
    8.6949  -17.0718   26.2082 O   0  0  0  0  0  0  0  0  0  0  0  0
   15.6866  -15.0477   20.6438 N   0  0  0  0  0  0  0  0  0  0  0  0
   16.0482  -15.2942   22.0022 C   0  0  0  0  0  0  0  0  0  0  0  0
   17.2363  -15.0510   22.4047 N   0  0  0  0  0  0  0  0  0  0  0  0
   15.0270  -15.8153   22.8495 N   0  0  0  0  0  0  0  0  0  0  0  0
   13.9175  -16.5068   22.2457 C   0  0  0  0  0  0  0  0  0  0  0  0
   12.9631  -17.0054   23.3339 C   0  0  0  0  0  0  0  0  0  0  0  0
   11.8403  -16.0319   23.5469 C   0  0  0  0  0  0  0  0  0  0  0  0
   10.8960  -16.5252   24.5878 C   0  0  2  0  0  0  0  0  0  0  0  0
    9.7185  -15.6588   24.6762 N   0  0  0  0  0  0  0  0  0  0  0  0
   11.5386  -16.4927   25.9190 C   0  0  0  0  0  0  0  0  0  0  0  0
   12.4899  -17.3293   26.1303 O   0  0  0  0  0  0  0  0  0  0  0  0
   11.1620  -15.6107   26.9214 O   0  0  0  0  0  0  0  0  0  0  0  0
  2  1  1  6
  2  3  1  0
  3  4  1  0
  4  5  1  0
  5  9  1  0
  5  6  2  0
  7  2  1  0
  7  8  2  0
 10 11  1  0
 11 12  1  0
 13 12  1  0
 14 13  1  1
 14 15  1  0
 15  7  1  0
 16 14  1  0
 17 16  2  0
 18 19  1  0
 19 21  1  0
 20 19  2  0
 21 22  1  0
 22 23  1  0
 23 24  1  0
 25 24  1  6
 25 26  1  0
 25 27  1  0
 26 16  1  0
 27 29  1  0
 28 27  2  0
M  END
$$$$
