EMR.pdb
     RDKit          3D

 29 28  0  0  1  0  0  0  0  0999 V2000
    6.8170  -15.9322   19.9329 N   0  0  0  0  0  0  0  0  0  0  0  0
    8.2422  -16.0326   19.8969 C   0  0  1  0  0  0  0  0  0  0  0  0
    8.8626  -15.4512   18.6453 C   0  0  0  0  0  0  0  0  0  0  0  0
    7.7610  -15.0933   17.6682 C   0  0  0  0  0  0  0  0  0  0  0  0
    8.3392  -14.5865   16.3994 C   0  0  0  0  0  0  0  0  0  0  0  0
    9.5796  -14.5125   16.2603 O   0  0  0  0  0  0  0  0  0  0  0  0
    8.8404  -15.5022   21.1355 C   0  0  0  0  0  0  0  0  0  0  0  0
   10.0811  -15.3491   21.2952 O   0  0  0  0  0  0  0  0  0  0  0  0
    7.5213  -14.1900   15.3557 O   0  0  0  0  0  0  0  0  0  0  0  0
    7.0284  -11.5189   27.7199 C   0  0  0  0  0  0  0  0  0  0  0  0
    6.5300  -12.0994   26.0785 S   0  0  0  0  0  0  0  0  0  0  0  0
    7.8115  -13.2618   25.4976 C   0  0  0  0  0  0  0  0  0  0  0  0
    7.5127  -13.7354   24.1047 C   0  0  0  0  0  0  0  0  0  0  0  0
    8.4916  -14.6897   23.5143 C   0  0  2  0  0  0  0  0  0  0  0  0
    8.0064  -15.1425   22.2061 N   0  0  0  0  0  0  0  0  0  0  0  0
    8.8719  -15.8357   24.3569 C   0  0  0  0  0  0  0  0  0  0  0  0
    8.0723  -16.7955   24.4797 O   0  0  0  0  0  0  0  0  0  0  0  0
   15.8014  -20.3773   24.0353 N   0  0  0  0  0  0  0  0  0  0  0  0
   14.5503  -20.9517   23.6590 C   0  0  0  0  0  0  0  0  0  0  0  0
   14.5068  -21.8733   22.7750 N   0  0  0  0  0  0  0  0  0  0  0  0
   13.3915  -20.4411   24.3139 N   0  0  0  0  0  0  0  0  0  0  0  0
   13.5601  -19.4203   25.3154 C   0  0  0  0  0  0  0  0  0  0  0  0
   12.1903  -18.9464   25.8083 C   0  0  0  0  0  0  0  0  0  0  0  0
   11.8248  -17.6299   25.1864 C   0  0  0  0  0  0  0  0  0  0  0  0
   10.4861  -17.1723   25.6525 C   0  0  2  0  0  0  0  0  0  0  0  0
   10.1334  -15.8875   25.0443 N   0  0  0  0  0  0  0  0  0  0  0  0
   10.5007  -16.9518   27.1144 C   0  0  0  0  0  0  0  0  0  0  0  0
   10.8027  -17.9567   27.8549 O   0  0  0  0  0  0  0  0  0  0  0  0
   10.2103  -15.7278   27.6995 O   0  0  0  0  0  0  0  0  0  0  0  0
  2  1  1  1
  2  3  1  0
  3  4  1  0
  4  5  1  0
  5  9  1  0
  5  6  2  0
  7  2  1  0
  7  8  2  0
 10 11  1  0
 11 12  1  0
 13 12  1  0
 14 13  1  1
 14 15  1  0
 15  7  1  0
 16 14  1  0
 17 16  2  0
 18 19  1  0
 19 21  1  0
 20 19  2  0
 21 22  1  0
 22 23  1  0
 23 24  1  0
 25 24  1  6
 25 26  1  0
 25 27  1  0
 26 16  1  0
 27 29  1  0
 28 27  2  0
M  END
$$$$
