EMR.pdb
     RDKit          3D

 29 28  0  0  1  0  0  0  0  0999 V2000
    6.2069  -20.4683   24.9027 N   0  0  0  0  0  0  0  0  0  0  0  0
    6.2127  -19.9225   23.5818 C   0  0  1  0  0  0  0  0  0  0  0  0
    4.9794  -20.2660   22.7752 C   0  0  0  0  0  0  0  0  0  0  0  0
    3.8487  -20.6100   23.7237 C   0  0  0  0  0  0  0  0  0  0  0  0
    2.6258  -20.9665   22.9632 C   0  0  0  0  0  0  0  0  0  0  0  0
    2.6649  -21.0535   21.7165 O   0  0  0  0  0  0  0  0  0  0  0  0
    6.4981  -18.4765   23.6091 C   0  0  0  0  0  0  0  0  0  0  0  0
    6.3818  -17.7282   22.6016 O   0  0  0  0  0  0  0  0  0  0  0  0
    1.4295  -21.2072   23.6162 O   0  0  0  0  0  0  0  0  0  0  0  0
    6.4066  -11.7410   26.6173 C   0  0  0  0  0  0  0  0  0  0  0  0
    5.7992  -13.4111   26.2688 S   0  0  0  0  0  0  0  0  0  0  0  0
    7.1487  -14.5759   26.6596 C   0  0  0  0  0  0  0  0  0  0  0  0
    6.7679  -15.9800   26.2891 C   0  0  0  0  0  0  0  0  0  0  0  0
    7.2283  -16.4517   24.9538 C   0  0  2  0  0  0  0  0  0  0  0  0
    6.9231  -17.8790   24.8064 N   0  0  0  0  0  0  0  0  0  0  0  0
    8.6358  -16.1801   24.6178 C   0  0  0  0  0  0  0  0  0  0  0  0
    9.5284  -16.9406   25.0655 O   0  0  0  0  0  0  0  0  0  0  0  0
    8.4535  -11.9010   16.9884 N   0  0  0  0  0  0  0  0  0  0  0  0
    9.1974  -13.0798   16.6816 C   0  0  0  0  0  0  0  0  0  0  0  0
    9.4499  -13.3815   15.4658 N   0  0  0  0  0  0  0  0  0  0  0  0
    9.6226  -13.8716   17.7881 N   0  0  0  0  0  0  0  0  0  0  0  0
    9.0052  -13.6512   19.0703 C   0  0  0  0  0  0  0  0  0  0  0  0
    9.6034  -14.6078   20.1051 C   0  0  0  0  0  0  0  0  0  0  0  0
    9.0029  -14.3721   21.4606 C   0  0  0  0  0  0  0  0  0  0  0  0
    9.4723  -15.3937   22.4377 C   0  0  2  0  0  0  0  0  0  0  0  0
    9.0184  -15.0676   23.7915 N   0  0  0  0  0  0  0  0  0  0  0  0
   10.9499  -15.4144   22.4869 C   0  0  0  0  0  0  0  0  0  0  0  0
   11.5058  -14.9820   23.5609 O   0  0  0  0  0  0  0  0  0  0  0  0
   11.7369  -15.8756   21.4417 O   0  0  0  0  0  0  0  0  0  0  0  0
  2  1  1  1
  2  3  1  0
  3  4  1  0
  4  5  1  0
  5  9  1  0
  5  6  2  0
  7  2  1  0
  7  8  2  0
 10 11  1  0
 11 12  1  0
 13 12  1  0
 14 13  1  1
 14 15  1  0
 15  7  1  0
 16 14  1  0
 17 16  2  0
 18 19  1  0
 19 21  1  0
 20 19  2  0
 21 22  1  0
 22 23  1  0
 23 24  1  0
 25 24  1  6
 25 26  1  0
 25 27  1  0
 26 16  1  0
 27 29  1  0
 28 27  2  0
M  END
$$$$
