EMR.pdb
     RDKit          3D

 29 28  0  0  1  0  0  0  0  0999 V2000
    8.3067  -15.4528   19.4317 N   0  0  0  0  0  0  0  0  0  0  0  0
    7.7759  -16.0152   20.6335 C   0  0  1  0  0  0  0  0  0  0  0  0
    7.8482  -17.5257   20.6832 C   0  0  0  0  0  0  0  0  0  0  0  0
    7.1683  -18.0937   19.4539 C   0  0  0  0  0  0  0  0  0  0  0  0
    7.2590  -19.5745   19.4500 C   0  0  0  0  0  0  0  0  0  0  0  0
    6.7524  -20.2320   18.5149 O   0  0  0  0  0  0  0  0  0  0  0  0
    8.3638  -15.3715   21.8223 C   0  0  0  0  0  0  0  0  0  0  0  0
    9.5798  -15.0510   21.9066 O   0  0  0  0  0  0  0  0  0  0  0  0
    7.9014  -20.2484   20.4740 O   0  0  0  0  0  0  0  0  0  0  0  0
    6.4096  -10.3269   25.6845 C   0  0  0  0  0  0  0  0  0  0  0  0
    6.2157  -11.8302   26.6755 S   0  0  0  0  0  0  0  0  0  0  0  0
    7.4783  -13.0219   26.1133 C   0  0  0  0  0  0  0  0  0  0  0  0
    7.0823  -13.6442   24.8057 C   0  0  0  0  0  0  0  0  0  0  0  0
    8.0490  -14.6166   24.2248 C   0  0  2  0  0  0  0  0  0  0  0  0
    7.5482  -15.0912   22.9302 N   0  0  0  0  0  0  0  0  0  0  0  0
    8.4295  -15.7486   25.0858 C   0  0  0  0  0  0  0  0  0  0  0  0
    7.7525  -16.8047   25.0410 O   0  0  0  0  0  0  0  0  0  0  0  0
   11.0501  -20.8488   24.1265 N   0  0  0  0  0  0  0  0  0  0  0  0
   12.1573  -20.7663   23.2297 C   0  0  0  0  0  0  0  0  0  0  0  0
   12.4744  -21.7712   22.5068 N   0  0  0  0  0  0  0  0  0  0  0  0
   12.8625  -19.5278   23.1993 N   0  0  0  0  0  0  0  0  0  0  0  0
   12.8676  -18.7090   24.3839 C   0  0  0  0  0  0  0  0  0  0  0  0
   11.5876  -17.8710   24.4405 C   0  0  0  0  0  0  0  0  0  0  0  0
   11.5781  -16.9915   25.6570 C   0  0  0  0  0  0  0  0  0  0  0  0
   10.2233  -16.9488   26.2746 C   0  0  2  0  0  0  0  0  0  0  0  0
    9.5548  -15.6798   25.9778 N   0  0  0  0  0  0  0  0  0  0  0  0
   10.3289  -17.0301   27.7470 C   0  0  0  0  0  0  0  0  0  0  0  0
   10.3770  -15.9209   28.3926 O   0  0  0  0  0  0  0  0  0  0  0  0
   10.3735  -18.2319   28.4387 O   0  0  0  0  0  0  0  0  0  0  0  0
  2  1  1  6
  2  3  1  0
  3  4  1  0
  4  5  1  0
  5  9  1  0
  5  6  2  0
  7  2  1  0
  7  8  2  0
 10 11  1  0
 11 12  1  0
 13 12  1  0
 14 13  1  1
 14 15  1  0
 15  7  1  0
 16 14  1  0
 17 16  2  0
 18 19  1  0
 19 21  1  0
 20 19  2  0
 21 22  1  0
 22 23  1  0
 23 24  1  0
 25 24  1  6
 25 26  1  0
 25 27  1  0
 26 16  1  0
 27 29  1  0
 28 27  2  0
M  END
$$$$
