EMR.pdb
     RDKit          3D

 29 28  0  0  1  0  0  0  0  0999 V2000
    8.7872  -15.1725   19.4531 N   0  0  0  0  0  0  0  0  0  0  0  0
    8.9671  -16.2329   20.3941 C   0  0  1  0  0  0  0  0  0  0  0  0
    9.8312  -17.3637   19.8801 C   0  0  0  0  0  0  0  0  0  0  0  0
    8.9374  -18.4762   19.3704 C   0  0  0  0  0  0  0  0  0  0  0  0
    9.4235  -18.9706   18.0588 C   0  0  0  0  0  0  0  0  0  0  0  0
   10.5172  -19.5714   17.9806 O   0  0  0  0  0  0  0  0  0  0  0  0
    9.4170  -15.7116   21.6976 C   0  0  0  0  0  0  0  0  0  0  0  0
   10.6257  -15.6859   22.0536 O   0  0  0  0  0  0  0  0  0  0  0  0
    8.6797  -18.7766   16.9079 O   0  0  0  0  0  0  0  0  0  0  0  0
    6.8701  -11.4114   27.8478 C   0  0  0  0  0  0  0  0  0  0  0  0
    6.5520  -12.0587   26.1867 S   0  0  0  0  0  0  0  0  0  0  0  0
    7.8712  -13.2610   25.8069 C   0  0  0  0  0  0  0  0  0  0  0  0
    7.7319  -13.7840   24.4066 C   0  0  0  0  0  0  0  0  0  0  0  0
    8.7936  -14.7232   23.9504 C   0  0  2  0  0  0  0  0  0  0  0  0
    8.4698  -15.2133   22.6062 N   0  0  0  0  0  0  0  0  0  0  0  0
    9.1041  -15.8427   24.8550 C   0  0  0  0  0  0  0  0  0  0  0  0
    8.2855  -16.7886   24.9595 O   0  0  0  0  0  0  0  0  0  0  0  0
   14.4495  -21.4524   26.6202 N   0  0  0  0  0  0  0  0  0  0  0  0
   14.0849  -21.5308   25.2427 C   0  0  0  0  0  0  0  0  0  0  0  0
   14.1386  -22.6492   24.6268 N   0  0  0  0  0  0  0  0  0  0  0  0
   13.6729  -20.3155   24.6218 N   0  0  0  0  0  0  0  0  0  0  0  0
   13.5557  -19.1324   25.4344 C   0  0  0  0  0  0  0  0  0  0  0  0
   12.0795  -18.7629   25.6022 C   0  0  0  0  0  0  0  0  0  0  0  0
   11.9308  -17.5180   26.4278 C   0  0  0  0  0  0  0  0  0  0  0  0
   10.5115  -17.0676   26.4643 C   0  0  2  0  0  0  0  0  0  0  0  0
   10.3184  -15.8841   25.6233 N   0  0  0  0  0  0  0  0  0  0  0  0
   10.1357  -16.6693   27.8376 C   0  0  0  0  0  0  0  0  0  0  0  0
   10.2167  -17.5687   28.7508 O   0  0  0  0  0  0  0  0  0  0  0  0
    9.7126  -15.3897   28.1670 O   0  0  0  0  0  0  0  0  0  0  0  0
  2  1  1  6
  2  3  1  0
  3  4  1  0
  4  5  1  0
  5  9  1  0
  5  6  2  0
  7  2  1  0
  7  8  2  0
 10 11  1  0
 11 12  1  0
 13 12  1  0
 14 13  1  1
 14 15  1  0
 15  7  1  0
 16 14  1  0
 17 16  2  0
 18 19  1  0
 19 21  1  0
 20 19  2  0
 21 22  1  0
 22 23  1  0
 23 24  1  0
 25 24  1  1
 25 26  1  0
 25 27  1  0
 26 16  1  0
 27 29  1  0
 28 27  2  0
M  END
$$$$
