EMR.pdb
     RDKit          3D

 29 28  0  0  1  0  0  0  0  0999 V2000
    7.6584  -16.5727   20.4485 N   0  0  0  0  0  0  0  0  0  0  0  0
    9.0270  -16.8811   20.7212 C   0  0  1  0  0  0  0  0  0  0  0  0
    9.9540  -16.6234   19.5534 C   0  0  0  0  0  0  0  0  0  0  0  0
    9.4008  -17.3121   18.3221 C   0  0  0  0  0  0  0  0  0  0  0  0
   10.2439  -17.0122   17.1388 C   0  0  0  0  0  0  0  0  0  0  0  0
   10.6175  -15.8402   16.9150 O   0  0  0  0  0  0  0  0  0  0  0  0
    9.4763  -16.2327   21.9666 C   0  0  0  0  0  0  0  0  0  0  0  0
   10.6840  -16.1794   22.3231 O   0  0  0  0  0  0  0  0  0  0  0  0
   10.6283  -18.0176   16.2688 O   0  0  0  0  0  0  0  0  0  0  0  0
    6.9317  -11.3486   27.6679 C   0  0  0  0  0  0  0  0  0  0  0  0
    6.7192  -12.0301   26.0036 S   0  0  0  0  0  0  0  0  0  0  0  0
    7.9387  -13.3728   25.8031 C   0  0  0  0  0  0  0  0  0  0  0  0
    7.8281  -13.9976   24.4425 C   0  0  0  0  0  0  0  0  0  0  0  0
    8.8506  -15.0281   24.1109 C   0  0  2  0  0  0  0  0  0  0  0  0
    8.5298  -15.6376   22.8157 N   0  0  0  0  0  0  0  0  0  0  0  0
    9.0866  -16.0623   25.1319 C   0  0  0  0  0  0  0  0  0  0  0  0
    8.1632  -16.8649   25.4132 O   0  0  0  0  0  0  0  0  0  0  0  0
   15.4696  -20.5397   23.9336 N   0  0  0  0  0  0  0  0  0  0  0  0
   14.4421  -20.3406   22.9633 C   0  0  0  0  0  0  0  0  0  0  0  0
   14.5746  -20.8097   21.7821 N   0  0  0  0  0  0  0  0  0  0  0  0
   13.2975  -19.6047   23.3884 N   0  0  0  0  0  0  0  0  0  0  0  0
   13.2410  -19.1463   24.7523 C   0  0  0  0  0  0  0  0  0  0  0  0
   11.8804  -18.5003   25.0263 C   0  0  0  0  0  0  0  0  0  0  0  0
   11.7875  -18.0333   26.4499 C   0  0  0  0  0  0  0  0  0  0  0  0
   10.4941  -17.3385   26.7008 C   0  0  2  0  0  0  0  0  0  0  0  0
   10.3447  -16.1799   25.8174 N   0  0  0  0  0  0  0  0  0  0  0  0
   10.4528  -16.8167   28.0836 C   0  0  0  0  0  0  0  0  0  0  0  0
   10.5169  -15.5425   28.2305 O   0  0  0  0  0  0  0  0  0  0  0  0
   10.3467  -17.6341   29.1996 O   0  0  0  0  0  0  0  0  0  0  0  0
  2  1  1  6
  2  3  1  0
  3  4  1  0
  4  5  1  0
  5  9  1  0
  5  6  2  0
  7  2  1  0
  7  8  2  0
 10 11  1  0
 11 12  1  0
 13 12  1  0
 14 13  1  1
 14 15  1  0
 15  7  1  0
 16 14  1  0
 17 16  2  0
 18 19  1  0
 19 21  1  0
 20 19  2  0
 21 22  1  0
 22 23  1  0
 23 24  1  0
 25 24  1  6
 25 26  1  0
 25 27  1  0
 26 16  1  0
 27 29  1  0
 28 27  2  0
M  END
$$$$
