EMR.pdb
     RDKit          3D

 29 28  0  0  1  0  0  0  0  0999 V2000
    7.7810  -17.2224   16.1038 N   0  0  0  0  0  0  0  0  0  0  0  0
    8.1732  -18.0939   17.1665 C   0  0  1  0  0  0  0  0  0  0  0  0
    8.7505  -19.4102   16.6934 C   0  0  0  0  0  0  0  0  0  0  0  0
    8.3971  -19.6083   15.2333 C   0  0  0  0  0  0  0  0  0  0  0  0
    9.6075  -19.9610   14.4512 C   0  0  0  0  0  0  0  0  0  0  0  0
   10.1038  -21.1049   14.5443 O   0  0  0  0  0  0  0  0  0  0  0  0
    9.0457  -17.3952   18.1276 C   0  0  0  0  0  0  0  0  0  0  0  0
   10.3038  -17.4011   18.0525 O   0  0  0  0  0  0  0  0  0  0  0  0
   10.2036  -19.0364   13.6114 O   0  0  0  0  0  0  0  0  0  0  0  0
    7.8850  -12.1063   22.2269 C   0  0  0  0  0  0  0  0  0  0  0  0
    6.9608  -12.5266   20.7273 S   0  0  0  0  0  0  0  0  0  0  0  0
    7.9094  -13.8102   19.8425 C   0  0  0  0  0  0  0  0  0  0  0  0
    8.3827  -14.8743   20.7897 C   0  0  0  0  0  0  0  0  0  0  0  0
    9.2362  -15.9425   20.1999 C   0  0  2  0  0  0  0  0  0  0  0  0
    8.4698  -16.6803   19.1898 N   0  0  0  0  0  0  0  0  0  0  0  0
    9.8722  -16.8672   21.1529 C   0  0  0  0  0  0  0  0  0  0  0  0
    9.2484  -17.8941   21.5165 O   0  0  0  0  0  0  0  0  0  0  0  0
   17.4044  -21.4821   23.0663 N   0  0  0  0  0  0  0  0  0  0  0  0
   17.1546  -20.3438   23.8902 C   0  0  0  0  0  0  0  0  0  0  0  0
   18.1255  -19.7341   24.4545 N   0  0  0  0  0  0  0  0  0  0  0  0
   15.7926  -19.9493   24.0369 N   0  0  0  0  0  0  0  0  0  0  0  0
   15.2941  -18.8765   23.2158 C   0  0  0  0  0  0  0  0  0  0  0  0
   13.7799  -18.7439   23.3989 C   0  0  0  0  0  0  0  0  0  0  0  0
   13.2006  -17.7958   22.3894 C   0  0  0  0  0  0  0  0  0  0  0  0
   11.7276  -17.6625   22.5658 C   0  0  2  0  0  0  0  0  0  0  0  0
   11.1880  -16.6282   21.6803 N   0  0  0  0  0  0  0  0  0  0  0  0
   11.4136  -17.2353   23.9460 C   0  0  0  0  0  0  0  0  0  0  0  0
   11.0351  -16.0191   24.1104 O   0  0  0  0  0  0  0  0  0  0  0  0
   11.5078  -18.0813   25.0414 O   0  0  0  0  0  0  0  0  0  0  0  0
  2  1  1  6
  2  3  1  0
  3  4  1  0
  4  5  1  0
  5  9  1  0
  5  6  2  0
  7  2  1  0
  7  8  2  0
 10 11  1  0
 11 12  1  0
 13 12  1  0
 14 13  1  1
 14 15  1  0
 15  7  1  0
 16 14  1  0
 17 16  2  0
 18 19  1  0
 19 21  1  0
 20 19  2  0
 21 22  1  0
 22 23  1  0
 23 24  1  0
 25 24  1  1
 25 26  1  0
 25 27  1  0
 26 16  1  0
 27 29  1  0
 28 27  2  0
M  END
$$$$
