HDM.pdb
     RDKit          3D

 27 27  0  0  1  0  0  0  0  0999 V2000
   18.0612  -12.4098  -17.6866 N   0  0  0  0  0  0  0  0  0  0  0  0
   19.0871  -11.8859  -16.8162 C   0  0  1  0  0  0  0  0  0  0  0  0
   20.4535  -12.2553  -17.3429 C   0  0  0  0  0  0  0  0  0  0  0  0
   20.5790  -13.7380  -17.3056 C   0  0  0  0  0  0  0  0  0  0  0  0
   20.8242  -14.5633  -18.3746 C   0  0  0  0  0  0  0  0  0  0  0  0
   20.8673  -15.8463  -17.9287 N   0  0  0  0  0  0  0  0  0  0  0  0
   20.6487  -15.7933  -16.5948 C   0  0  0  0  0  0  0  0  0  0  0  0
   20.4759  -14.5217  -16.2253 N   0  0  0  0  0  0  0  0  0  0  0  0
   18.9558  -10.3882  -16.7460 C   0  0  0  0  0  0  0  0  0  0  0  0
   18.9900   -9.6621  -17.7642 O   0  0  0  0  0  0  0  0  0  0  0  0
   18.7844   -9.7252  -15.4997 N   0  0  0  0  0  0  0  0  0  0  0  0
   18.5355   -8.3277  -15.4160 C   0  0  1  0  0  0  0  0  0  0  0  0
   17.6032   -7.9293  -14.3012 C   0  0  0  0  0  0  0  0  0  0  0  0
   16.2239   -8.4050  -14.5087 C   0  0  0  0  0  0  0  0  0  0  0  0
   15.6558   -8.9760  -13.5326 O   0  0  0  0  0  0  0  0  0  0  0  0
   19.8281   -7.6385  -15.1574 C   0  0  0  0  0  0  0  0  0  0  0  0
   20.6571   -8.1797  -14.3856 O   0  0  0  0  0  0  0  0  0  0  0  0
   15.5181   -8.2752  -15.6718 O   0  0  0  0  0  0  0  0  0  0  0  0
   24.9825   -2.2064  -17.5972 C   0  0  0  0  0  0  0  0  0  0  0  0
   23.3888   -3.0334  -17.7682 S   0  0  0  0  0  0  0  0  0  0  0  0
   23.0610   -4.1310  -16.3691 C   0  0  0  0  0  0  0  0  0  0  0  0
   21.7936   -4.8837  -16.5572 C   0  0  0  0  0  0  0  0  0  0  0  0
   21.4466   -5.8114  -15.4225 C   0  0  2  0  0  0  0  0  0  0  0  0
   20.1638   -6.3937  -15.7481 N   0  0  0  0  0  0  0  0  0  0  0  0
   21.3710   -5.1509  -14.1257 C   0  0  0  0  0  0  0  0  0  0  0  0
   20.3102   -4.5682  -13.7919 O   0  0  0  0  0  0  0  0  0  0  0  0
   22.4012   -5.1080  -13.1977 O   0  0  0  0  0  0  0  0  0  0  0  0
  2  1  1  6
  2  3  1  0
  4  3  1  0
  5  4  2  0
  6  7  1  0
  6  5  1  0
  7  8  2  0
  8  4  1  0
  9 10  2  0
  9  2  1  0
 11  9  1  0
 12 11  1  0
 12 13  1  1
 14 13  1  0
 15 14  2  0
 16 12  1  0
 17 16  2  0
 18 14  1  0
 20 19  1  0
 21 20  1  0
 22 21  1  0
 23 22  1  6
 23 24  1  0
 24 16  1  0
 25 23  1  0
 26 25  2  0
 27 25  1  0
M  END
$$$$
