HDM.pdb
     RDKit          3D

 27 27  0  0  1  0  0  0  0  0999 V2000
   28.2264  -35.2930   -6.9710 N   0  0  0  0  0  0  0  0  0  0  0  0
   27.5661  -34.3778   -6.0703 C   0  0  1  0  0  0  0  0  0  0  0  0
   26.1440  -34.1415   -6.5205 C   0  0  0  0  0  0  0  0  0  0  0  0
   26.1782  -33.2622   -7.7210 C   0  0  0  0  0  0  0  0  0  0  0  0
   26.3072  -33.6677   -9.0260 C   0  0  0  0  0  0  0  0  0  0  0  0
   26.2940  -32.5673   -9.8234 N   0  0  0  0  0  0  0  0  0  0  0  0
   26.1574  -31.5024   -9.0005 C   0  0  0  0  0  0  0  0  0  0  0  0
   26.0882  -31.9268   -7.7361 N   0  0  0  0  0  0  0  0  0  0  0  0
   27.5712  -34.9621   -4.6833 C   0  0  0  0  0  0  0  0  0  0  0  0
   27.3325  -36.1701   -4.4621 O   0  0  0  0  0  0  0  0  0  0  0  0
   27.8522  -34.1529   -3.5483 N   0  0  0  0  0  0  0  0  0  0  0  0
   27.9292  -34.6942   -2.2357 C   0  0  1  0  0  0  0  0  0  0  0  0
   29.1744  -34.3107   -1.4785 C   0  0  0  0  0  0  0  0  0  0  0  0
   29.2088  -34.8630   -0.1127 C   0  0  0  0  0  0  0  0  0  0  0  0
   28.7929  -36.0480    0.0429 O   0  0  0  0  0  0  0  0  0  0  0  0
   26.7765  -34.1779   -1.4499 C   0  0  0  0  0  0  0  0  0  0  0  0
   26.5937  -32.9374   -1.3902 O   0  0  0  0  0  0  0  0  0  0  0  0
   29.6544  -34.1921    0.9914 O   0  0  0  0  0  0  0  0  0  0  0  0
   20.2545  -34.9915   -2.8832 C   0  0  0  0  0  0  0  0  0  0  0  0
   21.2248  -35.5885   -1.4849 S   0  0  0  0  0  0  0  0  0  0  0  0
   22.7600  -34.6513   -1.2984 C   0  0  0  0  0  0  0  0  0  0  0  0
   23.5867  -35.1833   -0.1840 C   0  0  0  0  0  0  0  0  0  0  0  0
   24.8603  -34.4189    0.0659 C   0  0  2  0  0  0  0  0  0  0  0  0
   25.8737  -35.0303   -0.7648 N   0  0  0  0  0  0  0  0  0  0  0  0
   25.2912  -34.4344    1.4578 C   0  0  0  0  0  0  0  0  0  0  0  0
   26.2775  -35.1369    1.7898 O   0  0  0  0  0  0  0  0  0  0  0  0
   24.6882  -33.7182    2.4814 O   0  0  0  0  0  0  0  0  0  0  0  0
  2  1  1  6
  2  3  1  0
  4  3  1  0
  5  4  2  0
  6  7  1  0
  6  5  1  0
  7  8  2  0
  8  4  1  0
  9 10  2  0
  9  2  1  0
 11  9  1  0
 12 11  1  0
 12 13  1  1
 14 13  1  0
 15 14  2  0
 16 12  1  0
 17 16  2  0
 18 14  1  0
 20 19  1  0
 21 20  1  0
 22 21  1  0
 23 22  1  1
 23 24  1  0
 24 16  1  0
 25 23  1  0
 26 25  2  0
 27 25  1  0
M  END
$$$$
