HDM.pdb
     RDKit          3D

 27 27  0  0  1  0  0  0  0  0999 V2000
   22.3689  -15.8156  -19.3429 N   0  0  0  0  0  0  0  0  0  0  0  0
   22.1109  -15.0522  -18.1448 C   0  0  1  0  0  0  0  0  0  0  0  0
   23.0819  -15.4478  -17.0579 C   0  0  0  0  0  0  0  0  0  0  0  0
   22.8166  -16.8664  -16.6935 C   0  0  0  0  0  0  0  0  0  0  0  0
   23.5887  -17.9520  -17.0243 C   0  0  0  0  0  0  0  0  0  0  0  0
   23.0107  -19.0672  -16.5056 N   0  0  0  0  0  0  0  0  0  0  0  0
   21.8936  -18.6538  -15.8643 C   0  0  0  0  0  0  0  0  0  0  0  0
   21.7819  -17.3282  -15.9807 N   0  0  0  0  0  0  0  0  0  0  0  0
   22.2602  -13.5866  -18.4530 C   0  0  0  0  0  0  0  0  0  0  0  0
   22.8557  -13.1714  -19.4719 O   0  0  0  0  0  0  0  0  0  0  0  0
   21.7221  -12.5968  -17.5853 N   0  0  0  0  0  0  0  0  0  0  0  0
   21.7285  -11.2150  -17.9205 C   0  0  1  0  0  0  0  0  0  0  0  0
   20.9445  -10.8740  -19.1614 C   0  0  0  0  0  0  0  0  0  0  0  0
   21.0063   -9.4421  -19.5042 C   0  0  0  0  0  0  0  0  0  0  0  0
   21.7161   -8.7001  -18.7645 O   0  0  0  0  0  0  0  0  0  0  0  0
   21.1040  -10.4606  -16.8009 C   0  0  0  0  0  0  0  0  0  0  0  0
   20.0192  -10.8754  -16.3244 O   0  0  0  0  0  0  0  0  0  0  0  0
   20.3566   -8.8608  -20.5566 O   0  0  0  0  0  0  0  0  0  0  0  0
   23.1915  -11.4707  -11.8504 C   0  0  0  0  0  0  0  0  0  0  0  0
   22.6877   -9.8285  -11.3001 S   0  0  0  0  0  0  0  0  0  0  0  0
   21.6437   -9.0115  -12.5299 C   0  0  0  0  0  0  0  0  0  0  0  0
   22.0239   -9.4070  -13.9110 C   0  0  0  0  0  0  0  0  0  0  0  0
   21.1636   -8.8037  -14.9901 C   0  0  2  0  0  0  0  0  0  0  0  0
   21.6843   -9.2907  -16.2481 N   0  0  0  0  0  0  0  0  0  0  0  0
   21.1591   -7.3465  -14.9918 C   0  0  0  0  0  0  0  0  0  0  0  0
   21.8263   -6.7291  -15.8577 O   0  0  0  0  0  0  0  0  0  0  0  0
   20.4596   -6.5559  -14.0917 O   0  0  0  0  0  0  0  0  0  0  0  0
  2  1  1  6
  2  3  1  0
  4  3  1  0
  5  4  2  0
  6  7  1  0
  6  5  1  0
  7  8  2  0
  8  4  1  0
  9 10  2  0
  9  2  1  0
 11  9  1  0
 12 11  1  0
 12 13  1  6
 14 13  1  0
 15 14  2  0
 16 12  1  0
 17 16  2  0
 18 14  1  0
 20 19  1  0
 21 20  1  0
 22 21  1  0
 23 22  1  1
 23 24  1  0
 24 16  1  0
 25 23  1  0
 26 25  2  0
 27 25  1  0
M  END
$$$$
