HDM.pdb
     RDKit          3D

 27 27  0  0  1  0  0  0  0  0999 V2000
   24.2371  -16.9535  -17.0123 N   0  0  0  0  0  0  0  0  0  0  0  0
   24.9690  -16.8861  -15.7696 C   0  0  1  0  0  0  0  0  0  0  0  0
   24.2259  -16.0258  -14.7752 C   0  0  0  0  0  0  0  0  0  0  0  0
   24.1224  -14.6517  -15.3378 C   0  0  0  0  0  0  0  0  0  0  0  0
   23.0103  -14.0857  -15.9098 C   0  0  0  0  0  0  0  0  0  0  0  0
   23.3206  -12.8207  -16.2975 N   0  0  0  0  0  0  0  0  0  0  0  0
   24.6159  -12.6258  -15.9598 C   0  0  0  0  0  0  0  0  0  0  0  0
   25.0934  -13.7313  -15.3824 N   0  0  0  0  0  0  0  0  0  0  0  0
   25.1324  -18.2769  -15.2182 C   0  0  0  0  0  0  0  0  0  0  0  0
   24.1593  -18.9759  -14.8583 O   0  0  0  0  0  0  0  0  0  0  0  0
   26.4203  -18.8643  -15.0812 N   0  0  0  0  0  0  0  0  0  0  0  0
   26.5937  -20.2205  -14.6908 C   0  0  1  0  0  0  0  0  0  0  0  0
   27.8643  -20.8538  -15.1961 C   0  0  0  0  0  0  0  0  0  0  0  0
   27.9163  -22.3069  -14.9564 C   0  0  0  0  0  0  0  0  0  0  0  0
   29.0038  -22.8982  -15.2193 O   0  0  0  0  0  0  0  0  0  0  0  0
   26.6520  -20.2744  -13.2055 C   0  0  0  0  0  0  0  0  0  0  0  0
   27.7515  -20.0666  -12.6364 O   0  0  0  0  0  0  0  0  0  0  0  0
   26.8814  -23.0578  -14.4739 O   0  0  0  0  0  0  0  0  0  0  0  0
   27.4802  -19.4507   -6.1694 C   0  0  0  0  0  0  0  0  0  0  0  0
   27.2743  -19.0336   -7.9121 S   0  0  0  0  0  0  0  0  0  0  0  0
   26.4757  -20.3765   -8.8224 C   0  0  0  0  0  0  0  0  0  0  0  0
   26.4634  -20.1071  -10.2838 C   0  0  0  0  0  0  0  0  0  0  0  0
   25.7298  -21.1384  -11.1005 C   0  0  2  0  0  0  0  0  0  0  0  0
   25.5152  -20.5506  -12.4040 N   0  0  0  0  0  0  0  0  0  0  0  0
   24.4522  -21.5416  -10.5273 C   0  0  0  0  0  0  0  0  0  0  0  0
   23.3970  -21.3560  -11.1819 O   0  0  0  0  0  0  0  0  0  0  0  0
   24.2941  -22.1316   -9.2817 O   0  0  0  0  0  0  0  0  0  0  0  0
  2  1  1  6
  2  3  1  0
  4  3  1  0
  5  4  2  0
  6  7  1  0
  6  5  1  0
  7  8  2  0
  8  4  1  0
  9 10  2  0
  9  2  1  0
 11  9  1  0
 12 11  1  0
 12 13  1  6
 14 13  1  0
 15 14  2  0
 16 12  1  0
 17 16  2  0
 18 14  1  0
 20 19  1  0
 21 20  1  0
 22 21  1  0
 23 22  1  1
 23 24  1  0
 24 16  1  0
 25 23  1  0
 26 25  2  0
 27 25  1  0
M  END
$$$$
