HDM.pdb
     RDKit          3D

 27 27  0  0  1  0  0  0  0  0999 V2000
   20.4483  -12.3434  -19.3169 N   0  0  0  0  0  0  0  0  0  0  0  0
   21.3807  -11.5267  -18.5765 C   0  0  1  0  0  0  0  0  0  0  0  0
   22.5170  -11.0939  -19.4721 C   0  0  0  0  0  0  0  0  0  0  0  0
   23.3059  -12.3025  -19.8363 C   0  0  0  0  0  0  0  0  0  0  0  0
   23.3689  -12.8934  -21.0736 C   0  0  0  0  0  0  0  0  0  0  0  0
   24.1951  -13.9697  -20.9965 N   0  0  0  0  0  0  0  0  0  0  0  0
   24.6282  -14.0262  -19.7163 C   0  0  0  0  0  0  0  0  0  0  0  0
   24.0897  -13.0202  -19.0225 N   0  0  0  0  0  0  0  0  0  0  0  0
   20.6611  -10.3163  -18.0451 C   0  0  0  0  0  0  0  0  0  0  0  0
   20.0817   -9.4971  -18.7923 O   0  0  0  0  0  0  0  0  0  0  0  0
   20.6086  -10.0490  -16.6494 N   0  0  0  0  0  0  0  0  0  0  0  0
   19.8984   -8.9367  -16.1201 C   0  0  1  0  0  0  0  0  0  0  0  0
   19.0209   -9.2655  -14.9400 C   0  0  0  0  0  0  0  0  0  0  0  0
   18.2956   -8.0930  -14.4195 C   0  0  0  0  0  0  0  0  0  0  0  0
   17.6829   -7.3718  -15.2596 O   0  0  0  0  0  0  0  0  0  0  0  0
   20.8892   -7.9327  -15.6479 C   0  0  0  0  0  0  0  0  0  0  0  0
   21.9065   -8.3324  -15.0305 O   0  0  0  0  0  0  0  0  0  0  0  0
   18.2371   -7.7303  -13.1032 O   0  0  0  0  0  0  0  0  0  0  0  0
   23.1659   -2.7618  -18.8580 C   0  0  0  0  0  0  0  0  0  0  0  0
   22.7923   -2.1013  -17.2217 S   0  0  0  0  0  0  0  0  0  0  0  0
   22.7541   -3.4100  -15.9745 C   0  0  0  0  0  0  0  0  0  0  0  0
   21.7844   -4.4757  -16.3379 C   0  0  0  0  0  0  0  0  0  0  0  0
   21.7803   -5.6579  -15.4045 C   0  0  2  0  0  0  0  0  0  0  0  0
   20.7324   -6.5404  -15.8671 N   0  0  0  0  0  0  0  0  0  0  0  0
   21.5451   -5.3049  -14.0104 C   0  0  0  0  0  0  0  0  0  0  0  0
   20.3661   -5.2087  -13.5895 O   0  0  0  0  0  0  0  0  0  0  0  0
   22.5414   -5.0579  -13.0772 O   0  0  0  0  0  0  0  0  0  0  0  0
  2  1  1  6
  2  3  1  0
  4  3  1  0
  5  4  2  0
  6  7  1  0
  6  5  1  0
  7  8  2  0
  8  4  1  0
  9 10  2  0
  9  2  1  0
 11  9  1  0
 12 11  1  0
 12 13  1  1
 14 13  1  0
 15 14  2  0
 16 12  1  0
 17 16  2  0
 18 14  1  0
 20 19  1  0
 21 20  1  0
 22 21  1  0
 23 22  1  6
 23 24  1  0
 24 16  1  0
 25 23  1  0
 26 25  2  0
 27 25  1  0
M  END
$$$$
