HDM.pdb
     RDKit          3D

 27 27  0  0  1  0  0  0  0  0999 V2000
   19.6348  -13.8332  -19.4338 N   0  0  0  0  0  0  0  0  0  0  0  0
   18.6738  -13.1386  -18.6100 C   0  0  1  0  0  0  0  0  0  0  0  0
   18.6210  -13.7622  -17.2356 C   0  0  0  0  0  0  0  0  0  0  0  0
   18.0558  -15.1326  -17.3700 C   0  0  0  0  0  0  0  0  0  0  0  0
   18.7051  -16.3126  -17.1056 C   0  0  0  0  0  0  0  0  0  0  0  0
   17.8499  -17.3402  -17.3496 N   0  0  0  0  0  0  0  0  0  0  0  0
   16.6889  -16.7800  -17.7597 C   0  0  0  0  0  0  0  0  0  0  0  0
   16.8187  -15.4509  -17.7700 N   0  0  0  0  0  0  0  0  0  0  0  0
   19.0749  -11.6923  -18.4985 C   0  0  0  0  0  0  0  0  0  0  0  0
   20.2699  -11.3304  -18.4198 O   0  0  0  0  0  0  0  0  0  0  0  0
   18.0969  -10.6601  -18.4777 N   0  0  0  0  0  0  0  0  0  0  0  0
   18.4522   -9.2833  -18.4875 C   0  0  1  0  0  0  0  0  0  0  0  0
   17.3565   -8.3633  -18.9606 C   0  0  0  0  0  0  0  0  0  0  0  0
   17.7759   -6.9516  -19.0154 C   0  0  0  0  0  0  0  0  0  0  0  0
   18.9111   -6.7043  -19.5172 O   0  0  0  0  0  0  0  0  0  0  0  0
   18.7790   -8.8761  -17.0947 C   0  0  0  0  0  0  0  0  0  0  0  0
   18.1225   -9.3771  -16.1493 O   0  0  0  0  0  0  0  0  0  0  0  0
   17.0324   -5.8966  -18.5661 O   0  0  0  0  0  0  0  0  0  0  0  0
   23.8786   -9.5624  -11.7950 C   0  0  0  0  0  0  0  0  0  0  0  0
   23.1507   -9.7642  -13.4329 S   0  0  0  0  0  0  0  0  0  0  0  0
   21.8508   -8.5434  -13.7326 C   0  0  0  0  0  0  0  0  0  0  0  0
   21.2949   -8.6708  -15.1049 C   0  0  0  0  0  0  0  0  0  0  0  0
   20.1462   -7.7423  -15.3996 C   0  0  2  0  0  0  0  0  0  0  0  0
   19.8036   -7.9442  -16.7898 N   0  0  0  0  0  0  0  0  0  0  0  0
   20.4530   -6.3365  -15.1687 C   0  0  0  0  0  0  0  0  0  0  0  0
   20.8279   -5.6215  -16.1302 O   0  0  0  0  0  0  0  0  0  0  0  0
   20.3643   -5.6982  -13.9402 O   0  0  0  0  0  0  0  0  0  0  0  0
  2  1  1  6
  2  3  1  0
  4  3  1  0
  5  4  2  0
  6  7  1  0
  6  5  1  0
  7  8  2  0
  8  4  1  0
  9 10  2  0
  9  2  1  0
 11  9  1  0
 12 11  1  0
 12 13  1  1
 14 13  1  0
 15 14  2  0
 16 12  1  0
 17 16  2  0
 18 14  1  0
 20 19  1  0
 21 20  1  0
 22 21  1  0
 23 22  1  6
 23 24  1  0
 24 16  1  0
 25 23  1  0
 26 25  2  0
 27 25  1  0
M  END
$$$$
