HDM.pdb
     RDKit          3D

 27 27  0  0  1  0  0  0  0  0999 V2000
   27.1836  -19.1382  -15.4723 N   0  0  0  0  0  0  0  0  0  0  0  0
   27.4296  -18.2394  -14.3694 C   0  0  1  0  0  0  0  0  0  0  0  0
   27.1364  -16.8169  -14.7833 C   0  0  0  0  0  0  0  0  0  0  0  0
   27.9297  -16.5176  -16.0067 C   0  0  0  0  0  0  0  0  0  0  0  0
   28.7886  -17.3723  -16.6516 C   0  0  0  0  0  0  0  0  0  0  0  0
   29.3160  -16.7262  -17.7246 N   0  0  0  0  0  0  0  0  0  0  0  0
   28.7758  -15.4860  -17.7255 C   0  0  0  0  0  0  0  0  0  0  0  0
   27.9421  -15.3661  -16.6891 N   0  0  0  0  0  0  0  0  0  0  0  0
   26.5472  -18.6259  -13.2130 C   0  0  0  0  0  0  0  0  0  0  0  0
   25.9772  -17.7787  -12.4901 O   0  0  0  0  0  0  0  0  0  0  0  0
   26.3206  -19.9917  -12.8885 N   0  0  0  0  0  0  0  0  0  0  0  0
   25.3980  -20.3852  -11.8806 C   0  0  1  0  0  0  0  0  0  0  0  0
   24.5427  -21.5694  -12.2506 C   0  0  0  0  0  0  0  0  0  0  0  0
   23.5508  -21.2573  -13.2949 C   0  0  0  0  0  0  0  0  0  0  0  0
   23.6328  -21.9007  -14.3816 O   0  0  0  0  0  0  0  0  0  0  0  0
   26.1688  -20.7776  -10.6704 C   0  0  0  0  0  0  0  0  0  0  0  0
   27.0486  -21.6666  -10.7769 O   0  0  0  0  0  0  0  0  0  0  0  0
   22.5550  -20.3289  -13.1758 O   0  0  0  0  0  0  0  0  0  0  0  0
   28.1201  -18.5087   -4.3413 C   0  0  0  0  0  0  0  0  0  0  0  0
   29.1404  -19.3864   -5.5420 S   0  0  0  0  0  0  0  0  0  0  0  0
   28.1743  -20.6067   -6.4626 C   0  0  0  0  0  0  0  0  0  0  0  0
   27.2969  -19.9545   -7.4692 C   0  0  0  0  0  0  0  0  0  0  0  0
   26.4100  -20.9046   -8.2305 C   0  0  2  0  0  0  0  0  0  0  0  0
   25.9511  -20.1877   -9.3993 N   0  0  0  0  0  0  0  0  0  0  0  0
   25.2649  -21.3803   -7.4651 C   0  0  0  0  0  0  0  0  0  0  0  0
   25.4566  -22.0678   -6.4322 O   0  0  0  0  0  0  0  0  0  0  0  0
   23.9387  -21.1322   -7.7877 O   0  0  0  0  0  0  0  0  0  0  0  0
  2  1  1  6
  2  3  1  0
  4  3  1  0
  5  4  2  0
  6  7  1  0
  6  5  1  0
  7  8  2  0
  8  4  1  0
  9 10  2  0
  9  2  1  0
 11  9  1  0
 12 11  1  0
 12 13  1  6
 14 13  1  0
 15 14  2  0
 16 12  1  0
 17 16  2  0
 18 14  1  0
 20 19  1  0
 21 20  1  0
 22 21  1  0
 23 22  1  1
 23 24  1  0
 24 16  1  0
 25 23  1  0
 26 25  2  0
 27 25  1  0
M  END
$$$$
