HDM.pdb
     RDKit          3D

 27 27  0  0  1  0  0  0  0  0999 V2000
   20.9920   -9.8150  -17.8205 N   0  0  0  0  0  0  0  0  0  0  0  0
   20.4190   -8.5861  -18.3167 C   0  0  1  0  0  0  0  0  0  0  0  0
   18.9371   -8.5503  -18.0276 C   0  0  0  0  0  0  0  0  0  0  0  0
   18.2893   -9.6513  -18.7917 C   0  0  0  0  0  0  0  0  0  0  0  0
   18.0969   -9.6986  -20.1500 C   0  0  0  0  0  0  0  0  0  0  0  0
   17.4734  -10.8663  -20.4573 N   0  0  0  0  0  0  0  0  0  0  0  0
   17.2911  -11.5201  -19.2872 C   0  0  0  0  0  0  0  0  0  0  0  0
   17.7842  -10.7839  -18.2879 N   0  0  0  0  0  0  0  0  0  0  0  0
   21.0971   -7.4210  -17.6476 C   0  0  0  0  0  0  0  0  0  0  0  0
   20.9289   -7.1497  -16.4379 O   0  0  0  0  0  0  0  0  0  0  0  0
   21.9715   -6.5663  -18.3736 N   0  0  0  0  0  0  0  0  0  0  0  0
   22.6243   -5.4601  -17.7637 C   0  0  1  0  0  0  0  0  0  0  0  0
   24.0617   -5.2818  -18.1792 C   0  0  0  0  0  0  0  0  0  0  0  0
   24.9426   -6.3487  -17.6719 C   0  0  0  0  0  0  0  0  0  0  0  0
   25.7955   -6.8260  -18.4758 O   0  0  0  0  0  0  0  0  0  0  0  0
   21.9083   -4.2186  -18.1620 C   0  0  0  0  0  0  0  0  0  0  0  0
   21.4921   -4.1136  -19.3417 O   0  0  0  0  0  0  0  0  0  0  0  0
   24.9054   -6.8570  -16.4038 O   0  0  0  0  0  0  0  0  0  0  0  0
   17.2556   -2.7313  -20.4756 C   0  0  0  0  0  0  0  0  0  0  0  0
   16.9302   -2.1573  -18.7969 S   0  0  0  0  0  0  0  0  0  0  0  0
   18.4355   -1.5417  -18.0064 C   0  0  0  0  0  0  0  0  0  0  0  0
   19.5113   -2.5667  -18.0188 C   0  0  0  0  0  0  0  0  0  0  0  0
   20.8877   -2.0278  -17.7297 C   0  0  2  0  0  0  0  0  0  0  0  0
   21.6753   -3.1469  -17.2629 N   0  0  0  0  0  0  0  0  0  0  0  0
   20.9051   -0.9652  -16.7326 C   0  0  0  0  0  0  0  0  0  0  0  0
   21.3336   -1.2104  -15.5782 O   0  0  0  0  0  0  0  0  0  0  0  0
   20.4761    0.3353  -16.9538 O   0  0  0  0  0  0  0  0  0  0  0  0
  2  1  1  1
  2  3  1  0
  4  3  1  0
  5  4  2  0
  6  7  1  0
  6  5  1  0
  7  8  2  0
  8  4  1  0
  9 10  2  0
  9  2  1  0
 11  9  1  0
 12 11  1  0
 12 13  1  6
 14 13  1  0
 15 14  2  0
 16 12  1  0
 17 16  2  0
 18 14  1  0
 20 19  1  0
 21 20  1  0
 22 21  1  0
 23 22  1  1
 23 24  1  0
 24 16  1  0
 25 23  1  0
 26 25  2  0
 27 25  1  0
M  END
$$$$
