HDM.pdb
     RDKit          3D

 27 27  0  0  1  0  0  0  0  0999 V2000
   24.8372  -26.6951  -17.1685 N   0  0  0  0  0  0  0  0  0  0  0  0
   25.4853  -26.1047  -16.0214 C   0  0  1  0  0  0  0  0  0  0  0  0
   26.9095  -25.7358  -16.3623 C   0  0  0  0  0  0  0  0  0  0  0  0
   27.6391  -26.9838  -16.7168 C   0  0  0  0  0  0  0  0  0  0  0  0
   27.1221  -28.2553  -16.7308 C   0  0  0  0  0  0  0  0  0  0  0  0
   28.1034  -29.1163  -17.1082 N   0  0  0  0  0  0  0  0  0  0  0  0
   29.2081  -28.3651  -17.3208 C   0  0  0  0  0  0  0  0  0  0  0  0
   28.9227  -27.0822  -17.0837 N   0  0  0  0  0  0  0  0  0  0  0  0
   24.7255  -24.8738  -15.6057 C   0  0  0  0  0  0  0  0  0  0  0  0
   25.1036  -24.1346  -14.6699 O   0  0  0  0  0  0  0  0  0  0  0  0
   23.5271  -24.4932  -16.2700 N   0  0  0  0  0  0  0  0  0  0  0  0
   22.7739  -23.3539  -15.8743 C   0  0  1  0  0  0  0  0  0  0  0  0
   22.3917  -22.4384  -17.0086 C   0  0  0  0  0  0  0  0  0  0  0  0
   22.8389  -21.0497  -16.8012 C   0  0  0  0  0  0  0  0  0  0  0  0
   22.6726  -20.5542  -15.6487 O   0  0  0  0  0  0  0  0  0  0  0  0
   21.5036  -23.8250  -15.2602 C   0  0  0  0  0  0  0  0  0  0  0  0
   21.1636  -25.0227  -15.4199 O   0  0  0  0  0  0  0  0  0  0  0  0
   23.4166  -20.2627  -17.7576 O   0  0  0  0  0  0  0  0  0  0  0  0
   19.7511  -28.1999  -12.3862 C   0  0  0  0  0  0  0  0  0  0  0  0
   19.5218  -26.7648  -11.3179 S   0  0  0  0  0  0  0  0  0  0  0  0
   18.8792  -25.3497  -12.2422 C   0  0  0  0  0  0  0  0  0  0  0  0
   19.9587  -24.6597  -12.9950 C   0  0  0  0  0  0  0  0  0  0  0  0
   19.4788  -23.5542  -13.8984 C   0  0  2  0  0  0  0  0  0  0  0  0
   20.6597  -22.9760  -14.4999 N   0  0  0  0  0  0  0  0  0  0  0  0
   18.7219  -22.5180  -13.2078 C   0  0  0  0  0  0  0  0  0  0  0  0
   19.1995  -21.3601  -13.1214 O   0  0  0  0  0  0  0  0  0  0  0  0
   17.4800  -22.7044  -12.6184 O   0  0  0  0  0  0  0  0  0  0  0  0
  2  1  1  6
  2  3  1  0
  4  3  1  0
  5  4  2  0
  6  7  1  0
  6  5  1  0
  7  8  2  0
  8  4  1  0
  9 10  2  0
  9  2  1  0
 11  9  1  0
 12 11  1  0
 12 13  1  6
 14 13  1  0
 15 14  2  0
 16 12  1  0
 17 16  2  0
 18 14  1  0
 20 19  1  0
 21 20  1  0
 22 21  1  0
 23 22  1  1
 23 24  1  0
 24 16  1  0
 25 23  1  0
 26 25  2  0
 27 25  1  0
M  END
$$$$
