HDM.pdb
     RDKit          3D

 27 27  0  0  1  0  0  0  0  0999 V2000
   25.2143  -19.3787  -17.1921 N   0  0  0  0  0  0  0  0  0  0  0  0
   24.4842  -18.3411  -16.5029 C   0  0  1  0  0  0  0  0  0  0  0  0
   24.2979  -17.1475  -17.4093 C   0  0  0  0  0  0  0  0  0  0  0  0
   25.6299  -16.7668  -17.9536 C   0  0  0  0  0  0  0  0  0  0  0  0
   25.9464  -16.5734  -19.2752 C   0  0  0  0  0  0  0  0  0  0  0  0
   27.2601  -16.2359  -19.3597 N   0  0  0  0  0  0  0  0  0  0  0  0
   27.7330  -16.2262  -18.0924 C   0  0  0  0  0  0  0  0  0  0  0  0
   26.7473  -16.5465  -17.2502 N   0  0  0  0  0  0  0  0  0  0  0  0
   23.1418  -18.8780  -16.0848 C   0  0  0  0  0  0  0  0  0  0  0  0
   22.2591  -18.1553  -15.5712 O   0  0  0  0  0  0  0  0  0  0  0  0
   22.8151  -20.2510  -16.2590 N   0  0  0  0  0  0  0  0  0  0  0  0
   21.5549  -20.7823  -15.8700 C   0  0  1  0  0  0  0  0  0  0  0  0
   21.1251  -21.9962  -16.6527 C   0  0  0  0  0  0  0  0  0  0  0  0
   19.7675  -22.4522  -16.3055 C   0  0  0  0  0  0  0  0  0  0  0  0
   19.1165  -21.7524  -15.4760 O   0  0  0  0  0  0  0  0  0  0  0  0
   21.6457  -21.2034  -14.4462 C   0  0  0  0  0  0  0  0  0  0  0  0
   22.7236  -21.6932  -14.0290 O   0  0  0  0  0  0  0  0  0  0  0  0
   19.1641  -23.5693  -16.8111 O   0  0  0  0  0  0  0  0  0  0  0  0
   23.2378  -21.4954   -8.5579 C   0  0  0  0  0  0  0  0  0  0  0  0
   23.6646  -20.6682  -10.1029 S   0  0  0  0  0  0  0  0  0  0  0  0
   22.3475  -19.5516  -10.6397 C   0  0  0  0  0  0  0  0  0  0  0  0
   21.9138  -19.8545  -12.0284 C   0  0  0  0  0  0  0  0  0  0  0  0
   20.8695  -20.9349  -12.1325 C   0  0  2  0  0  0  0  0  0  0  0  0
   20.5636  -21.0737  -13.5388 N   0  0  0  0  0  0  0  0  0  0  0  0
   19.6491  -20.6457  -11.3906 C   0  0  0  0  0  0  0  0  0  0  0  0
   19.4984  -21.1264  -10.2406 O   0  0  0  0  0  0  0  0  0  0  0  0
   18.6054  -19.8607  -11.8584 O   0  0  0  0  0  0  0  0  0  0  0  0
  2  1  1  6
  2  3  1  0
  4  3  1  0
  5  4  2  0
  6  7  1  0
  6  5  1  0
  7  8  2  0
  8  4  1  0
  9 10  2  0
  9  2  1  0
 11  9  1  0
 12 11  1  0
 12 13  1  6
 14 13  1  0
 15 14  2  0
 16 12  1  0
 17 16  2  0
 18 14  1  0
 20 19  1  0
 21 20  1  0
 22 21  1  0
 23 22  1  6
 23 24  1  0
 24 16  1  0
 25 23  1  0
 26 25  2  0
 27 25  1  0
M  END
$$$$
