HDM.pdb
     RDKit          3D

 27 27  0  0  1  0  0  0  0  0999 V2000
   21.0319  -20.1028  -14.1500 N   0  0  0  0  0  0  0  0  0  0  0  0
   21.6643  -19.4636  -13.0204 C   0  0  1  0  0  0  0  0  0  0  0  0
   20.6170  -18.9105  -12.0834 C   0  0  0  0  0  0  0  0  0  0  0  0
   19.9002  -17.8117  -12.7865 C   0  0  0  0  0  0  0  0  0  0  0  0
   20.4532  -16.8959  -13.6465 C   0  0  0  0  0  0  0  0  0  0  0  0
   19.4715  -16.0611  -14.0780 N   0  0  0  0  0  0  0  0  0  0  0  0
   18.3307  -16.4734  -13.4793 C   0  0  0  0  0  0  0  0  0  0  0  0
   18.5948  -17.5275  -12.7031 N   0  0  0  0  0  0  0  0  0  0  0  0
   22.5146  -20.4724  -12.2961 C   0  0  0  0  0  0  0  0  0  0  0  0
   22.0331  -21.3110  -11.5023 O   0  0  0  0  0  0  0  0  0  0  0  0
   23.9231  -20.5153  -12.4867 N   0  0  0  0  0  0  0  0  0  0  0  0
   24.7365  -21.5131  -11.8827 C   0  0  1  0  0  0  0  0  0  0  0  0
   25.5510  -22.3234  -12.8578 C   0  0  0  0  0  0  0  0  0  0  0  0
   24.8431  -22.5779  -14.1250 C   0  0  0  0  0  0  0  0  0  0  0  0
   23.7908  -23.2786  -14.0694 O   0  0  0  0  0  0  0  0  0  0  0  0
   25.7039  -20.8398  -10.9753 C   0  0  0  0  0  0  0  0  0  0  0  0
   25.3261  -19.8303  -10.3318 O   0  0  0  0  0  0  0  0  0  0  0  0
   25.2384  -22.1149  -15.3486 O   0  0  0  0  0  0  0  0  0  0  0  0
   28.3065  -19.0309   -4.6898 C   0  0  0  0  0  0  0  0  0  0  0  0
   27.4101  -20.0013   -5.9179 S   0  0  0  0  0  0  0  0  0  0  0  0
   28.1214  -19.7975   -7.5678 C   0  0  0  0  0  0  0  0  0  0  0  0
   27.3023  -20.4859   -8.5990 C   0  0  0  0  0  0  0  0  0  0  0  0
   27.9201  -20.5067   -9.9726 C   0  0  2  0  0  0  0  0  0  0  0  0
   27.0373  -21.2920  -10.8061 N   0  0  0  0  0  0  0  0  0  0  0  0
   29.2612  -21.0758  -10.0050 C   0  0  0  0  0  0  0  0  0  0  0  0
   29.4113  -22.2822  -10.3189 O   0  0  0  0  0  0  0  0  0  0  0  0
   30.4242  -20.3795   -9.7102 O   0  0  0  0  0  0  0  0  0  0  0  0
  2  1  1  6
  2  3  1  0
  4  3  1  0
  5  4  2  0
  6  7  1  0
  6  5  1  0
  7  8  2  0
  8  4  1  0
  9 10  2  0
  9  2  1  0
 11  9  1  0
 12 11  1  0
 12 13  1  6
 14 13  1  0
 15 14  2  0
 16 12  1  0
 17 16  2  0
 18 14  1  0
 20 19  1  0
 21 20  1  0
 22 21  1  0
 23 22  1  1
 23 24  1  0
 24 16  1  0
 25 23  1  0
 26 25  2  0
 27 25  1  0
M  END
$$$$
