HDM.pdb
     RDKit          3D

 27 27  0  0  1  0  0  0  0  0999 V2000
   14.9857  -10.2747  -13.6671 N   0  0  0  0  0  0  0  0  0  0  0  0
   14.1293   -9.1195  -13.5385 C   0  0  1  0  0  0  0  0  0  0  0  0
   12.9343   -9.4523  -12.6770 C   0  0  0  0  0  0  0  0  0  0  0  0
   12.0293  -10.3360  -13.4617 C   0  0  0  0  0  0  0  0  0  0  0  0
   10.9519   -9.9392  -14.2139 C   0  0  0  0  0  0  0  0  0  0  0  0
   10.3870  -11.0410  -14.7740 N   0  0  0  0  0  0  0  0  0  0  0  0
   11.1226  -12.0981  -14.3601 C   0  0  0  0  0  0  0  0  0  0  0  0
   12.1098  -11.6677  -13.5703 N   0  0  0  0  0  0  0  0  0  0  0  0
   14.9102   -7.9945  -12.9141 C   0  0  0  0  0  0  0  0  0  0  0  0
   15.6861   -8.1699  -11.9485 O   0  0  0  0  0  0  0  0  0  0  0  0
   14.7973   -6.6641  -13.4034 N   0  0  0  0  0  0  0  0  0  0  0  0
   15.5545   -5.5919  -12.8568 C   0  0  1  0  0  0  0  0  0  0  0  0
   15.9771   -4.5540  -13.8642 C   0  0  0  0  0  0  0  0  0  0  0  0
   16.7173   -3.4332  -13.2578 C   0  0  0  0  0  0  0  0  0  0  0  0
   16.1163   -2.3230  -13.1700 O   0  0  0  0  0  0  0  0  0  0  0  0
   14.7120   -4.8914  -11.8508 C   0  0  0  0  0  0  0  0  0  0  0  0
   13.4935   -4.7192  -12.0984 O   0  0  0  0  0  0  0  0  0  0  0  0
   17.9980   -3.5054  -12.7865 O   0  0  0  0  0  0  0  0  0  0  0  0
   12.6781   -3.7747   -4.5283 C   0  0  0  0  0  0  0  0  0  0  0  0
   13.5432   -4.6470   -5.8488 S   0  0  0  0  0  0  0  0  0  0  0  0
   13.5132   -3.7053   -7.3923 C   0  0  0  0  0  0  0  0  0  0  0  0
   14.2296   -4.4234   -8.4782 C   0  0  0  0  0  0  0  0  0  0  0  0
   14.3461   -3.6491   -9.7649 C   0  0  2  0  0  0  0  0  0  0  0  0
   15.2289   -4.4095  -10.6212 N   0  0  0  0  0  0  0  0  0  0  0  0
   14.8702   -2.3002   -9.5934 C   0  0  0  0  0  0  0  0  0  0  0  0
   16.0580   -2.0547   -9.9177 O   0  0  0  0  0  0  0  0  0  0  0  0
   14.1488   -1.2289   -9.0870 O   0  0  0  0  0  0  0  0  0  0  0  0
  2  1  1  1
  2  3  1  0
  4  3  1  0
  5  4  2  0
  6  7  1  0
  6  5  1  0
  7  8  2  0
  8  4  1  0
  9 10  2  0
  9  2  1  0
 11  9  1  0
 12 11  1  0
 12 13  1  6
 14 13  1  0
 15 14  2  0
 16 12  1  0
 17 16  2  0
 18 14  1  0
 20 19  1  0
 21 20  1  0
 22 21  1  0
 23 22  1  1
 23 24  1  0
 24 16  1  0
 25 23  1  0
 26 25  2  0
 27 25  1  0
M  END
$$$$
