HDM.pdb
     RDKit          3D

 27 27  0  0  1  0  0  0  0  0999 V2000
   20.9066  -12.8382  -20.3373 N   0  0  0  0  0  0  0  0  0  0  0  0
   20.2546  -12.4335  -19.1143 C   0  0  1  0  0  0  0  0  0  0  0  0
   20.7265  -13.2928  -17.9654 C   0  0  0  0  0  0  0  0  0  0  0  0
   20.2648  -14.6867  -18.2094 C   0  0  0  0  0  0  0  0  0  0  0  0
   18.9807  -15.0841  -18.4873 C   0  0  0  0  0  0  0  0  0  0  0  0
   18.9711  -16.4338  -18.6456 N   0  0  0  0  0  0  0  0  0  0  0  0
   20.2461  -16.8475  -18.4635 C   0  0  0  0  0  0  0  0  0  0  0  0
   21.0204  -15.7916  -18.2013 N   0  0  0  0  0  0  0  0  0  0  0  0
   20.5788  -10.9900  -18.8377 C   0  0  0  0  0  0  0  0  0  0  0  0
   21.7536  -10.5634  -18.7834 O   0  0  0  0  0  0  0  0  0  0  0  0
   19.5469  -10.0353  -18.6233 N   0  0  0  0  0  0  0  0  0  0  0  0
   19.8273   -8.6638  -18.3741 C   0  0  1  0  0  0  0  0  0  0  0  0
   18.6295   -7.7559  -18.4830 C   0  0  0  0  0  0  0  0  0  0  0  0
   18.9732   -6.3311  -18.3305 C   0  0  0  0  0  0  0  0  0  0  0  0
   18.2600   -5.6450  -17.5418 O   0  0  0  0  0  0  0  0  0  0  0  0
   20.3332   -8.5369  -16.9810 C   0  0  0  0  0  0  0  0  0  0  0  0
   20.0882   -9.4575  -16.1635 O   0  0  0  0  0  0  0  0  0  0  0  0
   20.0002   -5.7006  -18.9752 O   0  0  0  0  0  0  0  0  0  0  0  0
   26.6009  -10.5411  -14.5590 C   0  0  0  0  0  0  0  0  0  0  0  0
   25.2278  -10.2126  -15.6816 S   0  0  0  0  0  0  0  0  0  0  0  0
   24.1254   -8.9403  -15.0216 C   0  0  0  0  0  0  0  0  0  0  0  0
   22.9699   -8.7036  -15.9255 C   0  0  0  0  0  0  0  0  0  0  0  0
   22.0326   -7.6178  -15.4661 C   0  0  2  0  0  0  0  0  0  0  0  0
   21.0824   -7.4175  -16.5374 N   0  0  0  0  0  0  0  0  0  0  0  0
   22.6982   -6.3585  -15.1583 C   0  0  0  0  0  0  0  0  0  0  0  0
   23.1336   -6.1592  -13.9977 O   0  0  0  0  0  0  0  0  0  0  0  0
   22.8997   -5.3273  -16.0642 O   0  0  0  0  0  0  0  0  0  0  0  0
  2  1  1  6
  2  3  1  0
  4  3  1  0
  5  4  2  0
  6  7  1  0
  6  5  1  0
  7  8  2  0
  8  4  1  0
  9 10  2  0
  9  2  1  0
 11  9  1  0
 12 11  1  0
 12 13  1  1
 14 13  1  0
 15 14  2  0
 16 12  1  0
 17 16  2  0
 18 14  1  0
 20 19  1  0
 21 20  1  0
 22 21  1  0
 23 22  1  6
 23 24  1  0
 24 16  1  0
 25 23  1  0
 26 25  2  0
 27 25  1  0
M  END
$$$$
