HDM.pdb
     RDKit          3D

 27 27  0  0  1  0  0  0  0  0999 V2000
   20.3252  -11.5622  -18.4147 N   0  0  0  0  0  0  0  0  0  0  0  0
   21.3501  -10.5551  -18.2728 C   0  0  1  0  0  0  0  0  0  0  0  0
   22.0090  -10.2933  -19.6063 C   0  0  0  0  0  0  0  0  0  0  0  0
   22.6986  -11.5407  -20.0351 C   0  0  0  0  0  0  0  0  0  0  0  0
   22.2967  -12.3936  -21.0327 C   0  0  0  0  0  0  0  0  0  0  0  0
   23.1922  -13.4124  -21.1166 N   0  0  0  0  0  0  0  0  0  0  0  0
   24.1306  -13.1732  -20.1720 C   0  0  0  0  0  0  0  0  0  0  0  0
   23.8283  -12.0452  -19.5242 N   0  0  0  0  0  0  0  0  0  0  0  0
   20.7262   -9.2872  -17.7548 C   0  0  0  0  0  0  0  0  0  0  0  0
   19.6970   -8.7886  -18.2621 O   0  0  0  0  0  0  0  0  0  0  0  0
   21.2893   -8.5918  -16.6495 N   0  0  0  0  0  0  0  0  0  0  0  0
   20.7164   -7.3944  -16.1399 C   0  0  1  0  0  0  0  0  0  0  0  0
   20.9161   -7.1920  -14.6601 C   0  0  0  0  0  0  0  0  0  0  0  0
   20.0823   -8.0887  -13.8402 C   0  0  0  0  0  0  0  0  0  0  0  0
   18.9488   -8.4089  -14.3032 O   0  0  0  0  0  0  0  0  0  0  0  0
   21.3653   -6.2411  -16.8192 C   0  0  0  0  0  0  0  0  0  0  0  0
   22.6174   -6.1532  -16.7962 O   0  0  0  0  0  0  0  0  0  0  0  0
   20.4419   -8.5965  -12.6234 O   0  0  0  0  0  0  0  0  0  0  0  0
   22.3093   -4.9396  -22.7893 C   0  0  0  0  0  0  0  0  0  0  0  0
   21.4637   -3.4680  -22.1789 S   0  0  0  0  0  0  0  0  0  0  0  0
   21.7660   -3.2171  -20.4139 C   0  0  0  0  0  0  0  0  0  0  0  0
   21.1448   -4.2942  -19.6001 C   0  0  0  0  0  0  0  0  0  0  0  0
   21.3614   -4.1563  -18.1159 C   0  0  2  0  0  0  0  0  0  0  0  0
   20.6272   -5.2353  -17.4935 N   0  0  0  0  0  0  0  0  0  0  0  0
   20.9135   -2.8803  -17.5730 C   0  0  0  0  0  0  0  0  0  0  0  0
   21.5296   -1.8300  -17.8790 O   0  0  0  0  0  0  0  0  0  0  0  0
   19.8312   -2.7188  -16.7203 O   0  0  0  0  0  0  0  0  0  0  0  0
  2  1  1  6
  2  3  1  0
  4  3  1  0
  5  4  2  0
  6  7  1  0
  6  5  1  0
  7  8  2  0
  8  4  1  0
  9 10  2  0
  9  2  1  0
 11  9  1  0
 12 11  1  0
 12 13  1  1
 14 13  1  0
 15 14  2  0
 16 12  1  0
 17 16  2  0
 18 14  1  0
 20 19  1  0
 21 20  1  0
 22 21  1  0
 23 22  1  6
 23 24  1  0
 24 16  1  0
 25 23  1  0
 26 25  2  0
 27 25  1  0
M  END
$$$$
