AWR.pdb
     RDKit          3D

 31 32  0  0  1  0  0  0  0  0999 V2000
   22.4640  -22.1962  -13.1102 C   0  0  0  0  0  0  0  0  0  0  0  0
   22.7245  -21.5583  -11.7833 C   0  0  2  0  0  0  0  0  0  0  0  0
   21.7110  -20.6540  -11.3410 N   0  0  0  0  0  0  0  0  0  0  0  0
   24.0182  -20.8538  -11.8318 C   0  0  0  0  0  0  0  0  0  0  0  0
   24.0315  -19.6554  -12.2533 O   0  0  0  0  0  0  0  0  0  0  0  0
   25.2113  -21.4777  -11.4266 N   0  0  0  0  0  0  0  0  0  0  0  0
   26.5033  -20.7588  -11.5768 C   0  0  1  0  0  0  0  0  0  0  0  0
   27.3925  -21.3291  -10.5258 C   0  0  0  0  0  0  0  0  0  0  0  0
   27.1560  -20.7161   -9.2104 C   0  0  0  0  0  0  0  0  0  0  0  0
   26.0222  -19.9710   -8.8485 C   0  0  0  0  0  0  0  0  0  0  0  0
   26.1839  -19.5466   -7.5987 N   0  0  0  0  0  0  0  0  0  0  0  0
   27.3510  -19.9578   -7.0960 C   0  0  0  0  0  0  0  0  0  0  0  0
   27.9160  -19.7654   -5.8349 C   0  0  0  0  0  0  0  0  0  0  0  0
   29.1411  -20.3350   -5.5820 C   0  0  0  0  0  0  0  0  0  0  0  0
   29.7669  -21.0722   -6.5732 C   0  0  0  0  0  0  0  0  0  0  0  0
   29.2108  -21.2544   -7.7989 C   0  0  0  0  0  0  0  0  0  0  0  0
   27.9677  -20.6870   -8.0857 C   0  0  0  0  0  0  0  0  0  0  0  0
   26.9579  -21.0435  -12.9445 C   0  0  0  0  0  0  0  0  0  0  0  0
   26.6732  -22.2084  -13.3931 O   0  0  0  0  0  0  0  0  0  0  0  0
   22.5232  -20.8998  -17.0161 N   0  0  0  0  0  0  0  0  0  0  0  0
   22.8553  -20.0984  -18.1234 C   0  0  0  0  0  0  0  0  0  0  0  0
   21.9581  -19.5118  -18.8266 N   0  0  0  0  0  0  0  0  0  0  0  0
   24.2184  -19.9047  -18.5115 N   0  0  0  0  0  0  0  0  0  0  0  0
   25.2661  -20.4919  -17.7168 C   0  0  0  0  0  0  0  0  0  0  0  0
   25.3776  -19.9810  -16.3446 C   0  0  0  0  0  0  0  0  0  0  0  0
   26.6099  -19.5144  -15.7549 C   0  0  0  0  0  0  0  0  0  0  0  0
   27.7255  -20.3484  -15.2439 C   0  0  2  0  0  0  0  0  0  0  0  0
   27.6565  -20.1272  -13.7301 N   0  0  0  0  0  0  0  0  0  0  0  0
   29.0891  -19.7914  -15.5078 C   0  0  0  0  0  0  0  0  0  0  0  0
   30.1031  -20.5966  -16.0754 O   0  0  0  0  0  0  0  0  0  0  0  0
   29.4157  -18.6457  -15.2623 O   0  0  0  0  0  0  0  0  0  0  0  0
  2  3  1  0
  2  1  1  6
  4  2  1  0
  5  4  2  0
  6  4  1  0
  7  8  1  1
  7  6  1  0
  9  8  1  0
 10  9  2  0
 11 12  1  0
 11 10  1  0
 12 17  2  0
 13 14  2  0
 13 12  1  0
 14 15  1  0
 15 16  2  0
 17  9  1  0
 17 16  1  0
 18  7  1  0
 19 18  2  0
 21 20  1  0
 21 22  2  0
 23 21  1  0
 24 23  1  0
 25 24  1  0
 26 25  1  0
 27 26  1  6
 27 28  1  0
 28 18  1  0
 29 30  1  0
 29 27  1  0
 31 29  2  0
M  END
$$$$
