AWR.pdb
     RDKit          3D

 31 32  0  0  1  0  0  0  0  0999 V2000
   28.1488  -21.0909  -16.8862 C   0  0  0  0  0  0  0  0  0  0  0  0
   28.8307  -22.0356  -15.9494 C   0  0  2  0  0  0  0  0  0  0  0  0
   29.0709  -23.3402  -16.4793 N   0  0  0  0  0  0  0  0  0  0  0  0
   28.0338  -22.1507  -14.7148 C   0  0  0  0  0  0  0  0  0  0  0  0
   27.1878  -23.0951  -14.6347 O   0  0  0  0  0  0  0  0  0  0  0  0
   28.1945  -21.2485  -13.6486 N   0  0  0  0  0  0  0  0  0  0  0  0
   27.3551  -21.3941  -12.4308 C   0  0  1  0  0  0  0  0  0  0  0  0
   28.0861  -20.6571  -11.3617 C   0  0  0  0  0  0  0  0  0  0  0  0
   27.3027  -20.5640  -10.1209 C   0  0  0  0  0  0  0  0  0  0  0  0
   25.9045  -20.4607  -10.0435 C   0  0  0  0  0  0  0  0  0  0  0  0
   25.5647  -20.3560   -8.7622 N   0  0  0  0  0  0  0  0  0  0  0  0
   26.6417  -20.3831   -7.9728 C   0  0  0  0  0  0  0  0  0  0  0  0
   26.7522  -20.3235   -6.5832 C   0  0  0  0  0  0  0  0  0  0  0  0
   28.0086  -20.4000   -6.0311 C   0  0  0  0  0  0  0  0  0  0  0  0
   29.1099  -20.5324   -6.8603 C   0  0  0  0  0  0  0  0  0  0  0  0
   28.9942  -20.5889   -8.2124 C   0  0  0  0  0  0  0  0  0  0  0  0
   27.7310  -20.5126   -8.8024 C   0  0  0  0  0  0  0  0  0  0  0  0
   26.0573  -20.7955  -12.7708 C   0  0  0  0  0  0  0  0  0  0  0  0
   26.1072  -19.7015  -13.4341 O   0  0  0  0  0  0  0  0  0  0  0  0
   23.2998  -26.5141  -15.5255 N   0  0  0  0  0  0  0  0  0  0  0  0
   23.4867  -25.5425  -16.5254 C   0  0  0  0  0  0  0  0  0  0  0  0
   23.3672  -25.8226  -17.7707 N   0  0  0  0  0  0  0  0  0  0  0  0
   23.8200  -24.1926  -16.1893 N   0  0  0  0  0  0  0  0  0  0  0  0
   23.9699  -23.8295  -14.8038 C   0  0  0  0  0  0  0  0  0  0  0  0
   22.9935  -22.8561  -14.2983 C   0  0  0  0  0  0  0  0  0  0  0  0
   23.2574  -21.4431  -14.1655 C   0  0  0  0  0  0  0  0  0  0  0  0
   23.5411  -20.7032  -12.9111 C   0  0  2  0  0  0  0  0  0  0  0  0
   24.8325  -21.3561  -12.4099 N   0  0  0  0  0  0  0  0  0  0  0  0
   22.6373  -21.0469  -11.7691 C   0  0  0  0  0  0  0  0  0  0  0  0
   21.3450  -20.4816  -11.6726 O   0  0  0  0  0  0  0  0  0  0  0  0
   22.9359  -21.8103  -10.8704 O   0  0  0  0  0  0  0  0  0  0  0  0
  2  3  1  0
  2  1  1  6
  4  2  1  0
  5  4  2  0
  6  4  1  0
  7  8  1  1
  7  6  1  0
  9  8  1  0
 10  9  2  0
 11 12  1  0
 11 10  1  0
 12 17  2  0
 13 14  2  0
 13 12  1  0
 14 15  1  0
 15 16  2  0
 17  9  1  0
 17 16  1  0
 18  7  1  0
 19 18  2  0
 21 20  1  0
 21 22  2  0
 23 21  1  0
 24 23  1  0
 25 24  1  0
 26 25  1  0
 27 26  1  6
 27 28  1  0
 28 18  1  0
 29 30  1  0
 29 27  1  0
 31 29  2  0
M  END
$$$$
