AWR.pdb
     RDKit          3D

 31 32  0  0  1  0  0  0  0  0999 V2000
   27.6719  -20.0520  -15.1399 C   0  0  0  0  0  0  0  0  0  0  0  0
   28.2443  -21.2618  -14.4736 C   0  0  2  0  0  0  0  0  0  0  0  0
   28.1925  -22.4586  -15.2518 N   0  0  0  0  0  0  0  0  0  0  0  0
   27.5481  -21.4829  -13.1934 C   0  0  0  0  0  0  0  0  0  0  0  0
   26.5103  -22.2157  -13.1956 O   0  0  0  0  0  0  0  0  0  0  0  0
   28.0078  -20.9058  -11.9967 N   0  0  0  0  0  0  0  0  0  0  0  0
   27.2115  -21.0643  -10.7519 C   0  0  1  0  0  0  0  0  0  0  0  0
   28.1331  -20.6783   -9.6464 C   0  0  0  0  0  0  0  0  0  0  0  0
   27.4479  -20.6347   -8.3463 C   0  0  0  0  0  0  0  0  0  0  0  0
   26.1082  -20.9875   -8.1168 C   0  0  0  0  0  0  0  0  0  0  0  0
   25.8368  -20.7796   -6.8318 N   0  0  0  0  0  0  0  0  0  0  0  0
   26.9054  -20.3114   -6.1817 C   0  0  0  0  0  0  0  0  0  0  0  0
   27.0782  -19.9776   -4.8380 C   0  0  0  0  0  0  0  0  0  0  0  0
   28.3165  -19.5372   -4.4357 C   0  0  0  0  0  0  0  0  0  0  0  0
   29.3395  -19.4404   -5.3640 C   0  0  0  0  0  0  0  0  0  0  0  0
   29.1634  -19.7665   -6.6707 C   0  0  0  0  0  0  0  0  0  0  0  0
   27.9163  -20.2159   -7.1094 C   0  0  0  0  0  0  0  0  0  0  0  0
   26.0635  -20.1595  -10.8986 C   0  0  0  0  0  0  0  0  0  0  0  0
   26.3193  -19.0177  -11.4185 O   0  0  0  0  0  0  0  0  0  0  0  0
   23.5443  -25.1824  -14.4927 N   0  0  0  0  0  0  0  0  0  0  0  0
   23.0488  -24.3895  -15.5436 C   0  0  0  0  0  0  0  0  0  0  0  0
   22.9730  -24.8302  -16.7450 N   0  0  0  0  0  0  0  0  0  0  0  0
   22.6062  -23.0492  -15.3111 N   0  0  0  0  0  0  0  0  0  0  0  0
   22.4373  -22.5894  -13.9568 C   0  0  0  0  0  0  0  0  0  0  0  0
   22.9182  -21.2281  -13.6890 C   0  0  0  0  0  0  0  0  0  0  0  0
   23.8636  -20.8960  -12.6498 C   0  0  0  0  0  0  0  0  0  0  0  0
   23.5965  -20.1116  -11.4191 C   0  0  2  0  0  0  0  0  0  0  0  0
   24.7668  -20.4911  -10.5072 N   0  0  0  0  0  0  0  0  0  0  0  0
   22.4645  -20.6272  -10.5872 C   0  0  0  0  0  0  0  0  0  0  0  0
   22.5754  -21.8541   -9.8937 O   0  0  0  0  0  0  0  0  0  0  0  0
   21.4022  -20.0505  -10.4507 O   0  0  0  0  0  0  0  0  0  0  0  0
  2  3  1  0
  2  1  1  6
  4  2  1  0
  5  4  2  0
  6  4  1  0
  7  8  1  1
  7  6  1  0
  9  8  1  0
 10  9  2  0
 11 12  1  0
 11 10  1  0
 12 17  2  0
 13 14  2  0
 13 12  1  0
 14 15  1  0
 15 16  2  0
 17  9  1  0
 17 16  1  0
 18  7  1  0
 19 18  2  0
 21 20  1  0
 21 22  2  0
 23 21  1  0
 24 23  1  0
 25 24  1  0
 26 25  1  0
 27 26  1  6
 27 28  1  0
 28 18  1  0
 29 30  1  0
 29 27  1  0
 31 29  2  0
M  END
$$$$
