AWR.pdb
     RDKit          3D

 31 32  0  0  1  0  0  0  0  0999 V2000
   26.3845  -21.9566  -15.9033 C   0  0  0  0  0  0  0  0  0  0  0  0
   27.1485  -22.6903  -14.8482 C   0  0  2  0  0  0  0  0  0  0  0  0
   27.1530  -24.1120  -14.9874 N   0  0  0  0  0  0  0  0  0  0  0  0
   26.6088  -22.3324  -13.5242 C   0  0  0  0  0  0  0  0  0  0  0  0
   25.7792  -23.1270  -12.9816 O   0  0  0  0  0  0  0  0  0  0  0  0
   26.9918  -21.1489  -12.8690 N   0  0  0  0  0  0  0  0  0  0  0  0
   26.3851  -20.8074  -11.5559 C   0  0  1  0  0  0  0  0  0  0  0  0
   27.2625  -19.7477  -10.9836 C   0  0  0  0  0  0  0  0  0  0  0  0
   28.1577  -20.2746   -9.9431 C   0  0  0  0  0  0  0  0  0  0  0  0
   29.2506  -21.1288  -10.1617 C   0  0  0  0  0  0  0  0  0  0  0  0
   29.7919  -21.4229   -8.9833 N   0  0  0  0  0  0  0  0  0  0  0  0
   29.1361  -20.8223   -7.9869 C   0  0  0  0  0  0  0  0  0  0  0  0
   29.3653  -20.8337   -6.6106 C   0  0  0  0  0  0  0  0  0  0  0  0
   28.5312  -20.0897   -5.8105 C   0  0  0  0  0  0  0  0  0  0  0  0
   27.5040  -19.3622   -6.3880 C   0  0  0  0  0  0  0  0  0  0  0  0
   27.2868  -19.3569   -7.7287 C   0  0  0  0  0  0  0  0  0  0  0  0
   28.1169  -20.1038   -8.5669 C   0  0  0  0  0  0  0  0  0  0  0  0
   25.0253  -20.3404  -11.8578 C   0  0  0  0  0  0  0  0  0  0  0  0
   24.8818  -19.7346  -12.9766 O   0  0  0  0  0  0  0  0  0  0  0  0
   19.2938  -20.2234  -14.6047 N   0  0  0  0  0  0  0  0  0  0  0  0
   19.0785  -21.4721  -15.2154 C   0  0  0  0  0  0  0  0  0  0  0  0
   18.6087  -21.5711  -16.4041 N   0  0  0  0  0  0  0  0  0  0  0  0
   19.3779  -22.6907  -14.5286 N   0  0  0  0  0  0  0  0  0  0  0  0
   20.3008  -22.6664  -13.4233 C   0  0  0  0  0  0  0  0  0  0  0  0
   21.3510  -21.6430  -13.5019 C   0  0  0  0  0  0  0  0  0  0  0  0
   22.3843  -21.4693  -12.5090 C   0  0  0  0  0  0  0  0  0  0  0  0
   22.5220  -20.3429  -11.5531 C   0  0  2  0  0  0  0  0  0  0  0  0
   23.9393  -20.5280  -11.0034 N   0  0  0  0  0  0  0  0  0  0  0  0
   21.7468  -20.5069  -10.2837 C   0  0  0  0  0  0  0  0  0  0  0  0
   20.5171  -19.8357  -10.0941 O   0  0  0  0  0  0  0  0  0  0  0  0
   22.1037  -21.2044   -9.3533 O   0  0  0  0  0  0  0  0  0  0  0  0
  2  3  1  0
  2  1  1  6
  4  2  1  0
  5  4  2  0
  6  4  1  0
  7  8  1  6
  7  6  1  0
  9  8  1  0
 10  9  2  0
 11 12  1  0
 11 10  1  0
 12 17  2  0
 13 14  2  0
 13 12  1  0
 14 15  1  0
 15 16  2  0
 17  9  1  0
 17 16  1  0
 18  7  1  0
 19 18  2  0
 21 20  1  0
 21 22  2  0
 23 21  1  0
 24 23  1  0
 25 24  1  0
 26 25  1  0
 27 26  1  6
 27 28  1  0
 28 18  1  0
 29 30  1  0
 29 27  1  0
 31 29  2  0
M  END
$$$$
