AWR.pdb
     RDKit          3D

 31 32  0  0  1  0  0  0  0  0999 V2000
   27.4622  -20.5270  -15.9710 C   0  0  0  0  0  0  0  0  0  0  0  0
   28.2824  -21.2241  -14.9335 C   0  0  2  0  0  0  0  0  0  0  0  0
   28.9133  -22.4278  -15.3738 N   0  0  0  0  0  0  0  0  0  0  0  0
   27.4341  -21.5184  -13.7647 C   0  0  0  0  0  0  0  0  0  0  0  0
   26.8403  -22.6408  -13.7239 O   0  0  0  0  0  0  0  0  0  0  0  0
   27.2771  -20.5931  -12.7178 N   0  0  0  0  0  0  0  0  0  0  0  0
   26.3491  -20.9013  -11.5987 C   0  0  1  0  0  0  0  0  0  0  0  0
   26.7525  -19.9870  -10.4933 C   0  0  0  0  0  0  0  0  0  0  0  0
   27.8265  -20.5589   -9.6680 C   0  0  0  0  0  0  0  0  0  0  0  0
   28.8671  -21.3781  -10.1347 C   0  0  0  0  0  0  0  0  0  0  0  0
   29.6167  -21.7325   -9.0951 N   0  0  0  0  0  0  0  0  0  0  0  0
   29.1497  -21.2050   -7.9605 C   0  0  0  0  0  0  0  0  0  0  0  0
   29.6266  -21.2948   -6.6523 C   0  0  0  0  0  0  0  0  0  0  0  0
   28.9475  -20.6157   -5.6690 C   0  0  0  0  0  0  0  0  0  0  0  0
   27.8269  -19.8739   -6.0034 C   0  0  0  0  0  0  0  0  0  0  0  0
   27.3683  -19.7920   -7.2792 C   0  0  0  0  0  0  0  0  0  0  0  0
   28.0366  -20.4718   -8.2994 C   0  0  0  0  0  0  0  0  0  0  0  0
   25.0011  -20.6325  -12.1169 C   0  0  0  0  0  0  0  0  0  0  0  0
   24.9107  -19.6701  -12.9566 O   0  0  0  0  0  0  0  0  0  0  0  0
   19.7837  -25.4988  -15.0000 N   0  0  0  0  0  0  0  0  0  0  0  0
   18.6854  -24.6366  -14.8301 C   0  0  0  0  0  0  0  0  0  0  0  0
   17.4835  -25.0777  -14.7652 N   0  0  0  0  0  0  0  0  0  0  0  0
   18.8679  -23.2219  -14.7220 N   0  0  0  0  0  0  0  0  0  0  0  0
   20.2041  -22.6868  -14.6763 C   0  0  0  0  0  0  0  0  0  0  0  0
   20.9088  -22.8598  -13.3997 C   0  0  0  0  0  0  0  0  0  0  0  0
   22.2197  -22.3228  -13.1223 C   0  0  0  0  0  0  0  0  0  0  0  0
   22.5332  -21.0550  -12.4183 C   0  0  2  0  0  0  0  0  0  0  0  0
   23.8720  -21.3589  -11.7397 N   0  0  0  0  0  0  0  0  0  0  0  0
   21.6992  -20.7965  -11.2030 C   0  0  0  0  0  0  0  0  0  0  0  0
   21.9992  -21.4232   -9.9718 O   0  0  0  0  0  0  0  0  0  0  0  0
   20.7350  -20.0551  -11.1841 O   0  0  0  0  0  0  0  0  0  0  0  0
  2  3  1  0
  2  1  1  6
  4  2  1  0
  5  4  2  0
  6  4  1  0
  7  8  1  1
  7  6  1  0
  9  8  1  0
 10  9  2  0
 11 12  1  0
 11 10  1  0
 12 17  2  0
 13 14  2  0
 13 12  1  0
 14 15  1  0
 15 16  2  0
 17  9  1  0
 17 16  1  0
 18  7  1  0
 19 18  2  0
 21 20  1  0
 21 22  2  0
 23 21  1  0
 24 23  1  0
 25 24  1  0
 26 25  1  0
 27 26  1  1
 27 28  1  0
 28 18  1  0
 29 30  1  0
 29 27  1  0
 31 29  2  0
M  END
$$$$
