AWR.pdb
     RDKit          3D

 31 32  0  0  1  0  0  0  0  0999 V2000
   27.2348  -19.2939  -15.0008 C   0  0  0  0  0  0  0  0  0  0  0  0
   28.0895  -20.3795  -14.4300 C   0  0  2  0  0  0  0  0  0  0  0  0
   28.2634  -21.5167  -15.2770 N   0  0  0  0  0  0  0  0  0  0  0  0
   27.5213  -20.8145  -13.1415 C   0  0  0  0  0  0  0  0  0  0  0  0
   26.6781  -21.7648  -13.1498 O   0  0  0  0  0  0  0  0  0  0  0  0
   27.8922  -20.2043  -11.9304 N   0  0  0  0  0  0  0  0  0  0  0  0
   27.3041  -20.6883  -10.6542 C   0  0  1  0  0  0  0  0  0  0  0  0
   28.3073  -20.3462   -9.6068 C   0  0  0  0  0  0  0  0  0  0  0  0
   27.7792  -20.5480   -8.2496 C   0  0  0  0  0  0  0  0  0  0  0  0
   27.2428  -21.7464   -7.7516 C   0  0  0  0  0  0  0  0  0  0  0  0
   26.8326  -21.5331   -6.5049 N   0  0  0  0  0  0  0  0  0  0  0  0
   27.0585  -20.2709   -6.1312 C   0  0  0  0  0  0  0  0  0  0  0  0
   26.8103  -19.6228   -4.9207 C   0  0  0  0  0  0  0  0  0  0  0  0
   27.1758  -18.3026   -4.8078 C   0  0  0  0  0  0  0  0  0  0  0  0
   27.7710  -17.6664   -5.8843 C   0  0  0  0  0  0  0  0  0  0  0  0
   28.0086  -18.3039   -7.0599 C   0  0  0  0  0  0  0  0  0  0  0  0
   27.6473  -19.6448   -7.2049 C   0  0  0  0  0  0  0  0  0  0  0  0
   26.0337  -19.9659  -10.5047 C   0  0  0  0  0  0  0  0  0  0  0  0
   26.0068  -18.7828  -10.9935 O   0  0  0  0  0  0  0  0  0  0  0  0
   25.1489  -23.5356  -14.3397 N   0  0  0  0  0  0  0  0  0  0  0  0
   23.8469  -24.0507  -14.2044 C   0  0  0  0  0  0  0  0  0  0  0  0
   23.6049  -25.3067  -14.2891 N   0  0  0  0  0  0  0  0  0  0  0  0
   22.7327  -23.1862  -13.9651 N   0  0  0  0  0  0  0  0  0  0  0  0
   22.9730  -21.8116  -13.6090 C   0  0  0  0  0  0  0  0  0  0  0  0
   23.0853  -21.5440  -12.1696 C   0  0  0  0  0  0  0  0  0  0  0  0
   23.3296  -20.2367  -11.6084 C   0  0  0  0  0  0  0  0  0  0  0  0
   23.5340  -19.9050  -10.1768 C   0  0  2  0  0  0  0  0  0  0  0  0
   24.9110  -20.5043   -9.8768 N   0  0  0  0  0  0  0  0  0  0  0  0
   22.7064  -20.7131   -9.2275 C   0  0  0  0  0  0  0  0  0  0  0  0
   23.2374  -21.8651   -8.6034 O   0  0  0  0  0  0  0  0  0  0  0  0
   21.5561  -20.4494   -8.9327 O   0  0  0  0  0  0  0  0  0  0  0  0
  2  3  1  0
  2  1  1  6
  4  2  1  0
  5  4  2  0
  6  4  1  0
  7  8  1  1
  7  6  1  0
  9  8  1  0
 10  9  2  0
 11 12  1  0
 11 10  1  0
 12 17  2  0
 13 14  2  0
 13 12  1  0
 14 15  1  0
 15 16  2  0
 17  9  1  0
 17 16  1  0
 18  7  1  0
 19 18  2  0
 21 20  1  0
 21 22  2  0
 23 21  1  0
 24 23  1  0
 25 24  1  0
 26 25  1  0
 27 26  1  6
 27 28  1  0
 28 18  1  0
 29 30  1  0
 29 27  1  0
 31 29  2  0
M  END
$$$$
