AWR.pdb
     RDKit          3D

 31 32  0  0  1  0  0  0  0  0999 V2000
   28.5037  -22.1420  -15.6872 C   0  0  0  0  0  0  0  0  0  0  0  0
   27.9737  -20.9640  -14.9346 C   0  0  2  0  0  0  0  0  0  0  0  0
   28.9218  -19.9204  -14.7049 N   0  0  0  0  0  0  0  0  0  0  0  0
   27.4300  -21.4208  -13.6430 C   0  0  0  0  0  0  0  0  0  0  0  0
   26.5118  -22.2987  -13.6573 O   0  0  0  0  0  0  0  0  0  0  0  0
   27.9042  -20.9084  -12.4226 N   0  0  0  0  0  0  0  0  0  0  0  0
   27.2442  -21.3084  -11.1525 C   0  0  1  0  0  0  0  0  0  0  0  0
   28.2312  -20.9910  -10.0822 C   0  0  0  0  0  0  0  0  0  0  0  0
   27.5897  -20.8344   -8.7685 C   0  0  0  0  0  0  0  0  0  0  0  0
   26.2398  -21.0943   -8.4825 C   0  0  0  0  0  0  0  0  0  0  0  0
   26.0202  -20.7990   -7.2047 N   0  0  0  0  0  0  0  0  0  0  0  0
   27.1332  -20.3587   -6.6123 C   0  0  0  0  0  0  0  0  0  0  0  0
   27.3658  -19.9608   -5.2954 C   0  0  0  0  0  0  0  0  0  0  0  0
   28.6390  -19.5720   -4.9532 C   0  0  0  0  0  0  0  0  0  0  0  0
   29.6370  -19.5878   -5.9131 C   0  0  0  0  0  0  0  0  0  0  0  0
   29.4026  -19.9758   -7.1935 C   0  0  0  0  0  0  0  0  0  0  0  0
   28.1190  -20.3751   -7.5712 C   0  0  0  0  0  0  0  0  0  0  0  0
   26.0175  -20.5039  -11.0735 C   0  0  0  0  0  0  0  0  0  0  0  0
   26.1856  -19.2347  -11.0633 O   0  0  0  0  0  0  0  0  0  0  0  0
   19.8358  -20.0545  -15.9620 N   0  0  0  0  0  0  0  0  0  0  0  0
   20.6190  -18.9526  -16.3504 C   0  0  0  0  0  0  0  0  0  0  0  0
   20.1375  -17.9958  -17.0548 N   0  0  0  0  0  0  0  0  0  0  0  0
   21.9949  -18.8552  -15.9713 N   0  0  0  0  0  0  0  0  0  0  0  0
   22.5970  -19.9312  -15.2271 C   0  0  0  0  0  0  0  0  0  0  0  0
   22.5141  -19.8103  -13.7660 C   0  0  0  0  0  0  0  0  0  0  0  0
   23.5896  -20.1515  -12.8657 C   0  0  0  0  0  0  0  0  0  0  0  0
   23.5356  -20.1821  -11.3833 C   0  0  2  0  0  0  0  0  0  0  0  0
   24.7379  -21.0549  -11.0120 N   0  0  0  0  0  0  0  0  0  0  0  0
   22.4385  -21.0290  -10.8190 C   0  0  0  0  0  0  0  0  0  0  0  0
   21.2600  -20.4403  -10.3059 O   0  0  0  0  0  0  0  0  0  0  0  0
   22.4771  -22.2434  -10.7610 O   0  0  0  0  0  0  0  0  0  0  0  0
  2  3  1  0
  2  1  1  1
  4  2  1  0
  5  4  2  0
  6  4  1  0
  7  8  1  1
  7  6  1  0
  9  8  1  0
 10  9  2  0
 11 12  1  0
 11 10  1  0
 12 17  2  0
 13 14  2  0
 13 12  1  0
 14 15  1  0
 15 16  2  0
 17  9  1  0
 17 16  1  0
 18  7  1  0
 19 18  2  0
 21 20  1  0
 21 22  2  0
 23 21  1  0
 24 23  1  0
 25 24  1  0
 26 25  1  0
 27 26  1  6
 27 28  1  0
 28 18  1  0
 29 30  1  0
 29 27  1  0
 31 29  2  0
M  END
$$$$
