AWR.pdb
     RDKit          3D

 31 32  0  0  1  0  0  0  0  0999 V2000
   26.7071  -17.9892  -17.1202 C   0  0  0  0  0  0  0  0  0  0  0  0
   27.7988  -18.7313  -16.4184 C   0  0  2  0  0  0  0  0  0  0  0  0
   28.6030  -19.5580  -17.2613 N   0  0  0  0  0  0  0  0  0  0  0  0
   27.2113  -19.5546  -15.3463 C   0  0  0  0  0  0  0  0  0  0  0  0
   26.9368  -20.7676  -15.6057 O   0  0  0  0  0  0  0  0  0  0  0  0
   26.9563  -19.0261  -14.0687 N   0  0  0  0  0  0  0  0  0  0  0  0
   26.5318  -19.9329  -12.9704 C   0  0  1  0  0  0  0  0  0  0  0  0
   27.0097  -19.2812  -11.7184 C   0  0  0  0  0  0  0  0  0  0  0  0
   26.6567  -20.0591  -10.5217 C   0  0  0  0  0  0  0  0  0  0  0  0
   26.2078  -21.3896  -10.5154 C   0  0  0  0  0  0  0  0  0  0  0  0
   25.9506  -21.7366   -9.2578 N   0  0  0  0  0  0  0  0  0  0  0  0
   26.1978  -20.7280   -8.4179 C   0  0  0  0  0  0  0  0  0  0  0  0
   26.0891  -20.6540   -7.0289 C   0  0  0  0  0  0  0  0  0  0  0  0
   26.4416  -19.4758   -6.4150 C   0  0  0  0  0  0  0  0  0  0  0  0
   26.8878  -18.4142   -7.1841 C   0  0  0  0  0  0  0  0  0  0  0  0
   26.9901  -18.4936   -8.5362 C   0  0  0  0  0  0  0  0  0  0  0  0
   26.6382  -19.6771   -9.1882 C   0  0  0  0  0  0  0  0  0  0  0  0
   25.0680  -20.0121  -13.0660 C   0  0  0  0  0  0  0  0  0  0  0  0
   24.4684  -18.9118  -13.3295 O   0  0  0  0  0  0  0  0  0  0  0  0
   25.1920  -25.6479  -15.9336 N   0  0  0  0  0  0  0  0  0  0  0  0
   23.8739  -25.6760  -16.4240 C   0  0  0  0  0  0  0  0  0  0  0  0
   23.2992  -26.7730  -16.7550 N   0  0  0  0  0  0  0  0  0  0  0  0
   23.1167  -24.4716  -16.5737 N   0  0  0  0  0  0  0  0  0  0  0  0
   23.5024  -23.3013  -15.8284 C   0  0  0  0  0  0  0  0  0  0  0  0
   23.3931  -23.4196  -14.3688 C   0  0  0  0  0  0  0  0  0  0  0  0
   22.5542  -22.5760  -13.5513 C   0  0  0  0  0  0  0  0  0  0  0  0
   22.8349  -21.1821  -13.1273 C   0  0  2  0  0  0  0  0  0  0  0  0
   24.3473  -21.1924  -12.8869 N   0  0  0  0  0  0  0  0  0  0  0  0
   22.3723  -20.8485  -11.7438 C   0  0  0  0  0  0  0  0  0  0  0  0
   21.1082  -20.2539  -11.5264 O   0  0  0  0  0  0  0  0  0  0  0  0
   23.0257  -21.0558  -10.7390 O   0  0  0  0  0  0  0  0  0  0  0  0
  2  3  1  0
  2  1  1  6
  4  2  1  0
  5  4  2  0
  6  4  1  0
  7  8  1  1
  7  6  1  0
  9  8  1  0
 10  9  2  0
 11 12  1  0
 11 10  1  0
 12 17  2  0
 13 14  2  0
 13 12  1  0
 14 15  1  0
 15 16  2  0
 17  9  1  0
 17 16  1  0
 18  7  1  0
 19 18  2  0
 21 20  1  0
 21 22  2  0
 23 21  1  0
 24 23  1  0
 25 24  1  0
 26 25  1  0
 27 26  1  1
 27 28  1  0
 28 18  1  0
 29 30  1  0
 29 27  1  0
 31 29  2  0
M  END
$$$$
