AWR.pdb
     RDKit          3D

 31 32  0  0  1  0  0  0  0  0999 V2000
   28.3825  -25.4985  -18.6031 C   0  0  0  0  0  0  0  0  0  0  0  0
   28.9605  -25.3245  -17.2353 C   0  0  2  0  0  0  0  0  0  0  0  0
   28.9113  -26.4885  -16.4087 N   0  0  0  0  0  0  0  0  0  0  0  0
   28.2678  -24.2151  -16.5557 C   0  0  0  0  0  0  0  0  0  0  0  0
   27.3788  -24.5027  -15.6949 O   0  0  0  0  0  0  0  0  0  0  0  0
   28.5715  -22.8726  -16.8421 N   0  0  0  0  0  0  0  0  0  0  0  0
   27.9783  -21.7924  -16.0114 C   0  0  1  0  0  0  0  0  0  0  0  0
   28.8608  -20.6098  -16.2195 C   0  0  0  0  0  0  0  0  0  0  0  0
   28.3139  -19.3963  -15.5950 C   0  0  0  0  0  0  0  0  0  0  0  0
   27.7249  -19.3270  -14.3222 C   0  0  0  0  0  0  0  0  0  0  0  0
   27.3138  -18.0787  -14.1206 N   0  0  0  0  0  0  0  0  0  0  0  0
   27.5882  -17.3036  -15.1730 C   0  0  0  0  0  0  0  0  0  0  0  0
   27.3572  -15.9442  -15.3859 C   0  0  0  0  0  0  0  0  0  0  0  0
   27.7756  -15.3961  -16.5750 C   0  0  0  0  0  0  0  0  0  0  0  0
   28.4049  -16.1995  -17.5110 C   0  0  0  0  0  0  0  0  0  0  0  0
   28.6256  -17.5225  -17.2968 C   0  0  0  0  0  0  0  0  0  0  0  0
   28.2108  -18.1079  -16.0989 C   0  0  0  0  0  0  0  0  0  0  0  0
   26.6151  -21.6018  -16.5247 C   0  0  0  0  0  0  0  0  0  0  0  0
   26.4777  -21.7188  -17.7923 O   0  0  0  0  0  0  0  0  0  0  0  0
   18.5931  -21.3670  -12.9172 N   0  0  0  0  0  0  0  0  0  0  0  0
   19.1482  -22.6453  -13.1085 C   0  0  0  0  0  0  0  0  0  0  0  0
   18.6823  -23.6805  -12.5129 N   0  0  0  0  0  0  0  0  0  0  0  0
   20.2635  -22.8420  -13.9824 N   0  0  0  0  0  0  0  0  0  0  0  0
   20.7506  -21.7329  -14.7613 C   0  0  0  0  0  0  0  0  0  0  0  0
   21.8223  -22.0536  -15.7126 C   0  0  0  0  0  0  0  0  0  0  0  0
   23.2209  -21.7888  -15.4719 C   0  0  0  0  0  0  0  0  0  0  0  0
   24.1570  -21.0618  -16.3643 C   0  0  2  0  0  0  0  0  0  0  0  0
   25.5198  -21.3114  -15.7119 N   0  0  0  0  0  0  0  0  0  0  0  0
   24.1000  -19.5714  -16.2429 C   0  0  0  0  0  0  0  0  0  0  0  0
   23.3212  -18.8011  -17.1367 O   0  0  0  0  0  0  0  0  0  0  0  0
   24.6981  -18.9339  -15.3971 O   0  0  0  0  0  0  0  0  0  0  0  0
  2  3  1  0
  2  1  1  6
  4  2  1  0
  5  4  2  0
  6  4  1  0
  7  8  1  6
  7  6  1  0
  9  8  1  0
 10  9  2  0
 11 12  1  0
 11 10  1  0
 12 17  2  0
 13 14  2  0
 13 12  1  0
 14 15  1  0
 15 16  2  0
 17  9  1  0
 17 16  1  0
 18  7  1  0
 19 18  2  0
 21 20  1  0
 21 22  2  0
 23 21  1  0
 24 23  1  0
 25 24  1  0
 26 25  1  0
 27 26  1  1
 27 28  1  0
 28 18  1  0
 29 30  1  0
 29 27  1  0
 31 29  2  0
M  END
$$$$
