AWR.pdb
     RDKit          3D

 31 32  0  0  1  0  0  0  0  0999 V2000
   26.2486  -21.2961  -16.0680 C   0  0  0  0  0  0  0  0  0  0  0  0
   27.3230  -21.4745  -15.0437 C   0  0  2  0  0  0  0  0  0  0  0  0
   28.2571  -22.5176  -15.3269 N   0  0  0  0  0  0  0  0  0  0  0  0
   26.7017  -21.7208  -13.7300 C   0  0  0  0  0  0  0  0  0  0  0  0
   26.5077  -22.9256  -13.3764 O   0  0  0  0  0  0  0  0  0  0  0  0
   26.3290  -20.6628  -12.8825 N   0  0  0  0  0  0  0  0  0  0  0  0
   25.7712  -20.9611  -11.5376 C   0  0  1  0  0  0  0  0  0  0  0  0
   26.2499  -19.8548  -10.6616 C   0  0  0  0  0  0  0  0  0  0  0  0
   27.4316  -20.2434   -9.8777 C   0  0  0  0  0  0  0  0  0  0  0  0
   28.5772  -20.8763  -10.3862 C   0  0  0  0  0  0  0  0  0  0  0  0
   29.4103  -21.1051   -9.3754 N   0  0  0  0  0  0  0  0  0  0  0  0
   28.9012  -20.6670   -8.2210 C   0  0  0  0  0  0  0  0  0  0  0  0
   29.4308  -20.6812   -6.9302 C   0  0  0  0  0  0  0  0  0  0  0  0
   28.6823  -20.1283   -5.9186 C   0  0  0  0  0  0  0  0  0  0  0  0
   27.4434  -19.5818   -6.2088 C   0  0  0  0  0  0  0  0  0  0  0  0
   26.9342  -19.5725   -7.4679 C   0  0  0  0  0  0  0  0  0  0  0  0
   27.6709  -20.1278   -8.5161 C   0  0  0  0  0  0  0  0  0  0  0  0
   24.3124  -20.9807  -11.7097 C   0  0  0  0  0  0  0  0  0  0  0  0
   23.8718  -20.4297  -12.7782 O   0  0  0  0  0  0  0  0  0  0  0  0
   18.3704  -25.4226   -6.8167 N   0  0  0  0  0  0  0  0  0  0  0  0
   17.5697  -24.8922   -7.8444 C   0  0  0  0  0  0  0  0  0  0  0  0
   16.3313  -25.2010   -7.9641 N   0  0  0  0  0  0  0  0  0  0  0  0
   18.1103  -23.9797   -8.8044 N   0  0  0  0  0  0  0  0  0  0  0  0
   19.5229  -23.6996   -8.7904 C   0  0  0  0  0  0  0  0  0  0  0  0
   20.0047  -22.8364   -9.8762 C   0  0  0  0  0  0  0  0  0  0  0  0
   21.3734  -22.3977  -10.0114 C   0  0  0  0  0  0  0  0  0  0  0  0
   21.9344  -21.5468  -11.0897 C   0  0  2  0  0  0  0  0  0  0  0  0
   23.4360  -21.5537  -10.7887 N   0  0  0  0  0  0  0  0  0  0  0  0
   21.6627  -20.0838  -10.9315 C   0  0  0  0  0  0  0  0  0  0  0  0
   20.7851  -19.4107  -11.8121 O   0  0  0  0  0  0  0  0  0  0  0  0
   22.1588  -19.3890  -10.0651 O   0  0  0  0  0  0  0  0  0  0  0  0
  2  3  1  0
  2  1  1  6
  4  2  1  0
  5  4  2  0
  6  4  1  0
  7  8  1  1
  7  6  1  0
  9  8  1  0
 10  9  2  0
 11 12  1  0
 11 10  1  0
 12 17  2  0
 13 14  2  0
 13 12  1  0
 14 15  1  0
 15 16  2  0
 17  9  1  0
 17 16  1  0
 18  7  1  0
 19 18  2  0
 21 20  1  0
 21 22  2  0
 23 21  1  0
 24 23  1  0
 25 24  1  0
 26 25  1  0
 27 26  1  1
 27 28  1  0
 28 18  1  0
 29 30  1  0
 29 27  1  0
 31 29  2  0
M  END
$$$$
