AWR.pdb
     RDKit          3D

 31 32  0  0  1  0  0  0  0  0999 V2000
   26.7863  -19.5549  -14.0883 C   0  0  0  0  0  0  0  0  0  0  0  0
   27.4599  -20.5474  -13.1959 C   0  0  2  0  0  0  0  0  0  0  0  0
   27.8071  -21.7827  -13.8237 N   0  0  0  0  0  0  0  0  0  0  0  0
   26.5940  -20.8180  -12.0343 C   0  0  0  0  0  0  0  0  0  0  0  0
   25.8690  -21.8610  -12.0586 O   0  0  0  0  0  0  0  0  0  0  0  0
   26.5609  -19.9555  -10.9245 N   0  0  0  0  0  0  0  0  0  0  0  0
   25.6549  -20.2585   -9.7860 C   0  0  1  0  0  0  0  0  0  0  0  0
   26.1810  -19.4586   -8.6441 C   0  0  0  0  0  0  0  0  0  0  0  0
   27.3522  -20.0914   -8.0201 C   0  0  0  0  0  0  0  0  0  0  0  0
   28.2544  -20.9540   -8.6634 C   0  0  0  0  0  0  0  0  0  0  0  0
   29.1544  -21.3565   -7.7713 N   0  0  0  0  0  0  0  0  0  0  0  0
   28.9180  -20.8210   -6.5708 C   0  0  0  0  0  0  0  0  0  0  0  0
   29.6094  -20.9493   -5.3658 C   0  0  0  0  0  0  0  0  0  0  0  0
   29.1455  -20.2503   -4.2770 C   0  0  0  0  0  0  0  0  0  0  0  0
   28.0221  -19.4515   -4.4089 C   0  0  0  0  0  0  0  0  0  0  0  0
   27.3537  -19.3323   -5.5854 C   0  0  0  0  0  0  0  0  0  0  0  0
   27.8005  -20.0310   -6.7086 C   0  0  0  0  0  0  0  0  0  0  0  0
   24.3160  -19.8416  -10.2239 C   0  0  0  0  0  0  0  0  0  0  0  0
   24.2260  -18.6461  -10.6735 O   0  0  0  0  0  0  0  0  0  0  0  0
   24.2699  -21.8961  -16.7180 N   0  0  0  0  0  0  0  0  0  0  0  0
   23.5934  -22.9878  -16.1441 C   0  0  0  0  0  0  0  0  0  0  0  0
   23.7850  -24.1894  -16.5474 N   0  0  0  0  0  0  0  0  0  0  0  0
   22.6574  -22.7984  -15.0790 N   0  0  0  0  0  0  0  0  0  0  0  0
   22.5207  -21.4927  -14.4869 C   0  0  0  0  0  0  0  0  0  0  0  0
   22.3322  -21.4779  -13.0307 C   0  0  0  0  0  0  0  0  0  0  0  0
   22.1603  -20.2750  -12.2514 C   0  0  0  0  0  0  0  0  0  0  0  0
   21.8845  -20.1872  -10.7963 C   0  0  2  0  0  0  0  0  0  0  0  0
   23.1949  -20.6689  -10.1669 N   0  0  0  0  0  0  0  0  0  0  0  0
   20.9625  -21.2438  -10.2739 C   0  0  0  0  0  0  0  0  0  0  0  0
   19.5635  -21.0406  -10.2571 O   0  0  0  0  0  0  0  0  0  0  0  0
   21.3340  -22.3175   -9.8396 O   0  0  0  0  0  0  0  0  0  0  0  0
  2  3  1  0
  2  1  1  6
  4  2  1  0
  5  4  2  0
  6  4  1  0
  7  8  1  1
  7  6  1  0
  9  8  1  0
 10  9  2  0
 11 12  1  0
 11 10  1  0
 12 17  2  0
 13 14  2  0
 13 12  1  0
 14 15  1  0
 15 16  2  0
 17  9  1  0
 17 16  1  0
 18  7  1  0
 19 18  2  0
 21 20  1  0
 21 22  2  0
 23 21  1  0
 24 23  1  0
 25 24  1  0
 26 25  1  0
 27 26  1  6
 27 28  1  0
 28 18  1  0
 29 30  1  0
 29 27  1  0
 31 29  2  0
M  END
$$$$
