AWR.pdb
     RDKit          3D

 31 32  0  0  1  0  0  0  0  0999 V2000
   29.5755  -22.9724  -18.0707 C   0  0  0  0  0  0  0  0  0  0  0  0
   28.8256  -21.8493  -18.7120 C   0  0  2  0  0  0  0  0  0  0  0  0
   29.5593  -21.1217  -19.6984 N   0  0  0  0  0  0  0  0  0  0  0  0
   28.3610  -20.9197  -17.6668 C   0  0  0  0  0  0  0  0  0  0  0  0
   29.2351  -20.2715  -17.0111 O   0  0  0  0  0  0  0  0  0  0  0  0
   26.9932  -20.7455  -17.3923 N   0  0  0  0  0  0  0  0  0  0  0  0
   26.5663  -19.7066  -16.4190 C   0  0  1  0  0  0  0  0  0  0  0  0
   25.4300  -18.9999  -17.0747 C   0  0  0  0  0  0  0  0  0  0  0  0
   24.8264  -17.9892  -16.1938 C   0  0  0  0  0  0  0  0  0  0  0  0
   25.5308  -17.0321  -15.4459 C   0  0  0  0  0  0  0  0  0  0  0  0
   24.6523  -16.3237  -14.7427 N   0  0  0  0  0  0  0  0  0  0  0  0
   23.4038  -16.7403  -14.9689 C   0  0  0  0  0  0  0  0  0  0  0  0
   22.1863  -16.2784  -14.4679 C   0  0  0  0  0  0  0  0  0  0  0  0
   21.0348  -16.8910  -14.9017 C   0  0  0  0  0  0  0  0  0  0  0  0
   21.1185  -17.9328  -15.8101 C   0  0  0  0  0  0  0  0  0  0  0  0
   22.3077  -18.3775  -16.2928 C   0  0  0  0  0  0  0  0  0  0  0  0
   23.4945  -17.7757  -15.8697 C   0  0  0  0  0  0  0  0  0  0  0  0
   26.1779  -20.4373  -15.2052 C   0  0  0  0  0  0  0  0  0  0  0  0
   25.6049  -21.5663  -15.3961 O   0  0  0  0  0  0  0  0  0  0  0  0
   29.8519  -21.4543   -8.4505 N   0  0  0  0  0  0  0  0  0  0  0  0
   30.6242  -22.1469   -9.4005 C   0  0  0  0  0  0  0  0  0  0  0  0
   31.4731  -23.0440   -9.0571 N   0  0  0  0  0  0  0  0  0  0  0  0
   30.4916  -21.8752  -10.7986 N   0  0  0  0  0  0  0  0  0  0  0  0
   29.5540  -20.8727  -11.2343 C   0  0  0  0  0  0  0  0  0  0  0  0
   28.1413  -21.2716  -11.1943 C   0  0  0  0  0  0  0  0  0  0  0  0
   27.0596  -20.4624  -11.7031 C   0  0  0  0  0  0  0  0  0  0  0  0
   26.0546  -20.8555  -12.7214 C   0  0  2  0  0  0  0  0  0  0  0  0
   26.4036  -19.9608  -13.9142 N   0  0  0  0  0  0  0  0  0  0  0  0
   24.6679  -20.3641  -12.4478 C   0  0  0  0  0  0  0  0  0  0  0  0
   23.7194  -21.1925  -11.8053 O   0  0  0  0  0  0  0  0  0  0  0  0
   24.2671  -19.2554  -12.7474 O   0  0  0  0  0  0  0  0  0  0  0  0
  2  3  1  0
  2  1  1  1
  4  2  1  0
  5  4  2  0
  6  4  1  0
  7  8  1  6
  7  6  1  0
  9  8  1  0
 10  9  2  0
 11 12  1  0
 11 10  1  0
 12 17  2  0
 13 14  2  0
 13 12  1  0
 14 15  1  0
 15 16  2  0
 17  9  1  0
 17 16  1  0
 18  7  1  0
 19 18  2  0
 21 20  1  0
 21 22  2  0
 23 21  1  0
 24 23  1  0
 25 24  1  0
 26 25  1  0
 27 26  1  1
 27 28  1  0
 28 18  1  0
 29 30  1  0
 29 27  1  0
 31 29  2  0
M  END
$$$$
