PSK.pdb
     RDKit          3D

 23 23  0  0  1  0  0  0  0  0999 V2000
    8.9344  -14.5186   18.0563 N   0  0  0  0  0  0  0  0  0  0  0  0
    7.5440  -14.4589   17.6831 C   0  0  0  0  0  0  0  0  0  0  0  0
    6.9506  -13.2338   18.3102 C   0  0  0  0  0  0  0  0  0  0  0  0
    8.1987  -12.4435   18.7093 C   0  0  0  0  0  0  0  0  0  0  0  0
    9.1200  -13.5724   19.1307 C   0  0  1  0  0  0  0  0  0  0  0  0
    8.6011  -14.1519   20.3843 C   0  0  0  0  0  0  0  0  0  0  0  0
    8.4529  -13.3896   21.3778 O   0  0  0  0  0  0  0  0  0  0  0  0
    8.4537  -18.4124   21.4477 O   0  0  0  0  0  0  0  0  0  0  0  0
    7.3858  -17.5210   21.4667 C   0  0  0  0  0  0  0  0  0  0  0  0
    7.8417  -16.1022   21.7202 C   0  0  2  0  0  0  0  0  0  0  0  0
    8.2716  -15.5510   20.4745 N   0  0  0  0  0  0  0  0  0  0  0  0
    8.8783  -16.0279   22.7729 C   0  0  0  0  0  0  0  0  0  0  0  0
   10.1066  -16.0554   22.4282 O   0  0  0  0  0  0  0  0  0  0  0  0
    8.6294  -15.9281   24.1398 N   0  0  0  0  0  0  0  0  0  0  0  0
    9.6904  -15.8213   25.1349 C   0  0  1  0  0  0  0  0  0  0  0  0
    9.2203  -15.2755   26.4148 C   0  0  0  0  0  0  0  0  0  0  0  0
   10.2892  -15.2427   27.4591 C   0  0  0  0  0  0  0  0  0  0  0  0
    9.8344  -14.6543   28.7689 C   0  0  0  0  0  0  0  0  0  0  0  0
   11.0325  -14.7374   29.7167 C   0  0  0  0  0  0  0  0  0  0  0  0
   10.7518  -14.0677   30.9683 N   0  0  0  0  0  0  0  0  0  0  0  0
   10.2571  -17.1692   25.2656 C   0  0  0  0  0  0  0  0  0  0  0  0
    9.4578  -18.3037   25.2515 O   0  0  0  0  0  0  0  0  0  0  0  0
   11.4814  -17.3475   25.3946 O   0  0  0  0  0  0  0  0  0  0  0  0
  1  5  1  0
  1  2  1  0
  2  3  1  0
  3  4  1  0
  5  6  1  1
  5  4  1  0
  6 11  1  0
  7  6  2  0
  8  9  1  0
 10  9  1  6
 10 12  1  0
 11 10  1  0
 12 13  2  0
 12 14  1  0
 14 15  1  0
 15 16  1  1
 15 21  1  0
 17 16  1  0
 17 18  1  0
 18 19  1  0
 19 20  1  0
 21 22  1  0
 23 21  2  0
M  END
$$$$
