PSK.pdb
     RDKit          3D

 23 23  0  0  1  0  0  0  0  0999 V2000
    9.0610  -15.0943   14.1812 N   0  0  0  0  0  0  0  0  0  0  0  0
    9.5157  -16.4576   14.2847 C   0  0  0  0  0  0  0  0  0  0  0  0
    8.5355  -17.2073   15.1351 C   0  0  0  0  0  0  0  0  0  0  0  0
    7.3341  -16.2595   15.1477 C   0  0  0  0  0  0  0  0  0  0  0  0
    8.0392  -14.9170   15.1855 C   0  0  1  0  0  0  0  0  0  0  0  0
    8.6772  -14.7645   16.5069 C   0  0  0  0  0  0  0  0  0  0  0  0
    9.8610  -15.1750   16.6492 O   0  0  0  0  0  0  0  0  0  0  0  0
    6.5909  -13.2002   19.8423 O   0  0  0  0  0  0  0  0  0  0  0  0
    7.8775  -12.7712   19.5323 C   0  0  0  0  0  0  0  0  0  0  0  0
    8.6679  -13.8389   18.8109 C   0  0  2  0  0  0  0  0  0  0  0  0
    7.9696  -14.1631   17.6077 N   0  0  0  0  0  0  0  0  0  0  0  0
    8.9238  -15.0185   19.6659 C   0  0  0  0  0  0  0  0  0  0  0  0
    8.2114  -16.0640   19.4989 O   0  0  0  0  0  0  0  0  0  0  0  0
    9.8956  -15.0939   20.6609 N   0  0  0  0  0  0  0  0  0  0  0  0
   10.1198  -16.2909   21.4635 C   0  0  1  0  0  0  0  0  0  0  0  0
   11.5331  -16.4896   21.8104 C   0  0  0  0  0  0  0  0  0  0  0  0
   11.7689  -17.7450   22.5866 C   0  0  0  0  0  0  0  0  0  0  0  0
   13.2217  -18.0026   22.8893 C   0  0  0  0  0  0  0  0  0  0  0  0
   13.2671  -19.2889   23.7164 C   0  0  0  0  0  0  0  0  0  0  0  0
   14.6281  -19.6323   24.0679 N   0  0  0  0  0  0  0  0  0  0  0  0
    9.2588  -16.1512   22.6443 C   0  0  0  0  0  0  0  0  0  0  0  0
    8.8344  -17.2522   23.3750 O   0  0  0  0  0  0  0  0  0  0  0  0
    8.8745  -15.0353   23.0374 O   0  0  0  0  0  0  0  0  0  0  0  0
  1  5  1  0
  1  2  1  0
  2  3  1  0
  3  4  1  0
  5  6  1  1
  5  4  1  0
  6 11  1  0
  7  6  2  0
  8  9  1  0
 10  9  1  1
 10 12  1  0
 11 10  1  0
 12 13  2  0
 12 14  1  0
 14 15  1  0
 15 16  1  1
 15 21  1  0
 17 16  1  0
 17 18  1  0
 18 19  1  0
 19 20  1  0
 21 22  1  0
 23 21  2  0
M  END
$$$$
