PSK.pdb
     RDKit          3D

 23 23  0  0  1  0  0  0  0  0999 V2000
    8.9612  -14.7282   18.3018 N   0  0  0  0  0  0  0  0  0  0  0  0
    7.5933  -14.5604   17.8812 C   0  0  0  0  0  0  0  0  0  0  0  0
    7.0822  -13.2823   18.4741 C   0  0  0  0  0  0  0  0  0  0  0  0
    8.3772  -12.5910   18.9062 C   0  0  0  0  0  0  0  0  0  0  0  0
    9.1885  -13.7854   19.3711 C   0  0  1  0  0  0  0  0  0  0  0  0
    8.5831  -14.3031   20.6129 C   0  0  0  0  0  0  0  0  0  0  0  0
    8.4019  -13.5004   21.5684 O   0  0  0  0  0  0  0  0  0  0  0  0
    6.0076  -17.6644   21.1566 O   0  0  0  0  0  0  0  0  0  0  0  0
    7.2592  -17.6104   21.7616 C   0  0  0  0  0  0  0  0  0  0  0  0
    7.7175  -16.1865   21.9799 C   0  0  2  0  0  0  0  0  0  0  0  0
    8.2076  -15.6882   20.7341 N   0  0  0  0  0  0  0  0  0  0  0  0
    8.7069  -16.0793   23.0742 C   0  0  0  0  0  0  0  0  0  0  0  0
    9.9483  -16.0545   22.7794 O   0  0  0  0  0  0  0  0  0  0  0  0
    8.3994  -16.0009   24.4305 N   0  0  0  0  0  0  0  0  0  0  0  0
    9.4159  -15.8892   25.4705 C   0  0  1  0  0  0  0  0  0  0  0  0
    8.9290  -15.2015   26.6735 C   0  0  0  0  0  0  0  0  0  0  0  0
    9.9417  -15.1680   27.7723 C   0  0  0  0  0  0  0  0  0  0  0  0
    9.4680  -14.4466   29.0068 C   0  0  0  0  0  0  0  0  0  0  0  0
   10.6332  -14.4793   29.9977 C   0  0  0  0  0  0  0  0  0  0  0  0
   10.3183  -13.7293   31.1944 N   0  0  0  0  0  0  0  0  0  0  0  0
    9.8662  -17.2598   25.7423 C   0  0  0  0  0  0  0  0  0  0  0  0
   11.1795  -17.5430   26.0906 O   0  0  0  0  0  0  0  0  0  0  0  0
    9.0846  -18.2247   25.6704 O   0  0  0  0  0  0  0  0  0  0  0  0
  1  5  1  0
  1  2  1  0
  2  3  1  0
  3  4  1  0
  5  6  1  1
  5  4  1  0
  6 11  1  0
  7  6  2  0
  8  9  1  0
 10  9  1  6
 10 12  1  0
 11 10  1  0
 12 13  2  0
 12 14  1  0
 14 15  1  0
 15 16  1  1
 15 21  1  0
 17 16  1  0
 17 18  1  0
 18 19  1  0
 19 20  1  0
 21 22  1  0
 23 21  2  0
M  END
$$$$
