PSK.pdb
     RDKit          3D

 23 23  0  0  1  0  0  0  0  0999 V2000
    8.5868  -14.8024   18.4369 N   0  0  0  0  0  0  0  0  0  0  0  0
    7.2288  -14.3781   18.2088 C   0  0  0  0  0  0  0  0  0  0  0  0
    7.0665  -13.0122   18.8038 C   0  0  0  0  0  0  0  0  0  0  0  0
    8.5198  -12.5797   19.0105 C   0  0  0  0  0  0  0  0  0  0  0  0
    9.1484  -13.9001   19.4138 C   0  0  1  0  0  0  0  0  0  0  0  0
    8.6489  -14.2620   20.7540 C   0  0  0  0  0  0  0  0  0  0  0  0
    8.8688  -13.4669   21.7078 O   0  0  0  0  0  0  0  0  0  0  0  0
    7.2929  -18.1649   22.0220 O   0  0  0  0  0  0  0  0  0  0  0  0
    6.5198  -17.0134   22.1304 C   0  0  0  0  0  0  0  0  0  0  0  0
    7.3735  -15.7724   22.2564 C   0  0  2  0  0  0  0  0  0  0  0  0
    7.9288  -15.4901   20.9709 N   0  0  0  0  0  0  0  0  0  0  0  0
    8.4007  -15.9054   23.3125 C   0  0  0  0  0  0  0  0  0  0  0  0
    9.5947  -16.2024   22.9739 O   0  0  0  0  0  0  0  0  0  0  0  0
    8.1778  -15.7315   24.6764 N   0  0  0  0  0  0  0  0  0  0  0  0
    9.2439  -15.7927   25.6699 C   0  0  1  0  0  0  0  0  0  0  0  0
    8.9415  -15.0185   26.8808 C   0  0  0  0  0  0  0  0  0  0  0  0
   10.0190  -15.1107   27.9125 C   0  0  0  0  0  0  0  0  0  0  0  0
    9.7330  -14.3105   29.1561 C   0  0  0  0  0  0  0  0  0  0  0  0
   10.9432  -14.4947   30.0738 C   0  0  0  0  0  0  0  0  0  0  0  0
   10.7636  -13.7807   31.3195 N   0  0  0  0  0  0  0  0  0  0  0  0
    9.4562  -17.2190   25.9454 C   0  0  0  0  0  0  0  0  0  0  0  0
   10.7189  -17.7347   26.2019 O   0  0  0  0  0  0  0  0  0  0  0  0
    8.5082  -18.0241   25.9596 O   0  0  0  0  0  0  0  0  0  0  0  0
  1  5  1  0
  1  2  1  0
  2  3  1  0
  3  4  1  0
  5  6  1  1
  5  4  1  0
  6 11  1  0
  7  6  2  0
  8  9  1  0
 10  9  1  6
 10 12  1  0
 11 10  1  0
 12 13  2  0
 12 14  1  0
 14 15  1  0
 15 16  1  1
 15 21  1  0
 17 16  1  0
 17 18  1  0
 18 19  1  0
 19 20  1  0
 21 22  1  0
 23 21  2  0
M  END
$$$$
