PSK.pdb
     RDKit          3D

 23 23  0  0  1  0  0  0  0  0999 V2000
    8.3310  -14.8631   17.1850 N   0  0  0  0  0  0  0  0  0  0  0  0
    7.0711  -14.2168   17.4517 C   0  0  0  0  0  0  0  0  0  0  0  0
    7.2943  -13.1986   18.5285 C   0  0  0  0  0  0  0  0  0  0  0  0
    8.8193  -13.0716   18.5362 C   0  0  0  0  0  0  0  0  0  0  0  0
    9.2196  -14.5096   18.2664 C   0  0  1  0  0  0  0  0  0  0  0  0
    8.8837  -15.3161   19.4553 C   0  0  0  0  0  0  0  0  0  0  0  0
    7.6885  -15.6889   19.6055 O   0  0  0  0  0  0  0  0  0  0  0  0
   10.2663  -18.4607   22.6980 O   0  0  0  0  0  0  0  0  0  0  0  0
   10.5018  -17.6435   21.5970 C   0  0  0  0  0  0  0  0  0  0  0  0
    9.5454  -16.4738   21.5497 C   0  0  2  0  0  0  0  0  0  0  0  0
    9.8919  -15.6700   20.4208 N   0  0  0  0  0  0  0  0  0  0  0  0
    9.5303  -15.7125   22.8179 C   0  0  0  0  0  0  0  0  0  0  0  0
   10.4772  -14.8896   23.0514 O   0  0  0  0  0  0  0  0  0  0  0  0
    8.5523  -15.8145   23.8045 N   0  0  0  0  0  0  0  0  0  0  0  0
    8.5115  -14.9461   24.9756 C   0  0  1  0  0  0  0  0  0  0  0  0
    7.1967  -14.3244   25.1802 C   0  0  0  0  0  0  0  0  0  0  0  0
    7.2077  -13.2839   26.2532 C   0  0  0  0  0  0  0  0  0  0  0  0
    5.8624  -12.6497   26.4916 C   0  0  0  0  0  0  0  0  0  0  0  0
    6.0847  -11.5468   27.5285 C   0  0  0  0  0  0  0  0  0  0  0  0
    5.7652  -10.2465   26.9799 N   0  0  0  0  0  0  0  0  0  0  0  0
    8.9289  -15.7795   26.1097 C   0  0  0  0  0  0  0  0  0  0  0  0
    9.3999  -15.2246   27.2915 O   0  0  0  0  0  0  0  0  0  0  0  0
    8.8764  -17.0211   26.0551 O   0  0  0  0  0  0  0  0  0  0  0  0
  1  5  1  0
  1  2  1  0
  2  3  1  0
  3  4  1  0
  5  6  1  1
  5  4  1  0
  6 11  1  0
  7  6  2  0
  8  9  1  0
 10  9  1  1
 10 12  1  0
 11 10  1  0
 12 13  2  0
 12 14  1  0
 14 15  1  0
 15 16  1  1
 15 21  1  0
 17 16  1  0
 17 18  1  0
 18 19  1  0
 19 20  1  0
 21 22  1  0
 23 21  2  0
M  END
$$$$
