PSK.pdb
     RDKit          3D

 23 23  0  0  1  0  0  0  0  0999 V2000
    9.3632  -14.5532   17.6920 N   0  0  0  0  0  0  0  0  0  0  0  0
    7.9785  -14.6567   17.3073 C   0  0  0  0  0  0  0  0  0  0  0  0
    7.1963  -13.6812   18.1336 C   0  0  0  0  0  0  0  0  0  0  0  0
    8.2999  -12.7818   18.6948 C   0  0  0  0  0  0  0  0  0  0  0  0
    9.3999  -13.8009   18.9236 C   0  0  1  0  0  0  0  0  0  0  0  0
    8.9969  -14.6765   20.0406 C   0  0  0  0  0  0  0  0  0  0  0  0
    7.9322  -14.4036   20.6587 O   0  0  0  0  0  0  0  0  0  0  0  0
   10.1980  -18.4859   22.8287 O   0  0  0  0  0  0  0  0  0  0  0  0
   10.4252  -17.7210   21.6890 C   0  0  0  0  0  0  0  0  0  0  0  0
    9.4764  -16.5475   21.6008 C   0  0  2  0  0  0  0  0  0  0  0  0
    9.7960  -15.8137   20.4177 N   0  0  0  0  0  0  0  0  0  0  0  0
    9.5034  -15.7138   22.8224 C   0  0  0  0  0  0  0  0  0  0  0  0
   10.4026  -14.8150   22.9327 O   0  0  0  0  0  0  0  0  0  0  0  0
    8.6147  -15.8230   23.8894 N   0  0  0  0  0  0  0  0  0  0  0  0
    8.6402  -14.9266   25.0397 C   0  0  1  0  0  0  0  0  0  0  0  0
    7.3780  -14.1990   25.2250 C   0  0  0  0  0  0  0  0  0  0  0  0
    7.4176  -13.2540   26.3824 C   0  0  0  0  0  0  0  0  0  0  0  0
    6.1094  -12.5501   26.6309 C   0  0  0  0  0  0  0  0  0  0  0  0
    6.3376  -11.6300   27.8317 C   0  0  0  0  0  0  0  0  0  0  0  0
    5.1687  -10.8181   28.0932 N   0  0  0  0  0  0  0  0  0  0  0  0
    8.9889  -15.7633   26.1945 C   0  0  0  0  0  0  0  0  0  0  0  0
    9.5503  -15.2261   27.3445 O   0  0  0  0  0  0  0  0  0  0  0  0
    8.7938  -16.9918   26.1869 O   0  0  0  0  0  0  0  0  0  0  0  0
  1  5  1  0
  1  2  1  0
  2  3  1  0
  3  4  1  0
  5  6  1  1
  5  4  1  0
  6 11  1  0
  7  6  2  0
  8  9  1  0
 10  9  1  1
 10 12  1  0
 11 10  1  0
 12 13  2  0
 12 14  1  0
 14 15  1  0
 15 16  1  1
 15 21  1  0
 17 16  1  0
 17 18  1  0
 18 19  1  0
 19 20  1  0
 21 22  1  0
 23 21  2  0
M  END
$$$$
