PSK.pdb
     RDKit          3D

 23 23  0  0  1  0  0  0  0  0999 V2000
    6.9060  -14.7299   19.4112 N   0  0  0  0  0  0  0  0  0  0  0  0
    6.6225  -13.3207   19.5112 C   0  0  0  0  0  0  0  0  0  0  0  0
    7.8413  -12.5724   19.0632 C   0  0  0  0  0  0  0  0  0  0  0  0
    8.6418  -13.6645   18.3501 C   0  0  0  0  0  0  0  0  0  0  0  0
    8.3329  -14.8579   19.2341 C   0  0  1  0  0  0  0  0  0  0  0  0
    9.0040  -14.6598   20.5330 C   0  0  0  0  0  0  0  0  0  0  0  0
   10.2344  -14.3834   20.5332 O   0  0  0  0  0  0  0  0  0  0  0  0
    6.9599  -15.1797   24.2627 O   0  0  0  0  0  0  0  0  0  0  0  0
    8.0540  -14.3368   24.0951 C   0  0  0  0  0  0  0  0  0  0  0  0
    8.9834  -14.8305   23.0100 C   0  0  2  0  0  0  0  0  0  0  0  0
    8.2761  -14.7781   21.7700 N   0  0  0  0  0  0  0  0  0  0  0  0
    9.5273  -16.1734   23.3082 C   0  0  0  0  0  0  0  0  0  0  0  0
    8.8768  -17.1998   22.9187 O   0  0  0  0  0  0  0  0  0  0  0  0
   10.7144  -16.4256   23.9919 N   0  0  0  0  0  0  0  0  0  0  0  0
   11.1924  -17.7723   24.2839 C   0  0  1  0  0  0  0  0  0  0  0  0
   12.6572  -17.8764   24.2588 C   0  0  0  0  0  0  0  0  0  0  0  0
   13.1480  -19.2404   24.6234 C   0  0  0  0  0  0  0  0  0  0  0  0
   14.6485  -19.3374   24.7115 C   0  0  0  0  0  0  0  0  0  0  0  0
   14.9690  -20.8081   24.9852 C   0  0  0  0  0  0  0  0  0  0  0  0
   16.3977  -21.0376   24.9812 N   0  0  0  0  0  0  0  0  0  0  0  0
   10.6194  -18.1291   25.5876 C   0  0  0  0  0  0  0  0  0  0  0  0
   10.3772  -19.4484   25.9441 O   0  0  0  0  0  0  0  0  0  0  0  0
   10.3274  -17.2588   26.4270 O   0  0  0  0  0  0  0  0  0  0  0  0
  1  5  1  0
  1  2  1  0
  2  3  1  0
  3  4  1  0
  5  6  1  1
  5  4  1  0
  6 11  1  0
  7  6  2  0
  8  9  1  0
 10  9  1  1
 10 12  1  0
 11 10  1  0
 12 13  2  0
 12 14  1  0
 14 15  1  0
 15 16  1  1
 15 21  1  0
 17 16  1  0
 17 18  1  0
 18 19  1  0
 19 20  1  0
 21 22  1  0
 23 21  2  0
M  END
$$$$
