PSK.pdb
     RDKit          3D

 23 23  0  0  1  0  0  0  0  0999 V2000
    8.2698  -14.4608   17.4737 N   0  0  0  0  0  0  0  0  0  0  0  0
    6.9913  -14.0429   17.9905 C   0  0  0  0  0  0  0  0  0  0  0  0
    7.2401  -13.1161   19.1418 C   0  0  0  0  0  0  0  0  0  0  0  0
    8.7165  -12.7610   18.9519 C   0  0  0  0  0  0  0  0  0  0  0  0
    9.2600  -14.0873   18.4554 C   0  0  1  0  0  0  0  0  0  0  0  0
    9.2253  -15.0507   19.5721 C   0  0  0  0  0  0  0  0  0  0  0  0
    8.1723  -15.1277   20.2616 O   0  0  0  0  0  0  0  0  0  0  0  0
   12.2782  -17.9370   20.1630 O   0  0  0  0  0  0  0  0  0  0  0  0
   10.9336  -18.1093   20.4759 C   0  0  0  0  0  0  0  0  0  0  0  0
   10.2957  -16.8215   20.9447 C   0  0  2  0  0  0  0  0  0  0  0  0
   10.3624  -15.8829   19.8699 N   0  0  0  0  0  0  0  0  0  0  0  0
   10.9091  -16.3156   22.1920 C   0  0  0  0  0  0  0  0  0  0  0  0
   11.8308  -15.4369   22.1105 O   0  0  0  0  0  0  0  0  0  0  0  0
   10.5635  -16.7210   23.4790 N   0  0  0  0  0  0  0  0  0  0  0  0
   11.2211  -16.2099   24.6765 C   0  0  1  0  0  0  0  0  0  0  0  0
   10.4957  -16.5382   25.9106 C   0  0  0  0  0  0  0  0  0  0  0  0
   11.2484  -16.1574   27.1446 C   0  0  0  0  0  0  0  0  0  0  0  0
   10.5502  -16.5474   28.4210 C   0  0  0  0  0  0  0  0  0  0  0  0
   11.4196  -16.0213   29.5647 C   0  0  0  0  0  0  0  0  0  0  0  0
   10.7784  -16.2339   30.8443 N   0  0  0  0  0  0  0  0  0  0  0  0
   12.5823  -16.7593   24.6539 C   0  0  0  0  0  0  0  0  0  0  0  0
   12.8308  -18.0858   24.3302 O   0  0  0  0  0  0  0  0  0  0  0  0
   13.5701  -16.0538   24.9255 O   0  0  0  0  0  0  0  0  0  0  0  0
  1  5  1  0
  1  2  1  0
  2  3  1  0
  3  4  1  0
  5  6  1  1
  5  4  1  0
  6 11  1  0
  7  6  2  0
  8  9  1  0
 10  9  1  6
 10 12  1  0
 11 10  1  0
 12 13  2  0
 12 14  1  0
 14 15  1  0
 15 16  1  1
 15 21  1  0
 17 16  1  0
 17 18  1  0
 18 19  1  0
 19 20  1  0
 21 22  1  0
 23 21  2  0
M  END
$$$$
