PSK.pdb
     RDKit          3D

 23 23  0  0  1  0  0  0  0  0999 V2000
    8.5013  -14.3134   18.9631 N   0  0  0  0  0  0  0  0  0  0  0  0
    7.1284  -14.0674   19.3249 C   0  0  0  0  0  0  0  0  0  0  0  0
    7.1215  -13.2943   20.6088 C   0  0  0  0  0  0  0  0  0  0  0  0
    8.5698  -12.8079   20.6959 C   0  0  0  0  0  0  0  0  0  0  0  0
    9.3012  -14.0081   20.1254 C   0  0  1  0  0  0  0  0  0  0  0  0
    9.1977  -15.1177   21.0922 C   0  0  0  0  0  0  0  0  0  0  0  0
    8.2164  -15.9038   20.9958 O   0  0  0  0  0  0  0  0  0  0  0  0
   12.5194  -15.9764   23.5528 O   0  0  0  0  0  0  0  0  0  0  0  0
   11.8040  -16.9057   22.8045 C   0  0  0  0  0  0  0  0  0  0  0  0
   10.3303  -16.5732   22.7546 C   0  0  2  0  0  0  0  0  0  0  0  0
   10.1894  -15.3011   22.1202 N   0  0  0  0  0  0  0  0  0  0  0  0
    9.7001  -16.6246   24.0919 C   0  0  0  0  0  0  0  0  0  0  0  0
    9.5436  -15.5360   24.7391 O   0  0  0  0  0  0  0  0  0  0  0  0
    9.2507  -17.7814   24.7243 N   0  0  0  0  0  0  0  0  0  0  0  0
    8.7027  -17.7863   26.0759 C   0  0  1  0  0  0  0  0  0  0  0  0
    7.9092  -18.9876   26.3662 C   0  0  0  0  0  0  0  0  0  0  0  0
    7.0103  -19.3760   25.2369 C   0  0  0  0  0  0  0  0  0  0  0  0
    6.3136  -20.6947   25.4471 C   0  0  0  0  0  0  0  0  0  0  0  0
    5.4708  -20.9403   24.1940 C   0  0  0  0  0  0  0  0  0  0  0  0
    4.8464  -22.2449   24.2359 N   0  0  0  0  0  0  0  0  0  0  0  0
    9.8515  -17.6325   26.9769 C   0  0  0  0  0  0  0  0  0  0  0  0
    9.6901  -17.3863   28.3332 O   0  0  0  0  0  0  0  0  0  0  0  0
   11.0195  -17.7171   26.5575 O   0  0  0  0  0  0  0  0  0  0  0  0
  1  5  1  0
  1  2  1  0
  2  3  1  0
  3  4  1  0
  5  6  1  1
  5  4  1  0
  6 11  1  0
  7  6  2  0
  8  9  1  0
 10  9  1  1
 10 12  1  0
 11 10  1  0
 12 13  2  0
 12 14  1  0
 14 15  1  0
 15 16  1  1
 15 21  1  0
 17 16  1  0
 17 18  1  0
 18 19  1  0
 19 20  1  0
 21 22  1  0
 23 21  2  0
M  END
$$$$
