PSK.pdb
     RDKit          3D

 23 23  0  0  1  0  0  0  0  0999 V2000
    7.4999  -15.2621   20.1252 N   0  0  0  0  0  0  0  0  0  0  0  0
    6.6190  -14.1361   20.3050 C   0  0  0  0  0  0  0  0  0  0  0  0
    7.4644  -12.9053   20.4336 C   0  0  0  0  0  0  0  0  0  0  0  0
    8.8198  -13.3942   19.9182 C   0  0  0  0  0  0  0  0  0  0  0  0
    8.8294  -14.8107   20.4609 C   0  0  1  0  0  0  0  0  0  0  0  0
    8.9646  -14.7448   21.9286 C   0  0  0  0  0  0  0  0  0  0  0  0
    9.8596  -14.0000   22.4127 O   0  0  0  0  0  0  0  0  0  0  0  0
    6.2006  -16.5100   24.5988 O   0  0  0  0  0  0  0  0  0  0  0  0
    7.0956  -15.5023   24.9435 C   0  0  0  0  0  0  0  0  0  0  0  0
    8.3959  -15.6198   24.1815 C   0  0  2  0  0  0  0  0  0  0  0  0
    8.0989  -15.5096   22.7886 N   0  0  0  0  0  0  0  0  0  0  0  0
    9.1314  -16.8580   24.5189 C   0  0  0  0  0  0  0  0  0  0  0  0
    8.8707  -17.9240   23.8676 O   0  0  0  0  0  0  0  0  0  0  0  0
   10.1070  -16.9690   25.5070 N   0  0  0  0  0  0  0  0  0  0  0  0
   10.7798  -18.2242   25.8219 C   0  0  1  0  0  0  0  0  0  0  0  0
   12.2251  -18.1775   25.5652 C   0  0  0  0  0  0  0  0  0  0  0  0
   12.6412  -19.0560   24.4296 C   0  0  0  0  0  0  0  0  0  0  0  0
   14.1247  -19.0420   24.1690 C   0  0  0  0  0  0  0  0  0  0  0  0
   14.3696  -20.0288   23.0258 C   0  0  0  0  0  0  0  0  0  0  0  0
   15.7661  -20.0483   22.6471 N   0  0  0  0  0  0  0  0  0  0  0  0
   10.4608  -18.5109   27.2259 C   0  0  0  0  0  0  0  0  0  0  0  0
    9.7596  -17.6105   28.0157 O   0  0  0  0  0  0  0  0  0  0  0  0
   10.8083  -19.5769   27.7645 O   0  0  0  0  0  0  0  0  0  0  0  0
  1  5  1  0
  1  2  1  0
  2  3  1  0
  3  4  1  0
  5  6  1  1
  5  4  1  0
  6 11  1  0
  7  6  2  0
  8  9  1  0
 10  9  1  1
 10 12  1  0
 11 10  1  0
 12 13  2  0
 12 14  1  0
 14 15  1  0
 15 16  1  1
 15 21  1  0
 17 16  1  0
 17 18  1  0
 18 19  1  0
 19 20  1  0
 21 22  1  0
 23 21  2  0
M  END
$$$$
