PSK.pdb
     RDKit          3D

 23 23  0  0  1  0  0  0  0  0999 V2000
    7.8122  -16.3508   17.9335 N   0  0  0  0  0  0  0  0  0  0  0  0
    8.3343  -17.6911   18.0181 C   0  0  0  0  0  0  0  0  0  0  0  0
    7.6549  -18.3790   19.1633 C   0  0  0  0  0  0  0  0  0  0  0  0
    6.4640  -17.4554   19.4288 C   0  0  0  0  0  0  0  0  0  0  0  0
    7.0962  -16.1026   19.1621 C   0  0  1  0  0  0  0  0  0  0  0  0
    8.0631  -15.8212   20.2403 C   0  0  0  0  0  0  0  0  0  0  0  0
    9.2851  -16.0388   20.0179 O   0  0  0  0  0  0  0  0  0  0  0  0
    6.7934  -14.3517   23.9855 O   0  0  0  0  0  0  0  0  0  0  0  0
    7.8991  -13.8105   23.3374 C   0  0  0  0  0  0  0  0  0  0  0  0
    8.5866  -14.8267   22.4543 C   0  0  2  0  0  0  0  0  0  0  0  0
    7.6263  -15.3113   21.5144 N   0  0  0  0  0  0  0  0  0  0  0  0
    9.2244  -15.9073   23.2376 C   0  0  0  0  0  0  0  0  0  0  0  0
    8.5710  -16.9838   23.4441 O   0  0  0  0  0  0  0  0  0  0  0  0
   10.5049  -15.8557   23.7833 N   0  0  0  0  0  0  0  0  0  0  0  0
   11.1254  -16.9875   24.4625 C   0  0  1  0  0  0  0  0  0  0  0  0
   12.5890  -16.8833   24.5256 C   0  0  0  0  0  0  0  0  0  0  0  0
   13.2221  -18.0327   25.2414 C   0  0  0  0  0  0  0  0  0  0  0  0
   14.4246  -18.5966   24.5312 C   0  0  0  0  0  0  0  0  0  0  0  0
   14.8575  -19.8277   25.3297 C   0  0  0  0  0  0  0  0  0  0  0  0
   15.9854  -20.4828   24.7031 N   0  0  0  0  0  0  0  0  0  0  0  0
   10.5023  -17.0512   25.7903 C   0  0  0  0  0  0  0  0  0  0  0  0
   10.4207  -18.2386   26.5042 O   0  0  0  0  0  0  0  0  0  0  0  0
   10.0211  -16.0387   26.3293 O   0  0  0  0  0  0  0  0  0  0  0  0
  1  5  1  0
  1  2  1  0
  2  3  1  0
  3  4  1  0
  5  6  1  1
  5  4  1  0
  6 11  1  0
  7  6  2  0
  8  9  1  0
 10  9  1  1
 10 12  1  0
 11 10  1  0
 12 13  2  0
 12 14  1  0
 14 15  1  0
 15 16  1  1
 15 21  1  0
 17 16  1  0
 17 18  1  0
 18 19  1  0
 19 20  1  0
 21 22  1  0
 23 21  2  0
M  END
$$$$
