PSK.pdb
     RDKit          3D

 23 23  0  0  1  0  0  0  0  0999 V2000
    8.8589  -14.8429   18.2188 N   0  0  0  0  0  0  0  0  0  0  0  0
    7.5582  -14.5523   17.6710 C   0  0  0  0  0  0  0  0  0  0  0  0
    7.1329  -13.2088   18.1811 C   0  0  0  0  0  0  0  0  0  0  0  0
    8.4499  -12.6374   18.7109 C   0  0  0  0  0  0  0  0  0  0  0  0
    9.0883  -13.8906   19.2791 C   0  0  1  0  0  0  0  0  0  0  0  0
    8.3255  -14.2997   20.4738 C   0  0  0  0  0  0  0  0  0  0  0  0
    8.2091  -13.4736   21.4195 O   0  0  0  0  0  0  0  0  0  0  0  0
    7.2991  -18.4103   21.3898 O   0  0  0  0  0  0  0  0  0  0  0  0
    6.4188  -17.3414   21.5244 C   0  0  0  0  0  0  0  0  0  0  0  0
    7.1464  -16.0435   21.7906 C   0  0  2  0  0  0  0  0  0  0  0  0
    7.7282  -15.6072   20.5611 N   0  0  0  0  0  0  0  0  0  0  0  0
    8.1346  -16.1707   22.8839 C   0  0  0  0  0  0  0  0  0  0  0  0
    9.3672  -16.3098   22.5844 O   0  0  0  0  0  0  0  0  0  0  0  0
    7.8347  -16.1518   24.2441 N   0  0  0  0  0  0  0  0  0  0  0  0
    8.8554  -16.2202   25.2837 C   0  0  1  0  0  0  0  0  0  0  0  0
    8.6218  -15.2676   26.3770 C   0  0  0  0  0  0  0  0  0  0  0  0
    9.6332  -15.3816   27.4716 C   0  0  0  0  0  0  0  0  0  0  0  0
    9.3571  -14.4771   28.6440 C   0  0  0  0  0  0  0  0  0  0  0  0
   10.5070  -14.6889   29.6307 C   0  0  0  0  0  0  0  0  0  0  0  0
   10.3837  -13.8044   30.7692 N   0  0  0  0  0  0  0  0  0  0  0  0
    8.8731  -17.6155   25.7396 C   0  0  0  0  0  0  0  0  0  0  0  0
   10.0071  -18.1887   26.2980 O   0  0  0  0  0  0  0  0  0  0  0  0
    7.8677  -18.3415   25.6425 O   0  0  0  0  0  0  0  0  0  0  0  0
  1  5  1  0
  1  2  1  0
  2  3  1  0
  3  4  1  0
  5  6  1  1
  5  4  1  0
  6 11  1  0
  7  6  2  0
  8  9  1  0
 10  9  1  6
 10 12  1  0
 11 10  1  0
 12 13  2  0
 12 14  1  0
 14 15  1  0
 15 16  1  1
 15 21  1  0
 17 16  1  0
 17 18  1  0
 18 19  1  0
 19 20  1  0
 21 22  1  0
 23 21  2  0
M  END
$$$$
