PSK.pdb
     RDKit          3D

 23 23  0  0  1  0  0  0  0  0999 V2000
    3.5699  -19.7991   20.2072 N   0  0  0  0  0  0  0  0  0  0  0  0
    3.3676  -20.5016   21.4488 C   0  0  0  0  0  0  0  0  0  0  0  0
    2.8809  -19.5125   22.4642 C   0  0  0  0  0  0  0  0  0  0  0  0
    2.4634  -18.3319   21.5845 C   0  0  0  0  0  0  0  0  0  0  0  0
    3.5371  -18.3890   20.5144 C   0  0  1  0  0  0  0  0  0  0  0  0
    4.8213  -17.9938   21.1236 C   0  0  0  0  0  0  0  0  0  0  0  0
    5.5473  -18.8955   21.6236 O   0  0  0  0  0  0  0  0  0  0  0  0
    8.2219  -14.5844   20.9223 O   0  0  0  0  0  0  0  0  0  0  0  0
    6.8714  -14.9126   20.8610 C   0  0  0  0  0  0  0  0  0  0  0  0
    6.6007  -16.2886   21.4254 C   0  0  2  0  0  0  0  0  0  0  0  0
    5.2380  -16.6155   21.1483 N   0  0  0  0  0  0  0  0  0  0  0  0
    6.9352  -16.3786   22.8635 C   0  0  0  0  0  0  0  0  0  0  0  0
    6.1109  -15.9078   23.7163 O   0  0  0  0  0  0  0  0  0  0  0  0
    8.0965  -16.9446   23.3843 N   0  0  0  0  0  0  0  0  0  0  0  0
    8.4026  -16.9599   24.8102 C   0  0  1  0  0  0  0  0  0  0  0  0
    8.4862  -18.3184   25.3620 C   0  0  0  0  0  0  0  0  0  0  0  0
    8.7618  -18.3319   26.8310 C   0  0  0  0  0  0  0  0  0  0  0  0
    8.8991  -19.7173   27.4059 C   0  0  0  0  0  0  0  0  0  0  0  0
    9.1787  -19.5375   28.8993 C   0  0  0  0  0  0  0  0  0  0  0  0
    9.1488  -20.8087   29.5898 N   0  0  0  0  0  0  0  0  0  0  0  0
    9.6536  -16.2068   24.9616 C   0  0  0  0  0  0  0  0  0  0  0  0
   10.4131  -15.8215   23.8658 O   0  0  0  0  0  0  0  0  0  0  0  0
   10.0834  -15.8835   26.0833 O   0  0  0  0  0  0  0  0  0  0  0  0
  1  5  1  0
  1  2  1  0
  2  3  1  0
  3  4  1  0
  5  6  1  1
  5  4  1  0
  6 11  1  0
  7  6  2  0
  8  9  1  0
 10  9  1  1
 10 12  1  0
 11 10  1  0
 12 13  2  0
 12 14  1  0
 14 15  1  0
 15 16  1  6
 15 21  1  0
 17 16  1  0
 17 18  1  0
 18 19  1  0
 19 20  1  0
 21 22  1  0
 23 21  2  0
M  END
$$$$
