PSK.pdb
     RDKit          3D

 23 23  0  0  1  0  0  0  0  0999 V2000
    9.1621  -14.5005   18.1815 N   0  0  0  0  0  0  0  0  0  0  0  0
    7.7934  -14.5280   17.7320 C   0  0  0  0  0  0  0  0  0  0  0  0
    7.0799  -13.3671   18.3559 C   0  0  0  0  0  0  0  0  0  0  0  0
    8.2442  -12.5027   18.8449 C   0  0  0  0  0  0  0  0  0  0  0  0
    9.2202  -13.5758   19.2886 C   0  0  1  0  0  0  0  0  0  0  0  0
    8.6769  -14.2274   20.4956 C   0  0  0  0  0  0  0  0  0  0  0  0
    8.3617  -13.4998   21.4761 O   0  0  0  0  0  0  0  0  0  0  0  0
    8.8501  -18.4593   21.2368 O   0  0  0  0  0  0  0  0  0  0  0  0
    7.6944  -17.7100   21.4326 C   0  0  0  0  0  0  0  0  0  0  0  0
    8.0073  -16.2649   21.7467 C   0  0  2  0  0  0  0  0  0  0  0  0
    8.5095  -15.6565   20.5558 N   0  0  0  0  0  0  0  0  0  0  0  0
    8.9278  -16.1296   22.8967 C   0  0  0  0  0  0  0  0  0  0  0  0
   10.1808  -16.0390   22.6729 O   0  0  0  0  0  0  0  0  0  0  0  0
    8.5417  -16.0907   24.2345 N   0  0  0  0  0  0  0  0  0  0  0  0
    9.4959  -16.0138   25.3349 C   0  0  1  0  0  0  0  0  0  0  0  0
    8.8812  -15.5736   26.5941 C   0  0  0  0  0  0  0  0  0  0  0  0
    9.8431  -15.5677   27.7382 C   0  0  0  0  0  0  0  0  0  0  0  0
    9.7061  -14.3652   28.6347 C   0  0  0  0  0  0  0  0  0  0  0  0
   10.7530  -14.5300   29.7382 C   0  0  0  0  0  0  0  0  0  0  0  0
   10.7256  -13.4081   30.6515 N   0  0  0  0  0  0  0  0  0  0  0  0
   10.1040  -17.3462   25.4345 C   0  0  0  0  0  0  0  0  0  0  0  0
   11.4521  -17.5161   25.7177 O   0  0  0  0  0  0  0  0  0  0  0  0
    9.4315  -18.3793   25.2681 O   0  0  0  0  0  0  0  0  0  0  0  0
  1  5  1  0
  1  2  1  0
  2  3  1  0
  3  4  1  0
  5  6  1  1
  5  4  1  0
  6 11  1  0
  7  6  2  0
  8  9  1  0
 10  9  1  6
 10 12  1  0
 11 10  1  0
 12 13  2  0
 12 14  1  0
 14 15  1  0
 15 16  1  1
 15 21  1  0
 17 16  1  0
 17 18  1  0
 18 19  1  0
 19 20  1  0
 21 22  1  0
 23 21  2  0
M  END
$$$$
