PSK.pdb
     RDKit          3D

 23 23  0  0  1  0  0  0  0  0999 V2000
    8.9112  -14.7931   18.0926 N   0  0  0  0  0  0  0  0  0  0  0  0
    7.5776  -14.5389   17.6098 C   0  0  0  0  0  0  0  0  0  0  0  0
    7.1917  -13.1530   18.0299 C   0  0  0  0  0  0  0  0  0  0  0  0
    8.5430  -12.5501   18.4200 C   0  0  0  0  0  0  0  0  0  0  0  0
    9.2142  -13.7559   19.0498 C   0  0  1  0  0  0  0  0  0  0  0  0
    8.5320  -14.0547   20.3233 C   0  0  0  0  0  0  0  0  0  0  0  0
    8.5656  -13.1860   21.2367 O   0  0  0  0  0  0  0  0  0  0  0  0
    7.2240  -18.0137   21.5184 O   0  0  0  0  0  0  0  0  0  0  0  0
    6.4533  -16.8635   21.6548 C   0  0  0  0  0  0  0  0  0  0  0  0
    7.3099  -15.6272   21.8062 C   0  0  2  0  0  0  0  0  0  0  0  0
    7.8447  -15.3046   20.5215 N   0  0  0  0  0  0  0  0  0  0  0  0
    8.3537  -15.7937   22.8410 C   0  0  0  0  0  0  0  0  0  0  0  0
    9.5686  -15.9231   22.4724 O   0  0  0  0  0  0  0  0  0  0  0  0
    8.1256  -15.8225   24.2148 N   0  0  0  0  0  0  0  0  0  0  0  0
    9.2018  -15.8734   25.1979 C   0  0  1  0  0  0  0  0  0  0  0  0
    8.8776  -15.1553   26.4374 C   0  0  0  0  0  0  0  0  0  0  0  0
    9.9512  -15.2683   27.4711 C   0  0  0  0  0  0  0  0  0  0  0  0
    9.6659  -14.4837   28.7248 C   0  0  0  0  0  0  0  0  0  0  0  0
   10.8636  -14.7030   29.6512 C   0  0  0  0  0  0  0  0  0  0  0  0
   10.7220  -13.9396   30.8722 N   0  0  0  0  0  0  0  0  0  0  0  0
    9.4759  -17.2982   25.4216 C   0  0  0  0  0  0  0  0  0  0  0  0
   10.7607  -17.7686   25.6542 O   0  0  0  0  0  0  0  0  0  0  0  0
    8.5629  -18.1429   25.4112 O   0  0  0  0  0  0  0  0  0  0  0  0
  1  5  1  0
  1  2  1  0
  2  3  1  0
  3  4  1  0
  5  6  1  1
  5  4  1  0
  6 11  1  0
  7  6  2  0
  8  9  1  0
 10  9  1  6
 10 12  1  0
 11 10  1  0
 12 13  2  0
 12 14  1  0
 14 15  1  0
 15 16  1  1
 15 21  1  0
 17 16  1  0
 17 18  1  0
 18 19  1  0
 19 20  1  0
 21 22  1  0
 23 21  2  0
M  END
$$$$
