PSK.pdb
     RDKit          3D

 23 23  0  0  1  0  0  0  0  0999 V2000
    8.9729  -14.4352   19.0176 N   0  0  0  0  0  0  0  0  0  0  0  0
    7.6176  -14.3912   18.5304 C   0  0  0  0  0  0  0  0  0  0  0  0
    6.8863  -13.3313   19.2972 C   0  0  0  0  0  0  0  0  0  0  0  0
    8.0360  -12.5525   19.9403 C   0  0  0  0  0  0  0  0  0  0  0  0
    8.9992  -13.6829   20.2493 C   0  0  1  0  0  0  0  0  0  0  0  0
    8.4218  -14.5020   21.3321 C   0  0  0  0  0  0  0  0  0  0  0  0
    7.8799  -13.9098   22.3046 O   0  0  0  0  0  0  0  0  0  0  0  0
    8.3329  -18.7970   21.2591 O   0  0  0  0  0  0  0  0  0  0  0  0
    7.4254  -17.9760   21.9208 C   0  0  0  0  0  0  0  0  0  0  0  0
    8.0762  -16.7065   22.4209 C   0  0  2  0  0  0  0  0  0  0  0  0
    8.4740  -15.9404   21.2828 N   0  0  0  0  0  0  0  0  0  0  0  0
    9.1927  -16.9801   23.3518 C   0  0  0  0  0  0  0  0  0  0  0  0
   10.3844  -16.9894   22.8955 O   0  0  0  0  0  0  0  0  0  0  0  0
    9.0584  -17.2344   24.7147 N   0  0  0  0  0  0  0  0  0  0  0  0
   10.1882  -17.5626   25.5769 C   0  0  1  0  0  0  0  0  0  0  0  0
   10.0420  -17.0295   26.9376 C   0  0  0  0  0  0  0  0  0  0  0  0
   10.1259  -15.5380   26.9884 C   0  0  0  0  0  0  0  0  0  0  0  0
    9.9352  -14.9703   28.3704 C   0  0  0  0  0  0  0  0  0  0  0  0
   10.0425  -13.4506   28.2296 C   0  0  0  0  0  0  0  0  0  0  0  0
    9.8281  -12.7949   29.5015 N   0  0  0  0  0  0  0  0  0  0  0  0
   10.3043  -19.0258   25.5490 C   0  0  0  0  0  0  0  0  0  0  0  0
   11.4357  -19.6791   26.0172 O   0  0  0  0  0  0  0  0  0  0  0  0
    9.3889  -19.7399   25.1026 O   0  0  0  0  0  0  0  0  0  0  0  0
  1  5  1  0
  1  2  1  0
  2  3  1  0
  3  4  1  0
  5  6  1  1
  5  4  1  0
  6 11  1  0
  7  6  2  0
  8  9  1  0
 10  9  1  6
 10 12  1  0
 11 10  1  0
 12 13  2  0
 12 14  1  0
 14 15  1  0
 15 16  1  1
 15 21  1  0
 17 16  1  0
 17 18  1  0
 18 19  1  0
 19 20  1  0
 21 22  1  0
 23 21  2  0
M  END
$$$$
