TTD.pdb
     RDKit          3D

 23 22  0  0  1  0  0  0  0  0999 V2000
   21.1161  -19.2775  -17.1054 C   0  0  0  0  0  0  0  0  0  0  0  0
   21.7026  -20.2557  -16.1255 C   0  0  1  0  0  0  0  0  0  0  0  0
   21.5823  -21.5801  -16.5427 O   0  0  0  0  0  0  0  0  0  0  0  0
   23.1179  -19.9243  -15.7318 C   0  0  2  0  0  0  0  0  0  0  0  0
   23.6140  -20.9703  -14.8663 N   0  0  0  0  0  0  0  0  0  0  0  0
   23.2615  -18.5840  -15.1426 C   0  0  0  0  0  0  0  0  0  0  0  0
   22.7319  -18.3260  -14.0381 O   0  0  0  0  0  0  0  0  0  0  0  0
   26.4659  -16.4050  -14.5828 C   0  0  0  0  0  0  0  0  0  0  0  0
   25.5295  -15.7087  -15.5427 C   0  0  1  0  0  0  0  0  0  0  0  0
   25.9309  -16.1314  -16.8240 O   0  0  0  0  0  0  0  0  0  0  0  0
   24.1024  -16.1894  -15.3029 C   0  0  2  0  0  0  0  0  0  0  0  0
   23.9952  -17.5701  -15.8086 N   0  0  0  0  0  0  0  0  0  0  0  0
   23.0968  -15.3432  -15.9518 C   0  0  0  0  0  0  0  0  0  0  0  0
   22.7754  -15.6007  -17.1714 O   0  0  0  0  0  0  0  0  0  0  0  0
   22.4269  -14.2550  -15.3672 N   0  0  0  0  0  0  0  0  0  0  0  0
   21.4216  -13.5243  -16.1687 C   0  0  1  0  0  0  0  0  0  0  0  0
   20.2691  -13.2582  -15.2366 C   0  0  0  0  0  0  0  0  0  0  0  0
   19.2575  -12.4301  -15.8718 C   0  0  0  0  0  0  0  0  0  0  0  0
   19.2870  -12.1891  -17.0957 O   0  0  0  0  0  0  0  0  0  0  0  0
   22.0435  -12.2168  -16.5557 C   0  0  0  0  0  0  0  0  0  0  0  0
   23.2700  -11.7726  -16.1678 O   0  0  0  0  0  0  0  0  0  0  0  0
   18.1985  -11.8561  -15.1649 O   0  0  0  0  0  0  0  0  0  0  0  0
   21.3789  -11.4292  -17.3192 O   0  0  0  0  0  0  0  0  0  0  0  0
  2  1  1  6
  2  4  1  0
  3  2  1  0
  4  5  1  1
  6  4  1  0
  7  6  2  0
  9  8  1  1
  9 10  1  0
  9 11  1  0
 11 13  1  0
 11 12  1  6
 12  6  1  0
 13 15  1  0
 14 13  2  0
 15 16  1  0
 16 20  1  0
 16 17  1  1
 17 18  1  0
 18 22  1  0
 19 18  2  0
 20 23  2  0
 20 21  1  0
M  END
$$$$
