TTD.pdb
     RDKit          3D

 23 22  0  0  1  0  0  0  0  0999 V2000
   21.9004  -10.2991  -18.0377 C   0  0  0  0  0  0  0  0  0  0  0  0
   20.9468  -11.4303  -17.7697 C   0  0  1  0  0  0  0  0  0  0  0  0
   21.4067  -12.6539  -18.2531 O   0  0  0  0  0  0  0  0  0  0  0  0
   20.5302  -11.5253  -16.3256 C   0  0  2  0  0  0  0  0  0  0  0  0
   19.7909  -12.7530  -16.1374 N   0  0  0  0  0  0  0  0  0  0  0  0
   19.7965  -10.3421  -15.8505 C   0  0  0  0  0  0  0  0  0  0  0  0
   18.7696   -9.9582  -16.4548 O   0  0  0  0  0  0  0  0  0  0  0  0
   19.1230   -7.0551  -12.1971 C   0  0  0  0  0  0  0  0  0  0  0  0
   19.6353   -8.3793  -12.7142 C   0  0  1  0  0  0  0  0  0  0  0  0
   18.7269   -9.3411  -12.2334 O   0  0  0  0  0  0  0  0  0  0  0  0
   19.5825   -8.3873  -14.2381 C   0  0  2  0  0  0  0  0  0  0  0  0
   20.2348   -9.6222  -14.7105 N   0  0  0  0  0  0  0  0  0  0  0  0
   20.2339   -7.2201  -14.8394 C   0  0  0  0  0  0  0  0  0  0  0  0
   21.5199   -7.1639  -14.8288 O   0  0  0  0  0  0  0  0  0  0  0  0
   19.5865   -6.1296  -15.4450 N   0  0  0  0  0  0  0  0  0  0  0  0
   20.4089   -5.0405  -16.0145 C   0  0  1  0  0  0  0  0  0  0  0  0
   20.0181   -4.9479  -17.4658 C   0  0  0  0  0  0  0  0  0  0  0  0
   20.6437   -3.8042  -18.1086 C   0  0  0  0  0  0  0  0  0  0  0  0
   21.8094   -3.4571  -17.8299 O   0  0  0  0  0  0  0  0  0  0  0  0
   19.9962   -3.7780  -15.3202 C   0  0  0  0  0  0  0  0  0  0  0  0
   20.7974   -2.7054  -15.0754 O   0  0  0  0  0  0  0  0  0  0  0  0
   19.9915   -3.0272  -19.0685 O   0  0  0  0  0  0  0  0  0  0  0  0
   18.7850   -3.6767  -14.9107 O   0  0  0  0  0  0  0  0  0  0  0  0
  2  1  1  1
  2  4  1  0
  3  2  1  0
  4  5  1  6
  6  4  1  0
  7  6  2  0
  9  8  1  1
  9 10  1  0
  9 11  1  0
 11 13  1  0
 11 12  1  6
 12  6  1  0
 13 15  1  0
 14 13  2  0
 15 16  1  0
 16 20  1  0
 16 17  1  6
 17 18  1  0
 18 22  1  0
 19 18  2  0
 20 23  2  0
 20 21  1  0
M  END
$$$$
