TTD.pdb
     RDKit          3D

 23 22  0  0  1  0  0  0  0  0999 V2000
   12.7093  -12.9261  -17.8182 C   0  0  0  0  0  0  0  0  0  0  0  0
   13.6714  -12.0717  -17.0403 C   0  0  1  0  0  0  0  0  0  0  0  0
   13.0329  -11.1913  -16.1686 O   0  0  0  0  0  0  0  0  0  0  0  0
   14.7398  -12.8689  -16.3397 C   0  0  2  0  0  0  0  0  0  0  0  0
   14.1049  -13.7821  -15.4165 N   0  0  0  0  0  0  0  0  0  0  0  0
   15.7651  -12.0327  -15.6966 C   0  0  0  0  0  0  0  0  0  0  0  0
   15.5913  -11.6171  -14.5287 O   0  0  0  0  0  0  0  0  0  0  0  0
   20.4615  -10.4254  -15.8535 C   0  0  0  0  0  0  0  0  0  0  0  0
   19.3585  -11.3387  -16.3356 C   0  0  1  0  0  0  0  0  0  0  0  0
   19.6492  -12.5976  -15.7768 O   0  0  0  0  0  0  0  0  0  0  0  0
   18.0213  -10.8624  -15.7788 C   0  0  2  0  0  0  0  0  0  0  0  0
   16.9571  -11.6859  -16.3812 N   0  0  0  0  0  0  0  0  0  0  0  0
   17.7629   -9.4444  -16.0449 C   0  0  0  0  0  0  0  0  0  0  0  0
   17.3782   -9.1036  -17.2251 O   0  0  0  0  0  0  0  0  0  0  0  0
   17.8907   -8.3912  -15.1233 N   0  0  0  0  0  0  0  0  0  0  0  0
   17.5421   -7.0207  -15.5561 C   0  0  1  0  0  0  0  0  0  0  0  0
   16.5464   -6.5132  -14.5467 C   0  0  0  0  0  0  0  0  0  0  0  0
   16.1896   -5.1286  -14.8080 C   0  0  0  0  0  0  0  0  0  0  0  0
   16.6341   -4.5174  -15.8009 O   0  0  0  0  0  0  0  0  0  0  0  0
   18.7940   -6.2031  -15.4549 C   0  0  0  0  0  0  0  0  0  0  0  0
   18.9990   -4.9863  -16.0289 O   0  0  0  0  0  0  0  0  0  0  0  0
   15.3370   -4.3987  -13.9769 O   0  0  0  0  0  0  0  0  0  0  0  0
   19.7734   -6.6719  -14.7723 O   0  0  0  0  0  0  0  0  0  0  0  0
  2  1  1  1
  2  4  1  0
  3  2  1  0
  4  5  1  1
  6  4  1  0
  7  6  2  0
  9  8  1  1
  9 10  1  0
  9 11  1  0
 11 13  1  0
 11 12  1  6
 12  6  1  0
 13 15  1  0
 14 13  2  0
 15 16  1  0
 16 20  1  0
 16 17  1  1
 17 18  1  0
 18 22  1  0
 19 18  2  0
 20 23  2  0
 20 21  1  0
M  END
$$$$
