TTD.pdb
     RDKit          3D

 23 22  0  0  1  0  0  0  0  0999 V2000
   18.8469  -10.4358  -18.2441 C   0  0  0  0  0  0  0  0  0  0  0  0
   18.6268  -11.7159  -17.4866 C   0  0  1  0  0  0  0  0  0  0  0  0
   17.8141  -12.6183  -18.1704 O   0  0  0  0  0  0  0  0  0  0  0  0
   19.9078  -12.3607  -17.0269 C   0  0  2  0  0  0  0  0  0  0  0  0
   19.5940  -13.6406  -16.4331 N   0  0  0  0  0  0  0  0  0  0  0  0
   20.7070  -11.5031  -16.1382 C   0  0  0  0  0  0  0  0  0  0  0  0
   20.2512  -11.1591  -15.0243 O   0  0  0  0  0  0  0  0  0  0  0  0
   25.1617   -9.4206  -15.3136 C   0  0  0  0  0  0  0  0  0  0  0  0
   24.2850  -10.3793  -16.0852 C   0  0  1  0  0  0  0  0  0  0  0  0
   24.6870  -11.6634  -15.6717 O   0  0  0  0  0  0  0  0  0  0  0  0
   22.8286  -10.1777  -15.6808 C   0  0  2  0  0  0  0  0  0  0  0  0
   21.9957  -11.0550  -16.5236 N   0  0  0  0  0  0  0  0  0  0  0  0
   22.3836   -8.7881  -15.8185 C   0  0  0  0  0  0  0  0  0  0  0  0
   21.9190   -8.4042  -16.9560 O   0  0  0  0  0  0  0  0  0  0  0  0
   22.4078   -7.8063  -14.8133 N   0  0  0  0  0  0  0  0  0  0  0  0
   21.9169   -6.4484  -15.1328 C   0  0  1  0  0  0  0  0  0  0  0  0
   20.4281   -6.5831  -15.3146 C   0  0  0  0  0  0  0  0  0  0  0  0
   19.8199   -5.3061  -15.6492 C   0  0  0  0  0  0  0  0  0  0  0  0
   20.5099   -4.3284  -16.0028 O   0  0  0  0  0  0  0  0  0  0  0  0
   22.1828   -5.5972  -13.9283 C   0  0  0  0  0  0  0  0  0  0  0  0
   22.7205   -6.0253  -12.7536 O   0  0  0  0  0  0  0  0  0  0  0  0
   18.4410   -5.0899  -15.5984 O   0  0  0  0  0  0  0  0  0  0  0  0
   21.8842   -4.3512  -13.9857 O   0  0  0  0  0  0  0  0  0  0  0  0
  2  1  1  6
  2  4  1  0
  3  2  1  0
  4  5  1  1
  6  4  1  0
  7  6  2  0
  9  8  1  1
  9 10  1  0
  9 11  1  0
 11 13  1  0
 11 12  1  6
 12  6  1  0
 13 15  1  0
 14 13  2  0
 15 16  1  0
 16 20  1  0
 16 17  1  1
 17 18  1  0
 18 22  1  0
 19 18  2  0
 20 23  2  0
 20 21  1  0
M  END
$$$$
