TTD.pdb
     RDKit          3D

 23 22  0  0  1  0  0  0  0  0999 V2000
   20.8946  -13.6118  -18.8092 C   0  0  0  0  0  0  0  0  0  0  0  0
   19.7628  -13.4973  -17.8260 C   0  0  1  0  0  0  0  0  0  0  0  0
   19.3208  -14.7345  -17.3607 O   0  0  0  0  0  0  0  0  0  0  0  0
   20.0557  -12.5504  -16.6921 C   0  0  2  0  0  0  0  0  0  0  0  0
   19.2149  -12.8994  -15.5694 N   0  0  0  0  0  0  0  0  0  0  0  0
   19.9394  -11.1335  -17.0699 C   0  0  0  0  0  0  0  0  0  0  0  0
   20.6281  -10.6781  -18.0107 O   0  0  0  0  0  0  0  0  0  0  0  0
   16.6759   -9.5266  -17.8021 C   0  0  0  0  0  0  0  0  0  0  0  0
   17.3302   -8.6085  -16.7960 C   0  0  1  0  0  0  0  0  0  0  0  0
   16.7985   -8.9870  -15.5487 O   0  0  0  0  0  0  0  0  0  0  0  0
   18.8335   -8.8625  -16.7751 C   0  0  2  0  0  0  0  0  0  0  0  0
   19.0534  -10.2664  -16.3820 N   0  0  0  0  0  0  0  0  0  0  0  0
   19.5518   -7.9718  -15.8591 C   0  0  0  0  0  0  0  0  0  0  0  0
   20.5096   -8.4632  -15.1533 O   0  0  0  0  0  0  0  0  0  0  0  0
   19.3010   -6.6024  -15.6675 N   0  0  0  0  0  0  0  0  0  0  0  0
   20.2386   -5.8167  -14.8364 C   0  0  1  0  0  0  0  0  0  0  0  0
   21.5721   -5.9022  -15.5309 C   0  0  0  0  0  0  0  0  0  0  0  0
   22.5379   -4.9963  -14.9316 C   0  0  0  0  0  0  0  0  0  0  0  0
   22.3411   -4.4818  -13.8119 O   0  0  0  0  0  0  0  0  0  0  0  0
   19.7634   -4.3958  -14.8732 C   0  0  0  0  0  0  0  0  0  0  0  0
   19.8401   -3.5037  -13.8483 O   0  0  0  0  0  0  0  0  0  0  0  0
   23.7349   -4.6453  -15.5596 O   0  0  0  0  0  0  0  0  0  0  0  0
   19.2330   -3.9594  -15.9563 O   0  0  0  0  0  0  0  0  0  0  0  0
  2  1  1  1
  2  4  1  0
  3  2  1  0
  4  5  1  1
  6  4  1  0
  7  6  2  0
  9  8  1  6
  9 10  1  0
  9 11  1  0
 11 13  1  0
 11 12  1  1
 12  6  1  0
 13 15  1  0
 14 13  2  0
 15 16  1  0
 16 20  1  0
 16 17  1  6
 17 18  1  0
 18 22  1  0
 19 18  2  0
 20 23  2  0
 20 21  1  0
M  END
$$$$
