TTD.pdb
     RDKit          3D

 23 22  0  0  1  0  0  0  0  0999 V2000
   13.5705   -2.0565  -14.8456 C   0  0  0  0  0  0  0  0  0  0  0  0
   14.8964   -2.6240  -15.2710 C   0  0  1  0  0  0  0  0  0  0  0  0
   14.8985   -4.0167  -15.3250 O   0  0  0  0  0  0  0  0  0  0  0  0
   15.4188   -2.0184  -16.5471 C   0  0  2  0  0  0  0  0  0  0  0  0
   14.4545   -2.2518  -17.5982 N   0  0  0  0  0  0  0  0  0  0  0  0
   16.7694   -2.4805  -16.9025 C   0  0  0  0  0  0  0  0  0  0  0  0
   16.9152   -3.4189  -17.7180 O   0  0  0  0  0  0  0  0  0  0  0  0
   19.4990   -0.1257  -17.9896 C   0  0  0  0  0  0  0  0  0  0  0  0
   20.0979   -0.9588  -16.8804 C   0  0  1  0  0  0  0  0  0  0  0  0
   19.9438   -0.1873  -15.7132 O   0  0  0  0  0  0  0  0  0  0  0  0
   19.2946   -2.2445  -16.7167 C   0  0  2  0  0  0  0  0  0  0  0  0
   17.9192   -1.8771  -16.3335 N   0  0  0  0  0  0  0  0  0  0  0  0
   19.8637   -3.1514  -15.7158 C   0  0  0  0  0  0  0  0  0  0  0  0
   19.5735   -2.9553  -14.4771 O   0  0  0  0  0  0  0  0  0  0  0  0
   20.7116   -4.2423  -15.9723 N   0  0  0  0  0  0  0  0  0  0  0  0
   21.2226   -5.0305  -14.8301 C   0  0  1  0  0  0  0  0  0  0  0  0
   20.8306   -6.4575  -15.1090 C   0  0  0  0  0  0  0  0  0  0  0  0
   21.3826   -7.3604  -14.1126 C   0  0  0  0  0  0  0  0  0  0  0  0
   21.4961   -7.0209  -12.9173 O   0  0  0  0  0  0  0  0  0  0  0  0
   22.7171   -4.9232  -14.8640 C   0  0  0  0  0  0  0  0  0  0  0  0
   23.5570   -5.1703  -13.8221 O   0  0  0  0  0  0  0  0  0  0  0  0
   21.8172   -8.6513  -14.4215 O   0  0  0  0  0  0  0  0  0  0  0  0
   23.2769   -4.5677  -15.9619 O   0  0  0  0  0  0  0  0  0  0  0  0
  2  1  1  6
  2  4  1  0
  3  2  1  0
  4  5  1  6
  6  4  1  0
  7  6  2  0
  9  8  1  6
  9 10  1  0
  9 11  1  0
 11 13  1  0
 11 12  1  1
 12  6  1  0
 13 15  1  0
 14 13  2  0
 15 16  1  0
 16 20  1  0
 16 17  1  6
 17 18  1  0
 18 22  1  0
 19 18  2  0
 20 23  2  0
 20 21  1  0
M  END
$$$$
