TTD.pdb
     RDKit          3D

 23 22  0  0  1  0  0  0  0  0999 V2000
   19.0078   -8.4260  -19.2975 C   0  0  0  0  0  0  0  0  0  0  0  0
   18.2940   -9.6598  -18.8190 C   0  0  1  0  0  0  0  0  0  0  0  0
   17.4440  -10.2026  -19.7811 O   0  0  0  0  0  0  0  0  0  0  0  0
   19.2231  -10.6993  -18.2495 C   0  0  2  0  0  0  0  0  0  0  0  0
   18.4588  -11.8895  -17.9523 N   0  0  0  0  0  0  0  0  0  0  0  0
   19.9987  -10.2195  -17.0953 C   0  0  0  0  0  0  0  0  0  0  0  0
   19.4146   -9.9212  -16.0292 O   0  0  0  0  0  0  0  0  0  0  0  0
   24.5491   -9.4544  -15.1981 C   0  0  0  0  0  0  0  0  0  0  0  0
   23.6469  -10.0879  -16.2315 C   0  0  1  0  0  0  0  0  0  0  0  0
   23.6479  -11.4631  -15.9310 O   0  0  0  0  0  0  0  0  0  0  0  0
   22.2266   -9.5596  -16.0620 C   0  0  2  0  0  0  0  0  0  0  0  0
   21.4084  -10.0877  -17.1688 N   0  0  0  0  0  0  0  0  0  0  0  0
   22.1584   -8.0955  -16.0485 C   0  0  0  0  0  0  0  0  0  0  0  0
   22.0002   -7.4801  -17.1679 O   0  0  0  0  0  0  0  0  0  0  0  0
   22.2463   -7.2719  -14.9132 N   0  0  0  0  0  0  0  0  0  0  0  0
   22.1339   -5.8075  -15.0860 C   0  0  1  0  0  0  0  0  0  0  0  0
   20.7088   -5.5520  -15.5005 C   0  0  0  0  0  0  0  0  0  0  0  0
   20.4652   -4.1338  -15.7053 C   0  0  0  0  0  0  0  0  0  0  0  0
   21.3871   -3.3526  -16.0163 O   0  0  0  0  0  0  0  0  0  0  0  0
   22.3638   -5.1935  -13.7384 C   0  0  0  0  0  0  0  0  0  0  0  0
   22.4898   -3.8632  -13.4804 O   0  0  0  0  0  0  0  0  0  0  0  0
   19.2003   -3.5576  -15.5698 O   0  0  0  0  0  0  0  0  0  0  0  0
   22.4542   -5.9714  -12.7227 O   0  0  0  0  0  0  0  0  0  0  0  0
  2  1  1  6
  2  4  1  0
  3  2  1  0
  4  5  1  1
  6  4  1  0
  7  6  2  0
  9  8  1  1
  9 10  1  0
  9 11  1  0
 11 13  1  0
 11 12  1  6
 12  6  1  0
 13 15  1  0
 14 13  2  0
 15 16  1  0
 16 20  1  0
 16 17  1  1
 17 18  1  0
 18 22  1  0
 19 18  2  0
 20 23  2  0
 20 21  1  0
M  END
$$$$
