TTD.pdb
     RDKit          3D

 23 22  0  0  1  0  0  0  0  0999 V2000
   17.0907   -9.3664  -17.0686 C   0  0  0  0  0  0  0  0  0  0  0  0
   16.9744  -10.6269  -16.2571 C   0  0  1  0  0  0  0  0  0  0  0  0
   15.8664  -11.3969  -16.6063 O   0  0  0  0  0  0  0  0  0  0  0  0
   18.2385  -11.4454  -16.2483 C   0  0  2  0  0  0  0  0  0  0  0  0
   17.9859  -12.6786  -15.5379 N   0  0  0  0  0  0  0  0  0  0  0  0
   19.4028  -10.7157  -15.7231 C   0  0  0  0  0  0  0  0  0  0  0  0
   19.4509  -10.4024  -14.5121 O   0  0  0  0  0  0  0  0  0  0  0  0
   24.0403   -9.1347  -16.6071 C   0  0  0  0  0  0  0  0  0  0  0  0
   22.8334   -9.9505  -17.0083 C   0  0  1  0  0  0  0  0  0  0  0  0
   23.1959  -11.2898  -16.7705 O   0  0  0  0  0  0  0  0  0  0  0  0
   21.6576   -9.6024  -16.1021 C   0  0  2  0  0  0  0  0  0  0  0  0
   20.4813  -10.3576  -16.5708 N   0  0  0  0  0  0  0  0  0  0  0  0
   21.3530   -8.1688  -16.0851 C   0  0  0  0  0  0  0  0  0  0  0  0
   20.6450   -7.6823  -17.0438 O   0  0  0  0  0  0  0  0  0  0  0  0
   21.7597   -7.2463  -15.1060 N   0  0  0  0  0  0  0  0  0  0  0  0
   21.3226   -5.8389  -15.2290 C   0  0  1  0  0  0  0  0  0  0  0  0
   19.8451   -5.8418  -14.9378 C   0  0  0  0  0  0  0  0  0  0  0  0
   19.3080   -4.4913  -14.9223 C   0  0  0  0  0  0  0  0  0  0  0  0
   19.8583   -3.5639  -15.5501 O   0  0  0  0  0  0  0  0  0  0  0  0
   22.0271   -5.0710  -14.1520 C   0  0  0  0  0  0  0  0  0  0  0  0
   21.9876   -3.7215  -13.9802 O   0  0  0  0  0  0  0  0  0  0  0  0
   18.1554   -4.1450  -14.2135 O   0  0  0  0  0  0  0  0  0  0  0  0
   22.7373   -5.7222  -13.3055 O   0  0  0  0  0  0  0  0  0  0  0  0
  2  1  1  6
  2  4  1  0
  3  2  1  0
  4  5  1  1
  6  4  1  0
  7  6  2  0
  9  8  1  1
  9 10  1  0
  9 11  1  0
 11 13  1  0
 11 12  1  6
 12  6  1  0
 13 15  1  0
 14 13  2  0
 15 16  1  0
 16 20  1  0
 16 17  1  1
 17 18  1  0
 18 22  1  0
 19 18  2  0
 20 23  2  0
 20 21  1  0
M  END
$$$$
