TTD.pdb
     RDKit          3D

 23 22  0  0  1  0  0  0  0  0999 V2000
   18.9791   -9.5140  -18.8354 C   0  0  0  0  0  0  0  0  0  0  0  0
   18.6151  -10.8978  -18.3733 C   0  0  1  0  0  0  0  0  0  0  0  0
   18.1392  -11.7065  -19.4039 O   0  0  0  0  0  0  0  0  0  0  0  0
   19.7168  -11.5741  -17.6008 C   0  0  2  0  0  0  0  0  0  0  0  0
   19.3143  -12.9325  -17.3146 N   0  0  0  0  0  0  0  0  0  0  0  0
   20.1224  -10.8359  -16.3947 C   0  0  0  0  0  0  0  0  0  0  0  0
   19.3712  -10.8116  -15.3937 O   0  0  0  0  0  0  0  0  0  0  0  0
   23.0248  -11.4325  -14.3741 C   0  0  0  0  0  0  0  0  0  0  0  0
   23.1780   -9.9762  -14.7466 C   0  0  1  0  0  0  0  0  0  0  0  0
   24.0205   -9.9689  -15.8742 O   0  0  0  0  0  0  0  0  0  0  0  0
   21.8230   -9.4084  -15.1549 C   0  0  2  0  0  0  0  0  0  0  0  0
   21.3596  -10.1453  -16.3448 N   0  0  0  0  0  0  0  0  0  0  0  0
   21.8684   -7.9727  -15.4463 C   0  0  0  0  0  0  0  0  0  0  0  0
   22.2680   -7.5971  -16.6109 O   0  0  0  0  0  0  0  0  0  0  0  0
   21.5093   -6.9366  -14.5674 N   0  0  0  0  0  0  0  0  0  0  0  0
   21.8003   -5.5400  -14.9571 C   0  0  1  0  0  0  0  0  0  0  0  0
   20.4707   -4.9279  -15.3113 C   0  0  0  0  0  0  0  0  0  0  0  0
   20.6087   -3.5176  -15.6346 C   0  0  0  0  0  0  0  0  0  0  0  0
   21.6564   -3.0640  -16.1382 O   0  0  0  0  0  0  0  0  0  0  0  0
   22.3402   -4.8540  -13.7388 C   0  0  0  0  0  0  0  0  0  0  0  0
   22.4301   -5.3962  -12.4938 O   0  0  0  0  0  0  0  0  0  0  0  0
   19.5920   -2.5876  -15.4067 O   0  0  0  0  0  0  0  0  0  0  0  0
   22.7600   -3.6478  -13.8555 O   0  0  0  0  0  0  0  0  0  0  0  0
  2  1  1  6
  2  4  1  0
  3  2  1  0
  4  5  1  1
  6  4  1  0
  7  6  2  0
  9  8  1  6
  9 10  1  0
  9 11  1  0
 11 13  1  0
 11 12  1  6
 12  6  1  0
 13 15  1  0
 14 13  2  0
 15 16  1  0
 16 20  1  0
 16 17  1  1
 17 18  1  0
 18 22  1  0
 19 18  2  0
 20 23  2  0
 20 21  1  0
M  END
$$$$
