TTD.pdb
     RDKit          3D

 23 22  0  0  1  0  0  0  0  0999 V2000
   18.5078  -10.3359  -21.0452 C   0  0  0  0  0  0  0  0  0  0  0  0
   18.9819   -9.8632  -19.6989 C   0  0  1  0  0  0  0  0  0  0  0  0
   18.0854   -8.9918  -19.0829 O   0  0  0  0  0  0  0  0  0  0  0  0
   19.3805  -10.9891  -18.7816 C   0  0  2  0  0  0  0  0  0  0  0  0
   18.2484  -11.8719  -18.6142 N   0  0  0  0  0  0  0  0  0  0  0  0
   19.9362  -10.5289  -17.4996 C   0  0  0  0  0  0  0  0  0  0  0  0
   19.1723  -10.2792  -16.5400 O   0  0  0  0  0  0  0  0  0  0  0  0
   24.0795   -9.9458  -14.7969 C   0  0  0  0  0  0  0  0  0  0  0  0
   23.3441  -10.5302  -15.9804 C   0  0  1  0  0  0  0  0  0  0  0  0
   23.2233  -11.9043  -15.6997 O   0  0  0  0  0  0  0  0  0  0  0  0
   21.9443   -9.9305  -16.0586 C   0  0  2  0  0  0  0  0  0  0  0  0
   21.3338  -10.3617  -17.3294 N   0  0  0  0  0  0  0  0  0  0  0  0
   21.9434   -8.4670  -15.9785 C   0  0  0  0  0  0  0  0  0  0  0  0
   22.3229   -7.7975  -17.0104 O   0  0  0  0  0  0  0  0  0  0  0  0
   21.5590   -7.6978  -14.8670 N   0  0  0  0  0  0  0  0  0  0  0  0
   21.6845   -6.2262  -14.9423 C   0  0  1  0  0  0  0  0  0  0  0  0
   20.2906   -5.7077  -15.1792 C   0  0  0  0  0  0  0  0  0  0  0  0
   20.2720   -4.2558  -15.2443 C   0  0  0  0  0  0  0  0  0  0  0  0
   21.3129   -3.5993  -15.4504 O   0  0  0  0  0  0  0  0  0  0  0  0
   22.1517   -5.7620  -13.5961 C   0  0  0  0  0  0  0  0  0  0  0  0
   22.5562   -4.5004  -13.2850 O   0  0  0  0  0  0  0  0  0  0  0  0
   19.1038   -3.5075  -15.0828 O   0  0  0  0  0  0  0  0  0  0  0  0
   22.1825   -6.6121  -12.6362 O   0  0  0  0  0  0  0  0  0  0  0  0
  2  1  1  6
  2  4  1  0
  3  2  1  0
  4  5  1  1
  6  4  1  0
  7  6  2  0
  9  8  1  1
  9 10  1  0
  9 11  1  0
 11 13  1  0
 11 12  1  6
 12  6  1  0
 13 15  1  0
 14 13  2  0
 15 16  1  0
 16 20  1  0
 16 17  1  1
 17 18  1  0
 18 22  1  0
 19 18  2  0
 20 23  2  0
 20 21  1  0
M  END
$$$$
