TTD.pdb
     RDKit          3D

 23 22  0  0  1  0  0  0  0  0999 V2000
   15.5374   -5.6939   -8.6720 C   0  0  0  0  0  0  0  0  0  0  0  0
   14.6885   -6.7056   -7.9531 C   0  0  1  0  0  0  0  0  0  0  0  0
   13.5601   -6.1433   -7.3591 O   0  0  0  0  0  0  0  0  0  0  0  0
   14.3325   -7.8945   -8.8063 C   0  0  2  0  0  0  0  0  0  0  0  0
   13.6195   -8.8517   -7.9910 N   0  0  0  0  0  0  0  0  0  0  0  0
   15.4896   -8.4859   -9.4957 C   0  0  0  0  0  0  0  0  0  0  0  0
   16.3354   -9.1428   -8.8477 O   0  0  0  0  0  0  0  0  0  0  0  0
   17.1506  -10.4519  -13.6168 C   0  0  0  0  0  0  0  0  0  0  0  0
   16.0836   -9.8578  -12.7270 C   0  0  1  0  0  0  0  0  0  0  0  0
   15.4691  -10.9583  -12.1002 O   0  0  0  0  0  0  0  0  0  0  0  0
   16.7367   -8.9952  -11.6526 C   0  0  2  0  0  0  0  0  0  0  0  0
   15.6659   -8.3243  -10.8931 N   0  0  0  0  0  0  0  0  0  0  0  0
   17.6571   -7.9957  -12.2023 C   0  0  0  0  0  0  0  0  0  0  0  0
   17.1828   -6.8479  -12.5408 O   0  0  0  0  0  0  0  0  0  0  0  0
   19.0385   -8.1611  -12.4007 N   0  0  0  0  0  0  0  0  0  0  0  0
   19.7976   -7.0765  -13.0598 C   0  0  1  0  0  0  0  0  0  0  0  0
   20.8796   -6.6849  -12.0884 C   0  0  0  0  0  0  0  0  0  0  0  0
   21.7248   -5.6362  -12.6349 C   0  0  0  0  0  0  0  0  0  0  0  0
   21.5071   -5.1444  -13.7608 O   0  0  0  0  0  0  0  0  0  0  0  0
   20.4337   -7.6722  -14.2791 C   0  0  0  0  0  0  0  0  0  0  0  0
   20.6102   -7.0434  -15.4731 O   0  0  0  0  0  0  0  0  0  0  0  0
   22.8225   -5.1154  -11.9463 O   0  0  0  0  0  0  0  0  0  0  0  0
   20.8563   -8.8815  -14.2157 O   0  0  0  0  0  0  0  0  0  0  0  0
  2  1  1  6
  2  4  1  0
  3  2  1  0
  4  5  1  1
  6  4  1  0
  7  6  2  0
  9  8  1  6
  9 10  1  0
  9 11  1  0
 11 13  1  0
 11 12  1  6
 12  6  1  0
 13 15  1  0
 14 13  2  0
 15 16  1  0
 16 20  1  0
 16 17  1  1
 17 18  1  0
 18 22  1  0
 19 18  2  0
 20 23  2  0
 20 21  1  0
M  END
$$$$
