FRC.pdb
     RDKit          3D

 29 29  0  0  1  0  0  0  0  0999 V2000
   28.5933  -20.7037   -9.1312 N   0  0  0  0  0  0  0  0  0  0  0  0
   27.1674  -20.6336   -8.8896 C   0  0  1  0  0  0  0  0  0  0  0  0
   26.9219  -19.4403   -7.9968 C   0  0  0  0  0  0  0  0  0  0  0  0
   27.5862  -19.6892   -6.6882 C   0  0  0  0  0  0  0  0  0  0  0  0
   27.0812  -20.6213   -5.7956 C   0  0  0  0  0  0  0  0  0  0  0  0
   27.7031  -20.8454   -4.5856 C   0  0  0  0  0  0  0  0  0  0  0  0
   28.8383  -20.1445   -4.2452 C   0  0  0  0  0  0  0  0  0  0  0  0
   29.3568  -19.2175   -5.1112 C   0  0  0  0  0  0  0  0  0  0  0  0
   28.7291  -18.9953   -6.3256 C   0  0  0  0  0  0  0  0  0  0  0  0
   26.4642  -20.5556  -10.1678 C   0  0  0  0  0  0  0  0  0  0  0  0
   26.7059  -19.5979  -10.9509 O   0  0  0  0  0  0  0  0  0  0  0  0
   24.9465  -26.1425  -14.5975 N   0  0  0  0  0  0  0  0  0  0  0  0
   23.7577  -25.4921  -15.0266 C   0  0  0  0  0  0  0  0  0  0  0  0
   22.6689  -26.1859  -15.1493 N   0  0  0  0  0  0  0  0  0  0  0  0
   23.6839  -24.1200  -15.3325 N   0  0  0  0  0  0  0  0  0  0  0  0
   24.8027  -23.2565  -15.1192 C   0  0  0  0  0  0  0  0  0  0  0  0
   24.4778  -22.0896  -14.2107 C   0  0  0  0  0  0  0  0  0  0  0  0
   25.0499  -22.4020  -12.8566 C   0  0  0  0  0  0  0  0  0  0  0  0
   24.7930  -21.3112  -11.8404 C   0  0  2  0  0  0  0  0  0  0  0  0
   25.5007  -21.5022  -10.6108 N   0  0  0  0  0  0  0  0  0  0  0  0
   23.3132  -21.1706  -11.6133 C   0  0  0  0  0  0  0  0  0  0  0  0
   22.8404  -21.3251  -10.4714 O   0  0  0  0  0  0  0  0  0  0  0  0
   21.7957  -25.8136  -15.5531 N   0  0  0  0  0  0  0  0  0  0  0  0
   22.4506  -20.8623  -12.6936 C   0  0  1  0  0  0  0  0  0  0  0  0
   21.2340  -20.0979  -12.5777 C   0  0  0  0  0  0  0  0  0  0  0  0
   21.4459  -18.7625  -11.9310 S   0  0  0  0  0  0  0  0  0  0  0  0
   20.1079  -18.2667  -10.8538 C   0  0  0  0  0  0  0  0  0  0  0  0
   20.5068  -19.9642  -13.8839 O   0  0  0  0  0  0  0  0  0  0  0  0
   19.1406  -19.9852  -14.0248 O   0  0  0  0  0  0  0  0  0  0  0  0
  2  3  1  0
  2  1  1  6
  3  4  1  0
  4  9  2  0
  5  4  1  0
  5  6  2  0
  6  7  1  0
  7  8  2  0
  9  8  1  0
 10 20  1  0
 10  2  1  0
 11 10  2  0
 13 12  1  0
 14 13  2  0
 15 13  1  0
 16 15  1  0
 17 18  1  0
 17 16  1  0
 19 18  1  6
 19 20  1  0
 21 19  1  0
 21 22  2  0
 23 24  1  0
 23 21  1  0
 24 25  1  6
 26 25  1  0
 27 24  1  0
 28 27  1  0
 29 27  2  0
M  END
$$$$
