FRC.pdb
     RDKit          3D

 29 29  0  0  1  0  0  0  0  0999 V2000
   26.0355  -21.0808  -19.2928 N   0  0  0  0  0  0  0  0  0  0  0  0
   25.2193  -20.3445  -18.3504 C   0  0  1  0  0  0  0  0  0  0  0  0
   24.2361  -19.5254  -19.1527 C   0  0  0  0  0  0  0  0  0  0  0  0
   24.9852  -18.4441  -19.8493 C   0  0  0  0  0  0  0  0  0  0  0  0
   25.3487  -17.2835  -19.1851 C   0  0  0  0  0  0  0  0  0  0  0  0
   26.0426  -16.2871  -19.8384 C   0  0  0  0  0  0  0  0  0  0  0  0
   26.3856  -16.4307  -21.1641 C   0  0  0  0  0  0  0  0  0  0  0  0
   26.0373  -17.5694  -21.8425 C   0  0  0  0  0  0  0  0  0  0  0  0
   25.3403  -18.5680  -21.1827 C   0  0  0  0  0  0  0  0  0  0  0  0
   24.5785  -21.2818  -17.4310 C   0  0  0  0  0  0  0  0  0  0  0  0
   24.2040  -22.4082  -17.8551 O   0  0  0  0  0  0  0  0  0  0  0  0
   25.7683  -21.3469   -8.9752 N   0  0  0  0  0  0  0  0  0  0  0  0
   24.4159  -21.1684   -9.3743 C   0  0  0  0  0  0  0  0  0  0  0  0
   23.4930  -21.1098   -8.4650 N   0  0  0  0  0  0  0  0  0  0  0  0
   24.0057  -21.0489  -10.7156 N   0  0  0  0  0  0  0  0  0  0  0  0
   24.9586  -21.0577  -11.7810 C   0  0  0  0  0  0  0  0  0  0  0  0
   24.3317  -20.7776  -13.1305 C   0  0  0  0  0  0  0  0  0  0  0  0
   24.2014  -22.0923  -13.8466 C   0  0  0  0  0  0  0  0  0  0  0  0
   23.6264  -21.9525  -15.2388 C   0  0  2  0  0  0  0  0  0  0  0  0
   24.3370  -21.0159  -16.0556 N   0  0  0  0  0  0  0  0  0  0  0  0
   22.1640  -21.6141  -15.1499 C   0  0  0  0  0  0  0  0  0  0  0  0
   21.8057  -20.4295  -15.0095 O   0  0  0  0  0  0  0  0  0  0  0  0
   22.4870  -21.0205   -8.6757 N   0  0  0  0  0  0  0  0  0  0  0  0
   21.1878  -22.6376  -15.2251 C   0  0  2  0  0  0  0  0  0  0  0  0
   19.7640  -22.4126  -15.2301 C   0  0  0  0  0  0  0  0  0  0  0  0
   18.9966  -23.5568  -15.8201 S   0  0  0  0  0  0  0  0  0  0  0  0
   19.7811  -24.2838  -17.2528 C   0  0  0  0  0  0  0  0  0  0  0  0
   19.2320  -22.0362  -13.8780 O   0  0  0  0  0  0  0  0  0  0  0  0
   18.1405  -21.2304  -13.6629 O   0  0  0  0  0  0  0  0  0  0  0  0
  2  3  1  0
  2  1  1  6
  3  4  1  0
  4  9  2  0
  5  4  1  0
  5  6  2  0
  6  7  1  0
  7  8  2  0
  9  8  1  0
 10 20  1  0
 10  2  1  0
 11 10  2  0
 13 12  1  0
 14 13  2  0
 15 13  1  0
 16 15  1  0
 17 18  1  0
 17 16  1  0
 19 18  1  1
 19 20  1  0
 21 19  1  0
 21 22  2  0
 23 24  1  0
 23 21  1  0
 24 25  1  1
 26 25  1  0
 27 24  1  0
 28 27  1  0
 29 27  2  0
M  END
$$$$
