FRC.pdb
     RDKit          3D

 29 29  0  0  1  0  0  0  0  0999 V2000
   25.8321  -18.6917   -7.8633 N   0  0  0  0  0  0  0  0  0  0  0  0
   26.5881  -19.7710   -8.4633 C   0  0  1  0  0  0  0  0  0  0  0  0
   26.6370  -20.8973   -7.4580 C   0  0  0  0  0  0  0  0  0  0  0  0
   27.4600  -20.4558   -6.2990 C   0  0  0  0  0  0  0  0  0  0  0  0
   28.8278  -20.2700   -6.4225 C   0  0  0  0  0  0  0  0  0  0  0  0
   29.5823  -19.8608   -5.3434 C   0  0  0  0  0  0  0  0  0  0  0  0
   28.9865  -19.6300   -4.1237 C   0  0  0  0  0  0  0  0  0  0  0  0
   27.6355  -19.8068   -3.9768 C   0  0  0  0  0  0  0  0  0  0  0  0
   26.8811  -20.2179   -5.0631 C   0  0  0  0  0  0  0  0  0  0  0  0
   25.9660  -20.1509   -9.7294 C   0  0  0  0  0  0  0  0  0  0  0  0
   24.7165  -20.0494   -9.8613 O   0  0  0  0  0  0  0  0  0  0  0  0
   26.8057  -19.4188  -18.0056 N   0  0  0  0  0  0  0  0  0  0  0  0
   27.6218  -18.4290  -17.3936 C   0  0  0  0  0  0  0  0  0  0  0  0
   27.7497  -17.2737  -17.9690 N   0  0  0  0  0  0  0  0  0  0  0  0
   28.3124  -18.6243  -16.1826 N   0  0  0  0  0  0  0  0  0  0  0  0
   28.1764  -19.8410  -15.4449 C   0  0  0  0  0  0  0  0  0  0  0  0
   26.9489  -19.8550  -14.5586 C   0  0  0  0  0  0  0  0  0  0  0  0
   27.3957  -20.2493  -13.1790 C   0  0  0  0  0  0  0  0  0  0  0  0
   26.2552  -20.3285  -12.1884 C   0  0  2  0  0  0  0  0  0  0  0  0
   26.6795  -20.6404  -10.8572 N   0  0  0  0  0  0  0  0  0  0  0  0
   25.2219  -21.3019  -12.6841 C   0  0  0  0  0  0  0  0  0  0  0  0
   25.2480  -22.4872  -12.3022 O   0  0  0  0  0  0  0  0  0  0  0  0
   28.3887  -16.5359  -17.6350 N   0  0  0  0  0  0  0  0  0  0  0  0
   24.2153  -20.8780  -13.5860 C   0  0  2  0  0  0  0  0  0  0  0  0
   22.8604  -21.3698  -13.5911 C   0  0  0  0  0  0  0  0  0  0  0  0
   22.2098  -21.2954  -12.2429 S   0  0  0  0  0  0  0  0  0  0  0  0
   20.8503  -22.4384  -12.0383 C   0  0  0  0  0  0  0  0  0  0  0  0
   22.0118  -20.7200  -14.6448 O   0  0  0  0  0  0  0  0  0  0  0  0
   20.9354  -21.3128  -15.2585 O   0  0  0  0  0  0  0  0  0  0  0  0
  2  3  1  0
  2  1  1  1
  3  4  1  0
  4  9  2  0
  5  4  1  0
  5  6  2  0
  6  7  1  0
  7  8  2  0
  9  8  1  0
 10 20  1  0
 10  2  1  0
 11 10  2  0
 13 12  1  0
 14 13  2  0
 15 13  1  0
 16 15  1  0
 17 18  1  0
 17 16  1  0
 19 18  1  6
 19 20  1  0
 21 19  1  0
 21 22  2  0
 23 24  1  0
 23 21  1  0
 24 25  1  1
 26 25  1  0
 27 24  1  0
 28 27  1  0
 29 27  2  0
M  END
$$$$
