FRC.pdb
     RDKit          3D

 29 29  0  0  1  0  0  0  0  0999 V2000
   26.4007  -17.2997  -17.3494 N   0  0  0  0  0  0  0  0  0  0  0  0
   26.1281  -17.1884  -15.9318 C   0  0  1  0  0  0  0  0  0  0  0  0
   25.2339  -15.9863  -15.7400 C   0  0  0  0  0  0  0  0  0  0  0  0
   26.0271  -14.7608  -16.0311 C   0  0  0  0  0  0  0  0  0  0  0  0
   25.8527  -14.0603  -17.2141 C   0  0  0  0  0  0  0  0  0  0  0  0
   26.5918  -12.9261  -17.4754 C   0  0  0  0  0  0  0  0  0  0  0  0
   27.5167  -12.4712  -16.5624 C   0  0  0  0  0  0  0  0  0  0  0  0
   27.7071  -13.1468  -15.3854 C   0  0  0  0  0  0  0  0  0  0  0  0
   26.9627  -14.2857  -15.1267 C   0  0  0  0  0  0  0  0  0  0  0  0
   25.5337  -18.4348  -15.4548 C   0  0  0  0  0  0  0  0  0  0  0  0
   24.8126  -19.1154  -16.2330 O   0  0  0  0  0  0  0  0  0  0  0  0
   28.5949  -22.1464   -8.6932 N   0  0  0  0  0  0  0  0  0  0  0  0
   28.6589  -21.9930  -10.1049 C   0  0  0  0  0  0  0  0  0  0  0  0
   29.7400  -22.3454  -10.7286 N   0  0  0  0  0  0  0  0  0  0  0  0
   27.6070  -21.4746  -10.8835 N   0  0  0  0  0  0  0  0  0  0  0  0
   26.3725  -21.0769  -10.2829 C   0  0  0  0  0  0  0  0  0  0  0  0
   25.4250  -20.4244  -11.2674 C   0  0  0  0  0  0  0  0  0  0  0  0
   25.8055  -20.9019  -12.6405 C   0  0  0  0  0  0  0  0  0  0  0  0
   25.0712  -20.1732  -13.7442 C   0  0  2  0  0  0  0  0  0  0  0  0
   25.7097  -18.9558  -14.1440 N   0  0  0  0  0  0  0  0  0  0  0  0
   23.6430  -19.9424  -13.3343 C   0  0  0  0  0  0  0  0  0  0  0  0
   23.2219  -18.7820  -13.1678 O   0  0  0  0  0  0  0  0  0  0  0  0
   29.8855  -22.2122  -11.7412 N   0  0  0  0  0  0  0  0  0  0  0  0
   22.7703  -21.0402  -13.1355 C   0  0  2  0  0  0  0  0  0  0  0  0
   21.3430  -20.9978  -13.3325 C   0  0  0  0  0  0  0  0  0  0  0  0
   20.9585  -20.5042  -14.6945 S   0  0  0  0  0  0  0  0  0  0  0  0
   19.1924  -20.3648  -14.9349 C   0  0  0  0  0  0  0  0  0  0  0  0
   20.6751  -22.3039  -13.0150 O   0  0  0  0  0  0  0  0  0  0  0  0
   21.0717  -23.5249  -13.5035 O   0  0  0  0  0  0  0  0  0  0  0  0
  2  3  1  0
  2  1  1  6
  3  4  1  0
  4  9  2  0
  5  4  1  0
  5  6  2  0
  6  7  1  0
  7  8  2  0
  9  8  1  0
 10 20  1  0
 10  2  1  0
 11 10  2  0
 13 12  1  0
 14 13  2  0
 15 13  1  0
 16 15  1  0
 17 18  1  0
 17 16  1  0
 19 18  1  1
 19 20  1  0
 21 19  1  0
 21 22  2  0
 23 24  1  0
 23 21  1  0
 24 25  1  1
 26 25  1  0
 27 24  1  0
 28 27  1  0
 29 27  2  0
M  END
$$$$
