FRC.pdb
     RDKit          3D

 29 29  0  0  1  0  0  0  0  0999 V2000
   19.4252  -31.2613   -1.0547 N   0  0  0  0  0  0  0  0  0  0  0  0
   20.5781  -30.6241   -1.6557 C   0  0  1  0  0  0  0  0  0  0  0  0
   21.1379  -29.6582   -0.6383 C   0  0  0  0  0  0  0  0  0  0  0  0
   20.2158  -28.4938   -0.5405 C   0  0  0  0  0  0  0  0  0  0  0  0
   19.4239  -28.3007    0.5803 C   0  0  0  0  0  0  0  0  0  0  0  0
   18.5727  -27.2192    0.6622 C   0  0  0  0  0  0  0  0  0  0  0  0
   18.4965  -26.3123   -0.3710 C   0  0  0  0  0  0  0  0  0  0  0  0
   19.2698  -26.4817   -1.4897 C   0  0  0  0  0  0  0  0  0  0  0  0
   20.1235  -27.5694   -1.5682 C   0  0  0  0  0  0  0  0  0  0  0  0
   21.5344  -31.6478   -2.0704 C   0  0  0  0  0  0  0  0  0  0  0  0
   21.6402  -32.7071   -1.3956 O   0  0  0  0  0  0  0  0  0  0  0  0
   27.6039  -32.5195   -8.6600 N   0  0  0  0  0  0  0  0  0  0  0  0
   27.7698  -33.6157   -7.7706 C   0  0  0  0  0  0  0  0  0  0  0  0
   28.7132  -34.4758   -7.9994 N   0  0  0  0  0  0  0  0  0  0  0  0
   26.9628  -33.8325   -6.6378 N   0  0  0  0  0  0  0  0  0  0  0  0
   25.9736  -32.8787   -6.2444 C   0  0  0  0  0  0  0  0  0  0  0  0
   25.2893  -33.2459   -4.9446 C   0  0  0  0  0  0  0  0  0  0  0  0
   24.1838  -32.2524   -4.7229 C   0  0  0  0  0  0  0  0  0  0  0  0
   23.4688  -32.4483   -3.4043 C   0  0  2  0  0  0  0  0  0  0  0  0
   22.3796  -31.5401   -3.2082 N   0  0  0  0  0  0  0  0  0  0  0  0
   24.4605  -32.3776   -2.2762 C   0  0  0  0  0  0  0  0  0  0  0  0
   24.9743  -31.2864   -1.9654 O   0  0  0  0  0  0  0  0  0  0  0  0
   28.9229  -35.2733   -7.3796 N   0  0  0  0  0  0  0  0  0  0  0  0
   24.8154  -33.5484   -1.5624 C   0  0  2  0  0  0  0  0  0  0  0  0
   25.7585  -33.5891   -0.4730 C   0  0  0  0  0  0  0  0  0  0  0  0
   25.2867  -34.4317    0.6732 S   0  0  0  0  0  0  0  0  0  0  0  0
   26.4670  -34.5488    2.0109 C   0  0  0  0  0  0  0  0  0  0  0  0
   27.1367  -33.9873   -0.9142 O   0  0  0  0  0  0  0  0  0  0  0  0
   27.4343  -34.5685   -2.1227 O   0  0  0  0  0  0  0  0  0  0  0  0
  2  3  1  0
  2  1  1  1
  3  4  1  0
  4  9  2  0
  5  4  1  0
  5  6  2  0
  6  7  1  0
  7  8  2  0
  9  8  1  0
 10 20  1  0
 10  2  1  0
 11 10  2  0
 13 12  1  0
 14 13  2  0
 15 13  1  0
 16 15  1  0
 17 18  1  0
 17 16  1  0
 19 18  1  6
 19 20  1  0
 21 19  1  0
 21 22  2  0
 23 24  1  0
 23 21  1  0
 24 25  1  6
 26 25  1  0
 27 24  1  0
 28 27  1  0
 29 27  2  0
M  END
$$$$
