FRC.pdb
     RDKit          3D

 29 29  0  0  1  0  0  0  0  0999 V2000
   27.9614  -20.6081  -15.6307 N   0  0  0  0  0  0  0  0  0  0  0  0
   27.0915  -19.6796  -14.9398 C   0  0  1  0  0  0  0  0  0  0  0  0
   26.4426  -18.8077  -15.9887 C   0  0  0  0  0  0  0  0  0  0  0  0
   27.3565  -17.6705  -16.2839 C   0  0  0  0  0  0  0  0  0  0  0  0
   28.0751  -17.6191  -17.4677 C   0  0  0  0  0  0  0  0  0  0  0  0
   28.9193  -16.5618  -17.7328 C   0  0  0  0  0  0  0  0  0  0  0  0
   29.0614  -15.5382  -16.8228 C   0  0  0  0  0  0  0  0  0  0  0  0
   28.3613  -15.5665  -15.6450 C   0  0  0  0  0  0  0  0  0  0  0  0
   27.5143  -16.6304  -15.3825 C   0  0  0  0  0  0  0  0  0  0  0  0
   26.1306  -20.4274  -14.1324 C   0  0  0  0  0  0  0  0  0  0  0  0
   25.7686  -21.5758  -14.5050 O   0  0  0  0  0  0  0  0  0  0  0  0
   20.6102  -21.3296   -8.7135 N   0  0  0  0  0  0  0  0  0  0  0  0
   21.5244  -21.9402   -7.8126 C   0  0  0  0  0  0  0  0  0  0  0  0
   21.0893  -22.8421   -6.9883 N   0  0  0  0  0  0  0  0  0  0  0  0
   22.8949  -21.6243   -7.7557 N   0  0  0  0  0  0  0  0  0  0  0  0
   23.4538  -20.6142   -8.5984 C   0  0  0  0  0  0  0  0  0  0  0  0
   23.3014  -20.9295  -10.0715 C   0  0  0  0  0  0  0  0  0  0  0  0
   24.5954  -20.5672  -10.7444 C   0  0  0  0  0  0  0  0  0  0  0  0
   24.5330  -20.6904  -12.2508 C   0  0  2  0  0  0  0  0  0  0  0  0
   25.5549  -19.9478  -12.9244 N   0  0  0  0  0  0  0  0  0  0  0  0
   23.1605  -20.3090  -12.7326 C   0  0  0  0  0  0  0  0  0  0  0  0
   22.7239  -19.1610  -12.5258 O   0  0  0  0  0  0  0  0  0  0  0  0
   21.6911  -23.3370   -6.3122 N   0  0  0  0  0  0  0  0  0  0  0  0
   22.3582  -21.2506  -13.4226 C   0  0  2  0  0  0  0  0  0  0  0  0
   21.0384  -20.9817  -13.9359 C   0  0  0  0  0  0  0  0  0  0  0  0
   20.8611  -21.4388  -15.3522 S   0  0  0  0  0  0  0  0  0  0  0  0
   22.2592  -21.0723  -16.4046 C   0  0  0  0  0  0  0  0  0  0  0  0
   19.9517  -21.5151  -13.0486 O   0  0  0  0  0  0  0  0  0  0  0  0
   18.6141  -21.2401  -13.1975 O   0  0  0  0  0  0  0  0  0  0  0  0
  2  3  1  0
  2  1  1  6
  3  4  1  0
  4  9  2  0
  5  4  1  0
  5  6  2  0
  6  7  1  0
  7  8  2  0
  9  8  1  0
 10 20  1  0
 10  2  1  0
 11 10  2  0
 13 12  1  0
 14 13  2  0
 15 13  1  0
 16 15  1  0
 17 18  1  0
 17 16  1  0
 19 18  1  1
 19 20  1  0
 21 19  1  0
 21 22  2  0
 23 24  1  0
 23 21  1  0
 24 25  1  6
 26 25  1  0
 27 24  1  0
 28 27  1  0
 29 27  2  0
M  END
$$$$
