FRC.pdb
     RDKit          3D

 29 29  0  0  1  0  0  0  0  0999 V2000
   22.2644  -18.2479  -19.3761 N   0  0  0  0  0  0  0  0  0  0  0  0
   23.0621  -18.1807  -18.1697 C   0  0  1  0  0  0  0  0  0  0  0  0
   22.5646  -17.0010  -17.3682 C   0  0  0  0  0  0  0  0  0  0  0  0
   22.8786  -15.7563  -18.1218 C   0  0  0  0  0  0  0  0  0  0  0  0
   24.1764  -15.4632  -18.5096 C   0  0  0  0  0  0  0  0  0  0  0  0
   24.4580  -14.3079  -19.2074 C   0  0  0  0  0  0  0  0  0  0  0  0
   23.4513  -13.4257  -19.5303 C   0  0  0  0  0  0  0  0  0  0  0  0
   22.1600  -13.6936  -19.1578 C   0  0  0  0  0  0  0  0  0  0  0  0
   21.8812  -14.8552  -18.4569 C   0  0  0  0  0  0  0  0  0  0  0  0
   22.9635  -19.4505  -17.4540 C   0  0  0  0  0  0  0  0  0  0  0  0
   21.8856  -20.1026  -17.4940 O   0  0  0  0  0  0  0  0  0  0  0  0
   29.1445  -25.0013  -16.4205 N   0  0  0  0  0  0  0  0  0  0  0  0
   27.8003  -25.2310  -16.0196 C   0  0  0  0  0  0  0  0  0  0  0  0
   27.5100  -26.3244  -15.3853 N   0  0  0  0  0  0  0  0  0  0  0  0
   26.7453  -24.3336  -16.2705 N   0  0  0  0  0  0  0  0  0  0  0  0
   26.9688  -23.1140  -16.9816 C   0  0  0  0  0  0  0  0  0  0  0  0
   25.6946  -22.3307  -17.2172 C   0  0  0  0  0  0  0  0  0  0  0  0
   25.0530  -22.1036  -15.8774 C   0  0  0  0  0  0  0  0  0  0  0  0
   23.8175  -21.2341  -15.9535 C   0  0  2  0  0  0  0  0  0  0  0  0
   24.0181  -20.0253  -16.6938 N   0  0  0  0  0  0  0  0  0  0  0  0
   23.3079  -20.9574  -14.5661 C   0  0  0  0  0  0  0  0  0  0  0  0
   24.0044  -20.3063  -13.7646 O   0  0  0  0  0  0  0  0  0  0  0  0
   26.5523  -26.5863  -15.1055 N   0  0  0  0  0  0  0  0  0  0  0  0
   22.0364  -21.4341  -14.1636 C   0  0  1  0  0  0  0  0  0  0  0  0
   21.3474  -21.0193  -12.9673 C   0  0  0  0  0  0  0  0  0  0  0  0
   21.2980  -19.5294  -12.8120 S   0  0  0  0  0  0  0  0  0  0  0  0
   20.6185  -18.9933  -11.2476 C   0  0  0  0  0  0  0  0  0  0  0  0
   19.9809  -21.6279  -12.8449 O   0  0  0  0  0  0  0  0  0  0  0  0
   19.4253  -22.0745  -11.6708 O   0  0  0  0  0  0  0  0  0  0  0  0
  2  3  1  0
  2  1  1  6
  3  4  1  0
  4  9  2  0
  5  4  1  0
  5  6  2  0
  6  7  1  0
  7  8  2  0
  9  8  1  0
 10 20  1  0
 10  2  1  0
 11 10  2  0
 13 12  1  0
 14 13  2  0
 15 13  1  0
 16 15  1  0
 17 18  1  0
 17 16  1  0
 19 18  1  1
 19 20  1  0
 21 19  1  0
 21 22  2  0
 23 24  1  0
 23 21  1  0
 24 25  1  1
 26 25  1  0
 27 24  1  0
 28 27  1  0
 29 27  2  0
M  END
$$$$
