FRC.pdb
     RDKit          3D

 29 29  0  0  1  0  0  0  0  0999 V2000
   25.7104  -18.3640  -18.1234 N   0  0  0  0  0  0  0  0  0  0  0  0
   25.5462  -18.7131  -16.7278 C   0  0  1  0  0  0  0  0  0  0  0  0
   25.9678  -17.5134  -15.9127 C   0  0  0  0  0  0  0  0  0  0  0  0
   27.4316  -17.3139  -16.0947 C   0  0  0  0  0  0  0  0  0  0  0  0
   27.9321  -16.1377  -16.6300 C   0  0  0  0  0  0  0  0  0  0  0  0
   29.2896  -15.9616  -16.7949 C   0  0  0  0  0  0  0  0  0  0  0  0
   30.1707  -16.9545  -16.4292 C   0  0  0  0  0  0  0  0  0  0  0  0
   29.7000  -18.1266  -15.8976 C   0  0  0  0  0  0  0  0  0  0  0  0
   28.3356  -18.2996  -15.7336 C   0  0  0  0  0  0  0  0  0  0  0  0
   24.1626  -19.1177  -16.4906 C   0  0  0  0  0  0  0  0  0  0  0  0
   23.2236  -18.3647  -16.8649 O   0  0  0  0  0  0  0  0  0  0  0  0
   24.9688  -23.8768  -14.9550 N   0  0  0  0  0  0  0  0  0  0  0  0
   24.1481  -24.8848  -15.5302 C   0  0  0  0  0  0  0  0  0  0  0  0
   24.0693  -26.0412  -14.9484 N   0  0  0  0  0  0  0  0  0  0  0  0
   23.4024  -24.7066  -16.7108 N   0  0  0  0  0  0  0  0  0  0  0  0
   23.3986  -23.4531  -17.3976 C   0  0  0  0  0  0  0  0  0  0  0  0
   22.1189  -22.6721  -17.1850 C   0  0  0  0  0  0  0  0  0  0  0  0
   22.1359  -22.1580  -15.7730 C   0  0  0  0  0  0  0  0  0  0  0  0
   22.4001  -20.6709  -15.6886 C   0  0  2  0  0  0  0  0  0  0  0  0
   23.7806  -20.3290  -15.8523 N   0  0  0  0  0  0  0  0  0  0  0  0
   21.8434  -20.1310  -14.4004 C   0  0  0  0  0  0  0  0  0  0  0  0
   22.4506  -20.3229  -13.3299 O   0  0  0  0  0  0  0  0  0  0  0  0
   23.4988  -26.8233  -15.3050 N   0  0  0  0  0  0  0  0  0  0  0  0
   20.6284  -19.4030  -14.3966 C   0  0  1  0  0  0  0  0  0  0  0  0
   20.0322  -18.8109  -13.2253 C   0  0  0  0  0  0  0  0  0  0  0  0
   19.2059  -17.6012  -13.5419 S   0  0  0  0  0  0  0  0  0  0  0  0
   20.1752  -16.1311  -13.8507 C   0  0  0  0  0  0  0  0  0  0  0  0
   19.2596  -19.8019  -12.4043 O   0  0  0  0  0  0  0  0  0  0  0  0
   18.8700  -19.6046  -11.1020 O   0  0  0  0  0  0  0  0  0  0  0  0
  2  3  1  0
  2  1  1  6
  3  4  1  0
  4  9  2  0
  5  4  1  0
  5  6  2  0
  6  7  1  0
  7  8  2  0
  9  8  1  0
 10 20  1  0
 10  2  1  0
 11 10  2  0
 13 12  1  0
 14 13  2  0
 15 13  1  0
 16 15  1  0
 17 18  1  0
 17 16  1  0
 19 18  1  1
 19 20  1  0
 21 19  1  0
 21 22  2  0
 23 24  1  0
 23 21  1  0
 24 25  1  1
 26 25  1  0
 27 24  1  0
 28 27  1  0
 29 27  2  0
M  END
$$$$
