FRC.pdb
     RDKit          3D

 29 29  0  0  1  0  0  0  0  0999 V2000
   38.6872   -2.3624   -6.1330 N   0  0  0  0  0  0  0  0  0  0  0  0
   38.5825   -3.8065   -6.1341 C   0  0  1  0  0  0  0  0  0  0  0  0
   37.1714   -4.1541   -5.7225 C   0  0  0  0  0  0  0  0  0  0  0  0
   36.9916   -3.7714   -4.2953 C   0  0  0  0  0  0  0  0  0  0  0  0
   37.5086   -4.5532   -3.2745 C   0  0  0  0  0  0  0  0  0  0  0  0
   37.3373   -4.1909   -1.9553 C   0  0  0  0  0  0  0  0  0  0  0  0
   36.6481   -3.0438   -1.6314 C   0  0  0  0  0  0  0  0  0  0  0  0
   36.1274   -2.2542   -2.6232 C   0  0  0  0  0  0  0  0  0  0  0  0
   36.3017   -2.6216   -3.9471 C   0  0  0  0  0  0  0  0  0  0  0  0
   38.9430   -4.3159   -7.4550 C   0  0  0  0  0  0  0  0  0  0  0  0
   38.7992   -3.5761   -8.4654 O   0  0  0  0  0  0  0  0  0  0  0  0
   43.5888  -10.9242   -7.0919 N   0  0  0  0  0  0  0  0  0  0  0  0
   42.4959  -10.1807   -6.5693 C   0  0  0  0  0  0  0  0  0  0  0  0
   41.9043  -10.6011   -5.4944 N   0  0  0  0  0  0  0  0  0  0  0  0
   42.0054   -8.9972   -7.1524 N   0  0  0  0  0  0  0  0  0  0  0  0
   42.6151   -8.4439   -8.3209 C   0  0  0  0  0  0  0  0  0  0  0  0
   42.0342   -7.0992   -8.7043 C   0  0  0  0  0  0  0  0  0  0  0  0
   40.5927   -7.3198   -9.0670 C   0  0  0  0  0  0  0  0  0  0  0  0
   39.7720   -6.0496   -9.0263 C   0  0  2  0  0  0  0  0  0  0  0  0
   39.4582   -5.6183   -7.6978 N   0  0  0  0  0  0  0  0  0  0  0  0
   38.5334   -6.2212   -9.8615 C   0  0  0  0  0  0  0  0  0  0  0  0
   37.5913   -6.9204   -9.4430 O   0  0  0  0  0  0  0  0  0  0  0  0
   41.1222  -10.1047   -5.0405 N   0  0  0  0  0  0  0  0  0  0  0  0
   38.4309   -5.5906  -11.1256 C   0  0  1  0  0  0  0  0  0  0  0  0
   37.2895   -5.6903  -12.0003 C   0  0  0  0  0  0  0  0  0  0  0  0
   36.4512   -4.4479  -12.0059 S   0  0  0  0  0  0  0  0  0  0  0  0
   35.0540   -4.5302  -13.1184 C   0  0  0  0  0  0  0  0  0  0  0  0
   37.6616   -6.1057  -13.3938 O   0  0  0  0  0  0  0  0  0  0  0  0
   36.9363   -6.9753  -14.1713 O   0  0  0  0  0  0  0  0  0  0  0  0
  2  3  1  0
  2  1  1  6
  3  4  1  0
  4  9  2  0
  5  4  1  0
  5  6  2  0
  6  7  1  0
  7  8  2  0
  9  8  1  0
 10 20  1  0
 10  2  1  0
 11 10  2  0
 13 12  1  0
 14 13  2  0
 15 13  1  0
 16 15  1  0
 17 18  1  0
 17 16  1  0
 19 18  1  1
 19 20  1  0
 21 19  1  0
 21 22  2  0
 23 24  1  0
 23 21  1  0
 24 25  1  6
 26 25  1  0
 27 24  1  0
 28 27  1  0
 29 27  2  0
M  END
$$$$
