FRC.pdb
     RDKit          3D

 29 29  0  0  1  0  0  0  0  0999 V2000
   17.7462  -11.7506    5.6434 N   0  0  0  0  0  0  0  0  0  0  0  0
   17.8723  -13.1624    5.3483 C   0  0  1  0  0  0  0  0  0  0  0  0
   19.0470  -13.3219    4.4124 C   0  0  0  0  0  0  0  0  0  0  0  0
   18.7631  -14.4575    3.4929 C   0  0  0  0  0  0  0  0  0  0  0  0
   19.3992  -15.6790    3.6474 C   0  0  0  0  0  0  0  0  0  0  0  0
   19.1300  -16.7255    2.7910 C   0  0  0  0  0  0  0  0  0  0  0  0
   18.2227  -16.5721    1.7667 C   0  0  0  0  0  0  0  0  0  0  0  0
   17.5809  -15.3737    1.5936 C   0  0  0  0  0  0  0  0  0  0  0  0
   17.8540  -14.3250    2.4560 C   0  0  0  0  0  0  0  0  0  0  0  0
   18.0214  -13.9055    6.5973 C   0  0  0  0  0  0  0  0  0  0  0  0
   18.4882  -13.3234    7.6132 O   0  0  0  0  0  0  0  0  0  0  0  0
   13.3003  -19.8871   10.9170 N   0  0  0  0  0  0  0  0  0  0  0  0
   14.4032  -19.5617   11.7525 C   0  0  0  0  0  0  0  0  0  0  0  0
   14.4223  -20.0038   12.9716 N   0  0  0  0  0  0  0  0  0  0  0  0
   15.4952  -18.7772   11.3356 N   0  0  0  0  0  0  0  0  0  0  0  0
   15.5766  -18.2791    9.9984 C   0  0  0  0  0  0  0  0  0  0  0  0
   16.7867  -17.3972    9.7740 C   0  0  0  0  0  0  0  0  0  0  0  0
   16.6896  -16.8481    8.3785 C   0  0  0  0  0  0  0  0  0  0  0  0
   17.8372  -15.9285    8.0240 C   0  0  2  0  0  0  0  0  0  0  0  0
   17.6713  -15.2733    6.7620 N   0  0  0  0  0  0  0  0  0  0  0  0
   19.1328  -16.6891    8.0886 C   0  0  0  0  0  0  0  0  0  0  0  0
   19.4796  -17.4118    7.1352 O   0  0  0  0  0  0  0  0  0  0  0  0
   15.1849  -19.8097   13.6387 N   0  0  0  0  0  0  0  0  0  0  0  0
   19.9642  -16.5886    9.2309 C   0  0  2  0  0  0  0  0  0  0  0  0
   21.2466  -17.2321    9.3695 C   0  0  0  0  0  0  0  0  0  0  0  0
   22.3498  -16.2679    9.6851 S   0  0  0  0  0  0  0  0  0  0  0  0
   23.1638  -15.6097    8.2358 C   0  0  0  0  0  0  0  0  0  0  0  0
   21.2204  -18.3723   10.3452 O   0  0  0  0  0  0  0  0  0  0  0  0
   22.1640  -19.3684   10.4105 O   0  0  0  0  0  0  0  0  0  0  0  0
  2  3  1  0
  2  1  1  1
  3  4  1  0
  4  9  2  0
  5  4  1  0
  5  6  2  0
  6  7  1  0
  7  8  2  0
  9  8  1  0
 10 20  1  0
 10  2  1  0
 11 10  2  0
 13 12  1  0
 14 13  2  0
 15 13  1  0
 16 15  1  0
 17 18  1  0
 17 16  1  0
 19 18  1  6
 19 20  1  0
 21 19  1  0
 21 22  2  0
 23 24  1  0
 23 21  1  0
 24 25  1  1
 26 25  1  0
 27 24  1  0
 28 27  1  0
 29 27  2  0
M  END
$$$$
