FRC.pdb
     RDKit          3D

 29 29  0  0  1  0  0  0  0  0999 V2000
   22.4840  -15.7451  -19.2639 N   0  0  0  0  0  0  0  0  0  0  0  0
   21.9119  -15.7636  -17.9340 C   0  0  1  0  0  0  0  0  0  0  0  0
   20.5171  -15.1935  -18.0378 C   0  0  0  0  0  0  0  0  0  0  0  0
   20.6258  -13.7440  -18.3586 C   0  0  0  0  0  0  0  0  0  0  0  0
   21.0659  -12.8329  -17.4116 C   0  0  0  0  0  0  0  0  0  0  0  0
   21.1635  -11.4921  -17.7176 C   0  0  0  0  0  0  0  0  0  0  0  0
   20.8243  -11.0370  -18.9721 C   0  0  0  0  0  0  0  0  0  0  0  0
   20.3865  -11.9186  -19.9255 C   0  0  0  0  0  0  0  0  0  0  0  0
   20.2898  -13.2647  -19.6142 C   0  0  0  0  0  0  0  0  0  0  0  0
   21.9428  -17.1285  -17.4139 C   0  0  0  0  0  0  0  0  0  0  0  0
   21.6436  -18.0886  -18.1739 O   0  0  0  0  0  0  0  0  0  0  0  0
   26.7002  -21.4918  -11.3604 N   0  0  0  0  0  0  0  0  0  0  0  0
   25.7238  -22.4086  -11.8365 C   0  0  0  0  0  0  0  0  0  0  0  0
   25.7709  -23.6422  -11.4389 N   0  0  0  0  0  0  0  0  0  0  0  0
   24.6912  -22.0587  -12.7269 N   0  0  0  0  0  0  0  0  0  0  0  0
   24.5621  -20.7222  -13.2167 C   0  0  0  0  0  0  0  0  0  0  0  0
   23.4150  -20.5636  -14.1922 C   0  0  0  0  0  0  0  0  0  0  0  0
   23.3850  -19.1233  -14.6197 C   0  0  0  0  0  0  0  0  0  0  0  0
   22.3152  -18.8346  -15.6497 C   0  0  2  0  0  0  0  0  0  0  0  0
   22.2939  -17.4692  -16.0792 N   0  0  0  0  0  0  0  0  0  0  0  0
   20.9762  -19.2722  -15.1238 C   0  0  0  0  0  0  0  0  0  0  0  0
   20.4695  -18.6895  -14.1465 O   0  0  0  0  0  0  0  0  0  0  0  0
   25.0964  -24.3646  -11.7344 N   0  0  0  0  0  0  0  0  0  0  0  0
   20.2849  -20.3468  -15.7351 C   0  0  2  0  0  0  0  0  0  0  0  0
   19.0303  -20.8833  -15.2705 C   0  0  0  0  0  0  0  0  0  0  0  0
   18.3779  -21.7871  -16.2725 S   0  0  0  0  0  0  0  0  0  0  0  0
   18.4504  -23.5182  -15.8313 C   0  0  0  0  0  0  0  0  0  0  0  0
   19.1445  -21.5458  -13.9286 O   0  0  0  0  0  0  0  0  0  0  0  0
   18.1137  -21.6770  -13.0302 O   0  0  0  0  0  0  0  0  0  0  0  0
  2  3  1  0
  2  1  1  6
  3  4  1  0
  4  9  2  0
  5  4  1  0
  5  6  2  0
  6  7  1  0
  7  8  2  0
  9  8  1  0
 10 20  1  0
 10  2  1  0
 11 10  2  0
 13 12  1  0
 14 13  2  0
 15 13  1  0
 16 15  1  0
 17 18  1  0
 17 16  1  0
 19 18  1  1
 19 20  1  0
 21 19  1  0
 21 22  2  0
 23 24  1  0
 23 21  1  0
 24 25  1  6
 26 25  1  0
 27 24  1  0
 28 27  1  0
 29 27  2  0
M  END
$$$$
