HEC.pdb
     RDKit          3D

 26 26  0  0  1  0  0  0  0  0999 V2000
   17.7786  -11.3681  -16.9385 N   0  0  0  0  0  0  0  0  0  0  0  0
   18.9593  -11.4210  -16.1282 C   0  0  1  0  0  0  0  0  0  0  0  0
   19.6371  -12.7583  -16.3175 C   0  0  0  0  0  0  0  0  0  0  0  0
   18.6985  -13.8100  -15.8559 C   0  0  0  0  0  0  0  0  0  0  0  0
   18.3042  -14.9419  -16.5351 C   0  0  0  0  0  0  0  0  0  0  0  0
   17.4329  -15.6440  -15.7580 N   0  0  0  0  0  0  0  0  0  0  0  0
   17.2879  -14.9505  -14.6020 C   0  0  0  0  0  0  0  0  0  0  0  0
   18.0497  -13.8513  -14.6670 N   0  0  0  0  0  0  0  0  0  0  0  0
   19.8555  -10.2877  -16.3981 C   0  0  0  0  0  0  0  0  0  0  0  0
   20.3348  -10.1862  -17.5726 O   0  0  0  0  0  0  0  0  0  0  0  0
   20.2175   -9.3091  -15.4429 N   0  0  0  0  0  0  0  0  0  0  0  0
   21.0818   -8.2182  -15.7597 C   0  0  1  0  0  0  0  0  0  0  0  0
   20.6206   -6.8613  -15.3949 C   0  0  0  0  0  0  0  0  0  0  0  0
   19.4033   -6.3103  -16.0066 C   0  0  0  0  0  0  0  0  0  0  0  0
   19.0263   -4.9348  -15.6324 C   0  0  0  0  0  0  0  0  0  0  0  0
   18.0144   -4.3465  -16.0733 O   0  0  0  0  0  0  0  0  0  0  0  0
   22.5017   -8.4977  -15.4044 C   0  0  0  0  0  0  0  0  0  0  0  0
   22.8383   -8.8464  -14.2371 O   0  0  0  0  0  0  0  0  0  0  0  0
   19.8011   -4.1791  -14.7319 O   0  0  0  0  0  0  0  0  0  0  0  0
   23.5494   -8.3881  -16.3582 N   0  0  0  0  0  0  0  0  0  0  0  0
   24.9104   -8.7570  -16.0215 C   0  0  1  0  0  0  0  0  0  0  0  0
   24.9289  -10.2574  -15.7877 C   0  0  0  0  0  0  0  0  0  0  0  0
   26.6103  -10.8828  -15.5547 S   0  0  0  0  0  0  0  0  0  0  0  0
   25.7652   -8.4941  -17.1958 C   0  0  0  0  0  0  0  0  0  0  0  0
   25.2461   -8.3827  -18.3263 O   0  0  0  0  0  0  0  0  0  0  0  0
   27.1410   -8.3654  -17.0820 O   0  0  0  0  0  0  0  0  0  0  0  0
  2  1  1  6
  2  3  1  0
  3  4  1  0
  4  8  1  0
  4  5  2  0
  5  6  1  0
  7  6  1  0
  8  7  2  0
  9 11  1  0
  9  2  1  0
 10  9  2  0
 12 11  1  0
 13 14  1  0
 12 13  1  1
 14 15  1  0
 15 19  1  0
 16 15  2  0
 17 12  1  0
 17 18  2  0
 20 17  1  0
 21 20  1  0
 21 22  1  6
 23 22  1  0
 24 21  1  0
 25 24  2  0
 26 24  1  0
M  END
$$$$
