HEC.pdb
     RDKit          3D

 26 26  0  0  1  0  0  0  0  0999 V2000
   25.6582  -11.2228  -18.4371 N   0  0  0  0  0  0  0  0  0  0  0  0
   25.3179  -10.9134  -17.0799 C   0  0  1  0  0  0  0  0  0  0  0  0
   26.5617  -10.4822  -16.3377 C   0  0  0  0  0  0  0  0  0  0  0  0
   27.4629  -11.6567  -16.2453 C   0  0  0  0  0  0  0  0  0  0  0  0
   27.4870  -12.6227  -15.2634 C   0  0  0  0  0  0  0  0  0  0  0  0
   28.4649  -13.5256  -15.5539 N   0  0  0  0  0  0  0  0  0  0  0  0
   29.0444  -13.1212  -16.7111 C   0  0  0  0  0  0  0  0  0  0  0  0
   28.4388  -11.9993  -17.1207 N   0  0  0  0  0  0  0  0  0  0  0  0
   24.2382   -9.9191  -17.0030 C   0  0  0  0  0  0  0  0  0  0  0  0
   24.3311   -8.8938  -17.7511 O   0  0  0  0  0  0  0  0  0  0  0  0
   23.1101  -10.0275  -16.1564 N   0  0  0  0  0  0  0  0  0  0  0  0
   22.0670   -9.0530  -16.1485 C   0  0  1  0  0  0  0  0  0  0  0  0
   20.6905   -9.5368  -15.9082 C   0  0  0  0  0  0  0  0  0  0  0  0
   19.5638   -8.5942  -15.9462 C   0  0  0  0  0  0  0  0  0  0  0  0
   18.2187   -9.1436  -15.6944 C   0  0  0  0  0  0  0  0  0  0  0  0
   17.7075   -9.2378  -14.5568 O   0  0  0  0  0  0  0  0  0  0  0  0
   22.4329   -7.8370  -15.3686 C   0  0  0  0  0  0  0  0  0  0  0  0
   22.9037   -7.9149  -14.1984 O   0  0  0  0  0  0  0  0  0  0  0  0
   17.4053   -9.6074  -16.7458 O   0  0  0  0  0  0  0  0  0  0  0  0
   22.2726   -6.5287  -15.8997 N   0  0  0  0  0  0  0  0  0  0  0  0
   22.6446   -5.3574  -15.1306 C   0  0  1  0  0  0  0  0  0  0  0  0
   23.4332   -4.4423  -16.0509 C   0  0  0  0  0  0  0  0  0  0  0  0
   25.0611   -5.1246  -16.4470 S   0  0  0  0  0  0  0  0  0  0  0  0
   21.4112   -4.6360  -14.7604 C   0  0  0  0  0  0  0  0  0  0  0  0
   20.3307   -4.9352  -15.3106 O   0  0  0  0  0  0  0  0  0  0  0  0
   21.4145   -3.6257  -13.8108 O   0  0  0  0  0  0  0  0  0  0  0  0
  2  1  1  6
  2  3  1  0
  3  4  1  0
  4  8  1  0
  4  5  2  0
  5  6  1  0
  7  6  1  0
  8  7  2  0
  9 11  1  0
  9  2  1  0
 10  9  2  0
 12 11  1  0
 13 14  1  0
 12 13  1  1
 14 15  1  0
 15 19  1  0
 16 15  2  0
 17 12  1  0
 17 18  2  0
 20 17  1  0
 21 20  1  0
 21 22  1  6
 23 22  1  0
 24 21  1  0
 25 24  2  0
 26 24  1  0
M  END
$$$$
