HEC.pdb
     RDKit          3D

 26 26  0  0  1  0  0  0  0  0999 V2000
   24.7300  -11.9433  -18.1513 N   0  0  0  0  0  0  0  0  0  0  0  0
   24.1754  -11.7765  -16.8405 C   0  0  1  0  0  0  0  0  0  0  0  0
   25.2964  -11.6539  -15.8344 C   0  0  0  0  0  0  0  0  0  0  0  0
   25.9768  -12.9695  -15.7535 C   0  0  0  0  0  0  0  0  0  0  0  0
   27.1979  -13.3187  -16.2873 C   0  0  0  0  0  0  0  0  0  0  0  0
   27.4573  -14.6215  -15.9852 N   0  0  0  0  0  0  0  0  0  0  0  0
   26.4018  -15.0779  -15.2668 C   0  0  0  0  0  0  0  0  0  0  0  0
   25.5170  -14.0820  -15.1314 N   0  0  0  0  0  0  0  0  0  0  0  0
   23.2384  -10.6454  -16.7861 C   0  0  0  0  0  0  0  0  0  0  0  0
   23.5881   -9.5663  -17.3628 O   0  0  0  0  0  0  0  0  0  0  0  0
   21.9813  -10.6787  -16.1382 N   0  0  0  0  0  0  0  0  0  0  0  0
   21.0852   -9.5678  -16.1562 C   0  0  1  0  0  0  0  0  0  0  0  0
   19.6451   -9.8570  -15.9858 C   0  0  0  0  0  0  0  0  0  0  0  0
   18.6659   -8.7621  -16.0312 C   0  0  0  0  0  0  0  0  0  0  0  0
   17.2436   -9.1260  -15.8931 C   0  0  0  0  0  0  0  0  0  0  0  0
   16.8401  -10.2936  -15.6972 O   0  0  0  0  0  0  0  0  0  0  0  0
   21.5809   -8.4259  -15.3370 C   0  0  0  0  0  0  0  0  0  0  0  0
   22.1143   -8.6025  -14.2049 O   0  0  0  0  0  0  0  0  0  0  0  0
   16.2254   -8.1570  -15.9745 O   0  0  0  0  0  0  0  0  0  0  0  0
   21.4808   -7.0813  -15.7858 N   0  0  0  0  0  0  0  0  0  0  0  0
   21.9584   -5.9820  -14.9701 C   0  0  1  0  0  0  0  0  0  0  0  0
   22.9643   -5.2046  -15.8009 C   0  0  0  0  0  0  0  0  0  0  0  0
   23.5167   -3.7020  -14.9586 S   0  0  0  0  0  0  0  0  0  0  0  0
   20.8247   -5.0742  -14.7071 C   0  0  0  0  0  0  0  0  0  0  0  0
   19.9157   -4.9576  -15.5557 O   0  0  0  0  0  0  0  0  0  0  0  0
   20.7360   -4.3389  -13.5349 O   0  0  0  0  0  0  0  0  0  0  0  0
  2  1  1  6
  2  3  1  0
  3  4  1  0
  4  8  1  0
  4  5  2  0
  5  6  1  0
  7  6  1  0
  8  7  2  0
  9 11  1  0
  9  2  1  0
 10  9  2  0
 12 11  1  0
 13 14  1  0
 12 13  1  1
 14 15  1  0
 15 19  1  0
 16 15  2  0
 17 12  1  0
 17 18  2  0
 20 17  1  0
 21 20  1  0
 21 22  1  6
 23 22  1  0
 24 21  1  0
 25 24  2  0
 26 24  1  0
M  END
$$$$
