HEC.pdb
     RDKit          3D

 26 26  0  0  1  0  0  0  0  0999 V2000
   27.8570  -20.0745  -16.1296 N   0  0  0  0  0  0  0  0  0  0  0  0
   26.7256  -20.9429  -15.9906 C   0  0  1  0  0  0  0  0  0  0  0  0
   27.1420  -22.1935  -15.2515 C   0  0  0  0  0  0  0  0  0  0  0  0
   28.2152  -22.8477  -16.0394 C   0  0  0  0  0  0  0  0  0  0  0  0
   28.7131  -22.4618  -17.2645 C   0  0  0  0  0  0  0  0  0  0  0  0
   29.6914  -23.3325  -17.6395 N   0  0  0  0  0  0  0  0  0  0  0  0
   29.7998  -24.2541  -16.6509 C   0  0  0  0  0  0  0  0  0  0  0  0
   28.9113  -23.9577  -15.6939 N   0  0  0  0  0  0  0  0  0  0  0  0
   25.5904  -20.2596  -15.3543 C   0  0  0  0  0  0  0  0  0  0  0  0
   25.8328  -19.5596  -14.3195 O   0  0  0  0  0  0  0  0  0  0  0  0
   24.2546  -20.3297  -15.8147 N   0  0  0  0  0  0  0  0  0  0  0  0
   23.2011  -19.5773  -15.2135 C   0  0  1  0  0  0  0  0  0  0  0  0
   22.4901  -18.6041  -16.0703 C   0  0  0  0  0  0  0  0  0  0  0  0
   23.1551  -17.3570  -16.4730 C   0  0  0  0  0  0  0  0  0  0  0  0
   22.3989  -16.4450  -17.3509 C   0  0  0  0  0  0  0  0  0  0  0  0
   21.5428  -15.6322  -16.9376 O   0  0  0  0  0  0  0  0  0  0  0  0
   22.3052  -20.4244  -14.3766 C   0  0  0  0  0  0  0  0  0  0  0  0
   21.7651  -21.4722  -14.8322 O   0  0  0  0  0  0  0  0  0  0  0  0
   22.5992  -16.4315  -18.7445 O   0  0  0  0  0  0  0  0  0  0  0  0
   22.0129  -20.0992  -13.0244 N   0  0  0  0  0  0  0  0  0  0  0  0
   21.1266  -20.9269  -12.2299 C   0  0  1  0  0  0  0  0  0  0  0  0
   21.2889  -20.5036  -10.7805 C   0  0  0  0  0  0  0  0  0  0  0  0
   20.8415  -18.7687  -10.5306 S   0  0  0  0  0  0  0  0  0  0  0  0
   19.7356  -20.6178  -12.6151 C   0  0  0  0  0  0  0  0  0  0  0  0
   18.8058  -21.3492  -12.2147 O   0  0  0  0  0  0  0  0  0  0  0  0
   19.4255  -19.5294  -13.4160 O   0  0  0  0  0  0  0  0  0  0  0  0
  2  1  1  1
  2  3  1  0
  3  4  1  0
  4  8  1  0
  4  5  2  0
  5  6  1  0
  7  6  1  0
  8  7  2  0
  9 11  1  0
  9  2  1  0
 10  9  2  0
 12 11  1  0
 13 14  1  0
 12 13  1  6
 14 15  1  0
 15 19  1  0
 16 15  2  0
 17 12  1  0
 17 18  2  0
 20 17  1  0
 21 20  1  0
 21 22  1  1
 23 22  1  0
 24 21  1  0
 25 24  2  0
 26 24  1  0
M  END
$$$$
