HEC.pdb
     RDKit          3D

 26 26  0  0  1  0  0  0  0  0999 V2000
   20.0527  -13.6028  -17.6943 N   0  0  0  0  0  0  0  0  0  0  0  0
   20.1039  -12.3072  -18.3046 C   0  0  1  0  0  0  0  0  0  0  0  0
   18.9690  -12.1745  -19.2936 C   0  0  0  0  0  0  0  0  0  0  0  0
   19.2288  -13.1174  -20.4089 C   0  0  0  0  0  0  0  0  0  0  0  0
   19.9168  -12.8694  -21.5764 C   0  0  0  0  0  0  0  0  0  0  0  0
   19.9279  -14.0021  -22.3333 N   0  0  0  0  0  0  0  0  0  0  0  0
   19.2501  -14.9482  -21.6378 C   0  0  0  0  0  0  0  0  0  0  0  0
   18.8332  -14.4111  -20.4842 N   0  0  0  0  0  0  0  0  0  0  0  0
   20.1103  -11.2331  -17.3013 C   0  0  0  0  0  0  0  0  0  0  0  0
   19.1614  -11.2172  -16.4535 O   0  0  0  0  0  0  0  0  0  0  0  0
   21.0966  -10.2224  -17.2180 N   0  0  0  0  0  0  0  0  0  0  0  0
   21.0830   -9.2271  -16.1949 C   0  0  1  0  0  0  0  0  0  0  0  0
   22.2614   -9.1558  -15.3044 C   0  0  0  0  0  0  0  0  0  0  0  0
   23.6111   -9.0645  -15.8784 C   0  0  0  0  0  0  0  0  0  0  0  0
   24.7379   -8.9573  -14.9333 C   0  0  0  0  0  0  0  0  0  0  0  0
   24.6026   -8.9266  -13.6902 O   0  0  0  0  0  0  0  0  0  0  0  0
   20.6143   -7.9045  -16.6964 C   0  0  0  0  0  0  0  0  0  0  0  0
   20.9220   -7.4834  -17.8476 O   0  0  0  0  0  0  0  0  0  0  0  0
   26.0700   -8.8818  -15.3827 O   0  0  0  0  0  0  0  0  0  0  0  0
   19.7974   -7.0497  -15.9080 N   0  0  0  0  0  0  0  0  0  0  0  0
   19.4404   -5.7219  -16.3677 C   0  0  1  0  0  0  0  0  0  0  0  0
   17.9450   -5.5570  -16.1602 C   0  0  0  0  0  0  0  0  0  0  0  0
   17.4107   -3.8503  -16.4321 S   0  0  0  0  0  0  0  0  0  0  0  0
   20.1070   -4.7353  -15.4953 C   0  0  0  0  0  0  0  0  0  0  0  0
   20.5893   -3.6960  -15.9924 O   0  0  0  0  0  0  0  0  0  0  0  0
   20.2157   -4.9282  -14.1265 O   0  0  0  0  0  0  0  0  0  0  0  0
  2  1  1  1
  2  3  1  0
  3  4  1  0
  4  8  1  0
  4  5  2  0
  5  6  1  0
  7  6  1  0
  8  7  2  0
  9 11  1  0
  9  2  1  0
 10  9  2  0
 12 11  1  0
 13 14  1  0
 12 13  1  6
 14 15  1  0
 15 19  1  0
 16 15  2  0
 17 12  1  0
 17 18  2  0
 20 17  1  0
 21 20  1  0
 21 22  1  1
 23 22  1  0
 24 21  1  0
 25 24  2  0
 26 24  1  0
M  END
$$$$
