HEC.pdb
     RDKit          3D

 26 26  0  0  1  0  0  0  0  0999 V2000
   14.3579   -9.6790  -10.2520 N   0  0  0  0  0  0  0  0  0  0  0  0
   14.7712   -8.3070  -10.2379 C   0  0  1  0  0  0  0  0  0  0  0  0
   15.0503   -7.8828   -8.8145 C   0  0  0  0  0  0  0  0  0  0  0  0
   13.7477   -7.7614   -8.1155 C   0  0  0  0  0  0  0  0  0  0  0  0
   13.0970   -8.7250   -7.3765 C   0  0  0  0  0  0  0  0  0  0  0  0
   11.9287   -8.2075   -6.9042 N   0  0  0  0  0  0  0  0  0  0  0  0
   11.8555   -6.9285   -7.3482 C   0  0  0  0  0  0  0  0  0  0  0  0
   12.9497   -6.6670   -8.0744 N   0  0  0  0  0  0  0  0  0  0  0  0
   15.9130   -8.0736  -11.1335 C   0  0  0  0  0  0  0  0  0  0  0  0
   16.7054   -9.0479  -11.3392 O   0  0  0  0  0  0  0  0  0  0  0  0
   16.1863   -6.8438  -11.7770 N   0  0  0  0  0  0  0  0  0  0  0  0
   17.1444   -6.7309  -12.8290 C   0  0  1  0  0  0  0  0  0  0  0  0
   16.8343   -5.7925  -13.9290 C   0  0  0  0  0  0  0  0  0  0  0  0
   17.7578   -5.6615  -15.0647 C   0  0  0  0  0  0  0  0  0  0  0  0
   17.4034   -4.6838  -16.1101 C   0  0  0  0  0  0  0  0  0  0  0  0
   16.6236   -4.9294  -17.0567 O   0  0  0  0  0  0  0  0  0  0  0  0
   18.5404   -6.6330  -12.3168 C   0  0  0  0  0  0  0  0  0  0  0  0
   18.8249   -5.9553  -11.2887 O   0  0  0  0  0  0  0  0  0  0  0  0
   17.9336   -3.3795  -16.1072 O   0  0  0  0  0  0  0  0  0  0  0  0
   19.6224   -7.2964  -12.9560 N   0  0  0  0  0  0  0  0  0  0  0  0
   20.9762   -7.1795  -12.4507 C   0  0  1  0  0  0  0  0  0  0  0  0
   21.7092   -8.4579  -12.8177 C   0  0  0  0  0  0  0  0  0  0  0  0
   23.4401   -8.4170  -12.2935 S   0  0  0  0  0  0  0  0  0  0  0  0
   21.6454   -6.0782  -13.1704 C   0  0  0  0  0  0  0  0  0  0  0  0
   21.3741   -5.8691  -14.3714 O   0  0  0  0  0  0  0  0  0  0  0  0
   22.5758   -5.2597  -12.5483 O   0  0  0  0  0  0  0  0  0  0  0  0
  2  1  1  1
  2  3  1  0
  3  4  1  0
  4  8  1  0
  4  5  2  0
  5  6  1  0
  7  6  1  0
  8  7  2  0
  9 11  1  0
  9  2  1  0
 10  9  2  0
 12 11  1  0
 13 14  1  0
 12 13  1  1
 14 15  1  0
 15 19  1  0
 16 15  2  0
 17 12  1  0
 17 18  2  0
 20 17  1  0
 21 20  1  0
 21 22  1  6
 23 22  1  0
 24 21  1  0
 25 24  2  0
 26 24  1  0
M  END
$$$$
