HEC.pdb
     RDKit          3D

 26 26  0  0  1  0  0  0  0  0999 V2000
   21.1062  -15.4815  -18.6562 N   0  0  0  0  0  0  0  0  0  0  0  0
   21.4660  -15.5491  -17.2708 C   0  0  1  0  0  0  0  0  0  0  0  0
   20.2518  -15.2486  -16.4228 C   0  0  0  0  0  0  0  0  0  0  0  0
   20.0057  -13.7873  -16.4877 C   0  0  0  0  0  0  0  0  0  0  0  0
   20.7296  -12.8428  -17.1820 C   0  0  0  0  0  0  0  0  0  0  0  0
   20.1709  -11.6174  -16.9769 N   0  0  0  0  0  0  0  0  0  0  0  0
   19.1050  -11.8014  -16.1593 C   0  0  0  0  0  0  0  0  0  0  0  0
   19.0114  -13.1053  -15.8694 N   0  0  0  0  0  0  0  0  0  0  0  0
   22.0892  -16.8367  -16.9328 C   0  0  0  0  0  0  0  0  0  0  0  0
   21.5315  -17.8918  -17.3747 O   0  0  0  0  0  0  0  0  0  0  0  0
   23.2610  -16.9778  -16.1530 N   0  0  0  0  0  0  0  0  0  0  0  0
   23.7434  -18.2517  -15.7263 C   0  0  1  0  0  0  0  0  0  0  0  0
   25.2095  -18.4362  -15.6701 C   0  0  0  0  0  0  0  0  0  0  0  0
   26.0188  -18.2600  -16.8840 C   0  0  0  0  0  0  0  0  0  0  0  0
   26.0080  -19.3610  -17.8649 C   0  0  0  0  0  0  0  0  0  0  0  0
   25.7315  -19.2115  -19.0755 O   0  0  0  0  0  0  0  0  0  0  0  0
   23.0164  -18.7618  -14.5297 C   0  0  0  0  0  0  0  0  0  0  0  0
   23.4608  -18.5901  -13.3590 O   0  0  0  0  0  0  0  0  0  0  0  0
   26.3171  -20.6825  -17.4902 O   0  0  0  0  0  0  0  0  0  0  0  0
   21.7871  -19.4657  -14.6422 N   0  0  0  0  0  0  0  0  0  0  0  0
   21.0479  -19.8752  -13.4641 C   0  0  1  0  0  0  0  0  0  0  0  0
   20.6725  -18.6153  -12.7037 C   0  0  0  0  0  0  0  0  0  0  0  0
   19.6194  -18.9768  -11.2780 S   0  0  0  0  0  0  0  0  0  0  0  0
   19.7871  -20.5038  -13.9041 C   0  0  0  0  0  0  0  0  0  0  0  0
   19.1162  -21.1777  -13.0943 O   0  0  0  0  0  0  0  0  0  0  0  0
   19.3189  -20.3683  -15.2021 O   0  0  0  0  0  0  0  0  0  0  0  0
  2  1  1  6
  2  3  1  0
  3  4  1  0
  4  8  1  0
  4  5  2  0
  5  6  1  0
  7  6  1  0
  8  7  2  0
  9 11  1  0
  9  2  1  0
 10  9  2  0
 12 11  1  0
 13 14  1  0
 12 13  1  1
 14 15  1  0
 15 19  1  0
 16 15  2  0
 17 12  1  0
 17 18  2  0
 20 17  1  0
 21 20  1  0
 21 22  1  1
 23 22  1  0
 24 21  1  0
 25 24  2  0
 26 24  1  0
M  END
$$$$
