HEC.pdb
     RDKit          3D

 26 26  0  0  1  0  0  0  0  0999 V2000
   21.6762  -11.9421  -17.4880 N   0  0  0  0  0  0  0  0  0  0  0  0
   20.7245  -10.8707  -17.4938 C   0  0  1  0  0  0  0  0  0  0  0  0
   19.5905  -11.2032  -16.5519 C   0  0  0  0  0  0  0  0  0  0  0  0
   18.8400  -12.3432  -17.1329 C   0  0  0  0  0  0  0  0  0  0  0  0
   18.6903  -13.6072  -16.6058 C   0  0  0  0  0  0  0  0  0  0  0  0
   17.9268  -14.3528  -17.4525 N   0  0  0  0  0  0  0  0  0  0  0  0
   17.6042  -13.5544  -18.4998 C   0  0  0  0  0  0  0  0  0  0  0  0
   18.1553  -12.3502  -18.3021 N   0  0  0  0  0  0  0  0  0  0  0  0
   21.3568   -9.5798  -17.1867 C   0  0  0  0  0  0  0  0  0  0  0  0
   22.1613   -9.5408  -16.2015 O   0  0  0  0  0  0  0  0  0  0  0  0
   21.1299   -8.3859  -17.9106 N   0  0  0  0  0  0  0  0  0  0  0  0
   21.7977   -7.1646  -17.5944 C   0  0  1  0  0  0  0  0  0  0  0  0
   22.1964   -6.2988  -18.7250 C   0  0  0  0  0  0  0  0  0  0  0  0
   22.8955   -5.0318  -18.4686 C   0  0  0  0  0  0  0  0  0  0  0  0
   23.2029   -4.1854  -19.6363 C   0  0  0  0  0  0  0  0  0  0  0  0
   22.9495   -4.5105  -20.8172 O   0  0  0  0  0  0  0  0  0  0  0  0
   21.1478   -6.4381  -16.4673 C   0  0  0  0  0  0  0  0  0  0  0  0
   19.9087   -6.1890  -16.4639 O   0  0  0  0  0  0  0  0  0  0  0  0
   23.8158   -2.9263  -19.4908 O   0  0  0  0  0  0  0  0  0  0  0  0
   21.8859   -5.9893  -15.3390 N   0  0  0  0  0  0  0  0  0  0  0  0
   21.2313   -5.3121  -14.2368 C   0  0  1  0  0  0  0  0  0  0  0  0
   21.7535   -5.9290  -12.9511 C   0  0  0  0  0  0  0  0  0  0  0  0
   20.8180   -7.4048  -12.4828 S   0  0  0  0  0  0  0  0  0  0  0  0
   21.6599   -3.8997  -14.2413 C   0  0  0  0  0  0  0  0  0  0  0  0
   22.7531   -3.5866  -14.7577 O   0  0  0  0  0  0  0  0  0  0  0  0
   20.8786   -2.8988  -13.6843 O   0  0  0  0  0  0  0  0  0  0  0  0
  2  1  1  1
  2  3  1  0
  3  4  1  0
  4  8  1  0
  4  5  2  0
  5  6  1  0
  7  6  1  0
  8  7  2  0
  9 11  1  0
  9  2  1  0
 10  9  2  0
 12 11  1  0
 13 14  1  0
 12 13  1  6
 14 15  1  0
 15 19  1  0
 16 15  2  0
 17 12  1  0
 17 18  2  0
 20 17  1  0
 21 20  1  0
 21 22  1  1
 23 22  1  0
 24 21  1  0
 25 24  2  0
 26 24  1  0
M  END
$$$$
