HEC.pdb
     RDKit          3D

 26 26  0  0  1  0  0  0  0  0999 V2000
   21.3141  -19.7129  -17.2875 N   0  0  0  0  0  0  0  0  0  0  0  0
   22.1192  -18.9017  -16.4230 C   0  0  1  0  0  0  0  0  0  0  0  0
   21.2281  -17.9591  -15.6477 C   0  0  0  0  0  0  0  0  0  0  0  0
   20.8186  -16.8674  -16.5647 C   0  0  0  0  0  0  0  0  0  0  0  0
   21.5372  -15.7429  -16.9069 C   0  0  0  0  0  0  0  0  0  0  0  0
   20.8021  -14.9948  -17.7762 N   0  0  0  0  0  0  0  0  0  0  0  0
   19.6330  -15.6528  -17.9724 C   0  0  0  0  0  0  0  0  0  0  0  0
   19.6491  -16.7754  -17.2427 N   0  0  0  0  0  0  0  0  0  0  0  0
   22.9748  -19.7191  -15.5512 C   0  0  0  0  0  0  0  0  0  0  0  0
   22.3987  -20.4559  -14.6883 O   0  0  0  0  0  0  0  0  0  0  0  0
   24.3881  -19.7393  -15.6089 N   0  0  0  0  0  0  0  0  0  0  0  0
   25.1775  -20.4947  -14.6903 C   0  0  1  0  0  0  0  0  0  0  0  0
   26.5702  -20.7975  -15.0843 C   0  0  0  0  0  0  0  0  0  0  0  0
   26.8366  -21.5642  -16.3093 C   0  0  0  0  0  0  0  0  0  0  0  0
   28.2491  -21.7979  -16.6624 C   0  0  0  0  0  0  0  0  0  0  0  0
   28.8663  -21.1438  -17.5317 O   0  0  0  0  0  0  0  0  0  0  0  0
   25.0292  -20.0153  -13.2872 C   0  0  0  0  0  0  0  0  0  0  0  0
   24.8977  -18.7881  -13.0148 O   0  0  0  0  0  0  0  0  0  0  0  0
   29.0105  -22.7968  -16.0262 O   0  0  0  0  0  0  0  0  0  0  0  0
   25.0267  -20.9114  -12.1844 N   0  0  0  0  0  0  0  0  0  0  0  0
   25.0534  -20.4206  -10.8204 C   0  0  1  0  0  0  0  0  0  0  0  0
   23.7596  -20.8576  -10.1559 C   0  0  0  0  0  0  0  0  0  0  0  0
   23.7745  -20.5376   -8.3755 S   0  0  0  0  0  0  0  0  0  0  0  0
   26.1536  -21.0976  -10.1064 C   0  0  0  0  0  0  0  0  0  0  0  0
   26.5949  -22.1836  -10.5372 O   0  0  0  0  0  0  0  0  0  0  0  0
   26.7188  -20.5599   -8.9601 O   0  0  0  0  0  0  0  0  0  0  0  0
  2  1  1  1
  2  3  1  0
  3  4  1  0
  4  8  1  0
  4  5  2  0
  5  6  1  0
  7  6  1  0
  8  7  2  0
  9 11  1  0
  9  2  1  0
 10  9  2  0
 12 11  1  0
 13 14  1  0
 12 13  1  6
 14 15  1  0
 15 19  1  0
 16 15  2  0
 17 12  1  0
 17 18  2  0
 20 17  1  0
 21 20  1  0
 21 22  1  1
 23 22  1  0
 24 21  1  0
 25 24  2  0
 26 24  1  0
M  END
$$$$
