HEC.pdb
     RDKit          3D

 26 26  0  0  1  0  0  0  0  0999 V2000
   24.1182  -12.9166  -17.9035 N   0  0  0  0  0  0  0  0  0  0  0  0
   24.4904  -11.7829  -17.1101 C   0  0  1  0  0  0  0  0  0  0  0  0
   25.9603  -11.4935  -17.3087 C   0  0  0  0  0  0  0  0  0  0  0  0
   26.7245  -12.6439  -16.7676 C   0  0  0  0  0  0  0  0  0  0  0  0
   27.5249  -13.5233  -17.4631 C   0  0  0  0  0  0  0  0  0  0  0  0
   28.0441  -14.4335  -16.5925 N   0  0  0  0  0  0  0  0  0  0  0  0
   27.5679  -14.1194  -15.3624 C   0  0  0  0  0  0  0  0  0  0  0  0
   26.7767  -13.0449  -15.4743 N   0  0  0  0  0  0  0  0  0  0  0  0
   23.6398  -10.6180  -17.3930 C   0  0  0  0  0  0  0  0  0  0  0  0
   23.2881  -10.4287  -18.6013 O   0  0  0  0  0  0  0  0  0  0  0  0
   23.1901   -9.6998  -16.4154 N   0  0  0  0  0  0  0  0  0  0  0  0
   22.2938   -8.6334  -16.7268 C   0  0  1  0  0  0  0  0  0  0  0  0
   21.1344   -8.4399  -15.8297 C   0  0  0  0  0  0  0  0  0  0  0  0
   20.1304   -7.4122  -16.1385 C   0  0  0  0  0  0  0  0  0  0  0  0
   19.0163   -7.2527  -15.1857 C   0  0  0  0  0  0  0  0  0  0  0  0
   18.1075   -6.4030  -15.3138 O   0  0  0  0  0  0  0  0  0  0  0  0
   23.0100   -7.3755  -17.0807 C   0  0  0  0  0  0  0  0  0  0  0  0
   23.9180   -6.8977  -16.3427 O   0  0  0  0  0  0  0  0  0  0  0  0
   18.9031   -8.0684  -14.0437 O   0  0  0  0  0  0  0  0  0  0  0  0
   22.7107   -6.6493  -18.2650 N   0  0  0  0  0  0  0  0  0  0  0  0
   23.4226   -5.4306  -18.5964 C   0  0  1  0  0  0  0  0  0  0  0  0
   23.5917   -5.4003  -20.1053 C   0  0  0  0  0  0  0  0  0  0  0  0
   24.8058   -6.6156  -20.6722 S   0  0  0  0  0  0  0  0  0  0  0  0
   22.5674   -4.2827  -18.2363 C   0  0  0  0  0  0  0  0  0  0  0  0
   22.9899   -3.1195  -18.4050 O   0  0  0  0  0  0  0  0  0  0  0  0
   21.2961   -4.4569  -17.7110 O   0  0  0  0  0  0  0  0  0  0  0  0
  2  1  1  6
  2  3  1  0
  3  4  1  0
  4  8  1  0
  4  5  2  0
  5  6  1  0
  7  6  1  0
  8  7  2  0
  9 11  1  0
  9  2  1  0
 10  9  2  0
 12 11  1  0
 13 14  1  0
 12 13  1  1
 14 15  1  0
 15 19  1  0
 16 15  2  0
 17 12  1  0
 17 18  2  0
 20 17  1  0
 21 20  1  0
 21 22  1  6
 23 22  1  0
 24 21  1  0
 25 24  2  0
 26 24  1  0
M  END
$$$$
