HEC.pdb
     RDKit          3D

 26 26  0  0  1  0  0  0  0  0999 V2000
   22.5749  -12.9234  -18.1648 N   0  0  0  0  0  0  0  0  0  0  0  0
   22.8558  -12.1726  -16.9770 C   0  0  1  0  0  0  0  0  0  0  0  0
   24.3465  -11.9503  -16.8660 C   0  0  0  0  0  0  0  0  0  0  0  0
   24.9805  -13.2640  -16.5971 C   0  0  0  0  0  0  0  0  0  0  0  0
   25.6442  -14.0759  -17.4906 C   0  0  0  0  0  0  0  0  0  0  0  0
   26.0753  -15.1921  -16.8394 N   0  0  0  0  0  0  0  0  0  0  0  0
   25.6809  -15.0727  -15.5477 C   0  0  0  0  0  0  0  0  0  0  0  0
   25.0245  -13.9138  -15.4088 N   0  0  0  0  0  0  0  0  0  0  0  0
   22.0905  -10.9185  -16.9323 C   0  0  0  0  0  0  0  0  0  0  0  0
   22.1432  -10.1630  -17.9550 O   0  0  0  0  0  0  0  0  0  0  0  0
   21.3047  -10.4999  -15.8331 N   0  0  0  0  0  0  0  0  0  0  0  0
   20.5060   -9.3175  -15.8738 C   0  0  1  0  0  0  0  0  0  0  0  0
   19.0568   -9.4707  -15.6227 C   0  0  0  0  0  0  0  0  0  0  0  0
   18.3495  -10.6639  -16.1080 C   0  0  0  0  0  0  0  0  0  0  0  0
   17.5643  -11.4279  -15.1211 C   0  0  0  0  0  0  0  0  0  0  0  0
   17.4049  -11.0717  -13.9328 O   0  0  0  0  0  0  0  0  0  0  0  0
   21.1366   -8.1817  -15.1440 C   0  0  0  0  0  0  0  0  0  0  0  0
   21.7090   -8.3442  -14.0289 O   0  0  0  0  0  0  0  0  0  0  0  0
   16.9283  -12.6363  -15.4640 O   0  0  0  0  0  0  0  0  0  0  0  0
   21.1282   -6.8589  -15.6634 N   0  0  0  0  0  0  0  0  0  0  0  0
   21.7402   -5.7646  -14.9355 C   0  0  1  0  0  0  0  0  0  0  0  0
   22.3943   -4.8504  -15.9568 C   0  0  0  0  0  0  0  0  0  0  0  0
   23.0095   -3.3263  -15.2011 S   0  0  0  0  0  0  0  0  0  0  0  0
   20.6690   -4.9854  -14.2845 C   0  0  0  0  0  0  0  0  0  0  0  0
   20.9414   -4.2530  -13.3102 O   0  0  0  0  0  0  0  0  0  0  0  0
   19.3556   -5.0415  -14.7252 O   0  0  0  0  0  0  0  0  0  0  0  0
  2  1  1  6
  2  3  1  0
  3  4  1  0
  4  8  1  0
  4  5  2  0
  5  6  1  0
  7  6  1  0
  8  7  2  0
  9 11  1  0
  9  2  1  0
 10  9  2  0
 12 11  1  0
 13 14  1  0
 12 13  1  1
 14 15  1  0
 15 19  1  0
 16 15  2  0
 17 12  1  0
 17 18  2  0
 20 17  1  0
 21 20  1  0
 21 22  1  6
 23 22  1  0
 24 21  1  0
 25 24  2  0
 26 24  1  0
M  END
$$$$
