HEC.pdb
     RDKit          3D

 26 26  0  0  1  0  0  0  0  0999 V2000
   20.5682  -12.7753  -16.2866 N   0  0  0  0  0  0  0  0  0  0  0  0
   19.7618  -11.6174  -16.5369 C   0  0  1  0  0  0  0  0  0  0  0  0
   18.6862  -11.5184  -15.4800 C   0  0  0  0  0  0  0  0  0  0  0  0
   17.7051  -12.6022  -15.7308 C   0  0  0  0  0  0  0  0  0  0  0  0
   17.5544  -13.7787  -15.0299 C   0  0  0  0  0  0  0  0  0  0  0  0
   16.5385  -14.4976  -15.5839 N   0  0  0  0  0  0  0  0  0  0  0  0
   16.0611  -13.7698  -16.6235 C   0  0  0  0  0  0  0  0  0  0  0  0
   16.7653  -12.6339  -16.7064 N   0  0  0  0  0  0  0  0  0  0  0  0
   20.5763  -10.3977  -16.6331 C   0  0  0  0  0  0  0  0  0  0  0  0
   21.3290  -10.1161  -15.6464 O   0  0  0  0  0  0  0  0  0  0  0  0
   20.5772   -9.5223  -17.7443 N   0  0  0  0  0  0  0  0  0  0  0  0
   21.4166   -8.3694  -17.8052 C   0  0  1  0  0  0  0  0  0  0  0  0
   21.6768   -7.7914  -19.1413 C   0  0  0  0  0  0  0  0  0  0  0  0
   22.6054   -6.6615  -19.2843 C   0  0  0  0  0  0  0  0  0  0  0  0
   22.7600   -6.0848  -20.6327 C   0  0  0  0  0  0  0  0  0  0  0  0
   22.1583   -6.5090  -21.6438 O   0  0  0  0  0  0  0  0  0  0  0  0
   21.0760   -7.3638  -16.7596 C   0  0  0  0  0  0  0  0  0  0  0  0
   19.8779   -7.1059  -16.4509 O   0  0  0  0  0  0  0  0  0  0  0  0
   23.6159   -4.9928  -20.8717 O   0  0  0  0  0  0  0  0  0  0  0  0
   22.0791   -6.6445  -16.0553 N   0  0  0  0  0  0  0  0  0  0  0  0
   21.7288   -5.6668  -15.0437 C   0  0  1  0  0  0  0  0  0  0  0  0
   22.2206   -6.1990  -13.7092 C   0  0  0  0  0  0  0  0  0  0  0  0
   22.1475   -4.9396  -12.4127 S   0  0  0  0  0  0  0  0  0  0  0  0
   22.4829   -4.4277  -15.3169 C   0  0  0  0  0  0  0  0  0  0  0  0
   23.5450   -4.4815  -15.9717 O   0  0  0  0  0  0  0  0  0  0  0  0
   22.0444   -3.1925  -14.8646 O   0  0  0  0  0  0  0  0  0  0  0  0
  2  1  1  1
  2  3  1  0
  3  4  1  0
  4  8  1  0
  4  5  2  0
  5  6  1  0
  7  6  1  0
  8  7  2  0
  9 11  1  0
  9  2  1  0
 10  9  2  0
 12 11  1  0
 13 14  1  0
 12 13  1  6
 14 15  1  0
 15 19  1  0
 16 15  2  0
 17 12  1  0
 17 18  2  0
 20 17  1  0
 21 20  1  0
 21 22  1  1
 23 22  1  0
 24 21  1  0
 25 24  2  0
 26 24  1  0
M  END
$$$$
