CTL.pdb
     RDKit          3D

 22 21  0  0  1  0  0  0  0  0999 V2000
    8.5063  -15.1028   17.3372 N   0  0  0  0  0  0  0  0  0  0  0  0
    8.8217  -14.4525   18.5900 C   0  0  1  0  0  0  0  0  0  0  0  0
    8.4060  -12.9879   18.4613 C   0  0  0  0  0  0  0  0  0  0  0  0
    8.7848  -12.0946   19.9865 S   0  0  0  0  0  0  0  0  0  0  0  0
    8.1217  -15.0837   19.7273 C   0  0  0  0  0  0  0  0  0  0  0  0
    7.0944  -15.7812   19.4644 O   0  0  0  0  0  0  0  0  0  0  0  0
    7.5329  -17.6413   20.6087 C   0  0  0  0  0  0  0  0  0  0  0  0
    8.1643  -17.1989   21.9084 C   0  0  1  0  0  0  0  0  0  0  0  0
    9.5123  -17.5456   21.8579 O   0  0  0  0  0  0  0  0  0  0  0  0
    7.9854  -15.7069   22.1278 C   0  0  2  0  0  0  0  0  0  0  0  0
    8.5620  -14.9311   21.0748 N   0  0  0  0  0  0  0  0  0  0  0  0
    8.5594  -15.3016   23.4428 C   0  0  0  0  0  0  0  0  0  0  0  0
    9.7755  -14.9871   23.5011 O   0  0  0  0  0  0  0  0  0  0  0  0
    7.8145  -11.6956   25.8692 C   0  0  0  0  0  0  0  0  0  0  0  0
    6.7759  -12.8142   25.9493 C   0  0  2  0  0  0  0  0  0  0  0  0
    5.5326  -12.2429   26.5410 C   0  0  0  0  0  0  0  0  0  0  0  0
    7.3218  -14.0079   26.6688 C   0  0  0  0  0  0  0  0  0  0  0  0
    8.3511  -14.7125   25.8741 C   0  0  2  0  0  0  0  0  0  0  0  0
    7.8102  -15.2511   24.6293 N   0  0  0  0  0  0  0  0  0  0  0  0
    9.0105  -15.7971   26.6038 C   0  0  0  0  0  0  0  0  0  0  0  0
    9.6911  -15.6049   27.6148 O   0  0  0  0  0  0  0  0  0  0  0  0
    8.8829  -17.1085   26.1634 O   0  0  0  0  0  0  0  0  0  0  0  0
  2  1  1  6
  3  2  1  0
  4  3  1  0
  5 11  1  0
  5  2  1  0
  6  5  2  0
  8 10  1  0
  8  7  1  6
  9  8  1  0
 10 11  1  6
 10 12  1  0
 12 19  1  0
 13 12  2  0
 15 14  1  1
 16 15  1  0
 17 15  1  0
 18 17  1  1
 19 18  1  0
 20 18  1  0
 20 22  1  0
 21 20  2  0
M  END
$$$$
