CTL.pdb
     RDKit          3D

 22 21  0  0  1  0  0  0  0  0999 V2000
    9.3471  -19.0920   18.9593 N   0  0  0  0  0  0  0  0  0  0  0  0
    8.4199  -18.3907   19.8197 C   0  0  1  0  0  0  0  0  0  0  0  0
    8.2492  -19.2287   21.0858 C   0  0  0  0  0  0  0  0  0  0  0  0
    9.8308  -19.9576   21.5706 S   0  0  0  0  0  0  0  0  0  0  0  0
    8.9059  -17.0390   20.1640 C   0  0  0  0  0  0  0  0  0  0  0  0
    9.5437  -16.4039   19.2693 O   0  0  0  0  0  0  0  0  0  0  0  0
    8.1903  -14.5610   19.1814 C   0  0  0  0  0  0  0  0  0  0  0  0
    7.6988  -14.3711   20.5978 C   0  0  1  0  0  0  0  0  0  0  0  0
    6.4168  -14.9104   20.6716 O   0  0  0  0  0  0  0  0  0  0  0  0
    8.6334  -15.0291   21.5977 C   0  0  2  0  0  0  0  0  0  0  0  0
    8.6806  -16.4493   21.4425 N   0  0  0  0  0  0  0  0  0  0  0  0
    8.2386  -14.6740   22.9910 C   0  0  0  0  0  0  0  0  0  0  0  0
    7.0322  -14.7901   23.3263 O   0  0  0  0  0  0  0  0  0  0  0  0
    5.5960  -12.0881   26.6418 C   0  0  0  0  0  0  0  0  0  0  0  0
    6.9747  -12.7472   26.6677 C   0  0  2  0  0  0  0  0  0  0  0  0
    7.9088  -11.8272   27.3773 C   0  0  0  0  0  0  0  0  0  0  0  0
    7.4100  -13.1437   25.2914 C   0  0  0  0  0  0  0  0  0  0  0  0
    8.7290  -13.8128   25.2974 C   0  0  2  0  0  0  0  0  0  0  0  0
    9.1475  -14.2135   23.9570 N   0  0  0  0  0  0  0  0  0  0  0  0
    8.7846  -14.9850   26.1731 C   0  0  0  0  0  0  0  0  0  0  0  0
    9.5805  -15.0810   27.1109 O   0  0  0  0  0  0  0  0  0  0  0  0
    7.9174  -16.0499   25.9639 O   0  0  0  0  0  0  0  0  0  0  0  0
  2  1  1  6
  3  2  1  0
  4  3  1  0
  5 11  1  0
  5  2  1  0
  6  5  2  0
  8 10  1  0
  8  7  1  6
  9  8  1  0
 10 11  1  1
 10 12  1  0
 12 19  1  0
 13 12  2  0
 15 14  1  6
 16 15  1  0
 17 15  1  0
 18 17  1  6
 19 18  1  0
 20 18  1  0
 20 22  1  0
 21 20  2  0
M  END
$$$$
