CTL.pdb
     RDKit          3D

 22 21  0  0  1  0  0  0  0  0999 V2000
    8.4514  -15.1416   16.9016 N   0  0  0  0  0  0  0  0  0  0  0  0
    8.8230  -14.4642   18.1242 C   0  0  1  0  0  0  0  0  0  0  0  0
    8.4108  -13.0003   17.9781 C   0  0  0  0  0  0  0  0  0  0  0  0
    8.7729  -12.0944   19.5000 S   0  0  0  0  0  0  0  0  0  0  0  0
    8.1677  -15.0636   19.3045 C   0  0  0  0  0  0  0  0  0  0  0  0
    6.9325  -15.3389   19.2079 O   0  0  0  0  0  0  0  0  0  0  0  0
    8.2361  -18.2079   20.4212 C   0  0  0  0  0  0  0  0  0  0  0  0
    8.6210  -17.4697   21.6824 C   0  0  1  0  0  0  0  0  0  0  0  0
    9.9949  -17.6214   21.8532 O   0  0  0  0  0  0  0  0  0  0  0  0
    8.2326  -16.0037   21.6026 C   0  0  2  0  0  0  0  0  0  0  0  0
    8.8719  -15.3319   20.5149 N   0  0  0  0  0  0  0  0  0  0  0  0
    8.5385  -15.3134   22.8883 C   0  0  0  0  0  0  0  0  0  0  0  0
    9.6193  -14.6791   22.9924 O   0  0  0  0  0  0  0  0  0  0  0  0
    5.7983  -12.4817   27.5388 C   0  0  0  0  0  0  0  0  0  0  0  0
    7.0867  -13.0173   26.9148 C   0  0  2  0  0  0  0  0  0  0  0  0
    8.0306  -11.8737   26.7607 C   0  0  0  0  0  0  0  0  0  0  0  0
    6.8032  -13.7709   25.6528 C   0  0  0  0  0  0  0  0  0  0  0  0
    7.9605  -14.5837   25.2196 C   0  0  2  0  0  0  0  0  0  0  0  0
    7.6788  -15.3329   23.9983 N   0  0  0  0  0  0  0  0  0  0  0  0
    8.4318  -15.5194   26.2424 C   0  0  0  0  0  0  0  0  0  0  0  0
    7.9695  -16.6559   26.3719 O   0  0  0  0  0  0  0  0  0  0  0  0
    9.4410  -15.1401   27.1185 O   0  0  0  0  0  0  0  0  0  0  0  0
  2  1  1  6
  3  2  1  0
  4  3  1  0
  5 11  1  0
  5  2  1  0
  6  5  2  0
  8 10  1  0
  8  7  1  6
  9  8  1  0
 10 11  1  6
 10 12  1  0
 12 19  1  0
 13 12  2  0
 15 14  1  6
 16 15  1  0
 17 15  1  0
 18 17  1  1
 19 18  1  0
 20 18  1  0
 20 22  1  0
 21 20  2  0
M  END
$$$$
