CTL.pdb
     RDKit          3D

 22 21  0  0  1  0  0  0  0  0999 V2000
    9.7778  -17.4502   18.4973 N   0  0  0  0  0  0  0  0  0  0  0  0
   10.1763  -17.2904   19.8784 C   0  0  1  0  0  0  0  0  0  0  0  0
   11.4017  -16.3779   19.8970 C   0  0  0  0  0  0  0  0  0  0  0  0
   11.2383  -15.0867   18.6425 S   0  0  0  0  0  0  0  0  0  0  0  0
    9.0940  -16.7082   20.6978 C   0  0  0  0  0  0  0  0  0  0  0  0
    7.9399  -16.6390   20.1744 O   0  0  0  0  0  0  0  0  0  0  0  0
    7.3871  -18.4133   21.9751 C   0  0  0  0  0  0  0  0  0  0  0  0
    7.8339  -17.7510   23.2579 C   0  0  1  0  0  0  0  0  0  0  0  0
    8.8666  -18.5204   23.7883 O   0  0  0  0  0  0  0  0  0  0  0  0
    8.2805  -16.3205   23.0125 C   0  0  2  0  0  0  0  0  0  0  0  0
    9.3111  -16.2360   22.0257 N   0  0  0  0  0  0  0  0  0  0  0  0
    8.7312  -15.6900   24.2862 C   0  0  0  0  0  0  0  0  0  0  0  0
    9.9627  -15.6449   24.5364 O   0  0  0  0  0  0  0  0  0  0  0  0
    7.6946  -11.6866   25.5238 C   0  0  0  0  0  0  0  0  0  0  0  0
    6.6437  -12.6549   26.0659 C   0  0  2  0  0  0  0  0  0  0  0  0
    5.5134  -11.8477   26.6075 C   0  0  0  0  0  0  0  0  0  0  0  0
    7.2480  -13.6193   27.0383 C   0  0  0  0  0  0  0  0  0  0  0  0
    8.3156  -14.4352   26.4203 C   0  0  2  0  0  0  0  0  0  0  0  0
    7.8487  -15.1392   25.2292 N   0  0  0  0  0  0  0  0  0  0  0  0
    8.9083  -15.4115   27.3366 C   0  0  0  0  0  0  0  0  0  0  0  0
    8.7050  -16.6248   27.2427 O   0  0  0  0  0  0  0  0  0  0  0  0
    9.7386  -14.9838   28.3650 O   0  0  0  0  0  0  0  0  0  0  0  0
  2  1  1  6
  3  2  1  0
  4  3  1  0
  5 11  1  0
  5  2  1  0
  6  5  2  0
  8 10  1  0
  8  7  1  6
  9  8  1  0
 10 11  1  6
 10 12  1  0
 12 19  1  0
 13 12  2  0
 15 14  1  1
 16 15  1  0
 17 15  1  0
 18 17  1  1
 19 18  1  0
 20 18  1  0
 20 22  1  0
 21 20  2  0
M  END
$$$$
