CTL.pdb
     RDKit          3D

 22 21  0  0  1  0  0  0  0  0999 V2000
    8.7176  -15.2380   17.4307 N   0  0  0  0  0  0  0  0  0  0  0  0
    8.9337  -14.5107   18.6620 C   0  0  1  0  0  0  0  0  0  0  0  0
    8.4425  -13.0811   18.4397 C   0  0  0  0  0  0  0  0  0  0  0  0
    8.6970  -12.0938   19.9324 S   0  0  0  0  0  0  0  0  0  0  0  0
    8.2156  -15.1265   19.7963 C   0  0  0  0  0  0  0  0  0  0  0  0
    7.1830  -15.8140   19.5279 O   0  0  0  0  0  0  0  0  0  0  0  0
    7.6511  -17.6955   20.6623 C   0  0  0  0  0  0  0  0  0  0  0  0
    8.2854  -17.2518   21.9602 C   0  0  1  0  0  0  0  0  0  0  0  0
    9.6390  -17.5732   21.8955 O   0  0  0  0  0  0  0  0  0  0  0  0
    8.0810  -15.7651   22.1929 C   0  0  2  0  0  0  0  0  0  0  0  0
    8.6445  -14.9701   21.1471 N   0  0  0  0  0  0  0  0  0  0  0  0
    8.6478  -15.3619   23.5117 C   0  0  0  0  0  0  0  0  0  0  0  0
    9.8398  -14.9647   23.5620 O   0  0  0  0  0  0  0  0  0  0  0  0
    7.7440  -11.9506   26.1072 C   0  0  0  0  0  0  0  0  0  0  0  0
    6.7646  -13.1205   26.1979 C   0  0  2  0  0  0  0  0  0  0  0  0
    5.5337  -12.6349   26.8847 C   0  0  0  0  0  0  0  0  0  0  0  0
    7.4066  -14.3149   26.8320 C   0  0  0  0  0  0  0  0  0  0  0  0
    8.4567  -14.9027   25.9722 C   0  0  2  0  0  0  0  0  0  0  0  0
    7.9175  -15.4016   24.7102 N   0  0  0  0  0  0  0  0  0  0  0  0
    9.2039  -15.9828   26.6195 C   0  0  0  0  0  0  0  0  0  0  0  0
    9.0804  -17.1671   26.2965 O   0  0  0  0  0  0  0  0  0  0  0  0
   10.0967  -15.6930   27.6436 O   0  0  0  0  0  0  0  0  0  0  0  0
  2  1  1  6
  3  2  1  0
  4  3  1  0
  5 11  1  0
  5  2  1  0
  6  5  2  0
  8 10  1  0
  8  7  1  6
  9  8  1  0
 10 11  1  6
 10 12  1  0
 12 19  1  0
 13 12  2  0
 15 14  1  1
 16 15  1  0
 17 15  1  0
 18 17  1  1
 19 18  1  0
 20 18  1  0
 20 22  1  0
 21 20  2  0
M  END
$$$$
