CTL.pdb
     RDKit          3D

 22 21  0  0  1  0  0  0  0  0999 V2000
    8.2162  -14.7704   17.0191 N   0  0  0  0  0  0  0  0  0  0  0  0
    8.6810  -14.2620   18.2908 C   0  0  1  0  0  0  0  0  0  0  0  0
    8.2017  -12.8159   18.4068 C   0  0  0  0  0  0  0  0  0  0  0  0
    8.6475  -12.1377   20.0221 S   0  0  0  0  0  0  0  0  0  0  0  0
    8.1684  -15.0618   19.4219 C   0  0  0  0  0  0  0  0  0  0  0  0
    6.9507  -15.4170   19.3796 O   0  0  0  0  0  0  0  0  0  0  0  0
    8.7019  -18.3624   20.4569 C   0  0  0  0  0  0  0  0  0  0  0  0
    9.0072  -17.5768   21.7113 C   0  0  1  0  0  0  0  0  0  0  0  0
   10.3908  -17.5635   21.8702 O   0  0  0  0  0  0  0  0  0  0  0  0
    8.4470  -16.1677   21.6285 C   0  0  2  0  0  0  0  0  0  0  0  0
    8.9880  -15.4330   20.5281 N   0  0  0  0  0  0  0  0  0  0  0  0
    8.6859  -15.4366   22.9058 C   0  0  0  0  0  0  0  0  0  0  0  0
    9.6276  -14.6050   22.9600 O   0  0  0  0  0  0  0  0  0  0  0  0
    5.7015  -12.2797   26.9058 C   0  0  0  0  0  0  0  0  0  0  0  0
    7.0037  -13.0355   26.6429 C   0  0  2  0  0  0  0  0  0  0  0  0
    8.1224  -12.0516   26.6944 C   0  0  0  0  0  0  0  0  0  0  0  0
    6.9225  -13.8270   25.3749 C   0  0  0  0  0  0  0  0  0  0  0  0
    8.0455  -14.7803   25.2426 C   0  0  2  0  0  0  0  0  0  0  0  0
    7.9106  -15.6272   24.0607 N   0  0  0  0  0  0  0  0  0  0  0  0
    8.2222  -15.6401   26.4146 C   0  0  0  0  0  0  0  0  0  0  0  0
    7.5788  -16.6791   26.5838 O   0  0  0  0  0  0  0  0  0  0  0  0
    9.1457  -15.2976   27.3943 O   0  0  0  0  0  0  0  0  0  0  0  0
  2  1  1  6
  3  2  1  0
  4  3  1  0
  5 11  1  0
  5  2  1  0
  6  5  2  0
  8 10  1  0
  8  7  1  6
  9  8  1  0
 10 11  1  6
 10 12  1  0
 12 19  1  0
 13 12  2  0
 15 14  1  6
 16 15  1  0
 17 15  1  0
 18 17  1  1
 19 18  1  0
 20 18  1  0
 20 22  1  0
 21 20  2  0
M  END
$$$$
