CTL.pdb
     RDKit          3D

 22 21  0  0  1  0  0  0  0  0999 V2000
    8.1367  -15.3048   17.2224 N   0  0  0  0  0  0  0  0  0  0  0  0
    8.6058  -14.5997   18.3947 C   0  0  1  0  0  0  0  0  0  0  0  0
    8.0792  -13.1681   18.3073 C   0  0  0  0  0  0  0  0  0  0  0  0
    9.2672  -12.0196   19.0404 S   0  0  0  0  0  0  0  0  0  0  0  0
    8.1408  -15.2392   19.6423 C   0  0  0  0  0  0  0  0  0  0  0  0
    7.1879  -16.0724   19.5497 O   0  0  0  0  0  0  0  0  0  0  0  0
    8.0808  -17.7157   20.5549 C   0  0  0  0  0  0  0  0  0  0  0  0
    8.7127  -17.2177   21.8342 C   0  0  1  0  0  0  0  0  0  0  0  0
   10.0829  -17.4496   21.7417 O   0  0  0  0  0  0  0  0  0  0  0  0
    8.4152  -15.7455   22.0585 C   0  0  2  0  0  0  0  0  0  0  0  0
    8.7222  -14.9495   20.9117 N   0  0  0  0  0  0  0  0  0  0  0  0
    9.1543  -15.2410   23.2511 C   0  0  0  0  0  0  0  0  0  0  0  0
    9.9414  -14.2705   23.1093 O   0  0  0  0  0  0  0  0  0  0  0  0
    5.7517  -12.7747   26.6540 C   0  0  0  0  0  0  0  0  0  0  0  0
    7.1455  -13.3933   26.7581 C   0  0  2  0  0  0  0  0  0  0  0  0
    8.1123  -12.2968   27.0506 C   0  0  0  0  0  0  0  0  0  0  0  0
    7.4680  -14.2061   25.5431 C   0  0  0  0  0  0  0  0  0  0  0  0
    8.7164  -14.9815   25.7093 C   0  0  2  0  0  0  0  0  0  0  0  0
    9.0184  -15.7944   24.5343 N   0  0  0  0  0  0  0  0  0  0  0  0
    8.7114  -15.8499   26.8882 C   0  0  0  0  0  0  0  0  0  0  0  0
    9.1855  -15.5051   27.9737 O   0  0  0  0  0  0  0  0  0  0  0  0
    8.1566  -17.1212   26.8119 O   0  0  0  0  0  0  0  0  0  0  0  0
  2  1  1  6
  3  2  1  0
  4  3  1  0
  5 11  1  0
  5  2  1  0
  6  5  2  0
  8 10  1  0
  8  7  1  6
  9  8  1  0
 10 11  1  6
 10 12  1  0
 12 19  1  0
 13 12  2  0
 15 14  1  6
 16 15  1  0
 17 15  1  0
 18 17  1  6
 19 18  1  0
 20 18  1  0
 20 22  1  0
 21 20  2  0
M  END
$$$$
