CTL.pdb
     RDKit          3D

 22 21  0  0  1  0  0  0  0  0999 V2000
    8.0392  -14.6332   17.1964 N   0  0  0  0  0  0  0  0  0  0  0  0
    8.4615  -14.2178   18.5159 C   0  0  1  0  0  0  0  0  0  0  0  0
    7.8676  -12.8333   18.7702 C   0  0  0  0  0  0  0  0  0  0  0  0
    9.1842  -11.5997   18.8827 S   0  0  0  0  0  0  0  0  0  0  0  0
    8.0147  -15.1642   19.5582 C   0  0  0  0  0  0  0  0  0  0  0  0
    7.1291  -16.0132   19.2332 O   0  0  0  0  0  0  0  0  0  0  0  0
    9.9678  -17.6427   21.2205 C   0  0  0  0  0  0  0  0  0  0  0  0
    8.4846  -17.5190   21.4825 C   0  0  1  0  0  0  0  0  0  0  0  0
    8.1635  -18.4139   22.5002 O   0  0  0  0  0  0  0  0  0  0  0  0
    8.1086  -16.0965   21.8585 C   0  0  2  0  0  0  0  0  0  0  0  0
    8.5413  -15.1455   20.8831 N   0  0  0  0  0  0  0  0  0  0  0  0
    8.6603  -15.7495   23.1995 C   0  0  0  0  0  0  0  0  0  0  0  0
    9.8243  -15.2791   23.2717 O   0  0  0  0  0  0  0  0  0  0  0  0
    5.8483  -12.3774   27.1010 C   0  0  0  0  0  0  0  0  0  0  0  0
    7.1514  -13.1078   26.7779 C   0  0  2  0  0  0  0  0  0  0  0  0
    8.2075  -12.0805   26.5498 C   0  0  0  0  0  0  0  0  0  0  0  0
    6.9637  -14.0750   25.6509 C   0  0  0  0  0  0  0  0  0  0  0  0
    8.0972  -15.0179   25.5339 C   0  0  2  0  0  0  0  0  0  0  0  0
    7.9455  -15.9202   24.3959 N   0  0  0  0  0  0  0  0  0  0  0  0
    8.3157  -15.8201   26.7391 C   0  0  0  0  0  0  0  0  0  0  0  0
    7.6865  -16.8545   26.9761 O   0  0  0  0  0  0  0  0  0  0  0  0
    9.2648  -15.4252   27.6736 O   0  0  0  0  0  0  0  0  0  0  0  0
  2  1  1  6
  3  2  1  0
  4  3  1  0
  5 11  1  0
  5  2  1  0
  6  5  2  0
  8 10  1  0
  8  7  1  1
  9  8  1  0
 10 11  1  6
 10 12  1  0
 12 19  1  0
 13 12  2  0
 15 14  1  6
 16 15  1  0
 17 15  1  0
 18 17  1  1
 19 18  1  0
 20 18  1  0
 20 22  1  0
 21 20  2  0
M  END
$$$$
