CTL.pdb
     RDKit          3D

 22 21  0  0  1  0  0  0  0  0999 V2000
   10.6679  -17.4509   18.1370 N   0  0  0  0  0  0  0  0  0  0  0  0
   11.0158  -18.0250   19.4180 C   0  0  1  0  0  0  0  0  0  0  0  0
   12.4967  -17.7372   19.6599 C   0  0  0  0  0  0  0  0  0  0  0  0
   13.2657  -17.1077   18.1499 S   0  0  0  0  0  0  0  0  0  0  0  0
   10.2007  -17.4595   20.5123 C   0  0  0  0  0  0  0  0  0  0  0  0
    9.2280  -16.7117   20.1876 O   0  0  0  0  0  0  0  0  0  0  0  0
    7.9031  -19.1792   22.0907 C   0  0  0  0  0  0  0  0  0  0  0  0
    8.6852  -18.6583   23.2742 C   0  0  1  0  0  0  0  0  0  0  0  0
    9.4966  -19.6952   23.7285 O   0  0  0  0  0  0  0  0  0  0  0  0
    9.5071  -17.4382   22.8973 C   0  0  2  0  0  0  0  0  0  0  0  0
   10.4746  -17.7276   21.8857 N   0  0  0  0  0  0  0  0  0  0  0  0
   10.1739  -16.8671   24.1024 C   0  0  0  0  0  0  0  0  0  0  0  0
   11.4116  -17.0362   24.2463 O   0  0  0  0  0  0  0  0  0  0  0  0
   10.1916  -14.6393   29.0683 C   0  0  0  0  0  0  0  0  0  0  0  0
   10.1191  -13.6825   27.8787 C   0  0  2  0  0  0  0  0  0  0  0  0
    9.4959  -12.4128   28.3497 C   0  0  0  0  0  0  0  0  0  0  0  0
    9.4338  -14.3222   26.7117 C   0  0  0  0  0  0  0  0  0  0  0  0
   10.1795  -15.4942   26.2040 C   0  0  2  0  0  0  0  0  0  0  0  0
    9.4900  -16.1448   25.0933 N   0  0  0  0  0  0  0  0  0  0  0  0
   10.4582  -16.4987   27.2323 C   0  0  0  0  0  0  0  0  0  0  0  0
    9.6176  -17.3190   27.6099 O   0  0  0  0  0  0  0  0  0  0  0  0
   11.7129  -16.5550   27.8261 O   0  0  0  0  0  0  0  0  0  0  0  0
  2  1  1  6
  3  2  1  0
  4  3  1  0
  5 11  1  0
  5  2  1  0
  6  5  2  0
  8 10  1  0
  8  7  1  6
  9  8  1  0
 10 11  1  6
 10 12  1  0
 12 19  1  0
 13 12  2  0
 15 14  1  1
 16 15  1  0
 17 15  1  0
 18 17  1  1
 19 18  1  0
 20 18  1  0
 20 22  1  0
 21 20  2  0
M  END
$$$$
