CTL.pdb
     RDKit          3D

 22 21  0  0  1  0  0  0  0  0999 V2000
    8.4841  -15.0560   17.5075 N   0  0  0  0  0  0  0  0  0  0  0  0
    8.7593  -14.4165   18.7752 C   0  0  1  0  0  0  0  0  0  0  0  0
    8.3081  -12.9613   18.6596 C   0  0  0  0  0  0  0  0  0  0  0  0
    9.6373  -11.8519   19.1793 S   0  0  0  0  0  0  0  0  0  0  0  0
    8.0550  -15.0821   19.8899 C   0  0  0  0  0  0  0  0  0  0  0  0
    7.0403  -15.7871   19.5997 O   0  0  0  0  0  0  0  0  0  0  0  0
    7.2548  -17.5853   20.7517 C   0  0  0  0  0  0  0  0  0  0  0  0
    7.9222  -17.1985   22.0512 C   0  0  1  0  0  0  0  0  0  0  0  0
    9.2441  -17.6323   21.9879 O   0  0  0  0  0  0  0  0  0  0  0  0
    7.8430  -15.7003   22.2863 C   0  0  2  0  0  0  0  0  0  0  0  0
    8.4778  -14.9539   21.2456 N   0  0  0  0  0  0  0  0  0  0  0  0
    8.4342  -15.3489   23.6092 C   0  0  0  0  0  0  0  0  0  0  0  0
    9.6741  -15.1542   23.6854 O   0  0  0  0  0  0  0  0  0  0  0  0
    7.9008  -11.7307   25.7451 C   0  0  0  0  0  0  0  0  0  0  0  0
    6.7594  -12.7092   26.0205 C   0  0  2  0  0  0  0  0  0  0  0  0
    5.6549  -11.9516   26.6752 C   0  0  0  0  0  0  0  0  0  0  0  0
    7.2424  -13.9010   26.7867 C   0  0  0  0  0  0  0  0  0  0  0  0
    8.2350  -14.6873   26.0226 C   0  0  2  0  0  0  0  0  0  0  0  0
    7.6760  -15.2223   24.7842 N   0  0  0  0  0  0  0  0  0  0  0  0
    8.8174  -15.7923   26.7867 C   0  0  0  0  0  0  0  0  0  0  0  0
    8.5602  -16.9757   26.5514 O   0  0  0  0  0  0  0  0  0  0  0  0
    9.7002  -15.5282   27.8264 O   0  0  0  0  0  0  0  0  0  0  0  0
  2  1  1  6
  3  2  1  0
  4  3  1  0
  5 11  1  0
  5  2  1  0
  6  5  2  0
  8 10  1  0
  8  7  1  6
  9  8  1  0
 10 11  1  6
 10 12  1  0
 12 19  1  0
 13 12  2  0
 15 14  1  1
 16 15  1  0
 17 15  1  0
 18 17  1  1
 19 18  1  0
 20 18  1  0
 20 22  1  0
 21 20  2  0
M  END
$$$$
