CTL.pdb
     RDKit          3D

 22 21  0  0  1  0  0  0  0  0999 V2000
    9.0424  -15.4441   17.4249 N   0  0  0  0  0  0  0  0  0  0  0  0
    9.0250  -14.5665   18.5744 C   0  0  1  0  0  0  0  0  0  0  0  0
    8.4202  -13.2375   18.1247 C   0  0  0  0  0  0  0  0  0  0  0  0
    8.4027  -12.0624   19.4982 S   0  0  0  0  0  0  0  0  0  0  0  0
    8.2373  -15.1353   19.6869 C   0  0  0  0  0  0  0  0  0  0  0  0
    7.1771  -15.7654   19.3875 O   0  0  0  0  0  0  0  0  0  0  0  0
    7.1268  -17.4964   20.6316 C   0  0  0  0  0  0  0  0  0  0  0  0
    7.7987  -17.1233   21.9328 C   0  0  1  0  0  0  0  0  0  0  0  0
    9.0653  -17.7025   21.9306 O   0  0  0  0  0  0  0  0  0  0  0  0
    7.8808  -15.6159   22.0976 C   0  0  2  0  0  0  0  0  0  0  0  0
    8.6305  -14.9960   21.0504 N   0  0  0  0  0  0  0  0  0  0  0  0
    8.4625  -15.2684   23.4257 C   0  0  0  0  0  0  0  0  0  0  0  0
    9.7072  -15.1165   23.5201 O   0  0  0  0  0  0  0  0  0  0  0  0
    7.9589  -11.6712   25.9018 C   0  0  0  0  0  0  0  0  0  0  0  0
    6.8187  -12.6794   26.0420 C   0  0  2  0  0  0  0  0  0  0  0  0
    5.6902  -12.0000   26.7401 C   0  0  0  0  0  0  0  0  0  0  0  0
    7.2906  -13.9416   26.6940 C   0  0  0  0  0  0  0  0  0  0  0  0
    8.2689  -14.6675   25.8554 C   0  0  2  0  0  0  0  0  0  0  0  0
    7.6903  -15.0998   24.5862 N   0  0  0  0  0  0  0  0  0  0  0  0
    8.8571  -15.8319   26.5203 C   0  0  0  0  0  0  0  0  0  0  0  0
    8.4999  -16.9884   26.2817 O   0  0  0  0  0  0  0  0  0  0  0  0
    9.8615  -15.6587   27.4643 O   0  0  0  0  0  0  0  0  0  0  0  0
  2  1  1  6
  3  2  1  0
  4  3  1  0
  5 11  1  0
  5  2  1  0
  6  5  2  0
  8 10  1  0
  8  7  1  6
  9  8  1  0
 10 11  1  6
 10 12  1  0
 12 19  1  0
 13 12  2  0
 15 14  1  1
 16 15  1  0
 17 15  1  0
 18 17  1  1
 19 18  1  0
 20 18  1  0
 20 22  1  0
 21 20  2  0
M  END
$$$$
