KKR.pdb
     RDKit          3D

 30 29  0  0  1  0  0  0  0  0999 V2000
   22.9249  -22.3276  -21.6917 N   0  0  0  0  0  0  0  0  0  0  0  0
   22.2103  -21.8359  -20.5630 C   0  0  1  0  0  0  0  0  0  0  0  0
   20.8636  -22.5253  -20.5186 C   0  0  0  0  0  0  0  0  0  0  0  0
   20.2933  -22.4144  -21.9281 C   0  0  0  0  0  0  0  0  0  0  0  0
   18.9011  -21.8636  -21.9598 C   0  0  0  0  0  0  0  0  0  0  0  0
   18.3471  -21.8526  -23.3577 C   0  0  0  0  0  0  0  0  0  0  0  0
   17.9179  -23.1977  -23.7057 N   0  0  0  0  0  0  0  0  0  0  0  0
   22.9941  -22.1048  -19.3218 C   0  0  0  0  0  0  0  0  0  0  0  0
   22.5649  -21.7443  -18.1952 O   0  0  0  0  0  0  0  0  0  0  0  0
   24.2231  -22.7670  -19.4109 N   0  0  0  0  0  0  0  0  0  0  0  0
   25.1568  -23.0751  -18.3615 C   0  0  1  0  0  0  0  0  0  0  0  0
   26.1641  -24.1612  -18.6809 C   0  0  0  0  0  0  0  0  0  0  0  0
   26.2648  -25.1817  -17.5767 C   0  0  0  0  0  0  0  0  0  0  0  0
   27.2234  -26.2943  -17.9107 C   0  0  0  0  0  0  0  0  0  0  0  0
   27.2302  -27.3855  -16.8931 C   0  0  0  0  0  0  0  0  0  0  0  0
   28.1025  -28.4739  -17.3509 N   0  0  0  0  0  0  0  0  0  0  0  0
   25.7055  -21.9068  -17.6863 C   0  0  0  0  0  0  0  0  0  0  0  0
   26.2393  -20.9446  -18.3351 O   0  0  0  0  0  0  0  0  0  0  0  0
   23.8755  -20.7150   -9.5560 N   0  0  0  0  0  0  0  0  0  0  0  0
   25.2822  -20.6833   -9.4716 C   0  0  0  0  0  0  0  0  0  0  0  0
   25.8310  -20.7334   -8.3110 N   0  0  0  0  0  0  0  0  0  0  0  0
   26.0507  -20.5962  -10.6725 N   0  0  0  0  0  0  0  0  0  0  0  0
   25.2974  -20.4954  -11.9032 C   0  0  0  0  0  0  0  0  0  0  0  0
   26.2144  -20.4533  -13.1268 C   0  0  0  0  0  0  0  0  0  0  0  0
   25.3428  -20.3447  -14.3440 C   0  0  0  0  0  0  0  0  0  0  0  0
   26.1351  -20.5653  -15.5845 C   0  0  2  0  0  0  0  0  0  0  0  0
   25.6826  -21.7659  -16.2941 N   0  0  0  0  0  0  0  0  0  0  0  0
   27.5567  -20.8013  -15.2568 C   0  0  0  0  0  0  0  0  0  0  0  0
   28.0658  -21.9360  -15.0691 O   0  0  0  0  0  0  0  0  0  0  0  0
   28.4691  -19.7259  -15.1288 O   0  0  0  0  0  0  0  0  0  0  0  0
  2  1  1  6
  2  3  1  0
  3  4  1  0
  4  5  1  0
  5  6  1  0
  6  7  1  0
  8  9  2  0
  8  2  1  0
 10  8  1  0
 11 10  1  0
 11 17  1  0
 11 12  1  6
 13 14  1  0
 13 12  1  0
 15 16  1  0
 15 14  1  0
 17 18  2  0
 19 20  1  0
 20 21  2  0
 20 22  1  0
 22 23  1  0
 24 23  1  0
 24 25  1  0
 26 25  1  1
 27 17  1  0
 27 26  1  0
 28 30  1  0
 28 26  1  0
 29 28  2  0
M  END
$$$$
