KKR.pdb
     RDKit          3D

 30 29  0  0  1  0  0  0  0  0999 V2000
   29.1054  -23.4408  -15.9403 N   0  0  0  0  0  0  0  0  0  0  0  0
   27.9481  -23.2370  -16.7437 C   0  0  1  0  0  0  0  0  0  0  0  0
   27.2461  -24.5677  -16.9082 C   0  0  0  0  0  0  0  0  0  0  0  0
   28.2698  -25.5019  -17.5434 C   0  0  0  0  0  0  0  0  0  0  0  0
   27.8904  -26.9472  -17.4458 C   0  0  0  0  0  0  0  0  0  0  0  0
   28.9212  -27.8301  -18.0934 C   0  0  0  0  0  0  0  0  0  0  0  0
   28.5893  -29.2197  -17.8228 N   0  0  0  0  0  0  0  0  0  0  0  0
   27.0569  -22.2355  -16.0878 C   0  0  0  0  0  0  0  0  0  0  0  0
   26.7308  -22.3543  -14.8783 O   0  0  0  0  0  0  0  0  0  0  0  0
   26.5770  -21.1492  -16.8271 N   0  0  0  0  0  0  0  0  0  0  0  0
   25.7239  -20.0748  -16.3961 C   0  0  1  0  0  0  0  0  0  0  0  0
   26.0076  -18.7239  -17.0214 C   0  0  0  0  0  0  0  0  0  0  0  0
   25.0883  -17.6523  -16.4945 C   0  0  0  0  0  0  0  0  0  0  0  0
   25.3636  -16.3068  -17.1125 C   0  0  0  0  0  0  0  0  0  0  0  0
   24.5985  -15.1997  -16.4679 C   0  0  0  0  0  0  0  0  0  0  0  0
   24.9702  -13.9232  -17.0903 N   0  0  0  0  0  0  0  0  0  0  0  0
   24.3135  -20.4282  -16.3093 C   0  0  0  0  0  0  0  0  0  0  0  0
   23.6642  -20.8560  -17.3228 O   0  0  0  0  0  0  0  0  0  0  0  0
   19.0668  -23.6204  -11.4468 N   0  0  0  0  0  0  0  0  0  0  0  0
   18.0638  -23.0462  -12.2538 C   0  0  0  0  0  0  0  0  0  0  0  0
   16.9369  -23.6538  -12.3615 N   0  0  0  0  0  0  0  0  0  0  0  0
   18.3295  -21.8133  -12.9242 N   0  0  0  0  0  0  0  0  0  0  0  0
   19.6943  -21.3381  -12.8634 C   0  0  0  0  0  0  0  0  0  0  0  0
   20.6252  -22.1748  -13.7427 C   0  0  0  0  0  0  0  0  0  0  0  0
   21.9729  -21.5142  -13.7346 C   0  0  0  0  0  0  0  0  0  0  0  0
   22.1824  -20.7224  -14.9773 C   0  0  2  0  0  0  0  0  0  0  0  0
   23.5858  -20.3219  -15.1186 N   0  0  0  0  0  0  0  0  0  0  0  0
   21.4065  -19.4656  -14.9285 C   0  0  0  0  0  0  0  0  0  0  0  0
   21.7254  -18.4573  -14.2476 O   0  0  0  0  0  0  0  0  0  0  0  0
   20.2114  -19.3111  -15.6723 O   0  0  0  0  0  0  0  0  0  0  0  0
  2  1  1  1
  2  3  1  0
  3  4  1  0
  4  5  1  0
  5  6  1  0
  6  7  1  0
  8  9  2  0
  8  2  1  0
 10  8  1  0
 11 10  1  0
 11 17  1  0
 11 12  1  6
 13 14  1  0
 13 12  1  0
 15 16  1  0
 15 14  1  0
 17 18  2  0
 19 20  1  0
 20 21  2  0
 20 22  1  0
 22 23  1  0
 24 23  1  0
 24 25  1  0
 26 25  1  1
 27 17  1  0
 27 26  1  0
 28 30  1  0
 28 26  1  0
 29 28  2  0
M  END
$$$$
