KKR.pdb
     RDKit          3D

 30 29  0  0  1  0  0  0  0  0999 V2000
   27.6963  -23.7195  -17.6259 N   0  0  0  0  0  0  0  0  0  0  0  0
   27.1203  -22.4618  -17.2901 C   0  0  1  0  0  0  0  0  0  0  0  0
   26.6126  -21.8190  -18.5628 C   0  0  0  0  0  0  0  0  0  0  0  0
   27.8455  -21.5762  -19.4261 C   0  0  0  0  0  0  0  0  0  0  0  0
   28.3735  -20.1788  -19.3213 C   0  0  0  0  0  0  0  0  0  0  0  0
   29.5586  -19.9710  -20.2234 C   0  0  0  0  0  0  0  0  0  0  0  0
   30.0882  -18.6342  -20.0062 N   0  0  0  0  0  0  0  0  0  0  0  0
   26.0123  -22.6670  -16.3115 C   0  0  0  0  0  0  0  0  0  0  0  0
   25.3138  -23.7135  -16.3357 O   0  0  0  0  0  0  0  0  0  0  0  0
   25.7458  -21.6831  -15.3535 N   0  0  0  0  0  0  0  0  0  0  0  0
   24.6922  -21.6420  -14.3757 C   0  0  1  0  0  0  0  0  0  0  0  0
   25.0984  -21.1617  -12.9970 C   0  0  0  0  0  0  0  0  0  0  0  0
   23.9834  -21.3118  -11.9944 C   0  0  0  0  0  0  0  0  0  0  0  0
   24.3816  -20.8417  -10.6202 C   0  0  0  0  0  0  0  0  0  0  0  0
   23.3026  -21.0211   -9.6053 C   0  0  0  0  0  0  0  0  0  0  0  0
   23.7472  -20.4719   -8.3185 N   0  0  0  0  0  0  0  0  0  0  0  0
   23.4361  -21.0962  -14.8717 C   0  0  0  0  0  0  0  0  0  0  0  0
   23.2989  -19.8527  -15.1296 O   0  0  0  0  0  0  0  0  0  0  0  0
   18.9570  -25.5235  -11.6020 N   0  0  0  0  0  0  0  0  0  0  0  0
   18.1402  -25.6295  -12.7460 C   0  0  0  0  0  0  0  0  0  0  0  0
   16.9935  -26.1978  -12.6337 N   0  0  0  0  0  0  0  0  0  0  0  0
   18.6101  -25.1053  -13.9888 N   0  0  0  0  0  0  0  0  0  0  0  0
   19.7645  -24.2367  -13.9164 C   0  0  0  0  0  0  0  0  0  0  0  0
   19.4156  -22.8810  -13.2997 C   0  0  0  0  0  0  0  0  0  0  0  0
   20.6625  -22.0455  -13.3043 C   0  0  0  0  0  0  0  0  0  0  0  0
   20.9519  -21.5330  -14.6714 C   0  0  2  0  0  0  0  0  0  0  0  0
   22.3082  -21.8941  -15.0952 N   0  0  0  0  0  0  0  0  0  0  0  0
   20.9015  -20.0562  -14.6929 C   0  0  0  0  0  0  0  0  0  0  0  0
   21.4342  -19.3124  -13.8299 O   0  0  0  0  0  0  0  0  0  0  0  0
   20.2260  -19.3594  -15.7242 O   0  0  0  0  0  0  0  0  0  0  0  0
  2  1  1  6
  2  3  1  0
  3  4  1  0
  4  5  1  0
  5  6  1  0
  6  7  1  0
  8  9  2  0
  8  2  1  0
 10  8  1  0
 11 10  1  0
 11 17  1  0
 11 12  1  1
 13 14  1  0
 13 12  1  0
 15 16  1  0
 15 14  1  0
 17 18  2  0
 19 20  1  0
 20 21  2  0
 20 22  1  0
 22 23  1  0
 24 23  1  0
 24 25  1  0
 26 25  1  1
 27 17  1  0
 27 26  1  0
 28 30  1  0
 28 26  1  0
 29 28  2  0
M  END
$$$$
