KKR.pdb
     RDKit          3D

 30 29  0  0  1  0  0  0  0  0999 V2000
   24.9953  -21.7171  -21.7292 N   0  0  0  0  0  0  0  0  0  0  0  0
   24.4744  -20.7929  -20.7800 C   0  0  1  0  0  0  0  0  0  0  0  0
   23.1948  -20.2101  -21.3402 C   0  0  0  0  0  0  0  0  0  0  0  0
   23.6224  -19.2689  -22.4606 C   0  0  0  0  0  0  0  0  0  0  0  0
   22.4707  -18.5763  -23.1214 C   0  0  0  0  0  0  0  0  0  0  0  0
   22.9336  -17.6975  -24.2505 C   0  0  0  0  0  0  0  0  0  0  0  0
   21.7726  -17.0946  -24.8854 N   0  0  0  0  0  0  0  0  0  0  0  0
   24.2255  -21.4946  -19.4867 C   0  0  0  0  0  0  0  0  0  0  0  0
   23.1760  -22.1651  -19.3063 O   0  0  0  0  0  0  0  0  0  0  0  0
   25.1715  -21.4066  -18.4599 N   0  0  0  0  0  0  0  0  0  0  0  0
   25.1173  -21.9670  -17.1367 C   0  0  1  0  0  0  0  0  0  0  0  0
   26.4589  -22.2410  -16.4875 C   0  0  0  0  0  0  0  0  0  0  0  0
   27.3091  -23.1694  -17.3158 C   0  0  0  0  0  0  0  0  0  0  0  0
   28.6064  -23.5184  -16.6352 C   0  0  0  0  0  0  0  0  0  0  0  0
   29.5466  -24.2688  -17.5181 C   0  0  0  0  0  0  0  0  0  0  0  0
   30.7172  -24.6892  -16.7383 N   0  0  0  0  0  0  0  0  0  0  0  0
   24.1270  -21.3495  -16.2650 C   0  0  0  0  0  0  0  0  0  0  0  0
   24.0184  -20.0807  -16.1643 O   0  0  0  0  0  0  0  0  0  0  0  0
   24.3891  -20.9035   -9.4136 N   0  0  0  0  0  0  0  0  0  0  0  0
   25.6860  -20.8413   -9.9625 C   0  0  0  0  0  0  0  0  0  0  0  0
   26.6696  -21.2962   -9.2725 N   0  0  0  0  0  0  0  0  0  0  0  0
   25.8663  -20.2768  -11.2622 N   0  0  0  0  0  0  0  0  0  0  0  0
   24.6597  -19.8921  -11.9610 C   0  0  0  0  0  0  0  0  0  0  0  0
   24.1403  -21.0183  -12.8566 C   0  0  0  0  0  0  0  0  0  0  0  0
   23.0397  -20.4523  -13.7058 C   0  0  0  0  0  0  0  0  0  0  0  0
   22.3529  -21.5291  -14.4700 C   0  0  2  0  0  0  0  0  0  0  0  0
   23.2386  -22.1018  -15.4884 N   0  0  0  0  0  0  0  0  0  0  0  0
   21.1919  -20.9842  -15.2043 C   0  0  0  0  0  0  0  0  0  0  0  0
   21.1796  -20.7406  -16.4381 O   0  0  0  0  0  0  0  0  0  0  0  0
   19.9754  -20.6914  -14.5413 O   0  0  0  0  0  0  0  0  0  0  0  0
  2  1  1  6
  2  3  1  0
  3  4  1  0
  4  5  1  0
  5  6  1  0
  6  7  1  0
  8  9  2  0
  8  2  1  0
 10  8  1  0
 11 10  1  0
 11 17  1  0
 11 12  1  1
 13 14  1  0
 13 12  1  0
 15 16  1  0
 15 14  1  0
 17 18  2  0
 19 20  1  0
 20 21  2  0
 20 22  1  0
 22 23  1  0
 24 23  1  0
 24 25  1  0
 26 25  1  6
 27 17  1  0
 27 26  1  0
 28 30  1  0
 28 26  1  0
 29 28  2  0
M  END
$$$$
