KKR.pdb
     RDKit          3D

 30 29  0  0  1  0  0  0  0  0999 V2000
   29.1757  -21.8516  -12.9823 N   0  0  0  0  0  0  0  0  0  0  0  0
   28.4771  -20.8924  -12.1959 C   0  0  1  0  0  0  0  0  0  0  0  0
   29.4753  -20.2093  -11.2860 C   0  0  0  0  0  0  0  0  0  0  0  0
   30.0700  -21.3130  -10.4187 C   0  0  0  0  0  0  0  0  0  0  0  0
   31.5482  -21.4727  -10.5981 C   0  0  0  0  0  0  0  0  0  0  0  0
   32.0893  -22.5792   -9.7354 C   0  0  0  0  0  0  0  0  0  0  0  0
   32.0919  -22.1386   -8.3497 N   0  0  0  0  0  0  0  0  0  0  0  0
   27.8047  -19.9076  -13.0932 C   0  0  0  0  0  0  0  0  0  0  0  0
   27.2240  -18.8953  -12.6224 O   0  0  0  0  0  0  0  0  0  0  0  0
   27.8195  -20.1117  -14.4770 N   0  0  0  0  0  0  0  0  0  0  0  0
   26.7684  -19.8823  -15.4312 C   0  0  1  0  0  0  0  0  0  0  0  0
   27.2233  -19.5857  -16.8460 C   0  0  0  0  0  0  0  0  0  0  0  0
   28.4314  -18.6855  -16.8747 C   0  0  0  0  0  0  0  0  0  0  0  0
   28.8998  -18.4001  -18.2773 C   0  0  0  0  0  0  0  0  0  0  0  0
   30.1143  -17.5344  -18.3235 C   0  0  0  0  0  0  0  0  0  0  0  0
   30.4900  -17.2954  -19.7223 N   0  0  0  0  0  0  0  0  0  0  0  0
   25.6515  -20.8115  -15.3264 C   0  0  0  0  0  0  0  0  0  0  0  0
   25.7119  -21.8548  -14.5918 O   0  0  0  0  0  0  0  0  0  0  0  0
   21.6866  -19.7469   -9.1864 N   0  0  0  0  0  0  0  0  0  0  0  0
   22.3915  -20.8841   -9.6301 C   0  0  0  0  0  0  0  0  0  0  0  0
   22.9934  -21.6139   -8.7608 N   0  0  0  0  0  0  0  0  0  0  0  0
   22.4155  -21.1886  -11.0255 N   0  0  0  0  0  0  0  0  0  0  0  0
   21.8591  -20.1840  -11.9049 C   0  0  0  0  0  0  0  0  0  0  0  0
   21.7934  -20.6724  -13.3530 C   0  0  0  0  0  0  0  0  0  0  0  0
   23.1215  -20.3843  -13.9901 C   0  0  0  0  0  0  0  0  0  0  0  0
   23.1231  -20.7947  -15.4208 C   0  0  2  0  0  0  0  0  0  0  0  0
   24.4504  -20.6212  -16.0190 N   0  0  0  0  0  0  0  0  0  0  0  0
   22.2105  -19.9384  -16.2069 C   0  0  0  0  0  0  0  0  0  0  0  0
   20.9553  -20.0021  -16.1586 O   0  0  0  0  0  0  0  0  0  0  0  0
   22.7094  -18.9563  -17.0967 O   0  0  0  0  0  0  0  0  0  0  0  0
  2  1  1  6
  2  3  1  0
  3  4  1  0
  4  5  1  0
  5  6  1  0
  6  7  1  0
  8  9  2  0
  8  2  1  0
 10  8  1  0
 11 10  1  0
 11 17  1  0
 11 12  1  6
 13 14  1  0
 13 12  1  0
 15 16  1  0
 15 14  1  0
 17 18  2  0
 19 20  1  0
 20 21  2  0
 20 22  1  0
 22 23  1  0
 24 23  1  0
 24 25  1  0
 26 25  1  1
 27 17  1  0
 27 26  1  0
 28 30  1  0
 28 26  1  0
 29 28  2  0
M  END
$$$$
