KKR.pdb
     RDKit          3D

 30 29  0  0  1  0  0  0  0  0999 V2000
   24.2059  -21.1810  -13.2930 N   0  0  0  0  0  0  0  0  0  0  0  0
   23.4440  -20.3761  -14.1863 C   0  0  1  0  0  0  0  0  0  0  0  0
   23.6807  -20.8782  -15.5944 C   0  0  0  0  0  0  0  0  0  0  0  0
   25.1742  -20.7102  -15.8500 C   0  0  0  0  0  0  0  0  0  0  0  0
   25.9087  -22.0125  -15.9345 C   0  0  0  0  0  0  0  0  0  0  0  0
   27.3548  -21.8047  -16.2906 C   0  0  0  0  0  0  0  0  0  0  0  0
   28.0921  -23.0240  -16.0004 N   0  0  0  0  0  0  0  0  0  0  0  0
   21.9993  -20.4580  -13.8212 C   0  0  0  0  0  0  0  0  0  0  0  0
   21.1168  -19.9409  -14.5542 O   0  0  0  0  0  0  0  0  0  0  0  0
   21.6197  -21.1186  -12.6480 N   0  0  0  0  0  0  0  0  0  0  0  0
   20.4530  -21.9239  -12.4066 C   0  0  1  0  0  0  0  0  0  0  0  0
   20.4389  -22.6764  -11.0913 C   0  0  0  0  0  0  0  0  0  0  0  0
   19.2096  -23.5355  -10.9443 C   0  0  0  0  0  0  0  0  0  0  0  0
   19.1508  -24.2273   -9.6078 C   0  0  0  0  0  0  0  0  0  0  0  0
   17.8545  -24.9263   -9.3677 C   0  0  0  0  0  0  0  0  0  0  0  0
   17.8016  -25.3912   -7.9763 N   0  0  0  0  0  0  0  0  0  0  0  0
   19.1961  -21.2775  -12.7588 C   0  0  0  0  0  0  0  0  0  0  0  0
   18.7189  -20.3147  -12.0681 O   0  0  0  0  0  0  0  0  0  0  0  0
   15.6773  -20.3198  -20.5750 N   0  0  0  0  0  0  0  0  0  0  0  0
   14.7459  -19.5700  -19.8285 C   0  0  0  0  0  0  0  0  0  0  0  0
   13.8205  -18.9368  -20.4557 N   0  0  0  0  0  0  0  0  0  0  0  0
   14.8590  -19.5366  -18.4050 N   0  0  0  0  0  0  0  0  0  0  0  0
   15.9894  -20.2407  -17.8406 C   0  0  0  0  0  0  0  0  0  0  0  0
   15.9956  -20.1697  -16.3125 C   0  0  0  0  0  0  0  0  0  0  0  0
   17.2325  -20.8699  -15.8303 C   0  0  0  0  0  0  0  0  0  0  0  0
   17.2517  -20.9484  -14.3441 C   0  0  2  0  0  0  0  0  0  0  0  0
   18.4373  -21.6678  -13.8681 N   0  0  0  0  0  0  0  0  0  0  0  0
   16.0887  -21.7148  -13.8502 C   0  0  0  0  0  0  0  0  0  0  0  0
   16.0343  -22.9700  -13.7940 O   0  0  0  0  0  0  0  0  0  0  0  0
   14.9193  -21.0607  -13.3919 O   0  0  0  0  0  0  0  0  0  0  0  0
  2  1  1  1
  2  3  1  0
  3  4  1  0
  4  5  1  0
  5  6  1  0
  6  7  1  0
  8  9  2  0
  8  2  1  0
 10  8  1  0
 11 10  1  0
 11 17  1  0
 11 12  1  1
 13 14  1  0
 13 12  1  0
 15 16  1  0
 15 14  1  0
 17 18  2  0
 19 20  1  0
 20 21  2  0
 20 22  1  0
 22 23  1  0
 24 23  1  0
 24 25  1  0
 26 25  1  6
 27 17  1  0
 27 26  1  0
 28 30  1  0
 28 26  1  0
 29 28  2  0
M  END
$$$$
