KKR.pdb
     RDKit          3D

 30 29  0  0  1  0  0  0  0  0999 V2000
   23.3571  -15.8388  -18.2581 N   0  0  0  0  0  0  0  0  0  0  0  0
   21.9859  -16.0793  -17.9607 C   0  0  1  0  0  0  0  0  0  0  0  0
   21.1893  -15.9155  -19.2371 C   0  0  0  0  0  0  0  0  0  0  0  0
   22.0779  -15.1141  -20.1817 C   0  0  0  0  0  0  0  0  0  0  0  0
   21.3901  -14.7297  -21.4552 C   0  0  0  0  0  0  0  0  0  0  0  0
   22.3167  -13.9849  -22.3760 C   0  0  0  0  0  0  0  0  0  0  0  0
   21.5556  -13.4896  -23.5117 N   0  0  0  0  0  0  0  0  0  0  0  0
   21.8314  -17.4546  -17.4022 C   0  0  0  0  0  0  0  0  0  0  0  0
   20.6937  -17.9168  -17.1274 O   0  0  0  0  0  0  0  0  0  0  0  0
   22.9664  -18.2418  -17.1809 N   0  0  0  0  0  0  0  0  0  0  0  0
   23.0524  -19.5493  -16.5887 C   0  0  1  0  0  0  0  0  0  0  0  0
   24.3478  -20.2955  -16.8372 C   0  0  0  0  0  0  0  0  0  0  0  0
   24.2907  -21.7128  -16.3284 C   0  0  0  0  0  0  0  0  0  0  0  0
   25.6192  -22.4140  -16.4363 C   0  0  0  0  0  0  0  0  0  0  0  0
   25.5491  -23.8590  -16.0709 C   0  0  0  0  0  0  0  0  0  0  0  0
   26.8910  -24.4486  -16.1536 N   0  0  0  0  0  0  0  0  0  0  0  0
   22.5536  -19.6216  -15.2220 C   0  0  0  0  0  0  0  0  0  0  0  0
   23.0556  -18.9131  -14.2851 O   0  0  0  0  0  0  0  0  0  0  0  0
   15.6567  -23.9125  -11.9724 N   0  0  0  0  0  0  0  0  0  0  0  0
   16.0132  -23.1469  -10.8438 C   0  0  0  0  0  0  0  0  0  0  0  0
   15.2320  -23.1524   -9.8239 N   0  0  0  0  0  0  0  0  0  0  0  0
   17.2254  -22.3917  -10.8685 N   0  0  0  0  0  0  0  0  0  0  0  0
   17.9665  -22.4199  -12.1104 C   0  0  0  0  0  0  0  0  0  0  0  0
   19.1749  -21.4828  -12.0703 C   0  0  0  0  0  0  0  0  0  0  0  0
   19.7818  -21.4653  -13.4430 C   0  0  0  0  0  0  0  0  0  0  0  0
   20.9361  -20.5275  -13.5001 C   0  0  2  0  0  0  0  0  0  0  0  0
   21.5006  -20.4658  -14.8519 N   0  0  0  0  0  0  0  0  0  0  0  0
   22.0308  -20.9985  -12.6262 C   0  0  0  0  0  0  0  0  0  0  0  0
   22.7819  -21.9729  -12.8874 O   0  0  0  0  0  0  0  0  0  0  0  0
   22.3138  -20.3596  -11.3946 O   0  0  0  0  0  0  0  0  0  0  0  0
  2  1  1  6
  2  3  1  0
  3  4  1  0
  4  5  1  0
  5  6  1  0
  6  7  1  0
  8  9  2  0
  8  2  1  0
 10  8  1  0
 11 10  1  0
 11 17  1  0
 11 12  1  1
 13 14  1  0
 13 12  1  0
 15 16  1  0
 15 14  1  0
 17 18  2  0
 19 20  1  0
 20 21  2  0
 20 22  1  0
 22 23  1  0
 24 23  1  0
 24 25  1  0
 26 25  1  6
 27 17  1  0
 27 26  1  0
 28 30  1  0
 28 26  1  0
 29 28  2  0
M  END
$$$$
