KKR.pdb
     RDKit          3D

 30 29  0  0  1  0  0  0  0  0999 V2000
   25.8708  -24.4205  -15.9062 N   0  0  0  0  0  0  0  0  0  0  0  0
   25.7704  -23.0153  -15.7026 C   0  0  1  0  0  0  0  0  0  0  0  0
   25.4720  -22.3641  -17.0359 C   0  0  0  0  0  0  0  0  0  0  0  0
   26.4736  -22.9562  -18.0209 C   0  0  0  0  0  0  0  0  0  0  0  0
   27.8674  -22.4449  -17.8245 C   0  0  0  0  0  0  0  0  0  0  0  0
   28.7977  -22.9665  -18.8846 C   0  0  0  0  0  0  0  0  0  0  0  0
   30.1352  -22.4550  -18.6316 N   0  0  0  0  0  0  0  0  0  0  0  0
   24.6914  -22.7316  -14.7114 C   0  0  0  0  0  0  0  0  0  0  0  0
   23.6950  -23.4927  -14.6048 O   0  0  0  0  0  0  0  0  0  0  0  0
   24.7882  -21.6044  -13.8887 N   0  0  0  0  0  0  0  0  0  0  0  0
   23.7906  -21.0335  -13.0245 C   0  0  1  0  0  0  0  0  0  0  0  0
   24.2859  -19.9647  -12.0712 C   0  0  0  0  0  0  0  0  0  0  0  0
   25.4688  -20.4318  -11.2628 C   0  0  0  0  0  0  0  0  0  0  0  0
   25.1285  -20.6241   -9.8083 C   0  0  0  0  0  0  0  0  0  0  0  0
   26.3061  -21.0138   -8.9789 C   0  0  0  0  0  0  0  0  0  0  0  0
   25.8860  -21.1768   -7.5817 N   0  0  0  0  0  0  0  0  0  0  0  0
   22.5282  -20.7310  -13.6853 C   0  0  0  0  0  0  0  0  0  0  0  0
   22.4860  -20.1196  -14.8061 O   0  0  0  0  0  0  0  0  0  0  0  0
   19.6432  -24.0117  -19.1249 N   0  0  0  0  0  0  0  0  0  0  0  0
   19.3945  -22.6773  -19.5051 C   0  0  0  0  0  0  0  0  0  0  0  0
   18.8758  -22.4519  -20.6586 N   0  0  0  0  0  0  0  0  0  0  0  0
   19.7256  -21.6219  -18.6014 N   0  0  0  0  0  0  0  0  0  0  0  0
   20.2707  -22.0264  -17.3241 C   0  0  0  0  0  0  0  0  0  0  0  0
   19.3410  -21.6541  -16.1678 C   0  0  0  0  0  0  0  0  0  0  0  0
   19.9766  -22.1422  -14.8987 C   0  0  0  0  0  0  0  0  0  0  0  0
   20.0268  -21.0582  -13.8801 C   0  0  2  0  0  0  0  0  0  0  0  0
   21.2909  -21.0884  -13.1378 N   0  0  0  0  0  0  0  0  0  0  0  0
   18.9619  -21.2437  -12.8724 C   0  0  0  0  0  0  0  0  0  0  0  0
   19.1378  -21.7505  -11.7349 O   0  0  0  0  0  0  0  0  0  0  0  0
   17.6273  -20.8483  -13.1330 O   0  0  0  0  0  0  0  0  0  0  0  0
  2  1  1  6
  2  3  1  0
  3  4  1  0
  4  5  1  0
  5  6  1  0
  6  7  1  0
  8  9  2  0
  8  2  1  0
 10  8  1  0
 11 10  1  0
 11 17  1  0
 11 12  1  6
 13 14  1  0
 13 12  1  0
 15 16  1  0
 15 14  1  0
 17 18  2  0
 19 20  1  0
 20 21  2  0
 20 22  1  0
 22 23  1  0
 24 23  1  0
 24 25  1  0
 26 25  1  6
 27 17  1  0
 27 26  1  0
 28 30  1  0
 28 26  1  0
 29 28  2  0
M  END
$$$$
