KKR.pdb
     RDKit          3D

 30 29  0  0  1  0  0  0  0  0999 V2000
   27.9512  -21.6888  -16.8047 N   0  0  0  0  0  0  0  0  0  0  0  0
   27.5337  -20.5920  -15.9990 C   0  0  1  0  0  0  0  0  0  0  0  0
   27.1073  -19.4663  -16.9164 C   0  0  0  0  0  0  0  0  0  0  0  0
   28.3879  -18.9475  -17.5607 C   0  0  0  0  0  0  0  0  0  0  0  0
   28.8500  -19.7850  -18.7129 C   0  0  0  0  0  0  0  0  0  0  0  0
   30.0891  -19.2131  -19.3447 C   0  0  0  0  0  0  0  0  0  0  0  0
   30.6397  -20.1893  -20.2712 N   0  0  0  0  0  0  0  0  0  0  0  0
   26.4099  -21.0222  -15.1162 C   0  0  0  0  0  0  0  0  0  0  0  0
   25.5223  -21.8090  -15.5364 O   0  0  0  0  0  0  0  0  0  0  0  0
   26.3415  -20.5448  -13.8030 N   0  0  0  0  0  0  0  0  0  0  0  0
   25.2998  -20.7351  -12.8301 C   0  0  1  0  0  0  0  0  0  0  0  0
   25.6972  -20.4839  -11.3895 C   0  0  0  0  0  0  0  0  0  0  0  0
   24.6080  -20.8777  -10.4254 C   0  0  0  0  0  0  0  0  0  0  0  0
   25.0053  -20.6543   -8.9900 C   0  0  0  0  0  0  0  0  0  0  0  0
   23.9890  -21.1524   -8.0176 C   0  0  0  0  0  0  0  0  0  0  0  0
   24.4476  -20.8793   -6.6500 N   0  0  0  0  0  0  0  0  0  0  0  0
   24.0099  -20.1805  -13.2179 C   0  0  0  0  0  0  0  0  0  0  0  0
   23.8617  -18.9373  -13.4714 O   0  0  0  0  0  0  0  0  0  0  0  0
   20.3759  -15.5787  -16.6566 N   0  0  0  0  0  0  0  0  0  0  0  0
   19.2211  -16.3481  -16.9044 C   0  0  0  0  0  0  0  0  0  0  0  0
   18.1514  -15.7480  -17.2868 N   0  0  0  0  0  0  0  0  0  0  0  0
   19.2747  -17.7639  -16.7231 N   0  0  0  0  0  0  0  0  0  0  0  0
   20.4783  -18.2809  -16.1097 C   0  0  0  0  0  0  0  0  0  0  0  0
   20.4338  -19.8037  -15.9701 C   0  0  0  0  0  0  0  0  0  0  0  0
   21.7397  -20.2435  -15.3751 C   0  0  0  0  0  0  0  0  0  0  0  0
   21.5984  -20.4967  -13.9153 C   0  0  2  0  0  0  0  0  0  0  0  0
   22.8598  -20.9690  -13.3361 N   0  0  0  0  0  0  0  0  0  0  0  0
   20.6132  -21.5702  -13.6681 C   0  0  0  0  0  0  0  0  0  0  0  0
   20.9054  -22.7286  -13.2750 O   0  0  0  0  0  0  0  0  0  0  0  0
   19.2276  -21.3548  -13.8651 O   0  0  0  0  0  0  0  0  0  0  0  0
  2  1  1  6
  2  3  1  0
  3  4  1  0
  4  5  1  0
  5  6  1  0
  6  7  1  0
  8  9  2  0
  8  2  1  0
 10  8  1  0
 11 10  1  0
 11 17  1  0
 11 12  1  1
 13 14  1  0
 13 12  1  0
 15 16  1  0
 15 14  1  0
 17 18  2  0
 19 20  1  0
 20 21  2  0
 20 22  1  0
 22 23  1  0
 24 23  1  0
 24 25  1  0
 26 25  1  6
 27 17  1  0
 27 26  1  0
 28 30  1  0
 28 26  1  0
 29 28  2  0
M  END
$$$$
