KKR.pdb
     RDKit          3D

 30 29  0  0  1  0  0  0  0  0999 V2000
   26.6495  -26.8923  -19.6234 N   0  0  0  0  0  0  0  0  0  0  0  0
   25.4337  -27.2200  -20.2873 C   0  0  1  0  0  0  0  0  0  0  0  0
   25.7768  -27.8206  -21.6335 C   0  0  0  0  0  0  0  0  0  0  0  0
   26.5056  -26.7252  -22.4037 C   0  0  0  0  0  0  0  0  0  0  0  0
   27.9244  -27.0766  -22.7292 C   0  0  0  0  0  0  0  0  0  0  0  0
   28.6008  -25.9738  -23.4958 C   0  0  0  0  0  0  0  0  0  0  0  0
   30.0064  -26.3075  -23.6611 N   0  0  0  0  0  0  0  0  0  0  0  0
   24.6536  -28.1800  -19.4525 C   0  0  0  0  0  0  0  0  0  0  0  0
   23.6075  -28.7208  -19.8960 O   0  0  0  0  0  0  0  0  0  0  0  0
   25.0906  -28.4837  -18.1588 N   0  0  0  0  0  0  0  0  0  0  0  0
   24.5119  -29.3897  -17.2036 C   0  0  1  0  0  0  0  0  0  0  0  0
   25.4981  -30.1182  -16.3130 C   0  0  0  0  0  0  0  0  0  0  0  0
   26.5446  -30.8530  -17.1105 C   0  0  0  0  0  0  0  0  0  0  0  0
   27.6291  -31.4293  -16.2387 C   0  0  0  0  0  0  0  0  0  0  0  0
   28.6312  -32.2280  -17.0031 C   0  0  0  0  0  0  0  0  0  0  0  0
   29.6527  -32.7397  -16.0813 N   0  0  0  0  0  0  0  0  0  0  0  0
   23.3354  -28.8687  -16.5209 C   0  0  0  0  0  0  0  0  0  0  0  0
   23.2993  -27.6790  -16.0571 O   0  0  0  0  0  0  0  0  0  0  0  0
   17.2616  -24.3930  -17.9195 N   0  0  0  0  0  0  0  0  0  0  0  0
   16.6477  -24.8797  -16.7476 C   0  0  0  0  0  0  0  0  0  0  0  0
   15.5412  -24.3499  -16.3662 N   0  0  0  0  0  0  0  0  0  0  0  0
   17.2714  -25.9412  -16.0234 N   0  0  0  0  0  0  0  0  0  0  0  0
   18.5565  -26.3807  -16.5209 C   0  0  0  0  0  0  0  0  0  0  0  0
   19.1112  -27.5486  -15.7034 C   0  0  0  0  0  0  0  0  0  0  0  0
   20.4354  -27.9307  -16.2978 C   0  0  0  0  0  0  0  0  0  0  0  0
   20.9805  -29.1487  -15.6387 C   0  0  2  0  0  0  0  0  0  0  0  0
   22.1786  -29.6332  -16.3312 N   0  0  0  0  0  0  0  0  0  0  0  0
   20.0022  -30.2546  -15.7021 C   0  0  0  0  0  0  0  0  0  0  0  0
   20.1781  -31.3260  -16.3369 O   0  0  0  0  0  0  0  0  0  0  0  0
   18.7596  -30.1753  -15.0276 O   0  0  0  0  0  0  0  0  0  0  0  0
  2  1  1  1
  2  3  1  0
  3  4  1  0
  4  5  1  0
  5  6  1  0
  6  7  1  0
  8  9  2  0
  8  2  1  0
 10  8  1  0
 11 10  1  0
 11 17  1  0
 11 12  1  1
 13 14  1  0
 13 12  1  0
 15 16  1  0
 15 14  1  0
 17 18  2  0
 19 20  1  0
 20 21  2  0
 20 22  1  0
 22 23  1  0
 24 23  1  0
 24 25  1  0
 26 25  1  6
 27 17  1  0
 27 26  1  0
 28 30  1  0
 28 26  1  0
 29 28  2  0
M  END
$$$$
