CTV.pdb
     RDKit          3D

 21 20  0  0  1  0  0  0  0  0999 V2000
   11.9886  -17.0752   19.4806 N   0  0  0  0  0  0  0  0  0  0  0  0
   11.1006  -17.3896   20.5553 C   0  0  1  0  0  0  0  0  0  0  0  0
   11.8033  -18.1624   21.6415 C   0  0  0  0  0  0  0  0  0  0  0  0
   12.8497  -17.1158   22.6715 S   0  0  0  0  0  0  0  0  0  0  0  0
   10.3927  -16.1918   21.0875 C   0  0  0  0  0  0  0  0  0  0  0  0
   10.7993  -15.0342   20.8056 O   0  0  0  0  0  0  0  0  0  0  0  0
    6.8191  -15.2560   20.5858 C   0  0  0  0  0  0  0  0  0  0  0  0
    7.0436  -15.3203   22.0796 C   0  0  1  0  0  0  0  0  0  0  0  0
    6.5484  -16.4829   22.6288 O   0  0  0  0  0  0  0  0  0  0  0  0
    8.5146  -15.1428   22.3857 C   0  0  2  0  0  0  0  0  0  0  0  0
    9.2452  -16.3102   21.9236 N   0  0  0  0  0  0  0  0  0  0  0  0
    8.7069  -14.9176   23.8392 C   0  0  0  0  0  0  0  0  0  0  0  0
    9.4691  -15.6079   24.5593 O   0  0  0  0  0  0  0  0  0  0  0  0
    5.7239  -12.9328   26.0344 C   0  0  0  0  0  0  0  0  0  0  0  0
    7.1228  -12.3756   26.1718 C   0  0  1  0  0  0  0  0  0  0  0  0
    7.3972  -11.8110   27.5322 C   0  0  0  0  0  0  0  0  0  0  0  0
    8.1182  -13.4711   25.8151 C   0  0  2  0  0  0  0  0  0  0  0  0
    7.9810  -13.8566   24.4387 N   0  0  0  0  0  0  0  0  0  0  0  0
    7.8089  -14.6330   26.6996 C   0  0  0  0  0  0  0  0  0  0  0  0
    8.2220  -14.6437   27.8804 O   0  0  0  0  0  0  0  0  0  0  0  0
    7.0713  -15.7123   26.2518 O   0  0  0  0  0  0  0  0  0  0  0  0
  2  3  1  0
  2  5  1  0
  2  1  1  6
  4  3  1  0
  5 11  1  0
  6  5  2  0
  8  7  1  6
  9  8  1  0
 10 11  1  1
 10 12  1  0
 10  8  1  0
 12 18  1  0
 13 12  2  0
 15 16  1  1
 15 14  1  0
 17 15  1  0
 17 18  1  6
 19 17  1  0
 20 19  2  0
 21 19  1  0
M  END
$$$$
