CTV.pdb
     RDKit          3D

 21 20  0  0  1  0  0  0  0  0999 V2000
   12.4318  -17.0000   20.1918 N   0  0  0  0  0  0  0  0  0  0  0  0
   11.4622  -17.3403   21.1848 C   0  0  1  0  0  0  0  0  0  0  0  0
   12.0538  -18.2257   22.2510 C   0  0  0  0  0  0  0  0  0  0  0  0
   10.8454  -18.7127   23.4975 S   0  0  0  0  0  0  0  0  0  0  0  0
   10.7834  -16.1459   21.7609 C   0  0  0  0  0  0  0  0  0  0  0  0
   11.4489  -15.1240   22.0732 O   0  0  0  0  0  0  0  0  0  0  0  0
    7.7174  -14.1986   20.4806 C   0  0  0  0  0  0  0  0  0  0  0  0
    7.4264  -14.6867   21.8818 C   0  0  1  0  0  0  0  0  0  0  0  0
    6.5867  -15.7790   21.8864 O   0  0  0  0  0  0  0  0  0  0  0  0
    8.7237  -14.9790   22.6033 C   0  0  2  0  0  0  0  0  0  0  0  0
    9.3754  -16.1162   21.9769 N   0  0  0  0  0  0  0  0  0  0  0  0
    8.4600  -15.2245   24.0422 C   0  0  0  0  0  0  0  0  0  0  0  0
    8.6425  -16.3300   24.6083 O   0  0  0  0  0  0  0  0  0  0  0  0
    8.1741  -11.8822   26.6777 C   0  0  0  0  0  0  0  0  0  0  0  0
    7.0690  -12.9134   26.7147 C   0  0  1  0  0  0  0  0  0  0  0  0
    5.8527  -12.4960   25.9457 C   0  0  0  0  0  0  0  0  0  0  0  0
    7.6224  -14.2358   26.2018 C   0  0  2  0  0  0  0  0  0  0  0  0
    7.9731  -14.1377   24.8129 N   0  0  0  0  0  0  0  0  0  0  0  0
    6.5408  -15.2489   26.3806 C   0  0  0  0  0  0  0  0  0  0  0  0
    5.9025  -15.6601   25.3863 O   0  0  0  0  0  0  0  0  0  0  0  0
    6.2164  -15.7551   27.6248 O   0  0  0  0  0  0  0  0  0  0  0  0
  2  3  1  0
  2  5  1  0
  2  1  1  6
  4  3  1  0
  5 11  1  0
  6  5  2  0
  8  7  1  6
  9  8  1  0
 10 11  1  6
 10 12  1  0
 10  8  1  0
 12 18  1  0
 13 12  2  0
 15 16  1  6
 15 14  1  0
 17 15  1  0
 17 18  1  6
 19 17  1  0
 20 19  2  0
 21 19  1  0
M  END
$$$$
