CTV.pdb
     RDKit          3D

 21 20  0  0  1  0  0  0  0  0999 V2000
   11.5459  -16.4486   18.8922 N   0  0  0  0  0  0  0  0  0  0  0  0
   11.3937  -16.6719   20.2955 C   0  0  1  0  0  0  0  0  0  0  0  0
   12.7058  -16.5241   21.0218 C   0  0  0  0  0  0  0  0  0  0  0  0
   13.9356  -17.7282   20.4844 S   0  0  0  0  0  0  0  0  0  0  0  0
   10.3209  -15.8334   20.8996 C   0  0  0  0  0  0  0  0  0  0  0  0
   10.1288  -14.6566   20.4957 O   0  0  0  0  0  0  0  0  0  0  0  0
    6.7486  -16.6235   21.0141 C   0  0  0  0  0  0  0  0  0  0  0  0
    7.1188  -16.3257   22.4495 C   0  0  1  0  0  0  0  0  0  0  0  0
    7.2084  -17.4710   23.2102 O   0  0  0  0  0  0  0  0  0  0  0  0
    8.4027  -15.5266   22.4934 C   0  0  2  0  0  0  0  0  0  0  0  0
    9.4840  -16.3252   21.9425 N   0  0  0  0  0  0  0  0  0  0  0  0
    8.6900  -15.1038   23.8858 C   0  0  0  0  0  0  0  0  0  0  0  0
    9.6734  -15.5106   24.5518 O   0  0  0  0  0  0  0  0  0  0  0  0
    7.0542  -12.1758   27.5616 C   0  0  0  0  0  0  0  0  0  0  0  0
    6.8418  -12.6816   26.1526 C   0  0  1  0  0  0  0  0  0  0  0  0
    6.7771  -11.5803   25.1387 C   0  0  0  0  0  0  0  0  0  0  0  0
    7.9474  -13.6749   25.8223 C   0  0  2  0  0  0  0  0  0  0  0  0
    7.7931  -14.1852   24.4891 N   0  0  0  0  0  0  0  0  0  0  0  0
    7.8280  -14.7894   26.8081 C   0  0  0  0  0  0  0  0  0  0  0  0
    7.0429  -15.7373   26.5839 O   0  0  0  0  0  0  0  0  0  0  0  0
    8.5658  -14.8097   27.9763 O   0  0  0  0  0  0  0  0  0  0  0  0
  2  3  1  0
  2  5  1  0
  2  1  1  6
  4  3  1  0
  5 11  1  0
  6  5  2  0
  8  7  1  6
  9  8  1  0
 10 11  1  1
 10 12  1  0
 10  8  1  0
 12 18  1  0
 13 12  2  0
 15 16  1  6
 15 14  1  0
 17 15  1  0
 17 18  1  6
 19 17  1  0
 20 19  2  0
 21 19  1  0
M  END
$$$$
