CTV.pdb
     RDKit          3D

 21 20  0  0  1  0  0  0  0  0999 V2000
    9.7024  -16.8333   15.6429 N   0  0  0  0  0  0  0  0  0  0  0  0
    8.6812  -16.8435   16.6425 C   0  0  1  0  0  0  0  0  0  0  0  0
    8.0998  -18.2223   16.8212 C   0  0  0  0  0  0  0  0  0  0  0  0
    9.3068  -19.4089   17.4424 S   0  0  0  0  0  0  0  0  0  0  0  0
    9.1325  -16.2537   17.9338 C   0  0  0  0  0  0  0  0  0  0  0  0
   10.3596  -16.1764   18.2043 O   0  0  0  0  0  0  0  0  0  0  0  0
    7.4927  -13.0725   19.7127 C   0  0  0  0  0  0  0  0  0  0  0  0
    7.6113  -14.2328   20.6749 C   0  0  1  0  0  0  0  0  0  0  0  0
    6.3979  -14.8452   20.9009 O   0  0  0  0  0  0  0  0  0  0  0  0
    8.6448  -15.2153   20.1693 C   0  0  2  0  0  0  0  0  0  0  0  0
    8.2052  -15.7621   18.8972 N   0  0  0  0  0  0  0  0  0  0  0  0
    8.8659  -16.2822   21.1758 C   0  0  0  0  0  0  0  0  0  0  0  0
    8.2908  -17.3979   21.1505 O   0  0  0  0  0  0  0  0  0  0  0  0
   12.3902  -17.3317   22.6513 C   0  0  0  0  0  0  0  0  0  0  0  0
   11.5004  -16.8100   23.7569 C   0  0  1  0  0  0  0  0  0  0  0  0
   11.8389  -15.4099   24.1693 C   0  0  0  0  0  0  0  0  0  0  0  0
   10.0507  -16.9196   23.3049 C   0  0  2  0  0  0  0  0  0  0  0  0
    9.7835  -16.0135   22.2236 N   0  0  0  0  0  0  0  0  0  0  0  0
    9.2080  -16.5632   24.4842 C   0  0  0  0  0  0  0  0  0  0  0  0
    8.5682  -15.4882   24.4900 O   0  0  0  0  0  0  0  0  0  0  0  0
    9.1094  -17.3924   25.5853 O   0  0  0  0  0  0  0  0  0  0  0  0
  2  3  1  0
  2  5  1  0
  2  1  1  6
  4  3  1  0
  5 11  1  0
  6  5  2  0
  8  7  1  6
  9  8  1  0
 10 11  1  6
 10 12  1  0
 10  8  1  0
 12 18  1  0
 13 12  2  0
 15 16  1  6
 15 14  1  0
 17 15  1  0
 17 18  1  6
 19 17  1  0
 20 19  2  0
 21 19  1  0
M  END
$$$$
