CTV.pdb
     RDKit          3D

 21 20  0  0  1  0  0  0  0  0999 V2000
   11.3399  -16.4319   19.1786 N   0  0  0  0  0  0  0  0  0  0  0  0
   11.7370  -15.7242   20.3548 C   0  0  1  0  0  0  0  0  0  0  0  0
   11.8338  -14.2423   20.0992 C   0  0  0  0  0  0  0  0  0  0  0  0
   13.4135  -13.7654   19.3725 S   0  0  0  0  0  0  0  0  0  0  0  0
   10.8788  -16.0352   21.5321 C   0  0  0  0  0  0  0  0  0  0  0  0
    9.6301  -16.1288   21.4030 O   0  0  0  0  0  0  0  0  0  0  0  0
    9.6752  -18.5495   22.8229 C   0  0  0  0  0  0  0  0  0  0  0  0
   10.4138  -18.0604   24.0483 C   0  0  1  0  0  0  0  0  0  0  0  0
   11.6168  -18.7092   24.2219 O   0  0  0  0  0  0  0  0  0  0  0  0
   10.5963  -16.5604   23.9729 C   0  0  2  0  0  0  0  0  0  0  0  0
   11.4318  -16.2355   22.8298 N   0  0  0  0  0  0  0  0  0  0  0  0
   11.1821  -16.0563   25.2390 C   0  0  0  0  0  0  0  0  0  0  0  0
   12.4101  -15.8618   25.4131 O   0  0  0  0  0  0  0  0  0  0  0  0
    9.8301  -12.9583   27.1662 C   0  0  0  0  0  0  0  0  0  0  0  0
    9.7057  -14.1803   28.0479 C   0  0  1  0  0  0  0  0  0  0  0  0
    8.3130  -14.7311   28.0922 C   0  0  0  0  0  0  0  0  0  0  0  0
   10.7012  -15.2277   27.5683 C   0  0  2  0  0  0  0  0  0  0  0  0
   10.2916  -15.7815   26.3084 N   0  0  0  0  0  0  0  0  0  0  0  0
   10.7276  -16.2987   28.6076 C   0  0  0  0  0  0  0  0  0  0  0  0
   11.1708  -16.0466   29.7500 O   0  0  0  0  0  0  0  0  0  0  0  0
   10.2726  -17.5772   28.3468 O   0  0  0  0  0  0  0  0  0  0  0  0
  2  3  1  0
  2  5  1  0
  2  1  1  6
  4  3  1  0
  5 11  1  0
  6  5  2  0
  8  7  1  6
  9  8  1  0
 10 11  1  6
 10 12  1  0
 10  8  1  0
 12 18  1  0
 13 12  2  0
 15 16  1  6
 15 14  1  0
 17 15  1  0
 17 18  1  6
 19 17  1  0
 20 19  2  0
 21 19  1  0
M  END
$$$$
