CTV.pdb
     RDKit          3D

 21 20  0  0  1  0  0  0  0  0999 V2000
    9.8458  -15.3871   18.0057 N   0  0  0  0  0  0  0  0  0  0  0  0
   10.2767  -15.0855   19.3344 C   0  0  1  0  0  0  0  0  0  0  0  0
   11.1884  -13.8859   19.3584 C   0  0  0  0  0  0  0  0  0  0  0  0
   12.8683  -14.3015   19.8648 S   0  0  0  0  0  0  0  0  0  0  0  0
    9.1429  -14.9472   20.2907 C   0  0  0  0  0  0  0  0  0  0  0  0
    7.9540  -14.9851   19.8787 O   0  0  0  0  0  0  0  0  0  0  0  0
    7.1709  -16.4959   21.1054 C   0  0  0  0  0  0  0  0  0  0  0  0
    7.6709  -16.2902   22.5174 C   0  0  1  0  0  0  0  0  0  0  0  0
    8.5543  -17.2746   22.9033 O   0  0  0  0  0  0  0  0  0  0  0  0
    8.2806  -14.9120   22.6505 C   0  0  2  0  0  0  0  0  0  0  0  0
    9.3590  -14.7694   21.6877 N   0  0  0  0  0  0  0  0  0  0  0  0
    8.7560  -14.6993   24.0393 C   0  0  0  0  0  0  0  0  0  0  0  0
    9.8942  -15.0361   24.4485 O   0  0  0  0  0  0  0  0  0  0  0  0
    7.3203  -11.3647   26.0037 C   0  0  0  0  0  0  0  0  0  0  0  0
    7.2234  -12.6407   26.8089 C   0  0  1  0  0  0  0  0  0  0  0  0
    5.8419  -13.2207   26.8229 C   0  0  0  0  0  0  0  0  0  0  0  0
    8.2373  -13.6367   26.2630 C   0  0  2  0  0  0  0  0  0  0  0  0
    7.8625  -14.0778   24.9490 N   0  0  0  0  0  0  0  0  0  0  0  0
    8.2453  -14.7960   27.2032 C   0  0  0  0  0  0  0  0  0  0  0  0
    8.6748  -14.6491   28.3690 O   0  0  0  0  0  0  0  0  0  0  0  0
    7.7879  -16.0436   26.8240 O   0  0  0  0  0  0  0  0  0  0  0  0
  2  3  1  0
  2  5  1  0
  2  1  1  6
  4  3  1  0
  5 11  1  0
  6  5  2  0
  8  7  1  6
  9  8  1  0
 10 11  1  6
 10 12  1  0
 10  8  1  0
 12 18  1  0
 13 12  2  0
 15 16  1  6
 15 14  1  0
 17 15  1  0
 17 18  1  6
 19 17  1  0
 20 19  2  0
 21 19  1  0
M  END
$$$$
