CTV.pdb
     RDKit          3D

 21 20  0  0  1  0  0  0  0  0999 V2000
    8.4994  -16.1441   18.8781 N   0  0  0  0  0  0  0  0  0  0  0  0
    8.7600  -15.1878   19.9075 C   0  0  1  0  0  0  0  0  0  0  0  0
    8.1181  -13.8595   19.5999 C   0  0  0  0  0  0  0  0  0  0  0  0
    8.5003  -12.6020   20.8343 S   0  0  0  0  0  0  0  0  0  0  0  0
    8.3954  -15.6861   21.2632 C   0  0  0  0  0  0  0  0  0  0  0  0
    7.3299  -16.3332   21.4386 O   0  0  0  0  0  0  0  0  0  0  0  0
    7.7977  -17.9537   22.5442 C   0  0  0  0  0  0  0  0  0  0  0  0
    8.9247  -17.5909   23.4847 C   0  0  1  0  0  0  0  0  0  0  0  0
   10.1372  -18.0853   23.0561 O   0  0  0  0  0  0  0  0  0  0  0  0
    8.9714  -16.0907   23.6752 C   0  0  2  0  0  0  0  0  0  0  0  0
    9.2276  -15.4522   22.3958 N   0  0  0  0  0  0  0  0  0  0  0  0
   10.0055  -15.7385   24.6786 C   0  0  0  0  0  0  0  0  0  0  0  0
   11.2302  -15.6460   24.4183 O   0  0  0  0  0  0  0  0  0  0  0  0
    9.5524  -12.8171   27.1978 C   0  0  0  0  0  0  0  0  0  0  0  0
    9.7779  -14.0880   27.9851 C   0  0  1  0  0  0  0  0  0  0  0  0
    8.5192  -14.6362   28.5851 C   0  0  0  0  0  0  0  0  0  0  0  0
   10.4492  -15.1087   27.0765 C   0  0  2  0  0  0  0  0  0  0  0  0
    9.5721  -15.4944   26.0071 N   0  0  0  0  0  0  0  0  0  0  0  0
   10.7638  -16.2948   27.9263 C   0  0  0  0  0  0  0  0  0  0  0  0
   10.1066  -17.3504   27.7895 O   0  0  0  0  0  0  0  0  0  0  0  0
   11.7706  -16.2656   28.8724 O   0  0  0  0  0  0  0  0  0  0  0  0
  2  3  1  0
  2  5  1  0
  2  1  1  6
  4  3  1  0
  5 11  1  0
  6  5  2  0
  8  7  1  6
  9  8  1  0
 10 11  1  6
 10 12  1  0
 10  8  1  0
 12 18  1  0
 13 12  2  0
 15 16  1  6
 15 14  1  0
 17 15  1  0
 17 18  1  6
 19 17  1  0
 20 19  2  0
 21 19  1  0
M  END
$$$$
