CTV.pdb
     RDKit          3D

 21 20  0  0  1  0  0  0  0  0999 V2000
    8.1861  -15.3485   17.8566 N   0  0  0  0  0  0  0  0  0  0  0  0
    8.4656  -14.4988   18.9710 C   0  0  1  0  0  0  0  0  0  0  0  0
    8.2037  -13.0523   18.6395 C   0  0  0  0  0  0  0  0  0  0  0  0
    8.5432  -11.9506   20.0259 S   0  0  0  0  0  0  0  0  0  0  0  0
    7.7617  -14.9259   20.2125 C   0  0  0  0  0  0  0  0  0  0  0  0
    6.6834  -15.5719   20.1431 O   0  0  0  0  0  0  0  0  0  0  0  0
    7.5721  -17.4311   23.8900 C   0  0  0  0  0  0  0  0  0  0  0  0
    7.9659  -16.7625   22.5924 C   0  0  1  0  0  0  0  0  0  0  0  0
    7.2921  -17.2895   21.5122 O   0  0  0  0  0  0  0  0  0  0  0  0
    7.7594  -15.2678   22.7017 C   0  0  2  0  0  0  0  0  0  0  0  0
    8.2755  -14.6233   21.5064 N   0  0  0  0  0  0  0  0  0  0  0  0
    8.4171  -14.7530   23.9276 C   0  0  0  0  0  0  0  0  0  0  0  0
    9.6454  -14.8647   24.1621 O   0  0  0  0  0  0  0  0  0  0  0  0
    7.0221  -11.3280   25.7284 C   0  0  0  0  0  0  0  0  0  0  0  0
    7.1006  -12.5127   26.6645 C   0  0  1  0  0  0  0  0  0  0  0  0
    5.7681  -13.1509   26.9140 C   0  0  0  0  0  0  0  0  0  0  0  0
    8.0973  -13.5140   26.0968 C   0  0  2  0  0  0  0  0  0  0  0  0
    7.5990  -14.0977   24.8833 N   0  0  0  0  0  0  0  0  0  0  0  0
    8.2745  -14.5737   27.1330 C   0  0  0  0  0  0  0  0  0  0  0  0
    8.8880  -14.3128   28.1916 O   0  0  0  0  0  0  0  0  0  0  0  0
    7.7767  -15.8511   26.9599 O   0  0  0  0  0  0  0  0  0  0  0  0
  2  3  1  0
  2  5  1  0
  2  1  1  6
  4  3  1  0
  5 11  1  0
  6  5  2  0
  8  7  1  1
  9  8  1  0
 10 11  1  6
 10 12  1  0
 10  8  1  0
 12 18  1  0
 13 12  2  0
 15 16  1  6
 15 14  1  0
 17 15  1  0
 17 18  1  6
 19 17  1  0
 20 19  2  0
 21 19  1  0
M  END
$$$$
