CTV.pdb
     RDKit          3D

 21 20  0  0  1  0  0  0  0  0999 V2000
   12.0865  -16.9899   19.0976 N   0  0  0  0  0  0  0  0  0  0  0  0
   12.4077  -17.2688   20.4618 C   0  0  1  0  0  0  0  0  0  0  0  0
   13.8538  -16.9669   20.7595 C   0  0  0  0  0  0  0  0  0  0  0  0
   14.9369  -18.3712   20.4338 S   0  0  0  0  0  0  0  0  0  0  0  0
   11.4860  -16.5971   21.4201 C   0  0  0  0  0  0  0  0  0  0  0  0
   11.0442  -15.4437   21.1768 O   0  0  0  0  0  0  0  0  0  0  0  0
    8.1531  -17.4883   22.3072 C   0  0  0  0  0  0  0  0  0  0  0  0
    8.8869  -17.4788   23.6291 C   0  0  1  0  0  0  0  0  0  0  0  0
    9.2033  -18.7502   24.0556 O   0  0  0  0  0  0  0  0  0  0  0  0
   10.1170  -16.6039   23.5271 C   0  0  2  0  0  0  0  0  0  0  0  0
   11.0757  -17.2265   22.6307 N   0  0  0  0  0  0  0  0  0  0  0  0
   10.6941  -16.3806   24.8752 C   0  0  0  0  0  0  0  0  0  0  0  0
   11.7347  -16.9451   25.2930 O   0  0  0  0  0  0  0  0  0  0  0  0
    8.2943  -14.0963   27.5155 C   0  0  0  0  0  0  0  0  0  0  0  0
    9.7874  -13.8597   27.5428 C   0  0  1  0  0  0  0  0  0  0  0  0
   10.2915  -13.4550   28.8945 C   0  0  0  0  0  0  0  0  0  0  0  0
   10.4867  -15.1167   27.0438 C   0  0  2  0  0  0  0  0  0  0  0  0
   10.0211  -15.4733   25.7331 N   0  0  0  0  0  0  0  0  0  0  0  0
   10.1541  -16.2029   28.0122 C   0  0  0  0  0  0  0  0  0  0  0  0
   10.6911  -16.2154   29.1420 O   0  0  0  0  0  0  0  0  0  0  0  0
    9.2605  -17.2091   27.6983 O   0  0  0  0  0  0  0  0  0  0  0  0
  2  3  1  0
  2  5  1  0
  2  1  1  6
  4  3  1  0
  5 11  1  0
  6  5  2  0
  8  7  1  6
  9  8  1  0
 10 11  1  6
 10 12  1  0
 10  8  1  0
 12 18  1  0
 13 12  2  0
 15 16  1  1
 15 14  1  0
 17 15  1  0
 17 18  1  6
 19 17  1  0
 20 19  2  0
 21 19  1  0
M  END
$$$$
