CTV.pdb
     RDKit          3D

 21 20  0  0  1  0  0  0  0  0999 V2000
   11.9927  -16.6625   19.5492 N   0  0  0  0  0  0  0  0  0  0  0  0
   11.4186  -16.9923   20.8156 C   0  0  1  0  0  0  0  0  0  0  0  0
   12.4636  -17.4892   21.7810 C   0  0  0  0  0  0  0  0  0  0  0  0
   12.9281  -19.2048   21.4780 S   0  0  0  0  0  0  0  0  0  0  0  0
   10.6091  -15.8808   21.3886 C   0  0  0  0  0  0  0  0  0  0  0  0
   11.0451  -14.7000   21.3700 O   0  0  0  0  0  0  0  0  0  0  0  0
    7.0098  -14.8459   20.7063 C   0  0  0  0  0  0  0  0  0  0  0  0
    7.1297  -15.1262   22.1872 C   0  0  1  0  0  0  0  0  0  0  0  0
    6.5710  -16.3374   22.5326 O   0  0  0  0  0  0  0  0  0  0  0  0
    8.5799  -15.0416   22.6099 C   0  0  2  0  0  0  0  0  0  0  0  0
    9.3290  -16.1097   21.9709 N   0  0  0  0  0  0  0  0  0  0  0  0
    8.6825  -15.1104   24.0881 C   0  0  0  0  0  0  0  0  0  0  0  0
    9.2935  -16.0168   24.7055 O   0  0  0  0  0  0  0  0  0  0  0  0
    7.8126  -11.6102   26.3669 C   0  0  0  0  0  0  0  0  0  0  0  0
    7.1316  -12.9022   26.7579 C   0  0  1  0  0  0  0  0  0  0  0  0
    5.7272  -13.0023   26.2455 C   0  0  0  0  0  0  0  0  0  0  0  0
    7.9837  -14.0661   26.2708 C   0  0  2  0  0  0  0  0  0  0  0  0
    8.0484  -14.0858   24.8365 N   0  0  0  0  0  0  0  0  0  0  0  0
    7.3269  -15.3120   26.7652 C   0  0  0  0  0  0  0  0  0  0  0  0
    6.5947  -15.9761   25.9984 O   0  0  0  0  0  0  0  0  0  0  0  0
    7.5029  -15.7629   28.0595 O   0  0  0  0  0  0  0  0  0  0  0  0
  2  3  1  0
  2  5  1  0
  2  1  1  6
  4  3  1  0
  5 11  1  0
  6  5  2  0
  8  7  1  6
  9  8  1  0
 10 11  1  6
 10 12  1  0
 10  8  1  0
 12 18  1  0
 13 12  2  0
 15 16  1  6
 15 14  1  0
 17 15  1  0
 17 18  1  6
 19 17  1  0
 20 19  2  0
 21 19  1  0
M  END
$$$$
