CTV.pdb
     RDKit          3D

 21 20  0  0  1  0  0  0  0  0999 V2000
    7.7245  -15.2661   18.2661 N   0  0  0  0  0  0  0  0  0  0  0  0
    8.3361  -14.5571   19.3456 C   0  0  1  0  0  0  0  0  0  0  0  0
    8.0955  -13.0735   19.2360 C   0  0  0  0  0  0  0  0  0  0  0  0
    8.8626  -12.3527   17.7721 S   0  0  0  0  0  0  0  0  0  0  0  0
    7.9462  -15.0912   20.6805 C   0  0  0  0  0  0  0  0  0  0  0  0
    6.7355  -15.3025   20.9530 O   0  0  0  0  0  0  0  0  0  0  0  0
    8.7825  -17.9021   24.4580 C   0  0  0  0  0  0  0  0  0  0  0  0
    9.2110  -17.2822   23.1472 C   0  0  1  0  0  0  0  0  0  0  0  0
    8.9691  -18.1147   22.0763 O   0  0  0  0  0  0  0  0  0  0  0  0
    8.5385  -15.9386   22.9706 C   0  0  2  0  0  0  0  0  0  0  0  0
    8.9156  -15.3786   21.6843 N   0  0  0  0  0  0  0  0  0  0  0  0
    8.9064  -15.0360   24.0887 C   0  0  0  0  0  0  0  0  0  0  0  0
   10.0329  -14.4951   24.2096 O   0  0  0  0  0  0  0  0  0  0  0  0
    7.1236  -12.4517   27.8989 C   0  0  0  0  0  0  0  0  0  0  0  0
    6.8366  -13.3039   26.6834 C   0  0  1  0  0  0  0  0  0  0  0  0
    6.1903  -12.5371   25.5702 C   0  0  0  0  0  0  0  0  0  0  0  0
    8.1366  -13.9524   26.2280 C   0  0  2  0  0  0  0  0  0  0  0  0
    7.9182  -14.7768   25.0728 N   0  0  0  0  0  0  0  0  0  0  0  0
    8.6161  -14.7915   27.3656 C   0  0  0  0  0  0  0  0  0  0  0  0
    8.3310  -16.0090   27.4046 O   0  0  0  0  0  0  0  0  0  0  0  0
    9.3751  -14.2613   28.3915 O   0  0  0  0  0  0  0  0  0  0  0  0
  2  3  1  0
  2  5  1  0
  2  1  1  6
  4  3  1  0
  5 11  1  0
  6  5  2  0
  8  7  1  1
  9  8  1  0
 10 11  1  6
 10 12  1  0
 10  8  1  0
 12 18  1  0
 13 12  2  0
 15 16  1  6
 15 14  1  0
 17 15  1  0
 17 18  1  6
 19 17  1  0
 20 19  2  0
 21 19  1  0
M  END
$$$$
