CTV.pdb
     RDKit          3D

 21 20  0  0  1  0  0  0  0  0999 V2000
    8.3763  -15.7210   17.6160 N   0  0  0  0  0  0  0  0  0  0  0  0
    8.6784  -14.7919   18.6588 C   0  0  1  0  0  0  0  0  0  0  0  0
    8.5539  -13.3682   18.1807 C   0  0  0  0  0  0  0  0  0  0  0  0
    8.8027  -12.1681   19.5032 S   0  0  0  0  0  0  0  0  0  0  0  0
    7.8882  -15.0385   19.8974 C   0  0  0  0  0  0  0  0  0  0  0  0
    6.6301  -15.0538   19.8577 O   0  0  0  0  0  0  0  0  0  0  0  0
    6.8803  -17.5884   21.5732 C   0  0  0  0  0  0  0  0  0  0  0  0
    7.6047  -16.8858   22.6990 C   0  0  1  0  0  0  0  0  0  0  0  0
    8.8241  -17.4661   22.9729 O   0  0  0  0  0  0  0  0  0  0  0  0
    7.7483  -15.4144   22.3778 C   0  0  2  0  0  0  0  0  0  0  0  0
    8.5183  -15.2630   21.1553 N   0  0  0  0  0  0  0  0  0  0  0  0
    8.3841  -14.7062   23.5156 C   0  0  0  0  0  0  0  0  0  0  0  0
    9.6150  -14.4721   23.5941 O   0  0  0  0  0  0  0  0  0  0  0  0
    5.6927  -13.3346   26.5483 C   0  0  0  0  0  0  0  0  0  0  0  0
    6.9313  -12.5495   26.1801 C   0  0  1  0  0  0  0  0  0  0  0  0
    7.4342  -11.6902   27.2999 C   0  0  0  0  0  0  0  0  0  0  0  0
    8.0004  -13.5245   25.7063 C   0  0  2  0  0  0  0  0  0  0  0  0
    7.5406  -14.2733   24.5707 N   0  0  0  0  0  0  0  0  0  0  0  0
    8.2703  -14.4489   26.8468 C   0  0  0  0  0  0  0  0  0  0  0  0
    7.8018  -15.6088   26.8322 O   0  0  0  0  0  0  0  0  0  0  0  0
    9.0309  -14.0611   27.9334 O   0  0  0  0  0  0  0  0  0  0  0  0
  2  3  1  0
  2  5  1  0
  2  1  1  6
  4  3  1  0
  5 11  1  0
  6  5  2  0
  8  7  1  6
  9  8  1  0
 10 11  1  6
 10 12  1  0
 10  8  1  0
 12 18  1  0
 13 12  2  0
 15 16  1  1
 15 14  1  0
 17 15  1  0
 17 18  1  6
 19 17  1  0
 20 19  2  0
 21 19  1  0
M  END
$$$$
