IVF.pdb
     RDKit          3D

 27 27  0  0  1  0  0  0  0  0999 V2000
    7.2196  -12.0265   18.7564 C   0  0  0  0  0  0  0  0  0  0  0  0
    7.8200  -13.3552   18.3398 C   0  0  0  0  0  0  0  0  0  0  0  0
    8.1157  -14.2509   19.4953 C   0  0  2  0  0  0  0  0  0  0  0  0
    8.9117  -13.5662   20.5449 C   0  0  0  0  0  0  0  0  0  0  0  0
    8.7216  -15.5845   19.1114 C   0  0  2  0  0  0  0  0  0  0  0  0
    7.7696  -16.3034   18.2558 N   0  0  0  0  0  0  0  0  0  0  0  0
    8.9241  -16.3754   20.3487 C   0  0  0  0  0  0  0  0  0  0  0  0
    7.9256  -16.9074   20.8834 O   0  0  0  0  0  0  0  0  0  0  0  0
   12.0277  -18.5970   23.4848 C   0  0  0  0  0  0  0  0  0  0  0  0
   11.8260  -17.9123   22.1557 C   0  0  1  0  0  0  0  0  0  0  0  0
   11.9226  -18.9462   21.0550 C   0  0  0  0  0  0  0  0  0  0  0  0
   10.4645  -17.2403   22.1547 C   0  0  2  0  0  0  0  0  0  0  0  0
   10.2134  -16.5431   20.9307 N   0  0  0  0  0  0  0  0  0  0  0  0
   10.3822  -16.3301   23.3166 C   0  0  0  0  0  0  0  0  0  0  0  0
   10.8370  -15.1470   23.1926 O   0  0  0  0  0  0  0  0  0  0  0  0
    9.8301  -16.6744   24.5741 N   0  0  0  0  0  0  0  0  0  0  0  0
    9.2359  -15.7418   25.5039 C   0  0  1  0  0  0  0  0  0  0  0  0
    8.3416  -14.8115   24.7552 C   0  0  0  0  0  0  0  0  0  0  0  0
    7.7109  -13.7607   25.5810 C   0  0  0  0  0  0  0  0  0  0  0  0
    6.3828  -13.7956   25.9483 C   0  0  0  0  0  0  0  0  0  0  0  0
    5.8015  -12.8109   26.7184 C   0  0  0  0  0  0  0  0  0  0  0  0
    6.5650  -11.7230   27.1588 C   0  0  0  0  0  0  0  0  0  0  0  0
    7.8931  -11.6781   26.7987 C   0  0  0  0  0  0  0  0  0  0  0  0
    8.4412  -12.6841   26.0241 C   0  0  0  0  0  0  0  0  0  0  0  0
    8.6620  -16.3442   26.7073 C   0  0  0  0  0  0  0  0  0  0  0  0
    8.9335  -15.8923   27.8435 O   0  0  0  0  0  0  0  0  0  0  0  0
    7.8129  -17.4224   26.6118 O   0  0  0  0  0  0  0  0  0  0  0  0
  2  1  1  0
  3  2  1  0
  3  4  1  1
  5  3  1  0
  5  6  1  6
  7 13  1  0
  7  5  1  0
  8  7  2  0
 10  9  1  1
 11 10  1  0
 12 10  1  0
 12 13  1  6
 14 12  1  0
 14 15  2  0
 16 14  1  0
 17 16  1  0
 17 25  1  0
 17 18  1  6
 19 20  2  0
 19 18  1  0
 21 20  1  0
 22 21  2  0
 23 22  1  0
 23 24  2  0
 24 19  1  0
 25 27  1  0
 26 25  2  0
M  END
$$$$
