IVF.pdb
     RDKit          3D

 27 27  0  0  1  0  0  0  0  0999 V2000
    7.2113  -11.5691   20.0243 C   0  0  0  0  0  0  0  0  0  0  0  0
    7.5659  -12.9636   19.5460 C   0  0  0  0  0  0  0  0  0  0  0  0
    7.7918  -13.9251   20.6638 C   0  0  2  0  0  0  0  0  0  0  0  0
    8.7607  -13.4058   21.6615 C   0  0  0  0  0  0  0  0  0  0  0  0
    8.1432  -15.3288   20.2175 C   0  0  2  0  0  0  0  0  0  0  0  0
    7.0420  -15.8502   19.3986 N   0  0  0  0  0  0  0  0  0  0  0  0
    8.2697  -16.1811   21.4238 C   0  0  0  0  0  0  0  0  0  0  0  0
    7.2236  -16.6094   21.9605 O   0  0  0  0  0  0  0  0  0  0  0  0
   11.1333  -19.2256   24.0176 C   0  0  0  0  0  0  0  0  0  0  0  0
   10.9796  -18.2962   22.8392 C   0  0  1  0  0  0  0  0  0  0  0  0
   10.8739  -19.1234   21.5765 C   0  0  0  0  0  0  0  0  0  0  0  0
    9.7348  -17.4511   23.0433 C   0  0  2  0  0  0  0  0  0  0  0  0
    9.5390  -16.5209   21.9739 N   0  0  0  0  0  0  0  0  0  0  0  0
    9.8386  -16.7577   24.3447 C   0  0  0  0  0  0  0  0  0  0  0  0
   10.6723  -15.8015   24.4568 O   0  0  0  0  0  0  0  0  0  0  0  0
    9.0735  -17.0769   25.4926 N   0  0  0  0  0  0  0  0  0  0  0  0
    9.2959  -16.5392   26.8149 C   0  0  1  0  0  0  0  0  0  0  0  0
    8.0303  -15.9224   27.3085 C   0  0  0  0  0  0  0  0  0  0  0  0
    7.7411  -14.5804   26.7611 C   0  0  0  0  0  0  0  0  0  0  0  0
    6.6190  -14.3060   26.0092 C   0  0  0  0  0  0  0  0  0  0  0  0
    6.3568  -13.0514   25.5014 C   0  0  0  0  0  0  0  0  0  0  0  0
    7.2458  -11.9972   25.7433 C   0  0  0  0  0  0  0  0  0  0  0  0
    8.3697  -12.2595   26.4941 C   0  0  0  0  0  0  0  0  0  0  0  0
    8.5999  -13.5313   26.9861 C   0  0  0  0  0  0  0  0  0  0  0  0
    9.9687  -17.4427   27.7484 C   0  0  0  0  0  0  0  0  0  0  0  0
    9.9988  -18.6772   27.5381 O   0  0  0  0  0  0  0  0  0  0  0  0
   10.5803  -16.9510   28.8784 O   0  0  0  0  0  0  0  0  0  0  0  0
  2  1  1  0
  3  2  1  0
  3  4  1  1
  5  3  1  0
  5  6  1  6
  7 13  1  0
  7  5  1  0
  8  7  2  0
 10  9  1  1
 11 10  1  0
 12 10  1  0
 12 13  1  6
 14 12  1  0
 14 15  2  0
 16 14  1  0
 17 16  1  0
 17 25  1  0
 17 18  1  1
 19 20  2  0
 19 18  1  0
 21 20  1  0
 22 21  2  0
 23 22  1  0
 23 24  2  0
 24 19  1  0
 25 27  1  0
 26 25  2  0
M  END
$$$$
