IVF.pdb
     RDKit          3D

 27 27  0  0  1  0  0  0  0  0999 V2000
    6.8774  -21.5534   25.4006 C   0  0  0  0  0  0  0  0  0  0  0  0
    6.2523  -20.9303   24.1676 C   0  0  0  0  0  0  0  0  0  0  0  0
    6.9062  -19.6521   23.7632 C   0  0  2  0  0  0  0  0  0  0  0  0
    6.9716  -18.6784   24.8819 C   0  0  0  0  0  0  0  0  0  0  0  0
    6.3328  -19.0282   22.5082 C   0  0  2  0  0  0  0  0  0  0  0  0
    6.3095  -20.0433   21.4481 N   0  0  0  0  0  0  0  0  0  0  0  0
    7.2343  -17.9312   22.0820 C   0  0  0  0  0  0  0  0  0  0  0  0
    8.3058  -18.2317   21.5098 O   0  0  0  0  0  0  0  0  0  0  0  0
    7.8884  -13.0351   21.5606 C   0  0  0  0  0  0  0  0  0  0  0  0
    6.9448  -14.2095   21.6407 C   0  0  1  0  0  0  0  0  0  0  0  0
    6.2130  -14.3378   20.3224 C   0  0  0  0  0  0  0  0  0  0  0  0
    7.7488  -15.4617   21.9422 C   0  0  2  0  0  0  0  0  0  0  0  0
    6.9087  -16.5622   22.3037 N   0  0  0  0  0  0  0  0  0  0  0  0
    8.7219  -15.1562   23.0122 C   0  0  0  0  0  0  0  0  0  0  0  0
    9.6215  -14.2846   22.7821 O   0  0  0  0  0  0  0  0  0  0  0  0
    8.7332  -15.7646   24.2907 N   0  0  0  0  0  0  0  0  0  0  0  0
    9.6903  -15.4839   25.3358 C   0  0  1  0  0  0  0  0  0  0  0  0
    9.8016  -14.0063   25.5096 C   0  0  0  0  0  0  0  0  0  0  0  0
    8.5739  -13.3466   26.0010 C   0  0  0  0  0  0  0  0  0  0  0  0
    7.3179  -13.8915   25.8419 C   0  0  0  0  0  0  0  0  0  0  0  0
    6.1771  -13.2695   26.3027 C   0  0  0  0  0  0  0  0  0  0  0  0
    6.2678  -12.0373   26.9613 C   0  0  0  0  0  0  0  0  0  0  0  0
    7.5176  -11.4839   27.1268 C   0  0  0  0  0  0  0  0  0  0  0  0
    8.6395  -12.1370   26.6501 C   0  0  0  0  0  0  0  0  0  0  0  0
    9.5128  -16.2568   26.5653 C   0  0  0  0  0  0  0  0  0  0  0  0
   10.2734  -16.0869   27.5459 O   0  0  0  0  0  0  0  0  0  0  0  0
    8.5053  -17.1882   26.6655 O   0  0  0  0  0  0  0  0  0  0  0  0
  2  1  1  0
  3  2  1  0
  3  4  1  1
  5  3  1  0
  5  6  1  6
  7 13  1  0
  7  5  1  0
  8  7  2  0
 10  9  1  6
 11 10  1  0
 12 10  1  0
 12 13  1  1
 14 12  1  0
 14 15  2  0
 16 14  1  0
 17 16  1  0
 17 25  1  0
 17 18  1  1
 19 20  2  0
 19 18  1  0
 21 20  1  0
 22 21  2  0
 23 22  1  0
 23 24  2  0
 24 19  1  0
 25 27  1  0
 26 25  2  0
M  END
$$$$
