IVF.pdb
     RDKit          3D

 27 27  0  0  1  0  0  0  0  0999 V2000
    7.6178  -12.0358   19.4151 C   0  0  0  0  0  0  0  0  0  0  0  0
    7.7303  -13.5343   19.2127 C   0  0  0  0  0  0  0  0  0  0  0  0
    7.9459  -14.2816   20.4855 C   0  0  2  0  0  0  0  0  0  0  0  0
    9.0604  -13.7144   21.2856 C   0  0  0  0  0  0  0  0  0  0  0  0
    8.0835  -15.7797   20.3135 C   0  0  2  0  0  0  0  0  0  0  0  0
    6.8653  -16.2925   19.6747 N   0  0  0  0  0  0  0  0  0  0  0  0
    8.1968  -16.3926   21.6585 C   0  0  0  0  0  0  0  0  0  0  0  0
    7.1643  -16.4797   22.3601 O   0  0  0  0  0  0  0  0  0  0  0  0
   10.5475  -19.4287   24.6719 C   0  0  0  0  0  0  0  0  0  0  0  0
   10.4099  -18.8107   23.3025 C   0  0  1  0  0  0  0  0  0  0  0  0
    9.7262  -19.8024   22.3866 C   0  0  0  0  0  0  0  0  0  0  0  0
    9.6002  -17.5320   23.4233 C   0  0  2  0  0  0  0  0  0  0  0  0
    9.4376  -16.8809   22.1597 N   0  0  0  0  0  0  0  0  0  0  0  0
   10.2585  -16.6428   24.4037 C   0  0  0  0  0  0  0  0  0  0  0  0
   11.1944  -15.8806   23.9974 O   0  0  0  0  0  0  0  0  0  0  0  0
    9.9262  -16.5705   25.7782 N   0  0  0  0  0  0  0  0  0  0  0  0
   10.5889  -15.7317   26.7500 C   0  0  1  0  0  0  0  0  0  0  0  0
   10.4321  -14.3036   26.3476 C   0  0  0  0  0  0  0  0  0  0  0  0
    9.0898  -13.7356   26.5916 C   0  0  0  0  0  0  0  0  0  0  0  0
    8.7987  -12.9494   27.6858 C   0  0  0  0  0  0  0  0  0  0  0  0
    7.5436  -12.4238   27.9068 C   0  0  0  0  0  0  0  0  0  0  0  0
    6.5065  -12.6810   27.0021 C   0  0  0  0  0  0  0  0  0  0  0  0
    6.7860  -13.4643   25.9048 C   0  0  0  0  0  0  0  0  0  0  0  0
    8.0573  -13.9751   25.7169 C   0  0  0  0  0  0  0  0  0  0  0  0
   10.2801  -16.0358   28.1473 C   0  0  0  0  0  0  0  0  0  0  0  0
    9.4393  -16.9162   28.4421 O   0  0  0  0  0  0  0  0  0  0  0  0
   10.9082  -15.3564   29.1654 O   0  0  0  0  0  0  0  0  0  0  0  0
  2  1  1  0
  3  2  1  0
  3  4  1  6
  5  3  1  0
  5  6  1  1
  7 13  1  0
  7  5  1  0
  8  7  2  0
 10  9  1  1
 11 10  1  0
 12 10  1  0
 12 13  1  6
 14 12  1  0
 14 15  2  0
 16 14  1  0
 17 16  1  0
 17 25  1  0
 17 18  1  6
 19 20  2  0
 19 18  1  0
 21 20  1  0
 22 21  2  0
 23 22  1  0
 23 24  2  0
 24 19  1  0
 25 27  1  0
 26 25  2  0
M  END
$$$$
