IVF.pdb
     RDKit          3D

 27 27  0  0  1  0  0  0  0  0999 V2000
    7.5048  -11.5230   19.6543 C   0  0  0  0  0  0  0  0  0  0  0  0
    8.1210  -12.8366   19.2139 C   0  0  0  0  0  0  0  0  0  0  0  0
    8.0636  -13.8914   20.2671 C   0  0  2  0  0  0  0  0  0  0  0  0
    8.6810  -13.4443   21.5411 C   0  0  0  0  0  0  0  0  0  0  0  0
    8.5946  -15.2400   19.8286 C   0  0  2  0  0  0  0  0  0  0  0  0
    7.7534  -15.7425   18.7355 N   0  0  0  0  0  0  0  0  0  0  0  0
    8.4810  -16.1772   20.9715 C   0  0  0  0  0  0  0  0  0  0  0  0
    7.3668  -16.6971   21.2046 O   0  0  0  0  0  0  0  0  0  0  0  0
   10.6387  -19.4494   23.8513 C   0  0  0  0  0  0  0  0  0  0  0  0
   10.6758  -18.5075   22.6735 C   0  0  1  0  0  0  0  0  0  0  0  0
   10.4767  -19.3064   21.4038 C   0  0  0  0  0  0  0  0  0  0  0  0
    9.5795  -17.4708   22.8430 C   0  0  2  0  0  0  0  0  0  0  0  0
    9.5985  -16.4965   21.7952 N   0  0  0  0  0  0  0  0  0  0  0  0
    9.7271  -16.8346   24.1692 C   0  0  0  0  0  0  0  0  0  0  0  0
   10.7150  -16.0537   24.3598 O   0  0  0  0  0  0  0  0  0  0  0  0
    8.8447  -17.0275   25.2596 N   0  0  0  0  0  0  0  0  0  0  0  0
    9.0259  -16.4758   26.5824 C   0  0  1  0  0  0  0  0  0  0  0  0
    7.7241  -15.9288   27.0639 C   0  0  0  0  0  0  0  0  0  0  0  0
    7.3307  -14.6408   26.4552 C   0  0  0  0  0  0  0  0  0  0  0  0
    6.1716  -14.4817   25.7265 C   0  0  0  0  0  0  0  0  0  0  0  0
    5.8120  -13.2769   25.1612 C   0  0  0  0  0  0  0  0  0  0  0  0
    6.6357  -12.1556   25.3174 C   0  0  0  0  0  0  0  0  0  0  0  0
    7.7957  -12.3025   26.0443 C   0  0  0  0  0  0  0  0  0  0  0  0
    8.1240  -13.5274   26.5959 C   0  0  0  0  0  0  0  0  0  0  0  0
    9.7396  -17.3390   27.5236 C   0  0  0  0  0  0  0  0  0  0  0  0
    9.7197  -18.5847   27.3943 O   0  0  0  0  0  0  0  0  0  0  0  0
   10.4458  -16.7959   28.5719 O   0  0  0  0  0  0  0  0  0  0  0  0
  2  1  1  0
  3  2  1  0
  3  4  1  1
  5  3  1  0
  5  6  1  6
  7 13  1  0
  7  5  1  0
  8  7  2  0
 10  9  1  1
 11 10  1  0
 12 10  1  0
 12 13  1  6
 14 12  1  0
 14 15  2  0
 16 14  1  0
 17 16  1  0
 17 25  1  0
 17 18  1  1
 19 20  2  0
 19 18  1  0
 21 20  1  0
 22 21  2  0
 23 22  1  0
 23 24  2  0
 24 19  1  0
 25 27  1  0
 26 25  2  0
M  END
$$$$
