IVF.pdb
     RDKit          3D

 27 27  0  0  1  0  0  0  0  0999 V2000
    6.9816  -11.6363   20.0274 C   0  0  0  0  0  0  0  0  0  0  0  0
    7.6931  -12.8891   19.5544 C   0  0  0  0  0  0  0  0  0  0  0  0
    7.7454  -13.9589   20.5925 C   0  0  2  0  0  0  0  0  0  0  0  0
    8.3012  -13.4650   21.8775 C   0  0  0  0  0  0  0  0  0  0  0  0
    8.4247  -15.2343   20.1399 C   0  0  2  0  0  0  0  0  0  0  0  0
    7.6342  -15.8270   19.0542 N   0  0  0  0  0  0  0  0  0  0  0  0
    8.4359  -16.1832   21.2788 C   0  0  0  0  0  0  0  0  0  0  0  0
    7.3934  -16.8312   21.5219 O   0  0  0  0  0  0  0  0  0  0  0  0
   10.8878  -19.2656   24.0835 C   0  0  0  0  0  0  0  0  0  0  0  0
   10.7930  -18.3448   22.8922 C   0  0  1  0  0  0  0  0  0  0  0  0
   10.4960  -19.1710   21.6597 C   0  0  0  0  0  0  0  0  0  0  0  0
    9.6927  -17.3298   23.1465 C   0  0  2  0  0  0  0  0  0  0  0  0
    9.5932  -16.3728   22.0875 N   0  0  0  0  0  0  0  0  0  0  0  0
    9.9456  -16.6688   24.4443 C   0  0  0  0  0  0  0  0  0  0  0  0
   10.9468  -15.8877   24.5412 O   0  0  0  0  0  0  0  0  0  0  0  0
    9.1518  -16.8380   25.6044 N   0  0  0  0  0  0  0  0  0  0  0  0
    9.4458  -16.2740   26.9016 C   0  0  1  0  0  0  0  0  0  0  0  0
    8.2344  -15.5678   27.4111 C   0  0  0  0  0  0  0  0  0  0  0  0
    7.8985  -14.3195   26.6949 C   0  0  0  0  0  0  0  0  0  0  0  0
    8.6758  -13.1836   26.7683 C   0  0  0  0  0  0  0  0  0  0  0  0
    8.3553  -12.0226   26.0976 C   0  0  0  0  0  0  0  0  0  0  0  0
    7.2031  -11.9665   25.3042 C   0  0  0  0  0  0  0  0  0  0  0  0
    6.4195  -13.0956   25.2227 C   0  0  0  0  0  0  0  0  0  0  0  0
    6.7726  -14.2421   25.9107 C   0  0  0  0  0  0  0  0  0  0  0  0
   10.0927  -17.1869   27.8442 C   0  0  0  0  0  0  0  0  0  0  0  0
   10.6095  -16.7580   28.9015 O   0  0  0  0  0  0  0  0  0  0  0  0
   10.1468  -18.5368   27.5839 O   0  0  0  0  0  0  0  0  0  0  0  0
  2  1  1  0
  3  2  1  0
  3  4  1  1
  5  3  1  0
  5  6  1  6
  7 13  1  0
  7  5  1  0
  8  7  2  0
 10  9  1  1
 11 10  1  0
 12 10  1  0
 12 13  1  6
 14 12  1  0
 14 15  2  0
 16 14  1  0
 17 16  1  0
 17 25  1  0
 17 18  1  1
 19 20  2  0
 19 18  1  0
 21 20  1  0
 22 21  2  0
 23 22  1  0
 23 24  2  0
 24 19  1  0
 25 27  1  0
 26 25  2  0
M  END
$$$$
