IVF.pdb
     RDKit          3D

 27 27  0  0  1  0  0  0  0  0999 V2000
    7.4600  -11.9093   19.4198 C   0  0  0  0  0  0  0  0  0  0  0  0
    8.1283  -13.2546   19.2127 C   0  0  0  0  0  0  0  0  0  0  0  0
    8.0744  -14.1264   20.4218 C   0  0  2  0  0  0  0  0  0  0  0  0
    8.6294  -13.4527   21.6227 C   0  0  0  0  0  0  0  0  0  0  0  0
    8.6711  -15.5040   20.2245 C   0  0  2  0  0  0  0  0  0  0  0  0
    7.9650  -16.1676   19.1218 N   0  0  0  0  0  0  0  0  0  0  0  0
    8.4447  -16.2892   21.4613 C   0  0  0  0  0  0  0  0  0  0  0  0
    7.6121  -17.2227   21.4278 O   0  0  0  0  0  0  0  0  0  0  0  0
    9.3752  -18.8375   22.2530 C   0  0  0  0  0  0  0  0  0  0  0  0
   10.0354  -18.1574   23.4267 C   0  0  1  0  0  0  0  0  0  0  0  0
   11.4595  -17.8100   23.0509 C   0  0  0  0  0  0  0  0  0  0  0  0
    9.2438  -16.9097   23.7762 C   0  0  2  0  0  0  0  0  0  0  0  0
    9.1480  -16.0096   22.6681 N   0  0  0  0  0  0  0  0  0  0  0  0
    9.8742  -16.2577   24.9435 C   0  0  0  0  0  0  0  0  0  0  0  0
   10.9656  -15.6252   24.7679 O   0  0  0  0  0  0  0  0  0  0  0  0
    9.3533  -16.2810   26.2599 N   0  0  0  0  0  0  0  0  0  0  0  0
    9.9305  -15.5968   27.3939 C   0  0  1  0  0  0  0  0  0  0  0  0
    8.8768  -14.7699   28.0511 C   0  0  0  0  0  0  0  0  0  0  0  0
    8.2163  -13.7897   27.1641 C   0  0  0  0  0  0  0  0  0  0  0  0
    8.7525  -12.5498   26.8900 C   0  0  0  0  0  0  0  0  0  0  0  0
    8.1297  -11.6405   26.0618 C   0  0  0  0  0  0  0  0  0  0  0  0
    6.9059  -11.9618   25.4623 C   0  0  0  0  0  0  0  0  0  0  0  0
    6.3613  -13.1980   25.7282 C   0  0  0  0  0  0  0  0  0  0  0  0
    7.0149  -14.0839   26.5651 C   0  0  0  0  0  0  0  0  0  0  0  0
   10.7279  -16.4373   28.2872 C   0  0  0  0  0  0  0  0  0  0  0  0
   11.4148  -15.9295   29.2033 O   0  0  0  0  0  0  0  0  0  0  0  0
   10.7390  -17.8045   28.1348 O   0  0  0  0  0  0  0  0  0  0  0  0
  2  1  1  0
  3  2  1  0
  3  4  1  1
  5  3  1  0
  5  6  1  6
  7 13  1  0
  7  5  1  0
  8  7  2  0
 10  9  1  6
 11 10  1  0
 12 10  1  0
 12 13  1  6
 14 12  1  0
 14 15  2  0
 16 14  1  0
 17 16  1  0
 17 25  1  0
 17 18  1  1
 19 20  2  0
 19 18  1  0
 21 20  1  0
 22 21  2  0
 23 22  1  0
 23 24  2  0
 24 19  1  0
 25 27  1  0
 26 25  2  0
M  END
$$$$
