IVF.pdb
     RDKit          3D

 27 27  0  0  1  0  0  0  0  0999 V2000
    8.2227  -21.9142   21.2832 C   0  0  0  0  0  0  0  0  0  0  0  0
    7.8476  -20.8331   20.2881 C   0  0  0  0  0  0  0  0  0  0  0  0
    8.2222  -19.4633   20.7443 C   0  0  2  0  0  0  0  0  0  0  0  0
    7.6928  -19.1599   22.0978 C   0  0  0  0  0  0  0  0  0  0  0  0
    7.8955  -18.3652   19.7542 C   0  0  2  0  0  0  0  0  0  0  0  0
    8.5384  -18.6820   18.4731 N   0  0  0  0  0  0  0  0  0  0  0  0
    8.4703  -17.0966   20.2620 C   0  0  0  0  0  0  0  0  0  0  0  0
    9.7153  -16.9705   20.2708 O   0  0  0  0  0  0  0  0  0  0  0  0
    7.8465  -12.3202   21.1918 C   0  0  0  0  0  0  0  0  0  0  0  0
    7.2693  -13.6177   20.6825 C   0  0  1  0  0  0  0  0  0  0  0  0
    7.2290  -13.5731   19.1705 C   0  0  0  0  0  0  0  0  0  0  0  0
    8.1377  -14.7632   21.1714 C   0  0  2  0  0  0  0  0  0  0  0  0
    7.6467  -16.0325   20.7294 N   0  0  0  0  0  0  0  0  0  0  0  0
    8.2180  -14.7036   22.6463 C   0  0  0  0  0  0  0  0  0  0  0  0
    7.5909  -13.7740   23.2500 O   0  0  0  0  0  0  0  0  0  0  0  0
    8.9472  -15.6111   23.4522 N   0  0  0  0  0  0  0  0  0  0  0  0
    9.0057  -15.5785   24.8953 C   0  0  1  0  0  0  0  0  0  0  0  0
    7.6375  -15.3219   25.4320 C   0  0  0  0  0  0  0  0  0  0  0  0
    7.4034  -13.9378   25.8940 C   0  0  0  0  0  0  0  0  0  0  0  0
    8.4149  -13.1224   26.3542 C   0  0  0  0  0  0  0  0  0  0  0  0
    8.1882  -11.8323   26.7841 C   0  0  0  0  0  0  0  0  0  0  0  0
    6.8919  -11.3039   26.7632 C   0  0  0  0  0  0  0  0  0  0  0  0
    5.8736  -12.1090   26.3045 C   0  0  0  0  0  0  0  0  0  0  0  0
    6.1392  -13.3988   25.8821 C   0  0  0  0  0  0  0  0  0  0  0  0
    9.7330  -16.6874   25.5132 C   0  0  0  0  0  0  0  0  0  0  0  0
    9.9038  -16.7315   26.7533 O   0  0  0  0  0  0  0  0  0  0  0  0
   10.2456  -17.7035   24.7402 O   0  0  0  0  0  0  0  0  0  0  0  0
  2  1  1  0
  3  2  1  0
  3  4  1  1
  5  3  1  0
  5  6  1  6
  7 13  1  0
  7  5  1  0
  8  7  2  0
 10  9  1  6
 11 10  1  0
 12 10  1  0
 12 13  1  1
 14 12  1  0
 14 15  2  0
 16 14  1  0
 17 16  1  0
 17 25  1  0
 17 18  1  1
 19 20  2  0
 19 18  1  0
 21 20  1  0
 22 21  2  0
 23 22  1  0
 23 24  2  0
 24 19  1  0
 25 27  1  0
 26 25  2  0
M  END
$$$$
