IVF.pdb
     RDKit          3D

 27 27  0  0  1  0  0  0  0  0999 V2000
    6.1415  -10.9834   27.2004 C   0  0  0  0  0  0  0  0  0  0  0  0
    5.5357  -12.1717   26.4791 C   0  0  0  0  0  0  0  0  0  0  0  0
    6.5522  -13.0147   25.7855 C   0  0  2  0  0  0  0  0  0  0  0  0
    7.4890  -12.2032   24.9683 C   0  0  0  0  0  0  0  0  0  0  0  0
    5.9712  -14.1680   24.9947 C   0  0  2  0  0  0  0  0  0  0  0  0
    5.1287  -14.9722   25.8882 N   0  0  0  0  0  0  0  0  0  0  0  0
    7.0908  -15.0170   24.5220 C   0  0  0  0  0  0  0  0  0  0  0  0
    7.5258  -15.9062   25.2875 O   0  0  0  0  0  0  0  0  0  0  0  0
    9.7755  -16.4839   20.6163 C   0  0  0  0  0  0  0  0  0  0  0  0
    8.9540  -15.3712   21.2188 C   0  0  1  0  0  0  0  0  0  0  0  0
    7.6728  -15.2270   20.4266 C   0  0  0  0  0  0  0  0  0  0  0  0
    8.6627  -15.7104   22.6698 C   0  0  2  0  0  0  0  0  0  0  0  0
    7.6702  -14.8465   23.2319 N   0  0  0  0  0  0  0  0  0  0  0  0
    9.9252  -15.6463   23.4362 C   0  0  0  0  0  0  0  0  0  0  0  0
   10.3198  -14.5119   23.8598 O   0  0  0  0  0  0  0  0  0  0  0  0
   10.7420  -16.7621   23.7408 N   0  0  0  0  0  0  0  0  0  0  0  0
   11.2779  -17.0672   25.0472 C   0  0  1  0  0  0  0  0  0  0  0  0
   10.1925  -16.9330   26.0619 C   0  0  0  0  0  0  0  0  0  0  0  0
   10.3883  -15.8399   27.0370 C   0  0  0  0  0  0  0  0  0  0  0  0
   10.6536  -16.0667   28.3704 C   0  0  0  0  0  0  0  0  0  0  0  0
   10.8344  -15.0414   29.2741 C   0  0  0  0  0  0  0  0  0  0  0  0
   10.7518  -13.7098   28.8494 C   0  0  0  0  0  0  0  0  0  0  0  0
   10.4882  -13.4713   27.5193 C   0  0  0  0  0  0  0  0  0  0  0  0
   10.3116  -14.5258   26.6422 C   0  0  0  0  0  0  0  0  0  0  0  0
   12.0703  -18.2947   25.1228 C   0  0  0  0  0  0  0  0  0  0  0  0
   11.7105  -19.3296   24.5159 O   0  0  0  0  0  0  0  0  0  0  0  0
   13.2274  -18.3345   25.8661 O   0  0  0  0  0  0  0  0  0  0  0  0
  2  1  1  0
  3  2  1  0
  3  4  1  6
  5  3  1  0
  5  6  1  1
  7 13  1  0
  7  5  1  0
  8  7  2  0
 10  9  1  6
 11 10  1  0
 12 10  1  0
 12 13  1  1
 14 12  1  0
 14 15  2  0
 16 14  1  0
 17 16  1  0
 17 25  1  0
 17 18  1  1
 19 20  2  0
 19 18  1  0
 21 20  1  0
 22 21  2  0
 23 22  1  0
 23 24  2  0
 24 19  1  0
 25 27  1  0
 26 25  2  0
M  END
$$$$
