IVF.pdb
     RDKit          3D

 27 27  0  0  1  0  0  0  0  0999 V2000
    5.7228  -11.8815   27.5675 C   0  0  0  0  0  0  0  0  0  0  0  0
    5.1948  -12.9647   26.6469 C   0  0  0  0  0  0  0  0  0  0  0  0
    6.2775  -13.7652   26.0051 C   0  0  2  0  0  0  0  0  0  0  0  0
    7.3782  -12.9099   25.4943 C   0  0  0  0  0  0  0  0  0  0  0  0
    5.7917  -14.7421   24.9550 C   0  0  2  0  0  0  0  0  0  0  0  0
    4.8430  -15.6709   25.5813 N   0  0  0  0  0  0  0  0  0  0  0  0
    6.9565  -15.5220   24.4728 C   0  0  0  0  0  0  0  0  0  0  0  0
    7.2721  -16.5624   25.0924 O   0  0  0  0  0  0  0  0  0  0  0  0
   10.3927  -16.1562   20.9343 C   0  0  0  0  0  0  0  0  0  0  0  0
    9.2871  -15.2817   21.4719 C   0  0  1  0  0  0  0  0  0  0  0  0
    8.1497  -15.2652   20.4740 C   0  0  0  0  0  0  0  0  0  0  0  0
    8.8313  -15.8382   22.8090 C   0  0  2  0  0  0  0  0  0  0  0  0
    7.7103  -15.1196   23.3330 N   0  0  0  0  0  0  0  0  0  0  0  0
    9.9718  -15.8118   23.7491 C   0  0  0  0  0  0  0  0  0  0  0  0
   10.1305  -14.7811   24.4802 O   0  0  0  0  0  0  0  0  0  0  0  0
   10.9150  -16.8564   23.9033 N   0  0  0  0  0  0  0  0  0  0  0  0
   11.7572  -17.0511   25.0609 C   0  0  1  0  0  0  0  0  0  0  0  0
   10.9157  -16.9866   26.2911 C   0  0  0  0  0  0  0  0  0  0  0  0
   10.8440  -15.6526   26.9229 C   0  0  0  0  0  0  0  0  0  0  0  0
   11.8901  -15.1054   27.6343 C   0  0  0  0  0  0  0  0  0  0  0  0
   11.8151  -13.8604   28.2214 C   0  0  0  0  0  0  0  0  0  0  0  0
   10.6449  -13.1003   28.1064 C   0  0  0  0  0  0  0  0  0  0  0  0
    9.5937  -13.6364   27.3971 C   0  0  0  0  0  0  0  0  0  0  0  0
    9.7054  -14.8894   26.8227 C   0  0  0  0  0  0  0  0  0  0  0  0
   12.6753  -18.1871   24.9777 C   0  0  0  0  0  0  0  0  0  0  0  0
   12.5533  -19.0465   24.0747 O   0  0  0  0  0  0  0  0  0  0  0  0
   13.6910  -18.3329   25.8941 O   0  0  0  0  0  0  0  0  0  0  0  0
  2  1  1  0
  3  2  1  0
  3  4  1  6
  5  3  1  0
  5  6  1  1
  7 13  1  0
  7  5  1  0
  8  7  2  0
 10  9  1  6
 11 10  1  0
 12 10  1  0
 12 13  1  1
 14 12  1  0
 14 15  2  0
 16 14  1  0
 17 16  1  0
 17 25  1  0
 17 18  1  1
 19 20  2  0
 19 18  1  0
 21 20  1  0
 22 21  2  0
 23 22  1  0
 23 24  2  0
 24 19  1  0
 25 27  1  0
 26 25  2  0
M  END
$$$$
