IVF.pdb
     RDKit          3D

 27 27  0  0  1  0  0  0  0  0999 V2000
    8.6848  -21.6570   19.8297 C   0  0  0  0  0  0  0  0  0  0  0  0
    8.8295  -20.4082   18.9818 C   0  0  0  0  0  0  0  0  0  0  0  0
    9.0202  -19.1704   19.7920 C   0  0  2  0  0  0  0  0  0  0  0  0
    8.0794  -19.1013   20.9383 C   0  0  0  0  0  0  0  0  0  0  0  0
    9.0163  -17.8896   18.9842 C   0  0  2  0  0  0  0  0  0  0  0  0
   10.1035  -17.9524   17.9998 N   0  0  0  0  0  0  0  0  0  0  0  0
    9.2871  -16.7597   19.9048 C   0  0  0  0  0  0  0  0  0  0  0  0
   10.4271  -16.6678   20.4127 O   0  0  0  0  0  0  0  0  0  0  0  0
    7.8848  -12.3908   21.7371 C   0  0  0  0  0  0  0  0  0  0  0  0
    7.5603  -13.5319   20.8051 C   0  0  1  0  0  0  0  0  0  0  0  0
    7.7451  -13.0636   19.3781 C   0  0  0  0  0  0  0  0  0  0  0  0
    8.4818  -14.6967   21.1205 C   0  0  2  0  0  0  0  0  0  0  0  0
    8.2923  -15.7885   20.2153 N   0  0  0  0  0  0  0  0  0  0  0  0
    8.2571  -15.1157   22.5202 C   0  0  0  0  0  0  0  0  0  0  0  0
    7.1742  -15.7227   22.8044 O   0  0  0  0  0  0  0  0  0  0  0  0
    9.1634  -14.8924   23.5849 N   0  0  0  0  0  0  0  0  0  0  0  0
    8.9965  -15.3811   24.9341 C   0  0  1  0  0  0  0  0  0  0  0  0
    7.5495  -15.3316   25.2940 C   0  0  0  0  0  0  0  0  0  0  0  0
    7.1045  -14.0572   25.8958 C   0  0  0  0  0  0  0  0  0  0  0  0
    7.9811  -13.0625   26.2725 C   0  0  0  0  0  0  0  0  0  0  0  0
    7.5582  -11.8766   26.8340 C   0  0  0  0  0  0  0  0  0  0  0  0
    6.1927  -11.6463   27.0404 C   0  0  0  0  0  0  0  0  0  0  0  0
    5.3077  -12.6326   26.6669 C   0  0  0  0  0  0  0  0  0  0  0  0
    5.7693  -13.8100   26.1074 C   0  0  0  0  0  0  0  0  0  0  0  0
    9.6819  -16.6396   25.2288 C   0  0  0  0  0  0  0  0  0  0  0  0
    9.6872  -17.1115   26.3890 O   0  0  0  0  0  0  0  0  0  0  0  0
   10.3365  -17.3281   24.2337 O   0  0  0  0  0  0  0  0  0  0  0  0
  2  1  1  0
  3  2  1  0
  3  4  1  1
  5  3  1  0
  5  6  1  6
  7 13  1  0
  7  5  1  0
  8  7  2  0
 10  9  1  1
 11 10  1  0
 12 10  1  0
 12 13  1  6
 14 12  1  0
 14 15  2  0
 16 14  1  0
 17 16  1  0
 17 25  1  0
 17 18  1  6
 19 20  2  0
 19 18  1  0
 21 20  1  0
 22 21  2  0
 23 22  1  0
 23 24  2  0
 24 19  1  0
 25 27  1  0
 26 25  2  0
M  END
$$$$
