IVF.pdb
     RDKit          3D

 27 27  0  0  1  0  0  0  0  0999 V2000
    7.8115  -11.8166   18.8730 C   0  0  0  0  0  0  0  0  0  0  0  0
    7.9169  -13.2962   18.5584 C   0  0  0  0  0  0  0  0  0  0  0  0
    8.0325  -14.1465   19.7785 C   0  0  2  0  0  0  0  0  0  0  0  0
    9.1295  -13.6969   20.6721 C   0  0  0  0  0  0  0  0  0  0  0  0
    8.1098  -15.6325   19.4979 C   0  0  2  0  0  0  0  0  0  0  0  0
    6.9120  -16.0315   18.7489 N   0  0  0  0  0  0  0  0  0  0  0  0
    8.1079  -16.3502   20.7950 C   0  0  0  0  0  0  0  0  0  0  0  0
    7.0720  -16.3074   21.4957 O   0  0  0  0  0  0  0  0  0  0  0  0
   10.0503  -19.7782   23.7218 C   0  0  0  0  0  0  0  0  0  0  0  0
   10.0485  -19.0953   22.3765 C   0  0  1  0  0  0  0  0  0  0  0  0
    9.3748  -20.0026   21.3702 C   0  0  0  0  0  0  0  0  0  0  0  0
    9.3095  -17.7748   22.5007 C   0  0  2  0  0  0  0  0  0  0  0  0
    9.2428  -17.0801   21.2515 N   0  0  0  0  0  0  0  0  0  0  0  0
    9.9727  -16.9539   23.5358 C   0  0  0  0  0  0  0  0  0  0  0  0
   11.0986  -16.4260   23.2609 O   0  0  0  0  0  0  0  0  0  0  0  0
    9.4477  -16.7045   24.8270 N   0  0  0  0  0  0  0  0  0  0  0  0
   10.0771  -15.8833   25.8352 C   0  0  1  0  0  0  0  0  0  0  0  0
    9.8444  -14.4465   25.5074 C   0  0  0  0  0  0  0  0  0  0  0  0
    8.5652  -13.8977   26.0038 C   0  0  0  0  0  0  0  0  0  0  0  0
    8.4761  -13.1179   27.1369 C   0  0  0  0  0  0  0  0  0  0  0  0
    7.2787  -12.6102   27.5939 C   0  0  0  0  0  0  0  0  0  0  0  0
    6.0925  -12.8801   26.9008 C   0  0  0  0  0  0  0  0  0  0  0  0
    6.1695  -13.6572   25.7669 C   0  0  0  0  0  0  0  0  0  0  0  0
    7.3889  -14.1499   25.3394 C   0  0  0  0  0  0  0  0  0  0  0  0
    9.7982  -16.2731   27.2175 C   0  0  0  0  0  0  0  0  0  0  0  0
   10.4019  -15.7309   28.1717 O   0  0  0  0  0  0  0  0  0  0  0  0
    8.8663  -17.2465   27.4943 O   0  0  0  0  0  0  0  0  0  0  0  0
  2  1  1  0
  3  2  1  0
  3  4  1  6
  5  3  1  0
  5  6  1  6
  7 13  1  0
  7  5  1  0
  8  7  2  0
 10  9  1  1
 11 10  1  0
 12 10  1  0
 12 13  1  6
 14 12  1  0
 14 15  2  0
 16 14  1  0
 17 16  1  0
 17 25  1  0
 17 18  1  1
 19 20  2  0
 19 18  1  0
 21 20  1  0
 22 21  2  0
 23 22  1  0
 23 24  2  0
 24 19  1  0
 25 27  1  0
 26 25  2  0
M  END
$$$$
