IVF.pdb
     RDKit          3D

 27 27  0  0  1  0  0  0  0  0999 V2000
    6.9240  -11.7723   19.5654 C   0  0  0  0  0  0  0  0  0  0  0  0
    7.6935  -12.9940   19.1020 C   0  0  0  0  0  0  0  0  0  0  0  0
    7.8839  -14.0081   20.1791 C   0  0  2  0  0  0  0  0  0  0  0  0
    8.4619  -13.4144   21.4110 C   0  0  0  0  0  0  0  0  0  0  0  0
    8.6402  -15.2456   19.7438 C   0  0  2  0  0  0  0  0  0  0  0  0
    7.9046  -15.8827   18.6447 N   0  0  0  0  0  0  0  0  0  0  0  0
    8.6805  -16.1903   20.8856 C   0  0  0  0  0  0  0  0  0  0  0  0
    7.6760  -16.9048   21.1008 O   0  0  0  0  0  0  0  0  0  0  0  0
   11.3696  -18.9345   23.8988 C   0  0  0  0  0  0  0  0  0  0  0  0
   11.3336  -17.8936   22.8072 C   0  0  1  0  0  0  0  0  0  0  0  0
   11.6389  -18.5631   21.4849 C   0  0  0  0  0  0  0  0  0  0  0  0
    9.9571  -17.2530   22.7891 C   0  0  2  0  0  0  0  0  0  0  0  0
    9.8238  -16.3026   21.7279 N   0  0  0  0  0  0  0  0  0  0  0  0
    9.7065  -16.6265   24.1044 C   0  0  0  0  0  0  0  0  0  0  0  0
    9.4931  -15.3717   24.1468 O   0  0  0  0  0  0  0  0  0  0  0  0
    9.6846  -17.3210   25.3381 N   0  0  0  0  0  0  0  0  0  0  0  0
    9.1054  -16.8201   26.5631 C   0  0  1  0  0  0  0  0  0  0  0  0
    7.6993  -16.3969   26.2990 C   0  0  0  0  0  0  0  0  0  0  0  0
    7.4856  -14.9347   26.2834 C   0  0  0  0  0  0  0  0  0  0  0  0
    8.1329  -14.0756   27.1453 C   0  0  0  0  0  0  0  0  0  0  0  0
    7.9275  -12.7125   27.1250 C   0  0  0  0  0  0  0  0  0  0  0  0
    7.0339  -12.1518   26.2044 C   0  0  0  0  0  0  0  0  0  0  0  0
    6.3823  -13.0003   25.3378 C   0  0  0  0  0  0  0  0  0  0  0  0
    6.6132  -14.3629   25.3885 C   0  0  0  0  0  0  0  0  0  0  0  0
    9.3033  -17.6700   27.7373 C   0  0  0  0  0  0  0  0  0  0  0  0
    9.0030  -17.2624   28.8830 O   0  0  0  0  0  0  0  0  0  0  0  0
    9.8265  -18.9354   27.6036 O   0  0  0  0  0  0  0  0  0  0  0  0
  2  1  1  0
  3  2  1  0
  3  4  1  1
  5  3  1  0
  5  6  1  6
  7 13  1  0
  7  5  1  0
  8  7  2  0
 10  9  1  1
 11 10  1  0
 12 10  1  0
 12 13  1  6
 14 12  1  0
 14 15  2  0
 16 14  1  0
 17 16  1  0
 17 25  1  0
 17 18  1  6
 19 20  2  0
 19 18  1  0
 21 20  1  0
 22 21  2  0
 23 22  1  0
 23 24  2  0
 24 19  1  0
 25 27  1  0
 26 25  2  0
M  END
$$$$
