MSD.pdb
     RDKit          3D

 23 22  0  0  1  0  0  0  0  0999 V2000
   26.1951   -9.9116  -20.7385 C   0  0  0  0  0  0  0  0  0  0  0  0
   26.9045   -9.5214  -19.1064 S   0  0  0  0  0  0  0  0  0  0  0  0
   28.6752   -9.8196  -19.2010 C   0  0  0  0  0  0  0  0  0  0  0  0
   29.3985   -9.5298  -17.9116 C   0  0  0  0  0  0  0  0  0  0  0  0
   30.8772   -9.8100  -18.1830 C   0  0  2  0  0  0  0  0  0  0  0  0
   31.0451  -11.2506  -18.3084 N   0  0  0  0  0  0  0  0  0  0  0  0
   31.7400   -9.2613  -17.1028 C   0  0  0  0  0  0  0  0  0  0  0  0
   31.9360   -9.9956  -16.1000 O   0  0  0  0  0  0  0  0  0  0  0  0
   34.8059   -7.2949  -17.9307 O   0  0  0  0  0  0  0  0  0  0  0  0
   34.6554   -7.6866  -16.5977 C   0  0  0  0  0  0  0  0  0  0  0  0
   33.1996   -7.4252  -16.2214 C   0  0  2  0  0  0  0  0  0  0  0  0
   32.3043   -7.9638  -17.2237 N   0  0  0  0  0  0  0  0  0  0  0  0
   33.0452   -5.9509  -16.0904 C   0  0  0  0  0  0  0  0  0  0  0  0
   32.8474   -5.2686  -17.1273 O   0  0  0  0  0  0  0  0  0  0  0  0
   33.1095   -5.2763  -14.8559 N   0  0  0  0  0  0  0  0  0  0  0  0
   32.9200   -3.8053  -14.7383 C   0  0  1  0  0  0  0  0  0  0  0  0
   32.6194   -3.4758  -13.2933 C   0  0  0  0  0  0  0  0  0  0  0  0
   32.4091   -2.0420  -13.1361 C   0  0  0  0  0  0  0  0  0  0  0  0
   31.6941   -1.3985  -13.9204 O   0  0  0  0  0  0  0  0  0  0  0  0
   34.1943   -3.2452  -15.2230 C   0  0  0  0  0  0  0  0  0  0  0  0
   35.3922   -3.9024  -15.0992 O   0  0  0  0  0  0  0  0  0  0  0  0
   33.0155   -1.3610  -12.0890 O   0  0  0  0  0  0  0  0  0  0  0  0
   34.2170   -2.1231  -15.7754 O   0  0  0  0  0  0  0  0  0  0  0  0
  1  2  1  0
  2  3  1  0
  4  5  1  0
  4  3  1  0
  5  6  1  1
  5  7  1  0
  7  8  2  0
 11 10  1  6
 10  9  1  0
 12  7  1  0
 12 11  1  0
 13 11  1  0
 13 15  1  0
 14 13  2  0
 16 15  1  0
 16 17  1  1
 17 18  1  0
 18 19  2  0
 18 22  1  0
 20 21  1  0
 20 16  1  0
 23 20  2  0
M  END
$$$$
