MSD.pdb
     RDKit          3D

 23 22  0  0  1  0  0  0  0  0999 V2000
   25.8680  -15.9687  -15.3813 C   0  0  0  0  0  0  0  0  0  0  0  0
   27.5702  -16.1937  -15.9905 S   0  0  0  0  0  0  0  0  0  0  0  0
   28.1356  -17.8068  -15.4327 C   0  0  0  0  0  0  0  0  0  0  0  0
   27.0494  -18.6302  -14.7907 C   0  0  0  0  0  0  0  0  0  0  0  0
   27.7428  -19.8574  -14.1971 C   0  0  2  0  0  0  0  0  0  0  0  0
   28.4506  -20.5366  -15.2726 N   0  0  0  0  0  0  0  0  0  0  0  0
   26.7664  -20.7663  -13.5393 C   0  0  0  0  0  0  0  0  0  0  0  0
   26.2537  -21.6667  -14.2532 O   0  0  0  0  0  0  0  0  0  0  0  0
   25.4991  -19.7229   -9.7744 O   0  0  0  0  0  0  0  0  0  0  0  0
   25.2869  -21.0742  -10.0605 C   0  0  0  0  0  0  0  0  0  0  0  0
   25.2668  -21.2068  -11.5809 C   0  0  2  0  0  0  0  0  0  0  0  0
   26.4454  -20.6027  -12.1657 N   0  0  0  0  0  0  0  0  0  0  0  0
   24.0228  -20.5427  -12.0561 C   0  0  0  0  0  0  0  0  0  0  0  0
   24.1210  -19.5014  -12.7531 O   0  0  0  0  0  0  0  0  0  0  0  0
   22.7323  -21.0243  -11.7631 N   0  0  0  0  0  0  0  0  0  0  0  0
   21.5286  -20.6014  -12.5286 C   0  0  1  0  0  0  0  0  0  0  0  0
   21.8153  -20.7728  -14.0036 C   0  0  0  0  0  0  0  0  0  0  0  0
   21.0938  -19.7702  -14.7774 C   0  0  0  0  0  0  0  0  0  0  0  0
   20.3541  -18.9352  -14.2333 O   0  0  0  0  0  0  0  0  0  0  0  0
   20.4613  -21.4839  -12.0242 C   0  0  0  0  0  0  0  0  0  0  0  0
   19.2926  -21.0074  -11.4863 O   0  0  0  0  0  0  0  0  0  0  0  0
   21.2242  -19.7322  -16.1592 O   0  0  0  0  0  0  0  0  0  0  0  0
   20.5978  -22.7262  -12.0745 O   0  0  0  0  0  0  0  0  0  0  0  0
  1  2  1  0
  2  3  1  0
  4  5  1  0
  4  3  1  0
  5  6  1  6
  5  7  1  0
  7  8  2  0
 11 10  1  1
 10  9  1  0
 12  7  1  0
 12 11  1  0
 13 11  1  0
 13 15  1  0
 14 13  2  0
 16 15  1  0
 16 17  1  6
 17 18  1  0
 18 19  2  0
 18 22  1  0
 20 21  1  0
 20 16  1  0
 23 20  2  0
M  END
$$$$
