MSD.pdb
     RDKit          3D

 23 22  0  0  1  0  0  0  0  0999 V2000
   13.1205  -13.0640  -17.4988 C   0  0  0  0  0  0  0  0  0  0  0  0
   14.3489  -12.3388  -16.3654 S   0  0  0  0  0  0  0  0  0  0  0  0
   15.9794  -12.7893  -16.9749 C   0  0  0  0  0  0  0  0  0  0  0  0
   17.0899  -12.4478  -16.0158 C   0  0  0  0  0  0  0  0  0  0  0  0
   18.3887  -12.8715  -16.7032 C   0  0  2  0  0  0  0  0  0  0  0  0
   18.4978  -14.3197  -16.6026 N   0  0  0  0  0  0  0  0  0  0  0  0
   19.5683  -12.2009  -16.0938 C   0  0  0  0  0  0  0  0  0  0  0  0
   19.9236  -12.5961  -14.9533 O   0  0  0  0  0  0  0  0  0  0  0  0
   23.0813  -11.9392  -17.0978 O   0  0  0  0  0  0  0  0  0  0  0  0
   22.5983  -10.6320  -17.2034 C   0  0  0  0  0  0  0  0  0  0  0  0
   21.4181  -10.5174  -16.2424 C   0  0  2  0  0  0  0  0  0  0  0  0
   20.2441  -11.1640  -16.7899 N   0  0  0  0  0  0  0  0  0  0  0  0
   21.1837   -9.0652  -16.0173 C   0  0  0  0  0  0  0  0  0  0  0  0
   20.4527   -8.4379  -16.8246 O   0  0  0  0  0  0  0  0  0  0  0  0
   21.7425   -8.3529  -14.9386 N   0  0  0  0  0  0  0  0  0  0  0  0
   21.5610   -6.8859  -14.7701 C   0  0  1  0  0  0  0  0  0  0  0  0
   22.0728   -6.4945  -13.4019 C   0  0  0  0  0  0  0  0  0  0  0  0
   21.9735   -5.0518  -13.2199 C   0  0  0  0  0  0  0  0  0  0  0  0
   22.9754   -4.3201  -13.2549 O   0  0  0  0  0  0  0  0  0  0  0  0
   22.3336   -6.3043  -15.8825 C   0  0  0  0  0  0  0  0  0  0  0  0
   23.4538   -6.9008  -16.4036 O   0  0  0  0  0  0  0  0  0  0  0  0
   20.7356   -4.4624  -13.0003 O   0  0  0  0  0  0  0  0  0  0  0  0
   21.9777   -5.2201  -16.3945 O   0  0  0  0  0  0  0  0  0  0  0  0
  1  2  1  0
  2  3  1  0
  4  5  1  0
  4  3  1  0
  5  6  1  1
  5  7  1  0
  7  8  2  0
 11 10  1  6
 10  9  1  0
 12  7  1  0
 12 11  1  0
 13 11  1  0
 13 15  1  0
 14 13  2  0
 16 15  1  0
 16 17  1  1
 17 18  1  0
 18 19  2  0
 18 22  1  0
 20 21  1  0
 20 16  1  0
 23 20  2  0
M  END
$$$$
