MSD.pdb
     RDKit          3D

 23 22  0  0  1  0  0  0  0  0999 V2000
   29.2144  -13.2901  -15.7366 C   0  0  0  0  0  0  0  0  0  0  0  0
   27.7610  -12.1971  -15.8471 S   0  0  0  0  0  0  0  0  0  0  0  0
   27.0469  -12.4104  -17.4834 C   0  0  0  0  0  0  0  0  0  0  0  0
   25.9248  -11.4481  -17.7745 C   0  0  0  0  0  0  0  0  0  0  0  0
   24.7017  -11.9859  -17.0304 C   0  0  2  0  0  0  0  0  0  0  0  0
   24.4126  -13.3164  -17.5454 N   0  0  0  0  0  0  0  0  0  0  0  0
   23.5305  -11.0829  -17.1891 C   0  0  0  0  0  0  0  0  0  0  0  0
   22.7126  -11.3638  -18.1031 O   0  0  0  0  0  0  0  0  0  0  0  0
   21.6357   -9.8079  -14.3222 O   0  0  0  0  0  0  0  0  0  0  0  0
   21.0869   -9.5000  -15.5700 C   0  0  0  0  0  0  0  0  0  0  0  0
   22.2421   -9.0595  -16.4650 C   0  0  2  0  0  0  0  0  0  0  0  0
   23.3673   -9.9611  -16.3339 N   0  0  0  0  0  0  0  0  0  0  0  0
   22.6035   -7.6757  -16.0542 C   0  0  0  0  0  0  0  0  0  0  0  0
   23.6162   -7.5044  -15.3297 O   0  0  0  0  0  0  0  0  0  0  0  0
   21.8643   -6.5402  -16.4384 N   0  0  0  0  0  0  0  0  0  0  0  0
   22.2173   -5.1669  -15.9879 C   0  0  1  0  0  0  0  0  0  0  0  0
   21.3265   -4.1823  -16.7117 C   0  0  0  0  0  0  0  0  0  0  0  0
   21.9809   -2.8831  -16.8037 C   0  0  0  0  0  0  0  0  0  0  0  0
   23.0838   -2.6703  -16.2759 O   0  0  0  0  0  0  0  0  0  0  0  0
   21.9990   -5.2062  -14.5307 C   0  0  0  0  0  0  0  0  0  0  0  0
   22.8111   -4.5542  -13.6377 O   0  0  0  0  0  0  0  0  0  0  0  0
   21.3709   -1.8447  -17.4948 O   0  0  0  0  0  0  0  0  0  0  0  0
   21.0398   -5.8543  -14.0570 O   0  0  0  0  0  0  0  0  0  0  0  0
  1  2  1  0
  2  3  1  0
  4  5  1  0
  4  3  1  0
  5  6  1  6
  5  7  1  0
  7  8  2  0
 11 10  1  1
 10  9  1  0
 12  7  1  0
 12 11  1  0
 13 11  1  0
 13 15  1  0
 14 13  2  0
 16 15  1  0
 16 17  1  6
 17 18  1  0
 18 19  2  0
 18 22  1  0
 20 21  1  0
 20 16  1  0
 23 20  2  0
M  END
$$$$
