MSD.pdb
     RDKit          3D

 23 22  0  0  1  0  0  0  0  0999 V2000
   14.1832   -9.4835  -20.4732 C   0  0  0  0  0  0  0  0  0  0  0  0
   14.6064   -8.7362  -18.8664 S   0  0  0  0  0  0  0  0  0  0  0  0
   16.0511   -9.5988  -18.2324 C   0  0  0  0  0  0  0  0  0  0  0  0
   16.6219   -8.9710  -16.9875 C   0  0  0  0  0  0  0  0  0  0  0  0
   17.8475   -9.8067  -16.6153 C   0  0  2  0  0  0  0  0  0  0  0  0
   17.3827  -11.1172  -16.1843 N   0  0  0  0  0  0  0  0  0  0  0  0
   18.6513   -9.1461  -15.5523 C   0  0  0  0  0  0  0  0  0  0  0  0
   18.0826   -8.9452  -14.4481 O   0  0  0  0  0  0  0  0  0  0  0  0
   22.2523   -9.5802  -13.8570 O   0  0  0  0  0  0  0  0  0  0  0  0
   22.2146   -8.5364  -14.7855 C   0  0  0  0  0  0  0  0  0  0  0  0
   20.7747   -8.0318  -14.8258 C   0  0  2  0  0  0  0  0  0  0  0  0
   19.9980   -8.7695  -15.7998 N   0  0  0  0  0  0  0  0  0  0  0  0
   20.8337   -6.5834  -15.1618 C   0  0  0  0  0  0  0  0  0  0  0  0
   21.0628   -6.2468  -16.3509 O   0  0  0  0  0  0  0  0  0  0  0  0
   20.6446   -5.5633  -14.2095 N   0  0  0  0  0  0  0  0  0  0  0  0
   20.7816   -4.1205  -14.5460 C   0  0  1  0  0  0  0  0  0  0  0  0
   19.6940   -3.3559  -13.8253 C   0  0  0  0  0  0  0  0  0  0  0  0
   18.4118   -3.5569  -14.4888 C   0  0  0  0  0  0  0  0  0  0  0  0
   17.4308   -4.0186  -13.8847 O   0  0  0  0  0  0  0  0  0  0  0  0
   22.1440   -3.7811  -14.0973 C   0  0  0  0  0  0  0  0  0  0  0  0
   22.9179   -4.6351  -13.3530 O   0  0  0  0  0  0  0  0  0  0  0  0
   18.2642   -3.2297  -15.8301 O   0  0  0  0  0  0  0  0  0  0  0  0
   22.6439   -2.6729  -14.3917 O   0  0  0  0  0  0  0  0  0  0  0  0
  1  2  1  0
  2  3  1  0
  4  5  1  0
  4  3  1  0
  5  6  1  1
  5  7  1  0
  7  8  2  0
 11 10  1  6
 10  9  1  0
 12  7  1  0
 12 11  1  0
 13 11  1  0
 13 15  1  0
 14 13  2  0
 16 15  1  0
 16 17  1  1
 17 18  1  0
 18 19  2  0
 18 22  1  0
 20 21  1  0
 20 16  1  0
 23 20  2  0
M  END
$$$$
