MSD.pdb
     RDKit          3D

 23 22  0  0  1  0  0  0  0  0999 V2000
   25.8346  -11.2154  -15.3257 C   0  0  0  0  0  0  0  0  0  0  0  0
   24.1751  -10.7999  -14.6989 S   0  0  0  0  0  0  0  0  0  0  0  0
   23.7640   -9.1573  -15.3039 C   0  0  0  0  0  0  0  0  0  0  0  0
   22.4654   -8.6270  -14.7541 C   0  0  0  0  0  0  0  0  0  0  0  0
   21.3796   -9.5968  -15.2224 C   0  0  2  0  0  0  0  0  0  0  0  0
   21.3018   -9.5162  -16.6738 N   0  0  0  0  0  0  0  0  0  0  0  0
   20.0670   -9.2841  -14.5965 C   0  0  0  0  0  0  0  0  0  0  0  0
   19.3851   -8.3691  -15.1268 O   0  0  0  0  0  0  0  0  0  0  0  0
   16.5120  -10.7680  -11.7558 O   0  0  0  0  0  0  0  0  0  0  0  0
   17.8440  -11.0035  -12.1070 C   0  0  0  0  0  0  0  0  0  0  0  0
   18.3294   -9.7659  -12.8568 C   0  0  2  0  0  0  0  0  0  0  0  0
   19.6278  -10.0014  -13.4524 N   0  0  0  0  0  0  0  0  0  0  0  0
   18.3778   -8.6537  -11.8692 C   0  0  0  0  0  0  0  0  0  0  0  0
   19.4248   -8.4896  -11.1935 O   0  0  0  0  0  0  0  0  0  0  0  0
   17.3037   -7.7695  -11.6516 N   0  0  0  0  0  0  0  0  0  0  0  0
   17.3843   -6.6350  -10.6923 C   0  0  1  0  0  0  0  0  0  0  0  0
   17.1083   -5.3523  -11.4442 C   0  0  0  0  0  0  0  0  0  0  0  0
   17.1117   -4.2194  -10.5271 C   0  0  0  0  0  0  0  0  0  0  0  0
   17.4555   -4.3423   -9.3409 O   0  0  0  0  0  0  0  0  0  0  0  0
   16.3671   -6.9590   -9.6760 C   0  0  0  0  0  0  0  0  0  0  0  0
   16.3087   -6.3360   -8.4551 O   0  0  0  0  0  0  0  0  0  0  0  0
   16.7238   -2.9629  -10.9728 O   0  0  0  0  0  0  0  0  0  0  0  0
   15.5059   -7.8363   -9.9072 O   0  0  0  0  0  0  0  0  0  0  0  0
  1  2  1  0
  2  3  1  0
  4  5  1  0
  4  3  1  0
  5  6  1  6
  5  7  1  0
  7  8  2  0
 11 10  1  1
 10  9  1  0
 12  7  1  0
 12 11  1  0
 13 11  1  0
 13 15  1  0
 14 13  2  0
 16 15  1  0
 16 17  1  6
 17 18  1  0
 18 19  2  0
 18 22  1  0
 20 21  1  0
 20 16  1  0
 23 20  2  0
M  END
$$$$
