MSD.pdb
     RDKit          3D

 23 22  0  0  1  0  0  0  0  0999 V2000
   27.5244   -9.9597  -16.4964 C   0  0  0  0  0  0  0  0  0  0  0  0
   26.5080  -10.9777  -15.3784 S   0  0  0  0  0  0  0  0  0  0  0  0
   26.0498  -12.4693  -16.2718 C   0  0  0  0  0  0  0  0  0  0  0  0
   25.1817  -12.2016  -17.4737 C   0  0  0  0  0  0  0  0  0  0  0  0
   23.7365  -12.3016  -16.9834 C   0  0  2  0  0  0  0  0  0  0  0  0
   23.1612  -13.5225  -17.5290 N   0  0  0  0  0  0  0  0  0  0  0  0
   22.9441  -11.1087  -17.3852 C   0  0  0  0  0  0  0  0  0  0  0  0
   22.8175  -10.8965  -18.6190 O   0  0  0  0  0  0  0  0  0  0  0  0
   20.1683   -9.7233  -15.0000 O   0  0  0  0  0  0  0  0  0  0  0  0
   20.1427   -9.2451  -16.3129 C   0  0  0  0  0  0  0  0  0  0  0  0
   21.5950   -9.0930  -16.7568 C   0  0  2  0  0  0  0  0  0  0  0  0
   22.3676  -10.2643  -16.3998 N   0  0  0  0  0  0  0  0  0  0  0  0
   22.1237   -7.8702  -16.0937 C   0  0  0  0  0  0  0  0  0  0  0  0
   22.7986   -7.9964  -15.0409 O   0  0  0  0  0  0  0  0  0  0  0  0
   21.9054   -6.5700  -16.5886 N   0  0  0  0  0  0  0  0  0  0  0  0
   22.4209   -5.3559  -15.9001 C   0  0  1  0  0  0  0  0  0  0  0  0
   22.1608   -4.1574  -16.7851 C   0  0  0  0  0  0  0  0  0  0  0  0
   22.5413   -2.9302  -16.0969 C   0  0  0  0  0  0  0  0  0  0  0  0
   23.5695   -2.8631  -15.4050 O   0  0  0  0  0  0  0  0  0  0  0  0
   21.6767   -5.3283  -14.6282 C   0  0  0  0  0  0  0  0  0  0  0  0
   20.3684   -5.7273  -14.5215 O   0  0  0  0  0  0  0  0  0  0  0  0
   21.7464   -1.7970  -16.2056 O   0  0  0  0  0  0  0  0  0  0  0  0
   22.2350   -4.9281  -13.5828 O   0  0  0  0  0  0  0  0  0  0  0  0
  1  2  1  0
  2  3  1  0
  4  5  1  0
  4  3  1  0
  5  6  1  6
  5  7  1  0
  7  8  2  0
 11 10  1  1
 10  9  1  0
 12  7  1  0
 12 11  1  0
 13 11  1  0
 13 15  1  0
 14 13  2  0
 16 15  1  0
 16 17  1  6
 17 18  1  0
 18 19  2  0
 18 22  1  0
 20 21  1  0
 20 16  1  0
 23 20  2  0
M  END
$$$$
