MSD.pdb
     RDKit          3D

 23 22  0  0  1  0  0  0  0  0999 V2000
   29.6609  -19.5904   -5.7223 C   0  0  0  0  0  0  0  0  0  0  0  0
   27.9814  -19.4177   -5.0376 S   0  0  0  0  0  0  0  0  0  0  0  0
   26.8686  -20.3593   -6.0903 C   0  0  0  0  0  0  0  0  0  0  0  0
   27.2424  -20.3090   -7.5489 C   0  0  0  0  0  0  0  0  0  0  0  0
   25.9457  -20.0266   -8.3091 C   0  0  2  0  0  0  0  0  0  0  0  0
   25.0501  -21.1556   -8.1031 N   0  0  0  0  0  0  0  0  0  0  0  0
   26.2038  -19.8036   -9.7568 C   0  0  0  0  0  0  0  0  0  0  0  0
   26.5107  -18.6351  -10.1087 O   0  0  0  0  0  0  0  0  0  0  0  0
   26.1169  -23.0033  -12.3625 O   0  0  0  0  0  0  0  0  0  0  0  0
   26.8242  -21.8780  -12.7942 C   0  0  0  0  0  0  0  0  0  0  0  0
   26.1937  -20.6691  -12.1083 C   0  0  2  0  0  0  0  0  0  0  0  0
   26.1012  -20.8788  -10.6787 N   0  0  0  0  0  0  0  0  0  0  0  0
   24.8497  -20.4786  -12.7179 C   0  0  0  0  0  0  0  0  0  0  0  0
   23.8427  -20.9299  -12.1161 O   0  0  0  0  0  0  0  0  0  0  0  0
   24.6465  -19.8139  -13.9426 N   0  0  0  0  0  0  0  0  0  0  0  0
   23.2947  -19.6252  -14.5348 C   0  0  1  0  0  0  0  0  0  0  0  0
   23.0728  -18.1461  -14.7589 C   0  0  0  0  0  0  0  0  0  0  0  0
   21.7921  -17.9223  -15.4178 C   0  0  0  0  0  0  0  0  0  0  0  0
   21.6983  -17.8546  -16.6535 O   0  0  0  0  0  0  0  0  0  0  0  0
   23.3407  -20.4145  -15.7787 C   0  0  0  0  0  0  0  0  0  0  0  0
   22.2411  -21.0472  -16.3009 O   0  0  0  0  0  0  0  0  0  0  0  0
   20.6367  -17.7787  -14.6614 O   0  0  0  0  0  0  0  0  0  0  0  0
   24.4151  -20.5315  -16.4084 O   0  0  0  0  0  0  0  0  0  0  0  0
  1  2  1  0
  2  3  1  0
  4  5  1  0
  4  3  1  0
  5  6  1  6
  5  7  1  0
  7  8  2  0
 11 10  1  6
 10  9  1  0
 12  7  1  0
 12 11  1  0
 13 11  1  0
 13 15  1  0
 14 13  2  0
 16 15  1  0
 16 17  1  6
 17 18  1  0
 18 19  2  0
 18 22  1  0
 20 21  1  0
 20 16  1  0
 23 20  2  0
M  END
$$$$
