MSD.pdb
     RDKit          3D

 23 22  0  0  1  0  0  0  0  0999 V2000
   30.3794  -14.1499  -15.7033 C   0  0  0  0  0  0  0  0  0  0  0  0
   29.7612  -12.5361  -16.2802 S   0  0  0  0  0  0  0  0  0  0  0  0
   27.9961  -12.7078  -16.5771 C   0  0  0  0  0  0  0  0  0  0  0  0
   27.3493  -11.4418  -17.0758 C   0  0  0  0  0  0  0  0  0  0  0  0
   25.8909  -11.7976  -17.3678 C   0  0  2  0  0  0  0  0  0  0  0  0
   25.8799  -12.8977  -18.3211 N   0  0  0  0  0  0  0  0  0  0  0  0
   25.1415  -10.6250  -17.8928 C   0  0  0  0  0  0  0  0  0  0  0  0
   25.1947  -10.4223  -19.1335 O   0  0  0  0  0  0  0  0  0  0  0  0
   21.6973   -9.9540  -17.6013 O   0  0  0  0  0  0  0  0  0  0  0  0
   22.4930   -9.1069  -18.3775 C   0  0  0  0  0  0  0  0  0  0  0  0
   23.6498   -8.6521  -17.4919 C   0  0  2  0  0  0  0  0  0  0  0  0
   24.4074   -9.7883  -17.0110 N   0  0  0  0  0  0  0  0  0  0  0  0
   23.0553   -7.8798  -16.3673 C   0  0  0  0  0  0  0  0  0  0  0  0
   22.6714   -8.4998  -15.3437 O   0  0  0  0  0  0  0  0  0  0  0  0
   22.9000   -6.4804  -16.3912 N   0  0  0  0  0  0  0  0  0  0  0  0
   22.3312   -5.7199  -15.2458 C   0  0  1  0  0  0  0  0  0  0  0  0
   22.6348   -4.2522  -15.4482 C   0  0  0  0  0  0  0  0  0  0  0  0
   22.0124   -3.4587  -14.3958 C   0  0  0  0  0  0  0  0  0  0  0  0
   21.0497   -2.7103  -14.6271 O   0  0  0  0  0  0  0  0  0  0  0  0
   20.8932   -6.0407  -15.2881 C   0  0  0  0  0  0  0  0  0  0  0  0
   20.0774   -5.9525  -14.1887 O   0  0  0  0  0  0  0  0  0  0  0  0
   22.4945   -3.5279  -13.0956 O   0  0  0  0  0  0  0  0  0  0  0  0
   20.3644   -6.4130  -16.3588 O   0  0  0  0  0  0  0  0  0  0  0  0
  1  2  1  0
  2  3  1  0
  4  5  1  0
  4  3  1  0
  5  6  1  6
  5  7  1  0
  7  8  2  0
 11 10  1  6
 10  9  1  0
 12  7  1  0
 12 11  1  0
 13 11  1  0
 13 15  1  0
 14 13  2  0
 16 15  1  0
 16 17  1  6
 17 18  1  0
 18 19  2  0
 18 22  1  0
 20 21  1  0
 20 16  1  0
 23 20  2  0
M  END
$$$$
