MSD.pdb
     RDKit          3D

 23 22  0  0  1  0  0  0  0  0999 V2000
   31.6543  -22.8041   -9.6869 C   0  0  0  0  0  0  0  0  0  0  0  0
   30.4924  -21.4692  -10.1202 S   0  0  0  0  0  0  0  0  0  0  0  0
   29.0599  -22.2298  -10.8964 C   0  0  0  0  0  0  0  0  0  0  0  0
   27.9641  -21.2472  -11.2183 C   0  0  0  0  0  0  0  0  0  0  0  0
   28.0245  -21.0255  -12.7303 C   0  0  2  0  0  0  0  0  0  0  0  0
   29.2589  -20.3147  -13.0304 N   0  0  0  0  0  0  0  0  0  0  0  0
   26.8387  -20.2698  -13.2151 C   0  0  0  0  0  0  0  0  0  0  0  0
   26.7071  -19.0882  -12.8031 O   0  0  0  0  0  0  0  0  0  0  0  0
   23.4987  -19.4417  -16.4042 O   0  0  0  0  0  0  0  0  0  0  0  0
   24.5700  -20.2695  -16.0577 C   0  0  0  0  0  0  0  0  0  0  0  0
   24.7132  -20.1958  -14.5400 C   0  0  2  0  0  0  0  0  0  0  0  0
   25.9124  -20.8790  -14.1025 N   0  0  0  0  0  0  0  0  0  0  0  0
   23.4915  -20.8167  -13.9600 C   0  0  0  0  0  0  0  0  0  0  0  0
   23.5230  -22.0324  -13.6424 O   0  0  0  0  0  0  0  0  0  0  0  0
   22.2938  -20.1073  -13.7470 N   0  0  0  0  0  0  0  0  0  0  0  0
   21.0929  -20.7335  -13.1309 C   0  0  1  0  0  0  0  0  0  0  0  0
   20.1613  -19.6335  -12.6736 C   0  0  0  0  0  0  0  0  0  0  0  0
   18.9531  -20.2050  -12.0923 C   0  0  0  0  0  0  0  0  0  0  0  0
   18.8064  -21.4313  -11.9690 O   0  0  0  0  0  0  0  0  0  0  0  0
   20.5390  -21.5715  -14.2095 C   0  0  0  0  0  0  0  0  0  0  0  0
   19.9591  -22.7935  -13.9806 O   0  0  0  0  0  0  0  0  0  0  0  0
   17.9289  -19.3732  -11.6598 O   0  0  0  0  0  0  0  0  0  0  0  0
   20.5852  -21.1786  -15.3962 O   0  0  0  0  0  0  0  0  0  0  0  0
  1  2  1  0
  2  3  1  0
  4  5  1  0
  4  3  1  0
  5  6  1  1
  5  7  1  0
  7  8  2  0
 11 10  1  6
 10  9  1  0
 12  7  1  0
 12 11  1  0
 13 11  1  0
 13 15  1  0
 14 13  2  0
 16 15  1  0
 16 17  1  6
 17 18  1  0
 18 19  2  0
 18 22  1  0
 20 21  1  0
 20 16  1  0
 23 20  2  0
M  END
$$$$
