MSD.pdb
     RDKit          3D

 23 22  0  0  1  0  0  0  0  0999 V2000
   13.9348  -11.9036  -17.8986 C   0  0  0  0  0  0  0  0  0  0  0  0
   15.0529  -12.5435  -19.1869 S   0  0  0  0  0  0  0  0  0  0  0  0
   16.6624  -12.8001  -18.4275 C   0  0  0  0  0  0  0  0  0  0  0  0
   17.0204  -11.7418  -17.4167 C   0  0  0  0  0  0  0  0  0  0  0  0
   18.3646  -12.1625  -16.8208 C   0  0  2  0  0  0  0  0  0  0  0  0
   18.1773  -13.4407  -16.1497 N   0  0  0  0  0  0  0  0  0  0  0  0
   18.8864  -11.1345  -15.8810 C   0  0  0  0  0  0  0  0  0  0  0  0
   18.3715  -11.0960  -14.7336 O   0  0  0  0  0  0  0  0  0  0  0  0
   22.4649   -9.4608  -16.5601 O   0  0  0  0  0  0  0  0  0  0  0  0
   21.9489   -9.3325  -15.2676 C   0  0  0  0  0  0  0  0  0  0  0  0
   20.4330   -9.2213  -15.4055 C   0  0  2  0  0  0  0  0  0  0  0  0
   19.9196  -10.2488  -16.2868 N   0  0  0  0  0  0  0  0  0  0  0  0
   20.1458   -7.8596  -15.9326 C   0  0  0  0  0  0  0  0  0  0  0  0
   20.0645   -7.6969  -17.1763 O   0  0  0  0  0  0  0  0  0  0  0  0
   19.9588   -6.7364  -15.1040 N   0  0  0  0  0  0  0  0  0  0  0  0
   19.7049   -5.3752  -15.6484 C   0  0  1  0  0  0  0  0  0  0  0  0
   19.0659   -4.5377  -14.5635 C   0  0  0  0  0  0  0  0  0  0  0  0
   18.8721   -3.1705  -15.0300 C   0  0  0  0  0  0  0  0  0  0  0  0
   19.5637   -2.2323  -14.6035 O   0  0  0  0  0  0  0  0  0  0  0  0
   21.0405   -4.9027  -16.0550 C   0  0  0  0  0  0  0  0  0  0  0  0
   21.2369   -4.0241  -17.0903 O   0  0  0  0  0  0  0  0  0  0  0  0
   17.8941   -2.8903  -15.9749 O   0  0  0  0  0  0  0  0  0  0  0  0
   22.0591   -5.3026  -15.4492 O   0  0  0  0  0  0  0  0  0  0  0  0
  1  2  1  0
  2  3  1  0
  4  5  1  0
  4  3  1  0
  5  6  1  1
  5  7  1  0
  7  8  2  0
 11 10  1  6
 10  9  1  0
 12  7  1  0
 12 11  1  0
 13 11  1  0
 13 15  1  0
 14 13  2  0
 16 15  1  0
 16 17  1  1
 17 18  1  0
 18 19  2  0
 18 22  1  0
 20 21  1  0
 20 16  1  0
 23 20  2  0
M  END
$$$$
