MSD.pdb
     RDKit          3D

 23 22  0  0  1  0  0  0  0  0999 V2000
   21.1813  -13.3756  -21.9720 C   0  0  0  0  0  0  0  0  0  0  0  0
   22.9980  -13.3827  -21.8338 S   0  0  0  0  0  0  0  0  0  0  0  0
   23.4258  -12.5750  -20.2854 C   0  0  0  0  0  0  0  0  0  0  0  0
   22.5341  -11.4061  -19.9562 C   0  0  0  0  0  0  0  0  0  0  0  0
   23.0425  -10.8465  -18.6268 C   0  0  2  0  0  0  0  0  0  0  0  0
   23.0982  -11.9428  -17.6707 N   0  0  0  0  0  0  0  0  0  0  0  0
   22.1708   -9.7473  -18.1327 C   0  0  0  0  0  0  0  0  0  0  0  0
   22.1105   -8.7060  -18.8366 O   0  0  0  0  0  0  0  0  0  0  0  0
   20.6189   -9.9762  -14.3291 O   0  0  0  0  0  0  0  0  0  0  0  0
   19.7739   -9.3190  -15.2275 C   0  0  0  0  0  0  0  0  0  0  0  0
   20.6496   -8.8170  -16.3723 C   0  0  2  0  0  0  0  0  0  0  0  0
   21.4502   -9.8930  -16.9177 N   0  0  0  0  0  0  0  0  0  0  0  0
   21.5032   -7.7308  -15.8190 C   0  0  0  0  0  0  0  0  0  0  0  0
   22.6796   -8.0036  -15.4706 O   0  0  0  0  0  0  0  0  0  0  0  0
   21.0576   -6.4038  -15.6650 N   0  0  0  0  0  0  0  0  0  0  0  0
   21.9250   -5.3288  -15.1121 C   0  0  1  0  0  0  0  0  0  0  0  0
   21.5494   -4.0226  -15.7754 C   0  0  0  0  0  0  0  0  0  0  0  0
   22.3131   -2.9247  -15.1959 C   0  0  0  0  0  0  0  0  0  0  0  0
   23.5106   -3.0513  -14.8954 O   0  0  0  0  0  0  0  0  0  0  0  0
   21.6486   -5.3614  -13.6647 C   0  0  0  0  0  0  0  0  0  0  0  0
   20.7830   -6.2581  -13.0914 O   0  0  0  0  0  0  0  0  0  0  0  0
   21.7032   -1.6986  -14.9664 O   0  0  0  0  0  0  0  0  0  0  0  0
   22.2123   -4.5481  -12.8995 O   0  0  0  0  0  0  0  0  0  0  0  0
  1  2  1  0
  2  3  1  0
  4  5  1  0
  4  3  1  0
  5  6  1  1
  5  7  1  0
  7  8  2  0
 11 10  1  1
 10  9  1  0
 12  7  1  0
 12 11  1  0
 13 11  1  0
 13 15  1  0
 14 13  2  0
 16 15  1  0
 16 17  1  6
 17 18  1  0
 18 19  2  0
 18 22  1  0
 20 21  1  0
 20 16  1  0
 23 20  2  0
M  END
$$$$
