MSD.pdb
     RDKit          3D

 23 22  0  0  1  0  0  0  0  0999 V2000
   31.9809  -14.1266  -18.0864 C   0  0  0  0  0  0  0  0  0  0  0  0
   32.5093  -12.4266  -17.6990 S   0  0  0  0  0  0  0  0  0  0  0  0
   32.2660  -11.4342  -19.1786 C   0  0  0  0  0  0  0  0  0  0  0  0
   32.7409  -10.0124  -19.0278 C   0  0  0  0  0  0  0  0  0  0  0  0
   31.6474   -9.2809  -18.2479 C   0  0  2  0  0  0  0  0  0  0  0  0
   30.4064   -9.3963  -19.0000 N   0  0  0  0  0  0  0  0  0  0  0  0
   32.0059   -7.8555  -18.0194 C   0  0  0  0  0  0  0  0  0  0  0  0
   31.8432   -7.0642  -18.9841 O   0  0  0  0  0  0  0  0  0  0  0  0
   33.6294   -6.8826  -14.4337 O   0  0  0  0  0  0  0  0  0  0  0  0
   33.0201   -5.7762  -15.0318 C   0  0  0  0  0  0  0  0  0  0  0  0
   32.9371   -6.0713  -16.5269 C   0  0  2  0  0  0  0  0  0  0  0  0
   32.5071   -7.4341  -16.7594 N   0  0  0  0  0  0  0  0  0  0  0  0
   34.2915   -5.8247  -17.0919 C   0  0  0  0  0  0  0  0  0  0  0  0
   35.0926   -6.7885  -17.1861 O   0  0  0  0  0  0  0  0  0  0  0  0
   34.7247   -4.5582  -17.5296 N   0  0  0  0  0  0  0  0  0  0  0  0
   36.0586   -4.3409  -18.1517 C   0  0  1  0  0  0  0  0  0  0  0  0
   35.9180   -3.2903  -19.2303 C   0  0  0  0  0  0  0  0  0  0  0  0
   35.1973   -3.8350  -20.3742 C   0  0  0  0  0  0  0  0  0  0  0  0
   34.3220   -3.1820  -20.9639 O   0  0  0  0  0  0  0  0  0  0  0  0
   36.9108   -3.9242  -17.0236 C   0  0  0  0  0  0  0  0  0  0  0  0
   38.2105   -4.3387  -16.8786 O   0  0  0  0  0  0  0  0  0  0  0  0
   35.4828   -5.1149  -20.8305 O   0  0  0  0  0  0  0  0  0  0  0  0
   36.4573   -3.1600  -16.1433 O   0  0  0  0  0  0  0  0  0  0  0  0
  1  2  1  0
  2  3  1  0
  4  5  1  0
  4  3  1  0
  5  6  1  6
  5  7  1  0
  7  8  2  0
 11 10  1  1
 10  9  1  0
 12  7  1  0
 12 11  1  0
 13 11  1  0
 13 15  1  0
 14 13  2  0
 16 15  1  0
 16 17  1  6
 17 18  1  0
 18 19  2  0
 18 22  1  0
 20 21  1  0
 20 16  1  0
 23 20  2  0
M  END
$$$$
