MSD.pdb
     RDKit          3D

 23 22  0  0  1  0  0  0  0  0999 V2000
   14.7011  -14.2508  -19.9245 C   0  0  0  0  0  0  0  0  0  0  0  0
   15.0571  -12.9223  -18.7297 S   0  0  0  0  0  0  0  0  0  0  0  0
   16.6947  -13.2281  -18.0530 C   0  0  0  0  0  0  0  0  0  0  0  0
   17.1007  -12.2300  -16.9999 C   0  0  0  0  0  0  0  0  0  0  0  0
   18.5382  -12.5820  -16.6144 C   0  0  2  0  0  0  0  0  0  0  0  0
   18.5278  -13.9028  -16.0022 N   0  0  0  0  0  0  0  0  0  0  0  0
   19.1159  -11.5678  -15.6924 C   0  0  0  0  0  0  0  0  0  0  0  0
   18.7001  -11.5731  -14.5049 O   0  0  0  0  0  0  0  0  0  0  0  0
   22.6682   -9.9891  -16.5133 O   0  0  0  0  0  0  0  0  0  0  0  0
   22.2057   -9.8669  -15.2002 C   0  0  0  0  0  0  0  0  0  0  0  0
   20.6948   -9.6664  -15.2802 C   0  0  2  0  0  0  0  0  0  0  0  0
   20.0913  -10.6468  -16.1581 N   0  0  0  0  0  0  0  0  0  0  0  0
   20.4683   -8.2812  -15.7748 C   0  0  0  0  0  0  0  0  0  0  0  0
   20.3649   -8.0900  -17.0127 O   0  0  0  0  0  0  0  0  0  0  0  0
   20.3630   -7.1661  -14.9212 N   0  0  0  0  0  0  0  0  0  0  0  0
   20.1332   -5.7877  -15.4320 C   0  0  1  0  0  0  0  0  0  0  0  0
   19.0890   -5.1234  -14.5628 C   0  0  0  0  0  0  0  0  0  0  0  0
   18.8712   -3.7492  -14.9971 C   0  0  0  0  0  0  0  0  0  0  0  0
   19.4323   -2.7929  -14.4394 O   0  0  0  0  0  0  0  0  0  0  0  0
   21.4623   -5.1555  -15.3527 C   0  0  0  0  0  0  0  0  0  0  0  0
   21.8753   -4.1776  -16.2217 O   0  0  0  0  0  0  0  0  0  0  0  0
   18.0181   -3.4828  -16.0597 O   0  0  0  0  0  0  0  0  0  0  0  0
   22.2717   -5.5050  -14.4654 O   0  0  0  0  0  0  0  0  0  0  0  0
  1  2  1  0
  2  3  1  0
  4  5  1  0
  4  3  1  0
  5  6  1  1
  5  7  1  0
  7  8  2  0
 11 10  1  6
 10  9  1  0
 12  7  1  0
 12 11  1  0
 13 11  1  0
 13 15  1  0
 14 13  2  0
 16 15  1  0
 16 17  1  1
 17 18  1  0
 18 19  2  0
 18 22  1  0
 20 21  1  0
 20 16  1  0
 23 20  2  0
M  END
$$$$
