MSD.pdb
     RDKit          3D

 23 22  0  0  1  0  0  0  0  0999 V2000
   27.1461  -34.5573  -13.6579 C   0  0  0  0  0  0  0  0  0  0  0  0
   25.4729  -33.8383  -13.7133 S   0  0  0  0  0  0  0  0  0  0  0  0
   24.7926  -33.9230  -12.0510 C   0  0  0  0  0  0  0  0  0  0  0  0
   25.8336  -34.1813  -10.9930 C   0  0  0  0  0  0  0  0  0  0  0  0
   25.0644  -34.4599   -9.7008 C   0  0  2  0  0  0  0  0  0  0  0  0
   23.8188  -33.7080   -9.7493 N   0  0  0  0  0  0  0  0  0  0  0  0
   25.8663  -34.0932   -8.5030 C   0  0  0  0  0  0  0  0  0  0  0  0
   26.9678  -34.6822   -8.3511 O   0  0  0  0  0  0  0  0  0  0  0  0
   24.0905  -32.0382   -5.4677 O   0  0  0  0  0  0  0  0  0  0  0  0
   25.4212  -31.6447   -5.6332 C   0  0  0  0  0  0  0  0  0  0  0  0
   26.1234  -32.7671   -6.3926 C   0  0  2  0  0  0  0  0  0  0  0  0
   25.3863  -33.1190   -7.5880 N   0  0  0  0  0  0  0  0  0  0  0  0
   26.2280  -33.9210   -5.4589 C   0  0  0  0  0  0  0  0  0  0  0  0
   25.3310  -34.8012   -5.4817 O   0  0  0  0  0  0  0  0  0  0  0  0
   27.2877  -34.0788   -4.5449 N   0  0  0  0  0  0  0  0  0  0  0  0
   27.4110  -35.2702   -3.6624 C   0  0  1  0  0  0  0  0  0  0  0  0
   28.8803  -35.5604   -3.4530 C   0  0  0  0  0  0  0  0  0  0  0  0
   29.0469  -36.7290   -2.5979 C   0  0  0  0  0  0  0  0  0  0  0  0
   28.0857  -37.4482   -2.2830 O   0  0  0  0  0  0  0  0  0  0  0  0
   26.7023  -34.8735   -2.4324 C   0  0  0  0  0  0  0  0  0  0  0  0
   26.0318  -35.7680   -1.6372 O   0  0  0  0  0  0  0  0  0  0  0  0
   30.3046  -37.0622   -2.1131 O   0  0  0  0  0  0  0  0  0  0  0  0
   26.6935  -33.6758   -2.0717 O   0  0  0  0  0  0  0  0  0  0  0  0
  1  2  1  0
  2  3  1  0
  4  5  1  0
  4  3  1  0
  5  6  1  6
  5  7  1  0
  7  8  2  0
 11 10  1  1
 10  9  1  0
 12  7  1  0
 12 11  1  0
 13 11  1  0
 13 15  1  0
 14 13  2  0
 16 15  1  0
 16 17  1  1
 17 18  1  0
 18 19  2  0
 18 22  1  0
 20 21  1  0
 20 16  1  0
 23 20  2  0
M  END
$$$$
