YGV.pdb
     RDKit          3D

 24 24  0  0  1  0  0  0  0  0999 V2000
    8.1590  -12.1019   16.8565 O   0  0  0  0  0  0  0  0  0  0  0  0
    7.8912  -12.7225   18.0750 C   0  0  0  0  0  0  0  0  0  0  0  0
    6.6526  -13.2548   18.3701 C   0  0  0  0  0  0  0  0  0  0  0  0
    6.4007  -13.8671   19.5814 C   0  0  0  0  0  0  0  0  0  0  0  0
    7.3752  -13.9744   20.5507 C   0  0  0  0  0  0  0  0  0  0  0  0
    7.1355  -14.6260   21.8610 C   0  0  0  0  0  0  0  0  0  0  0  0
    7.6529  -16.0400   21.7610 C   0  0  2  0  0  0  0  0  0  0  0  0
    6.7659  -16.8043   20.9047 N   0  0  0  0  0  0  0  0  0  0  0  0
    7.7921  -16.6759   23.1016 C   0  0  0  0  0  0  0  0  0  0  0  0
    6.7815  -16.8238   23.8318 O   0  0  0  0  0  0  0  0  0  0  0  0
    8.6175  -13.4469   20.2694 C   0  0  0  0  0  0  0  0  0  0  0  0
    8.8576  -12.8363   19.0531 C   0  0  0  0  0  0  0  0  0  0  0  0
    9.0396  -17.1326   23.6043 N   0  0  0  0  0  0  0  0  0  0  0  0
    9.2072  -17.4977   24.9685 C   0  0  0  0  0  0  0  0  0  0  0  0
    9.9049  -16.5460   25.8278 C   0  0  0  0  0  0  0  0  0  0  0  0
   10.9277  -15.9785   25.3026 O   0  0  0  0  0  0  0  0  0  0  0  0
    8.5887  -14.2197   29.2216 C   0  0  0  0  0  0  0  0  0  0  0  0
    9.6604  -13.9779   28.2097 C   0  0  2  0  0  0  0  0  0  0  0  0
    9.0571  -13.3387   26.9895 C   0  0  0  0  0  0  0  0  0  0  0  0
   10.4050  -15.2554   27.8904 C   0  0  2  0  0  0  0  0  0  0  0  0
    9.5976  -16.1829   27.1415 N   0  0  0  0  0  0  0  0  0  0  0  0
   10.9722  -15.8863   29.1009 C   0  0  0  0  0  0  0  0  0  0  0  0
   11.7852  -15.2647   29.8272 O   0  0  0  0  0  0  0  0  0  0  0  0
   10.6303  -17.1741   29.4741 O   0  0  0  0  0  0  0  0  0  0  0  0
  2  1  1  0
  2  3  2  0
  4  3  1  0
  5  4  2  0
  6  7  1  0
  6  5  1  0
  7  9  1  0
  7  8  1  6
  9 10  2  0
  9 13  1  0
 11 12  2  0
 11  5  1  0
 12  2  1  0
 13 14  1  0
 15 14  1  0
 15 21  1  0
 16 15  2  0
 18 17  1  1
 19 18  1  0
 20 21  1  1
 20 22  1  0
 20 18  1  0
 22 23  2  0
 22 24  1  0
M  END
$$$$
