YGV.pdb
     RDKit          3D

 24 24  0  0  1  0  0  0  0  0999 V2000
    8.1379  -12.7473   16.1232 O   0  0  0  0  0  0  0  0  0  0  0  0
    7.8244  -13.1388   17.4232 C   0  0  0  0  0  0  0  0  0  0  0  0
    8.7919  -13.5409   18.3214 C   0  0  0  0  0  0  0  0  0  0  0  0
    8.4675  -13.9264   19.6066 C   0  0  0  0  0  0  0  0  0  0  0  0
    7.1623  -13.9268   20.0506 C   0  0  0  0  0  0  0  0  0  0  0  0
    6.7821  -14.3351   21.4246 C   0  0  0  0  0  0  0  0  0  0  0  0
    7.7529  -15.4051   21.8603 C   0  0  2  0  0  0  0  0  0  0  0  0
    7.4774  -16.6193   21.1159 N   0  0  0  0  0  0  0  0  0  0  0  0
    7.6911  -15.6450   23.3298 C   0  0  0  0  0  0  0  0  0  0  0  0
    7.7594  -14.6761   24.1252 O   0  0  0  0  0  0  0  0  0  0  0  0
    6.1852  -13.5272   19.1638 C   0  0  0  0  0  0  0  0  0  0  0  0
    6.5224  -13.1436   17.8797 C   0  0  0  0  0  0  0  0  0  0  0  0
    7.5558  -16.9449   23.8862 N   0  0  0  0  0  0  0  0  0  0  0  0
    7.4619  -17.1508   25.2902 C   0  0  0  0  0  0  0  0  0  0  0  0
    8.6553  -16.8686   26.0822 C   0  0  0  0  0  0  0  0  0  0  0  0
    9.7717  -17.0919   25.4926 O   0  0  0  0  0  0  0  0  0  0  0  0
    9.6395  -13.5960   27.5998 C   0  0  0  0  0  0  0  0  0  0  0  0
    9.9178  -14.6411   28.6301 C   0  0  2  0  0  0  0  0  0  0  0  0
   11.1778  -14.2865   29.3705 C   0  0  0  0  0  0  0  0  0  0  0  0
    9.9765  -16.0178   28.0060 C   0  0  2  0  0  0  0  0  0  0  0  0
    8.7281  -16.3908   27.3931 N   0  0  0  0  0  0  0  0  0  0  0  0
   10.4367  -17.0444   28.9648 C   0  0  0  0  0  0  0  0  0  0  0  0
    9.6394  -17.8993   29.4210 O   0  0  0  0  0  0  0  0  0  0  0  0
   11.7521  -17.0996   29.3905 O   0  0  0  0  0  0  0  0  0  0  0  0
  2  1  1  0
  2  3  2  0
  4  3  1  0
  5  4  2  0
  6  7  1  0
  6  5  1  0
  7  9  1  0
  7  8  1  6
  9 10  2  0
  9 13  1  0
 11 12  2  0
 11  5  1  0
 12  2  1  0
 13 14  1  0
 15 14  1  0
 15 21  1  0
 16 15  2  0
 18 17  1  6
 19 18  1  0
 20 21  1  1
 20 22  1  0
 20 18  1  0
 22 23  2  0
 22 24  1  0
M  END
$$$$
