YGV.pdb
     RDKit          3D

 24 24  0  0  1  0  0  0  0  0999 V2000
    6.7065  -10.5627   27.0637 O   0  0  0  0  0  0  0  0  0  0  0  0
    6.8089  -11.9088   26.7182 C   0  0  0  0  0  0  0  0  0  0  0  0
    7.1606  -12.8767   27.6368 C   0  0  0  0  0  0  0  0  0  0  0  0
    7.2584  -14.2070   27.2812 C   0  0  0  0  0  0  0  0  0  0  0  0
    7.0091  -14.6282   25.9924 C   0  0  0  0  0  0  0  0  0  0  0  0
    7.1058  -16.0492   25.5796 C   0  0  0  0  0  0  0  0  0  0  0  0
    8.5632  -16.4359   25.6375 C   0  0  2  0  0  0  0  0  0  0  0  0
    9.3162  -15.3403   26.2179 N   0  0  0  0  0  0  0  0  0  0  0  0
    9.0929  -16.8053   24.2944 C   0  0  0  0  0  0  0  0  0  0  0  0
    8.6044  -17.7830   23.6766 O   0  0  0  0  0  0  0  0  0  0  0  0
    6.6567  -13.6717   25.0640 C   0  0  0  0  0  0  0  0  0  0  0  0
    6.5621  -12.3430   25.4321 C   0  0  0  0  0  0  0  0  0  0  0  0
   10.1464  -16.0895   23.6657 N   0  0  0  0  0  0  0  0  0  0  0  0
   10.6190  -16.4392   22.3708 C   0  0  0  0  0  0  0  0  0  0  0  0
    9.6581  -16.3698   21.2740 C   0  0  0  0  0  0  0  0  0  0  0  0
    8.9568  -17.4272   21.0899 O   0  0  0  0  0  0  0  0  0  0  0  0
    8.4721  -12.8968   18.9918 C   0  0  0  0  0  0  0  0  0  0  0  0
    7.5851  -14.0350   19.3775 C   0  0  2  0  0  0  0  0  0  0  0  0
    6.9039  -13.7156   20.6795 C   0  0  0  0  0  0  0  0  0  0  0  0
    8.3585  -15.3341   19.4277 C   0  0  2  0  0  0  0  0  0  0  0  0
    9.4133  -15.3016   20.4073 N   0  0  0  0  0  0  0  0  0  0  0  0
    8.8671  -15.7309   18.0977 C   0  0  0  0  0  0  0  0  0  0  0  0
   10.0980  -15.7241   17.8535 O   0  0  0  0  0  0  0  0  0  0  0  0
    8.0119  -16.1209   17.0823 O   0  0  0  0  0  0  0  0  0  0  0  0
  2  1  1  0
  2  3  2  0
  4  3  1  0
  5  4  2  0
  6  7  1  0
  6  5  1  0
  7  9  1  0
  7  8  1  6
  9 10  2  0
  9 13  1  0
 11 12  2  0
 11  5  1  0
 12  2  1  0
 13 14  1  0
 15 14  1  0
 15 21  1  0
 16 15  2  0
 18 17  1  1
 19 18  1  0
 20 21  1  1
 20 22  1  0
 20 18  1  0
 22 23  2  0
 22 24  1  0
M  END
$$$$
