YGV.pdb
     RDKit          3D

 24 24  0  0  1  0  0  0  0  0999 V2000
    6.1147  -10.3884   26.9934 O   0  0  0  0  0  0  0  0  0  0  0  0
    6.5565  -11.6912   26.7715 C   0  0  0  0  0  0  0  0  0  0  0  0
    5.7783  -12.7905   27.0723 C   0  0  0  0  0  0  0  0  0  0  0  0
    6.2283  -14.0761   26.8474 C   0  0  0  0  0  0  0  0  0  0  0  0
    7.4753  -14.3194   26.3122 C   0  0  0  0  0  0  0  0  0  0  0  0
    7.9868  -15.6880   26.0589 C   0  0  0  0  0  0  0  0  0  0  0  0
    7.3142  -16.1947   24.8068 C   0  0  2  0  0  0  0  0  0  0  0  0
    5.8824  -16.2497   25.0332 N   0  0  0  0  0  0  0  0  0  0  0  0
    7.8477  -17.5219   24.3888 C   0  0  0  0  0  0  0  0  0  0  0  0
    8.9723  -17.9011   24.7980 O   0  0  0  0  0  0  0  0  0  0  0  0
    8.2635  -13.2302   26.0068 C   0  0  0  0  0  0  0  0  0  0  0  0
    7.8020  -11.9480   26.2365 C   0  0  0  0  0  0  0  0  0  0  0  0
    7.1299  -18.3977   23.5312 N   0  0  0  0  0  0  0  0  0  0  0  0
    6.5424  -17.9415   22.3192 C   0  0  0  0  0  0  0  0  0  0  0  0
    7.4404  -17.3613   21.3252 C   0  0  0  0  0  0  0  0  0  0  0  0
    7.6948  -18.1062   20.3131 O   0  0  0  0  0  0  0  0  0  0  0  0
    8.6818  -13.1534   21.0399 C   0  0  0  0  0  0  0  0  0  0  0  0
    8.0120  -14.0329   20.0355 C   0  0  2  0  0  0  0  0  0  0  0  0
    6.5207  -13.9271   20.1979 C   0  0  0  0  0  0  0  0  0  0  0  0
    8.5102  -15.4573   20.1419 C   0  0  2  0  0  0  0  0  0  0  0  0
    8.0521  -16.1054   21.3433 N   0  0  0  0  0  0  0  0  0  0  0  0
    9.9796  -15.5445   20.0064 C   0  0  0  0  0  0  0  0  0  0  0  0
   10.6878  -15.9588   20.9559 O   0  0  0  0  0  0  0  0  0  0  0  0
   10.6221  -15.1757   18.8378 O   0  0  0  0  0  0  0  0  0  0  0  0
  2  1  1  0
  2  3  2  0
  4  3  1  0
  5  4  2  0
  6  7  1  0
  6  5  1  0
  7  9  1  0
  7  8  1  1
  9 10  2  0
  9 13  1  0
 11 12  2  0
 11  5  1  0
 12  2  1  0
 13 14  1  0
 15 14  1  0
 15 21  1  0
 16 15  2  0
 18 17  1  1
 19 18  1  0
 20 21  1  1
 20 22  1  0
 20 18  1  0
 22 23  2  0
 22 24  1  0
M  END
$$$$
