YGV.pdb
     RDKit          3D

 24 24  0  0  1  0  0  0  0  0999 V2000
    5.4775  -10.6386   26.5935 O   0  0  0  0  0  0  0  0  0  0  0  0
    5.8844  -11.7561   25.8674 C   0  0  0  0  0  0  0  0  0  0  0  0
    5.2836  -12.9889   26.0212 C   0  0  0  0  0  0  0  0  0  0  0  0
    5.6966  -14.0881   25.2954 C   0  0  0  0  0  0  0  0  0  0  0  0
    6.7278  -14.0036   24.3843 C   0  0  0  0  0  0  0  0  0  0  0  0
    7.1942  -15.1657   23.5900 C   0  0  0  0  0  0  0  0  0  0  0  0
    8.0066  -16.0426   24.5108 C   0  0  2  0  0  0  0  0  0  0  0  0
    8.8741  -15.2021   25.3141 N   0  0  0  0  0  0  0  0  0  0  0  0
    8.7881  -17.0640   23.7578 C   0  0  0  0  0  0  0  0  0  0  0  0
    8.2608  -18.1655   23.4669 O   0  0  0  0  0  0  0  0  0  0  0  0
    7.3373  -12.7778   24.2204 C   0  0  0  0  0  0  0  0  0  0  0  0
    6.9149  -11.6846   24.9528 C   0  0  0  0  0  0  0  0  0  0  0  0
   10.1295  -16.8469   23.3443 N   0  0  0  0  0  0  0  0  0  0  0  0
   11.2183  -17.5337   23.9485 C   0  0  0  0  0  0  0  0  0  0  0  0
   11.6345  -17.0806   25.2723 C   0  0  0  0  0  0  0  0  0  0  0  0
   12.8395  -16.6499   25.3521 O   0  0  0  0  0  0  0  0  0  0  0  0
    9.5251  -15.1596   28.3064 C   0  0  0  0  0  0  0  0  0  0  0  0
   10.9967  -15.2106   28.0559 C   0  0  2  0  0  0  0  0  0  0  0  0
   11.3558  -14.2067   26.9954 C   0  0  0  0  0  0  0  0  0  0  0  0
   11.4400  -16.6136   27.7043 C   0  0  2  0  0  0  0  0  0  0  0  0
   10.8869  -17.0611   26.4525 N   0  0  0  0  0  0  0  0  0  0  0  0
   11.1625  -17.5743   28.7929 C   0  0  0  0  0  0  0  0  0  0  0  0
   11.6813  -17.4271   29.9259 O   0  0  0  0  0  0  0  0  0  0  0  0
   10.3276  -18.6614   28.6038 O   0  0  0  0  0  0  0  0  0  0  0  0
  2  1  1  0
  2  3  2  0
  4  3  1  0
  5  4  2  0
  6  7  1  0
  6  5  1  0
  7  9  1  0
  7  8  1  6
  9 10  2  0
  9 13  1  0
 11 12  2  0
 11  5  1  0
 12  2  1  0
 13 14  1  0
 15 14  1  0
 15 21  1  0
 16 15  2  0
 18 17  1  6
 19 18  1  0
 20 21  1  6
 20 22  1  0
 20 18  1  0
 22 23  2  0
 22 24  1  0
M  END
$$$$
