YGV.pdb
     RDKit          3D

 24 24  0  0  1  0  0  0  0  0999 V2000
    9.2551  -23.3289   30.0680 O   0  0  0  0  0  0  0  0  0  0  0  0
    8.9912  -22.5880   28.9177 C   0  0  0  0  0  0  0  0  0  0  0  0
    9.6821  -21.4322   28.6155 C   0  0  0  0  0  0  0  0  0  0  0  0
    9.4106  -20.7077   27.4723 C   0  0  0  0  0  0  0  0  0  0  0  0
    8.4370  -21.1061   26.5812 C   0  0  0  0  0  0  0  0  0  0  0  0
    8.1221  -20.3497   25.3453 C   0  0  0  0  0  0  0  0  0  0  0  0
    7.3069  -19.1462   25.7504 C   0  0  2  0  0  0  0  0  0  0  0  0
    5.9415  -19.5673   26.0001 N   0  0  0  0  0  0  0  0  0  0  0  0
    7.3617  -18.0678   24.7232 C   0  0  0  0  0  0  0  0  0  0  0  0
    8.4700  -17.6952   24.2660 O   0  0  0  0  0  0  0  0  0  0  0  0
    7.7388  -22.2592   26.8706 C   0  0  0  0  0  0  0  0  0  0  0  0
    8.0197  -22.9761   28.0182 C   0  0  0  0  0  0  0  0  0  0  0  0
    6.1957  -17.4272   24.2257 N   0  0  0  0  0  0  0  0  0  0  0  0
    6.2725  -16.3348   23.3185 C   0  0  0  0  0  0  0  0  0  0  0  0
    6.9721  -15.1393   23.7792 C   0  0  0  0  0  0  0  0  0  0  0  0
    7.8648  -14.6827   22.9802 O   0  0  0  0  0  0  0  0  0  0  0  0
    6.1441  -12.4685   27.1290 C   0  0  0  0  0  0  0  0  0  0  0  0
    6.8573  -12.1532   25.8551 C   0  0  2  0  0  0  0  0  0  0  0  0
    5.8658  -11.6545   24.8403 C   0  0  0  0  0  0  0  0  0  0  0  0
    7.6445  -13.3474   25.3627 C   0  0  2  0  0  0  0  0  0  0  0  0
    6.7902  -14.4395   24.9748 N   0  0  0  0  0  0  0  0  0  0  0  0
    8.6673  -13.7804   26.3381 C   0  0  0  0  0  0  0  0  0  0  0  0
    8.6160  -14.9217   26.8572 O   0  0  0  0  0  0  0  0  0  0  0  0
    9.7095  -12.9502   26.7111 O   0  0  0  0  0  0  0  0  0  0  0  0
  2  1  1  0
  2  3  2  0
  4  3  1  0
  5  4  2  0
  6  7  1  0
  6  5  1  0
  7  9  1  0
  7  8  1  6
  9 10  2  0
  9 13  1  0
 11 12  2  0
 11  5  1  0
 12  2  1  0
 13 14  1  0
 15 14  1  0
 15 21  1  0
 16 15  2  0
 18 17  1  1
 19 18  1  0
 20 21  1  1
 20 22  1  0
 20 18  1  0
 22 23  2  0
 22 24  1  0
M  END
$$$$
