YGV.pdb
     RDKit          3D

 24 24  0  0  1  0  0  0  0  0999 V2000
   11.5928  -15.3639   30.4711 O   0  0  0  0  0  0  0  0  0  0  0  0
   10.6932  -15.1875   29.4216 C   0  0  0  0  0  0  0  0  0  0  0  0
    9.8041  -14.1326   29.3877 C   0  0  0  0  0  0  0  0  0  0  0  0
    8.9180  -13.9695   28.3417 C   0  0  0  0  0  0  0  0  0  0  0  0
    8.8816  -14.8532   27.2842 C   0  0  0  0  0  0  0  0  0  0  0  0
    7.9419  -14.7052   26.1467 C   0  0  0  0  0  0  0  0  0  0  0  0
    7.4388  -16.0841   25.7970 C   0  0  2  0  0  0  0  0  0  0  0  0
    7.4394  -16.9013   26.9956 N   0  0  0  0  0  0  0  0  0  0  0  0
    8.2473  -16.7114   24.7136 C   0  0  0  0  0  0  0  0  0  0  0  0
    8.1341  -17.9397   24.4799 O   0  0  0  0  0  0  0  0  0  0  0  0
    9.7645  -15.9119   27.3051 C   0  0  0  0  0  0  0  0  0  0  0  0
   10.6468  -16.0646   28.3577 C   0  0  0  0  0  0  0  0  0  0  0  0
    9.1594  -15.9710   23.9152 N   0  0  0  0  0  0  0  0  0  0  0  0
    9.5359  -16.4041   22.6141 C   0  0  0  0  0  0  0  0  0  0  0  0
    8.7390  -15.9102   21.4952 C   0  0  0  0  0  0  0  0  0  0  0  0
    7.5133  -16.2861   21.4852 O   0  0  0  0  0  0  0  0  0  0  0  0
    7.0579  -12.7003   18.4180 C   0  0  0  0  0  0  0  0  0  0  0  0
    7.9334  -13.1585   19.5380 C   0  0  2  0  0  0  0  0  0  0  0  0
    9.1777  -12.3149   19.5738 C   0  0  0  0  0  0  0  0  0  0  0  0
    8.2345  -14.6365   19.4231 C   0  0  2  0  0  0  0  0  0  0  0  0
    9.1462  -15.0867   20.4426 N   0  0  0  0  0  0  0  0  0  0  0  0
    8.7084  -15.0046   18.0722 C   0  0  0  0  0  0  0  0  0  0  0  0
    7.9719  -14.8457   17.0687 O   0  0  0  0  0  0  0  0  0  0  0  0
    9.9706  -15.5331   17.8668 O   0  0  0  0  0  0  0  0  0  0  0  0
  2  1  1  0
  2  3  2  0
  4  3  1  0
  5  4  2  0
  6  7  1  0
  6  5  1  0
  7  9  1  0
  7  8  1  1
  9 10  2  0
  9 13  1  0
 11 12  2  0
 11  5  1  0
 12  2  1  0
 13 14  1  0
 15 14  1  0
 15 21  1  0
 16 15  2  0
 18 17  1  6
 19 18  1  0
 20 21  1  1
 20 22  1  0
 20 18  1  0
 22 23  2  0
 22 24  1  0
M  END
$$$$
