YGV.pdb
     RDKit          3D

 24 24  0  0  1  0  0  0  0  0999 V2000
    9.2664  -20.3215   28.8688 O   0  0  0  0  0  0  0  0  0  0  0  0
    8.5083  -19.8410   27.8029 C   0  0  0  0  0  0  0  0  0  0  0  0
    8.4379  -18.4963   27.5007 C   0  0  0  0  0  0  0  0  0  0  0  0
    7.6829  -18.0336   26.4416 C   0  0  0  0  0  0  0  0  0  0  0  0
    6.9654  -18.8941   25.6383 C   0  0  0  0  0  0  0  0  0  0  0  0
    6.1455  -18.4281   24.4940 C   0  0  0  0  0  0  0  0  0  0  0  0
    6.9384  -18.6896   23.2371 C   0  0  2  0  0  0  0  0  0  0  0  0
    8.3407  -18.8178   23.5855 N   0  0  0  0  0  0  0  0  0  0  0  0
    6.7292  -17.6232   22.2172 C   0  0  0  0  0  0  0  0  0  0  0  0
    5.7928  -17.7264   21.3874 O   0  0  0  0  0  0  0  0  0  0  0  0
    7.0266  -20.2405   25.9288 C   0  0  0  0  0  0  0  0  0  0  0  0
    7.7859  -20.6916   26.9917 C   0  0  0  0  0  0  0  0  0  0  0  0
    7.5556  -16.4708   22.1368 N   0  0  0  0  0  0  0  0  0  0  0  0
    7.0777  -15.1815   22.4997 C   0  0  0  0  0  0  0  0  0  0  0  0
    7.5760  -14.6186   23.7510 C   0  0  0  0  0  0  0  0  0  0  0  0
    8.5951  -15.2125   24.2536 O   0  0  0  0  0  0  0  0  0  0  0  0
    5.5868  -12.0460   26.6315 C   0  0  0  0  0  0  0  0  0  0  0  0
    7.0119  -11.8341   26.2373 C   0  0  2  0  0  0  0  0  0  0  0  0
    7.0895  -10.7160   25.2347 C   0  0  0  0  0  0  0  0  0  0  0  0
    7.6319  -13.1168   25.7289 C   0  0  2  0  0  0  0  0  0  0  0  0
    7.0809  -13.5225   24.4620 N   0  0  0  0  0  0  0  0  0  0  0  0
    7.5552  -14.2054   26.7259 C   0  0  0  0  0  0  0  0  0  0  0  0
    6.6446  -15.0667   26.6664 O   0  0  0  0  0  0  0  0  0  0  0  0
    8.4768  -14.3134   27.7523 O   0  0  0  0  0  0  0  0  0  0  0  0
  2  1  1  0
  2  3  2  0
  4  3  1  0
  5  4  2  0
  6  7  1  0
  6  5  1  0
  7  9  1  0
  7  8  1  1
  9 10  2  0
  9 13  1  0
 11 12  2  0
 11  5  1  0
 12  2  1  0
 13 14  1  0
 15 14  1  0
 15 21  1  0
 16 15  2  0
 18 17  1  6
 19 18  1  0
 20 21  1  6
 20 22  1  0
 20 18  1  0
 22 23  2  0
 22 24  1  0
M  END
$$$$
