YGV.pdb
     RDKit          3D

 24 24  0  0  1  0  0  0  0  0999 V2000
    7.9314  -13.0672   15.6680 O   0  0  0  0  0  0  0  0  0  0  0  0
    7.6688  -13.4810   16.9724 C   0  0  0  0  0  0  0  0  0  0  0  0
    7.1636  -14.7334   17.2566 C   0  0  0  0  0  0  0  0  0  0  0  0
    6.9080  -15.1307   18.5537 C   0  0  0  0  0  0  0  0  0  0  0  0
    7.1459  -14.2942   19.6234 C   0  0  0  0  0  0  0  0  0  0  0  0
    6.8818  -14.6917   21.0274 C   0  0  0  0  0  0  0  0  0  0  0  0
    8.1881  -15.1690   21.6127 C   0  0  2  0  0  0  0  0  0  0  0  0
    8.6761  -16.2838   20.8233 N   0  0  0  0  0  0  0  0  0  0  0  0
    8.0491  -15.5421   23.0488 C   0  0  0  0  0  0  0  0  0  0  0  0
    7.6898  -14.6796   23.8872 O   0  0  0  0  0  0  0  0  0  0  0  0
    7.6507  -13.0398   19.3541 C   0  0  0  0  0  0  0  0  0  0  0  0
    7.9026  -12.6535   18.0513 C   0  0  0  0  0  0  0  0  0  0  0  0
    8.3091  -16.8547   23.5253 N   0  0  0  0  0  0  0  0  0  0  0  0
    8.2210  -17.1794   24.9070 C   0  0  0  0  0  0  0  0  0  0  0  0
    9.2958  -16.6988   25.7700 C   0  0  0  0  0  0  0  0  0  0  0  0
   10.4827  -16.8678   25.3156 O   0  0  0  0  0  0  0  0  0  0  0  0
    9.1584  -14.2312   29.3921 C   0  0  0  0  0  0  0  0  0  0  0  0
   10.2227  -14.3009   28.3464 C   0  0  2  0  0  0  0  0  0  0  0  0
    9.9423  -13.2759   27.2823 C   0  0  0  0  0  0  0  0  0  0  0  0
   10.3457  -15.7015   27.7882 C   0  0  2  0  0  0  0  0  0  0  0  0
    9.1895  -16.0845   27.0203 N   0  0  0  0  0  0  0  0  0  0  0  0
   10.6504  -16.6948   28.8397 C   0  0  0  0  0  0  0  0  0  0  0  0
    9.8230  -17.5909   29.1347 O   0  0  0  0  0  0  0  0  0  0  0  0
   11.8488  -16.6729   29.5310 O   0  0  0  0  0  0  0  0  0  0  0  0
  2  1  1  0
  2  3  2  0
  4  3  1  0
  5  4  2  0
  6  7  1  0
  6  5  1  0
  7  9  1  0
  7  8  1  6
  9 10  2  0
  9 13  1  0
 11 12  2  0
 11  5  1  0
 12  2  1  0
 13 14  1  0
 15 14  1  0
 15 21  1  0
 16 15  2  0
 18 17  1  1
 19 18  1  0
 20 21  1  1
 20 22  1  0
 20 18  1  0
 22 23  2  0
 22 24  1  0
M  END
$$$$
