YGV.pdb
     RDKit          3D

 24 24  0  0  1  0  0  0  0  0999 V2000
   10.6023  -14.7624   30.1364 O   0  0  0  0  0  0  0  0  0  0  0  0
    9.8532  -14.5924   28.9738 C   0  0  0  0  0  0  0  0  0  0  0  0
    8.9024  -13.5994   28.8529 C   0  0  0  0  0  0  0  0  0  0  0  0
    8.1671  -13.4421   27.6952 C   0  0  0  0  0  0  0  0  0  0  0  0
    8.3496  -14.2697   26.6079 C   0  0  0  0  0  0  0  0  0  0  0  0
    7.5758  -14.1262   25.3511 C   0  0  0  0  0  0  0  0  0  0  0  0
    6.9513  -15.4669   25.0522 C   0  0  2  0  0  0  0  0  0  0  0  0
    7.3377  -16.4056   26.0885 N   0  0  0  0  0  0  0  0  0  0  0  0
    7.3305  -15.9665   23.7003 C   0  0  0  0  0  0  0  0  0  0  0  0
    8.4652  -16.4707   23.5154 O   0  0  0  0  0  0  0  0  0  0  0  0
    9.2964  -15.2663   26.7148 C   0  0  0  0  0  0  0  0  0  0  0  0
   10.0262  -15.4139   27.8790 C   0  0  0  0  0  0  0  0  0  0  0  0
    6.4513  -15.8983   22.5868 N   0  0  0  0  0  0  0  0  0  0  0  0
    6.8499  -15.3109   21.3546 C   0  0  0  0  0  0  0  0  0  0  0  0
    8.0871  -15.8029   20.7560 C   0  0  0  0  0  0  0  0  0  0  0  0
    8.3352  -15.3720   19.5742 O   0  0  0  0  0  0  0  0  0  0  0  0
   11.6203  -17.1409   22.6125 C   0  0  0  0  0  0  0  0  0  0  0  0
   11.4728  -16.6127   21.2231 C   0  0  2  0  0  0  0  0  0  0  0  0
   11.5631  -15.1119   21.2494 C   0  0  0  0  0  0  0  0  0  0  0  0
   10.1935  -17.1085   20.5859 C   0  0  2  0  0  0  0  0  0  0  0  0
    9.0243  -16.6796   21.3085 N   0  0  0  0  0  0  0  0  0  0  0  0
   10.2010  -18.5735   20.3892 C   0  0  0  0  0  0  0  0  0  0  0  0
   11.0044  -19.1088   19.5875 O   0  0  0  0  0  0  0  0  0  0  0  0
    9.3301  -19.4008   21.0759 O   0  0  0  0  0  0  0  0  0  0  0  0
  2  1  1  0
  2  3  2  0
  4  3  1  0
  5  4  2  0
  6  7  1  0
  6  5  1  0
  7  9  1  0
  7  8  1  1
  9 10  2  0
  9 13  1  0
 11 12  2  0
 11  5  1  0
 12  2  1  0
 13 14  1  0
 15 14  1  0
 15 21  1  0
 16 15  2  0
 18 17  1  1
 19 18  1  0
 20 21  1  1
 20 22  1  0
 20 18  1  0
 22 23  2  0
 22 24  1  0
M  END
$$$$
