YGV.pdb
     RDKit          3D

 24 24  0  0  1  0  0  0  0  0999 V2000
    9.6670  -12.5189   19.8452 O   0  0  0  0  0  0  0  0  0  0  0  0
    8.6533  -13.4594   20.0171 C   0  0  0  0  0  0  0  0  0  0  0  0
    8.6502  -14.6650   19.3457 C   0  0  0  0  0  0  0  0  0  0  0  0
    7.6395  -15.5881   19.5253 C   0  0  0  0  0  0  0  0  0  0  0  0
    6.5880  -15.3469   20.3836 C   0  0  0  0  0  0  0  0  0  0  0  0
    5.4879  -16.3179   20.5979 C   0  0  0  0  0  0  0  0  0  0  0  0
    6.0614  -17.4848   21.3636 C   0  0  2  0  0  0  0  0  0  0  0  0
    5.2924  -18.6743   21.0507 N   0  0  0  0  0  0  0  0  0  0  0  0
    6.0864  -17.2268   22.8312 C   0  0  0  0  0  0  0  0  0  0  0  0
    5.0184  -17.2595   23.4904 O   0  0  0  0  0  0  0  0  0  0  0  0
    6.5783  -14.1461   21.0611 C   0  0  0  0  0  0  0  0  0  0  0  0
    7.5957  -13.2300   20.8729 C   0  0  0  0  0  0  0  0  0  0  0  0
    7.2859  -16.9394   23.5356 N   0  0  0  0  0  0  0  0  0  0  0  0
    7.2979  -16.7501   24.9450 C   0  0  0  0  0  0  0  0  0  0  0  0
    8.5416  -16.2677   25.5378 C   0  0  0  0  0  0  0  0  0  0  0  0
    9.5182  -16.1180   24.7206 O   0  0  0  0  0  0  0  0  0  0  0  0
    9.1196  -14.1922   29.3099 C   0  0  0  0  0  0  0  0  0  0  0  0
    9.7742  -13.9979   27.9815 C   0  0  2  0  0  0  0  0  0  0  0  0
    8.9419  -13.0621   27.1490 C   0  0  0  0  0  0  0  0  0  0  0  0
   10.0199  -15.3246   27.2973 C   0  0  2  0  0  0  0  0  0  0  0  0
    8.7955  -15.9539   26.8754 N   0  0  0  0  0  0  0  0  0  0  0  0
   10.8389  -16.2347   28.1255 C   0  0  0  0  0  0  0  0  0  0  0  0
   12.0132  -15.9290   28.4449 O   0  0  0  0  0  0  0  0  0  0  0  0
   10.3446  -17.4465   28.5748 O   0  0  0  0  0  0  0  0  0  0  0  0
  2  1  1  0
  2  3  2  0
  4  3  1  0
  5  4  2  0
  6  7  1  0
  6  5  1  0
  7  9  1  0
  7  8  1  1
  9 10  2  0
  9 13  1  0
 11 12  2  0
 11  5  1  0
 12  2  1  0
 13 14  1  0
 15 14  1  0
 15 21  1  0
 16 15  2  0
 18 17  1  1
 19 18  1  0
 20 21  1  1
 20 22  1  0
 20 18  1  0
 22 23  2  0
 22 24  1  0
M  END
$$$$
