YGV.pdb
     RDKit          3D

 24 24  0  0  1  0  0  0  0  0999 V2000
    8.5591  -13.2626   16.5319 O   0  0  0  0  0  0  0  0  0  0  0  0
    8.0605  -13.6201   17.7830 C   0  0  0  0  0  0  0  0  0  0  0  0
    7.3283  -14.7735   17.9781 C   0  0  0  0  0  0  0  0  0  0  0  0
    6.8400  -15.1159   19.2232 C   0  0  0  0  0  0  0  0  0  0  0  0
    7.0619  -14.3210   20.3274 C   0  0  0  0  0  0  0  0  0  0  0  0
    6.5509  -14.6614   21.6772 C   0  0  0  0  0  0  0  0  0  0  0  0
    7.6200  -15.4682   22.3722 C   0  0  2  0  0  0  0  0  0  0  0  0
    7.8779  -16.6687   21.5998 N   0  0  0  0  0  0  0  0  0  0  0  0
    7.2418  -15.7980   23.7755 C   0  0  0  0  0  0  0  0  0  0  0  0
    7.1613  -14.8844   24.6328 O   0  0  0  0  0  0  0  0  0  0  0  0
    7.7921  -13.1654   20.1470 C   0  0  0  0  0  0  0  0  0  0  0  0
    8.2757  -12.8333   18.8957 C   0  0  0  0  0  0  0  0  0  0  0  0
    6.9619  -17.1246   24.1992 N   0  0  0  0  0  0  0  0  0  0  0  0
    7.4750  -17.6432   25.4199 C   0  0  0  0  0  0  0  0  0  0  0  0
    8.6099  -16.9418   26.0124 C   0  0  0  0  0  0  0  0  0  0  0  0
    9.6216  -16.7832   25.2409 O   0  0  0  0  0  0  0  0  0  0  0  0
    8.7734  -14.4245   29.5504 C   0  0  0  0  0  0  0  0  0  0  0  0
    9.5364  -14.3253   28.2702 C   0  0  2  0  0  0  0  0  0  0  0  0
    8.7486  -13.5080   27.2838 C   0  0  0  0  0  0  0  0  0  0  0  0
    9.8895  -15.6973   27.7399 C   0  0  2  0  0  0  0  0  0  0  0  0
    8.7273  -16.4286   27.3066 N   0  0  0  0  0  0  0  0  0  0  0  0
   10.6912  -16.4780   28.7058 C   0  0  0  0  0  0  0  0  0  0  0  0
   10.2497  -17.5490   29.1882 O   0  0  0  0  0  0  0  0  0  0  0  0
   11.9468  -16.0598   29.1097 O   0  0  0  0  0  0  0  0  0  0  0  0
  2  1  1  0
  2  3  2  0
  4  3  1  0
  5  4  2  0
  6  7  1  0
  6  5  1  0
  7  9  1  0
  7  8  1  6
  9 10  2  0
  9 13  1  0
 11 12  2  0
 11  5  1  0
 12  2  1  0
 13 14  1  0
 15 14  1  0
 15 21  1  0
 16 15  2  0
 18 17  1  1
 19 18  1  0
 20 21  1  1
 20 22  1  0
 20 18  1  0
 22 23  2  0
 22 24  1  0
M  END
$$$$
