YGV.pdb
     RDKit          3D

 24 24  0  0  1  0  0  0  0  0999 V2000
    6.8167  -12.0552   19.9438 O   0  0  0  0  0  0  0  0  0  0  0  0
    7.5124  -13.2602   20.0182 C   0  0  0  0  0  0  0  0  0  0  0  0
    8.5140  -13.4726   20.9435 C   0  0  0  0  0  0  0  0  0  0  0  0
    9.1955  -14.6715   21.0064 C   0  0  0  0  0  0  0  0  0  0  0  0
    8.9060  -15.7104   20.1477 C   0  0  0  0  0  0  0  0  0  0  0  0
    9.6199  -17.0095   20.1903 C   0  0  0  0  0  0  0  0  0  0  0  0
    8.6822  -18.0175   20.8081 C   0  0  2  0  0  0  0  0  0  0  0  0
    7.3802  -17.8926   20.1809 N   0  0  0  0  0  0  0  0  0  0  0  0
    8.5889  -17.8549   22.2866 C   0  0  0  0  0  0  0  0  0  0  0  0
    9.5563  -18.1869   23.0146 O   0  0  0  0  0  0  0  0  0  0  0  0
    7.9075  -15.5121   19.2180 C   0  0  0  0  0  0  0  0  0  0  0  0
    7.2323  -14.3074   19.1648 C   0  0  0  0  0  0  0  0  0  0  0  0
    7.4335  -17.3314   22.9258 N   0  0  0  0  0  0  0  0  0  0  0  0
    7.3749  -17.1544   24.3356 C   0  0  0  0  0  0  0  0  0  0  0  0
    8.0341  -15.9723   24.8826 C   0  0  0  0  0  0  0  0  0  0  0  0
    9.2598  -15.8183   24.5394 O   0  0  0  0  0  0  0  0  0  0  0  0
    6.3741  -12.6994   27.2687 C   0  0  0  0  0  0  0  0  0  0  0  0
    7.4706  -12.6057   26.2588 C   0  0  2  0  0  0  0  0  0  0  0  0
    6.8865  -12.2363   24.9233 C   0  0  0  0  0  0  0  0  0  0  0  0
    8.2748  -13.8860   26.2091 C   0  0  2  0  0  0  0  0  0  0  0  0
    7.4972  -14.9984   25.7284 N   0  0  0  0  0  0  0  0  0  0  0  0
    8.9138  -14.1927   27.5063 C   0  0  0  0  0  0  0  0  0  0  0  0
    8.6064  -15.2290   28.1436 O   0  0  0  0  0  0  0  0  0  0  0  0
    9.8659  -13.3553   28.0604 O   0  0  0  0  0  0  0  0  0  0  0  0
  2  1  1  0
  2  3  2  0
  4  3  1  0
  5  4  2  0
  6  7  1  0
  6  5  1  0
  7  9  1  0
  7  8  1  6
  9 10  2  0
  9 13  1  0
 11 12  2  0
 11  5  1  0
 12  2  1  0
 13 14  1  0
 15 14  1  0
 15 21  1  0
 16 15  2  0
 18 17  1  1
 19 18  1  0
 20 21  1  1
 20 22  1  0
 20 18  1  0
 22 23  2  0
 22 24  1  0
M  END
$$$$
