YGV.pdb
     RDKit          3D

 24 24  0  0  1  0  0  0  0  0999 V2000
    8.1019  -12.6085   17.7729 O   0  0  0  0  0  0  0  0  0  0  0  0
    7.8508  -13.1746   19.0212 C   0  0  0  0  0  0  0  0  0  0  0  0
    8.8667  -13.6219   19.8411 C   0  0  0  0  0  0  0  0  0  0  0  0
    8.6039  -14.1808   21.0757 C   0  0  0  0  0  0  0  0  0  0  0  0
    7.3149  -14.3173   21.5449 C   0  0  0  0  0  0  0  0  0  0  0  0
    7.0005  -14.9133   22.8659 C   0  0  0  0  0  0  0  0  0  0  0  0
    7.1914  -16.4051   22.7427 C   0  0  2  0  0  0  0  0  0  0  0  0
    5.9435  -17.0032   22.3081 N   0  0  0  0  0  0  0  0  0  0  0  0
    7.6667  -17.0107   24.0188 C   0  0  0  0  0  0  0  0  0  0  0  0
    6.9991  -16.8569   25.0709 O   0  0  0  0  0  0  0  0  0  0  0  0
    6.2899  -13.8746   20.7361 C   0  0  0  0  0  0  0  0  0  0  0  0
    6.5655  -13.3167   19.5021 C   0  0  0  0  0  0  0  0  0  0  0  0
    8.8641  -17.7699   24.1043 N   0  0  0  0  0  0  0  0  0  0  0  0
   10.1433  -17.1489   24.1186 C   0  0  0  0  0  0  0  0  0  0  0  0
   10.5817  -16.5643   25.3824 C   0  0  0  0  0  0  0  0  0  0  0  0
   11.8010  -16.1690   25.4114 O   0  0  0  0  0  0  0  0  0  0  0  0
    9.1731  -13.6936   27.1044 C   0  0  0  0  0  0  0  0  0  0  0  0
    9.5379  -14.6159   28.2212 C   0  0  2  0  0  0  0  0  0  0  0  0
   10.1986  -13.8298   29.3198 C   0  0  0  0  0  0  0  0  0  0  0  0
   10.3964  -15.7582   27.7246 C   0  0  2  0  0  0  0  0  0  0  0  0
    9.8415  -16.3865   26.5539 N   0  0  0  0  0  0  0  0  0  0  0  0
   10.6772  -16.7463   28.7875 C   0  0  0  0  0  0  0  0  0  0  0  0
   11.2991  -16.4128   29.8251 O   0  0  0  0  0  0  0  0  0  0  0  0
   10.2681  -18.0635   28.6780 O   0  0  0  0  0  0  0  0  0  0  0  0
  2  1  1  0
  2  3  2  0
  4  3  1  0
  5  4  2  0
  6  7  1  0
  6  5  1  0
  7  9  1  0
  7  8  1  1
  9 10  2  0
  9 13  1  0
 11 12  2  0
 11  5  1  0
 12  2  1  0
 13 14  1  0
 15 14  1  0
 15 21  1  0
 16 15  2  0
 18 17  1  6
 19 18  1  0
 20 21  1  6
 20 22  1  0
 20 18  1  0
 22 23  2  0
 22 24  1  0
M  END
$$$$
