FMF.pdb
     RDKit          3D

 31 32  0  0  1  0  0  0  0  0999 V2000
   29.4188  -21.3484  -14.3821 N   0  0  0  0  0  0  0  0  0  0  0  0
   28.2807  -21.6478  -13.5104 C   0  0  1  0  0  0  0  0  0  0  0  0
   28.3318  -20.7600  -12.2838 C   0  0  0  0  0  0  0  0  0  0  0  0
   29.4775  -21.1963  -11.4559 C   0  0  0  0  0  0  0  0  0  0  0  0
   30.7471  -20.6830  -11.6050 C   0  0  0  0  0  0  0  0  0  0  0  0
   31.7940  -21.1187  -10.8092 C   0  0  0  0  0  0  0  0  0  0  0  0
   31.5623  -22.0904   -9.8432 C   0  0  0  0  0  0  0  0  0  0  0  0
   30.3051  -22.6103   -9.6833 C   0  0  0  0  0  0  0  0  0  0  0  0
   29.2838  -22.1690  -10.4769 C   0  0  0  0  0  0  0  0  0  0  0  0
   27.0308  -21.4607  -14.2774 C   0  0  0  0  0  0  0  0  0  0  0  0
   26.8768  -20.4090  -14.9360 O   0  0  0  0  0  0  0  0  0  0  0  0
   21.7763  -24.9089  -18.7287 C   0  0  0  0  0  0  0  0  0  0  0  0
   23.2387  -24.9431  -17.6405 S   0  0  0  0  0  0  0  0  0  0  0  0
   23.2736  -23.3964  -16.6701 C   0  0  0  0  0  0  0  0  0  0  0  0
   24.5340  -23.3742  -15.8710 C   0  0  0  0  0  0  0  0  0  0  0  0
   24.7343  -22.1589  -15.0106 C   0  0  2  0  0  0  0  0  0  0  0  0
   26.0026  -22.4280  -14.2938 N   0  0  0  0  0  0  0  0  0  0  0  0
   23.7177  -21.9489  -13.9767 C   0  0  0  0  0  0  0  0  0  0  0  0
   23.5890  -22.7804  -13.0045 O   0  0  0  0  0  0  0  0  0  0  0  0
   22.7964  -20.8661  -13.9108 N   0  0  0  0  0  0  0  0  0  0  0  0
   21.8089  -20.7351  -12.8377 C   0  0  1  0  0  0  0  0  0  0  0  0
   22.2079  -19.7038  -11.8488 C   0  0  0  0  0  0  0  0  0  0  0  0
   23.2180  -20.2286  -10.9175 C   0  0  0  0  0  0  0  0  0  0  0  0
   22.8854  -20.7424   -9.6845 C   0  0  0  0  0  0  0  0  0  0  0  0
   23.8365  -21.2426   -8.8122 C   0  0  0  0  0  0  0  0  0  0  0  0
   25.1825  -21.2444   -9.1539 C   0  0  0  0  0  0  0  0  0  0  0  0
   25.5232  -20.7353  -10.3778 C   0  0  0  0  0  0  0  0  0  0  0  0
   24.5795  -20.2416  -11.2379 C   0  0  0  0  0  0  0  0  0  0  0  0
   20.5333  -20.3991  -13.4678 C   0  0  0  0  0  0  0  0  0  0  0  0
   19.3541  -20.6043  -12.7883 O   0  0  0  0  0  0  0  0  0  0  0  0
   20.4841  -19.9270  -14.6246 O   0  0  0  0  0  0  0  0  0  0  0  0
  2  1  1  6
  3  4  1  0
  3  2  1  0
  4  5  2  0
  5  6  1  0
  7  6  2  0
  8  7  1  0
  9  8  2  0
  9  4  1  0
 10  2  1  0
 10 11  2  0
 12 13  1  0
 13 14  1  0
 16 15  1  6
 15 14  1  0
 16 17  1  0
 17 10  1  0
 18 16  1  0
 19 18  2  0
 20 18  1  0
 21 22  1  1
 21 20  1  0
 22 23  1  0
 23 28  1  0
 24 23  2  0
 24 25  1  0
 25 26  2  0
 26 27  1  0
 28 27  2  0
 29 30  1  0
 29 21  1  0
 31 29  2  0
M  END
$$$$
