FMF.pdb
     RDKit          3D

 31 32  0  0  1  0  0  0  0  0999 V2000
   22.9009  -12.9138  -22.0552 N   0  0  0  0  0  0  0  0  0  0  0  0
   24.2100  -12.2574  -22.0674 C   0  0  1  0  0  0  0  0  0  0  0  0
   24.2697  -11.2620  -23.2080 C   0  0  0  0  0  0  0  0  0  0  0  0
   24.4478  -12.0225  -24.4643 C   0  0  0  0  0  0  0  0  0  0  0  0
   23.3909  -12.4399  -25.2429 C   0  0  0  0  0  0  0  0  0  0  0  0
   23.6000  -13.1507  -26.4133 C   0  0  0  0  0  0  0  0  0  0  0  0
   24.8975  -13.4493  -26.8114 C   0  0  0  0  0  0  0  0  0  0  0  0
   25.9587  -13.0409  -26.0475 C   0  0  0  0  0  0  0  0  0  0  0  0
   25.7343  -12.3406  -24.8957 C   0  0  0  0  0  0  0  0  0  0  0  0
   24.4311  -11.6109  -20.7564 C   0  0  0  0  0  0  0  0  0  0  0  0
   23.4423  -11.2045  -20.1078 O   0  0  0  0  0  0  0  0  0  0  0  0
   28.5866  -12.0772  -14.3258 C   0  0  0  0  0  0  0  0  0  0  0  0
   28.0582  -12.6188  -15.9844 S   0  0  0  0  0  0  0  0  0  0  0  0
   27.4771  -11.1572  -16.9122 C   0  0  0  0  0  0  0  0  0  0  0  0
   27.0382  -11.6068  -18.2660 C   0  0  0  0  0  0  0  0  0  0  0  0
   25.8855  -10.8471  -18.8589 C   0  0  2  0  0  0  0  0  0  0  0  0
   25.7204  -11.4353  -20.2086 N   0  0  0  0  0  0  0  0  0  0  0  0
   26.1181   -9.4150  -19.0633 C   0  0  0  0  0  0  0  0  0  0  0  0
   26.9182   -9.0048  -19.9824 O   0  0  0  0  0  0  0  0  0  0  0  0
   25.5271   -8.3530  -18.3228 N   0  0  0  0  0  0  0  0  0  0  0  0
   25.7424   -6.9437  -18.6567 C   0  0  1  0  0  0  0  0  0  0  0  0
   24.8931   -6.5142  -19.7947 C   0  0  0  0  0  0  0  0  0  0  0  0
   23.4668   -6.5756  -19.4410 C   0  0  0  0  0  0  0  0  0  0  0  0
   22.8218   -5.5402  -18.8031 C   0  0  0  0  0  0  0  0  0  0  0  0
   21.4778   -5.5967  -18.4774 C   0  0  0  0  0  0  0  0  0  0  0  0
   20.7185   -6.7176  -18.7867 C   0  0  0  0  0  0  0  0  0  0  0  0
   21.3511   -7.7525  -19.4208 C   0  0  0  0  0  0  0  0  0  0  0  0
   22.6806   -7.6928  -19.7414 C   0  0  0  0  0  0  0  0  0  0  0  0
   25.4469   -6.1682  -17.4531 C   0  0  0  0  0  0  0  0  0  0  0  0
   24.9889   -6.8019  -16.3205 O   0  0  0  0  0  0  0  0  0  0  0  0
   25.5982   -4.9273  -17.4260 O   0  0  0  0  0  0  0  0  0  0  0  0
  2  1  1  1
  3  4  1  0
  3  2  1  0
  4  5  2  0
  5  6  1  0
  7  6  2  0
  8  7  1  0
  9  8  2  0
  9  4  1  0
 10  2  1  0
 10 11  2  0
 12 13  1  0
 13 14  1  0
 16 15  1  6
 15 14  1  0
 16 17  1  0
 17 10  1  0
 18 16  1  0
 19 18  2  0
 20 18  1  0
 21 22  1  6
 21 20  1  0
 22 23  1  0
 23 28  1  0
 24 23  2  0
 24 25  1  0
 25 26  2  0
 26 27  1  0
 28 27  2  0
 29 30  1  0
 29 21  1  0
 31 29  2  0
M  END
$$$$
