FMF.pdb
     RDKit          3D

 31 32  0  0  1  0  0  0  0  0999 V2000
   25.3771   -6.6626  -20.0929 N   0  0  0  0  0  0  0  0  0  0  0  0
   25.3788   -6.5296  -18.6344 C   0  0  1  0  0  0  0  0  0  0  0  0
   25.0994   -5.0898  -18.2545 C   0  0  0  0  0  0  0  0  0  0  0  0
   26.2403   -4.2695  -18.7170 C   0  0  0  0  0  0  0  0  0  0  0  0
   26.0894   -3.1697  -19.5326 C   0  0  0  0  0  0  0  0  0  0  0  0
   27.1841   -2.4273  -19.9442 C   0  0  0  0  0  0  0  0  0  0  0  0
   28.4578   -2.7963  -19.5287 C   0  0  0  0  0  0  0  0  0  0  0  0
   28.6237   -3.8876  -18.7176 C   0  0  0  0  0  0  0  0  0  0  0  0
   27.5327   -4.6086  -18.3210 C   0  0  0  0  0  0  0  0  0  0  0  0
   24.3742   -7.4559  -18.0702 C   0  0  0  0  0  0  0  0  0  0  0  0
   23.3427   -7.7054  -18.7314 O   0  0  0  0  0  0  0  0  0  0  0  0
   27.2795  -12.8429  -15.1762 C   0  0  0  0  0  0  0  0  0  0  0  0
   25.9159  -11.8273  -14.5181 S   0  0  0  0  0  0  0  0  0  0  0  0
   25.2469  -10.8071  -15.8769 C   0  0  0  0  0  0  0  0  0  0  0  0
   24.2533   -9.8540  -15.3005 C   0  0  0  0  0  0  0  0  0  0  0  0
   23.5119   -9.0092  -16.2975 C   0  0  2  0  0  0  0  0  0  0  0  0
   24.5372   -8.0705  -16.8097 N   0  0  0  0  0  0  0  0  0  0  0  0
   22.4401   -8.1795  -15.7413 C   0  0  0  0  0  0  0  0  0  0  0  0
   22.7065   -7.0561  -15.1753 O   0  0  0  0  0  0  0  0  0  0  0  0
   21.0497   -8.4828  -15.7529 N   0  0  0  0  0  0  0  0  0  0  0  0
   20.0489   -7.6194  -15.1229 C   0  0  1  0  0  0  0  0  0  0  0  0
   19.9744   -6.2937  -15.7845 C   0  0  0  0  0  0  0  0  0  0  0  0
   19.4740   -6.4189  -17.1618 C   0  0  0  0  0  0  0  0  0  0  0  0
   20.3055   -6.3435  -18.2563 C   0  0  0  0  0  0  0  0  0  0  0  0
   19.8339   -6.4687  -19.5516 C   0  0  0  0  0  0  0  0  0  0  0  0
   18.4835   -6.6781  -19.7986 C   0  0  0  0  0  0  0  0  0  0  0  0
   17.6488   -6.7543  -18.7167 C   0  0  0  0  0  0  0  0  0  0  0  0
   18.1190   -6.6300  -17.4370 C   0  0  0  0  0  0  0  0  0  0  0  0
   18.7688   -8.3215  -15.1981 C   0  0  0  0  0  0  0  0  0  0  0  0
   17.6461   -7.7705  -14.6236 O   0  0  0  0  0  0  0  0  0  0  0  0
   18.6661   -9.4258  -15.7756 O   0  0  0  0  0  0  0  0  0  0  0  0
  2  1  1  6
  3  4  1  0
  3  2  1  0
  4  5  2  0
  5  6  1  0
  7  6  2  0
  8  7  1  0
  9  8  2  0
  9  4  1  0
 10  2  1  0
 10 11  2  0
 12 13  1  0
 13 14  1  0
 16 15  1  1
 15 14  1  0
 16 17  1  0
 17 10  1  0
 18 16  1  0
 19 18  2  0
 20 18  1  0
 21 22  1  6
 21 20  1  0
 22 23  1  0
 23 28  1  0
 24 23  2  0
 24 25  1  0
 25 26  2  0
 26 27  1  0
 28 27  2  0
 29 30  1  0
 29 21  1  0
 31 29  2  0
M  END
$$$$
