FMF.pdb
     RDKit          3D

 31 32  0  0  1  0  0  0  0  0999 V2000
   27.9602  -21.3301  -16.5990 N   0  0  0  0  0  0  0  0  0  0  0  0
   27.7225  -20.3258  -15.5599 C   0  0  1  0  0  0  0  0  0  0  0  0
   27.1003  -19.0907  -16.1787 C   0  0  0  0  0  0  0  0  0  0  0  0
   28.1555  -18.3827  -16.9360 C   0  0  0  0  0  0  0  0  0  0  0  0
   29.1114  -17.5966  -16.3311 C   0  0  0  0  0  0  0  0  0  0  0  0
   30.0833  -16.9494  -17.0765 C   0  0  0  0  0  0  0  0  0  0  0  0
   30.0966  -17.0940  -18.4586 C   0  0  0  0  0  0  0  0  0  0  0  0
   29.1524  -17.8724  -19.0742 C   0  0  0  0  0  0  0  0  0  0  0  0
   28.2009  -18.5037  -18.3236 C   0  0  0  0  0  0  0  0  0  0  0  0
   26.8591  -20.9163  -14.5151 C   0  0  0  0  0  0  0  0  0  0  0  0
   26.0118  -21.7748  -14.8444 O   0  0  0  0  0  0  0  0  0  0  0  0
   26.0840  -18.9099   -7.5261 C   0  0  0  0  0  0  0  0  0  0  0  0
   26.7393  -20.4905   -8.1556 S   0  0  0  0  0  0  0  0  0  0  0  0
   25.7845  -20.9626   -9.6389 C   0  0  0  0  0  0  0  0  0  0  0  0
   26.6618  -20.7904  -10.8340 C   0  0  0  0  0  0  0  0  0  0  0  0
   26.0291  -21.1230  -12.1556 C   0  0  2  0  0  0  0  0  0  0  0  0
   26.9566  -20.5457  -13.1563 N   0  0  0  0  0  0  0  0  0  0  0  0
   24.7255  -20.5005  -12.4002 C   0  0  0  0  0  0  0  0  0  0  0  0
   24.6417  -19.2589  -12.7239 O   0  0  0  0  0  0  0  0  0  0  0  0
   23.4583  -21.1434  -12.3205 N   0  0  0  0  0  0  0  0  0  0  0  0
   22.2448  -20.5696  -12.9051 C   0  0  1  0  0  0  0  0  0  0  0  0
   22.4303  -20.2408  -14.3399 C   0  0  0  0  0  0  0  0  0  0  0  0
   21.1817  -19.7366  -14.9313 C   0  0  0  0  0  0  0  0  0  0  0  0
   20.2486  -20.5719  -15.5029 C   0  0  0  0  0  0  0  0  0  0  0  0
   19.0707  -20.0964  -16.0526 C   0  0  0  0  0  0  0  0  0  0  0  0
   18.7824  -18.7379  -16.0480 C   0  0  0  0  0  0  0  0  0  0  0  0
   19.7042  -17.8994  -15.4821 C   0  0  0  0  0  0  0  0  0  0  0  0
   20.8681  -18.3735  -14.9392 C   0  0  0  0  0  0  0  0  0  0  0  0
   21.1755  -21.5492  -12.7204 C   0  0  0  0  0  0  0  0  0  0  0  0
   19.9286  -21.1383  -12.3071 O   0  0  0  0  0  0  0  0  0  0  0  0
   21.3671  -22.7674  -12.9274 O   0  0  0  0  0  0  0  0  0  0  0  0
  2  1  1  6
  3  4  1  0
  3  2  1  0
  4  5  2  0
  5  6  1  0
  7  6  2  0
  8  7  1  0
  9  8  2  0
  9  4  1  0
 10  2  1  0
 10 11  2  0
 12 13  1  0
 13 14  1  0
 16 15  1  1
 15 14  1  0
 16 17  1  0
 17 10  1  0
 18 16  1  0
 19 18  2  0
 20 18  1  0
 21 22  1  6
 21 20  1  0
 22 23  1  0
 23 28  1  0
 24 23  2  0
 24 25  1  0
 25 26  2  0
 26 27  1  0
 28 27  2  0
 29 30  1  0
 29 21  1  0
 31 29  2  0
M  END
$$$$
