FMF.pdb
     RDKit          3D

 31 32  0  0  1  0  0  0  0  0999 V2000
   16.3466  -15.3922    6.0540 N   0  0  0  0  0  0  0  0  0  0  0  0
   17.6662  -16.0172    5.9408 C   0  0  1  0  0  0  0  0  0  0  0  0
   18.7419  -14.9536    6.0234 C   0  0  0  0  0  0  0  0  0  0  0  0
   18.7105  -14.1785    4.7637 C   0  0  0  0  0  0  0  0  0  0  0  0
   18.5884  -14.7683    3.5249 C   0  0  0  0  0  0  0  0  0  0  0  0
   18.5632  -14.0066    2.3681 C   0  0  0  0  0  0  0  0  0  0  0  0
   18.6627  -12.6233    2.4560 C   0  0  0  0  0  0  0  0  0  0  0  0
   18.7846  -12.0225    3.6809 C   0  0  0  0  0  0  0  0  0  0  0  0
   18.8078  -12.7891    4.8119 C   0  0  0  0  0  0  0  0  0  0  0  0
   17.8066  -17.0305    7.0081 C   0  0  0  0  0  0  0  0  0  0  0  0
   17.3212  -16.7928    8.1356 O   0  0  0  0  0  0  0  0  0  0  0  0
   18.2403  -23.6643    7.7112 C   0  0  0  0  0  0  0  0  0  0  0  0
   17.0777  -22.6429    6.7474 S   0  0  0  0  0  0  0  0  0  0  0  0
   17.1468  -20.9323    7.3832 C   0  0  0  0  0  0  0  0  0  0  0  0
   18.5787  -20.5176    7.4548 C   0  0  0  0  0  0  0  0  0  0  0  0
   18.8247  -19.1213    7.9521 C   0  0  2  0  0  0  0  0  0  0  0  0
   18.4700  -18.2593    6.8005 N   0  0  0  0  0  0  0  0  0  0  0  0
   20.2181  -18.8100    8.2811 C   0  0  0  0  0  0  0  0  0  0  0  0
   21.0367  -18.4215    7.3689 O   0  0  0  0  0  0  0  0  0  0  0  0
   20.8152  -18.8880    9.5707 N   0  0  0  0  0  0  0  0  0  0  0  0
   22.1792  -18.4272    9.8371 C   0  0  1  0  0  0  0  0  0  0  0  0
   22.3702  -17.0142    9.4271 C   0  0  0  0  0  0  0  0  0  0  0  0
   23.7158  -16.5391    9.7825 C   0  0  0  0  0  0  0  0  0  0  0  0
   23.9267  -15.5827   10.7499 C   0  0  0  0  0  0  0  0  0  0  0  0
   25.1943  -15.1419   11.0882 C   0  0  0  0  0  0  0  0  0  0  0  0
   26.3178  -15.6559   10.4540 C   0  0  0  0  0  0  0  0  0  0  0  0
   26.1183  -16.6071    9.4905 C   0  0  0  0  0  0  0  0  0  0  0  0
   24.8629  -17.0407    9.1588 C   0  0  0  0  0  0  0  0  0  0  0  0
   22.4178  -18.5998   11.2691 C   0  0  0  0  0  0  0  0  0  0  0  0
   23.6315  -19.0732   11.7131 O   0  0  0  0  0  0  0  0  0  0  0  0
   21.5354  -18.3284   12.1124 O   0  0  0  0  0  0  0  0  0  0  0  0
  2  1  1  1
  3  4  1  0
  3  2  1  0
  4  5  2  0
  5  6  1  0
  7  6  2  0
  8  7  1  0
  9  8  2  0
  9  4  1  0
 10  2  1  0
 10 11  2  0
 12 13  1  0
 13 14  1  0
 16 15  1  6
 15 14  1  0
 16 17  1  0
 17 10  1  0
 18 16  1  0
 19 18  2  0
 20 18  1  0
 21 22  1  1
 21 20  1  0
 22 23  1  0
 23 28  1  0
 24 23  2  0
 24 25  1  0
 25 26  2  0
 26 27  1  0
 28 27  2  0
 29 30  1  0
 29 21  1  0
 31 29  2  0
M  END
$$$$
