FMF.pdb
     RDKit          3D

 31 32  0  0  1  0  0  0  0  0999 V2000
   24.9285  -19.5387  -16.7909 N   0  0  0  0  0  0  0  0  0  0  0  0
   23.5459  -19.1755  -16.4727 C   0  0  1  0  0  0  0  0  0  0  0  0
   22.7223  -19.1451  -17.7439 C   0  0  0  0  0  0  0  0  0  0  0  0
   22.0817  -17.8149  -17.8372 C   0  0  0  0  0  0  0  0  0  0  0  0
   22.3802  -16.7787  -16.9801 C   0  0  0  0  0  0  0  0  0  0  0  0
   21.7575  -15.5472  -17.1007 C   0  0  0  0  0  0  0  0  0  0  0  0
   20.8149  -15.3510  -18.1028 C   0  0  0  0  0  0  0  0  0  0  0  0
   20.5077  -16.3720  -18.9627 C   0  0  0  0  0  0  0  0  0  0  0  0
   21.1316  -17.5805  -18.8294 C   0  0  0  0  0  0  0  0  0  0  0  0
   23.0129  -20.1437  -15.4908 C   0  0  0  0  0  0  0  0  0  0  0  0
   23.2573  -21.3600  -15.6465 O   0  0  0  0  0  0  0  0  0  0  0  0
   23.6569  -20.9674   -8.9770 C   0  0  0  0  0  0  0  0  0  0  0  0
   22.0983  -20.1106   -9.3774 S   0  0  0  0  0  0  0  0  0  0  0  0
   21.4147  -20.8383  -10.9065 C   0  0  0  0  0  0  0  0  0  0  0  0
   22.0622  -20.1690  -12.0729 C   0  0  0  0  0  0  0  0  0  0  0  0
   21.7349  -20.7523  -13.4182 C   0  0  2  0  0  0  0  0  0  0  0  0
   22.2365  -19.7444  -14.3813 N   0  0  0  0  0  0  0  0  0  0  0  0
   20.3062  -20.9117  -13.7011 C   0  0  0  0  0  0  0  0  0  0  0  0
   19.5615  -19.8859  -13.9163 O   0  0  0  0  0  0  0  0  0  0  0  0
   19.5955  -22.1427  -13.7736 N   0  0  0  0  0  0  0  0  0  0  0  0
   18.1455  -22.2058  -13.9665 C   0  0  1  0  0  0  0  0  0  0  0  0
   17.7329  -23.4782  -14.6082 C   0  0  0  0  0  0  0  0  0  0  0  0
   16.2695  -23.5569  -14.7308 C   0  0  0  0  0  0  0  0  0  0  0  0
   15.5029  -24.3427  -13.9003 C   0  0  0  0  0  0  0  0  0  0  0  0
   14.1250  -24.4101  -14.0123 C   0  0  0  0  0  0  0  0  0  0  0  0
   13.4545  -23.6762  -14.9822 C   0  0  0  0  0  0  0  0  0  0  0  0
   14.2082  -22.8921  -15.8129 C   0  0  0  0  0  0  0  0  0  0  0  0
   15.5709  -22.8280  -15.6989 C   0  0  0  0  0  0  0  0  0  0  0  0
   17.5309  -22.0538  -12.6488 C   0  0  0  0  0  0  0  0  0  0  0  0
   18.0217  -22.7599  -11.5742 O   0  0  0  0  0  0  0  0  0  0  0  0
   16.5560  -21.2914  -12.4703 O   0  0  0  0  0  0  0  0  0  0  0  0
  2  1  1  6
  3  4  1  0
  3  2  1  0
  4  5  2  0
  5  6  1  0
  7  6  2  0
  8  7  1  0
  9  8  2  0
  9  4  1  0
 10  2  1  0
 10 11  2  0
 12 13  1  0
 13 14  1  0
 16 15  1  1
 15 14  1  0
 16 17  1  0
 17 10  1  0
 18 16  1  0
 19 18  2  0
 20 18  1  0
 21 22  1  1
 21 20  1  0
 22 23  1  0
 23 28  1  0
 24 23  2  0
 24 25  1  0
 25 26  2  0
 26 27  1  0
 28 27  2  0
 29 30  1  0
 29 21  1  0
 31 29  2  0
M  END
$$$$
