FMF.pdb
     RDKit          3D

 31 32  0  0  1  0  0  0  0  0999 V2000
   26.7910  -19.8776  -15.3783 N   0  0  0  0  0  0  0  0  0  0  0  0
   27.3595  -19.5214  -14.0765 C   0  0  1  0  0  0  0  0  0  0  0  0
   26.5048  -18.4551  -13.4224 C   0  0  0  0  0  0  0  0  0  0  0  0
   26.5460  -17.2513  -14.2813 C   0  0  0  0  0  0  0  0  0  0  0  0
   27.7113  -16.5734  -14.5643 C   0  0  0  0  0  0  0  0  0  0  0  0
   27.7075  -15.4491  -15.3735 C   0  0  0  0  0  0  0  0  0  0  0  0
   26.5089  -14.9950  -15.9104 C   0  0  0  0  0  0  0  0  0  0  0  0
   25.3420  -15.6588  -15.6379 C   0  0  0  0  0  0  0  0  0  0  0  0
   25.3639  -16.7662  -14.8376 C   0  0  0  0  0  0  0  0  0  0  0  0
   27.4529  -20.7418  -13.2473 C   0  0  0  0  0  0  0  0  0  0  0  0
   26.6708  -21.6901  -13.4763 O   0  0  0  0  0  0  0  0  0  0  0  0
   32.3161  -22.0661   -9.3695 C   0  0  0  0  0  0  0  0  0  0  0  0
   32.5656  -22.2189  -11.1690 S   0  0  0  0  0  0  0  0  0  0  0  0
   30.9289  -22.3001  -11.9749 C   0  0  0  0  0  0  0  0  0  0  0  0
   29.8812  -22.1721  -10.9197 C   0  0  0  0  0  0  0  0  0  0  0  0
   28.4637  -22.1285  -11.4158 C   0  0  2  0  0  0  0  0  0  0  0  0
   28.3947  -20.8760  -12.2041 N   0  0  0  0  0  0  0  0  0  0  0  0
   27.4391  -22.0129  -10.3750 C   0  0  0  0  0  0  0  0  0  0  0  0
   26.8249  -23.0554   -9.9400 O   0  0  0  0  0  0  0  0  0  0  0  0
   27.0136  -20.8103   -9.7437 N   0  0  0  0  0  0  0  0  0  0  0  0
   26.9607  -20.6600   -8.2882 C   0  0  1  0  0  0  0  0  0  0  0  0
   27.7810  -19.5137   -7.8255 C   0  0  0  0  0  0  0  0  0  0  0  0
   27.7391  -19.3923   -6.3604 C   0  0  0  0  0  0  0  0  0  0  0  0
   28.0778  -18.2280   -5.7087 C   0  0  0  0  0  0  0  0  0  0  0  0
   28.0309  -18.1132   -4.3302 C   0  0  0  0  0  0  0  0  0  0  0  0
   27.6346  -19.1852   -3.5413 C   0  0  0  0  0  0  0  0  0  0  0  0
   27.2962  -20.3473   -4.1802 C   0  0  0  0  0  0  0  0  0  0  0  0
   27.3437  -20.4569   -5.5439 C   0  0  0  0  0  0  0  0  0  0  0  0
   25.5551  -20.4855   -7.9263 C   0  0  0  0  0  0  0  0  0  0  0  0
   25.1257  -20.8035   -6.6579 O   0  0  0  0  0  0  0  0  0  0  0  0
   24.7206  -20.0522   -8.7505 O   0  0  0  0  0  0  0  0  0  0  0  0
  2  1  1  6
  3  4  1  0
  3  2  1  0
  4  5  2  0
  5  6  1  0
  7  6  2  0
  8  7  1  0
  9  8  2  0
  9  4  1  0
 10  2  1  0
 10 11  2  0
 12 13  1  0
 13 14  1  0
 16 15  1  1
 15 14  1  0
 16 17  1  0
 17 10  1  0
 18 16  1  0
 19 18  2  0
 20 18  1  0
 21 22  1  6
 21 20  1  0
 22 23  1  0
 23 28  1  0
 24 23  2  0
 24 25  1  0
 25 26  2  0
 26 27  1  0
 28 27  2  0
 29 30  1  0
 29 21  1  0
 31 29  2  0
M  END
$$$$
