FMF.pdb
     RDKit          3D

 31 32  0  0  1  0  0  0  0  0999 V2000
   28.7758  -20.6705  -17.8121 N   0  0  0  0  0  0  0  0  0  0  0  0
   27.6361  -21.3606  -17.2041 C   0  0  1  0  0  0  0  0  0  0  0  0
   28.0493  -21.9474  -15.8699 C   0  0  0  0  0  0  0  0  0  0  0  0
   28.7192  -23.2402  -16.1312 C   0  0  0  0  0  0  0  0  0  0  0  0
   30.0825  -23.4104  -16.0312 C   0  0  0  0  0  0  0  0  0  0  0  0
   30.6717  -24.6382  -16.2847 C   0  0  0  0  0  0  0  0  0  0  0  0
   29.8761  -25.7186  -16.6464 C   0  0  0  0  0  0  0  0  0  0  0  0
   28.5189  -25.5647  -16.7499 C   0  0  0  0  0  0  0  0  0  0  0  0
   27.9543  -24.3464  -16.4963 C   0  0  0  0  0  0  0  0  0  0  0  0
   26.5181  -20.4033  -17.0655 C   0  0  0  0  0  0  0  0  0  0  0  0
   26.7748  -19.2056  -16.8144 O   0  0  0  0  0  0  0  0  0  0  0  0
   19.9515  -17.7553  -19.8890 C   0  0  0  0  0  0  0  0  0  0  0  0
   21.2764  -19.0053  -19.8107 S   0  0  0  0  0  0  0  0  0  0  0  0
   22.1240  -18.8495  -18.2007 C   0  0  0  0  0  0  0  0  0  0  0  0
   23.3299  -19.7287  -18.2201 C   0  0  0  0  0  0  0  0  0  0  0  0
   24.0789  -19.8299  -16.9216 C   0  0  2  0  0  0  0  0  0  0  0  0
   25.1684  -20.7926  -17.2065 N   0  0  0  0  0  0  0  0  0  0  0  0
   23.3191  -20.3926  -15.8024 C   0  0  0  0  0  0  0  0  0  0  0  0
   23.0922  -21.6563  -15.7329 O   0  0  0  0  0  0  0  0  0  0  0  0
   22.7671  -19.6654  -14.7107 N   0  0  0  0  0  0  0  0  0  0  0  0
   22.0943  -20.3199  -13.5870 C   0  0  1  0  0  0  0  0  0  0  0  0
   22.6313  -19.8593  -12.2830 C   0  0  0  0  0  0  0  0  0  0  0  0
   24.0433  -20.2410  -12.1296 C   0  0  0  0  0  0  0  0  0  0  0  0
   25.0750  -19.4076  -12.4985 C   0  0  0  0  0  0  0  0  0  0  0  0
   26.4034  -19.7654  -12.3468 C   0  0  0  0  0  0  0  0  0  0  0  0
   26.7499  -20.9979  -11.8086 C   0  0  0  0  0  0  0  0  0  0  0  0
   25.7310  -21.8336  -11.4390 C   0  0  0  0  0  0  0  0  0  0  0  0
   24.4183  -21.4760  -11.5905 C   0  0  0  0  0  0  0  0  0  0  0  0
   20.6684  -20.0204  -13.7080 C   0  0  0  0  0  0  0  0  0  0  0  0
   19.7509  -20.7247  -12.9622 O   0  0  0  0  0  0  0  0  0  0  0  0
   20.2545  -19.1316  -14.4839 O   0  0  0  0  0  0  0  0  0  0  0  0
  2  1  1  1
  3  4  1  0
  3  2  1  0
  4  5  2  0
  5  6  1  0
  7  6  2  0
  8  7  1  0
  9  8  2  0
  9  4  1  0
 10  2  1  0
 10 11  2  0
 12 13  1  0
 13 14  1  0
 16 15  1  6
 15 14  1  0
 16 17  1  0
 17 10  1  0
 18 16  1  0
 19 18  2  0
 20 18  1  0
 21 22  1  1
 21 20  1  0
 22 23  1  0
 23 28  1  0
 24 23  2  0
 24 25  1  0
 25 26  2  0
 26 27  1  0
 28 27  2  0
 29 30  1  0
 29 21  1  0
 31 29  2  0
M  END
$$$$
