FMF.pdb
     RDKit          3D

 31 32  0  0  1  0  0  0  0  0999 V2000
   23.5165   -5.9389  -21.9045 N   0  0  0  0  0  0  0  0  0  0  0  0
   22.3603   -6.4820  -21.1881 C   0  0  1  0  0  0  0  0  0  0  0  0
   22.3218   -7.9877  -21.3515 C   0  0  0  0  0  0  0  0  0  0  0  0
   21.8817   -8.2826  -22.7327 C   0  0  0  0  0  0  0  0  0  0  0  0
   20.5887   -8.0845  -23.1647 C   0  0  0  0  0  0  0  0  0  0  0  0
   20.2163   -8.3736  -24.4673 C   0  0  0  0  0  0  0  0  0  0  0  0
   21.1613   -8.8722  -25.3557 C   0  0  0  0  0  0  0  0  0  0  0  0
   22.4510   -9.0744  -24.9407 C   0  0  0  0  0  0  0  0  0  0  0  0
   22.8012   -8.7839  -23.6522 C   0  0  0  0  0  0  0  0  0  0  0  0
   22.4486   -6.0815  -19.7678 C   0  0  0  0  0  0  0  0  0  0  0  0
   23.5688   -6.0644  -19.2125 O   0  0  0  0  0  0  0  0  0  0  0  0
   21.3715    0.2157  -17.6951 C   0  0  0  0  0  0  0  0  0  0  0  0
   20.3784   -1.3077  -17.5649 S   0  0  0  0  0  0  0  0  0  0  0  0
   21.5049   -2.7420  -17.6584 C   0  0  0  0  0  0  0  0  0  0  0  0
   20.6881   -3.9861  -17.5456 C   0  0  0  0  0  0  0  0  0  0  0  0
   21.4584   -5.2747  -17.6073 C   0  0  2  0  0  0  0  0  0  0  0  0
   21.3121   -5.7167  -19.0138 N   0  0  0  0  0  0  0  0  0  0  0  0
   20.9279   -6.3617  -16.7805 C   0  0  0  0  0  0  0  0  0  0  0  0
   19.7363   -6.8070  -16.9676 O   0  0  0  0  0  0  0  0  0  0  0  0
   21.6149   -7.0302  -15.7285 N   0  0  0  0  0  0  0  0  0  0  0  0
   21.0143   -8.1266  -14.9662 C   0  0  1  0  0  0  0  0  0  0  0  0
   21.4122   -9.4506  -15.5044 C   0  0  0  0  0  0  0  0  0  0  0  0
   22.8750   -9.6036  -15.5004 C   0  0  0  0  0  0  0  0  0  0  0  0
   23.5353  -10.3374  -14.5410 C   0  0  0  0  0  0  0  0  0  0  0  0
   24.9113  -10.4864  -14.5429 C   0  0  0  0  0  0  0  0  0  0  0  0
   25.6888   -9.8915  -15.5279 C   0  0  0  0  0  0  0  0  0  0  0  0
   25.0413   -9.1595  -16.4861 C   0  0  0  0  0  0  0  0  0  0  0  0
   23.6800   -9.0146  -16.4809 C   0  0  0  0  0  0  0  0  0  0  0  0
   21.4435   -7.9686  -13.5777 C   0  0  0  0  0  0  0  0  0  0  0  0
   20.8560   -8.7198  -12.5853 O   0  0  0  0  0  0  0  0  0  0  0  0
   22.3400   -7.1558  -13.2629 O   0  0  0  0  0  0  0  0  0  0  0  0
  2  1  1  6
  3  4  1  0
  3  2  1  0
  4  5  2  0
  5  6  1  0
  7  6  2  0
  8  7  1  0
  9  8  2  0
  9  4  1  0
 10  2  1  0
 10 11  2  0
 12 13  1  0
 13 14  1  0
 16 15  1  6
 15 14  1  0
 16 17  1  0
 17 10  1  0
 18 16  1  0
 19 18  2  0
 20 18  1  0
 21 22  1  6
 21 20  1  0
 22 23  1  0
 23 28  1  0
 24 23  2  0
 24 25  1  0
 25 26  2  0
 26 27  1  0
 28 27  2  0
 29 30  1  0
 29 21  1  0
 31 29  2  0
M  END
$$$$
