FMF.pdb
     RDKit          3D

 31 32  0  0  1  0  0  0  0  0999 V2000
   25.2259  -22.0320  -18.2897 N   0  0  0  0  0  0  0  0  0  0  0  0
   24.8906  -20.7761  -17.6150 C   0  0  1  0  0  0  0  0  0  0  0  0
   23.7551  -20.0918  -18.3484 C   0  0  0  0  0  0  0  0  0  0  0  0
   24.3404  -19.3021  -19.4540 C   0  0  0  0  0  0  0  0  0  0  0  0
   25.0793  -18.1581  -19.2470 C   0  0  0  0  0  0  0  0  0  0  0  0
   25.6106  -17.4462  -20.3101 C   0  0  0  0  0  0  0  0  0  0  0  0
   25.3960  -17.8917  -21.6088 C   0  0  0  0  0  0  0  0  0  0  0  0
   24.6632  -19.0277  -21.8303 C   0  0  0  0  0  0  0  0  0  0  0  0
   24.1464  -19.7177  -20.7699 C   0  0  0  0  0  0  0  0  0  0  0  0
   24.5439  -21.0688  -16.2080 C   0  0  0  0  0  0  0  0  0  0  0  0
   23.7445  -21.9985  -15.9627 O   0  0  0  0  0  0  0  0  0  0  0  0
   25.1691  -21.6129   -9.0125 C   0  0  0  0  0  0  0  0  0  0  0  0
   25.5826  -21.6161  -10.7881 S   0  0  0  0  0  0  0  0  0  0  0  0
   25.4080  -19.9137  -11.4256 C   0  0  0  0  0  0  0  0  0  0  0  0
   25.6905  -19.9319  -12.8910 C   0  0  0  0  0  0  0  0  0  0  0  0
   24.6712  -20.6390  -13.7386 C   0  0  2  0  0  0  0  0  0  0  0  0
   25.0836  -20.3358  -15.1289 N   0  0  0  0  0  0  0  0  0  0  0  0
   23.2968  -20.1494  -13.6045 C   0  0  0  0  0  0  0  0  0  0  0  0
   22.9879  -18.9543  -13.9644 O   0  0  0  0  0  0  0  0  0  0  0  0
   22.1891  -20.8825  -13.0934 N   0  0  0  0  0  0  0  0  0  0  0  0
   20.8508  -20.3023  -12.9662 C   0  0  1  0  0  0  0  0  0  0  0  0
   20.3525  -19.7842  -14.2639 C   0  0  0  0  0  0  0  0  0  0  0  0
   20.0511  -20.8855  -15.1909 C   0  0  0  0  0  0  0  0  0  0  0  0
   18.8125  -21.4837  -15.2446 C   0  0  0  0  0  0  0  0  0  0  0  0
   18.5283  -22.5153  -16.1226 C   0  0  0  0  0  0  0  0  0  0  0  0
   19.4975  -22.9924  -16.9952 C   0  0  0  0  0  0  0  0  0  0  0  0
   20.7323  -22.4041  -16.9492 C   0  0  0  0  0  0  0  0  0  0  0  0
   21.0095  -21.3839  -16.0794 C   0  0  0  0  0  0  0  0  0  0  0  0
   19.9767  -21.3515  -12.4442 C   0  0  0  0  0  0  0  0  0  0  0  0
   20.4710  -22.6188  -12.2346 O   0  0  0  0  0  0  0  0  0  0  0  0
   18.7750  -21.1260  -12.1826 O   0  0  0  0  0  0  0  0  0  0  0  0
  2  1  1  6
  3  4  1  0
  3  2  1  0
  4  5  2  0
  5  6  1  0
  7  6  2  0
  8  7  1  0
  9  8  2  0
  9  4  1  0
 10  2  1  0
 10 11  2  0
 12 13  1  0
 13 14  1  0
 16 15  1  1
 15 14  1  0
 16 17  1  0
 17 10  1  0
 18 16  1  0
 19 18  2  0
 20 18  1  0
 21 22  1  6
 21 20  1  0
 22 23  1  0
 23 28  1  0
 24 23  2  0
 24 25  1  0
 25 26  2  0
 26 27  1  0
 28 27  2  0
 29 30  1  0
 29 21  1  0
 31 29  2  0
M  END
$$$$
