ETM.pdb
     RDKit          3D

 25 24  0  0  1  0  0  0  0  0999 V2000
   11.0632  -19.0471   19.5811 N   0  0  0  0  0  0  0  0  0  0  0  0
   11.8651  -17.8448   19.8163 C   0  0  1  0  0  0  0  0  0  0  0  0
   12.4161  -17.4428   18.4413 C   0  0  0  0  0  0  0  0  0  0  0  0
   13.0243  -18.6623   17.8057 C   0  0  0  0  0  0  0  0  0  0  0  0
   14.2496  -18.3843   17.0324 C   0  0  0  0  0  0  0  0  0  0  0  0
   14.9771  -17.3885   17.2121 O   0  0  0  0  0  0  0  0  0  0  0  0
   10.9641  -16.7944   20.3336 C   0  0  0  0  0  0  0  0  0  0  0  0
   11.2124  -15.5945   20.1126 O   0  0  0  0  0  0  0  0  0  0  0  0
   14.6269  -19.2928   16.0307 O   0  0  0  0  0  0  0  0  0  0  0  0
    7.2930  -16.9638   19.6717 C   0  0  0  0  0  0  0  0  0  0  0  0
    7.4604  -16.7246   21.1357 C   0  0  1  0  0  0  0  0  0  0  0  0
    7.4050  -17.9982   21.7496 O   0  0  0  0  0  0  0  0  0  0  0  0
    8.8243  -16.1559   21.5076 C   0  0  2  0  0  0  0  0  0  0  0  0
    9.8111  -17.1678   21.0849 N   0  0  0  0  0  0  0  0  0  0  0  0
    8.9925  -15.9309   22.9502 C   0  0  0  0  0  0  0  0  0  0  0  0
    9.9561  -16.4858   23.5919 O   0  0  0  0  0  0  0  0  0  0  0  0
    5.5204  -11.6915   26.8497 C   0  0  0  0  0  0  0  0  0  0  0  0
    7.2233  -11.7594   27.4697 S   0  0  0  0  0  0  0  0  0  0  0  0
    7.9626  -13.3981   27.1211 C   0  0  0  0  0  0  0  0  0  0  0  0
    7.8015  -13.6233   25.6437 C   0  0  0  0  0  0  0  0  0  0  0  0
    8.3887  -14.9166   25.1658 C   0  0  2  0  0  0  0  0  0  0  0  0
    8.1479  -15.1153   23.7429 N   0  0  0  0  0  0  0  0  0  0  0  0
    7.7489  -16.0554   25.8441 C   0  0  0  0  0  0  0  0  0  0  0  0
    6.7214  -16.5980   25.3801 O   0  0  0  0  0  0  0  0  0  0  0  0
    8.2425  -16.5872   27.0231 O   0  0  0  0  0  0  0  0  0  0  0  0
  2  1  1  6
  2  3  1  0
  4  5  1  0
  4  3  1  0
  5  6  2  0
  7  8  2  0
  7  2  1  0
  9  5  1  0
 11 10  1  6
 11 13  1  0
 12 11  1  0
 13 14  1  1
 14  7  1  0
 15 13  1  0
 15 22  1  0
 16 15  2  0
 18 17  1  0
 19 18  1  0
 19 20  1  0
 21 20  1  1
 21 22  1  0
 21 23  1  0
 23 25  1  0
 24 23  2  0
M  END
$$$$
