ETM.pdb
     RDKit          3D

 25 24  0  0  1  0  0  0  0  0999 V2000
   10.6622  -16.7682   18.0024 N   0  0  0  0  0  0  0  0  0  0  0  0
   11.2323  -16.4840   19.3208 C   0  0  1  0  0  0  0  0  0  0  0  0
   12.0346  -15.1867   19.1507 C   0  0  0  0  0  0  0  0  0  0  0  0
   13.4257  -15.5506   18.7107 C   0  0  0  0  0  0  0  0  0  0  0  0
   14.2799  -14.3864   18.4081 C   0  0  0  0  0  0  0  0  0  0  0  0
   15.5113  -14.3566   18.5974 O   0  0  0  0  0  0  0  0  0  0  0  0
   10.1128  -16.2738   20.2617 C   0  0  0  0  0  0  0  0  0  0  0  0
    9.0962  -15.6558   19.8942 O   0  0  0  0  0  0  0  0  0  0  0  0
   13.6764  -13.2372   17.8730 O   0  0  0  0  0  0  0  0  0  0  0  0
    7.9370  -18.6016   21.2320 C   0  0  0  0  0  0  0  0  0  0  0  0
    8.4849  -18.1435   22.5429 C   0  0  1  0  0  0  0  0  0  0  0  0
    9.5889  -18.9836   22.8213 O   0  0  0  0  0  0  0  0  0  0  0  0
    9.0524  -16.7298   22.5050 C   0  0  2  0  0  0  0  0  0  0  0  0
   10.2081  -16.7845   21.5896 N   0  0  0  0  0  0  0  0  0  0  0  0
    9.5287  -16.2536   23.8113 C   0  0  0  0  0  0  0  0  0  0  0  0
   10.7757  -16.3041   24.1121 O   0  0  0  0  0  0  0  0  0  0  0  0
    6.3914  -10.7240   26.3201 C   0  0  0  0  0  0  0  0  0  0  0  0
    6.5712  -12.4444   26.8648 S   0  0  0  0  0  0  0  0  0  0  0  0
    8.1978  -13.1086   26.3489 C   0  0  0  0  0  0  0  0  0  0  0  0
    8.2734  -14.5044   26.9017 C   0  0  0  0  0  0  0  0  0  0  0  0
    9.2129  -15.3979   26.1501 C   0  0  2  0  0  0  0  0  0  0  0  0
    8.6984  -15.7142   24.8245 N   0  0  0  0  0  0  0  0  0  0  0  0
    9.3612  -16.6887   26.8416 C   0  0  0  0  0  0  0  0  0  0  0  0
    8.8551  -17.7369   26.3827 O   0  0  0  0  0  0  0  0  0  0  0  0
   10.0630  -16.8165   28.0281 O   0  0  0  0  0  0  0  0  0  0  0  0
  2  1  1  6
  2  3  1  0
  4  5  1  0
  4  3  1  0
  5  6  2  0
  7  8  2  0
  7  2  1  0
  9  5  1  0
 11 10  1  6
 11 13  1  0
 12 11  1  0
 13 14  1  6
 14  7  1  0
 15 13  1  0
 15 22  1  0
 16 15  2  0
 18 17  1  0
 19 18  1  0
 19 20  1  0
 21 20  1  1
 21 22  1  0
 21 23  1  0
 23 25  1  0
 24 23  2  0
M  END
$$$$
