ETM.pdb
     RDKit          3D

 25 24  0  0  1  0  0  0  0  0999 V2000
   11.3039  -18.4712   17.9732 N   0  0  0  0  0  0  0  0  0  0  0  0
   11.1962  -18.4354   19.4329 C   0  0  1  0  0  0  0  0  0  0  0  0
   12.5618  -17.9457   19.9338 C   0  0  0  0  0  0  0  0  0  0  0  0
   13.6044  -18.9363   19.4947 C   0  0  0  0  0  0  0  0  0  0  0  0
   14.9838  -18.5452   19.8429 C   0  0  0  0  0  0  0  0  0  0  0  0
   15.8086  -19.3057   20.3857 O   0  0  0  0  0  0  0  0  0  0  0  0
   10.1427  -17.4612   19.7848 C   0  0  0  0  0  0  0  0  0  0  0  0
    9.9769  -16.4422   19.0886 O   0  0  0  0  0  0  0  0  0  0  0  0
   15.4012  -17.2377   19.5476 O   0  0  0  0  0  0  0  0  0  0  0  0
    6.6034  -18.1343   19.9728 C   0  0  0  0  0  0  0  0  0  0  0  0
    6.9621  -17.5678   21.3066 C   0  0  1  0  0  0  0  0  0  0  0  0
    7.2257  -18.6766   22.1451 O   0  0  0  0  0  0  0  0  0  0  0  0
    8.2503  -16.7541   21.2959 C   0  0  2  0  0  0  0  0  0  0  0  0
    9.3205  -17.6994   20.9251 N   0  0  0  0  0  0  0  0  0  0  0  0
    8.5885  -16.1738   22.6032 C   0  0  0  0  0  0  0  0  0  0  0  0
    9.6565  -16.5285   23.2209 O   0  0  0  0  0  0  0  0  0  0  0  0
    6.6946  -10.9815   28.3530 C   0  0  0  0  0  0  0  0  0  0  0  0
    6.4068  -11.7082   26.7166 S   0  0  0  0  0  0  0  0  0  0  0  0
    7.5529  -13.1076   26.4312 C   0  0  0  0  0  0  0  0  0  0  0  0
    7.3030  -13.5717   25.0235 C   0  0  0  0  0  0  0  0  0  0  0  0
    8.1687  -14.7222   24.6079 C   0  0  2  0  0  0  0  0  0  0  0  0
    7.8067  -15.2075   23.2830 N   0  0  0  0  0  0  0  0  0  0  0  0
    7.9820  -15.8635   25.5184 C   0  0  0  0  0  0  0  0  0  0  0  0
    7.0251  -16.6578   25.3814 O   0  0  0  0  0  0  0  0  0  0  0  0
    8.8464  -16.1218   26.5685 O   0  0  0  0  0  0  0  0  0  0  0  0
  2  1  1  6
  2  3  1  0
  4  5  1  0
  4  3  1  0
  5  6  2  0
  7  8  2  0
  7  2  1  0
  9  5  1  0
 11 10  1  6
 11 13  1  0
 12 11  1  0
 13 14  1  1
 14  7  1  0
 15 13  1  0
 15 22  1  0
 16 15  2  0
 18 17  1  0
 19 18  1  0
 19 20  1  0
 21 20  1  1
 21 22  1  0
 21 23  1  0
 23 25  1  0
 24 23  2  0
M  END
$$$$
