ETM.pdb
     RDKit          3D

 25 24  0  0  1  0  0  0  0  0999 V2000
    6.1172  -20.2055   21.1727 N   0  0  0  0  0  0  0  0  0  0  0  0
    6.6153  -19.5457   22.3811 C   0  0  1  0  0  0  0  0  0  0  0  0
    7.1949  -20.6680   23.2529 C   0  0  0  0  0  0  0  0  0  0  0  0
    6.0704  -21.2720   24.0477 C   0  0  0  0  0  0  0  0  0  0  0  0
    6.4825  -21.7914   25.3657 C   0  0  0  0  0  0  0  0  0  0  0  0
    5.8196  -22.6104   26.0312 O   0  0  0  0  0  0  0  0  0  0  0  0
    7.6832  -18.6083   21.9769 C   0  0  0  0  0  0  0  0  0  0  0  0
    8.6990  -19.0326   21.3950 O   0  0  0  0  0  0  0  0  0  0  0  0
    7.6953  -21.3407   25.9109 O   0  0  0  0  0  0  0  0  0  0  0  0
    8.0759  -16.4049   19.4980 C   0  0  0  0  0  0  0  0  0  0  0  0
    8.1944  -15.5259   20.6987 C   0  0  1  0  0  0  0  0  0  0  0  0
    6.8877  -15.0564   20.9711 O   0  0  0  0  0  0  0  0  0  0  0  0
    8.6272  -16.2688   21.9568 C   0  0  2  0  0  0  0  0  0  0  0  0
    7.5387  -17.2179   22.2582 N   0  0  0  0  0  0  0  0  0  0  0  0
    8.8036  -15.3930   23.1238 C   0  0  0  0  0  0  0  0  0  0  0  0
    8.7291  -14.1172   23.0027 O   0  0  0  0  0  0  0  0  0  0  0  0
    7.4354  -10.6361   25.2399 C   0  0  0  0  0  0  0  0  0  0  0  0
    6.6521  -11.8156   26.3731 S   0  0  0  0  0  0  0  0  0  0  0  0
    7.8240  -13.1533   26.8094 C   0  0  0  0  0  0  0  0  0  0  0  0
    7.8706  -14.0719   25.6204 C   0  0  0  0  0  0  0  0  0  0  0  0
    9.0967  -14.9323   25.5741 C   0  0  2  0  0  0  0  0  0  0  0  0
    9.0609  -15.8470   24.4409 N   0  0  0  0  0  0  0  0  0  0  0  0
    9.1763  -15.7820   26.7734 C   0  0  0  0  0  0  0  0  0  0  0  0
    9.2459  -15.2870   27.9203 O   0  0  0  0  0  0  0  0  0  0  0  0
    9.1782  -17.1645   26.7022 O   0  0  0  0  0  0  0  0  0  0  0  0
  2  1  1  6
  2  3  1  0
  4  5  1  0
  4  3  1  0
  5  6  2  0
  7  8  2  0
  7  2  1  0
  9  5  1  0
 11 10  1  6
 11 13  1  0
 12 11  1  0
 13 14  1  1
 14  7  1  0
 15 13  1  0
 15 22  1  0
 16 15  2  0
 18 17  1  0
 19 18  1  0
 19 20  1  0
 21 20  1  1
 21 22  1  0
 21 23  1  0
 23 25  1  0
 24 23  2  0
M  END
$$$$
