ETM.pdb
     RDKit          3D

 25 24  0  0  1  0  0  0  0  0999 V2000
   11.0287  -15.0646   17.1654 N   0  0  0  0  0  0  0  0  0  0  0  0
   10.8811  -16.0346   18.2523 C   0  0  1  0  0  0  0  0  0  0  0  0
   12.2123  -16.0023   19.0155 C   0  0  0  0  0  0  0  0  0  0  0  0
   12.9903  -14.8028   18.5496 C   0  0  0  0  0  0  0  0  0  0  0  0
   14.3142  -14.6659   19.1863 C   0  0  0  0  0  0  0  0  0  0  0  0
   14.7743  -13.5898   19.6147 O   0  0  0  0  0  0  0  0  0  0  0  0
    9.7805  -15.5736   19.1233 C   0  0  0  0  0  0  0  0  0  0  0  0
    8.7878  -15.0077   18.6285 O   0  0  0  0  0  0  0  0  0  0  0  0
   15.1111  -15.8137   19.3223 O   0  0  0  0  0  0  0  0  0  0  0  0
    7.7830  -17.1551   19.4470 C   0  0  0  0  0  0  0  0  0  0  0  0
    7.8322  -16.9791   20.9286 C   0  0  1  0  0  0  0  0  0  0  0  0
    8.5187  -18.1081   21.4347 O   0  0  0  0  0  0  0  0  0  0  0  0
    8.6537  -15.7746   21.3716 C   0  0  2  0  0  0  0  0  0  0  0  0
    9.8661  -15.7833   20.5311 N   0  0  0  0  0  0  0  0  0  0  0  0
    9.0746  -15.8370   22.7784 C   0  0  0  0  0  0  0  0  0  0  0  0
   10.2559  -16.2299   23.0919 O   0  0  0  0  0  0  0  0  0  0  0  0
    6.1574  -11.4701   25.9663 C   0  0  0  0  0  0  0  0  0  0  0  0
    7.0339  -12.0478   27.4451 S   0  0  0  0  0  0  0  0  0  0  0  0
    8.2632  -13.3288   26.9966 C   0  0  0  0  0  0  0  0  0  0  0  0
    7.8366  -13.8670   25.6595 C   0  0  0  0  0  0  0  0  0  0  0  0
    8.8062  -14.8452   25.0689 C   0  0  2  0  0  0  0  0  0  0  0  0
    8.2575  -15.4851   23.8808 N   0  0  0  0  0  0  0  0  0  0  0  0
    9.0839  -15.9342   26.0194 C   0  0  0  0  0  0  0  0  0  0  0  0
    9.6799  -15.7221   27.0988 O   0  0  0  0  0  0  0  0  0  0  0  0
    8.7048  -17.2433   25.7764 O   0  0  0  0  0  0  0  0  0  0  0  0
  2  1  1  6
  2  3  1  0
  4  5  1  0
  4  3  1  0
  5  6  2  0
  7  8  2  0
  7  2  1  0
  9  5  1  0
 11 10  1  6
 11 13  1  0
 12 11  1  0
 13 14  1  6
 14  7  1  0
 15 13  1  0
 15 22  1  0
 16 15  2  0
 18 17  1  0
 19 18  1  0
 19 20  1  0
 21 20  1  1
 21 22  1  0
 21 23  1  0
 23 25  1  0
 24 23  2  0
M  END
$$$$
