ETM.pdb
     RDKit          3D

 25 24  0  0  1  0  0  0  0  0999 V2000
    9.3156  -19.3015   19.7958 N   0  0  0  0  0  0  0  0  0  0  0  0
   10.1205  -19.0195   20.9859 C   0  0  1  0  0  0  0  0  0  0  0  0
   11.4195  -18.3903   20.4638 C   0  0  0  0  0  0  0  0  0  0  0  0
   11.1306  -16.9634   20.0877 C   0  0  0  0  0  0  0  0  0  0  0  0
   12.3250  -16.2004   19.6779 C   0  0  0  0  0  0  0  0  0  0  0  0
   12.6117  -15.0676   20.1111 O   0  0  0  0  0  0  0  0  0  0  0  0
    9.3778  -18.0473   21.8141 C   0  0  0  0  0  0  0  0  0  0  0  0
    8.2309  -17.6930   21.4833 O   0  0  0  0  0  0  0  0  0  0  0  0
   13.1982  -16.7792   18.7431 O   0  0  0  0  0  0  0  0  0  0  0  0
    7.3843  -18.4860   23.3539 C   0  0  0  0  0  0  0  0  0  0  0  0
    8.1402  -17.8578   24.4775 C   0  0  1  0  0  0  0  0  0  0  0  0
    8.8812  -18.9004   25.0824 O   0  0  0  0  0  0  0  0  0  0  0  0
    9.1764  -16.8388   24.0195 C   0  0  2  0  0  0  0  0  0  0  0  0
    9.9855  -17.5216   22.9921 N   0  0  0  0  0  0  0  0  0  0  0  0
   10.0799  -16.3983   25.0917 C   0  0  0  0  0  0  0  0  0  0  0  0
   11.2526  -15.9531   24.8187 O   0  0  0  0  0  0  0  0  0  0  0  0
    7.3790  -11.4633   25.6528 C   0  0  0  0  0  0  0  0  0  0  0  0
    7.1439  -12.1265   27.3243 S   0  0  0  0  0  0  0  0  0  0  0  0
    8.6228  -13.0708   27.8481 C   0  0  0  0  0  0  0  0  0  0  0  0
    8.6385  -14.3200   27.0123 C   0  0  0  0  0  0  0  0  0  0  0  0
    9.8105  -15.2123   27.2879 C   0  0  2  0  0  0  0  0  0  0  0  0
    9.7628  -16.4184   26.4723 N   0  0  0  0  0  0  0  0  0  0  0  0
    9.7912  -15.6721   28.6860 C   0  0  0  0  0  0  0  0  0  0  0  0
   10.2547  -14.9685   29.6108 O   0  0  0  0  0  0  0  0  0  0  0  0
    9.2636  -16.8977   29.0549 O   0  0  0  0  0  0  0  0  0  0  0  0
  2  1  1  6
  2  3  1  0
  4  5  1  0
  4  3  1  0
  5  6  2  0
  7  8  2  0
  7  2  1  0
  9  5  1  0
 11 10  1  6
 11 13  1  0
 12 11  1  0
 13 14  1  6
 14  7  1  0
 15 13  1  0
 15 22  1  0
 16 15  2  0
 18 17  1  0
 19 18  1  0
 19 20  1  0
 21 20  1  6
 21 22  1  0
 21 23  1  0
 23 25  1  0
 24 23  2  0
M  END
$$$$
