ETM.pdb
     RDKit          3D

 25 24  0  0  1  0  0  0  0  0999 V2000
    7.1427  -20.9163   21.8345 N   0  0  0  0  0  0  0  0  0  0  0  0
    7.1048  -19.9265   22.9128 C   0  0  1  0  0  0  0  0  0  0  0  0
    7.8021  -20.5928   24.1068 C   0  0  0  0  0  0  0  0  0  0  0  0
    7.7045  -19.6631   25.2846 C   0  0  0  0  0  0  0  0  0  0  0  0
    8.3151  -20.1955   26.5177 C   0  0  0  0  0  0  0  0  0  0  0  0
    8.8035  -21.3377   26.6174 O   0  0  0  0  0  0  0  0  0  0  0  0
    7.8703  -18.7438   22.4680 C   0  0  0  0  0  0  0  0  0  0  0  0
    9.0570  -18.8661   22.1115 O   0  0  0  0  0  0  0  0  0  0  0  0
    8.3530  -19.3708   27.6533 O   0  0  0  0  0  0  0  0  0  0  0  0
    6.8317  -16.5069   19.6905 C   0  0  0  0  0  0  0  0  0  0  0  0
    7.0266  -15.6551   20.9008 C   0  0  1  0  0  0  0  0  0  0  0  0
    5.7604  -15.5678   21.5264 O   0  0  0  0  0  0  0  0  0  0  0  0
    7.9492  -16.2778   21.9414 C   0  0  2  0  0  0  0  0  0  0  0  0
    7.2380  -17.4659   22.4504 N   0  0  0  0  0  0  0  0  0  0  0  0
    8.2305  -15.3929   23.0807 C   0  0  0  0  0  0  0  0  0  0  0  0
    8.0792  -14.1224   22.9763 O   0  0  0  0  0  0  0  0  0  0  0  0
    7.3196  -10.3968   26.4663 C   0  0  0  0  0  0  0  0  0  0  0  0
    6.3469  -11.9086   26.2272 S   0  0  0  0  0  0  0  0  0  0  0  0
    7.1962  -13.0338   25.0585 C   0  0  0  0  0  0  0  0  0  0  0  0
    7.4901  -14.2911   25.8281 C   0  0  0  0  0  0  0  0  0  0  0  0
    8.8062  -14.9162   25.4772 C   0  0  2  0  0  0  0  0  0  0  0  0
    8.6757  -15.8320   24.3519 N   0  0  0  0  0  0  0  0  0  0  0  0
    9.3074  -15.7271   26.5987 C   0  0  0  0  0  0  0  0  0  0  0  0
    9.2599  -16.9770   26.5725 O   0  0  0  0  0  0  0  0  0  0  0  0
    9.8555  -15.1591   27.7360 O   0  0  0  0  0  0  0  0  0  0  0  0
  2  1  1  6
  2  3  1  0
  4  5  1  0
  4  3  1  0
  5  6  2  0
  7  8  2  0
  7  2  1  0
  9  5  1  0
 11 10  1  6
 11 13  1  0
 12 11  1  0
 13 14  1  1
 14  7  1  0
 15 13  1  0
 15 22  1  0
 16 15  2  0
 18 17  1  0
 19 18  1  0
 19 20  1  0
 21 20  1  1
 21 22  1  0
 21 23  1  0
 23 25  1  0
 24 23  2  0
M  END
$$$$
