ETM.pdb
     RDKit          3D

 25 24  0  0  1  0  0  0  0  0999 V2000
   11.4530  -15.6427   17.5736 N   0  0  0  0  0  0  0  0  0  0  0  0
   11.7723  -15.4928   18.9946 C   0  0  1  0  0  0  0  0  0  0  0  0
   12.9936  -14.5646   19.0457 C   0  0  0  0  0  0  0  0  0  0  0  0
   14.2143  -15.3779   18.7148 C   0  0  0  0  0  0  0  0  0  0  0  0
   15.4815  -14.6344   18.8491 C   0  0  0  0  0  0  0  0  0  0  0  0
   15.9085  -14.1723   19.9249 O   0  0  0  0  0  0  0  0  0  0  0  0
   10.6151  -14.8526   19.6530 C   0  0  0  0  0  0  0  0  0  0  0  0
   10.2577  -13.7090   19.3138 O   0  0  0  0  0  0  0  0  0  0  0  0
   16.2609  -14.4309   17.6992 O   0  0  0  0  0  0  0  0  0  0  0  0
    7.3237  -15.7111   19.2774 C   0  0  0  0  0  0  0  0  0  0  0  0
    7.5399  -15.8456   20.7484 C   0  0  1  0  0  0  0  0  0  0  0  0
    7.9372  -17.1862   20.9650 O   0  0  0  0  0  0  0  0  0  0  0  0
    8.6882  -14.9938   21.2754 C   0  0  2  0  0  0  0  0  0  0  0  0
    9.9139  -15.5555   20.6765 N   0  0  0  0  0  0  0  0  0  0  0  0
    8.8323  -15.0428   22.7372 C   0  0  0  0  0  0  0  0  0  0  0  0
    9.9016  -15.5070   23.2749 O   0  0  0  0  0  0  0  0  0  0  0  0
    6.5674  -10.0829   27.7341 C   0  0  0  0  0  0  0  0  0  0  0  0
    6.0697  -11.6652   27.0010 S   0  0  0  0  0  0  0  0  0  0  0  0
    7.5451  -12.6221   26.4905 C   0  0  0  0  0  0  0  0  0  0  0  0
    7.0264  -13.8731   25.8381 C   0  0  0  0  0  0  0  0  0  0  0  0
    8.0768  -14.6441   25.0978 C   0  0  2  0  0  0  0  0  0  0  0  0
    7.8511  -14.6023   23.6593 N   0  0  0  0  0  0  0  0  0  0  0  0
    8.0304  -16.0674   25.4702 C   0  0  0  0  0  0  0  0  0  0  0  0
    7.3236  -16.8843   24.8391 O   0  0  0  0  0  0  0  0  0  0  0  0
    8.7596  -16.5794   26.5297 O   0  0  0  0  0  0  0  0  0  0  0  0
  2  1  1  6
  2  3  1  0
  4  5  1  0
  4  3  1  0
  5  6  2  0
  7  8  2  0
  7  2  1  0
  9  5  1  0
 11 10  1  6
 11 13  1  0
 12 11  1  0
 13 14  1  6
 14  7  1  0
 15 13  1  0
 15 22  1  0
 16 15  2  0
 18 17  1  0
 19 18  1  0
 19 20  1  0
 21 20  1  1
 21 22  1  0
 21 23  1  0
 23 25  1  0
 24 23  2  0
M  END
$$$$
