ETM.pdb
     RDKit          3D

 25 24  0  0  1  0  0  0  0  0999 V2000
   10.6737  -17.8371   18.1311 N   0  0  0  0  0  0  0  0  0  0  0  0
   10.3173  -18.0707   19.5319 C   0  0  1  0  0  0  0  0  0  0  0  0
   11.5363  -18.7638   20.1559 C   0  0  0  0  0  0  0  0  0  0  0  0
   11.7222  -20.0899   19.4718 C   0  0  0  0  0  0  0  0  0  0  0  0
   12.9050  -20.8402   19.9354 C   0  0  0  0  0  0  0  0  0  0  0  0
   13.7029  -20.4221   20.7965 O   0  0  0  0  0  0  0  0  0  0  0  0
   10.0954  -16.7556   20.1673 C   0  0  0  0  0  0  0  0  0  0  0  0
   10.8021  -15.7811   19.8487 O   0  0  0  0  0  0  0  0  0  0  0  0
   13.1540  -22.1043   19.3776 O   0  0  0  0  0  0  0  0  0  0  0  0
    7.4433  -14.5319   19.8677 C   0  0  0  0  0  0  0  0  0  0  0  0
    7.4779  -14.8351   21.3290 C   0  0  1  0  0  0  0  0  0  0  0  0
    6.5967  -15.9249   21.5240 O   0  0  0  0  0  0  0  0  0  0  0  0
    8.8366  -15.3217   21.8178 C   0  0  2  0  0  0  0  0  0  0  0  0
    9.0671  -16.6143   21.1449 N   0  0  0  0  0  0  0  0  0  0  0  0
    8.8914  -15.5480   23.2690 C   0  0  0  0  0  0  0  0  0  0  0  0
    8.3964  -16.6141   23.7850 O   0  0  0  0  0  0  0  0  0  0  0  0
    6.4212  -10.5913   27.9052 C   0  0  0  0  0  0  0  0  0  0  0  0
    7.2783  -11.3292   26.4876 S   0  0  0  0  0  0  0  0  0  0  0  0
    6.6788  -13.0353   26.1990 C   0  0  0  0  0  0  0  0  0  0  0  0
    7.4489  -13.5543   25.0170 C   0  0  0  0  0  0  0  0  0  0  0  0
    8.7474  -14.2055   25.3854 C   0  0  2  0  0  0  0  0  0  0  0  0
    9.4705  -14.6540   24.2030 N   0  0  0  0  0  0  0  0  0  0  0  0
    8.5082  -15.4133   26.1918 C   0  0  0  0  0  0  0  0  0  0  0  0
    8.6404  -15.4041   27.4359 O   0  0  0  0  0  0  0  0  0  0  0  0
    8.1264  -16.6176   25.6259 O   0  0  0  0  0  0  0  0  0  0  0  0
  2  1  1  6
  2  3  1  0
  4  5  1  0
  4  3  1  0
  5  6  2  0
  7  8  2  0
  7  2  1  0
  9  5  1  0
 11 10  1  6
 11 13  1  0
 12 11  1  0
 13 14  1  6
 14  7  1  0
 15 13  1  0
 15 22  1  0
 16 15  2  0
 18 17  1  0
 19 18  1  0
 19 20  1  0
 21 20  1  6
 21 22  1  0
 21 23  1  0
 23 25  1  0
 24 23  2  0
M  END
$$$$
