ETM.pdb
     RDKit          3D

 25 24  0  0  1  0  0  0  0  0999 V2000
   11.0678  -14.8317   17.5783 N   0  0  0  0  0  0  0  0  0  0  0  0
   11.0930  -15.6015   18.8236 C   0  0  1  0  0  0  0  0  0  0  0  0
   12.5781  -15.7694   19.1729 C   0  0  0  0  0  0  0  0  0  0  0  0
   13.3112  -14.5433   18.7035 C   0  0  0  0  0  0  0  0  0  0  0  0
   14.7628  -14.5788   18.9652 C   0  0  0  0  0  0  0  0  0  0  0  0
   15.3658  -13.7439   19.6670 O   0  0  0  0  0  0  0  0  0  0  0  0
   10.4100  -14.8034   19.8624 C   0  0  0  0  0  0  0  0  0  0  0  0
   10.5183  -13.5630   19.8684 O   0  0  0  0  0  0  0  0  0  0  0  0
   15.5188  -15.6139   18.3925 O   0  0  0  0  0  0  0  0  0  0  0  0
    6.9804  -14.4793   19.9555 C   0  0  0  0  0  0  0  0  0  0  0  0
    7.3196  -15.0247   21.3031 C   0  0  1  0  0  0  0  0  0  0  0  0
    7.2768  -16.4335   21.1778 O   0  0  0  0  0  0  0  0  0  0  0  0
    8.7400  -14.7019   21.7506 C   0  0  2  0  0  0  0  0  0  0  0  0
    9.6279  -15.4659   20.8537 N   0  0  0  0  0  0  0  0  0  0  0  0
    9.0271  -15.1118   23.1325 C   0  0  0  0  0  0  0  0  0  0  0  0
    9.9954  -15.9143   23.3901 O   0  0  0  0  0  0  0  0  0  0  0  0
    5.7674  -11.2689   26.2108 C   0  0  0  0  0  0  0  0  0  0  0  0
    6.6269  -12.1945   27.5121 S   0  0  0  0  0  0  0  0  0  0  0  0
    8.1392  -12.9798   26.8417 C   0  0  0  0  0  0  0  0  0  0  0  0
    7.8042  -14.4321   26.6463 C   0  0  0  0  0  0  0  0  0  0  0  0
    8.6535  -15.1108   25.6150 C   0  0  2  0  0  0  0  0  0  0  0  0
    8.2985  -14.6819   24.2689 N   0  0  0  0  0  0  0  0  0  0  0  0
    8.4350  -16.5661   25.6432 C   0  0  0  0  0  0  0  0  0  0  0  0
    7.7958  -17.1478   24.7386 O   0  0  0  0  0  0  0  0  0  0  0  0
    8.9200  -17.3678   26.6624 O   0  0  0  0  0  0  0  0  0  0  0  0
  2  1  1  6
  2  3  1  0
  4  5  1  0
  4  3  1  0
  5  6  2  0
  7  8  2  0
  7  2  1  0
  9  5  1  0
 11 10  1  6
 11 13  1  0
 12 11  1  0
 13 14  1  6
 14  7  1  0
 15 13  1  0
 15 22  1  0
 16 15  2  0
 18 17  1  0
 19 18  1  0
 19 20  1  0
 21 20  1  1
 21 22  1  0
 21 23  1  0
 23 25  1  0
 24 23  2  0
M  END
$$$$
