ETM.pdb
     RDKit          3D

 25 24  0  0  1  0  0  0  0  0999 V2000
   12.5675  -18.2855   18.5059 N   0  0  0  0  0  0  0  0  0  0  0  0
   12.6388  -18.7621   19.8885 C   0  0  1  0  0  0  0  0  0  0  0  0
   14.1009  -18.5709   20.3142 C   0  0  0  0  0  0  0  0  0  0  0  0
   14.8751  -18.0786   19.1228 C   0  0  0  0  0  0  0  0  0  0  0  0
   16.2615  -17.6815   19.4342 C   0  0  0  0  0  0  0  0  0  0  0  0
   16.7432  -16.5631   19.1690 O   0  0  0  0  0  0  0  0  0  0  0  0
   11.7519  -17.9097   20.7068 C   0  0  0  0  0  0  0  0  0  0  0  0
   11.5893  -16.7115   20.4096 O   0  0  0  0  0  0  0  0  0  0  0  0
   17.0963  -18.6150   20.0688 O   0  0  0  0  0  0  0  0  0  0  0  0
    8.1587  -18.6646   21.3146 C   0  0  0  0  0  0  0  0  0  0  0  0
    8.8335  -18.5348   22.6398 C   0  0  1  0  0  0  0  0  0  0  0  0
    9.2668  -19.8360   22.9879 O   0  0  0  0  0  0  0  0  0  0  0  0
   10.0979  -17.6855   22.5986 C   0  0  2  0  0  0  0  0  0  0  0  0
   11.0861  -18.4716   21.8356 N   0  0  0  0  0  0  0  0  0  0  0  0
   10.6633  -17.4100   23.9270 C   0  0  0  0  0  0  0  0  0  0  0  0
   11.7050  -18.0373   24.3386 O   0  0  0  0  0  0  0  0  0  0  0  0
    8.9950  -12.4383   28.0238 C   0  0  0  0  0  0  0  0  0  0  0  0
   10.5300  -13.1610   28.6643 S   0  0  0  0  0  0  0  0  0  0  0  0
   10.5924  -14.9534   28.2946 C   0  0  0  0  0  0  0  0  0  0  0  0
   10.1371  -15.1021   26.8698 C   0  0  0  0  0  0  0  0  0  0  0  0
   10.6925  -16.3140   26.1853 C   0  0  2  0  0  0  0  0  0  0  0  0
   10.1407  -16.4668   24.8458 N   0  0  0  0  0  0  0  0  0  0  0  0
   10.3178  -17.5359   26.9155 C   0  0  0  0  0  0  0  0  0  0  0  0
    9.2339  -18.1209   26.6959 O   0  0  0  0  0  0  0  0  0  0  0  0
   11.1355  -18.1032   27.8778 O   0  0  0  0  0  0  0  0  0  0  0  0
  2  1  1  6
  2  3  1  0
  4  5  1  0
  4  3  1  0
  5  6  2  0
  7  8  2  0
  7  2  1  0
  9  5  1  0
 11 10  1  6
 11 13  1  0
 12 11  1  0
 13 14  1  6
 14  7  1  0
 15 13  1  0
 15 22  1  0
 16 15  2  0
 18 17  1  0
 19 18  1  0
 19 20  1  0
 21 20  1  1
 21 22  1  0
 21 23  1  0
 23 25  1  0
 24 23  2  0
M  END
$$$$
