ETM.pdb
     RDKit          3D

 25 24  0  0  1  0  0  0  0  0999 V2000
   12.1840  -18.5211   20.4453 N   0  0  0  0  0  0  0  0  0  0  0  0
   11.4314  -17.6491   19.5414 C   0  0  1  0  0  0  0  0  0  0  0  0
   11.0480  -18.5305   18.3448 C   0  0  0  0  0  0  0  0  0  0  0  0
   10.4955  -17.6408   17.2658 C   0  0  0  0  0  0  0  0  0  0  0  0
   10.1582  -18.3536   16.0188 C   0  0  0  0  0  0  0  0  0  0  0  0
   10.8674  -18.3406   14.9941 O   0  0  0  0  0  0  0  0  0  0  0  0
   10.2185  -17.1979   20.2541 C   0  0  0  0  0  0  0  0  0  0  0  0
    9.4101  -16.4369   19.6905 O   0  0  0  0  0  0  0  0  0  0  0  0
    8.9667  -19.0951   15.9755 O   0  0  0  0  0  0  0  0  0  0  0  0
    7.3787  -19.0539   21.3637 C   0  0  0  0  0  0  0  0  0  0  0  0
    7.9741  -18.4596   22.5970 C   0  0  1  0  0  0  0  0  0  0  0  0
    8.9013  -19.4119   23.0823 O   0  0  0  0  0  0  0  0  0  0  0  0
    8.7895  -17.1998   22.3332 C   0  0  2  0  0  0  0  0  0  0  0  0
    9.9839  -17.6420   21.5886 N   0  0  0  0  0  0  0  0  0  0  0  0
    9.2409  -16.5258   23.5588 C   0  0  0  0  0  0  0  0  0  0  0  0
   10.4784  -16.5460   23.8997 O   0  0  0  0  0  0  0  0  0  0  0  0
    6.6448  -11.0258   27.2564 C   0  0  0  0  0  0  0  0  0  0  0  0
    6.0279  -12.3295   26.1571 S   0  0  0  0  0  0  0  0  0  0  0  0
    7.4225  -13.1606   25.3101 C   0  0  0  0  0  0  0  0  0  0  0  0
    7.8934  -14.2412   26.2429 C   0  0  0  0  0  0  0  0  0  0  0  0
    8.9147  -15.1550   25.6364 C   0  0  2  0  0  0  0  0  0  0  0  0
    8.3953  -15.8169   24.4472 N   0  0  0  0  0  0  0  0  0  0  0  0
    9.2645  -16.2332   26.5754 C   0  0  0  0  0  0  0  0  0  0  0  0
    8.7680  -17.3768   26.4703 O   0  0  0  0  0  0  0  0  0  0  0  0
   10.1549  -16.0461   27.6188 O   0  0  0  0  0  0  0  0  0  0  0  0
  2  1  1  1
  2  3  1  0
  4  5  1  0
  4  3  1  0
  5  6  2  0
  7  8  2  0
  7  2  1  0
  9  5  1  0
 11 10  1  6
 11 13  1  0
 12 11  1  0
 13 14  1  6
 14  7  1  0
 15 13  1  0
 15 22  1  0
 16 15  2  0
 18 17  1  0
 19 18  1  0
 19 20  1  0
 21 20  1  1
 21 22  1  0
 21 23  1  0
 23 25  1  0
 24 23  2  0
M  END
$$$$
