ETM.pdb
     RDKit          3D

 25 24  0  0  1  0  0  0  0  0999 V2000
   11.4029  -17.9844   18.7820 N   0  0  0  0  0  0  0  0  0  0  0  0
   11.5575  -18.0129   20.2378 C   0  0  1  0  0  0  0  0  0  0  0  0
   13.0509  -17.7720   20.4972 C   0  0  0  0  0  0  0  0  0  0  0  0
   13.8025  -19.0093   20.0907 C   0  0  0  0  0  0  0  0  0  0  0  0
   15.2620  -18.9115   20.2831 C   0  0  0  0  0  0  0  0  0  0  0  0
   16.0592  -18.5441   19.3985 O   0  0  0  0  0  0  0  0  0  0  0  0
   10.7555  -16.9065   20.7994 C   0  0  0  0  0  0  0  0  0  0  0  0
   10.6623  -15.8281   20.1840 O   0  0  0  0  0  0  0  0  0  0  0  0
   15.7938  -19.2510   21.5373 O   0  0  0  0  0  0  0  0  0  0  0  0
    7.4891  -16.3905   20.8880 C   0  0  0  0  0  0  0  0  0  0  0  0
    7.8242  -16.3799   22.3428 C   0  0  1  0  0  0  0  0  0  0  0  0
    7.6864  -17.7165   22.7862 O   0  0  0  0  0  0  0  0  0  0  0  0
    9.2729  -16.0059   22.6311 C   0  0  2  0  0  0  0  0  0  0  0  0
   10.0912  -17.0862   22.0482 N   0  0  0  0  0  0  0  0  0  0  0  0
    9.5831  -15.9233   24.0654 C   0  0  0  0  0  0  0  0  0  0  0  0
   10.6559  -16.4492   24.5349 O   0  0  0  0  0  0  0  0  0  0  0  0
    6.0352  -12.1010   26.8361 C   0  0  0  0  0  0  0  0  0  0  0  0
    7.8019  -11.8694   26.4986 S   0  0  0  0  0  0  0  0  0  0  0  0
    8.7978  -13.0506   27.4815 C   0  0  0  0  0  0  0  0  0  0  0  0
    8.1980  -14.4071   27.2371 C   0  0  0  0  0  0  0  0  0  0  0  0
    9.0863  -15.3238   26.4520 C   0  0  2  0  0  0  0  0  0  0  0  0
    8.7676  -15.2835   25.0311 N   0  0  0  0  0  0  0  0  0  0  0  0
    8.8838  -16.7207   26.8693 C   0  0  0  0  0  0  0  0  0  0  0  0
    9.3258  -17.1468   27.9594 O   0  0  0  0  0  0  0  0  0  0  0  0
    8.1986  -17.6349   26.0874 O   0  0  0  0  0  0  0  0  0  0  0  0
  2  1  1  6
  2  3  1  0
  4  5  1  0
  4  3  1  0
  5  6  2  0
  7  8  2  0
  7  2  1  0
  9  5  1  0
 11 10  1  6
 11 13  1  0
 12 11  1  0
 13 14  1  1
 14  7  1  0
 15 13  1  0
 15 22  1  0
 16 15  2  0
 18 17  1  0
 19 18  1  0
 19 20  1  0
 21 20  1  1
 21 22  1  0
 21 23  1  0
 23 25  1  0
 24 23  2  0
M  END
$$$$
