QCQ.pdb
     RDKit          3D

 25 24  0  0  1  0  0  0  0  0999 V2000
    7.9191  -13.0317   16.7796 N   0  0  0  0  0  0  0  0  0  0  0  0
    8.6204  -14.0233   16.0132 C   0  0  0  0  0  0  0  0  0  0  0  0
    8.2737  -14.1766   14.8287 O   0  0  0  0  0  0  0  0  0  0  0  0
    9.6738  -14.7819   16.6515 C   0  0  0  0  0  0  0  0  0  0  0  0
    9.9057  -14.5237   18.1079 C   0  0  0  0  0  0  0  0  0  0  0  0
    9.8899  -15.7183   18.9875 C   0  0  2  0  0  0  0  0  0  0  0  0
    8.8608  -16.6390   18.6174 N   0  0  0  0  0  0  0  0  0  0  0  0
    9.7071  -15.3557   20.4285 C   0  0  0  0  0  0  0  0  0  0  0  0
   10.5102  -14.5740   21.0011 O   0  0  0  0  0  0  0  0  0  0  0  0
    8.6443  -15.8584   21.2183 N   0  0  0  0  0  0  0  0  0  0  0  0
    8.4300  -15.5030   22.5929 C   0  0  1  0  0  0  0  0  0  0  0  0
    7.0926  -15.8304   23.1322 C   0  0  0  0  0  0  0  0  0  0  0  0
    5.8005  -14.9406   22.1831 S   0  0  0  0  0  0  0  0  0  0  0  0
    9.4762  -16.1654   23.4423 C   0  0  0  0  0  0  0  0  0  0  0  0
   10.0750  -17.1888   23.0253 O   0  0  0  0  0  0  0  0  0  0  0  0
   10.8096  -15.1468   29.9505 N   0  0  0  0  0  0  0  0  0  0  0  0
    9.9636  -14.6243   28.9075 C   0  0  0  0  0  0  0  0  0  0  0  0
    9.4815  -13.4983   29.1092 O   0  0  0  0  0  0  0  0  0  0  0  0
    9.7530  -15.4503   27.7253 C   0  0  0  0  0  0  0  0  0  0  0  0
   10.9417  -15.4342   26.8197 C   0  0  0  0  0  0  0  0  0  0  0  0
   10.7123  -16.3103   25.6377 C   0  0  2  0  0  0  0  0  0  0  0  0
    9.7985  -15.6424   24.7232 N   0  0  0  0  0  0  0  0  0  0  0  0
   10.1442  -17.6176   26.0522 C   0  0  0  0  0  0  0  0  0  0  0  0
   10.9983  -18.5866   26.5404 O   0  0  0  0  0  0  0  0  0  0  0  0
    8.9295  -17.8605   25.9719 O   0  0  0  0  0  0  0  0  0  0  0  0
  1  2  1  0
  2  4  1  0
  3  2  2  0
  5  4  1  0
  6  5  1  0
  6  7  1  6
  8  6  1  0
  8  9  2  0
 10  8  1  0
 11 10  1  0
 11 14  1  0
 11 12  1  1
 13 12  1  0
 14 22  1  0
 15 14  2  0
 17 16  1  0
 17 19  1  0
 18 17  2  0
 19 20  1  0
 21 20  1  1
 21 23  1  0
 22 21  1  0
 23 25  2  0
 23 24  1  0
M  END
$$$$
