QCQ.pdb
     RDKit          3D

 25 24  0  0  1  0  0  0  0  0999 V2000
    6.0620  -19.5618   22.5351 N   0  0  0  0  0  0  0  0  0  0  0  0
    7.2042  -19.8147   21.7022 C   0  0  0  0  0  0  0  0  0  0  0  0
    7.2317  -20.8954   21.0875 O   0  0  0  0  0  0  0  0  0  0  0  0
    8.2478  -18.8157   21.6272 C   0  0  0  0  0  0  0  0  0  0  0  0
    8.0758  -17.5934   22.4747 C   0  0  0  0  0  0  0  0  0  0  0  0
    7.7883  -16.3345   21.7442 C   0  0  2  0  0  0  0  0  0  0  0  0
    8.4584  -16.2857   20.4824 N   0  0  0  0  0  0  0  0  0  0  0  0
    8.1744  -15.1229   22.5342 C   0  0  0  0  0  0  0  0  0  0  0  0
    9.2480  -14.5128   22.2913 O   0  0  0  0  0  0  0  0  0  0  0  0
    7.3743  -14.6006   23.5798 N   0  0  0  0  0  0  0  0  0  0  0  0
    7.7214  -13.4400   24.3508 C   0  0  1  0  0  0  0  0  0  0  0  0
    6.5797  -12.6862   24.9122 C   0  0  0  0  0  0  0  0  0  0  0  0
    6.4634  -12.9806   26.7183 S   0  0  0  0  0  0  0  0  0  0  0  0
    8.6370  -13.8468   25.4692 C   0  0  0  0  0  0  0  0  0  0  0  0
    9.0172  -12.9992   26.3159 O   0  0  0  0  0  0  0  0  0  0  0  0
    9.8601  -14.1898   29.4177 N   0  0  0  0  0  0  0  0  0  0  0  0
   10.5086  -15.4396   29.7245 C   0  0  0  0  0  0  0  0  0  0  0  0
   11.2271  -15.4470   30.7369 O   0  0  0  0  0  0  0  0  0  0  0  0
   10.2665  -16.5677   28.8341 C   0  0  0  0  0  0  0  0  0  0  0  0
    9.3163  -16.2128   27.7366 C   0  0  0  0  0  0  0  0  0  0  0  0
   10.0465  -15.6199   26.5822 C   0  0  2  0  0  0  0  0  0  0  0  0
    9.0814  -15.1915   25.5808 N   0  0  0  0  0  0  0  0  0  0  0  0
   10.9845  -16.6055   25.9887 C   0  0  0  0  0  0  0  0  0  0  0  0
   10.4995  -17.5076   25.0625 O   0  0  0  0  0  0  0  0  0  0  0  0
   12.1853  -16.6394   26.3013 O   0  0  0  0  0  0  0  0  0  0  0  0
  1  2  1  0
  2  4  1  0
  3  2  2  0
  5  4  1  0
  6  5  1  0
  6  7  1  6
  8  6  1  0
  8  9  2  0
 10  8  1  0
 11 10  1  0
 11 14  1  0
 11 12  1  1
 13 12  1  0
 14 22  1  0
 15 14  2  0
 17 16  1  0
 17 19  1  0
 18 17  2  0
 19 20  1  0
 21 20  1  1
 21 23  1  0
 22 21  1  0
 23 25  2  0
 23 24  1  0
M  END
$$$$
