QCQ.pdb
     RDKit          3D

 25 24  0  0  1  0  0  0  0  0999 V2000
    8.6724  -12.7172   16.2419 N   0  0  0  0  0  0  0  0  0  0  0  0
    8.2880  -14.0753   15.9772 C   0  0  0  0  0  0  0  0  0  0  0  0
    7.7416  -14.3091   14.8848 O   0  0  0  0  0  0  0  0  0  0  0  0
    8.5494  -15.0828   16.9819 C   0  0  0  0  0  0  0  0  0  0  0  0
    9.1894  -14.6192   18.2536 C   0  0  0  0  0  0  0  0  0  0  0  0
    9.4152  -15.6638   19.2827 C   0  0  2  0  0  0  0  0  0  0  0  0
    8.5094  -16.7601   19.1368 N   0  0  0  0  0  0  0  0  0  0  0  0
    9.2869  -15.1234   20.6729 C   0  0  0  0  0  0  0  0  0  0  0  0
   10.0337  -14.1921   21.0716 O   0  0  0  0  0  0  0  0  0  0  0  0
    8.3397  -15.6154   21.6040 N   0  0  0  0  0  0  0  0  0  0  0  0
    8.1801  -15.0978   22.9338 C   0  0  1  0  0  0  0  0  0  0  0  0
    6.8175  -15.2061   23.4979 C   0  0  0  0  0  0  0  0  0  0  0  0
    6.4718  -16.9443   23.9683 S   0  0  0  0  0  0  0  0  0  0  0  0
    9.1465  -15.7897   23.8515 C   0  0  0  0  0  0  0  0  0  0  0  0
    9.6459  -16.8965   23.5266 O   0  0  0  0  0  0  0  0  0  0  0  0
   10.4857  -13.6537   29.5835 N   0  0  0  0  0  0  0  0  0  0  0  0
   10.3723  -15.0854   29.7009 C   0  0  0  0  0  0  0  0  0  0  0  0
   10.3217  -15.5355   30.8567 O   0  0  0  0  0  0  0  0  0  0  0  0
   10.3261  -15.8668   28.4714 C   0  0  0  0  0  0  0  0  0  0  0  0
   10.5075  -15.0076   27.2623 C   0  0  0  0  0  0  0  0  0  0  0  0
   10.4351  -15.8270   26.0211 C   0  0  2  0  0  0  0  0  0  0  0  0
    9.5049  -15.2008   25.0936 N   0  0  0  0  0  0  0  0  0  0  0  0
    9.9880  -17.2092   26.3266 C   0  0  0  0  0  0  0  0  0  0  0  0
   10.9380  -18.1549   26.6584 O   0  0  0  0  0  0  0  0  0  0  0  0
    8.7906  -17.5345   26.2918 O   0  0  0  0  0  0  0  0  0  0  0  0
  1  2  1  0
  2  4  1  0
  3  2  2  0
  5  4  1  0
  6  5  1  0
  6  7  1  6
  8  6  1  0
  8  9  2  0
 10  8  1  0
 11 10  1  0
 11 14  1  0
 11 12  1  1
 13 12  1  0
 14 22  1  0
 15 14  2  0
 17 16  1  0
 17 19  1  0
 18 17  2  0
 19 20  1  0
 21 20  1  1
 21 23  1  0
 22 21  1  0
 23 25  2  0
 23 24  1  0
M  END
$$$$
