QCQ.pdb
     RDKit          3D

 25 24  0  0  1  0  0  0  0  0999 V2000
    9.7846  -14.1929   18.3118 N   0  0  0  0  0  0  0  0  0  0  0  0
    8.4091  -13.8986   18.0229 C   0  0  0  0  0  0  0  0  0  0  0  0
    7.9881  -14.2010   16.8925 O   0  0  0  0  0  0  0  0  0  0  0  0
    7.6001  -13.2719   19.0454 C   0  0  0  0  0  0  0  0  0  0  0  0
    8.1901  -13.1914   20.4192 C   0  0  0  0  0  0  0  0  0  0  0  0
    7.9308  -14.3536   21.3040 C   0  0  2  0  0  0  0  0  0  0  0  0
    6.5406  -14.6824   21.3583 N   0  0  0  0  0  0  0  0  0  0  0  0
    8.4184  -14.1199   22.7000 C   0  0  0  0  0  0  0  0  0  0  0  0
    9.6363  -13.8974   22.9263 O   0  0  0  0  0  0  0  0  0  0  0  0
    7.5598  -14.1349   23.8264 N   0  0  0  0  0  0  0  0  0  0  0  0
    8.0157  -14.0194   25.1830 C   0  0  1  0  0  0  0  0  0  0  0  0
    7.4313  -12.9025   25.9562 C   0  0  0  0  0  0  0  0  0  0  0  0
    5.6086  -13.0847   26.0378 S   0  0  0  0  0  0  0  0  0  0  0  0
    7.7469  -15.3082   25.9050 C   0  0  0  0  0  0  0  0  0  0  0  0
    6.7536  -15.4106   26.6684 O   0  0  0  0  0  0  0  0  0  0  0  0
    6.4602  -18.5747   22.3267 N   0  0  0  0  0  0  0  0  0  0  0  0
    6.7080  -19.2127   23.5949 C   0  0  0  0  0  0  0  0  0  0  0  0
    6.7577  -20.4530   23.5808 O   0  0  0  0  0  0  0  0  0  0  0  0
    6.8772  -18.3588   24.7638 C   0  0  0  0  0  0  0  0  0  0  0  0
    8.0733  -18.7524   25.5685 C   0  0  0  0  0  0  0  0  0  0  0  0
    8.4676  -17.6541   26.4935 C   0  0  2  0  0  0  0  0  0  0  0  0
    8.6113  -16.4223   25.7321 N   0  0  0  0  0  0  0  0  0  0  0  0
    9.7447  -17.9745   27.1790 C   0  0  0  0  0  0  0  0  0  0  0  0
    9.7626  -19.0030   28.1002 O   0  0  0  0  0  0  0  0  0  0  0  0
   10.7898  -17.3460   26.9470 O   0  0  0  0  0  0  0  0  0  0  0  0
  1  2  1  0
  2  4  1  0
  3  2  2  0
  5  4  1  0
  6  5  1  0
  6  7  1  1
  8  6  1  0
  8  9  2  0
 10  8  1  0
 11 10  1  0
 11 14  1  0
 11 12  1  1
 13 12  1  0
 14 22  1  0
 15 14  2  0
 17 16  1  0
 17 19  1  0
 18 17  2  0
 19 20  1  0
 21 20  1  6
 21 23  1  0
 22 21  1  0
 23 25  2  0
 23 24  1  0
M  END
$$$$
