QCQ.pdb
     RDKit          3D

 25 24  0  0  1  0  0  0  0  0999 V2000
   11.2344  -15.4372   12.1121 N   0  0  0  0  0  0  0  0  0  0  0  0
   10.2037  -16.4126   12.3319 C   0  0  0  0  0  0  0  0  0  0  0  0
   10.3091  -17.4966   11.7314 O   0  0  0  0  0  0  0  0  0  0  0  0
    9.1124  -16.0856   13.2234 C   0  0  0  0  0  0  0  0  0  0  0  0
    9.4326  -16.0080   14.6839 C   0  0  0  0  0  0  0  0  0  0  0  0
    8.3115  -15.6144   15.5722 C   0  0  2  0  0  0  0  0  0  0  0  0
    7.8451  -14.2932   15.2881 N   0  0  0  0  0  0  0  0  0  0  0  0
    8.6870  -15.6845   17.0197 C   0  0  0  0  0  0  0  0  0  0  0  0
    9.4292  -14.8078   17.5341 O   0  0  0  0  0  0  0  0  0  0  0  0
    8.2413  -16.7178   17.8798 N   0  0  0  0  0  0  0  0  0  0  0  0
    8.5930  -16.8116   19.2688 C   0  0  1  0  0  0  0  0  0  0  0  0
    7.5531  -17.3855   20.1497 C   0  0  0  0  0  0  0  0  0  0  0  0
    6.8513  -18.8975   19.3859 S   0  0  0  0  0  0  0  0  0  0  0  0
    9.8511  -17.6200   19.4052 C   0  0  0  0  0  0  0  0  0  0  0  0
   10.0801  -18.5722   18.6174 O   0  0  0  0  0  0  0  0  0  0  0  0
   14.9190  -15.7237   22.5202 N   0  0  0  0  0  0  0  0  0  0  0  0
   15.3093  -17.0596   22.1467 C   0  0  0  0  0  0  0  0  0  0  0  0
   16.4568  -17.4035   22.4722 O   0  0  0  0  0  0  0  0  0  0  0  0
   14.3371  -17.8771   21.4320 C   0  0  0  0  0  0  0  0  0  0  0  0
   13.0210  -17.1820   21.2983 C   0  0  0  0  0  0  0  0  0  0  0  0
   12.0417  -18.0465   20.5835 C   0  0  2  0  0  0  0  0  0  0  0  0
   10.7930  -17.3165   20.4245 N   0  0  0  0  0  0  0  0  0  0  0  0
   11.7986  -19.3026   21.3363 C   0  0  0  0  0  0  0  0  0  0  0  0
   10.7182  -19.3625   22.1942 O   0  0  0  0  0  0  0  0  0  0  0  0
   12.5364  -20.2935   21.2153 O   0  0  0  0  0  0  0  0  0  0  0  0
  1  2  1  0
  2  4  1  0
  3  2  2  0
  5  4  1  0
  6  5  1  0
  6  7  1  6
  8  6  1  0
  8  9  2  0
 10  8  1  0
 11 10  1  0
 11 14  1  0
 11 12  1  1
 13 12  1  0
 14 22  1  0
 15 14  2  0
 17 16  1  0
 17 19  1  0
 18 17  2  0
 19 20  1  0
 21 20  1  1
 21 23  1  0
 22 21  1  0
 23 25  2  0
 23 24  1  0
M  END
$$$$
