QCQ.pdb
     RDKit          3D

 25 24  0  0  1  0  0  0  0  0999 V2000
    9.4063  -12.7367   18.5916 N   0  0  0  0  0  0  0  0  0  0  0  0
    8.2310  -13.0164   17.8152 C   0  0  0  0  0  0  0  0  0  0  0  0
    8.2062  -12.5899   16.6472 O   0  0  0  0  0  0  0  0  0  0  0  0
    7.1535  -13.7643   18.4253 C   0  0  0  0  0  0  0  0  0  0  0  0
    7.3407  -14.1776   19.8522 C   0  0  0  0  0  0  0  0  0  0  0  0
    8.5373  -15.0082   20.1337 C   0  0  2  0  0  0  0  0  0  0  0  0
    8.8343  -15.8978   19.0548 N   0  0  0  0  0  0  0  0  0  0  0  0
    8.3825  -15.8148   21.3854 C   0  0  0  0  0  0  0  0  0  0  0  0
    7.2530  -16.2440   21.7375 O   0  0  0  0  0  0  0  0  0  0  0  0
    9.4719  -16.1368   22.2314 N   0  0  0  0  0  0  0  0  0  0  0  0
    9.3863  -17.0518   23.3346 C   0  0  1  0  0  0  0  0  0  0  0  0
    9.0791  -18.4529   22.9749 C   0  0  0  0  0  0  0  0  0  0  0  0
   10.2949  -19.0640   21.7459 S   0  0  0  0  0  0  0  0  0  0  0  0
   10.6738  -17.0155   24.1064 C   0  0  0  0  0  0  0  0  0  0  0  0
   11.7035  -16.5064   23.5960 O   0  0  0  0  0  0  0  0  0  0  0  0
    8.2746  -13.6024   26.9139 N   0  0  0  0  0  0  0  0  0  0  0  0
    9.2854  -13.6862   27.9375 C   0  0  0  0  0  0  0  0  0  0  0  0
    9.2324  -12.8231   28.8281 O   0  0  0  0  0  0  0  0  0  0  0  0
   10.2648  -14.7611   27.8393 C   0  0  0  0  0  0  0  0  0  0  0  0
    9.9936  -15.6523   26.6709 C   0  0  0  0  0  0  0  0  0  0  0  0
   11.0100  -16.7376   26.5921 C   0  0  2  0  0  0  0  0  0  0  0  0
   10.7401  -17.5551   25.4189 N   0  0  0  0  0  0  0  0  0  0  0  0
   10.9763  -17.5817   27.8128 C   0  0  0  0  0  0  0  0  0  0  0  0
   11.8917  -17.3327   28.8162 O   0  0  0  0  0  0  0  0  0  0  0  0
   10.1521  -18.4992   27.9538 O   0  0  0  0  0  0  0  0  0  0  0  0
  1  2  1  0
  2  4  1  0
  3  2  2  0
  5  4  1  0
  6  5  1  0
  6  7  1  6
  8  6  1  0
  8  9  2  0
 10  8  1  0
 11 10  1  0
 11 14  1  0
 11 12  1  6
 13 12  1  0
 14 22  1  0
 15 14  2  0
 17 16  1  0
 17 19  1  0
 18 17  2  0
 19 20  1  0
 21 20  1  1
 21 23  1  0
 22 21  1  0
 23 25  2  0
 23 24  1  0
M  END
$$$$
