QCQ.pdb
     RDKit          3D

 25 24  0  0  1  0  0  0  0  0999 V2000
    9.6124  -13.0991   17.8171 N   0  0  0  0  0  0  0  0  0  0  0  0
    8.2598  -13.5764   17.7461 C   0  0  0  0  0  0  0  0  0  0  0  0
    7.8014  -13.8202   16.6160 O   0  0  0  0  0  0  0  0  0  0  0  0
    7.5129  -13.7416   18.9739 C   0  0  0  0  0  0  0  0  0  0  0  0
    8.2426  -13.4641   20.2516 C   0  0  0  0  0  0  0  0  0  0  0  0
    8.2079  -14.5471   21.2649 C   0  0  2  0  0  0  0  0  0  0  0  0
    6.9205  -15.1637   21.3421 N   0  0  0  0  0  0  0  0  0  0  0  0
    8.5818  -14.0559   22.6288 C   0  0  0  0  0  0  0  0  0  0  0  0
    9.6979  -13.5108   22.8317 O   0  0  0  0  0  0  0  0  0  0  0  0
    7.7231  -14.1718   23.7493 N   0  0  0  0  0  0  0  0  0  0  0  0
    8.1049  -13.8284   25.0901 C   0  0  1  0  0  0  0  0  0  0  0  0
    7.0482  -13.1962   25.9090 C   0  0  0  0  0  0  0  0  0  0  0  0
    5.6113  -14.3257   26.0561 S   0  0  0  0  0  0  0  0  0  0  0  0
    8.5979  -15.0603   25.7932 C   0  0  0  0  0  0  0  0  0  0  0  0
    7.9698  -16.1438   25.6868 O   0  0  0  0  0  0  0  0  0  0  0  0
   13.8306  -15.6360   25.0179 N   0  0  0  0  0  0  0  0  0  0  0  0
   13.0446  -16.7814   24.6349 C   0  0  0  0  0  0  0  0  0  0  0  0
   13.3624  -17.3283   23.5667 O   0  0  0  0  0  0  0  0  0  0  0  0
   11.9634  -17.1915   25.5221 C   0  0  0  0  0  0  0  0  0  0  0  0
   11.8193  -16.2638   26.6848 C   0  0  0  0  0  0  0  0  0  0  0  0
   10.4017  -16.2054   27.1365 C   0  0  2  0  0  0  0  0  0  0  0  0
    9.7772  -15.0127   26.5838 N   0  0  0  0  0  0  0  0  0  0  0  0
   10.3207  -16.1758   28.6184 C   0  0  0  0  0  0  0  0  0  0  0  0
    9.6642  -15.1234   29.2254 O   0  0  0  0  0  0  0  0  0  0  0  0
   10.8245  -17.0664   29.3211 O   0  0  0  0  0  0  0  0  0  0  0  0
  1  2  1  0
  2  4  1  0
  3  2  2  0
  5  4  1  0
  6  5  1  0
  6  7  1  1
  8  6  1  0
  8  9  2  0
 10  8  1  0
 11 10  1  0
 11 14  1  0
 11 12  1  1
 13 12  1  0
 14 22  1  0
 15 14  2  0
 17 16  1  0
 17 19  1  0
 18 17  2  0
 19 20  1  0
 21 20  1  1
 21 23  1  0
 22 21  1  0
 23 25  2  0
 23 24  1  0
M  END
$$$$
