QCQ.pdb
     RDKit          3D

 25 24  0  0  1  0  0  0  0  0999 V2000
    7.7136  -17.0594   16.0498 N   0  0  0  0  0  0  0  0  0  0  0  0
    7.7604  -16.1729   14.9209 C   0  0  0  0  0  0  0  0  0  0  0  0
    7.1228  -16.5087   13.9073 O   0  0  0  0  0  0  0  0  0  0  0  0
    8.5381  -14.9572   15.0203 C   0  0  0  0  0  0  0  0  0  0  0  0
    9.2497  -14.7139   16.3150 C   0  0  0  0  0  0  0  0  0  0  0  0
    8.4380  -14.0994   17.3941 C   0  0  2  0  0  0  0  0  0  0  0  0
    8.0589  -12.7578   17.0776 N   0  0  0  0  0  0  0  0  0  0  0  0
    9.1572  -14.0926   18.7070 C   0  0  0  0  0  0  0  0  0  0  0  0
   10.2250  -13.4422   18.8513 O   0  0  0  0  0  0  0  0  0  0  0  0
    8.6918  -14.8013   19.8416 N   0  0  0  0  0  0  0  0  0  0  0  0
    9.4026  -14.8756   21.0869 C   0  0  1  0  0  0  0  0  0  0  0  0
    8.5969  -15.2957   22.2537 C   0  0  0  0  0  0  0  0  0  0  0  0
    7.1453  -14.1914   22.4416 S   0  0  0  0  0  0  0  0  0  0  0  0
   10.5680  -15.8101   20.9345 C   0  0  0  0  0  0  0  0  0  0  0  0
   10.5003  -16.7818   20.1401 O   0  0  0  0  0  0  0  0  0  0  0  0
   15.6708  -15.3983   18.2763 N   0  0  0  0  0  0  0  0  0  0  0  0
   14.6595  -14.4934   18.7609 C   0  0  0  0  0  0  0  0  0  0  0  0
   14.3703  -13.5469   18.0114 O   0  0  0  0  0  0  0  0  0  0  0  0
   14.0733  -14.7656   20.0672 C   0  0  0  0  0  0  0  0  0  0  0  0
   13.5100  -16.1476   20.1442 C   0  0  0  0  0  0  0  0  0  0  0  0
   12.9528  -16.4120   21.4995 C   0  0  2  0  0  0  0  0  0  0  0  0
   11.7563  -15.6049   21.6855 N   0  0  0  0  0  0  0  0  0  0  0  0
   13.9482  -16.0872   22.5518 C   0  0  0  0  0  0  0  0  0  0  0  0
   13.6316  -15.1233   23.4886 O   0  0  0  0  0  0  0  0  0  0  0  0
   15.0501  -16.6558   22.6109 O   0  0  0  0  0  0  0  0  0  0  0  0
  1  2  1  0
  2  4  1  0
  3  2  2  0
  5  4  1  0
  6  5  1  0
  6  7  1  6
  8  6  1  0
  8  9  2  0
 10  8  1  0
 11 10  1  0
 11 14  1  0
 11 12  1  1
 13 12  1  0
 14 22  1  0
 15 14  2  0
 17 16  1  0
 17 19  1  0
 18 17  2  0
 19 20  1  0
 21 20  1  6
 21 23  1  0
 22 21  1  0
 23 25  2  0
 23 24  1  0
M  END
$$$$
