QCQ.pdb
     RDKit          3D

 25 24  0  0  1  0  0  0  0  0999 V2000
    4.8567  -18.0325   22.4426 N   0  0  0  0  0  0  0  0  0  0  0  0
    6.0982  -18.1881   21.7378 C   0  0  0  0  0  0  0  0  0  0  0  0
    6.5471  -19.3423   21.6246 O   0  0  0  0  0  0  0  0  0  0  0  0
    6.7522  -17.0112   21.2086 C   0  0  0  0  0  0  0  0  0  0  0  0
    6.0605  -15.7004   21.4207 C   0  0  0  0  0  0  0  0  0  0  0  0
    6.9370  -14.5038   21.4527 C   0  0  2  0  0  0  0  0  0  0  0  0
    7.8035  -14.4475   20.3171 N   0  0  0  0  0  0  0  0  0  0  0  0
    7.7746  -14.4509   22.6924 C   0  0  0  0  0  0  0  0  0  0  0  0
    8.9874  -14.7858   22.6631 O   0  0  0  0  0  0  0  0  0  0  0  0
    7.2660  -14.0308   23.9458 N   0  0  0  0  0  0  0  0  0  0  0  0
    8.0412  -13.9955   25.1538 C   0  0  1  0  0  0  0  0  0  0  0  0
    7.4266  -13.2623   26.2814 C   0  0  0  0  0  0  0  0  0  0  0  0
    5.5989  -13.3394   26.1555 S   0  0  0  0  0  0  0  0  0  0  0  0
    8.3405  -15.4012   25.5889 C   0  0  0  0  0  0  0  0  0  0  0  0
    7.4361  -16.2740   25.5752 O   0  0  0  0  0  0  0  0  0  0  0  0
   12.3621  -17.6277   23.2879 N   0  0  0  0  0  0  0  0  0  0  0  0
   11.7400  -18.8405   23.7556 C   0  0  0  0  0  0  0  0  0  0  0  0
   11.7648  -19.8032   22.9722 O   0  0  0  0  0  0  0  0  0  0  0  0
   11.1472  -18.8306   25.0870 C   0  0  0  0  0  0  0  0  0  0  0  0
   11.2761  -17.4930   25.7406 C   0  0  0  0  0  0  0  0  0  0  0  0
   10.0027  -17.1125   26.4120 C   0  0  2  0  0  0  0  0  0  0  0  0
    9.6467  -15.7573   26.0193 N   0  0  0  0  0  0  0  0  0  0  0  0
   10.1408  -17.1895   27.8880 C   0  0  0  0  0  0  0  0  0  0  0  0
   10.4032  -18.4158   28.4660 O   0  0  0  0  0  0  0  0  0  0  0  0
   10.0274  -16.1868   28.6110 O   0  0  0  0  0  0  0  0  0  0  0  0
  1  2  1  0
  2  4  1  0
  3  2  2  0
  5  4  1  0
  6  5  1  0
  6  7  1  6
  8  6  1  0
  8  9  2  0
 10  8  1  0
 11 10  1  0
 11 14  1  0
 11 12  1  1
 13 12  1  0
 14 22  1  0
 15 14  2  0
 17 16  1  0
 17 19  1  0
 18 17  2  0
 19 20  1  0
 21 20  1  6
 21 23  1  0
 22 21  1  0
 23 25  2  0
 23 24  1  0
M  END
$$$$
