QCQ.pdb
     RDKit          3D

 25 24  0  0  1  0  0  0  0  0999 V2000
    8.0792  -12.6964   16.0478 N   0  0  0  0  0  0  0  0  0  0  0  0
    8.0931  -14.0630   15.6067 C   0  0  0  0  0  0  0  0  0  0  0  0
    8.2659  -14.2668   14.3921 O   0  0  0  0  0  0  0  0  0  0  0  0
    7.9041  -15.1133   16.5833 C   0  0  0  0  0  0  0  0  0  0  0  0
    9.1196  -15.5695   17.3292 C   0  0  0  0  0  0  0  0  0  0  0  0
    8.8658  -16.2969   18.5970 C   0  0  2  0  0  0  0  0  0  0  0  0
    7.5536  -16.8632   18.6330 N   0  0  0  0  0  0  0  0  0  0  0  0
    9.0365  -15.4172   19.7963 C   0  0  0  0  0  0  0  0  0  0  0  0
    9.5533  -14.2749   19.6867 O   0  0  0  0  0  0  0  0  0  0  0  0
    8.6369  -15.8069   21.0981 N   0  0  0  0  0  0  0  0  0  0  0  0
    9.1427  -15.2120   22.3030 C   0  0  1  0  0  0  0  0  0  0  0  0
    8.1509  -14.4671   23.1081 C   0  0  0  0  0  0  0  0  0  0  0  0
    6.6958  -15.5299   23.4477 S   0  0  0  0  0  0  0  0  0  0  0  0
    9.7639  -16.2797   23.1569 C   0  0  0  0  0  0  0  0  0  0  0  0
    9.2144  -17.4053   23.2621 O   0  0  0  0  0  0  0  0  0  0  0  0
   15.7096  -16.0427   24.5173 N   0  0  0  0  0  0  0  0  0  0  0  0
   15.0828  -16.3412   23.2545 C   0  0  0  0  0  0  0  0  0  0  0  0
   15.8120  -16.2661   22.2527 O   0  0  0  0  0  0  0  0  0  0  0  0
   13.6705  -16.7007   23.2647 C   0  0  0  0  0  0  0  0  0  0  0  0
   13.1199  -16.7429   24.6534 C   0  0  0  0  0  0  0  0  0  0  0  0
   11.6628  -17.0486   24.6307 C   0  0  2  0  0  0  0  0  0  0  0  0
   10.9767  -16.0281   23.8526 N   0  0  0  0  0  0  0  0  0  0  0  0
   11.1104  -17.0883   26.0079 C   0  0  0  0  0  0  0  0  0  0  0  0
   10.2003  -16.1206   26.3851 O   0  0  0  0  0  0  0  0  0  0  0  0
   11.4431  -17.9628   26.8236 O   0  0  0  0  0  0  0  0  0  0  0  0
  1  2  1  0
  2  4  1  0
  3  2  2  0
  5  4  1  0
  6  5  1  0
  6  7  1  6
  8  6  1  0
  8  9  2  0
 10  8  1  0
 11 10  1  0
 11 14  1  0
 11 12  1  1
 13 12  1  0
 14 22  1  0
 15 14  2  0
 17 16  1  0
 17 19  1  0
 18 17  2  0
 19 20  1  0
 21 20  1  1
 21 23  1  0
 22 21  1  0
 23 25  2  0
 23 24  1  0
M  END
$$$$
