QCQ.pdb
     RDKit          3D

 25 24  0  0  1  0  0  0  0  0999 V2000
    8.2529  -12.5191   16.5372 N   0  0  0  0  0  0  0  0  0  0  0  0
    7.9127  -13.8553   16.1359 C   0  0  0  0  0  0  0  0  0  0  0  0
    7.4778  -14.0090   14.9809 O   0  0  0  0  0  0  0  0  0  0  0  0
    8.0877  -14.9343   17.0835 C   0  0  0  0  0  0  0  0  0  0  0  0
    8.5766  -14.5622   18.4489 C   0  0  0  0  0  0  0  0  0  0  0  0
    8.6728  -15.6736   19.4270 C   0  0  2  0  0  0  0  0  0  0  0  0
    7.4295  -16.3636   19.5736 N   0  0  0  0  0  0  0  0  0  0  0  0
    9.1158  -15.2008   20.7766 C   0  0  0  0  0  0  0  0  0  0  0  0
   10.2507  -14.6803   20.9344 O   0  0  0  0  0  0  0  0  0  0  0  0
    8.3043  -15.3078   21.9326 N   0  0  0  0  0  0  0  0  0  0  0  0
    8.7879  -15.1181   23.2712 C   0  0  1  0  0  0  0  0  0  0  0  0
    7.7808  -14.6557   24.2504 C   0  0  0  0  0  0  0  0  0  0  0  0
    6.4510  -15.9068   24.4180 S   0  0  0  0  0  0  0  0  0  0  0  0
    9.3955  -16.4005   23.7622 C   0  0  0  0  0  0  0  0  0  0  0  0
    8.8669  -17.5032   23.4719 O   0  0  0  0  0  0  0  0  0  0  0  0
   14.4498  -18.5954   23.0034 N   0  0  0  0  0  0  0  0  0  0  0  0
   14.3167  -19.2718   24.2689 C   0  0  0  0  0  0  0  0  0  0  0  0
   15.0051  -20.2944   24.4156 O   0  0  0  0  0  0  0  0  0  0  0  0
   13.4012  -18.7037   25.2504 C   0  0  0  0  0  0  0  0  0  0  0  0
   12.6786  -17.5128   24.7093 C   0  0  0  0  0  0  0  0  0  0  0  0
   11.2260  -17.5920   25.0266 C   0  0  2  0  0  0  0  0  0  0  0  0
   10.5720  -16.3793   24.5583 N   0  0  0  0  0  0  0  0  0  0  0  0
   11.0127  -17.7474   26.4874 C   0  0  0  0  0  0  0  0  0  0  0  0
   11.1358  -19.0046   27.0452 O   0  0  0  0  0  0  0  0  0  0  0  0
   10.7285  -16.7829   27.2155 O   0  0  0  0  0  0  0  0  0  0  0  0
  1  2  1  0
  2  4  1  0
  3  2  2  0
  5  4  1  0
  6  5  1  0
  6  7  1  1
  8  6  1  0
  8  9  2  0
 10  8  1  0
 11 10  1  0
 11 14  1  0
 11 12  1  1
 13 12  1  0
 14 22  1  0
 15 14  2  0
 17 16  1  0
 17 19  1  0
 18 17  2  0
 19 20  1  0
 21 20  1  1
 21 23  1  0
 22 21  1  0
 23 25  2  0
 23 24  1  0
M  END
$$$$
