QCQ.pdb
     RDKit          3D

 25 24  0  0  1  0  0  0  0  0999 V2000
    9.3929  -13.0182   17.8019 N   0  0  0  0  0  0  0  0  0  0  0  0
    8.1897  -13.7738   17.5933 C   0  0  0  0  0  0  0  0  0  0  0  0
    7.9585  -14.1671   16.4363 O   0  0  0  0  0  0  0  0  0  0  0  0
    7.3220  -14.0297   18.7221 C   0  0  0  0  0  0  0  0  0  0  0  0
    7.8101  -13.5824   20.0650 C   0  0  0  0  0  0  0  0  0  0  0  0
    7.9258  -14.6417   21.0973 C   0  0  2  0  0  0  0  0  0  0  0  0
    6.7221  -15.4037   21.2162 N   0  0  0  0  0  0  0  0  0  0  0  0
    8.2692  -14.0830   22.4431 C   0  0  0  0  0  0  0  0  0  0  0  0
    9.3695  -13.5032   22.6363 O   0  0  0  0  0  0  0  0  0  0  0  0
    7.3980  -14.1706   23.5564 N   0  0  0  0  0  0  0  0  0  0  0  0
    7.7497  -13.7516   24.8839 C   0  0  1  0  0  0  0  0  0  0  0  0
    6.7827  -12.8461   25.5410 C   0  0  0  0  0  0  0  0  0  0  0  0
    7.3212  -12.4960   27.2584 S   0  0  0  0  0  0  0  0  0  0  0  0
    7.9497  -14.9641   25.7469 C   0  0  0  0  0  0  0  0  0  0  0  0
    7.0518  -15.8402   25.8251 O   0  0  0  0  0  0  0  0  0  0  0  0
   10.8235  -18.2637   23.4335 N   0  0  0  0  0  0  0  0  0  0  0  0
   11.5238  -18.1201   24.6847 C   0  0  0  0  0  0  0  0  0  0  0  0
   12.4462  -18.9253   24.8889 O   0  0  0  0  0  0  0  0  0  0  0  0
   11.0950  -17.0576   25.5856 C   0  0  0  0  0  0  0  0  0  0  0  0
    9.8425  -17.4219   26.3148 C   0  0  0  0  0  0  0  0  0  0  0  0
    9.4447  -16.3334   27.2498 C   0  0  2  0  0  0  0  0  0  0  0  0
    9.1537  -15.1321   26.4818 N   0  0  0  0  0  0  0  0  0  0  0  0
   10.5263  -16.0564   28.2280 C   0  0  0  0  0  0  0  0  0  0  0  0
   10.9314  -17.0706   29.0731 O   0  0  0  0  0  0  0  0  0  0  0  0
   11.0724  -14.9443   28.3052 O   0  0  0  0  0  0  0  0  0  0  0  0
  1  2  1  0
  2  4  1  0
  3  2  2  0
  5  4  1  0
  6  5  1  0
  6  7  1  1
  8  6  1  0
  8  9  2  0
 10  8  1  0
 11 10  1  0
 11 14  1  0
 11 12  1  1
 13 12  1  0
 14 22  1  0
 15 14  2  0
 17 16  1  0
 17 19  1  0
 18 17  2  0
 19 20  1  0
 21 20  1  6
 21 23  1  0
 22 21  1  0
 23 25  2  0
 23 24  1  0
M  END
$$$$
