QCQ.pdb
     RDKit          3D

 25 24  0  0  1  0  0  0  0  0999 V2000
    9.8468  -17.2597   14.7713 N   0  0  0  0  0  0  0  0  0  0  0  0
    8.4414  -17.1354   15.0387 C   0  0  0  0  0  0  0  0  0  0  0  0
    7.6626  -17.3244   14.0878 O   0  0  0  0  0  0  0  0  0  0  0  0
    8.0134  -16.7981   16.3788 C   0  0  0  0  0  0  0  0  0  0  0  0
    9.0886  -16.5950   17.4008 C   0  0  0  0  0  0  0  0  0  0  0  0
    8.9085  -17.3203   18.6825 C   0  0  2  0  0  0  0  0  0  0  0  0
    7.5386  -17.6546   18.9177 N   0  0  0  0  0  0  0  0  0  0  0  0
    9.4129  -16.5333   19.8519 C   0  0  0  0  0  0  0  0  0  0  0  0
   10.6064  -16.1357   19.8920 O   0  0  0  0  0  0  0  0  0  0  0  0
    8.5978  -16.1957   20.9599 N   0  0  0  0  0  0  0  0  0  0  0  0
    9.0784  -15.5189   22.1314 C   0  0  1  0  0  0  0  0  0  0  0  0
    8.0327  -15.0228   23.0519 C   0  0  0  0  0  0  0  0  0  0  0  0
    6.4650  -14.7647   22.1366 S   0  0  0  0  0  0  0  0  0  0  0  0
   10.0010  -16.4328   22.8853 C   0  0  0  0  0  0  0  0  0  0  0  0
    9.7296  -17.6551   22.9960 O   0  0  0  0  0  0  0  0  0  0  0  0
   17.0183  -17.5212   23.2778 N   0  0  0  0  0  0  0  0  0  0  0  0
   15.9821  -16.5676   23.5833 C   0  0  0  0  0  0  0  0  0  0  0  0
   16.2855  -15.3713   23.4499 O   0  0  0  0  0  0  0  0  0  0  0  0
   14.6888  -17.0835   24.0138 C   0  0  0  0  0  0  0  0  0  0  0  0
   13.5593  -16.2714   23.4681 C   0  0  0  0  0  0  0  0  0  0  0  0
   12.2541  -16.7878   23.9653 C   0  0  2  0  0  0  0  0  0  0  0  0
   11.1874  -15.9253   23.4795 N   0  0  0  0  0  0  0  0  0  0  0  0
   12.2331  -16.8279   25.4490 C   0  0  0  0  0  0  0  0  0  0  0  0
   12.9055  -17.8471   26.0941 O   0  0  0  0  0  0  0  0  0  0  0  0
   11.6309  -15.9748   26.1202 O   0  0  0  0  0  0  0  0  0  0  0  0
  1  2  1  0
  2  4  1  0
  3  2  2  0
  5  4  1  0
  6  5  1  0
  6  7  1  1
  8  6  1  0
  8  9  2  0
 10  8  1  0
 11 10  1  0
 11 14  1  0
 11 12  1  1
 13 12  1  0
 14 22  1  0
 15 14  2  0
 17 16  1  0
 17 19  1  0
 18 17  2  0
 19 20  1  0
 21 20  1  1
 21 23  1  0
 22 21  1  0
 23 25  2  0
 23 24  1  0
M  END
$$$$
