QCQ.pdb
     RDKit          3D

 25 24  0  0  1  0  0  0  0  0999 V2000
    9.6538  -13.1239   17.1385 N   0  0  0  0  0  0  0  0  0  0  0  0
    8.5859  -13.9941   16.7328 C   0  0  0  0  0  0  0  0  0  0  0  0
    8.6343  -14.4538   15.5782 O   0  0  0  0  0  0  0  0  0  0  0  0
    7.5250  -14.2819   17.6732 C   0  0  0  0  0  0  0  0  0  0  0  0
    7.7176  -13.8006   19.0778 C   0  0  0  0  0  0  0  0  0  0  0  0
    8.2748  -14.7917   20.0309 C   0  0  2  0  0  0  0  0  0  0  0  0
    7.4681  -15.9693   20.1074 N   0  0  0  0  0  0  0  0  0  0  0  0
    8.4234  -14.2272   21.4095 C   0  0  0  0  0  0  0  0  0  0  0  0
    9.1452  -13.2170   21.6157 O   0  0  0  0  0  0  0  0  0  0  0  0
    7.7764  -14.7822   22.5407 N   0  0  0  0  0  0  0  0  0  0  0  0
    7.9555  -14.3018   23.8819 C   0  0  1  0  0  0  0  0  0  0  0  0
    6.7127  -14.1197   24.6622 C   0  0  0  0  0  0  0  0  0  0  0  0
    5.8980  -15.7407   24.9281 S   0  0  0  0  0  0  0  0  0  0  0  0
    8.8664  -15.2375   24.6232 C   0  0  0  0  0  0  0  0  0  0  0  0
    9.2549  -16.3035   24.0823 O   0  0  0  0  0  0  0  0  0  0  0  0
   11.9404  -16.4767   31.2626 N   0  0  0  0  0  0  0  0  0  0  0  0
   11.0439  -15.7940   30.3645 C   0  0  0  0  0  0  0  0  0  0  0  0
   10.3916  -14.8573   30.8526 O   0  0  0  0  0  0  0  0  0  0  0  0
   10.9839  -16.2551   28.9832 C   0  0  0  0  0  0  0  0  0  0  0  0
   10.2597  -15.2853   28.1067 C   0  0  0  0  0  0  0  0  0  0  0  0
   10.1476  -15.8149   26.7195 C   0  0  2  0  0  0  0  0  0  0  0  0
    9.2973  -14.9270   25.9408 N   0  0  0  0  0  0  0  0  0  0  0  0
    9.5765  -17.1850   26.7222 C   0  0  0  0  0  0  0  0  0  0  0  0
   10.4395  -18.2628   26.7044 O   0  0  0  0  0  0  0  0  0  0  0  0
    8.3515  -17.3855   26.7401 O   0  0  0  0  0  0  0  0  0  0  0  0
  1  2  1  0
  2  4  1  0
  3  2  2  0
  5  4  1  0
  6  5  1  0
  6  7  1  1
  8  6  1  0
  8  9  2  0
 10  8  1  0
 11 10  1  0
 11 14  1  0
 11 12  1  1
 13 12  1  0
 14 22  1  0
 15 14  2  0
 17 16  1  0
 17 19  1  0
 18 17  2  0
 19 20  1  0
 21 20  1  1
 21 23  1  0
 22 21  1  0
 23 25  2  0
 23 24  1  0
M  END
$$$$
