QCQ.pdb
     RDKit          3D

 25 24  0  0  1  0  0  0  0  0999 V2000
    9.5371  -13.9517   17.2837 N   0  0  0  0  0  0  0  0  0  0  0  0
    8.1125  -13.8552   17.1309 C   0  0  0  0  0  0  0  0  0  0  0  0
    7.6439  -14.0937   16.0039 O   0  0  0  0  0  0  0  0  0  0  0  0
    7.3112  -13.4874   18.2778 C   0  0  0  0  0  0  0  0  0  0  0  0
    8.0226  -13.3702   19.5900 C   0  0  0  0  0  0  0  0  0  0  0  0
    7.8397  -14.5043   20.5289 C   0  0  2  0  0  0  0  0  0  0  0  0
    6.4674  -14.8899   20.6378 N   0  0  0  0  0  0  0  0  0  0  0  0
    8.3553  -14.1914   21.8990 C   0  0  0  0  0  0  0  0  0  0  0  0
    9.5459  -13.8201   22.0681 O   0  0  0  0  0  0  0  0  0  0  0  0
    7.5543  -14.2918   23.0628 N   0  0  0  0  0  0  0  0  0  0  0  0
    8.0525  -14.1072   24.3967 C   0  0  1  0  0  0  0  0  0  0  0  0
    7.0997  -13.5024   25.3524 C   0  0  0  0  0  0  0  0  0  0  0  0
    5.6720  -14.6245   25.6067 S   0  0  0  0  0  0  0  0  0  0  0  0
    8.5156  -15.4294   24.9374 C   0  0  0  0  0  0  0  0  0  0  0  0
    7.8215  -16.4626   24.7628 O   0  0  0  0  0  0  0  0  0  0  0  0
   14.2800  -16.1390   23.9175 N   0  0  0  0  0  0  0  0  0  0  0  0
   14.0427  -17.4297   24.5127 C   0  0  0  0  0  0  0  0  0  0  0  0
   14.9962  -18.2244   24.4899 O   0  0  0  0  0  0  0  0  0  0  0  0
   12.7252  -17.6841   25.0815 C   0  0  0  0  0  0  0  0  0  0  0  0
   11.8713  -16.4578   25.0708 C   0  0  0  0  0  0  0  0  0  0  0  0
   10.5413  -16.7395   25.6783 C   0  0  2  0  0  0  0  0  0  0  0  0
    9.7407  -15.5246   25.6502 N   0  0  0  0  0  0  0  0  0  0  0  0
   10.6898  -17.2127   27.0774 C   0  0  0  0  0  0  0  0  0  0  0  0
   10.4203  -16.3327   28.1069 O   0  0  0  0  0  0  0  0  0  0  0  0
   11.0476  -18.3711   27.3440 O   0  0  0  0  0  0  0  0  0  0  0  0
  1  2  1  0
  2  4  1  0
  3  2  2  0
  5  4  1  0
  6  5  1  0
  6  7  1  1
  8  6  1  0
  8  9  2  0
 10  8  1  0
 11 10  1  0
 11 14  1  0
 11 12  1  1
 13 12  1  0
 14 22  1  0
 15 14  2  0
 17 16  1  0
 17 19  1  0
 18 17  2  0
 19 20  1  0
 21 20  1  1
 21 23  1  0
 22 21  1  0
 23 25  2  0
 23 24  1  0
M  END
$$$$
