IYG.pdb
     RDKit          3D

 25 25  0  0  1  0  0  0  0  0999 V2000
    9.8567  -17.9656   18.4287 C   0  0  0  0  0  0  0  0  0  0  0  0
    9.5103  -16.5120   18.7287 C   0  0  0  0  0  0  0  0  0  0  0  0
    8.0289  -16.3638   18.7352 C   0  0  2  0  0  0  0  0  0  0  0  0
    7.3879  -16.8666   17.4547 C   0  0  0  0  0  0  0  0  0  0  0  0
    7.5306  -15.0216   19.1422 C   0  0  2  0  0  0  0  0  0  0  0  0
    7.9571  -14.0599   18.1077 N   0  0  0  0  0  0  0  0  0  0  0  0
    7.9498  -14.5349   20.4550 C   0  0  0  0  0  0  0  0  0  0  0  0
    8.8824  -13.6525   20.5028 O   0  0  0  0  0  0  0  0  0  0  0  0
    7.1230  -11.5806   28.8317 O   0  0  0  0  0  0  0  0  0  0  0  0
    6.9739  -12.2164   27.6143 C   0  0  0  0  0  0  0  0  0  0  0  0
    6.1830  -11.7561   26.5985 C   0  0  0  0  0  0  0  0  0  0  0  0
    6.0685  -12.4249   25.4079 C   0  0  0  0  0  0  0  0  0  0  0  0
    6.7533  -13.6049   25.1789 C   0  0  0  0  0  0  0  0  0  0  0  0
    6.6085  -14.3015   23.8996 C   0  0  0  0  0  0  0  0  0  0  0  0
    7.7541  -14.1608   22.9421 C   0  0  2  0  0  0  0  0  0  0  0  0
    7.4478  -14.9177   21.7137 N   0  0  0  0  0  0  0  0  0  0  0  0
    8.9997  -14.6942   23.5004 C   0  0  0  0  0  0  0  0  0  0  0  0
    9.5092  -14.1131   24.5169 O   0  0  0  0  0  0  0  0  0  0  0  0
    7.5561  -14.0757   26.2045 C   0  0  0  0  0  0  0  0  0  0  0  0
    7.6629  -13.3982   27.3909 C   0  0  0  0  0  0  0  0  0  0  0  0
    9.7154  -15.8166   23.0255 N   0  0  0  0  0  0  0  0  0  0  0  0
   10.8875  -16.3535   23.6721 C   0  0  0  0  0  0  0  0  0  0  0  0
   11.4471  -17.5525   23.0467 C   0  0  0  0  0  0  0  0  0  0  0  0
   12.5659  -18.1446   23.5933 O   0  0  0  0  0  0  0  0  0  0  0  0
   10.9262  -18.0444   22.0279 O   0  0  0  0  0  0  0  0  0  0  0  0
  2  1  1  0
  3  2  1  0
  3  5  1  0
  3  4  1  6
  5  7  1  0
  5  6  1  6
  7  8  2  0
  9 10  1  0
 10 20  2  0
 10 11  1  0
 11 12  2  0
 12 13  1  0
 13 14  1  0
 15 14  1  1
 16 15  1  0
 16  7  1  0
 17 21  1  0
 17 15  1  0
 18 17  2  0
 19 13  2  0
 20 19  1  0
 22 21  1  0
 23 22  1  0
 24 23  1  0
 25 23  2  0
M  END
$$$$
