IYG.pdb
     RDKit          3D

 25 25  0  0  1  0  0  0  0  0999 V2000
    6.3083  -12.8525   18.7449 C   0  0  0  0  0  0  0  0  0  0  0  0
    6.9967  -14.1588   19.1225 C   0  0  0  0  0  0  0  0  0  0  0  0
    7.9260  -13.9006   20.2566 C   0  0  2  0  0  0  0  0  0  0  0  0
    8.8800  -12.7536   19.9779 C   0  0  0  0  0  0  0  0  0  0  0  0
    8.6134  -15.1054   20.7962 C   0  0  2  0  0  0  0  0  0  0  0  0
    7.6128  -16.1870   20.8742 N   0  0  0  0  0  0  0  0  0  0  0  0
    9.2700  -14.9619   22.0941 C   0  0  0  0  0  0  0  0  0  0  0  0
   10.2950  -14.1911   22.1707 O   0  0  0  0  0  0  0  0  0  0  0  0
   11.1782  -15.0281   30.8167 O   0  0  0  0  0  0  0  0  0  0  0  0
   10.5846  -15.1549   29.5757 C   0  0  0  0  0  0  0  0  0  0  0  0
   10.2530  -16.3502   29.0008 C   0  0  0  0  0  0  0  0  0  0  0  0
    9.6649  -16.4227   27.7651 C   0  0  0  0  0  0  0  0  0  0  0  0
    9.3784  -15.2809   27.0387 C   0  0  0  0  0  0  0  0  0  0  0  0
    8.7546  -15.3876   25.7187 C   0  0  0  0  0  0  0  0  0  0  0  0
    9.6908  -15.3738   24.5471 C   0  0  2  0  0  0  0  0  0  0  0  0
    8.9133  -15.5762   23.3100 N   0  0  0  0  0  0  0  0  0  0  0  0
   10.6868  -16.4454   24.6328 C   0  0  0  0  0  0  0  0  0  0  0  0
   11.6830  -16.2894   25.4162 O   0  0  0  0  0  0  0  0  0  0  0  0
    9.7120  -14.0673   27.6164 C   0  0  0  0  0  0  0  0  0  0  0  0
   10.2999  -14.0071   28.8528 C   0  0  0  0  0  0  0  0  0  0  0  0
   10.6609  -17.6693   23.9262 N   0  0  0  0  0  0  0  0  0  0  0  0
   11.7086  -18.6580   23.9950 C   0  0  0  0  0  0  0  0  0  0  0  0
   11.7718  -19.4092   25.2494 C   0  0  0  0  0  0  0  0  0  0  0  0
   10.8866  -19.1129   26.2641 O   0  0  0  0  0  0  0  0  0  0  0  0
   12.6144  -20.3120   25.4120 O   0  0  0  0  0  0  0  0  0  0  0  0
  2  1  1  0
  3  2  1  0
  3  5  1  0
  3  4  1  6
  5  7  1  0
  5  6  1  1
  7  8  2  0
  9 10  1  0
 10 20  2  0
 10 11  1  0
 11 12  2  0
 12 13  1  0
 13 14  1  0
 15 14  1  1
 16 15  1  0
 16  7  1  0
 17 21  1  0
 17 15  1  0
 18 17  2  0
 19 13  2  0
 20 19  1  0
 22 21  1  0
 23 22  1  0
 24 23  1  0
 25 23  2  0
M  END
$$$$
