IYG.pdb
     RDKit          3D

 25 25  0  0  1  0  0  0  0  0999 V2000
    7.0242  -11.4884   26.6427 C   0  0  0  0  0  0  0  0  0  0  0  0
    7.3106  -12.9497   26.3177 C   0  0  0  0  0  0  0  0  0  0  0  0
    6.7180  -13.2705   24.9902 C   0  0  2  0  0  0  0  0  0  0  0  0
    5.2067  -13.1317   24.9783 C   0  0  0  0  0  0  0  0  0  0  0  0
    7.1857  -14.5459   24.3818 C   0  0  2  0  0  0  0  0  0  0  0  0
    6.5547  -15.6497   25.1303 N   0  0  0  0  0  0  0  0  0  0  0  0
    8.6306  -14.7604   24.3335 C   0  0  0  0  0  0  0  0  0  0  0  0
    9.3489  -13.8982   23.7079 O   0  0  0  0  0  0  0  0  0  0  0  0
   10.6596  -15.0588   31.2346 O   0  0  0  0  0  0  0  0  0  0  0  0
   10.8264  -15.5228   29.9441 C   0  0  0  0  0  0  0  0  0  0  0  0
   11.0078  -16.8380   29.6176 C   0  0  0  0  0  0  0  0  0  0  0  0
   11.1692  -17.2481   28.3200 C   0  0  0  0  0  0  0  0  0  0  0  0
   11.1557  -16.3424   27.2745 C   0  0  0  0  0  0  0  0  0  0  0  0
   11.3358  -16.8072   25.8981 C   0  0  0  0  0  0  0  0  0  0  0  0
   10.8326  -15.8895   24.8240 C   0  0  2  0  0  0  0  0  0  0  0  0
    9.3612  -15.8213   24.9025 N   0  0  0  0  0  0  0  0  0  0  0  0
   11.1900  -16.3688   23.4861 C   0  0  0  0  0  0  0  0  0  0  0  0
   12.3651  -16.1298   23.0475 O   0  0  0  0  0  0  0  0  0  0  0  0
   10.9721  -15.0088   27.5994 C   0  0  0  0  0  0  0  0  0  0  0  0
   10.8117  -14.6105   28.9008 C   0  0  0  0  0  0  0  0  0  0  0  0
   10.3530  -17.0918   22.6059 N   0  0  0  0  0  0  0  0  0  0  0  0
   10.8076  -17.6856   21.3727 C   0  0  0  0  0  0  0  0  0  0  0  0
    9.8284  -18.5372   20.6959 C   0  0  0  0  0  0  0  0  0  0  0  0
    9.1306  -19.4792   21.4217 O   0  0  0  0  0  0  0  0  0  0  0  0
    9.6176  -18.4221   19.4738 O   0  0  0  0  0  0  0  0  0  0  0  0
  2  1  1  0
  3  2  1  0
  3  5  1  0
  3  4  1  1
  5  7  1  0
  5  6  1  1
  7  8  2  0
  9 10  1  0
 10 20  2  0
 10 11  1  0
 11 12  2  0
 12 13  1  0
 13 14  1  0
 15 14  1  1
 16 15  1  0
 16  7  1  0
 17 21  1  0
 17 15  1  0
 18 17  2  0
 19 13  2  0
 20 19  1  0
 22 21  1  0
 23 22  1  0
 24 23  1  0
 25 23  2  0
M  END
$$$$
