IYG.pdb
     RDKit          3D

 25 25  0  0  1  0  0  0  0  0999 V2000
    8.3513  -16.2073   15.8401 C   0  0  0  0  0  0  0  0  0  0  0  0
    7.7675  -14.9749   16.5207 C   0  0  0  0  0  0  0  0  0  0  0  0
    8.1705  -14.9826   17.9539 C   0  0  2  0  0  0  0  0  0  0  0  0
    8.0010  -16.3459   18.5989 C   0  0  0  0  0  0  0  0  0  0  0  0
    7.6010  -13.8800   18.7756 C   0  0  2  0  0  0  0  0  0  0  0  0
    7.9363  -12.6099   18.1037 N   0  0  0  0  0  0  0  0  0  0  0  0
    8.0265  -13.8134   20.1722 C   0  0  0  0  0  0  0  0  0  0  0  0
    9.2254  -13.4241   20.4207 O   0  0  0  0  0  0  0  0  0  0  0  0
    7.8582  -12.7577   29.0293 O   0  0  0  0  0  0  0  0  0  0  0  0
    7.6182  -12.8425   27.6714 C   0  0  0  0  0  0  0  0  0  0  0  0
    8.2729  -12.1012   26.7275 C   0  0  0  0  0  0  0  0  0  0  0  0
    7.9977  -12.2222   25.3905 C   0  0  0  0  0  0  0  0  0  0  0  0
    7.0376  -13.1067   24.9328 C   0  0  0  0  0  0  0  0  0  0  0  0
    6.7600  -13.2120   23.4994 C   0  0  0  0  0  0  0  0  0  0  0  0
    7.7929  -13.9285   22.6815 C   0  0  2  0  0  0  0  0  0  0  0  0
    7.2695  -14.1286   21.3170 N   0  0  0  0  0  0  0  0  0  0  0  0
    8.1117  -15.2458   23.2388 C   0  0  0  0  0  0  0  0  0  0  0  0
    7.2603  -16.1875   23.1008 O   0  0  0  0  0  0  0  0  0  0  0  0
    6.3714  -13.8604   25.8847 C   0  0  0  0  0  0  0  0  0  0  0  0
    6.6552  -13.7308   27.2191 C   0  0  0  0  0  0  0  0  0  0  0  0
    9.2947  -15.5983   23.9273 N   0  0  0  0  0  0  0  0  0  0  0  0
    9.4968  -16.8702   24.5764 C   0  0  0  0  0  0  0  0  0  0  0  0
   10.1784  -17.8797   23.7652 C   0  0  0  0  0  0  0  0  0  0  0  0
   11.2368  -18.5816   24.3022 O   0  0  0  0  0  0  0  0  0  0  0  0
    9.8151  -18.1128   22.5968 O   0  0  0  0  0  0  0  0  0  0  0  0
  2  1  1  0
  3  2  1  0
  3  5  1  0
  3  4  1  1
  5  7  1  0
  5  6  1  6
  7  8  2  0
  9 10  1  0
 10 20  2  0
 10 11  1  0
 11 12  2  0
 12 13  1  0
 13 14  1  0
 15 14  1  1
 16 15  1  0
 16  7  1  0
 17 21  1  0
 17 15  1  0
 18 17  2  0
 19 13  2  0
 20 19  1  0
 22 21  1  0
 23 22  1  0
 24 23  1  0
 25 23  2  0
M  END
$$$$
