IYG.pdb
     RDKit          3D

 25 25  0  0  1  0  0  0  0  0999 V2000
    8.1858  -16.3019   16.1443 C   0  0  0  0  0  0  0  0  0  0  0  0
    7.8764  -14.9384   16.7510 C   0  0  0  0  0  0  0  0  0  0  0  0
    8.1744  -14.9836   18.2089 C   0  0  2  0  0  0  0  0  0  0  0  0
    7.7131  -16.2759   18.8575 C   0  0  0  0  0  0  0  0  0  0  0  0
    7.7651  -13.7748   18.9747 C   0  0  2  0  0  0  0  0  0  0  0  0
    8.3477  -12.6025   18.2940 N   0  0  0  0  0  0  0  0  0  0  0  0
    8.1269  -13.7393   20.3903 C   0  0  0  0  0  0  0  0  0  0  0  0
    9.3576  -13.5306   20.6943 O   0  0  0  0  0  0  0  0  0  0  0  0
    7.9065  -12.9308   29.2743 O   0  0  0  0  0  0  0  0  0  0  0  0
    7.5937  -13.0290   27.9323 C   0  0  0  0  0  0  0  0  0  0  0  0
    6.7736  -13.9859   27.4023 C   0  0  0  0  0  0  0  0  0  0  0  0
    6.4941  -14.0408   26.0618 C   0  0  0  0  0  0  0  0  0  0  0  0
    7.0337  -13.1233   25.1783 C   0  0  0  0  0  0  0  0  0  0  0  0
    6.7226  -13.2084   23.7504 C   0  0  0  0  0  0  0  0  0  0  0  0
    7.7732  -13.8396   22.8861 C   0  0  2  0  0  0  0  0  0  0  0  0
    7.2754  -13.9077   21.4992 N   0  0  0  0  0  0  0  0  0  0  0  0
    8.0873  -15.2040   23.3187 C   0  0  0  0  0  0  0  0  0  0  0  0
    8.6072  -15.3723   24.4729 O   0  0  0  0  0  0  0  0  0  0  0  0
    7.8650  -12.1515   25.7098 C   0  0  0  0  0  0  0  0  0  0  0  0
    8.1372  -12.1065   27.0521 C   0  0  0  0  0  0  0  0  0  0  0  0
    7.8663  -16.3876   22.5784 N   0  0  0  0  0  0  0  0  0  0  0  0
    8.1633  -17.7099   23.0715 C   0  0  0  0  0  0  0  0  0  0  0  0
    9.5835  -18.0634   23.0835 C   0  0  0  0  0  0  0  0  0  0  0  0
    9.9689  -19.3133   23.5197 O   0  0  0  0  0  0  0  0  0  0  0  0
   10.4477  -17.2503   22.7050 O   0  0  0  0  0  0  0  0  0  0  0  0
  2  1  1  0
  3  2  1  0
  3  5  1  0
  3  4  1  1
  5  7  1  0
  5  6  1  6
  7  8  2  0
  9 10  1  0
 10 20  2  0
 10 11  1  0
 11 12  2  0
 12 13  1  0
 13 14  1  0
 15 14  1  1
 16 15  1  0
 16  7  1  0
 17 21  1  0
 17 15  1  0
 18 17  2  0
 19 13  2  0
 20 19  1  0
 22 21  1  0
 23 22  1  0
 24 23  1  0
 25 23  2  0
M  END
$$$$
