IYG.pdb
     RDKit          3D

 25 25  0  0  1  0  0  0  0  0999 V2000
    6.4528  -12.7548   18.7277 C   0  0  0  0  0  0  0  0  0  0  0  0
    7.0419  -14.0925   19.1596 C   0  0  0  0  0  0  0  0  0  0  0  0
    8.0194  -13.8540   20.2569 C   0  0  2  0  0  0  0  0  0  0  0  0
    9.0188  -12.7629   19.9191 C   0  0  0  0  0  0  0  0  0  0  0  0
    8.6642  -15.0784   20.8050 C   0  0  2  0  0  0  0  0  0  0  0  0
    7.6354  -16.1347   20.8550 N   0  0  0  0  0  0  0  0  0  0  0  0
    9.2953  -14.9577   22.1177 C   0  0  0  0  0  0  0  0  0  0  0  0
   10.4270  -14.3539   22.1910 O   0  0  0  0  0  0  0  0  0  0  0  0
   10.8941  -15.0786   30.9211 O   0  0  0  0  0  0  0  0  0  0  0  0
   10.3294  -15.1704   29.6636 C   0  0  0  0  0  0  0  0  0  0  0  0
    9.9973  -16.3485   29.0543 C   0  0  0  0  0  0  0  0  0  0  0  0
    9.4387  -16.3864   27.8035 C   0  0  0  0  0  0  0  0  0  0  0  0
    9.1839  -15.2253   27.0961 C   0  0  0  0  0  0  0  0  0  0  0  0
    8.5912  -15.2950   25.7594 C   0  0  0  0  0  0  0  0  0  0  0  0
    9.5541  -15.2439   24.6108 C   0  0  2  0  0  0  0  0  0  0  0  0
    8.8085  -15.4303   23.3517 N   0  0  0  0  0  0  0  0  0  0  0  0
   10.5626  -16.3037   24.6975 C   0  0  0  0  0  0  0  0  0  0  0  0
   11.4247  -16.2482   25.6379 O   0  0  0  0  0  0  0  0  0  0  0  0
    9.5180  -14.0290   27.7086 C   0  0  0  0  0  0  0  0  0  0  0  0
   10.0762  -14.0035   28.9599 C   0  0  0  0  0  0  0  0  0  0  0  0
   10.6846  -17.4144   23.8320 N   0  0  0  0  0  0  0  0  0  0  0  0
   11.6094  -18.5004   24.0454 C   0  0  0  0  0  0  0  0  0  0  0  0
   12.9309  -18.3175   23.4436 C   0  0  0  0  0  0  0  0  0  0  0  0
   13.1767  -17.2033   22.6695 O   0  0  0  0  0  0  0  0  0  0  0  0
   13.8357  -19.1549   23.6215 O   0  0  0  0  0  0  0  0  0  0  0  0
  2  1  1  0
  3  2  1  0
  3  5  1  0
  3  4  1  6
  5  7  1  0
  5  6  1  1
  7  8  2  0
  9 10  1  0
 10 20  2  0
 10 11  1  0
 11 12  2  0
 12 13  1  0
 13 14  1  0
 15 14  1  1
 16 15  1  0
 16  7  1  0
 17 21  1  0
 17 15  1  0
 18 17  2  0
 19 13  2  0
 20 19  1  0
 22 21  1  0
 23 22  1  0
 24 23  1  0
 25 23  2  0
M  END
$$$$
