IYG.pdb
     RDKit          3D

 25 25  0  0  1  0  0  0  0  0999 V2000
    7.2618  -12.8321   19.9049 C   0  0  0  0  0  0  0  0  0  0  0  0
    6.7383  -13.6988   21.0441 C   0  0  0  0  0  0  0  0  0  0  0  0
    7.8925  -14.3595   21.7131 C   0  0  2  0  0  0  0  0  0  0  0  0
    8.8721  -14.9626   20.7231 C   0  0  0  0  0  0  0  0  0  0  0  0
    7.5333  -15.2954   22.8133 C   0  0  2  0  0  0  0  0  0  0  0  0
    6.5416  -14.6136   23.6669 N   0  0  0  0  0  0  0  0  0  0  0  0
    8.6308  -15.7841   23.6456 C   0  0  0  0  0  0  0  0  0  0  0  0
    9.0797  -15.0112   24.5685 O   0  0  0  0  0  0  0  0  0  0  0  0
    7.1367  -19.4093   29.6618 O   0  0  0  0  0  0  0  0  0  0  0  0
    7.8530  -19.2701   28.4888 C   0  0  0  0  0  0  0  0  0  0  0  0
    7.3503  -19.5348   27.2452 C   0  0  0  0  0  0  0  0  0  0  0  0
    8.1029  -19.3810   26.1103 C   0  0  0  0  0  0  0  0  0  0  0  0
    9.4151  -18.9477   26.1729 C   0  0  0  0  0  0  0  0  0  0  0  0
   10.1980  -18.7972   24.9452 C   0  0  0  0  0  0  0  0  0  0  0  0
   10.3958  -17.3917   24.4608 C   0  0  2  0  0  0  0  0  0  0  0  0
    9.2795  -17.0315   23.5664 N   0  0  0  0  0  0  0  0  0  0  0  0
   11.6429  -17.2462   23.7050 C   0  0  0  0  0  0  0  0  0  0  0  0
   12.7374  -17.1313   24.3526 O   0  0  0  0  0  0  0  0  0  0  0  0
    9.9295  -18.6779   27.4301 C   0  0  0  0  0  0  0  0  0  0  0  0
    9.1673  -18.8354   28.5580 C   0  0  0  0  0  0  0  0  0  0  0  0
   11.7695  -17.2237   22.2975 N   0  0  0  0  0  0  0  0  0  0  0  0
   13.0338  -17.1592   21.6064 C   0  0  0  0  0  0  0  0  0  0  0  0
   12.9420  -17.1279   20.1460 C   0  0  0  0  0  0  0  0  0  0  0  0
   14.0837  -16.9352   19.3975 O   0  0  0  0  0  0  0  0  0  0  0  0
   11.8466  -17.2730   19.5712 O   0  0  0  0  0  0  0  0  0  0  0  0
  2  1  1  0
  3  2  1  0
  3  5  1  0
  3  4  1  6
  5  7  1  0
  5  6  1  1
  7  8  2  0
  9 10  1  0
 10 20  2  0
 10 11  1  0
 11 12  2  0
 12 13  1  0
 13 14  1  0
 15 14  1  6
 16 15  1  0
 16  7  1  0
 17 21  1  0
 17 15  1  0
 18 17  2  0
 19 13  2  0
 20 19  1  0
 22 21  1  0
 23 22  1  0
 24 23  1  0
 25 23  2  0
M  END
$$$$
