IYG.pdb
     RDKit          3D

 25 25  0  0  1  0  0  0  0  0999 V2000
    7.4224  -12.7914   18.1861 C   0  0  0  0  0  0  0  0  0  0  0  0
    6.9154  -13.9760   19.0001 C   0  0  0  0  0  0  0  0  0  0  0  0
    7.5607  -13.9472   20.3415 C   0  0  2  0  0  0  0  0  0  0  0  0
    9.0747  -13.8830   20.2579 C   0  0  0  0  0  0  0  0  0  0  0  0
    7.0783  -14.9820   21.2963 C   0  0  2  0  0  0  0  0  0  0  0  0
    5.6040  -14.9835   21.2384 N   0  0  0  0  0  0  0  0  0  0  0  0
    7.5058  -14.8438   22.6871 C   0  0  0  0  0  0  0  0  0  0  0  0
    7.1406  -13.7931   23.3300 O   0  0  0  0  0  0  0  0  0  0  0  0
   11.0295  -14.8908   30.7579 O   0  0  0  0  0  0  0  0  0  0  0  0
   10.4116  -15.1431   29.5482 C   0  0  0  0  0  0  0  0  0  0  0  0
    9.8003  -14.1887   28.7836 C   0  0  0  0  0  0  0  0  0  0  0  0
    9.2003  -14.4904   27.5891 C   0  0  0  0  0  0  0  0  0  0  0  0
    9.1862  -15.7843   27.0999 C   0  0  0  0  0  0  0  0  0  0  0  0
    8.5333  -16.0795   25.8234 C   0  0  0  0  0  0  0  0  0  0  0  0
    9.0371  -15.3145   24.6359 C   0  0  2  0  0  0  0  0  0  0  0  0
    8.2890  -15.7412   23.4384 N   0  0  0  0  0  0  0  0  0  0  0  0
   10.4600  -15.5644   24.3902 C   0  0  0  0  0  0  0  0  0  0  0  0
   11.3168  -15.0126   25.1596 O   0  0  0  0  0  0  0  0  0  0  0  0
    9.8041  -16.7551   27.8703 C   0  0  0  0  0  0  0  0  0  0  0  0
   10.4010  -16.4415   29.0634 C   0  0  0  0  0  0  0  0  0  0  0  0
   11.0018  -16.3771   23.3685 N   0  0  0  0  0  0  0  0  0  0  0  0
   12.4162  -16.5592   23.1532 C   0  0  0  0  0  0  0  0  0  0  0  0
   13.0684  -17.4940   24.0712 C   0  0  0  0  0  0  0  0  0  0  0  0
   12.3214  -18.1233   25.0443 O   0  0  0  0  0  0  0  0  0  0  0  0
   14.2887  -17.7281   23.9849 O   0  0  0  0  0  0  0  0  0  0  0  0
  2  1  1  0
  3  2  1  0
  3  5  1  0
  3  4  1  6
  5  7  1  0
  5  6  1  1
  7  8  2  0
  9 10  1  0
 10 20  2  0
 10 11  1  0
 11 12  2  0
 12 13  1  0
 13 14  1  0
 15 14  1  1
 16 15  1  0
 16  7  1  0
 17 21  1  0
 17 15  1  0
 18 17  2  0
 19 13  2  0
 20 19  1  0
 22 21  1  0
 23 22  1  0
 24 23  1  0
 25 23  2  0
M  END
$$$$
