IYG.pdb
     RDKit          3D

 25 25  0  0  1  0  0  0  0  0999 V2000
    6.3612  -12.2388   18.6382 C   0  0  0  0  0  0  0  0  0  0  0  0
    6.7363  -13.6616   19.0356 C   0  0  0  0  0  0  0  0  0  0  0  0
    7.7844  -13.6039   20.0914 C   0  0  2  0  0  0  0  0  0  0  0  0
    8.9689  -12.7444   19.6894 C   0  0  0  0  0  0  0  0  0  0  0  0
    8.1905  -14.9222   20.6503 C   0  0  2  0  0  0  0  0  0  0  0  0
    6.9645  -15.7242   20.8256 N   0  0  0  0  0  0  0  0  0  0  0  0
    8.9369  -14.9020   21.9067 C   0  0  0  0  0  0  0  0  0  0  0  0
   10.1623  -14.5172   21.8755 O   0  0  0  0  0  0  0  0  0  0  0  0
   11.1192  -14.8831   30.5854 O   0  0  0  0  0  0  0  0  0  0  0  0
   10.4677  -14.9307   29.3681 C   0  0  0  0  0  0  0  0  0  0  0  0
   10.0513  -13.8278   28.6756 C   0  0  0  0  0  0  0  0  0  0  0  0
    9.4078  -13.9283   27.4698 C   0  0  0  0  0  0  0  0  0  0  0  0
    9.1488  -15.1597   26.8952 C   0  0  0  0  0  0  0  0  0  0  0  0
    8.4549  -15.2382   25.6086 C   0  0  0  0  0  0  0  0  0  0  0  0
    9.3214  -15.1418   24.3884 C   0  0  2  0  0  0  0  0  0  0  0  0
    8.4729  -15.2588   23.1875 N   0  0  0  0  0  0  0  0  0  0  0  0
   10.3179  -16.2154   24.3414 C   0  0  0  0  0  0  0  0  0  0  0  0
    9.9332  -17.4132   24.5601 O   0  0  0  0  0  0  0  0  0  0  0  0
    9.5686  -16.2803   27.5923 C   0  0  0  0  0  0  0  0  0  0  0  0
   10.2113  -16.1674   28.7974 C   0  0  0  0  0  0  0  0  0  0  0  0
   11.6964  -16.0650   24.0676 N   0  0  0  0  0  0  0  0  0  0  0  0
   12.6457  -17.1501   24.1081 C   0  0  0  0  0  0  0  0  0  0  0  0
   13.7676  -16.9591   25.0283 C   0  0  0  0  0  0  0  0  0  0  0  0
   14.7482  -17.9246   25.1136 O   0  0  0  0  0  0  0  0  0  0  0  0
   13.8478  -15.9366   25.7349 O   0  0  0  0  0  0  0  0  0  0  0  0
  2  1  1  0
  3  2  1  0
  3  5  1  0
  3  4  1  6
  5  7  1  0
  5  6  1  1
  7  8  2  0
  9 10  1  0
 10 20  2  0
 10 11  1  0
 11 12  2  0
 12 13  1  0
 13 14  1  0
 15 14  1  1
 16 15  1  0
 16  7  1  0
 17 21  1  0
 17 15  1  0
 18 17  2  0
 19 13  2  0
 20 19  1  0
 22 21  1  0
 23 22  1  0
 24 23  1  0
 25 23  2  0
M  END
$$$$
