IYG.pdb
     RDKit          3D

 25 25  0  0  1  0  0  0  0  0999 V2000
    7.7891  -13.4619   16.2671 C   0  0  0  0  0  0  0  0  0  0  0  0
    7.8519  -14.6928   17.1638 C   0  0  0  0  0  0  0  0  0  0  0  0
    7.9776  -14.2488   18.5793 C   0  0  2  0  0  0  0  0  0  0  0  0
    9.0411  -13.1816   18.7623 C   0  0  0  0  0  0  0  0  0  0  0  0
    8.0834  -15.3470   19.5783 C   0  0  2  0  0  0  0  0  0  0  0  0
    7.0844  -16.3708   19.2166 N   0  0  0  0  0  0  0  0  0  0  0  0
    7.9093  -14.9783   20.9818 C   0  0  0  0  0  0  0  0  0  0  0  0
    6.8556  -14.3190   21.3071 O   0  0  0  0  0  0  0  0  0  0  0  0
    6.3675  -11.9925   28.7929 O   0  0  0  0  0  0  0  0  0  0  0  0
    6.5978  -12.6693   27.6107 C   0  0  0  0  0  0  0  0  0  0  0  0
    6.8140  -14.0166   27.5259 C   0  0  0  0  0  0  0  0  0  0  0  0
    7.0384  -14.6415   26.3271 C   0  0  0  0  0  0  0  0  0  0  0  0
    7.0563  -13.9314   25.1401 C   0  0  0  0  0  0  0  0  0  0  0  0
    7.3036  -14.6235   23.8741 C   0  0  0  0  0  0  0  0  0  0  0  0
    8.6994  -14.5264   23.3346 C   0  0  2  0  0  0  0  0  0  0  0  0
    8.7721  -15.2618   22.0580 N   0  0  0  0  0  0  0  0  0  0  0  0
    9.6799  -15.1164   24.2501 C   0  0  0  0  0  0  0  0  0  0  0  0
    9.9029  -14.5313   25.3629 O   0  0  0  0  0  0  0  0  0  0  0  0
    6.8376  -12.5663   25.2201 C   0  0  0  0  0  0  0  0  0  0  0  0
    6.6143  -11.9522   26.4247 C   0  0  0  0  0  0  0  0  0  0  0  0
   10.4225  -16.2990   24.0309 N   0  0  0  0  0  0  0  0  0  0  0  0
   11.3296  -16.8677   24.9972 C   0  0  0  0  0  0  0  0  0  0  0  0
   11.9404  -18.1378   24.6026 C   0  0  0  0  0  0  0  0  0  0  0  0
   12.8539  -18.7416   25.4404 O   0  0  0  0  0  0  0  0  0  0  0  0
   11.6458  -18.6798   23.5206 O   0  0  0  0  0  0  0  0  0  0  0  0
  2  1  1  0
  3  2  1  0
  3  5  1  0
  3  4  1  6
  5  7  1  0
  5  6  1  6
  7  8  2  0
  9 10  1  0
 10 20  2  0
 10 11  1  0
 11 12  2  0
 12 13  1  0
 13 14  1  0
 15 14  1  1
 16 15  1  0
 16  7  1  0
 17 21  1  0
 17 15  1  0
 18 17  2  0
 19 13  2  0
 20 19  1  0
 22 21  1  0
 23 22  1  0
 24 23  1  0
 25 23  2  0
M  END
$$$$
