IYG.pdb
     RDKit          3D

 25 25  0  0  1  0  0  0  0  0999 V2000
    7.8331  -11.8711   19.8694 C   0  0  0  0  0  0  0  0  0  0  0  0
    7.4711  -12.9929   20.8357 C   0  0  0  0  0  0  0  0  0  0  0  0
    8.1559  -14.2408   20.3996 C   0  0  2  0  0  0  0  0  0  0  0  0
    7.8851  -14.5753   18.9442 C   0  0  0  0  0  0  0  0  0  0  0  0
    7.9753  -15.4090   21.3040 C   0  0  2  0  0  0  0  0  0  0  0  0
    6.5483  -15.7818   21.2643 N   0  0  0  0  0  0  0  0  0  0  0  0
    8.3892  -15.2340   22.6948 C   0  0  0  0  0  0  0  0  0  0  0  0
    7.7309  -14.4036   23.4213 O   0  0  0  0  0  0  0  0  0  0  0  0
    5.6593  -11.0509   26.8380 O   0  0  0  0  0  0  0  0  0  0  0  0
    6.3444  -12.2126   26.5384 C   0  0  0  0  0  0  0  0  0  0  0  0
    5.7457  -13.4190   26.3031 C   0  0  0  0  0  0  0  0  0  0  0  0
    6.4710  -14.5441   26.0096 C   0  0  0  0  0  0  0  0  0  0  0  0
    7.8520  -14.5090   25.9379 C   0  0  0  0  0  0  0  0  0  0  0  0
    8.6024  -15.7270   25.6276 C   0  0  0  0  0  0  0  0  0  0  0  0
    9.8095  -15.5503   24.7555 C   0  0  2  0  0  0  0  0  0  0  0  0
    9.4476  -15.8785   23.3638 N   0  0  0  0  0  0  0  0  0  0  0  0
   10.9058  -16.4366   25.1562 C   0  0  0  0  0  0  0  0  0  0  0  0
   11.4595  -16.2455   26.2909 O   0  0  0  0  0  0  0  0  0  0  0  0
    8.4637  -13.2894   26.1751 C   0  0  0  0  0  0  0  0  0  0  0  0
    7.7280  -12.1709   26.4677 C   0  0  0  0  0  0  0  0  0  0  0  0
   11.4278  -17.5133   24.4039 N   0  0  0  0  0  0  0  0  0  0  0  0
   12.4860  -18.3771   24.8666 C   0  0  0  0  0  0  0  0  0  0  0  0
   12.0493  -19.5130   25.6796 C   0  0  0  0  0  0  0  0  0  0  0  0
   12.9653  -20.4737   26.0525 O   0  0  0  0  0  0  0  0  0  0  0  0
   10.8616  -19.6230   26.0385 O   0  0  0  0  0  0  0  0  0  0  0  0
  2  1  1  0
  3  2  1  0
  3  5  1  0
  3  4  1  6
  5  7  1  0
  5  6  1  1
  7  8  2  0
  9 10  1  0
 10 20  2  0
 10 11  1  0
 11 12  2  0
 12 13  1  0
 13 14  1  0
 15 14  1  1
 16 15  1  0
 16  7  1  0
 17 21  1  0
 17 15  1  0
 18 17  2  0
 19 13  2  0
 20 19  1  0
 22 21  1  0
 23 22  1  0
 24 23  1  0
 25 23  2  0
M  END
$$$$
