KAN.pdb
     RDKit          3D

 23 22  0  0  1  0  0  0  0  0999 V2000
    8.8608  -18.2022   20.5147 N   0  0  0  0  0  0  0  0  0  0  0  0
   10.1579  -17.7099   20.9380 C   0  0  1  0  0  0  0  0  0  0  0  0
   10.9482  -17.3386   19.7269 C   0  0  0  0  0  0  0  0  0  0  0  0
   10.9667  -18.4832   18.7464 C   0  0  0  0  0  0  0  0  0  0  0  0
   10.5361  -18.0965   17.3696 C   0  0  0  0  0  0  0  0  0  0  0  0
   10.6518  -19.2310   16.3642 C   0  0  0  0  0  0  0  0  0  0  0  0
   10.2454  -18.7750   15.0618 N   0  0  0  0  0  0  0  0  0  0  0  0
    9.9297  -16.5439   21.8254 C   0  0  0  0  0  0  0  0  0  0  0  0
   10.8939  -15.9204   22.3352 O   0  0  0  0  0  0  0  0  0  0  0  0
    7.2006  -14.1880   22.5176 C   0  0  0  0  0  0  0  0  0  0  0  0
    8.3649  -14.9582   23.0292 C   0  0  2  0  0  0  0  0  0  0  0  0
    8.6312  -16.0640   22.1522 N   0  0  0  0  0  0  0  0  0  0  0  0
    8.2584  -15.3611   24.4475 C   0  0  0  0  0  0  0  0  0  0  0  0
    8.0552  -14.4756   25.3214 O   0  0  0  0  0  0  0  0  0  0  0  0
    6.2434  -17.7714   24.4200 N   0  0  0  0  0  0  0  0  0  0  0  0
    6.4664  -18.5938   25.5485 C   0  0  0  0  0  0  0  0  0  0  0  0
    5.7686  -19.6279   25.6705 O   0  0  0  0  0  0  0  0  0  0  0  0
    7.4802  -18.2898   26.5845 C   0  0  0  0  0  0  0  0  0  0  0  0
    8.2498  -17.0576   26.2928 C   0  0  2  0  0  0  0  0  0  0  0  0
    8.3673  -16.6881   24.9257 N   0  0  0  0  0  0  0  0  0  0  0  0
    9.5864  -17.1676   26.9433 C   0  0  0  0  0  0  0  0  0  0  0  0
    9.7832  -17.3430   28.2838 O   0  0  0  0  0  0  0  0  0  0  0  0
   10.5959  -17.0925   26.1999 O   0  0  0  0  0  0  0  0  0  0  0  0
  2  1  1  6
  2  3  1  0
  4  3  1  0
  5  4  1  0
  5  6  1  0
  7  6  1  0
  8  2  1  0
  8  9  2  0
 11 10  1  6
 11 12  1  0
 12  8  1  0
 13 11  1  0
 14 13  2  0
 16 18  1  0
 16 15  1  0
 17 16  2  0
 19 18  1  6
 19 20  1  0
 19 21  1  0
 20 13  1  0
 21 22  1  0
 23 21  2  0
M  END
$$$$
