KAN.pdb
     RDKit          3D

 23 22  0  0  1  0  0  0  0  0999 V2000
   10.7134  -16.4188   15.3036 N   0  0  0  0  0  0  0  0  0  0  0  0
   10.7732  -15.3561   16.2890 C   0  0  1  0  0  0  0  0  0  0  0  0
    9.4452  -15.2522   16.9631 C   0  0  0  0  0  0  0  0  0  0  0  0
    9.5141  -14.2642   18.0994 C   0  0  0  0  0  0  0  0  0  0  0  0
    8.2400  -14.1514   18.8702 C   0  0  0  0  0  0  0  0  0  0  0  0
    8.3229  -13.1660   20.0250 C   0  0  0  0  0  0  0  0  0  0  0  0
    7.0358  -13.0398   20.6550 N   0  0  0  0  0  0  0  0  0  0  0  0
   11.8531  -15.6915   17.2483 C   0  0  0  0  0  0  0  0  0  0  0  0
   11.9174  -16.8288   17.7784 O   0  0  0  0  0  0  0  0  0  0  0  0
   15.0753  -14.1477   18.2867 C   0  0  0  0  0  0  0  0  0  0  0  0
   13.9226  -15.0469   18.5575 C   0  0  2  0  0  0  0  0  0  0  0  0
   12.8667  -14.7673   17.6250 N   0  0  0  0  0  0  0  0  0  0  0  0
   13.4638  -15.0496   19.9628 C   0  0  0  0  0  0  0  0  0  0  0  0
   12.8862  -14.0265   20.4196 O   0  0  0  0  0  0  0  0  0  0  0  0
    9.6273  -16.7983   23.6559 N   0  0  0  0  0  0  0  0  0  0  0  0
   10.8286  -16.0985   23.3978 C   0  0  0  0  0  0  0  0  0  0  0  0
   11.3821  -15.5065   24.3541 O   0  0  0  0  0  0  0  0  0  0  0  0
   11.4571  -16.0347   22.0583 C   0  0  0  0  0  0  0  0  0  0  0  0
   12.9236  -16.2426   22.1001 C   0  0  2  0  0  0  0  0  0  0  0  0
   13.6192  -16.1269   20.8664 N   0  0  0  0  0  0  0  0  0  0  0  0
   13.1989  -17.5510   22.7590 C   0  0  0  0  0  0  0  0  0  0  0  0
   13.7734  -18.6245   22.1395 O   0  0  0  0  0  0  0  0  0  0  0  0
   12.8768  -17.6654   23.9677 O   0  0  0  0  0  0  0  0  0  0  0  0
  2  1  1  6
  2  3  1  0
  4  3  1  0
  5  4  1  0
  5  6  1  0
  7  6  1  0
  8  2  1  0
  8  9  2  0
 11 10  1  1
 11 12  1  0
 12  8  1  0
 13 11  1  0
 14 13  2  0
 16 18  1  0
 16 15  1  0
 17 16  2  0
 19 18  1  6
 19 20  1  0
 19 21  1  0
 20 13  1  0
 21 22  1  0
 23 21  2  0
M  END
$$$$
