KAN.pdb
     RDKit          3D

 23 22  0  0  1  0  0  0  0  0999 V2000
    6.4077  -16.7739   21.8484 N   0  0  0  0  0  0  0  0  0  0  0  0
    7.5217  -16.0107   22.3780 C   0  0  1  0  0  0  0  0  0  0  0  0
    7.0530  -14.6260   22.6814 C   0  0  0  0  0  0  0  0  0  0  0  0
    6.9561  -13.8194   21.4118 C   0  0  0  0  0  0  0  0  0  0  0  0
    8.2837  -13.4255   20.8524 C   0  0  0  0  0  0  0  0  0  0  0  0
    8.1781  -12.4768   19.6689 C   0  0  0  0  0  0  0  0  0  0  0  0
    9.4838  -11.9879   19.3148 N   0  0  0  0  0  0  0  0  0  0  0  0
    8.0071  -16.7067   23.5940 C   0  0  0  0  0  0  0  0  0  0  0  0
    7.2067  -17.0874   24.4845 O   0  0  0  0  0  0  0  0  0  0  0  0
   11.1746  -18.2825   24.7236 C   0  0  0  0  0  0  0  0  0  0  0  0
    9.9043  -17.5733   25.0301 C   0  0  2  0  0  0  0  0  0  0  0  0
    9.3824  -16.9835   23.8290 N   0  0  0  0  0  0  0  0  0  0  0  0
    9.9926  -16.6138   26.1512 C   0  0  0  0  0  0  0  0  0  0  0  0
   10.3808  -17.0238   27.2781 O   0  0  0  0  0  0  0  0  0  0  0  0
    8.3560  -13.0607   25.0535 N   0  0  0  0  0  0  0  0  0  0  0  0
    7.8835  -12.9445   26.3812 C   0  0  0  0  0  0  0  0  0  0  0  0
    6.8589  -12.2512   26.5828 O   0  0  0  0  0  0  0  0  0  0  0  0
    8.5405  -13.6007   27.5350 C   0  0  0  0  0  0  0  0  0  0  0  0
    9.7749  -14.3283   27.1572 C   0  0  2  0  0  0  0  0  0  0  0  0
    9.6712  -15.2384   26.0709 N   0  0  0  0  0  0  0  0  0  0  0  0
   10.3249  -14.9927   28.3728 C   0  0  0  0  0  0  0  0  0  0  0  0
   10.5880  -16.3297   28.4728 O   0  0  0  0  0  0  0  0  0  0  0  0
   10.5596  -14.2654   29.3696 O   0  0  0  0  0  0  0  0  0  0  0  0
  2  1  1  1
  2  3  1  0
  4  3  1  0
  5  4  1  0
  5  6  1  0
  7  6  1  0
  8  2  1  0
  8  9  2  0
 11 10  1  6
 11 12  1  0
 12  8  1  0
 13 11  1  0
 14 13  2  0
 16 18  1  0
 16 15  1  0
 17 16  2  0
 19 18  1  1
 19 20  1  0
 19 21  1  0
 20 13  1  0
 21 22  1  0
 23 21  2  0
M  END
$$$$
