KAN.pdb
     RDKit          3D

 23 22  0  0  1  0  0  0  0  0999 V2000
    7.3296  -15.6106   18.4293 N   0  0  0  0  0  0  0  0  0  0  0  0
    8.5423  -14.8170   18.3716 C   0  0  1  0  0  0  0  0  0  0  0  0
    8.3390  -13.7008   17.4012 C   0  0  0  0  0  0  0  0  0  0  0  0
    7.7257  -14.2235   16.1274 C   0  0  0  0  0  0  0  0  0  0  0  0
    8.5961  -14.0417   14.9276 C   0  0  0  0  0  0  0  0  0  0  0  0
    7.9326  -14.4834   13.6329 C   0  0  0  0  0  0  0  0  0  0  0  0
    8.8187  -14.2507   12.5238 N   0  0  0  0  0  0  0  0  0  0  0  0
    8.8176  -14.3145   19.7393 C   0  0  0  0  0  0  0  0  0  0  0  0
    9.8893  -13.7150   20.0047 O   0  0  0  0  0  0  0  0  0  0  0  0
    7.0625  -13.4949   22.8264 C   0  0  0  0  0  0  0  0  0  0  0  0
    8.2113  -14.1966   22.1951 C   0  0  2  0  0  0  0  0  0  0  0  0
    7.9062  -14.4749   20.8195 N   0  0  0  0  0  0  0  0  0  0  0  0
    8.6827  -15.3879   22.9325 C   0  0  0  0  0  0  0  0  0  0  0  0
    7.8515  -16.2826   23.2446 O   0  0  0  0  0  0  0  0  0  0  0  0
   10.7770  -20.1481   21.6289 N   0  0  0  0  0  0  0  0  0  0  0  0
   11.3270  -18.9358   22.1055 C   0  0  0  0  0  0  0  0  0  0  0  0
   12.4748  -18.9676   22.6084 O   0  0  0  0  0  0  0  0  0  0  0  0
   10.6129  -17.6401   22.0371 C   0  0  0  0  0  0  0  0  0  0  0  0
   10.6483  -16.8950   23.3175 C   0  0  2  0  0  0  0  0  0  0  0  0
   10.0201  -15.6205   23.3309 N   0  0  0  0  0  0  0  0  0  0  0  0
   12.0635  -16.8087   23.7773 C   0  0  0  0  0  0  0  0  0  0  0  0
   12.9740  -15.9009   23.3152 O   0  0  0  0  0  0  0  0  0  0  0  0
   12.4361  -17.6316   24.6500 O   0  0  0  0  0  0  0  0  0  0  0  0
  2  1  1  1
  2  3  1  0
  4  3  1  0
  5  4  1  0
  5  6  1  0
  7  6  1  0
  8  2  1  0
  8  9  2  0
 11 10  1  1
 11 12  1  0
 12  8  1  0
 13 11  1  0
 14 13  2  0
 16 18  1  0
 16 15  1  0
 17 16  2  0
 19 18  1  6
 19 20  1  0
 19 21  1  0
 20 13  1  0
 21 22  1  0
 23 21  2  0
M  END
$$$$
