KAN.pdb
     RDKit          3D

 23 22  0  0  1  0  0  0  0  0999 V2000
    7.3289  -17.9847   18.8970 N   0  0  0  0  0  0  0  0  0  0  0  0
    8.7127  -17.6130   18.6719 C   0  0  1  0  0  0  0  0  0  0  0  0
    8.8810  -17.2382   17.2365 C   0  0  0  0  0  0  0  0  0  0  0  0
    8.1350  -18.2066   16.3547 C   0  0  0  0  0  0  0  0  0  0  0  0
    8.1637  -17.8395   14.9074 C   0  0  0  0  0  0  0  0  0  0  0  0
    7.3228  -18.7610   14.0382 C   0  0  0  0  0  0  0  0  0  0  0  0
    7.3939  -18.3390   12.6648 N   0  0  0  0  0  0  0  0  0  0  0  0
    9.0285  -16.4817   19.5772 C   0  0  0  0  0  0  0  0  0  0  0  0
   10.2091  -16.0758   19.7179 O   0  0  0  0  0  0  0  0  0  0  0  0
    7.0254  -13.9614   21.4773 C   0  0  0  0  0  0  0  0  0  0  0  0
    8.2958  -14.6831   21.2022 C   0  0  2  0  0  0  0  0  0  0  0  0
    8.0367  -15.7953   20.3312 N   0  0  0  0  0  0  0  0  0  0  0  0
    9.0591  -15.0633   22.4098 C   0  0  0  0  0  0  0  0  0  0  0  0
    9.3091  -14.1839   23.2775 O   0  0  0  0  0  0  0  0  0  0  0  0
   11.8661  -17.4363   26.0907 N   0  0  0  0  0  0  0  0  0  0  0  0
   10.6793  -18.1499   25.8047 C   0  0  0  0  0  0  0  0  0  0  0  0
   10.3614  -19.0932   26.5666 O   0  0  0  0  0  0  0  0  0  0  0  0
    9.8021  -17.8346   24.6539 C   0  0  0  0  0  0  0  0  0  0  0  0
   10.3040  -16.7020   23.8408 C   0  0  2  0  0  0  0  0  0  0  0  0
    9.5482  -16.3616   22.6866 N   0  0  0  0  0  0  0  0  0  0  0  0
   11.7320  -16.9591   23.4994 C   0  0  0  0  0  0  0  0  0  0  0  0
   12.2208  -17.0445   22.2264 O   0  0  0  0  0  0  0  0  0  0  0  0
   12.5344  -17.1064   24.4544 O   0  0  0  0  0  0  0  0  0  0  0  0
  2  1  1  6
  2  3  1  0
  4  3  1  0
  5  4  1  0
  5  6  1  0
  7  6  1  0
  8  2  1  0
  8  9  2  0
 11 10  1  1
 11 12  1  0
 12  8  1  0
 13 11  1  0
 14 13  2  0
 16 18  1  0
 16 15  1  0
 17 16  2  0
 19 18  1  6
 19 20  1  0
 19 21  1  0
 20 13  1  0
 21 22  1  0
 23 21  2  0
M  END
$$$$
