KAN.pdb
     RDKit          3D

 23 22  0  0  1  0  0  0  0  0999 V2000
    6.0462  -16.7276   21.7524 N   0  0  0  0  0  0  0  0  0  0  0  0
    7.3403  -16.0808   21.8562 C   0  0  1  0  0  0  0  0  0  0  0  0
    7.1415  -14.6016   21.8153 C   0  0  0  0  0  0  0  0  0  0  0  0
    6.9990  -14.1348   20.3892 C   0  0  0  0  0  0  0  0  0  0  0  0
    8.1533  -13.3168   19.9109 C   0  0  0  0  0  0  0  0  0  0  0  0
    7.9268  -12.7053   18.5375 C   0  0  0  0  0  0  0  0  0  0  0  0
    9.1071  -12.0002   18.1142 N   0  0  0  0  0  0  0  0  0  0  0  0
    7.9617  -16.5180   23.1296 C   0  0  0  0  0  0  0  0  0  0  0  0
    7.3224  -16.4734   24.2102 O   0  0  0  0  0  0  0  0  0  0  0  0
   11.1023  -18.2555   24.1456 C   0  0  0  0  0  0  0  0  0  0  0  0
    9.9734  -17.3321   24.4345 C   0  0  2  0  0  0  0  0  0  0  0  0
    9.2953  -17.0062   23.2111 N   0  0  0  0  0  0  0  0  0  0  0  0
   10.3442  -16.1378   25.2228 C   0  0  0  0  0  0  0  0  0  0  0  0
   10.6670  -15.0808   24.6167 O   0  0  0  0  0  0  0  0  0  0  0  0
    7.8515  -14.0377   26.0959 N   0  0  0  0  0  0  0  0  0  0  0  0
    8.7025  -13.6816   27.1676 C   0  0  0  0  0  0  0  0  0  0  0  0
    8.1745  -13.3843   28.2649 O   0  0  0  0  0  0  0  0  0  0  0  0
   10.1786  -13.6449   27.0519 C   0  0  0  0  0  0  0  0  0  0  0  0
   10.8138  -14.9438   27.3762 C   0  0  2  0  0  0  0  0  0  0  0  0
   10.3704  -16.0727   26.6358 N   0  0  0  0  0  0  0  0  0  0  0  0
   10.6969  -15.1760   28.8439 C   0  0  0  0  0  0  0  0  0  0  0  0
   11.1827  -14.3325   29.8026 O   0  0  0  0  0  0  0  0  0  0  0  0
   10.1099  -16.2223   29.2160 O   0  0  0  0  0  0  0  0  0  0  0  0
  2  1  1  1
  2  3  1  0
  4  3  1  0
  5  4  1  0
  5  6  1  0
  7  6  1  0
  8  2  1  0
  8  9  2  0
 11 10  1  6
 11 12  1  0
 12  8  1  0
 13 11  1  0
 14 13  2  0
 16 18  1  0
 16 15  1  0
 17 16  2  0
 19 18  1  6
 19 20  1  0
 19 21  1  0
 20 13  1  0
 21 22  1  0
 23 21  2  0
M  END
$$$$
