KAN.pdb
     RDKit          3D

 23 22  0  0  1  0  0  0  0  0999 V2000
   10.0888  -16.3253   16.0008 N   0  0  0  0  0  0  0  0  0  0  0  0
   10.8894  -15.9188   17.1400 C   0  0  1  0  0  0  0  0  0  0  0  0
   10.3601  -14.6233   17.6602 C   0  0  0  0  0  0  0  0  0  0  0  0
    8.8532  -14.6487   17.6840 C   0  0  0  0  0  0  0  0  0  0  0  0
    8.2440  -13.4002   18.2324 C   0  0  0  0  0  0  0  0  0  0  0  0
    6.7238  -13.4219   18.2262 C   0  0  0  0  0  0  0  0  0  0  0  0
    6.2137  -12.1505   18.6653 N   0  0  0  0  0  0  0  0  0  0  0  0
   10.8063  -16.9955   18.1563 C   0  0  0  0  0  0  0  0  0  0  0  0
   10.1501  -18.0440   17.9359 O   0  0  0  0  0  0  0  0  0  0  0  0
   13.3521  -18.2577   18.8951 C   0  0  0  0  0  0  0  0  0  0  0  0
   12.3592  -17.8978   19.9416 C   0  0  2  0  0  0  0  0  0  0  0  0
   11.4500  -16.9147   19.4222 N   0  0  0  0  0  0  0  0  0  0  0  0
   12.9499  -17.5068   21.2391 C   0  0  0  0  0  0  0  0  0  0  0  0
   13.9390  -18.1518   21.6800 O   0  0  0  0  0  0  0  0  0  0  0  0
    8.8530  -16.3566   21.1234 N   0  0  0  0  0  0  0  0  0  0  0  0
    9.5293  -16.0365   22.3233 C   0  0  0  0  0  0  0  0  0  0  0  0
    9.4458  -14.8610   22.7505 O   0  0  0  0  0  0  0  0  0  0  0  0
   10.3254  -17.0210   23.0917 C   0  0  0  0  0  0  0  0  0  0  0  0
   11.7429  -16.6184   23.2483 C   0  0  2  0  0  0  0  0  0  0  0  0
   12.4919  -16.4445   22.0533 N   0  0  0  0  0  0  0  0  0  0  0  0
   12.4095  -17.5787   24.1731 C   0  0  0  0  0  0  0  0  0  0  0  0
   12.3700  -18.9377   24.0388 O   0  0  0  0  0  0  0  0  0  0  0  0
   13.0495  -17.0961   25.1402 O   0  0  0  0  0  0  0  0  0  0  0  0
  2  1  1  6
  2  3  1  0
  4  3  1  0
  5  4  1  0
  5  6  1  0
  7  6  1  0
  8  2  1  0
  8  9  2  0
 11 10  1  6
 11 12  1  0
 12  8  1  0
 13 11  1  0
 14 13  2  0
 16 18  1  0
 16 15  1  0
 17 16  2  0
 19 18  1  6
 19 20  1  0
 19 21  1  0
 20 13  1  0
 21 22  1  0
 23 21  2  0
M  END
$$$$
