KAN.pdb
     RDKit          3D

 23 22  0  0  1  0  0  0  0  0999 V2000
    6.9509  -18.4063   19.0276 N   0  0  0  0  0  0  0  0  0  0  0  0
    8.3727  -18.1210   18.9978 C   0  0  1  0  0  0  0  0  0  0  0  0
    8.5656  -16.6410   19.0375 C   0  0  0  0  0  0  0  0  0  0  0  0
    8.0999  -16.0205   17.7452 C   0  0  0  0  0  0  0  0  0  0  0  0
    8.3175  -14.5445   17.6796 C   0  0  0  0  0  0  0  0  0  0  0  0
    7.8644  -13.9293   16.3651 C   0  0  0  0  0  0  0  0  0  0  0  0
    7.9140  -12.4943   16.4527 N   0  0  0  0  0  0  0  0  0  0  0  0
    8.9909  -18.7886   20.1687 C   0  0  0  0  0  0  0  0  0  0  0  0
    8.4160  -18.7989   21.2857 O   0  0  0  0  0  0  0  0  0  0  0  0
   11.5349  -21.3146   20.8570 C   0  0  0  0  0  0  0  0  0  0  0  0
   10.9360  -20.0080   21.2374 C   0  0  2  0  0  0  0  0  0  0  0  0
   10.2500  -19.4476   20.1068 N   0  0  0  0  0  0  0  0  0  0  0  0
   11.8805  -19.0599   21.8654 C   0  0  0  0  0  0  0  0  0  0  0  0
   13.1191  -19.2596   21.7438 O   0  0  0  0  0  0  0  0  0  0  0  0
   13.6715  -15.1177   20.9032 N   0  0  0  0  0  0  0  0  0  0  0  0
   12.4092  -15.2382   21.5290 C   0  0  0  0  0  0  0  0  0  0  0  0
   11.3857  -15.0416   20.8327 O   0  0  0  0  0  0  0  0  0  0  0  0
   12.2442  -15.5841   22.9596 C   0  0  0  0  0  0  0  0  0  0  0  0
   12.4318  -17.0294   23.2277 C   0  0  2  0  0  0  0  0  0  0  0  0
   11.5089  -17.9171   22.6117 N   0  0  0  0  0  0  0  0  0  0  0  0
   12.4830  -17.2357   24.7030 C   0  0  0  0  0  0  0  0  0  0  0  0
   11.5861  -17.9836   25.4121 O   0  0  0  0  0  0  0  0  0  0  0  0
   13.4187  -16.6795   25.3296 O   0  0  0  0  0  0  0  0  0  0  0  0
  2  1  1  1
  2  3  1  0
  4  3  1  0
  5  4  1  0
  5  6  1  0
  7  6  1  0
  8  2  1  0
  8  9  2  0
 11 10  1  6
 11 12  1  0
 12  8  1  0
 13 11  1  0
 14 13  2  0
 16 18  1  0
 16 15  1  0
 17 16  2  0
 19 18  1  1
 19 20  1  0
 19 21  1  0
 20 13  1  0
 21 22  1  0
 23 21  2  0
M  END
$$$$
