KAN.pdb
     RDKit          3D

 23 22  0  0  1  0  0  0  0  0999 V2000
    7.4961  -13.3959   20.7315 N   0  0  0  0  0  0  0  0  0  0  0  0
    7.2399  -14.1961   21.9139 C   0  0  1  0  0  0  0  0  0  0  0  0
    8.0662  -15.4374   21.8410 C   0  0  0  0  0  0  0  0  0  0  0  0
    7.3073  -16.5268   21.1273 C   0  0  0  0  0  0  0  0  0  0  0  0
    8.0147  -17.8421   21.1228 C   0  0  0  0  0  0  0  0  0  0  0  0
    7.2246  -18.9455   20.4372 C   0  0  0  0  0  0  0  0  0  0  0  0
    8.0163  -20.1445   20.3677 N   0  0  0  0  0  0  0  0  0  0  0  0
    7.5852  -13.3733   23.0983 C   0  0  0  0  0  0  0  0  0  0  0  0
    8.6721  -12.7458   23.1554 O   0  0  0  0  0  0  0  0  0  0  0  0
    5.8130  -12.2349   26.1869 C   0  0  0  0  0  0  0  0  0  0  0  0
    7.0563  -12.5245   25.4247 C   0  0  2  0  0  0  0  0  0  0  0  0
    6.7272  -13.2429   24.2253 N   0  0  0  0  0  0  0  0  0  0  0  0
    8.1211  -13.1792   26.2139 C   0  0  0  0  0  0  0  0  0  0  0  0
    8.4807  -12.6603   27.3050 O   0  0  0  0  0  0  0  0  0  0  0  0
   10.9493  -15.7683   29.5573 N   0  0  0  0  0  0  0  0  0  0  0  0
    9.9520  -16.4131   28.7898 C   0  0  0  0  0  0  0  0  0  0  0  0
    9.8804  -17.6632   28.8483 O   0  0  0  0  0  0  0  0  0  0  0  0
    8.9955  -15.6825   27.9268 C   0  0  0  0  0  0  0  0  0  0  0  0
    9.6310  -15.1166   26.7136 C   0  0  2  0  0  0  0  0  0  0  0  0
    8.7919  -14.3687   25.8443 N   0  0  0  0  0  0  0  0  0  0  0  0
   10.3265  -16.2157   25.9856 C   0  0  0  0  0  0  0  0  0  0  0  0
   11.6819  -16.3827   25.9468 O   0  0  0  0  0  0  0  0  0  0  0  0
    9.6088  -17.0407   25.3676 O   0  0  0  0  0  0  0  0  0  0  0  0
  2  1  1  6
  2  3  1  0
  4  3  1  0
  5  4  1  0
  5  6  1  0
  7  6  1  0
  8  2  1  0
  8  9  2  0
 11 10  1  1
 11 12  1  0
 12  8  1  0
 13 11  1  0
 14 13  2  0
 16 18  1  0
 16 15  1  0
 17 16  2  0
 19 18  1  1
 19 20  1  0
 19 21  1  0
 20 13  1  0
 21 22  1  0
 23 21  2  0
M  END
$$$$
