KAN.pdb
     RDKit          3D

 23 22  0  0  1  0  0  0  0  0999 V2000
    9.7393  -17.0023   17.2626 N   0  0  0  0  0  0  0  0  0  0  0  0
    8.7883  -17.0495   18.3568 C   0  0  1  0  0  0  0  0  0  0  0  0
    9.0196  -18.2998   19.1394 C   0  0  0  0  0  0  0  0  0  0  0  0
    8.5405  -19.4978   18.3602 C   0  0  0  0  0  0  0  0  0  0  0  0
    7.6373  -20.3950   19.1408 C   0  0  0  0  0  0  0  0  0  0  0  0
    7.0731  -21.5418   18.3173 C   0  0  0  0  0  0  0  0  0  0  0  0
    6.2263  -22.3649   19.1388 N   0  0  0  0  0  0  0  0  0  0  0  0
    8.9927  -15.8361   19.1842 C   0  0  0  0  0  0  0  0  0  0  0  0
   10.1376  -15.5151   19.5900 O   0  0  0  0  0  0  0  0  0  0  0  0
    6.7921  -13.1114   20.5371 C   0  0  0  0  0  0  0  0  0  0  0  0
    8.0354  -13.9266   20.5443 C   0  0  2  0  0  0  0  0  0  0  0  0
    7.9286  -14.9729   19.5662 N   0  0  0  0  0  0  0  0  0  0  0  0
    8.4350  -14.4239   21.8779 C   0  0  0  0  0  0  0  0  0  0  0  0
    8.6029  -13.5968   22.8141 O   0  0  0  0  0  0  0  0  0  0  0  0
    6.3082  -15.9146   24.4566 N   0  0  0  0  0  0  0  0  0  0  0  0
    6.8770  -17.2088   24.4233 C   0  0  0  0  0  0  0  0  0  0  0  0
    6.1702  -18.1724   24.8016 O   0  0  0  0  0  0  0  0  0  0  0  0
    8.2600  -17.4741   23.9645 C   0  0  0  0  0  0  0  0  0  0  0  0
    8.9615  -16.2494   23.5129 C   0  0  2  0  0  0  0  0  0  0  0  0
    8.6523  -15.7825   22.2069 N   0  0  0  0  0  0  0  0  0  0  0  0
   10.4282  -16.4519   23.6850 C   0  0  0  0  0  0  0  0  0  0  0  0
   11.0806  -17.6287   23.4484 O   0  0  0  0  0  0  0  0  0  0  0  0
   11.1031  -15.4671   24.0752 O   0  0  0  0  0  0  0  0  0  0  0  0
  2  1  1  6
  2  3  1  0
  4  3  1  0
  5  4  1  0
  5  6  1  0
  7  6  1  0
  8  2  1  0
  8  9  2  0
 11 10  1  1
 11 12  1  0
 12  8  1  0
 13 11  1  0
 14 13  2  0
 16 18  1  0
 16 15  1  0
 17 16  2  0
 19 18  1  6
 19 20  1  0
 19 21  1  0
 20 13  1  0
 21 22  1  0
 23 21  2  0
M  END
$$$$
