KAN.pdb
     RDKit          3D

 23 22  0  0  1  0  0  0  0  0999 V2000
    9.4248  -15.7230   18.7530 N   0  0  0  0  0  0  0  0  0  0  0  0
   10.3929  -14.7720   19.2651 C   0  0  1  0  0  0  0  0  0  0  0  0
   10.4266  -13.5867   18.3578 C   0  0  0  0  0  0  0  0  0  0  0  0
    9.0942  -13.4165   17.6740 C   0  0  0  0  0  0  0  0  0  0  0  0
    9.0810  -13.9057   16.2630 C   0  0  0  0  0  0  0  0  0  0  0  0
    7.7342  -13.7291   15.5797 C   0  0  0  0  0  0  0  0  0  0  0  0
    7.7446  -14.3849   14.2994 N   0  0  0  0  0  0  0  0  0  0  0  0
    9.9774  -14.4019   20.6396 C   0  0  0  0  0  0  0  0  0  0  0  0
   10.7436  -13.7523   21.3942 O   0  0  0  0  0  0  0  0  0  0  0  0
    6.8298  -14.2225   22.5567 C   0  0  0  0  0  0  0  0  0  0  0  0
    8.2950  -14.4734   22.5309 C   0  0  2  0  0  0  0  0  0  0  0  0
    8.7105  -14.7507   21.1843 N   0  0  0  0  0  0  0  0  0  0  0  0
    8.7603  -15.4904   23.4977 C   0  0  0  0  0  0  0  0  0  0  0  0
    8.4285  -15.3800   24.7087 O   0  0  0  0  0  0  0  0  0  0  0  0
    7.4355  -18.7396   23.8333 N   0  0  0  0  0  0  0  0  0  0  0  0
    8.5854  -19.5095   23.5426 C   0  0  0  0  0  0  0  0  0  0  0  0
    8.4205  -20.6859   23.1424 O   0  0  0  0  0  0  0  0  0  0  0  0
    9.9651  -18.9914   23.6887 C   0  0  0  0  0  0  0  0  0  0  0  0
   10.0052  -17.5747   24.1212 C   0  0  2  0  0  0  0  0  0  0  0  0
    9.5672  -16.6073   23.1770 N   0  0  0  0  0  0  0  0  0  0  0  0
   11.3772  -17.2685   24.6170 C   0  0  0  0  0  0  0  0  0  0  0  0
   12.0067  -17.9464   25.6223 O   0  0  0  0  0  0  0  0  0  0  0  0
   11.9893  -16.3197   24.0667 O   0  0  0  0  0  0  0  0  0  0  0  0
  2  1  1  6
  2  3  1  0
  4  3  1  0
  5  4  1  0
  5  6  1  0
  7  6  1  0
  8  2  1  0
  8  9  2  0
 11 10  1  6
 11 12  1  0
 12  8  1  0
 13 11  1  0
 14 13  2  0
 16 18  1  0
 16 15  1  0
 17 16  2  0
 19 18  1  6
 19 20  1  0
 19 21  1  0
 20 13  1  0
 21 22  1  0
 23 21  2  0
M  END
$$$$
