KAN.pdb
     RDKit          3D

 23 22  0  0  1  0  0  0  0  0999 V2000
   10.9098  -17.2586   13.1650 N   0  0  0  0  0  0  0  0  0  0  0  0
   11.9882  -18.0987   13.6499 C   0  0  1  0  0  0  0  0  0  0  0  0
   13.2496  -17.7099   12.9521 C   0  0  0  0  0  0  0  0  0  0  0  0
   13.1321  -17.9823   11.4743 C   0  0  0  0  0  0  0  0  0  0  0  0
   14.3566  -17.6175   10.7011 C   0  0  0  0  0  0  0  0  0  0  0  0
   14.2025  -17.8216    9.2024 C   0  0  0  0  0  0  0  0  0  0  0  0
   15.3738  -17.3411    8.5193 N   0  0  0  0  0  0  0  0  0  0  0  0
   12.0874  -17.9029   15.1165 C   0  0  0  0  0  0  0  0  0  0  0  0
   11.8668  -16.7803   15.6357 O   0  0  0  0  0  0  0  0  0  0  0  0
   12.4268  -20.1865   18.0572 C   0  0  0  0  0  0  0  0  0  0  0  0
   12.4415  -18.8313   17.4457 C   0  0  2  0  0  0  0  0  0  0  0  0
   12.4322  -18.9508   16.0144 N   0  0  0  0  0  0  0  0  0  0  0  0
   13.5161  -17.9459   17.9423 C   0  0  0  0  0  0  0  0  0  0  0  0
   14.5802  -17.8416   17.2747 O   0  0  0  0  0  0  0  0  0  0  0  0
   12.5215  -13.5996   18.3757 N   0  0  0  0  0  0  0  0  0  0  0  0
   13.7985  -14.1441   18.6443 C   0  0  0  0  0  0  0  0  0  0  0  0
   14.7069  -13.9585   17.8006 O   0  0  0  0  0  0  0  0  0  0  0  0
   14.1081  -14.9175   19.8688 C   0  0  0  0  0  0  0  0  0  0  0  0
   14.4908  -16.3201   19.5823 C   0  0  2  0  0  0  0  0  0  0  0  0
   13.4561  -17.1841   19.1329 N   0  0  0  0  0  0  0  0  0  0  0  0
   15.1829  -16.8771   20.7792 C   0  0  0  0  0  0  0  0  0  0  0  0
   14.8209  -18.0300   21.4166 O   0  0  0  0  0  0  0  0  0  0  0  0
   16.1658  -16.2353   21.2260 O   0  0  0  0  0  0  0  0  0  0  0  0
  2  1  1  6
  2  3  1  0
  4  3  1  0
  5  4  1  0
  5  6  1  0
  7  6  1  0
  8  2  1  0
  8  9  2  0
 11 10  1  1
 11 12  1  0
 12  8  1  0
 13 11  1  0
 14 13  2  0
 16 18  1  0
 16 15  1  0
 17 16  2  0
 19 18  1  1
 19 20  1  0
 19 21  1  0
 20 13  1  0
 21 22  1  0
 23 21  2  0
M  END
$$$$
