KAN.pdb
     RDKit          3D

 23 22  0  0  1  0  0  0  0  0999 V2000
    8.1674  -19.3834   19.5608 N   0  0  0  0  0  0  0  0  0  0  0  0
    8.0356  -17.9458   19.7008 C   0  0  1  0  0  0  0  0  0  0  0  0
    7.6054  -17.3740   18.3904 C   0  0  0  0  0  0  0  0  0  0  0  0
    8.2997  -18.0869   17.2583 C   0  0  0  0  0  0  0  0  0  0  0  0
    7.8886  -17.6025   15.9067 C   0  0  0  0  0  0  0  0  0  0  0  0
    8.5352  -18.3775   14.7697 C   0  0  0  0  0  0  0  0  0  0  0  0
    8.2200  -17.7557   13.5113 N   0  0  0  0  0  0  0  0  0  0  0  0
    7.0397  -17.6864   20.7684 C   0  0  0  0  0  0  0  0  0  0  0  0
    6.8127  -16.5183   21.1715 O   0  0  0  0  0  0  0  0  0  0  0  0
    4.2405  -19.4449   22.3803 C   0  0  0  0  0  0  0  0  0  0  0  0
    5.4052  -18.5298   22.5090 C   0  0  2  0  0  0  0  0  0  0  0  0
    6.2909  -18.7211   21.3947 N   0  0  0  0  0  0  0  0  0  0  0  0
    6.0979  -18.5984   23.8132 C   0  0  0  0  0  0  0  0  0  0  0  0
    5.4178  -18.5224   24.8717 O   0  0  0  0  0  0  0  0  0  0  0  0
    8.2504  -20.1492   28.5146 N   0  0  0  0  0  0  0  0  0  0  0  0
    8.7187  -20.2935   27.1882 C   0  0  0  0  0  0  0  0  0  0  0  0
    9.9286  -20.5738   27.0183 O   0  0  0  0  0  0  0  0  0  0  0  0
    7.8497  -20.1298   26.0002 C   0  0  0  0  0  0  0  0  0  0  0  0
    8.1346  -18.8867   25.2455 C   0  0  2  0  0  0  0  0  0  0  0  0
    7.4944  -18.7454   23.9848 N   0  0  0  0  0  0  0  0  0  0  0  0
    9.6124  -18.7326   25.1254 C   0  0  0  0  0  0  0  0  0  0  0  0
   10.3673  -17.8863   25.8873 O   0  0  0  0  0  0  0  0  0  0  0  0
   10.1955  -19.4331   24.2612 O   0  0  0  0  0  0  0  0  0  0  0  0
  2  1  1  6
  2  3  1  0
  4  3  1  0
  5  4  1  0
  5  6  1  0
  7  6  1  0
  8  2  1  0
  8  9  2  0
 11 10  1  1
 11 12  1  0
 12  8  1  0
 13 11  1  0
 14 13  2  0
 16 18  1  0
 16 15  1  0
 17 16  2  0
 19 18  1  6
 19 20  1  0
 19 21  1  0
 20 13  1  0
 21 22  1  0
 23 21  2  0
M  END
$$$$
