KAN.pdb
     RDKit          3D

 23 22  0  0  1  0  0  0  0  0999 V2000
    8.1004  -16.8968   17.9827 N   0  0  0  0  0  0  0  0  0  0  0  0
    7.8418  -17.1705   19.3834 C   0  0  1  0  0  0  0  0  0  0  0  0
    8.4866  -18.4675   19.7456 C   0  0  0  0  0  0  0  0  0  0  0  0
    7.6408  -19.6203   19.2685 C   0  0  0  0  0  0  0  0  0  0  0  0
    7.9798  -20.9196   19.9222 C   0  0  0  0  0  0  0  0  0  0  0  0
    7.1126  -22.0744   19.4468 C   0  0  0  0  0  0  0  0  0  0  0  0
    7.4212  -23.2611   20.1990 N   0  0  0  0  0  0  0  0  0  0  0  0
    8.3930  -16.0422   20.1722 C   0  0  0  0  0  0  0  0  0  0  0  0
    9.5264  -15.5654   19.9143 O   0  0  0  0  0  0  0  0  0  0  0  0
    7.1640  -13.8629   22.9666 C   0  0  0  0  0  0  0  0  0  0  0  0
    8.2494  -14.4649   22.1480 C   0  0  2  0  0  0  0  0  0  0  0  0
    7.6905  -15.4376   21.2512 N   0  0  0  0  0  0  0  0  0  0  0  0
    9.3881  -14.9907   22.9305 C   0  0  0  0  0  0  0  0  0  0  0  0
    9.6998  -14.4247   24.0128 O   0  0  0  0  0  0  0  0  0  0  0  0
   12.5038  -18.4966   25.2076 N   0  0  0  0  0  0  0  0  0  0  0  0
   11.1255  -18.3139   25.4653 C   0  0  0  0  0  0  0  0  0  0  0  0
   10.6375  -18.8676   26.4785 O   0  0  0  0  0  0  0  0  0  0  0  0
   10.2399  -17.5033   24.5980 C   0  0  0  0  0  0  0  0  0  0  0  0
   10.9636  -16.8628   23.4747 C   0  0  2  0  0  0  0  0  0  0  0  0
   10.1817  -16.1028   22.5635 N   0  0  0  0  0  0  0  0  0  0  0  0
   11.7619  -17.9049   22.7687 C   0  0  0  0  0  0  0  0  0  0  0  0
   13.1264  -17.9730   22.7769 O   0  0  0  0  0  0  0  0  0  0  0  0
   11.1279  -18.7766   22.1239 O   0  0  0  0  0  0  0  0  0  0  0  0
  2  1  1  6
  2  3  1  0
  4  3  1  0
  5  4  1  0
  5  6  1  0
  7  6  1  0
  8  2  1  0
  8  9  2  0
 11 10  1  1
 11 12  1  0
 12  8  1  0
 13 11  1  0
 14 13  2  0
 16 18  1  0
 16 15  1  0
 17 16  2  0
 19 18  1  1
 19 20  1  0
 19 21  1  0
 20 13  1  0
 21 22  1  0
 23 21  2  0
M  END
$$$$
