RFC.pdb
     RDKit          3D

 29 29  0  0  1  0  0  0  0  0999 V2000
   24.5918  -18.0187  -17.3637 N   0  0  0  0  0  0  0  0  0  0  0  0
   23.3277  -18.0001  -16.7041 C   0  0  0  0  0  0  0  0  0  0  0  0
   22.3089  -17.6182  -17.4167 N   0  0  0  0  0  0  0  0  0  0  0  0
   23.2150  -18.3815  -15.3460 N   0  0  0  0  0  0  0  0  0  0  0  0
   24.3689  -18.8213  -14.6366 C   0  0  0  0  0  0  0  0  0  0  0  0
   24.5732  -20.3122  -14.6850 C   0  0  0  0  0  0  0  0  0  0  0  0
   24.5942  -20.9312  -13.3042 C   0  0  0  0  0  0  0  0  0  0  0  0
   25.9846  -20.7355  -12.7381 C   0  0  2  0  0  0  0  0  0  0  0  0
   26.8664  -21.6262  -13.4638 N   0  0  0  0  0  0  0  0  0  0  0  0
   26.0536  -21.0871  -11.3024 C   0  0  0  0  0  0  0  0  0  0  0  0
   26.0228  -22.2893  -10.9493 O   0  0  0  0  0  0  0  0  0  0  0  0
   21.3498  -17.5371  -17.0034 N   0  0  0  0  0  0  0  0  0  0  0  0
   26.1558  -20.1133  -10.2709 C   0  0  2  0  0  0  0  0  0  0  0  0
   26.0783  -20.3909   -8.8728 C   0  0  0  0  0  0  0  0  0  0  0  0
   26.5661  -19.1205   -8.1619 C   0  0  0  0  0  0  0  0  0  0  0  0
   27.2889  -19.4480   -6.9155 C   0  0  0  0  0  0  0  0  0  0  0  0
   26.6925  -19.4115   -5.6725 C   0  0  0  0  0  0  0  0  0  0  0  0
   27.3674  -19.7164   -4.5170 C   0  0  0  0  0  0  0  0  0  0  0  0
   28.6923  -20.0767   -4.5644 C   0  0  0  0  0  0  0  0  0  0  0  0
   29.3094  -20.1203   -5.7930 C   0  0  0  0  0  0  0  0  0  0  0  0
   28.6123  -19.8081   -6.9608 C   0  0  0  0  0  0  0  0  0  0  0  0
   24.7189  -20.6704   -8.3714 O   0  0  0  0  0  0  0  0  0  0  0  0
   23.7500  -19.9506   -8.7683 N   0  0  0  0  0  0  0  0  0  0  0  0
   24.4073  -21.7040   -7.4630 C   0  0  2  0  0  0  0  0  0  0  0  0
   23.0332  -22.0046   -7.0571 C   0  0  0  0  0  0  0  0  0  0  0  0
   23.0435  -23.0491   -5.9365 S   0  0  0  0  0  0  0  0  0  0  0  0
   21.3210  -23.3552   -5.4815 C   0  0  0  0  0  0  0  0  0  0  0  0
   22.4957  -20.7742   -6.4316 O   0  0  0  0  0  0  0  0  0  0  0  0
   23.3541  -19.9886   -5.9104 O   0  0  0  0  0  0  0  0  0  0  0  0
  1  2  1  0
  2  3  2  0
  4  5  1  0
  4  2  1  0
  6  5  1  0
  7  6  1  0
  8 10  1  0
  8  7  1  0
  8  9  1  6
 10 11  2  0
 12 13  1  0
 12 10  1  0
 14 15  1  0
 13 14  1  6
 15 16  2  0
 16 17  1  0
 18 17  2  0
 19 18  1  0
 20 19  2  0
 20 15  1  0
 21 22  2  0
 21 13  1  0
 23 21  1  0
 24 23  1  0
 24 27  1  0
 24 25  1  1
 26 25  1  0
 27 29  1  0
 28 27  2  0
M  END
$$$$
