RFC.pdb
     RDKit          3D

 29 29  0  0  1  0  0  0  0  0999 V2000
   27.9243  -19.1439  -16.9324 N   0  0  0  0  0  0  0  0  0  0  0  0
   27.7368  -17.7836  -16.5478 C   0  0  0  0  0  0  0  0  0  0  0  0
   27.7428  -16.9052  -17.5069 N   0  0  0  0  0  0  0  0  0  0  0  0
   27.5559  -17.4350  -15.1883 N   0  0  0  0  0  0  0  0  0  0  0  0
   28.3393  -18.0723  -14.1842 C   0  0  0  0  0  0  0  0  0  0  0  0
   28.2186  -19.5731  -14.1891 C   0  0  0  0  0  0  0  0  0  0  0  0
   27.2524  -20.0721  -13.1365 C   0  0  0  0  0  0  0  0  0  0  0  0
   28.0690  -20.5108  -11.9396 C   0  0  2  0  0  0  0  0  0  0  0  0
   28.8757  -21.6351  -12.3668 N   0  0  0  0  0  0  0  0  0  0  0  0
   27.2135  -20.9568  -10.8177 C   0  0  0  0  0  0  0  0  0  0  0  0
   26.8218  -22.1461  -10.7624 O   0  0  0  0  0  0  0  0  0  0  0  0
   27.5690  -15.8890  -17.3212 N   0  0  0  0  0  0  0  0  0  0  0  0
   26.7980  -20.0906   -9.7691 C   0  0  2  0  0  0  0  0  0  0  0  0
   25.7167  -20.3493   -8.8738 C   0  0  0  0  0  0  0  0  0  0  0  0
   25.8563  -19.3281   -7.7359 C   0  0  0  0  0  0  0  0  0  0  0  0
   26.9823  -19.6715   -6.8430 C   0  0  0  0  0  0  0  0  0  0  0  0
   27.3495  -20.9720   -6.5674 C   0  0  0  0  0  0  0  0  0  0  0  0
   28.3961  -21.2869   -5.7373 C   0  0  0  0  0  0  0  0  0  0  0  0
   29.1292  -20.2903   -5.1400 C   0  0  0  0  0  0  0  0  0  0  0  0
   28.7821  -18.9848   -5.3995 C   0  0  0  0  0  0  0  0  0  0  0  0
   27.7158  -18.6775   -6.2454 C   0  0  0  0  0  0  0  0  0  0  0  0
   24.3732  -20.1649   -9.4559 O   0  0  0  0  0  0  0  0  0  0  0  0
   23.4506  -19.6613   -8.7421 N   0  0  0  0  0  0  0  0  0  0  0  0
   24.0293  -20.5132  -10.7791 C   0  0  1  0  0  0  0  0  0  0  0  0
   22.6891  -20.2933  -11.3257 C   0  0  0  0  0  0  0  0  0  0  0  0
   22.6875  -20.6013  -12.8263 S   0  0  0  0  0  0  0  0  0  0  0  0
   23.9323  -19.5344  -13.5877 C   0  0  0  0  0  0  0  0  0  0  0  0
   21.8094  -21.3202  -10.7210 O   0  0  0  0  0  0  0  0  0  0  0  0
   22.3749  -22.1538   -9.9394 O   0  0  0  0  0  0  0  0  0  0  0  0
  1  2  1  0
  2  3  2  0
  4  5  1  0
  4  2  1  0
  6  5  1  0
  7  6  1  0
  8 10  1  0
  8  7  1  0
  8  9  1  6
 10 11  2  0
 12 13  1  0
 12 10  1  0
 14 15  1  0
 13 14  1  6
 15 16  2  0
 16 17  1  0
 18 17  2  0
 19 18  1  0
 20 19  2  0
 20 15  1  0
 21 22  2  0
 21 13  1  0
 23 21  1  0
 24 23  1  0
 24 27  1  0
 24 25  1  6
 26 25  1  0
 27 29  1  0
 28 27  2  0
M  END
$$$$
