RFC.pdb
     RDKit          3D

 29 29  0  0  1  0  0  0  0  0999 V2000
   30.9280  -21.1650  -21.0391 N   0  0  0  0  0  0  0  0  0  0  0  0
   30.0832  -20.1119  -21.4983 C   0  0  0  0  0  0  0  0  0  0  0  0
   29.8436  -20.0781  -22.7761 N   0  0  0  0  0  0  0  0  0  0  0  0
   29.5473  -19.1672  -20.5912 N   0  0  0  0  0  0  0  0  0  0  0  0
   28.1371  -18.9878  -20.5077 C   0  0  0  0  0  0  0  0  0  0  0  0
   27.4065  -20.1960  -19.9850 C   0  0  0  0  0  0  0  0  0  0  0  0
   26.7247  -19.9234  -18.6616 C   0  0  0  0  0  0  0  0  0  0  0  0
   27.7024  -20.2822  -17.5628 C   0  0  2  0  0  0  0  0  0  0  0  0
   28.5785  -21.3060  -18.0934 N   0  0  0  0  0  0  0  0  0  0  0  0
   27.0198  -20.8318  -16.3706 C   0  0  0  0  0  0  0  0  0  0  0  0
   26.2519  -21.8157  -16.4858 O   0  0  0  0  0  0  0  0  0  0  0  0
   29.2060  -19.3607  -23.1959 N   0  0  0  0  0  0  0  0  0  0  0  0
   27.1888  -20.2939  -15.0649 C   0  0  2  0  0  0  0  0  0  0  0  0
   26.4494  -20.6961  -13.9120 C   0  0  0  0  0  0  0  0  0  0  0  0
   27.0821  -19.9565  -12.7247 C   0  0  0  0  0  0  0  0  0  0  0  0
   26.4196  -20.3171  -11.4542 C   0  0  0  0  0  0  0  0  0  0  0  0
   26.7160  -21.4689  -10.7559 C   0  0  0  0  0  0  0  0  0  0  0  0
   26.0982  -21.8004   -9.5760 C   0  0  0  0  0  0  0  0  0  0  0  0
   25.1407  -20.9735   -9.0404 C   0  0  0  0  0  0  0  0  0  0  0  0
   24.8277  -19.8184   -9.7187 C   0  0  0  0  0  0  0  0  0  0  0  0
   25.4629  -19.4924  -10.9176 C   0  0  0  0  0  0  0  0  0  0  0  0
   25.0198  -20.3309  -13.9348 O   0  0  0  0  0  0  0  0  0  0  0  0
   24.6926  -19.1051  -14.0029 N   0  0  0  0  0  0  0  0  0  0  0  0
   23.9634  -21.2650  -13.8873 C   0  0  1  0  0  0  0  0  0  0  0  0
   22.5565  -20.8603  -13.8986 C   0  0  0  0  0  0  0  0  0  0  0  0
   21.7092  -21.9591  -14.5476 S   0  0  0  0  0  0  0  0  0  0  0  0
   22.2614  -23.5340  -13.8530 C   0  0  0  0  0  0  0  0  0  0  0  0
   22.1149  -20.8177  -12.4854 O   0  0  0  0  0  0  0  0  0  0  0  0
   22.9229  -21.3086  -11.6299 O   0  0  0  0  0  0  0  0  0  0  0  0
  1  2  1  0
  2  3  2  0
  4  5  1  0
  4  2  1  0
  6  5  1  0
  7  6  1  0
  8 10  1  0
  8  7  1  0
  8  9  1  6
 10 11  2  0
 12 13  1  0
 12 10  1  0
 14 15  1  0
 13 14  1  1
 15 16  2  0
 16 17  1  0
 18 17  2  0
 19 18  1  0
 20 19  2  0
 20 15  1  0
 21 22  2  0
 21 13  1  0
 23 21  1  0
 24 23  1  0
 24 27  1  0
 24 25  1  1
 26 25  1  0
 27 29  1  0
 28 27  2  0
M  END
$$$$
