RFC.pdb
     RDKit          3D

 29 29  0  0  1  0  0  0  0  0999 V2000
   27.6969  -19.1293  -21.6565 N   0  0  0  0  0  0  0  0  0  0  0  0
   27.3627  -17.7899  -21.2990 C   0  0  0  0  0  0  0  0  0  0  0  0
   27.1719  -16.9594  -22.2815 N   0  0  0  0  0  0  0  0  0  0  0  0
   27.2509  -17.4107  -19.9402 N   0  0  0  0  0  0  0  0  0  0  0  0
   27.0992  -18.4100  -18.9370 C   0  0  0  0  0  0  0  0  0  0  0  0
   25.7985  -19.1627  -19.0291 C   0  0  0  0  0  0  0  0  0  0  0  0
   25.6298  -20.1528  -17.8971 C   0  0  0  0  0  0  0  0  0  0  0  0
   27.0104  -20.6311  -17.5004 C   0  0  2  0  0  0  0  0  0  0  0  0
   27.3126  -21.7825  -18.3253 N   0  0  0  0  0  0  0  0  0  0  0  0
   27.0656  -21.0521  -16.0829 C   0  0  0  0  0  0  0  0  0  0  0  0
   26.4580  -22.0834  -15.7111 O   0  0  0  0  0  0  0  0  0  0  0  0
   26.9560  -15.9485  -22.1112 N   0  0  0  0  0  0  0  0  0  0  0  0
   27.7880  -20.3348  -15.0899 C   0  0  2  0  0  0  0  0  0  0  0  0
   27.8044  -20.6545  -13.6987 C   0  0  0  0  0  0  0  0  0  0  0  0
   28.9362  -19.8175  -13.0858 C   0  0  0  0  0  0  0  0  0  0  0  0
   29.1203  -20.1321  -11.6540 C   0  0  0  0  0  0  0  0  0  0  0  0
   28.3771  -19.5383  -10.6554 C   0  0  0  0  0  0  0  0  0  0  0  0
   28.5512  -19.8333   -9.3263 C   0  0  0  0  0  0  0  0  0  0  0  0
   29.4957  -20.7531   -8.9399 C   0  0  0  0  0  0  0  0  0  0  0  0
   30.2496  -21.3591   -9.9179 C   0  0  0  0  0  0  0  0  0  0  0  0
   30.0631  -21.0506  -11.2660 C   0  0  0  0  0  0  0  0  0  0  0  0
   26.5691  -20.3088  -12.9693 O   0  0  0  0  0  0  0  0  0  0  0  0
   26.0523  -19.1595  -13.1322 N   0  0  0  0  0  0  0  0  0  0  0  0
   25.9020  -21.1817  -12.0841 C   0  0  1  0  0  0  0  0  0  0  0  0
   24.6570  -20.8132  -11.4077 C   0  0  0  0  0  0  0  0  0  0  0  0
   23.5715  -21.8457  -11.7274 S   0  0  0  0  0  0  0  0  0  0  0  0
   22.1165  -21.4053  -10.7492 C   0  0  0  0  0  0  0  0  0  0  0  0
   24.9052  -20.9530   -9.9542 O   0  0  0  0  0  0  0  0  0  0  0  0
   25.5519  -21.9906   -9.5925 O   0  0  0  0  0  0  0  0  0  0  0  0
  1  2  1  0
  2  3  2  0
  4  5  1  0
  4  2  1  0
  6  5  1  0
  7  6  1  0
  8 10  1  0
  8  7  1  0
  8  9  1  6
 10 11  2  0
 12 13  1  0
 12 10  1  0
 14 15  1  0
 13 14  1  6
 15 16  2  0
 16 17  1  0
 18 17  2  0
 19 18  1  0
 20 19  2  0
 20 15  1  0
 21 22  2  0
 21 13  1  0
 23 21  1  0
 24 23  1  0
 24 27  1  0
 24 25  1  1
 26 25  1  0
 27 29  1  0
 28 27  2  0
M  END
$$$$
