RFC.pdb
     RDKit          3D

 29 29  0  0  1  0  0  0  0  0999 V2000
   25.6833  -22.7352  -22.2008 N   0  0  0  0  0  0  0  0  0  0  0  0
   24.9808  -23.5975  -21.3085 C   0  0  0  0  0  0  0  0  0  0  0  0
   24.5127  -24.6992  -21.8171 N   0  0  0  0  0  0  0  0  0  0  0  0
   24.8158  -23.2496  -19.9468 N   0  0  0  0  0  0  0  0  0  0  0  0
   25.4298  -22.0694  -19.4387 C   0  0  0  0  0  0  0  0  0  0  0  0
   26.8472  -22.2797  -18.9763 C   0  0  0  0  0  0  0  0  0  0  0  0
   26.9377  -23.2873  -17.8508 C   0  0  0  0  0  0  0  0  0  0  0  0
   27.6859  -22.6305  -16.7102 C   0  0  2  0  0  0  0  0  0  0  0  0
   28.8660  -23.4322  -16.4609 N   0  0  0  0  0  0  0  0  0  0  0  0
   26.8825  -22.5937  -15.4681 C   0  0  0  0  0  0  0  0  0  0  0  0
   26.6035  -23.6592  -14.8701 O   0  0  0  0  0  0  0  0  0  0  0  0
   23.9381  -25.3653  -21.2484 N   0  0  0  0  0  0  0  0  0  0  0  0
   26.3948  -21.3859  -14.8971 C   0  0  1  0  0  0  0  0  0  0  0  0
   25.6462  -21.2975  -13.6849 C   0  0  0  0  0  0  0  0  0  0  0  0
   26.2154  -20.0920  -12.9234 C   0  0  0  0  0  0  0  0  0  0  0  0
   27.4429  -20.4553  -12.1855 C   0  0  0  0  0  0  0  0  0  0  0  0
   27.4213  -21.1278  -10.9816 C   0  0  0  0  0  0  0  0  0  0  0  0
   28.5638  -21.4634  -10.2992 C   0  0  0  0  0  0  0  0  0  0  0  0
   29.7961  -21.1311  -10.8076 C   0  0  0  0  0  0  0  0  0  0  0  0
   29.8435  -20.4598  -12.0074 C   0  0  0  0  0  0  0  0  0  0  0  0
   28.6746  -20.1242  -12.6917 C   0  0  0  0  0  0  0  0  0  0  0  0
   24.2025  -21.0508  -13.8652 O   0  0  0  0  0  0  0  0  0  0  0  0
   23.8175  -20.2520  -14.7751 N   0  0  0  0  0  0  0  0  0  0  0  0
   23.1932  -21.6523  -13.0841 C   0  0  1  0  0  0  0  0  0  0  0  0
   21.7718  -21.3595  -13.2773 C   0  0  0  0  0  0  0  0  0  0  0  0
   20.9327  -22.2433  -12.3493 S   0  0  0  0  0  0  0  0  0  0  0  0
   19.2086  -22.0632  -12.8619 C   0  0  0  0  0  0  0  0  0  0  0  0
   21.5529  -19.9767  -12.7937 O   0  0  0  0  0  0  0  0  0  0  0  0
   22.3108  -19.5873  -11.8452 O   0  0  0  0  0  0  0  0  0  0  0  0
  1  2  1  0
  2  3  2  0
  4  5  1  0
  4  2  1  0
  6  5  1  0
  7  6  1  0
  8 10  1  0
  8  7  1  0
  8  9  1  1
 10 11  2  0
 12 13  1  0
 12 10  1  0
 14 15  1  0
 13 14  1  1
 15 16  2  0
 16 17  1  0
 18 17  2  0
 19 18  1  0
 20 19  2  0
 20 15  1  0
 21 22  2  0
 21 13  1  0
 23 21  1  0
 24 23  1  0
 24 27  1  0
 24 25  1  1
 26 25  1  0
 27 29  1  0
 28 27  2  0
M  END
$$$$
