RFC.pdb
     RDKit          3D

 29 29  0  0  1  0  0  0  0  0999 V2000
   26.5958  -20.8431  -21.3362 N   0  0  0  0  0  0  0  0  0  0  0  0
   27.6879  -19.9380  -21.4833 C   0  0  0  0  0  0  0  0  0  0  0  0
   27.6987  -19.2154  -22.5646 N   0  0  0  0  0  0  0  0  0  0  0  0
   28.6929  -19.8501  -20.4910 N   0  0  0  0  0  0  0  0  0  0  0  0
   28.4080  -20.2602  -19.1573 C   0  0  0  0  0  0  0  0  0  0  0  0
   27.4359  -19.3579  -18.4448 C   0  0  0  0  0  0  0  0  0  0  0  0
   26.4918  -20.1294  -17.5482 C   0  0  0  0  0  0  0  0  0  0  0  0
   27.3229  -21.1079  -16.7459 C   0  0  2  0  0  0  0  0  0  0  0  0
   27.5034  -22.2852  -17.5699 N   0  0  0  0  0  0  0  0  0  0  0  0
   26.6439  -21.5188  -15.4970 C   0  0  0  0  0  0  0  0  0  0  0  0
   25.6875  -22.3277  -15.5403 O   0  0  0  0  0  0  0  0  0  0  0  0
   28.4930  -18.5688  -22.7845 N   0  0  0  0  0  0  0  0  0  0  0  0
   27.0239  -21.0360  -14.2143 C   0  0  2  0  0  0  0  0  0  0  0  0
   26.2531  -21.1859  -13.0222 C   0  0  0  0  0  0  0  0  0  0  0  0
   27.1248  -20.6375  -11.8834 C   0  0  0  0  0  0  0  0  0  0  0  0
   26.4182  -20.7054  -10.5876 C   0  0  0  0  0  0  0  0  0  0  0  0
   26.2228  -21.8862   -9.9023 C   0  0  0  0  0  0  0  0  0  0  0  0
   25.5658  -21.9450   -8.6987 C   0  0  0  0  0  0  0  0  0  0  0  0
   25.0697  -20.7997   -8.1248 C   0  0  0  0  0  0  0  0  0  0  0  0
   25.2521  -19.6092   -8.7894 C   0  0  0  0  0  0  0  0  0  0  0  0
   25.9219  -19.5624  -10.0127 C   0  0  0  0  0  0  0  0  0  0  0  0
   24.9891  -20.4246  -13.0023 O   0  0  0  0  0  0  0  0  0  0  0  0
   25.0189  -19.1662  -13.1749 N   0  0  0  0  0  0  0  0  0  0  0  0
   23.7187  -21.0049  -12.8026 C   0  0  1  0  0  0  0  0  0  0  0  0
   22.4996  -20.2033  -12.6822 C   0  0  0  0  0  0  0  0  0  0  0  0
   21.7810  -20.1517  -14.0341 S   0  0  0  0  0  0  0  0  0  0  0  0
   22.0275  -21.7575  -14.8269 C   0  0  0  0  0  0  0  0  0  0  0  0
   21.5854  -20.9512  -11.7885 O   0  0  0  0  0  0  0  0  0  0  0  0
   20.5094  -20.3524  -11.4579 O   0  0  0  0  0  0  0  0  0  0  0  0
  1  2  1  0
  2  3  2  0
  4  5  1  0
  4  2  1  0
  6  5  1  0
  7  6  1  0
  8 10  1  0
  8  7  1  0
  8  9  1  6
 10 11  2  0
 12 13  1  0
 12 10  1  0
 14 15  1  0
 13 14  1  1
 15 16  2  0
 16 17  1  0
 18 17  2  0
 19 18  1  0
 20 19  2  0
 20 15  1  0
 21 22  2  0
 21 13  1  0
 23 21  1  0
 24 23  1  0
 24 27  1  0
 24 25  1  1
 26 25  1  0
 27 29  1  0
 28 27  2  0
M  END
$$$$
