RFC.pdb
     RDKit          3D

 29 29  0  0  1  0  0  0  0  0999 V2000
   26.4977  -20.3688  -21.7907 N   0  0  0  0  0  0  0  0  0  0  0  0
   25.3771  -19.5082  -21.5978 C   0  0  0  0  0  0  0  0  0  0  0  0
   24.8484  -18.9977  -22.6707 N   0  0  0  0  0  0  0  0  0  0  0  0
   24.8865  -19.2405  -20.2978 N   0  0  0  0  0  0  0  0  0  0  0  0
   25.4985  -19.8573  -19.1696 C   0  0  0  0  0  0  0  0  0  0  0  0
   25.2218  -21.3338  -19.0671 C   0  0  0  0  0  0  0  0  0  0  0  0
   24.3365  -21.6687  -17.8863 C   0  0  0  0  0  0  0  0  0  0  0  0
   25.1194  -21.3603  -16.6278 C   0  0  2  0  0  0  0  0  0  0  0  0
   26.3001  -22.1989  -16.6477 N   0  0  0  0  0  0  0  0  0  0  0  0
   24.3498  -21.6766  -15.4042 C   0  0  0  0  0  0  0  0  0  0  0  0
   23.9954  -22.8565  -15.1739 O   0  0  0  0  0  0  0  0  0  0  0  0
   23.9953  -18.3913  -22.6268 N   0  0  0  0  0  0  0  0  0  0  0  0
   23.9783  -20.6922  -14.4473 C   0  0  2  0  0  0  0  0  0  0  0  0
   23.2012  -20.9416  -13.2761 C   0  0  0  0  0  0  0  0  0  0  0  0
   23.5030  -19.7838  -12.3140 C   0  0  0  0  0  0  0  0  0  0  0  0
   22.8557  -19.9944  -11.0025 C   0  0  0  0  0  0  0  0  0  0  0  0
   21.6390  -19.4366  -10.6700 C   0  0  0  0  0  0  0  0  0  0  0  0
   21.0410  -19.6346   -9.4507 C   0  0  0  0  0  0  0  0  0  0  0  0
   21.6520  -20.4148   -8.4991 C   0  0  0  0  0  0  0  0  0  0  0  0
   22.8666  -20.9822   -8.8074 C   0  0  0  0  0  0  0  0  0  0  0  0
   23.4644  -20.7734  -10.0508 C   0  0  0  0  0  0  0  0  0  0  0  0
   21.7415  -20.9529  -13.4923 O   0  0  0  0  0  0  0  0  0  0  0  0
   21.2050  -20.0146  -14.1603 N   0  0  0  0  0  0  0  0  0  0  0  0
   20.8764  -21.9536  -13.0017 C   0  0  1  0  0  0  0  0  0  0  0  0
   19.4379  -21.9505  -13.2741 C   0  0  0  0  0  0  0  0  0  0  0  0
   18.9756  -23.3695  -13.6194 S   0  0  0  0  0  0  0  0  0  0  0  0
   19.8107  -24.4923  -12.4751 C   0  0  0  0  0  0  0  0  0  0  0  0
   18.7638  -21.6264  -11.9957 O   0  0  0  0  0  0  0  0  0  0  0  0
   19.5037  -21.6179  -10.9574 O   0  0  0  0  0  0  0  0  0  0  0  0
  1  2  1  0
  2  3  2  0
  4  5  1  0
  4  2  1  0
  6  5  1  0
  7  6  1  0
  8 10  1  0
  8  7  1  0
  8  9  1  6
 10 11  2  0
 12 13  1  0
 12 10  1  0
 14 15  1  0
 13 14  1  1
 15 16  2  0
 16 17  1  0
 18 17  2  0
 19 18  1  0
 20 19  2  0
 20 15  1  0
 21 22  2  0
 21 13  1  0
 23 21  1  0
 24 23  1  0
 24 27  1  0
 24 25  1  1
 26 25  1  0
 27 29  1  0
 28 27  2  0
M  END
$$$$
