RFC.pdb
     RDKit          3D

 29 29  0  0  1  0  0  0  0  0999 V2000
   18.9285  -17.5728  -20.2822 N   0  0  0  0  0  0  0  0  0  0  0  0
   19.0301  -18.6332  -19.3342 C   0  0  0  0  0  0  0  0  0  0  0  0
   18.4820  -19.7638  -19.6699 N   0  0  0  0  0  0  0  0  0  0  0  0
   19.6971  -18.4394  -18.1013 N   0  0  0  0  0  0  0  0  0  0  0  0
   20.2855  -17.1766  -17.8061 C   0  0  0  0  0  0  0  0  0  0  0  0
   20.9009  -17.1054  -16.4339 C   0  0  0  0  0  0  0  0  0  0  0  0
   21.6473  -18.3723  -16.0758 C   0  0  0  0  0  0  0  0  0  0  0  0
   23.0178  -18.2895  -16.7137 C   0  0  2  0  0  0  0  0  0  0  0  0
   22.9377  -18.9867  -17.9806 N   0  0  0  0  0  0  0  0  0  0  0  0
   24.0542  -18.9492  -15.8890 C   0  0  0  0  0  0  0  0  0  0  0  0
   24.1816  -20.1957  -15.9214 O   0  0  0  0  0  0  0  0  0  0  0  0
   18.4317  -20.5690  -19.0016 N   0  0  0  0  0  0  0  0  0  0  0  0
   24.9392  -18.2314  -15.0380 C   0  0  1  0  0  0  0  0  0  0  0  0
   25.9627  -18.8216  -14.2369 C   0  0  0  0  0  0  0  0  0  0  0  0
   27.1349  -17.8301  -14.2508 C   0  0  0  0  0  0  0  0  0  0  0  0
   27.8243  -17.8338  -15.5576 C   0  0  0  0  0  0  0  0  0  0  0  0
   28.7432  -18.7976  -15.9166 C   0  0  0  0  0  0  0  0  0  0  0  0
   29.3815  -18.7974  -17.1316 C   0  0  0  0  0  0  0  0  0  0  0  0
   29.1178  -17.8116  -18.0514 C   0  0  0  0  0  0  0  0  0  0  0  0
   28.2047  -16.8389  -17.7164 C   0  0  0  0  0  0  0  0  0  0  0  0
   27.5622  -16.8500  -16.4777 C   0  0  0  0  0  0  0  0  0  0  0  0
   25.5964  -19.0361  -12.8235 O   0  0  0  0  0  0  0  0  0  0  0  0
   25.0480  -18.0920  -12.1737 N   0  0  0  0  0  0  0  0  0  0  0  0
   25.8138  -20.2417  -12.1238 C   0  0  1  0  0  0  0  0  0  0  0  0
   25.4396  -20.4123  -10.7187 C   0  0  0  0  0  0  0  0  0  0  0  0
   24.7015  -21.7427  -10.5398 S   0  0  0  0  0  0  0  0  0  0  0  0
   23.0254  -21.5085  -11.1751 C   0  0  0  0  0  0  0  0  0  0  0  0
   26.7013  -20.5668   -9.9583 O   0  0  0  0  0  0  0  0  0  0  0  0
   27.7479  -20.7983  -10.6487 O   0  0  0  0  0  0  0  0  0  0  0  0
  1  2  1  0
  2  3  2  0
  4  5  1  0
  4  2  1  0
  6  5  1  0
  7  6  1  0
  8 10  1  0
  8  7  1  0
  8  9  1  6
 10 11  2  0
 12 13  1  0
 12 10  1  0
 14 15  1  0
 13 14  1  6
 15 16  2  0
 16 17  1  0
 18 17  2  0
 19 18  1  0
 20 19  2  0
 20 15  1  0
 21 22  2  0
 21 13  1  0
 23 21  1  0
 24 23  1  0
 24 27  1  0
 24 25  1  1
 26 25  1  0
 27 29  1  0
 28 27  2  0
M  END
$$$$
