RFC.pdb
     RDKit          3D

 29 29  0  0  1  0  0  0  0  0999 V2000
   26.7471  -17.6759  -17.2021 N   0  0  0  0  0  0  0  0  0  0  0  0
   26.4053  -16.4983  -16.4742 C   0  0  0  0  0  0  0  0  0  0  0  0
   25.7016  -15.6087  -17.1106 N   0  0  0  0  0  0  0  0  0  0  0  0
   26.8218  -16.3313  -15.1321 N   0  0  0  0  0  0  0  0  0  0  0  0
   27.3484  -17.4411  -14.4116 C   0  0  0  0  0  0  0  0  0  0  0  0
   28.1469  -18.3893  -15.2660 C   0  0  0  0  0  0  0  0  0  0  0  0
   27.5899  -19.7961  -15.2322 C   0  0  0  0  0  0  0  0  0  0  0  0
   28.0537  -20.4390  -13.9424 C   0  0  2  0  0  0  0  0  0  0  0  0
   28.9072  -21.5509  -14.3067 N   0  0  0  0  0  0  0  0  0  0  0  0
   26.9226  -20.9670  -13.1478 C   0  0  0  0  0  0  0  0  0  0  0  0
   26.3809  -22.0500  -13.4711 O   0  0  0  0  0  0  0  0  0  0  0  0
   25.4459  -14.6935  -16.6696 N   0  0  0  0  0  0  0  0  0  0  0  0
   26.3996  -20.2987  -12.0065 C   0  0  2  0  0  0  0  0  0  0  0  0
   25.2575  -20.7219  -11.2622 C   0  0  0  0  0  0  0  0  0  0  0  0
   25.2938  -19.9317   -9.9463 C   0  0  0  0  0  0  0  0  0  0  0  0
   26.5199  -20.2282   -9.1770 C   0  0  0  0  0  0  0  0  0  0  0  0
   26.8443  -19.5773   -8.0051 C   0  0  0  0  0  0  0  0  0  0  0  0
   27.9843  -19.8556   -7.2935 C   0  0  0  0  0  0  0  0  0  0  0  0
   28.8602  -20.8161   -7.7381 C   0  0  0  0  0  0  0  0  0  0  0  0
   28.5584  -21.4793   -8.9048 C   0  0  0  0  0  0  0  0  0  0  0  0
   27.3960  -21.1873   -9.6195 C   0  0  0  0  0  0  0  0  0  0  0  0
   23.9595  -20.4334  -11.9023 O   0  0  0  0  0  0  0  0  0  0  0  0
   23.6951  -19.2441  -12.2627 N   0  0  0  0  0  0  0  0  0  0  0  0
   22.9667  -21.4044  -12.1516 C   0  0  1  0  0  0  0  0  0  0  0  0
   21.7696  -21.1178  -12.9441 C   0  0  0  0  0  0  0  0  0  0  0  0
   21.3807  -22.3566  -13.7569 S   0  0  0  0  0  0  0  0  0  0  0  0
   21.4201  -23.7663  -12.6260 C   0  0  0  0  0  0  0  0  0  0  0  0
   20.6596  -20.9239  -11.9828 O   0  0  0  0  0  0  0  0  0  0  0  0
   20.9347  -21.1403  -10.7567 O   0  0  0  0  0  0  0  0  0  0  0  0
  1  2  1  0
  2  3  2  0
  4  5  1  0
  4  2  1  0
  6  5  1  0
  7  6  1  0
  8 10  1  0
  8  7  1  0
  8  9  1  6
 10 11  2  0
 12 13  1  0
 12 10  1  0
 14 15  1  0
 13 14  1  6
 15 16  2  0
 16 17  1  0
 18 17  2  0
 19 18  1  0
 20 19  2  0
 20 15  1  0
 21 22  2  0
 21 13  1  0
 23 21  1  0
 24 23  1  0
 24 27  1  0
 24 25  1  1
 26 25  1  0
 27 29  1  0
 28 27  2  0
M  END
$$$$
