RFC.pdb
     RDKit          3D

 29 29  0  0  1  0  0  0  0  0999 V2000
   27.2100  -20.3948  -17.3120 N   0  0  0  0  0  0  0  0  0  0  0  0
   25.7869  -20.3047  -17.3256 C   0  0  0  0  0  0  0  0  0  0  0  0
   25.2518  -19.7597  -18.3783 N   0  0  0  0  0  0  0  0  0  0  0  0
   25.0213  -20.7899  -16.2390 N   0  0  0  0  0  0  0  0  0  0  0  0
   25.5597  -20.7516  -14.9211 C   0  0  0  0  0  0  0  0  0  0  0  0
   24.8285  -19.8121  -13.9994 C   0  0  0  0  0  0  0  0  0  0  0  0
   24.7192  -20.3609  -12.5933 C   0  0  0  0  0  0  0  0  0  0  0  0
   26.0124  -21.0853  -12.2850 C   0  0  2  0  0  0  0  0  0  0  0  0
   25.9434  -22.3732  -12.9438 N   0  0  0  0  0  0  0  0  0  0  0  0
   26.1855  -21.3182  -10.8340 C   0  0  0  0  0  0  0  0  0  0  0  0
   25.5974  -22.2753  -10.2782 O   0  0  0  0  0  0  0  0  0  0  0  0
   24.2132  -19.6705  -18.4820 N   0  0  0  0  0  0  0  0  0  0  0  0
   27.0030  -20.4963  -10.0102 C   0  0  2  0  0  0  0  0  0  0  0  0
   27.1300  -20.6257   -8.5942 C   0  0  0  0  0  0  0  0  0  0  0  0
   28.2276  -19.6370   -8.1760 C   0  0  0  0  0  0  0  0  0  0  0  0
   28.4551  -19.6749   -6.7166 C   0  0  0  0  0  0  0  0  0  0  0  0
   29.0660  -20.7358   -6.0813 C   0  0  0  0  0  0  0  0  0  0  0  0
   29.2753  -20.7672   -4.7253 C   0  0  0  0  0  0  0  0  0  0  0  0
   28.8723  -19.7154   -3.9386 C   0  0  0  0  0  0  0  0  0  0  0  0
   28.2605  -18.6454   -4.5493 C   0  0  0  0  0  0  0  0  0  0  0  0
   28.0533  -18.6253   -5.9291 C   0  0  0  0  0  0  0  0  0  0  0  0
   25.9184  -20.2735   -7.8291 O   0  0  0  0  0  0  0  0  0  0  0  0
   25.3059  -19.1932   -8.0979 N   0  0  0  0  0  0  0  0  0  0  0  0
   25.3753  -21.0675   -6.7971 C   0  0  1  0  0  0  0  0  0  0  0  0
   24.1669  -20.6842   -6.0648 C   0  0  0  0  0  0  0  0  0  0  0  0
   23.0277  -21.6488   -6.4092 S   0  0  0  0  0  0  0  0  0  0  0  0
   23.6151  -23.3172   -6.0364 C   0  0  0  0  0  0  0  0  0  0  0  0
   24.4477  -20.9170   -4.6293 O   0  0  0  0  0  0  0  0  0  0  0  0
   25.5923  -21.4063   -4.3535 O   0  0  0  0  0  0  0  0  0  0  0  0
  1  2  1  0
  2  3  2  0
  4  5  1  0
  4  2  1  0
  6  5  1  0
  7  6  1  0
  8 10  1  0
  8  7  1  0
  8  9  1  6
 10 11  2  0
 12 13  1  0
 12 10  1  0
 14 15  1  0
 13 14  1  6
 15 16  2  0
 16 17  1  0
 18 17  2  0
 19 18  1  0
 20 19  2  0
 20 15  1  0
 21 22  2  0
 21 13  1  0
 23 21  1  0
 24 23  1  0
 24 27  1  0
 24 25  1  1
 26 25  1  0
 27 29  1  0
 28 27  2  0
M  END
$$$$
