RFC.pdb
     RDKit          3D

 29 29  0  0  1  0  0  0  0  0999 V2000
   28.8510  -22.4719  -15.2073 N   0  0  0  0  0  0  0  0  0  0  0  0
   29.4905  -23.3451  -16.1359 C   0  0  0  0  0  0  0  0  0  0  0  0
   30.4510  -24.0857  -15.6664 N   0  0  0  0  0  0  0  0  0  0  0  0
   29.0825  -23.3843  -17.4903 N   0  0  0  0  0  0  0  0  0  0  0  0
   27.8702  -22.7485  -17.8827 C   0  0  0  0  0  0  0  0  0  0  0  0
   26.7734  -23.7146  -18.2439 C   0  0  0  0  0  0  0  0  0  0  0  0
   25.4727  -23.3914  -17.5410 C   0  0  0  0  0  0  0  0  0  0  0  0
   25.6392  -23.7599  -16.0821 C   0  0  2  0  0  0  0  0  0  0  0  0
   25.4805  -25.1964  -15.9877 N   0  0  0  0  0  0  0  0  0  0  0  0
   24.6104  -23.1252  -15.2287 C   0  0  0  0  0  0  0  0  0  0  0  0
   23.5629  -23.7499  -14.9399 O   0  0  0  0  0  0  0  0  0  0  0  0
   31.0568  -24.6629  -16.2966 N   0  0  0  0  0  0  0  0  0  0  0  0
   24.7445  -21.8109  -14.7022 C   0  0  1  0  0  0  0  0  0  0  0  0
   23.7732  -21.1515  -13.8902 C   0  0  0  0  0  0  0  0  0  0  0  0
   24.5213  -20.0200  -13.1709 C   0  0  0  0  0  0  0  0  0  0  0  0
   24.8082  -20.3759  -11.7659 C   0  0  0  0  0  0  0  0  0  0  0  0
   23.8410  -20.3823  -10.7827 C   0  0  0  0  0  0  0  0  0  0  0  0
   24.1116  -20.7135   -9.4786 C   0  0  0  0  0  0  0  0  0  0  0  0
   25.3875  -21.0577   -9.1027 C   0  0  0  0  0  0  0  0  0  0  0  0
   26.3697  -21.0586  -10.0657 C   0  0  0  0  0  0  0  0  0  0  0  0
   26.0819  -20.7199  -11.3885 C   0  0  0  0  0  0  0  0  0  0  0  0
   22.6629  -20.5280  -14.6359 O   0  0  0  0  0  0  0  0  0  0  0  0
   22.9251  -19.7554  -15.6099 N   0  0  0  0  0  0  0  0  0  0  0  0
   21.2983  -20.7327  -14.3416 C   0  0  1  0  0  0  0  0  0  0  0  0
   20.2255  -20.1086  -15.1181 C   0  0  0  0  0  0  0  0  0  0  0  0
   19.7317  -21.0838  -16.1914 S   0  0  0  0  0  0  0  0  0  0  0  0
   19.6944  -22.7266  -15.4381 C   0  0  0  0  0  0  0  0  0  0  0  0
   19.0784  -19.9368  -14.1970 O   0  0  0  0  0  0  0  0  0  0  0  0
   19.2597  -20.3254  -12.9963 O   0  0  0  0  0  0  0  0  0  0  0  0
  1  2  1  0
  2  3  2  0
  4  5  1  0
  4  2  1  0
  6  5  1  0
  7  6  1  0
  8 10  1  0
  8  7  1  0
  8  9  1  6
 10 11  2  0
 12 13  1  0
 12 10  1  0
 14 15  1  0
 13 14  1  1
 15 16  2  0
 16 17  1  0
 18 17  2  0
 19 18  1  0
 20 19  2  0
 20 15  1  0
 21 22  2  0
 21 13  1  0
 23 21  1  0
 24 23  1  0
 24 27  1  0
 24 25  1  6
 26 25  1  0
 27 29  1  0
 28 27  2  0
M  END
$$$$
