RFC.pdb
     RDKit          3D

 29 29  0  0  1  0  0  0  0  0999 V2000
   27.8858  -15.5445  -15.9558 N   0  0  0  0  0  0  0  0  0  0  0  0
   28.0760  -16.4545  -17.0371 C   0  0  0  0  0  0  0  0  0  0  0  0
   29.1205  -16.2535  -17.7855 N   0  0  0  0  0  0  0  0  0  0  0  0
   27.1622  -17.5114  -17.2619 N   0  0  0  0  0  0  0  0  0  0  0  0
   26.2635  -17.9014  -16.2284 C   0  0  0  0  0  0  0  0  0  0  0  0
   26.7345  -19.0942  -15.4396 C   0  0  0  0  0  0  0  0  0  0  0  0
   27.2235  -18.7099  -14.0598 C   0  0  0  0  0  0  0  0  0  0  0  0
   27.6928  -19.9753  -13.3739 C   0  0  2  0  0  0  0  0  0  0  0  0
   28.0734  -20.9057  -14.4164 N   0  0  0  0  0  0  0  0  0  0  0  0
   26.6206  -20.5996  -12.5676 C   0  0  0  0  0  0  0  0  0  0  0  0
   26.0653  -21.6493  -12.9683 O   0  0  0  0  0  0  0  0  0  0  0  0
   29.2822  -16.8049  -18.6614 N   0  0  0  0  0  0  0  0  0  0  0  0
   26.1707  -20.0630  -11.3297 C   0  0  2  0  0  0  0  0  0  0  0  0
   25.1568  -20.6406  -10.5075 C   0  0  0  0  0  0  0  0  0  0  0  0
   25.0438  -19.7326   -9.2746 C   0  0  0  0  0  0  0  0  0  0  0  0
   26.2008  -19.9076   -8.3725 C   0  0  0  0  0  0  0  0  0  0  0  0
   26.7194  -21.1446   -8.0514 C   0  0  0  0  0  0  0  0  0  0  0  0
   27.7943  -21.3030   -7.2128 C   0  0  0  0  0  0  0  0  0  0  0  0
   28.4025  -20.2057   -6.6531 C   0  0  0  0  0  0  0  0  0  0  0  0
   27.9033  -18.9608   -6.9584 C   0  0  0  0  0  0  0  0  0  0  0  0
   26.8097  -18.8128   -7.8124 C   0  0  0  0  0  0  0  0  0  0  0  0
   23.8175  -20.6982  -11.1244 O   0  0  0  0  0  0  0  0  0  0  0  0
   23.4172  -19.7224  -11.8329 N   0  0  0  0  0  0  0  0  0  0  0  0
   22.9273  -21.7838  -10.9839 C   0  0  1  0  0  0  0  0  0  0  0  0
   21.6594  -21.8586  -11.7119 C   0  0  0  0  0  0  0  0  0  0  0  0
   21.1333  -23.2971  -11.6844 S   0  0  0  0  0  0  0  0  0  0  0  0
   19.9522  -23.4556  -13.0436 C   0  0  0  0  0  0  0  0  0  0  0  0
   20.6745  -21.0736  -10.9325 O   0  0  0  0  0  0  0  0  0  0  0  0
   21.0788  -20.6208   -9.8112 O   0  0  0  0  0  0  0  0  0  0  0  0
  1  2  1  0
  2  3  2  0
  4  5  1  0
  4  2  1  0
  6  5  1  0
  7  6  1  0
  8 10  1  0
  8  7  1  0
  8  9  1  6
 10 11  2  0
 12 13  1  0
 12 10  1  0
 14 15  1  0
 13 14  1  1
 15 16  2  0
 16 17  1  0
 18 17  2  0
 19 18  1  0
 20 19  2  0
 20 15  1  0
 21 22  2  0
 21 13  1  0
 23 21  1  0
 24 23  1  0
 24 27  1  0
 24 25  1  1
 26 25  1  0
 27 29  1  0
 28 27  2  0
M  END
$$$$
