RFC.pdb
     RDKit          3D

 29 29  0  0  1  0  0  0  0  0999 V2000
   27.5102  -31.7380  -15.7918 N   0  0  0  0  0  0  0  0  0  0  0  0
   27.9864  -32.9517  -15.2144 C   0  0  0  0  0  0  0  0  0  0  0  0
   29.2736  -33.1366  -15.2359 N   0  0  0  0  0  0  0  0  0  0  0  0
   27.0854  -33.8883  -14.6544 N   0  0  0  0  0  0  0  0  0  0  0  0
   25.7095  -33.5492  -14.5134 C   0  0  0  0  0  0  0  0  0  0  0  0
   25.4550  -32.4841  -13.4802 C   0  0  0  0  0  0  0  0  0  0  0  0
   23.9805  -32.1819  -13.3222 C   0  0  0  0  0  0  0  0  0  0  0  0
   23.7322  -30.8067  -13.9046 C   0  0  2  0  0  0  0  0  0  0  0  0
   24.8454  -29.9707  -13.5054 N   0  0  0  0  0  0  0  0  0  0  0  0
   22.4884  -30.1991  -13.3817 C   0  0  0  0  0  0  0  0  0  0  0  0
   21.3915  -30.7857  -13.5352 O   0  0  0  0  0  0  0  0  0  0  0  0
   29.7136  -33.9830  -14.8030 N   0  0  0  0  0  0  0  0  0  0  0  0
   22.4643  -28.9535  -12.6957 C   0  0  1  0  0  0  0  0  0  0  0  0
   21.3076  -28.3732  -12.0933 C   0  0  0  0  0  0  0  0  0  0  0  0
   21.6784  -28.1179  -10.6254 C   0  0  0  0  0  0  0  0  0  0  0  0
   21.6011  -29.3603   -9.8294 C   0  0  0  0  0  0  0  0  0  0  0  0
   20.4076  -29.8995   -9.3971 C   0  0  0  0  0  0  0  0  0  0  0  0
   20.3400  -31.0538   -8.6578 C   0  0  0  0  0  0  0  0  0  0  0  0
   21.4892  -31.7250   -8.3167 C   0  0  0  0  0  0  0  0  0  0  0  0
   22.6923  -31.2067   -8.7364 C   0  0  0  0  0  0  0  0  0  0  0  0
   22.7478  -30.0322   -9.4877 C   0  0  0  0  0  0  0  0  0  0  0  0
   20.8957  -27.0768  -12.6655 O   0  0  0  0  0  0  0  0  0  0  0  0
   21.7842  -26.2780  -13.0975 N   0  0  0  0  0  0  0  0  0  0  0  0
   19.5556  -26.6489  -12.7726 C   0  0  1  0  0  0  0  0  0  0  0  0
   19.1881  -25.3574  -13.3560 C   0  0  0  0  0  0  0  0  0  0  0  0
   19.2188  -25.4548  -14.8845 S   0  0  0  0  0  0  0  0  0  0  0  0
   18.6218  -27.1039  -15.3226 C   0  0  0  0  0  0  0  0  0  0  0  0
   17.7659  -25.1253  -13.0135 O   0  0  0  0  0  0  0  0  0  0  0  0
   17.1713  -26.0779  -12.4096 O   0  0  0  0  0  0  0  0  0  0  0  0
  1  2  1  0
  2  3  2  0
  4  5  1  0
  4  2  1  0
  6  5  1  0
  7  6  1  0
  8 10  1  0
  8  7  1  0
  8  9  1  1
 10 11  2  0
 12 13  1  0
 12 10  1  0
 14 15  1  0
 13 14  1  6
 15 16  2  0
 16 17  1  0
 18 17  2  0
 19 18  1  0
 20 19  2  0
 20 15  1  0
 21 22  2  0
 21 13  1  0
 23 21  1  0
 24 23  1  0
 24 27  1  0
 24 25  1  6
 26 25  1  0
 27 29  1  0
 28 27  2  0
M  END
$$$$
