RFC.pdb
     RDKit          3D

 29 29  0  0  1  0  0  0  0  0999 V2000
   28.1086  -16.5320  -20.0364 N   0  0  0  0  0  0  0  0  0  0  0  0
   27.9401  -17.6335  -20.9263 C   0  0  0  0  0  0  0  0  0  0  0  0
   28.9684  -17.9490  -21.6574 N   0  0  0  0  0  0  0  0  0  0  0  0
   26.7094  -18.3290  -20.9910 N   0  0  0  0  0  0  0  0  0  0  0  0
   25.6814  -18.0371  -20.0497 C   0  0  0  0  0  0  0  0  0  0  0  0
   26.1418  -18.0982  -18.6175 C   0  0  0  0  0  0  0  0  0  0  0  0
   25.2768  -19.0131  -17.7778 C   0  0  0  0  0  0  0  0  0  0  0  0
   26.1491  -20.1557  -17.3028 C   0  0  2  0  0  0  0  0  0  0  0  0
   26.1091  -21.1746  -18.3313 N   0  0  0  0  0  0  0  0  0  0  0  0
   25.6473  -20.7507  -16.0444 C   0  0  0  0  0  0  0  0  0  0  0  0
   24.6673  -21.5317  -16.0674 O   0  0  0  0  0  0  0  0  0  0  0  0
   28.9297  -18.7356  -22.3483 N   0  0  0  0  0  0  0  0  0  0  0  0
   26.2284  -20.4807  -14.7748 C   0  0  1  0  0  0  0  0  0  0  0  0
   25.6544  -20.8417  -13.5186 C   0  0  0  0  0  0  0  0  0  0  0  0
   26.6627  -20.3968  -12.4496 C   0  0  0  0  0  0  0  0  0  0  0  0
   26.0969  -20.5298  -11.0911 C   0  0  0  0  0  0  0  0  0  0  0  0
   25.6906  -19.4467  -10.3401 C   0  0  0  0  0  0  0  0  0  0  0  0
   25.1655  -19.5744   -9.0785 C   0  0  0  0  0  0  0  0  0  0  0  0
   25.0249  -20.8173   -8.5103 C   0  0  0  0  0  0  0  0  0  0  0  0
   25.4232  -21.9132   -9.2400 C   0  0  0  0  0  0  0  0  0  0  0  0
   25.9556  -21.7704  -10.5219 C   0  0  0  0  0  0  0  0  0  0  0  0
   24.3749  -20.1753  -13.2080 O   0  0  0  0  0  0  0  0  0  0  0  0
   24.2739  -18.9189  -13.3678 N   0  0  0  0  0  0  0  0  0  0  0  0
   23.2268  -20.8466  -12.7370 C   0  0  1  0  0  0  0  0  0  0  0  0
   21.9909  -20.1413  -12.3930 C   0  0  0  0  0  0  0  0  0  0  0  0
   21.0396  -20.1526  -13.5936 S   0  0  0  0  0  0  0  0  0  0  0  0
   20.9369  -21.8621  -14.1724 C   0  0  0  0  0  0  0  0  0  0  0  0
   21.3124  -20.9532  -11.3565 O   0  0  0  0  0  0  0  0  0  0  0  0
   21.8169  -22.1006  -11.1230 O   0  0  0  0  0  0  0  0  0  0  0  0
  1  2  1  0
  2  3  2  0
  4  5  1  0
  4  2  1  0
  6  5  1  0
  7  6  1  0
  8 10  1  0
  8  7  1  0
  8  9  1  6
 10 11  2  0
 12 13  1  0
 12 10  1  0
 14 15  1  0
 13 14  1  6
 15 16  2  0
 16 17  1  0
 18 17  2  0
 19 18  1  0
 20 19  2  0
 20 15  1  0
 21 22  2  0
 21 13  1  0
 23 21  1  0
 24 23  1  0
 24 27  1  0
 24 25  1  1
 26 25  1  0
 27 29  1  0
 28 27  2  0
M  END
$$$$
