HGH.pdb
     RDKit          3D

 25 26  0  0  1  0  0  0  0  0999 V2000
    9.8189  -15.7869   21.0973 N   0  0  0  0  0  0  0  0  0  0  0  0
    8.8867  -15.1112   21.9901 C   0  0  1  0  0  0  0  0  0  0  0  0
    7.5734  -14.8685   21.2349 C   0  0  0  0  0  0  0  0  0  0  0  0
    7.7993  -14.2058   19.9460 C   0  0  0  0  0  0  0  0  0  0  0  0
    8.2874  -12.9103   19.8288 C   0  0  0  0  0  0  0  0  0  0  0  0
    8.3668  -12.6333   18.5274 N   0  0  0  0  0  0  0  0  0  0  0  0
    7.9518  -13.6924   17.8061 C   0  0  0  0  0  0  0  0  0  0  0  0
    7.6071  -14.6481   18.6797 N   0  0  0  0  0  0  0  0  0  0  0  0
    8.6398  -15.9231   23.2094 C   0  0  0  0  0  0  0  0  0  0  0  0
    7.8415  -15.5106   24.0693 O   0  0  0  0  0  0  0  0  0  0  0  0
    9.2763  -17.1642   23.4499 N   0  0  0  0  0  0  0  0  0  0  0  0
    9.0392  -17.9473   24.6462 C   0  0  0  0  0  0  0  0  0  0  0  0
   10.0894  -17.5850   25.6636 C   0  0  0  0  0  0  0  0  0  0  0  0
   11.2965  -17.4885   25.3257 O   0  0  0  0  0  0  0  0  0  0  0  0
    9.7695  -17.3426   27.0155 N   0  0  0  0  0  0  0  0  0  0  0  0
   10.8138  -16.9775   28.0033 C   0  0  1  0  0  0  0  0  0  0  0  0
   10.2767  -15.9736   28.9524 C   0  0  0  0  0  0  0  0  0  0  0  0
    9.7184  -14.8021   28.2558 C   0  0  0  0  0  0  0  0  0  0  0  0
   10.2884  -14.2185   27.1028 C   0  0  0  0  0  0  0  0  0  0  0  0
    9.5532  -13.1746   26.7082 N   0  0  0  0  0  0  0  0  0  0  0  0
    8.5356  -13.0713   27.5672 C   0  0  0  0  0  0  0  0  0  0  0  0
    8.6439  -14.0385   28.4773 N   0  0  0  0  0  0  0  0  0  0  0  0
   11.2223  -18.2269   28.6942 C   0  0  0  0  0  0  0  0  0  0  0  0
   10.5659  -19.2876   28.4111 O   0  0  0  0  0  0  0  0  0  0  0  0
   12.2553  -18.2476   29.5936 O   0  0  0  0  0  0  0  0  0  0  0  0
  2  1  1  6
  3  2  1  0
  4  3  1  0
  5  4  2  0
  6  7  1  0
  6  5  1  0
  7  8  2  0
  8  4  1  0
  9  2  1  0
 10  9  2  0
 11  9  1  0
 12 13  1  0
 12 11  1  0
 13 15  1  0
 14 13  2  0
 15 16  1  0
 16 17  1  1
 16 23  1  0
 18 22  1  0
 18 17  1  0
 19 18  2  0
 20 19  1  0
 20 21  1  0
 21 22  2  0
 23 24  2  0
 23 25  1  0
M  END
$$$$
