HGH.pdb
     RDKit          3D

 25 26  0  0  1  0  0  0  0  0999 V2000
   10.0306  -15.6842   19.9192 N   0  0  0  0  0  0  0  0  0  0  0  0
    9.2780  -14.6086   20.5514 C   0  0  1  0  0  0  0  0  0  0  0  0
    7.8335  -14.6530   20.0364 C   0  0  0  0  0  0  0  0  0  0  0  0
    7.7713  -14.5440   18.5749 C   0  0  0  0  0  0  0  0  0  0  0  0
    8.1545  -13.4054   17.8772 C   0  0  0  0  0  0  0  0  0  0  0  0
    7.9680  -13.6537   16.5810 N   0  0  0  0  0  0  0  0  0  0  0  0
    7.4829  -14.8995   16.4170 C   0  0  0  0  0  0  0  0  0  0  0  0
    7.3657  -15.4362   17.6391 N   0  0  0  0  0  0  0  0  0  0  0  0
    9.3042  -14.7434   22.0305 C   0  0  0  0  0  0  0  0  0  0  0  0
    8.6188  -13.9754   22.7283 O   0  0  0  0  0  0  0  0  0  0  0  0
   10.0821  -15.7174   22.7011 N   0  0  0  0  0  0  0  0  0  0  0  0
   10.9398  -15.3972   23.8247 C   0  0  0  0  0  0  0  0  0  0  0  0
   10.4081  -16.1074   25.0421 C   0  0  0  0  0  0  0  0  0  0  0  0
   11.1426  -16.8950   25.6910 O   0  0  0  0  0  0  0  0  0  0  0  0
    9.0867  -15.9229   25.4987 N   0  0  0  0  0  0  0  0  0  0  0  0
    8.7134  -16.1826   26.9104 C   0  0  1  0  0  0  0  0  0  0  0  0
    7.3007  -15.7939   27.1348 C   0  0  0  0  0  0  0  0  0  0  0  0
    7.0627  -14.3766   26.8122 C   0  0  0  0  0  0  0  0  0  0  0  0
    7.4064  -13.3011   27.6608 C   0  0  0  0  0  0  0  0  0  0  0  0
    7.0646  -12.1419   27.0904 N   0  0  0  0  0  0  0  0  0  0  0  0
    6.5156  -12.4389   25.9094 C   0  0  0  0  0  0  0  0  0  0  0  0
    6.5200  -13.7625   25.7562 N   0  0  0  0  0  0  0  0  0  0  0  0
    8.9350  -17.6287   27.1654 C   0  0  0  0  0  0  0  0  0  0  0  0
    8.7529  -18.4259   26.1819 O   0  0  0  0  0  0  0  0  0  0  0  0
    9.3184  -18.0923   28.3962 O   0  0  0  0  0  0  0  0  0  0  0  0
  2  1  1  6
  3  2  1  0
  4  3  1  0
  5  4  2  0
  6  7  1  0
  6  5  1  0
  7  8  2  0
  8  4  1  0
  9  2  1  0
 10  9  2  0
 11  9  1  0
 12 13  1  0
 12 11  1  0
 13 15  1  0
 14 13  2  0
 15 16  1  0
 16 17  1  6
 16 23  1  0
 18 22  1  0
 18 17  1  0
 19 18  2  0
 20 19  1  0
 20 21  1  0
 21 22  2  0
 23 24  2  0
 23 25  1  0
M  END
$$$$
