HGH.pdb
     RDKit          3D

 25 26  0  0  1  0  0  0  0  0999 V2000
    9.5833  -15.1785   19.1547 N   0  0  0  0  0  0  0  0  0  0  0  0
    8.3312  -14.8405   19.8187 C   0  0  1  0  0  0  0  0  0  0  0  0
    7.1720  -15.1335   18.8573 C   0  0  0  0  0  0  0  0  0  0  0  0
    7.3987  -14.5444   17.5332 C   0  0  0  0  0  0  0  0  0  0  0  0
    7.5209  -13.1776   17.3165 C   0  0  0  0  0  0  0  0  0  0  0  0
    7.7173  -12.9997   16.0102 N   0  0  0  0  0  0  0  0  0  0  0  0
    7.7264  -14.1904   15.3807 C   0  0  0  0  0  0  0  0  0  0  0  0
    7.5312  -15.1283   16.3176 N   0  0  0  0  0  0  0  0  0  0  0  0
    8.1715  -15.6187   21.0739 C   0  0  0  0  0  0  0  0  0  0  0  0
    7.1274  -15.5014   21.7394 O   0  0  0  0  0  0  0  0  0  0  0  0
    9.1625  -16.5034   21.5626 N   0  0  0  0  0  0  0  0  0  0  0  0
    8.9632  -17.3327   22.7344 C   0  0  0  0  0  0  0  0  0  0  0  0
    9.4516  -16.5725   23.9396 C   0  0  0  0  0  0  0  0  0  0  0  0
   10.5078  -15.8932   23.8787 O   0  0  0  0  0  0  0  0  0  0  0  0
    8.7574  -16.5894   25.1670 N   0  0  0  0  0  0  0  0  0  0  0  0
    9.3337  -15.9786   26.3894 C   0  0  1  0  0  0  0  0  0  0  0  0
    8.2454  -15.4559   27.2494 C   0  0  0  0  0  0  0  0  0  0  0  0
    7.6857  -14.1987   26.7245 C   0  0  0  0  0  0  0  0  0  0  0  0
    8.2210  -13.4892   25.6267 C   0  0  0  0  0  0  0  0  0  0  0  0
    7.4941  -12.3922   25.3936 N   0  0  0  0  0  0  0  0  0  0  0  0
    6.5153  -12.3764   26.3022 C   0  0  0  0  0  0  0  0  0  0  0  0
    6.6389  -13.4489   27.0832 N   0  0  0  0  0  0  0  0  0  0  0  0
   10.1233  -17.0314   27.0774 C   0  0  0  0  0  0  0  0  0  0  0  0
   10.1110  -18.1995   26.5564 O   0  0  0  0  0  0  0  0  0  0  0  0
   10.8351  -16.7679   28.2178 O   0  0  0  0  0  0  0  0  0  0  0  0
  2  1  1  6
  3  2  1  0
  4  3  1  0
  5  4  2  0
  6  7  1  0
  6  5  1  0
  7  8  2  0
  8  4  1  0
  9  2  1  0
 10  9  2  0
 11  9  1  0
 12 13  1  0
 12 11  1  0
 13 15  1  0
 14 13  2  0
 15 16  1  0
 16 17  1  1
 16 23  1  0
 18 22  1  0
 18 17  1  0
 19 18  2  0
 20 19  1  0
 20 21  1  0
 21 22  2  0
 23 24  2  0
 23 25  1  0
M  END
$$$$
