HGH.pdb
     RDKit          3D

 25 26  0  0  1  0  0  0  0  0999 V2000
    8.1407  -16.8777   20.4407 N   0  0  0  0  0  0  0  0  0  0  0  0
    8.7644  -15.8747   21.2938 C   0  0  1  0  0  0  0  0  0  0  0  0
    7.9853  -14.5603   21.1549 C   0  0  0  0  0  0  0  0  0  0  0  0
    7.9523  -14.0895   19.7660 C   0  0  0  0  0  0  0  0  0  0  0  0
    8.8214  -13.1284   19.2649 C   0  0  0  0  0  0  0  0  0  0  0  0
    8.5111  -12.9444   17.9817 N   0  0  0  0  0  0  0  0  0  0  0  0
    7.4829  -13.7439   17.6385 C   0  0  0  0  0  0  0  0  0  0  0  0
    7.1477  -14.4397   18.7335 N   0  0  0  0  0  0  0  0  0  0  0  0
    8.7782  -16.3205   22.7108 C   0  0  0  0  0  0  0  0  0  0  0  0
    7.7113  -16.6435   23.2623 O   0  0  0  0  0  0  0  0  0  0  0  0
    9.9627  -16.3988   23.4817 N   0  0  0  0  0  0  0  0  0  0  0  0
    9.9970  -16.9826   24.8078 C   0  0  0  0  0  0  0  0  0  0  0  0
   10.1807  -15.8715   25.8083 C   0  0  0  0  0  0  0  0  0  0  0  0
   11.0258  -14.9636   25.6033 O   0  0  0  0  0  0  0  0  0  0  0  0
    9.4256  -15.8028   26.9974 N   0  0  0  0  0  0  0  0  0  0  0  0
    9.7144  -14.7869   28.0386 C   0  0  1  0  0  0  0  0  0  0  0  0
    8.4440  -14.2321   28.5635 C   0  0  0  0  0  0  0  0  0  0  0  0
    7.6582  -13.5665   27.5104 C   0  0  0  0  0  0  0  0  0  0  0  0
    7.9626  -12.2943   26.9777 C   0  0  0  0  0  0  0  0  0  0  0  0
    7.0673  -11.9649   26.0417 N   0  0  0  0  0  0  0  0  0  0  0  0
    6.2035  -12.9803   25.9582 C   0  0  0  0  0  0  0  0  0  0  0  0
    6.5630  -13.9208   26.8310 N   0  0  0  0  0  0  0  0  0  0  0  0
   10.5042  -15.4584   29.1018 C   0  0  0  0  0  0  0  0  0  0  0  0
   10.6632  -16.7230   28.9953 O   0  0  0  0  0  0  0  0  0  0  0  0
   11.0412  -14.7591   30.1503 O   0  0  0  0  0  0  0  0  0  0  0  0
  2  1  1  6
  3  2  1  0
  4  3  1  0
  5  4  2  0
  6  7  1  0
  6  5  1  0
  7  8  2  0
  8  4  1  0
  9  2  1  0
 10  9  2  0
 11  9  1  0
 12 13  1  0
 12 11  1  0
 13 15  1  0
 14 13  2  0
 15 16  1  0
 16 17  1  1
 16 23  1  0
 18 22  1  0
 18 17  1  0
 19 18  2  0
 20 19  1  0
 20 21  1  0
 21 22  2  0
 23 24  2  0
 23 25  1  0
M  END
$$$$
