HGH.pdb
     RDKit          3D

 25 26  0  0  1  0  0  0  0  0999 V2000
   10.3503  -15.9513   13.3578 N   0  0  0  0  0  0  0  0  0  0  0  0
   10.1693  -16.3575   14.7452 C   0  0  1  0  0  0  0  0  0  0  0  0
    9.7307  -17.8275   14.7722 C   0  0  0  0  0  0  0  0  0  0  0  0
    8.3985  -18.0106   14.1860 C   0  0  0  0  0  0  0  0  0  0  0  0
    8.1910  -18.3956   12.8674 C   0  0  0  0  0  0  0  0  0  0  0  0
    6.8735  -18.4633   12.6772 N   0  0  0  0  0  0  0  0  0  0  0  0
    6.2280  -18.1391   13.8141 C   0  0  0  0  0  0  0  0  0  0  0  0
    7.1663  -17.8641   14.7303 N   0  0  0  0  0  0  0  0  0  0  0  0
   11.4259  -16.1785   15.5168 C   0  0  0  0  0  0  0  0  0  0  0  0
   12.5216  -16.3059   14.9423 O   0  0  0  0  0  0  0  0  0  0  0  0
   11.4439  -15.8646   16.8969 N   0  0  0  0  0  0  0  0  0  0  0  0
   12.5364  -15.1470   17.5229 C   0  0  0  0  0  0  0  0  0  0  0  0
   12.2625  -15.0665   19.0020 C   0  0  0  0  0  0  0  0  0  0  0  0
   13.0457  -14.4414   19.7613 O   0  0  0  0  0  0  0  0  0  0  0  0
   11.1353  -15.6780   19.5887 N   0  0  0  0  0  0  0  0  0  0  0  0
   10.7755  -15.4364   21.0071 C   0  0  1  0  0  0  0  0  0  0  0  0
    9.3243  -15.1543   21.1149 C   0  0  0  0  0  0  0  0  0  0  0  0
    8.9244  -14.0055   20.2843 C   0  0  0  0  0  0  0  0  0  0  0  0
    9.8301  -13.1853   19.5756 C   0  0  0  0  0  0  0  0  0  0  0  0
    9.1640  -12.2312   18.9183 N   0  0  0  0  0  0  0  0  0  0  0  0
    7.8672  -12.4130   19.1818 C   0  0  0  0  0  0  0  0  0  0  0  0
    7.7381  -13.4645   19.9901 N   0  0  0  0  0  0  0  0  0  0  0  0
   11.1600  -16.6499   21.7717 C   0  0  0  0  0  0  0  0  0  0  0  0
   11.7014  -17.6033   21.1130 O   0  0  0  0  0  0  0  0  0  0  0  0
   10.9477  -16.7478   23.1215 O   0  0  0  0  0  0  0  0  0  0  0  0
  2  1  1  6
  3  2  1  0
  4  3  1  0
  5  4  2  0
  6  7  1  0
  6  5  1  0
  7  8  2  0
  8  4  1  0
  9  2  1  0
 10  9  2  0
 11  9  1  0
 12 13  1  0
 12 11  1  0
 13 15  1  0
 14 13  2  0
 15 16  1  0
 16 17  1  6
 16 23  1  0
 18 22  1  0
 18 17  1  0
 19 18  2  0
 20 19  1  0
 20 21  1  0
 21 22  2  0
 23 24  2  0
 23 25  1  0
M  END
$$$$
