HGH.pdb
     RDKit          3D

 25 26  0  0  1  0  0  0  0  0999 V2000
    9.2530  -15.6378   20.1375 N   0  0  0  0  0  0  0  0  0  0  0  0
    8.1653  -14.8749   20.7357 C   0  0  1  0  0  0  0  0  0  0  0  0
    6.9450  -14.9524   19.8091 C   0  0  0  0  0  0  0  0  0  0  0  0
    7.2047  -14.3218   18.5104 C   0  0  0  0  0  0  0  0  0  0  0  0
    8.4151  -13.7254   18.1797 C   0  0  0  0  0  0  0  0  0  0  0  0
    8.3004  -13.2596   16.9361 N   0  0  0  0  0  0  0  0  0  0  0  0
    7.0716  -13.5306   16.4555 C   0  0  0  0  0  0  0  0  0  0  0  0
    6.4090  -14.1792   17.4229 N   0  0  0  0  0  0  0  0  0  0  0  0
    7.8269  -15.4033   22.0821 C   0  0  0  0  0  0  0  0  0  0  0  0
    6.9524  -14.8367   22.7610 O   0  0  0  0  0  0  0  0  0  0  0  0
    8.4580  -16.5386   22.6446 N   0  0  0  0  0  0  0  0  0  0  0  0
    8.1235  -17.0500   23.9588 C   0  0  0  0  0  0  0  0  0  0  0  0
    8.9466  -16.3068   24.9783 C   0  0  0  0  0  0  0  0  0  0  0  0
   10.0813  -15.8582   24.6757 O   0  0  0  0  0  0  0  0  0  0  0  0
    8.4877  -16.0859   26.2934 N   0  0  0  0  0  0  0  0  0  0  0  0
    9.3338  -15.4041   27.3028 C   0  0  1  0  0  0  0  0  0  0  0  0
    8.5166  -14.4319   28.0673 C   0  0  0  0  0  0  0  0  0  0  0  0
    7.8007  -13.4985   27.1809 C   0  0  0  0  0  0  0  0  0  0  0  0
    8.2582  -13.1096   25.9024 C   0  0  0  0  0  0  0  0  0  0  0  0
    7.3921  -12.2565   25.3474 N   0  0  0  0  0  0  0  0  0  0  0  0
    6.3994  -12.0874   26.2249 C   0  0  0  0  0  0  0  0  0  0  0  0
    6.6520  -12.8264   27.3045 N   0  0  0  0  0  0  0  0  0  0  0  0
    9.9052  -16.4560   28.1814 C   0  0  0  0  0  0  0  0  0  0  0  0
   10.6655  -16.0669   29.1335 O   0  0  0  0  0  0  0  0  0  0  0  0
    9.6320  -17.7841   27.9858 O   0  0  0  0  0  0  0  0  0  0  0  0
  2  1  1  6
  3  2  1  0
  4  3  1  0
  5  4  2  0
  6  7  1  0
  6  5  1  0
  7  8  2  0
  8  4  1  0
  9  2  1  0
 10  9  2  0
 11  9  1  0
 12 13  1  0
 12 11  1  0
 13 15  1  0
 14 13  2  0
 15 16  1  0
 16 17  1  1
 16 23  1  0
 18 22  1  0
 18 17  1  0
 19 18  2  0
 20 19  1  0
 20 21  1  0
 21 22  2  0
 23 24  2  0
 23 25  1  0
M  END
$$$$
