HGH.pdb
     RDKit          3D

 25 26  0  0  1  0  0  0  0  0999 V2000
    8.5314  -15.7262   21.6406 N   0  0  0  0  0  0  0  0  0  0  0  0
    7.6107  -14.8722   22.3795 C   0  0  1  0  0  0  0  0  0  0  0  0
    6.6531  -14.2063   21.3828 C   0  0  0  0  0  0  0  0  0  0  0  0
    7.3727  -13.5880   20.2640 C   0  0  0  0  0  0  0  0  0  0  0  0
    8.2297  -12.5048   20.4130 C   0  0  0  0  0  0  0  0  0  0  0  0
    8.7047  -12.2064   19.2039 N   0  0  0  0  0  0  0  0  0  0  0  0
    8.1908  -13.0494   18.2875 C   0  0  0  0  0  0  0  0  0  0  0  0
    7.3786  -13.8897   18.9430 N   0  0  0  0  0  0  0  0  0  0  0  0
    6.8483  -15.6596   23.3822 C   0  0  0  0  0  0  0  0  0  0  0  0
    5.6332  -15.4439   23.5359 O   0  0  0  0  0  0  0  0  0  0  0  0
    7.4417  -16.6610   24.1875 N   0  0  0  0  0  0  0  0  0  0  0  0
    6.6797  -17.4753   25.1132 C   0  0  0  0  0  0  0  0  0  0  0  0
    7.6479  -18.2629   25.9567 C   0  0  0  0  0  0  0  0  0  0  0  0
    7.2265  -19.0679   26.8256 O   0  0  0  0  0  0  0  0  0  0  0  0
    9.0446  -18.1336   25.8107 N   0  0  0  0  0  0  0  0  0  0  0  0
    9.9850  -18.8607   26.6977 C   0  0  1  0  0  0  0  0  0  0  0  0
   11.2745  -19.0696   25.9972 C   0  0  0  0  0  0  0  0  0  0  0  0
   11.1240  -19.9359   24.8155 C   0  0  0  0  0  0  0  0  0  0  0  0
    9.9070  -20.5333   24.4195 C   0  0  0  0  0  0  0  0  0  0  0  0
   10.0932  -21.2588   23.3126 N   0  0  0  0  0  0  0  0  0  0  0  0
   11.3841  -21.1457   22.9886 C   0  0  0  0  0  0  0  0  0  0  0  0
   11.9830  -20.3615   23.8841 N   0  0  0  0  0  0  0  0  0  0  0  0
   10.1508  -18.0445   27.9271 C   0  0  0  0  0  0  0  0  0  0  0  0
    9.6280  -16.8771   27.9234 O   0  0  0  0  0  0  0  0  0  0  0  0
   10.8307  -18.5166   29.0186 O   0  0  0  0  0  0  0  0  0  0  0  0
  2  1  1  6
  3  2  1  0
  4  3  1  0
  5  4  2  0
  6  7  1  0
  6  5  1  0
  7  8  2  0
  8  4  1  0
  9  2  1  0
 10  9  2  0
 11  9  1  0
 12 13  1  0
 12 11  1  0
 13 15  1  0
 14 13  2  0
 15 16  1  0
 16 17  1  6
 16 23  1  0
 18 22  1  0
 18 17  1  0
 19 18  2  0
 20 19  1  0
 20 21  1  0
 21 22  2  0
 23 24  2  0
 23 25  1  0
M  END
$$$$
