HGH.pdb
     RDKit          3D

 25 26  0  0  1  0  0  0  0  0999 V2000
    8.0831  -16.2292   20.9824 N   0  0  0  0  0  0  0  0  0  0  0  0
    9.3060  -16.5767   20.2706 C   0  0  1  0  0  0  0  0  0  0  0  0
    9.8550  -15.3138   19.5943 C   0  0  0  0  0  0  0  0  0  0  0  0
    8.8124  -14.5926   18.8562 C   0  0  0  0  0  0  0  0  0  0  0  0
    8.1762  -15.1081   17.7339 C   0  0  0  0  0  0  0  0  0  0  0  0
    7.2957  -14.1954   17.3236 N   0  0  0  0  0  0  0  0  0  0  0  0
    7.3392  -13.1191   18.1322 C   0  0  0  0  0  0  0  0  0  0  0  0
    8.2678  -13.3696   19.0652 N   0  0  0  0  0  0  0  0  0  0  0  0
   10.3152  -17.1460   21.2002 C   0  0  0  0  0  0  0  0  0  0  0  0
   11.3588  -17.6437   20.7421 O   0  0  0  0  0  0  0  0  0  0  0  0
   10.1499  -17.1526   22.6059 N   0  0  0  0  0  0  0  0  0  0  0  0
   11.1807  -17.6150   23.5137 C   0  0  0  0  0  0  0  0  0  0  0  0
   10.6254  -17.5848   24.9137 C   0  0  0  0  0  0  0  0  0  0  0  0
   11.3852  -17.3878   25.8958 O   0  0  0  0  0  0  0  0  0  0  0  0
    9.2531  -17.7729   25.1786 N   0  0  0  0  0  0  0  0  0  0  0  0
    8.7165  -17.7072   26.5597 C   0  0  1  0  0  0  0  0  0  0  0  0
    7.3031  -17.2615   26.5274 C   0  0  0  0  0  0  0  0  0  0  0  0
    7.1816  -15.8471   26.1348 C   0  0  0  0  0  0  0  0  0  0  0  0
    8.2771  -14.9681   25.9855 C   0  0  0  0  0  0  0  0  0  0  0  0
    7.8446  -13.7568   25.6228 N   0  0  0  0  0  0  0  0  0  0  0  0
    6.5138  -13.8312   25.5353 C   0  0  0  0  0  0  0  0  0  0  0  0
    6.1336  -15.0714   25.8401 N   0  0  0  0  0  0  0  0  0  0  0  0
    8.8543  -19.0625   27.1505 C   0  0  0  0  0  0  0  0  0  0  0  0
    9.0670  -20.0295   26.3409 O   0  0  0  0  0  0  0  0  0  0  0  0
    8.7599  -19.2723   28.5010 O   0  0  0  0  0  0  0  0  0  0  0  0
  2  1  1  1
  3  2  1  0
  4  3  1  0
  5  4  2  0
  6  7  1  0
  6  5  1  0
  7  8  2  0
  8  4  1  0
  9  2  1  0
 10  9  2  0
 11  9  1  0
 12 13  1  0
 12 11  1  0
 13 15  1  0
 14 13  2  0
 15 16  1  0
 16 17  1  6
 16 23  1  0
 18 22  1  0
 18 17  1  0
 19 18  2  0
 20 19  1  0
 20 21  1  0
 21 22  2  0
 23 24  2  0
 23 25  1  0
M  END
$$$$
