HGH.pdb
     RDKit          3D

 25 26  0  0  1  0  0  0  0  0999 V2000
    7.5488  -17.9649   20.2639 N   0  0  0  0  0  0  0  0  0  0  0  0
    8.6656  -17.1745   19.7629 C   0  0  1  0  0  0  0  0  0  0  0  0
    8.5168  -17.0241   18.2433 C   0  0  0  0  0  0  0  0  0  0  0  0
    8.4034  -18.3248   17.5745 C   0  0  0  0  0  0  0  0  0  0  0  0
    9.4467  -19.2393   17.5016 C   0  0  0  0  0  0  0  0  0  0  0  0
    8.9977  -20.2995   16.8300 N   0  0  0  0  0  0  0  0  0  0  0  0
    7.7145  -20.1054   16.4696 C   0  0  0  0  0  0  0  0  0  0  0  0
    7.3593  -18.8974   16.9280 N   0  0  0  0  0  0  0  0  0  0  0  0
    8.7025  -15.8397   20.4137 C   0  0  0  0  0  0  0  0  0  0  0  0
    9.6509  -15.0698   20.1801 O   0  0  0  0  0  0  0  0  0  0  0  0
    7.6973  -15.3882   21.3020 N   0  0  0  0  0  0  0  0  0  0  0  0
    7.7374  -14.0838   21.9326 C   0  0  0  0  0  0  0  0  0  0  0  0
    8.3872  -14.2322   23.2835 C   0  0  0  0  0  0  0  0  0  0  0  0
    9.1594  -13.3411   23.7198 O   0  0  0  0  0  0  0  0  0  0  0  0
    8.1613  -15.3574   24.1030 N   0  0  0  0  0  0  0  0  0  0  0  0
    8.6797  -15.4189   25.4913 C   0  0  1  0  0  0  0  0  0  0  0  0
    7.5485  -15.4130   26.4493 C   0  0  0  0  0  0  0  0  0  0  0  0
    6.9215  -14.0841   26.5512 C   0  0  0  0  0  0  0  0  0  0  0  0
    7.5923  -12.9220   26.9921 C   0  0  0  0  0  0  0  0  0  0  0  0
    6.7578  -11.8782   26.9736 N   0  0  0  0  0  0  0  0  0  0  0  0
    5.5799  -12.3323   26.5371 C   0  0  0  0  0  0  0  0  0  0  0  0
    5.6890  -13.6372   26.2907 N   0  0  0  0  0  0  0  0  0  0  0  0
    9.4914  -16.6573   25.6036 C   0  0  0  0  0  0  0  0  0  0  0  0
    9.6151  -17.3678   24.5472 O   0  0  0  0  0  0  0  0  0  0  0  0
   10.0838  -17.0255   26.7827 O   0  0  0  0  0  0  0  0  0  0  0  0
  2  1  1  1
  3  2  1  0
  4  3  1  0
  5  4  2  0
  6  7  1  0
  6  5  1  0
  7  8  2  0
  8  4  1  0
  9  2  1  0
 10  9  2  0
 11  9  1  0
 12 13  1  0
 12 11  1  0
 13 15  1  0
 14 13  2  0
 15 16  1  0
 16 17  1  1
 16 23  1  0
 18 22  1  0
 18 17  1  0
 19 18  2  0
 20 19  1  0
 20 21  1  0
 21 22  2  0
 23 24  2  0
 23 25  1  0
M  END
$$$$
