HGH.pdb
     RDKit          3D

 25 26  0  0  1  0  0  0  0  0999 V2000
   15.1117  -21.5395   15.0283 N   0  0  0  0  0  0  0  0  0  0  0  0
   14.6724  -20.6899   16.1274 C   0  0  1  0  0  0  0  0  0  0  0  0
   13.7397  -19.6079   15.5678 C   0  0  0  0  0  0  0  0  0  0  0  0
   14.4376  -18.7128   14.6385 C   0  0  0  0  0  0  0  0  0  0  0  0
   15.3499  -17.7482   15.0476 C   0  0  0  0  0  0  0  0  0  0  0  0
   15.7848  -17.1247   13.9527 N   0  0  0  0  0  0  0  0  0  0  0  0
   15.1925  -17.6463   12.8612 C   0  0  0  0  0  0  0  0  0  0  0  0
   14.3715  -18.6152   13.2886 N   0  0  0  0  0  0  0  0  0  0  0  0
   13.9731  -21.4888   17.1663 C   0  0  0  0  0  0  0  0  0  0  0  0
   13.2113  -22.4096   16.8221 O   0  0  0  0  0  0  0  0  0  0  0  0
   14.1301  -21.2540   18.5533 N   0  0  0  0  0  0  0  0  0  0  0  0
   13.5732  -22.1307   19.5642 C   0  0  0  0  0  0  0  0  0  0  0  0
   13.4629  -21.3567   20.8518 C   0  0  0  0  0  0  0  0  0  0  0  0
   13.8952  -20.1785   20.9252 O   0  0  0  0  0  0  0  0  0  0  0  0
   12.8802  -21.9107   22.0103 N   0  0  0  0  0  0  0  0  0  0  0  0
   12.8791  -21.1790   23.3004 C   0  0  1  0  0  0  0  0  0  0  0  0
   11.8485  -21.7503   24.1997 C   0  0  0  0  0  0  0  0  0  0  0  0
   11.8531  -21.1026   25.5225 C   0  0  0  0  0  0  0  0  0  0  0  0
   10.8306  -20.2482   25.9911 C   0  0  0  0  0  0  0  0  0  0  0  0
   11.1221  -19.8201   27.2231 N   0  0  0  0  0  0  0  0  0  0  0  0
   12.2926  -20.3700   27.5570 C   0  0  0  0  0  0  0  0  0  0  0  0
   12.7148  -21.1259   26.5441 N   0  0  0  0  0  0  0  0  0  0  0  0
   14.2424  -21.3001   23.8764 C   0  0  0  0  0  0  0  0  0  0  0  0
   14.5293  -20.5287   24.8554 O   0  0  0  0  0  0  0  0  0  0  0  0
   15.1544  -22.1967   23.3855 O   0  0  0  0  0  0  0  0  0  0  0  0
  2  1  1  6
  3  2  1  0
  4  3  1  0
  5  4  2  0
  6  7  1  0
  6  5  1  0
  7  8  2  0
  8  4  1  0
  9  2  1  0
 10  9  2  0
 11  9  1  0
 12 13  1  0
 12 11  1  0
 13 15  1  0
 14 13  2  0
 15 16  1  0
 16 17  1  1
 16 23  1  0
 18 22  1  0
 18 17  1  0
 19 18  2  0
 20 19  1  0
 20 21  1  0
 21 22  2  0
 23 24  2  0
 23 25  1  0
M  END
$$$$
