HGH.pdb
     RDKit          3D

 25 26  0  0  1  0  0  0  0  0999 V2000
   14.2592  -23.0157   32.4694 N   0  0  0  0  0  0  0  0  0  0  0  0
   13.6465  -24.2285   32.9953 C   0  0  1  0  0  0  0  0  0  0  0  0
   13.1695  -25.0873   31.8168 C   0  0  0  0  0  0  0  0  0  0  0  0
   12.3279  -24.3230   30.8898 C   0  0  0  0  0  0  0  0  0  0  0  0
   11.0451  -23.8910   31.2025 C   0  0  0  0  0  0  0  0  0  0  0  0
   10.5784  -23.2346   30.1404 N   0  0  0  0  0  0  0  0  0  0  0  0
   11.5040  -23.2268   29.1619 C   0  0  0  0  0  0  0  0  0  0  0  0
   12.5691  -23.8933   29.6275 N   0  0  0  0  0  0  0  0  0  0  0  0
   14.6108  -24.9881   33.8319 C   0  0  0  0  0  0  0  0  0  0  0  0
   15.7569  -25.2063   33.4012 O   0  0  0  0  0  0  0  0  0  0  0  0
   14.2893  -25.4863   35.1171 N   0  0  0  0  0  0  0  0  0  0  0  0
   15.2388  -26.2142   35.9352 C   0  0  0  0  0  0  0  0  0  0  0  0
   14.5519  -26.6118   37.2155 C   0  0  0  0  0  0  0  0  0  0  0  0
   13.6254  -27.4616   37.2034 O   0  0  0  0  0  0  0  0  0  0  0  0
   14.9119  -26.0577   38.4613 N   0  0  0  0  0  0  0  0  0  0  0  0
   14.2928  -26.5280   39.7243 C   0  0  1  0  0  0  0  0  0  0  0  0
   14.9520  -25.8737   40.8795 C   0  0  0  0  0  0  0  0  0  0  0  0
   16.3817  -26.2176   40.9638 C   0  0  0  0  0  0  0  0  0  0  0  0
   16.8961  -27.5210   40.7858 C   0  0  0  0  0  0  0  0  0  0  0  0
   18.2255  -27.5099   40.9228 N   0  0  0  0  0  0  0  0  0  0  0  0
   18.5774  -26.2477   41.1815 C   0  0  0  0  0  0  0  0  0  0  0  0
   17.4792  -25.4932   41.2033 N   0  0  0  0  0  0  0  0  0  0  0  0
   12.8465  -26.1986   39.6550 C   0  0  0  0  0  0  0  0  0  0  0  0
   12.4686  -25.4448   38.6932 O   0  0  0  0  0  0  0  0  0  0  0  0
   11.9537  -26.6791   40.5762 O   0  0  0  0  0  0  0  0  0  0  0  0
  2  1  1  6
  3  2  1  0
  4  3  1  0
  5  4  2  0
  6  7  1  0
  6  5  1  0
  7  8  2  0
  8  4  1  0
  9  2  1  0
 10  9  2  0
 11  9  1  0
 12 13  1  0
 12 11  1  0
 13 15  1  0
 14 13  2  0
 15 16  1  0
 16 17  1  1
 16 23  1  0
 18 22  1  0
 18 17  1  0
 19 18  2  0
 20 19  1  0
 20 21  1  0
 21 22  2  0
 23 24  2  0
 23 25  1  0
M  END
$$$$
