VAV.pdb
     RDKit          3D

 20 19  0  0  1  0  0  0  0  0999 V2000
    2.5669  -18.3673   21.0403 C   0  0  0  0  0  0  0  0  0  0  0  0
    3.9013  -17.8776   21.5183 C   0  0  1  0  0  0  0  0  0  0  0  0
    4.6709  -19.0159   22.2001 C   0  0  0  0  0  0  0  0  0  0  0  0
    4.7832  -17.3678   20.4107 C   0  0  2  0  0  0  0  0  0  0  0  0
    4.8582  -18.3946   19.3903 N   0  0  0  0  0  0  0  0  0  0  0  0
    6.1198  -16.9609   20.8649 C   0  0  0  0  0  0  0  0  0  0  0  0
    7.1224  -17.6902   20.8737 O   0  0  0  0  0  0  0  0  0  0  0  0
    7.3558  -13.6247   22.0972 C   0  0  0  0  0  0  0  0  0  0  0  0
    7.5698  -15.1026   21.7601 C   0  0  2  0  0  0  0  0  0  0  0  0
    6.2907  -15.6216   21.3361 N   0  0  0  0  0  0  0  0  0  0  0  0
    8.0209  -15.7545   23.0159 C   0  0  0  0  0  0  0  0  0  0  0  0
    7.2260  -15.7912   23.9886 O   0  0  0  0  0  0  0  0  0  0  0  0
    8.9329  -19.3068   23.7879 C   0  0  0  0  0  0  0  0  0  0  0  0
   10.1066  -18.4401   24.1483 C   0  0  1  0  0  0  0  0  0  0  0  0
   11.1711  -18.6141   23.0970 C   0  0  0  0  0  0  0  0  0  0  0  0
    9.7368  -17.0047   24.3710 C   0  0  2  0  0  0  0  0  0  0  0  0
    9.2978  -16.3372   23.1771 N   0  0  0  0  0  0  0  0  0  0  0  0
   10.9378  -16.2973   24.8804 C   0  0  0  0  0  0  0  0  0  0  0  0
   11.5316  -15.4228   24.1658 O   0  0  0  0  0  0  0  0  0  0  0  0
   11.4559  -16.5564   26.1393 O   0  0  0  0  0  0  0  0  0  0  0  0
  2  1  1  6
  2  4  1  0
  3  2  1  0
  4  5  1  6
  6 10  1  0
  6  4  1  0
  7  6  2  0
  9  8  1  1
  9 11  1  0
  9 10  1  0
 11 17  1  0
 12 11  2  0
 14 13  1  6
 14 16  1  0
 15 14  1  0
 16 18  1  0
 16 17  1  6
 18 19  2  0
 18 20  1  0
M  END
$$$$
