VAV.pdb
     RDKit          3D

 20 19  0  0  1  0  0  0  0  0999 V2000
    6.1460  -16.2734   20.3804 C   0  0  0  0  0  0  0  0  0  0  0  0
    6.7843  -15.8858   21.6809 C   0  0  1  0  0  0  0  0  0  0  0  0
    8.0726  -16.6889   21.8997 C   0  0  0  0  0  0  0  0  0  0  0  0
    7.1690  -14.4325   21.7485 C   0  0  2  0  0  0  0  0  0  0  0  0
    7.9940  -14.1342   20.5947 N   0  0  0  0  0  0  0  0  0  0  0  0
    7.8402  -14.0608   23.0014 C   0  0  0  0  0  0  0  0  0  0  0  0
    9.0546  -14.1785   23.2217 O   0  0  0  0  0  0  0  0  0  0  0  0
    6.4419  -12.5527   26.1561 C   0  0  0  0  0  0  0  0  0  0  0  0
    7.5982  -13.1178   25.3272 C   0  0  2  0  0  0  0  0  0  0  0  0
    7.0414  -13.5200   24.0571 N   0  0  0  0  0  0  0  0  0  0  0  0
    8.1149  -14.2898   26.0789 C   0  0  0  0  0  0  0  0  0  0  0  0
    7.4129  -15.3314   26.1173 O   0  0  0  0  0  0  0  0  0  0  0  0
   12.0570  -15.4088   25.9954 C   0  0  0  0  0  0  0  0  0  0  0  0
   11.4444  -15.4296   27.3676 C   0  0  1  0  0  0  0  0  0  0  0  0
   11.9911  -14.2670   28.1538 C   0  0  0  0  0  0  0  0  0  0  0  0
    9.9460  -15.4658   27.3470 C   0  0  2  0  0  0  0  0  0  0  0  0
    9.3556  -14.2977   26.7548 N   0  0  0  0  0  0  0  0  0  0  0  0
    9.4720  -15.5618   28.7500 C   0  0  0  0  0  0  0  0  0  0  0  0
    8.8423  -14.5942   29.2933 O   0  0  0  0  0  0  0  0  0  0  0  0
    9.6926  -16.6948   29.5169 O   0  0  0  0  0  0  0  0  0  0  0  0
  2  1  1  6
  2  4  1  0
  3  2  1  0
  4  5  1  6
  6 10  1  0
  6  4  1  0
  7  6  2  0
  9  8  1  1
  9 11  1  0
  9 10  1  0
 11 17  1  0
 12 11  2  0
 14 13  1  6
 14 16  1  0
 15 14  1  0
 16 18  1  0
 16 17  1  1
 18 19  2  0
 18 20  1  0
M  END
$$$$
