VAV.pdb
     RDKit          3D

 20 19  0  0  1  0  0  0  0  0999 V2000
    9.0749  -13.1121   17.9983 C   0  0  0  0  0  0  0  0  0  0  0  0
    8.6159  -13.5083   19.3699 C   0  0  1  0  0  0  0  0  0  0  0  0
    7.2875  -12.8184   19.7046 C   0  0  0  0  0  0  0  0  0  0  0  0
    8.3794  -14.9871   19.5176 C   0  0  2  0  0  0  0  0  0  0  0  0
    7.5854  -15.4279   18.3880 N   0  0  0  0  0  0  0  0  0  0  0  0
    7.7526  -15.3566   20.7938 C   0  0  0  0  0  0  0  0  0  0  0  0
    6.5315  -15.3838   21.0068 O   0  0  0  0  0  0  0  0  0  0  0  0
    8.8011  -17.4515   23.5104 C   0  0  0  0  0  0  0  0  0  0  0  0
    8.0965  -16.1366   23.1667 C   0  0  2  0  0  0  0  0  0  0  0  0
    8.6067  -15.7148   21.8834 N   0  0  0  0  0  0  0  0  0  0  0  0
    8.4708  -15.1731   24.2331 C   0  0  0  0  0  0  0  0  0  0  0  0
    9.6556  -14.7560   24.2721 O   0  0  0  0  0  0  0  0  0  0  0  0
    7.0886  -11.9670   27.7927 C   0  0  0  0  0  0  0  0  0  0  0  0
    6.7201  -13.0225   26.7883 C   0  0  1  0  0  0  0  0  0  0  0  0
    5.8724  -12.3888   25.7167 C   0  0  0  0  0  0  0  0  0  0  0  0
    7.9059  -13.7545   26.2362 C   0  0  2  0  0  0  0  0  0  0  0  0
    7.5653  -14.6987   25.2084 N   0  0  0  0  0  0  0  0  0  0  0  0
    8.5445  -14.4967   27.3515 C   0  0  0  0  0  0  0  0  0  0  0  0
    8.2977  -15.7348   27.5368 O   0  0  0  0  0  0  0  0  0  0  0  0
    9.4248  -13.8801   28.2264 O   0  0  0  0  0  0  0  0  0  0  0  0
  2  1  1  6
  2  4  1  0
  3  2  1  0
  4  5  1  6
  6 10  1  0
  6  4  1  0
  7  6  2  0
  9  8  1  1
  9 11  1  0
  9 10  1  0
 11 17  1  0
 12 11  2  0
 14 13  1  1
 14 16  1  0
 15 14  1  0
 16 18  1  0
 16 17  1  6
 18 19  2  0
 18 20  1  0
M  END
$$$$
