VAV.pdb
     RDKit          3D

 20 19  0  0  1  0  0  0  0  0999 V2000
    8.0752  -12.6274   20.0460 C   0  0  0  0  0  0  0  0  0  0  0  0
    7.8413  -13.6314   18.9569 C   0  0  1  0  0  0  0  0  0  0  0  0
    8.7342  -13.3212   17.7489 C   0  0  0  0  0  0  0  0  0  0  0  0
    8.1542  -15.0446   19.3689 C   0  0  2  0  0  0  0  0  0  0  0  0
    7.8054  -15.9192   18.2669 N   0  0  0  0  0  0  0  0  0  0  0  0
    7.4890  -15.4539   20.6132 C   0  0  0  0  0  0  0  0  0  0  0  0
    6.2680  -15.6229   20.7466 O   0  0  0  0  0  0  0  0  0  0  0  0
    8.2303  -17.4045   23.4158 C   0  0  0  0  0  0  0  0  0  0  0  0
    7.7465  -15.9958   23.0621 C   0  0  2  0  0  0  0  0  0  0  0  0
    8.3024  -15.6782   21.7678 N   0  0  0  0  0  0  0  0  0  0  0  0
    8.2876  -15.0946   24.1114 C   0  0  0  0  0  0  0  0  0  0  0  0
    9.5269  -14.8889   24.1409 O   0  0  0  0  0  0  0  0  0  0  0  0
    5.6853  -13.0260   26.9453 C   0  0  0  0  0  0  0  0  0  0  0  0
    6.9619  -12.4516   26.3983 C   0  0  1  0  0  0  0  0  0  0  0  0
    7.4931  -11.4424   27.3821 C   0  0  0  0  0  0  0  0  0  0  0  0
    7.9725  -13.4963   26.0323 C   0  0  2  0  0  0  0  0  0  0  0  0
    7.4830  -14.4544   25.0804 N   0  0  0  0  0  0  0  0  0  0  0  0
    8.3454  -14.2248   27.2704 C   0  0  0  0  0  0  0  0  0  0  0  0
    7.8992  -15.3988   27.4957 O   0  0  0  0  0  0  0  0  0  0  0  0
    9.1842  -13.6640   28.2202 O   0  0  0  0  0  0  0  0  0  0  0  0
  2  1  1  1
  2  4  1  0
  3  2  1  0
  4  5  1  6
  6 10  1  0
  6  4  1  0
  7  6  2  0
  9  8  1  1
  9 11  1  0
  9 10  1  0
 11 17  1  0
 12 11  2  0
 14 13  1  1
 14 16  1  0
 15 14  1  0
 16 18  1  0
 16 17  1  6
 18 19  2  0
 18 20  1  0
M  END
$$$$
