VAV.pdb
     RDKit          3D

 20 19  0  0  1  0  0  0  0  0999 V2000
    7.2257  -12.6687   19.1827 C   0  0  0  0  0  0  0  0  0  0  0  0
    8.5347  -13.3995   19.1478 C   0  0  1  0  0  0  0  0  0  0  0  0
    9.4869  -12.8332   20.2086 C   0  0  0  0  0  0  0  0  0  0  0  0
    8.4055  -14.8718   19.4308 C   0  0  2  0  0  0  0  0  0  0  0  0
    7.7488  -15.4894   18.2957 N   0  0  0  0  0  0  0  0  0  0  0  0
    7.7031  -15.1686   20.6866 C   0  0  0  0  0  0  0  0  0  0  0  0
    6.4756  -15.1059   20.8489 O   0  0  0  0  0  0  0  0  0  0  0  0
    8.3407  -17.3169   23.4295 C   0  0  0  0  0  0  0  0  0  0  0  0
    7.8971  -15.8905   23.0946 C   0  0  2  0  0  0  0  0  0  0  0  0
    8.4853  -15.5614   21.8175 N   0  0  0  0  0  0  0  0  0  0  0  0
    8.4389  -15.0229   24.1714 C   0  0  0  0  0  0  0  0  0  0  0  0
    9.6720  -14.7809   24.1797 O   0  0  0  0  0  0  0  0  0  0  0  0
    6.7359  -11.5634   25.5487 C   0  0  0  0  0  0  0  0  0  0  0  0
    7.1141  -12.5377   26.6287 C   0  0  1  0  0  0  0  0  0  0  0  0
    5.8569  -13.1722   27.1629 C   0  0  0  0  0  0  0  0  0  0  0  0
    8.1330  -13.5448   26.1877 C   0  0  2  0  0  0  0  0  0  0  0  0
    7.6416  -14.4534   25.1893 N   0  0  0  0  0  0  0  0  0  0  0  0
    8.5352  -14.3380   27.3758 C   0  0  0  0  0  0  0  0  0  0  0  0
    8.1532  -15.5478   27.5121 O   0  0  0  0  0  0  0  0  0  0  0  0
    9.3333  -13.8010   28.3733 O   0  0  0  0  0  0  0  0  0  0  0  0
  2  1  1  1
  2  4  1  0
  3  2  1  0
  4  5  1  6
  6 10  1  0
  6  4  1  0
  7  6  2  0
  9  8  1  1
  9 11  1  0
  9 10  1  0
 11 17  1  0
 12 11  2  0
 14 13  1  6
 14 16  1  0
 15 14  1  0
 16 18  1  0
 16 17  1  6
 18 19  2  0
 18 20  1  0
M  END
$$$$
