VAV.pdb
     RDKit          3D

 20 19  0  0  1  0  0  0  0  0999 V2000
    6.3799  -16.6700   20.6345 C   0  0  0  0  0  0  0  0  0  0  0  0
    7.0222  -16.1375   21.8806 C   0  0  1  0  0  0  0  0  0  0  0  0
    8.3714  -16.8273   22.1184 C   0  0  0  0  0  0  0  0  0  0  0  0
    7.3009  -14.6597   21.8251 C   0  0  2  0  0  0  0  0  0  0  0  0
    8.1090  -14.4009   20.6500 N   0  0  0  0  0  0  0  0  0  0  0  0
    7.9361  -14.1362   23.0420 C   0  0  0  0  0  0  0  0  0  0  0  0
    9.1578  -14.1025   23.2503 O   0  0  0  0  0  0  0  0  0  0  0  0
    6.3977  -12.6958   26.1629 C   0  0  0  0  0  0  0  0  0  0  0  0
    7.5920  -13.2351   25.3716 C   0  0  2  0  0  0  0  0  0  0  0  0
    7.0901  -13.6227   24.0742 N   0  0  0  0  0  0  0  0  0  0  0  0
    8.0919  -14.4136   26.1246 C   0  0  0  0  0  0  0  0  0  0  0  0
    7.3934  -15.4583   26.1312 O   0  0  0  0  0  0  0  0  0  0  0  0
   11.7677  -15.9266   25.8148 C   0  0  0  0  0  0  0  0  0  0  0  0
   11.3695  -15.6977   27.2457 C   0  0  1  0  0  0  0  0  0  0  0  0
   12.1119  -14.4935   27.7627 C   0  0  0  0  0  0  0  0  0  0  0  0
    9.8866  -15.5951   27.4387 C   0  0  2  0  0  0  0  0  0  0  0  0
    9.3128  -14.4243   26.8356 N   0  0  0  0  0  0  0  0  0  0  0  0
    9.6184  -15.5415   28.8974 C   0  0  0  0  0  0  0  0  0  0  0  0
    9.1456  -14.4854   29.4351 O   0  0  0  0  0  0  0  0  0  0  0  0
    9.8685  -16.6254   29.7238 O   0  0  0  0  0  0  0  0  0  0  0  0
  2  1  1  6
  2  4  1  0
  3  2  1  0
  4  5  1  6
  6 10  1  0
  6  4  1  0
  7  6  2  0
  9  8  1  1
  9 11  1  0
  9 10  1  0
 11 17  1  0
 12 11  2  0
 14 13  1  6
 14 16  1  0
 15 14  1  0
 16 18  1  0
 16 17  1  6
 18 19  2  0
 18 20  1  0
M  END
$$$$
