VAV.pdb
     RDKit          3D

 20 19  0  0  1  0  0  0  0  0999 V2000
    8.7009  -13.2887   18.0122 C   0  0  0  0  0  0  0  0  0  0  0  0
    8.5653  -13.6202   19.4684 C   0  0  1  0  0  0  0  0  0  0  0  0
    7.5004  -12.7280   20.1186 C   0  0  0  0  0  0  0  0  0  0  0  0
    8.1445  -15.0427   19.7214 C   0  0  2  0  0  0  0  0  0  0  0  0
    7.1955  -15.4180   18.6921 N   0  0  0  0  0  0  0  0  0  0  0  0
    7.5957  -15.2620   21.0663 C   0  0  0  0  0  0  0  0  0  0  0  0
    6.4441  -14.9718   21.4224 O   0  0  0  0  0  0  0  0  0  0  0  0
    8.5295  -17.6075   23.6713 C   0  0  0  0  0  0  0  0  0  0  0  0
    7.9800  -16.2106   23.3706 C   0  0  2  0  0  0  0  0  0  0  0  0
    8.4461  -15.8559   22.0508 N   0  0  0  0  0  0  0  0  0  0  0  0
    8.5541  -15.3073   24.4003 C   0  0  0  0  0  0  0  0  0  0  0  0
    9.7412  -14.9199   24.2598 O   0  0  0  0  0  0  0  0  0  0  0  0
    7.1697  -11.8708   25.7550 C   0  0  0  0  0  0  0  0  0  0  0  0
    7.4012  -12.8500   26.8714 C   0  0  1  0  0  0  0  0  0  0  0  0
    6.0664  -13.3694   27.3373 C   0  0  0  0  0  0  0  0  0  0  0  0
    8.3586  -13.9451   26.5098 C   0  0  2  0  0  0  0  0  0  0  0  0
    7.8366  -14.8589   25.5318 N   0  0  0  0  0  0  0  0  0  0  0  0
    8.6616  -14.7127   27.7433 C   0  0  0  0  0  0  0  0  0  0  0  0
    8.2103  -15.8955   27.9028 O   0  0  0  0  0  0  0  0  0  0  0  0
    9.4388  -14.1801   28.7595 O   0  0  0  0  0  0  0  0  0  0  0  0
  2  1  1  6
  2  4  1  0
  3  2  1  0
  4  5  1  6
  6 10  1  0
  6  4  1  0
  7  6  2  0
  9  8  1  1
  9 11  1  0
  9 10  1  0
 11 17  1  0
 12 11  2  0
 14 13  1  6
 14 16  1  0
 15 14  1  0
 16 18  1  0
 16 17  1  6
 18 19  2  0
 18 20  1  0
M  END
$$$$
