VAV.pdb
     RDKit          3D

 20 19  0  0  1  0  0  0  0  0999 V2000
    5.9805  -20.3618   17.7251 C   0  0  0  0  0  0  0  0  0  0  0  0
    6.9296  -19.4911   18.4933 C   0  0  1  0  0  0  0  0  0  0  0  0
    7.6962  -18.5693   17.5366 C   0  0  0  0  0  0  0  0  0  0  0  0
    6.2460  -18.5978   19.4929 C   0  0  2  0  0  0  0  0  0  0  0  0
    5.2182  -17.8508   18.7955 N   0  0  0  0  0  0  0  0  0  0  0  0
    7.1677  -17.7061   20.2096 C   0  0  0  0  0  0  0  0  0  0  0  0
    8.2101  -18.0650   20.7768 O   0  0  0  0  0  0  0  0  0  0  0  0
    6.9467  -14.0052   20.8686 C   0  0  0  0  0  0  0  0  0  0  0  0
    7.6501  -15.3590   20.9944 C   0  0  2  0  0  0  0  0  0  0  0  0
    6.8488  -16.3131   20.2645 N   0  0  0  0  0  0  0  0  0  0  0  0
    7.6758  -15.6813   22.4439 C   0  0  0  0  0  0  0  0  0  0  0  0
    6.5856  -15.7120   23.0682 O   0  0  0  0  0  0  0  0  0  0  0  0
   10.1357  -18.5098   23.9845 C   0  0  0  0  0  0  0  0  0  0  0  0
    8.9488  -17.8904   24.6674 C   0  0  1  0  0  0  0  0  0  0  0  0
    8.9319  -18.3442   26.1035 C   0  0  0  0  0  0  0  0  0  0  0  0
    8.8962  -16.3990   24.5270 C   0  0  2  0  0  0  0  0  0  0  0  0
    8.8618  -15.9558   23.1609 N   0  0  0  0  0  0  0  0  0  0  0  0
   10.1130  -15.8370   25.1642 C   0  0  0  0  0  0  0  0  0  0  0  0
   11.0479  -15.3354   24.4553 O   0  0  0  0  0  0  0  0  0  0  0  0
   10.2795  -15.8351   26.5399 O   0  0  0  0  0  0  0  0  0  0  0  0
  2  1  1  6
  2  4  1  0
  3  2  1  0
  4  5  1  6
  6 10  1  0
  6  4  1  0
  7  6  2  0
  9  8  1  1
  9 11  1  0
  9 10  1  0
 11 17  1  0
 12 11  2  0
 14 13  1  1
 14 16  1  0
 15 14  1  0
 16 18  1  0
 16 17  1  6
 18 19  2  0
 18 20  1  0
M  END
$$$$
