VAV.pdb
     RDKit          3D

 20 19  0  0  1  0  0  0  0  0999 V2000
    8.0553  -12.4496   20.4799 C   0  0  0  0  0  0  0  0  0  0  0  0
    7.7776  -13.3239   19.2936 C   0  0  1  0  0  0  0  0  0  0  0  0
    8.5157  -12.7923   18.0585 C   0  0  0  0  0  0  0  0  0  0  0  0
    8.2277  -14.7476   19.4814 C   0  0  2  0  0  0  0  0  0  0  0  0
    7.8494  -15.4958   18.2991 N   0  0  0  0  0  0  0  0  0  0  0  0
    7.7048  -15.3717   20.7043 C   0  0  0  0  0  0  0  0  0  0  0  0
    6.5360  -15.7518   20.8670 O   0  0  0  0  0  0  0  0  0  0  0  0
    8.8119  -17.4518   23.2433 C   0  0  0  0  0  0  0  0  0  0  0  0
    8.1747  -16.0693   23.0812 C   0  0  2  0  0  0  0  0  0  0  0  0
    8.6044  -15.5613   21.7997 N   0  0  0  0  0  0  0  0  0  0  0  0
    8.7030  -15.2352   24.1907 C   0  0  0  0  0  0  0  0  0  0  0  0
    9.9183  -14.9160   24.1714 O   0  0  0  0  0  0  0  0  0  0  0  0
    7.1013  -11.8271   25.4779 C   0  0  0  0  0  0  0  0  0  0  0  0
    7.3450  -12.7977   26.5992 C   0  0  1  0  0  0  0  0  0  0  0  0
    6.0225  -13.3793   27.0251 C   0  0  0  0  0  0  0  0  0  0  0  0
    8.3620  -13.8466   26.2642 C   0  0  2  0  0  0  0  0  0  0  0  0
    7.9119  -14.7800   25.2692 N   0  0  0  0  0  0  0  0  0  0  0  0
    8.6630  -14.6038   27.5046 C   0  0  0  0  0  0  0  0  0  0  0  0
    8.2693  -15.8093   27.6446 O   0  0  0  0  0  0  0  0  0  0  0  0
    9.3762  -14.0365   28.5486 O   0  0  0  0  0  0  0  0  0  0  0  0
  2  1  1  1
  2  4  1  0
  3  2  1  0
  4  5  1  6
  6 10  1  0
  6  4  1  0
  7  6  2  0
  9  8  1  1
  9 11  1  0
  9 10  1  0
 11 17  1  0
 12 11  2  0
 14 13  1  6
 14 16  1  0
 15 14  1  0
 16 18  1  0
 16 17  1  6
 18 19  2  0
 18 20  1  0
M  END
$$$$
