VAV.pdb
     RDKit          3D

 20 19  0  0  1  0  0  0  0  0999 V2000
    8.5094  -13.0079   17.7774 C   0  0  0  0  0  0  0  0  0  0  0  0
    7.8161  -13.2575   19.0835 C   0  0  1  0  0  0  0  0  0  0  0  0
    6.6067  -14.1775   18.8747 C   0  0  0  0  0  0  0  0  0  0  0  0
    8.6922  -13.9277   20.1071 C   0  0  2  0  0  0  0  0  0  0  0  0
    9.1617  -15.1781   19.5440 N   0  0  0  0  0  0  0  0  0  0  0  0
    8.0291  -14.1350   21.4016 C   0  0  0  0  0  0  0  0  0  0  0  0
    7.4798  -13.2480   22.0713 O   0  0  0  0  0  0  0  0  0  0  0  0
    7.6750  -17.2554   23.4791 C   0  0  0  0  0  0  0  0  0  0  0  0
    7.4187  -15.7680   23.2232 C   0  0  2  0  0  0  0  0  0  0  0  0
    8.0089  -15.4589   21.9421 N   0  0  0  0  0  0  0  0  0  0  0  0
    8.1032  -15.0336   24.3177 C   0  0  0  0  0  0  0  0  0  0  0  0
    9.3565  -14.9479   24.2866 O   0  0  0  0  0  0  0  0  0  0  0  0
    6.9563  -11.4994   26.0054 C   0  0  0  0  0  0  0  0  0  0  0  0
    7.2322  -12.5853   27.0072 C   0  0  1  0  0  0  0  0  0  0  0  0
    5.9195  -13.0590   27.5738 C   0  0  0  0  0  0  0  0  0  0  0  0
    8.0656  -13.7024   26.4555 C   0  0  2  0  0  0  0  0  0  0  0  0
    7.4205  -14.4247   25.3944 N   0  0  0  0  0  0  0  0  0  0  0  0
    8.3426  -14.6542   27.5599 C   0  0  0  0  0  0  0  0  0  0  0  0
    7.8462  -15.8295   27.5478 O   0  0  0  0  0  0  0  0  0  0  0  0
    9.1431  -14.3069   28.6365 O   0  0  0  0  0  0  0  0  0  0  0  0
  2  1  1  6
  2  4  1  0
  3  2  1  0
  4  5  1  6
  6 10  1  0
  6  4  1  0
  7  6  2  0
  9  8  1  1
  9 11  1  0
  9 10  1  0
 11 17  1  0
 12 11  2  0
 14 13  1  6
 14 16  1  0
 15 14  1  0
 16 18  1  0
 16 17  1  6
 18 19  2  0
 18 20  1  0
M  END
$$$$
