VAV.pdb
     RDKit          3D

 20 19  0  0  1  0  0  0  0  0999 V2000
    8.1771  -12.4251   20.4419 C   0  0  0  0  0  0  0  0  0  0  0  0
    7.7137  -13.3927   19.3941 C   0  0  1  0  0  0  0  0  0  0  0  0
    8.3313  -13.0392   18.0354 C   0  0  0  0  0  0  0  0  0  0  0  0
    8.1013  -14.8178   19.6828 C   0  0  2  0  0  0  0  0  0  0  0  0
    7.5586  -15.6512   18.6284 N   0  0  0  0  0  0  0  0  0  0  0  0
    7.6773  -15.2839   21.0100 C   0  0  0  0  0  0  0  0  0  0  0  0
    6.5019  -15.4679   21.3591 O   0  0  0  0  0  0  0  0  0  0  0  0
    9.2518  -17.2365   23.5778 C   0  0  0  0  0  0  0  0  0  0  0  0
    8.3846  -16.0013   23.3214 C   0  0  2  0  0  0  0  0  0  0  0  0
    8.6899  -15.5495   21.9843 N   0  0  0  0  0  0  0  0  0  0  0  0
    8.7901  -14.9913   24.3319 C   0  0  0  0  0  0  0  0  0  0  0  0
    9.9064  -14.4294   24.2000 O   0  0  0  0  0  0  0  0  0  0  0  0
    6.9348  -11.7530   25.6222 C   0  0  0  0  0  0  0  0  0  0  0  0
    7.2655  -12.6865   26.7527 C   0  0  1  0  0  0  0  0  0  0  0  0
    5.9986  -13.3701   27.1955 C   0  0  0  0  0  0  0  0  0  0  0  0
    8.3634  -13.6519   26.4218 C   0  0  2  0  0  0  0  0  0  0  0  0
    7.9874  -14.6269   25.4360 N   0  0  0  0  0  0  0  0  0  0  0  0
    8.7294  -14.3717   27.6669 C   0  0  0  0  0  0  0  0  0  0  0  0
    8.4978  -15.6204   27.7904 O   0  0  0  0  0  0  0  0  0  0  0  0
    9.3308  -13.7222   28.7331 O   0  0  0  0  0  0  0  0  0  0  0  0
  2  1  1  1
  2  4  1  0
  3  2  1  0
  4  5  1  6
  6 10  1  0
  6  4  1  0
  7  6  2  0
  9  8  1  1
  9 11  1  0
  9 10  1  0
 11 17  1  0
 12 11  2  0
 14 13  1  6
 14 16  1  0
 15 14  1  0
 16 18  1  0
 16 17  1  6
 18 19  2  0
 18 20  1  0
M  END
$$$$
