VAV.pdb
     RDKit          3D

 20 19  0  0  1  0  0  0  0  0999 V2000
    6.9904  -16.7493   19.8977 C   0  0  0  0  0  0  0  0  0  0  0  0
    7.4983  -16.3015   21.2358 C   0  0  1  0  0  0  0  0  0  0  0  0
    8.9427  -16.7753   21.4405 C   0  0  0  0  0  0  0  0  0  0  0  0
    7.5109  -14.8058   21.4008 C   0  0  2  0  0  0  0  0  0  0  0  0
    8.2796  -14.2420   20.3090 N   0  0  0  0  0  0  0  0  0  0  0  0
    8.0227  -14.3636   22.7049 C   0  0  0  0  0  0  0  0  0  0  0  0
    9.2118  -14.1220   22.9594 O   0  0  0  0  0  0  0  0  0  0  0  0
    6.1832  -13.5521   25.8872 C   0  0  0  0  0  0  0  0  0  0  0  0
    7.4729  -13.7178   25.0794 C   0  0  2  0  0  0  0  0  0  0  0  0
    7.0862  -14.1948   23.7724 N   0  0  0  0  0  0  0  0  0  0  0  0
    8.2867  -14.7310   25.7983 C   0  0  0  0  0  0  0  0  0  0  0  0
    8.1989  -15.9320   25.4387 O   0  0  0  0  0  0  0  0  0  0  0  0
   11.9496  -13.6722   27.7268 C   0  0  0  0  0  0  0  0  0  0  0  0
   11.0634  -14.6914   28.3859 C   0  0  1  0  0  0  0  0  0  0  0  0
   10.3827  -14.0443   29.5634 C   0  0  0  0  0  0  0  0  0  0  0  0
   10.0988  -15.3387   27.4387 C   0  0  2  0  0  0  0  0  0  0  0  0
    9.1563  -14.4176   26.8668 N   0  0  0  0  0  0  0  0  0  0  0  0
    9.3397  -16.3677   28.1920 C   0  0  0  0  0  0  0  0  0  0  0  0
    8.0930  -16.2210   28.4208 O   0  0  0  0  0  0  0  0  0  0  0  0
    9.9492  -17.5162   28.6712 O   0  0  0  0  0  0  0  0  0  0  0  0
  2  1  1  6
  2  4  1  0
  3  2  1  0
  4  5  1  6
  6 10  1  0
  6  4  1  0
  7  6  2  0
  9  8  1  1
  9 11  1  0
  9 10  1  0
 11 17  1  0
 12 11  2  0
 14 13  1  6
 14 16  1  0
 15 14  1  0
 16 18  1  0
 16 17  1  1
 18 19  2  0
 18 20  1  0
M  END
$$$$
