VAV.pdb
     RDKit          3D

 20 19  0  0  1  0  0  0  0  0999 V2000
    5.6832  -19.6223   24.9277 C   0  0  0  0  0  0  0  0  0  0  0  0
    6.5180  -18.4392   24.5375 C   0  0  1  0  0  0  0  0  0  0  0  0
    7.8321  -18.4331   25.3286 C   0  0  0  0  0  0  0  0  0  0  0  0
    6.8952  -18.4278   23.0807 C   0  0  2  0  0  0  0  0  0  0  0  0
    7.5098  -19.7027   22.7680 N   0  0  0  0  0  0  0  0  0  0  0  0
    7.7657  -17.3043   22.7087 C   0  0  0  0  0  0  0  0  0  0  0  0
    9.0010  -17.2942   22.8145 O   0  0  0  0  0  0  0  0  0  0  0  0
    6.9431  -13.9817   21.1500 C   0  0  0  0  0  0  0  0  0  0  0  0
    7.9001  -14.9261   21.8821 C   0  0  2  0  0  0  0  0  0  0  0  0
    7.1525  -16.1245   22.1824 N   0  0  0  0  0  0  0  0  0  0  0  0
    8.3062  -14.2242   23.1263 C   0  0  0  0  0  0  0  0  0  0  0  0
    9.1306  -13.2799   23.0373 O   0  0  0  0  0  0  0  0  0  0  0  0
    7.3227  -12.4859   27.5397 C   0  0  0  0  0  0  0  0  0  0  0  0
    6.9610  -13.3340   26.3529 C   0  0  1  0  0  0  0  0  0  0  0  0
    6.0247  -12.5498   25.4715 C   0  0  0  0  0  0  0  0  0  0  0  0
    8.1548  -13.8585   25.6137 C   0  0  2  0  0  0  0  0  0  0  0  0
    7.8152  -14.5611   24.4075 N   0  0  0  0  0  0  0  0  0  0  0  0
    8.8700  -14.8001   26.5105 C   0  0  0  0  0  0  0  0  0  0  0  0
    8.8683  -16.0540   26.2746 O   0  0  0  0  0  0  0  0  0  0  0  0
    9.5606  -14.3585   27.6279 O   0  0  0  0  0  0  0  0  0  0  0  0
  2  1  1  6
  2  4  1  0
  3  2  1  0
  4  5  1  1
  6 10  1  0
  6  4  1  0
  7  6  2  0
  9  8  1  6
  9 11  1  0
  9 10  1  0
 11 17  1  0
 12 11  2  0
 14 13  1  1
 14 16  1  0
 15 14  1  0
 16 18  1  0
 16 17  1  6
 18 19  2  0
 18 20  1  0
M  END
$$$$
