VAV.pdb
     RDKit          3D

 20 19  0  0  1  0  0  0  0  0999 V2000
    7.8144  -12.4493   20.4075 C   0  0  0  0  0  0  0  0  0  0  0  0
    7.5479  -13.4809   19.3523 C   0  0  1  0  0  0  0  0  0  0  0  0
    8.3573  -13.1674   18.0876 C   0  0  0  0  0  0  0  0  0  0  0  0
    7.9288  -14.8756   19.7696 C   0  0  2  0  0  0  0  0  0  0  0  0
    7.5528  -15.7804   18.7015 N   0  0  0  0  0  0  0  0  0  0  0  0
    7.3430  -15.2846   21.0534 C   0  0  0  0  0  0  0  0  0  0  0  0
    6.1289  -15.3336   21.2996 O   0  0  0  0  0  0  0  0  0  0  0  0
    8.3386  -17.3241   23.8161 C   0  0  0  0  0  0  0  0  0  0  0  0
    7.7732  -15.9502   23.4470 C   0  0  2  0  0  0  0  0  0  0  0  0
    8.2322  -15.6576   22.1095 N   0  0  0  0  0  0  0  0  0  0  0  0
    8.3399  -14.9900   24.4281 C   0  0  0  0  0  0  0  0  0  0  0  0
    9.5656  -14.7211   24.3608 O   0  0  0  0  0  0  0  0  0  0  0  0
    6.9367  -11.3817   25.7039 C   0  0  0  0  0  0  0  0  0  0  0  0
    7.1787  -12.3685   26.8113 C   0  0  1  0  0  0  0  0  0  0  0  0
    5.8474  -12.8746   27.3013 C   0  0  0  0  0  0  0  0  0  0  0  0
    8.1160  -13.4730   26.4262 C   0  0  2  0  0  0  0  0  0  0  0  0
    7.5743  -14.3609   25.4352 N   0  0  0  0  0  0  0  0  0  0  0  0
    8.4119  -14.2668   27.6447 C   0  0  0  0  0  0  0  0  0  0  0  0
    7.9931  -15.4666   27.7591 O   0  0  0  0  0  0  0  0  0  0  0  0
    9.1471  -13.7410   28.6952 O   0  0  0  0  0  0  0  0  0  0  0  0
  2  1  1  1
  2  4  1  0
  3  2  1  0
  4  5  1  6
  6 10  1  0
  6  4  1  0
  7  6  2  0
  9  8  1  1
  9 11  1  0
  9 10  1  0
 11 17  1  0
 12 11  2  0
 14 13  1  6
 14 16  1  0
 15 14  1  0
 16 18  1  0
 16 17  1  6
 18 19  2  0
 18 20  1  0
M  END
$$$$
