VAV.pdb
     RDKit          3D

 20 19  0  0  1  0  0  0  0  0999 V2000
    8.9699  -13.1662   18.0092 C   0  0  0  0  0  0  0  0  0  0  0  0
    8.5738  -13.4571   19.4260 C   0  0  1  0  0  0  0  0  0  0  0  0
    7.3036  -12.6791   19.7920 C   0  0  0  0  0  0  0  0  0  0  0  0
    8.2731  -14.9101   19.6767 C   0  0  2  0  0  0  0  0  0  0  0  0
    7.4959  -15.4053   18.5579 N   0  0  0  0  0  0  0  0  0  0  0  0
    7.5938  -15.1566   20.9558 C   0  0  0  0  0  0  0  0  0  0  0  0
    6.3784  -15.0159   21.1563 O   0  0  0  0  0  0  0  0  0  0  0  0
    8.2698  -17.2797   23.7504 C   0  0  0  0  0  0  0  0  0  0  0  0
    7.8202  -15.8683   23.3640 C   0  0  2  0  0  0  0  0  0  0  0  0
    8.3852  -15.5935   22.0639 N   0  0  0  0  0  0  0  0  0  0  0  0
    8.3811  -14.9567   24.3936 C   0  0  0  0  0  0  0  0  0  0  0  0
    9.5908  -14.6280   24.3048 O   0  0  0  0  0  0  0  0  0  0  0  0
    6.7392  -11.5249   25.9179 C   0  0  0  0  0  0  0  0  0  0  0  0
    7.1284  -12.5456   26.9501 C   0  0  1  0  0  0  0  0  0  0  0  0
    5.8770  -13.2056   27.4667 C   0  0  0  0  0  0  0  0  0  0  0  0
    8.1448  -13.5301   26.4558 C   0  0  2  0  0  0  0  0  0  0  0  0
    7.6272  -14.4376   25.4698 N   0  0  0  0  0  0  0  0  0  0  0  0
    8.6111  -14.3275   27.6174 C   0  0  0  0  0  0  0  0  0  0  0  0
    9.2482  -13.7743   28.5746 O   0  0  0  0  0  0  0  0  0  0  0  0
    8.3749  -15.6900   27.7068 O   0  0  0  0  0  0  0  0  0  0  0  0
  2  1  1  6
  2  4  1  0
  3  2  1  0
  4  5  1  6
  6 10  1  0
  6  4  1  0
  7  6  2  0
  9  8  1  1
  9 11  1  0
  9 10  1  0
 11 17  1  0
 12 11  2  0
 14 13  1  6
 14 16  1  0
 15 14  1  0
 16 18  1  0
 16 17  1  6
 18 19  2  0
 18 20  1  0
M  END
$$$$
