VAV.pdb
     RDKit          3D

 20 19  0  0  1  0  0  0  0  0999 V2000
    4.5948  -19.7680   21.7445 C   0  0  0  0  0  0  0  0  0  0  0  0
    3.8617  -18.6463   21.0714 C   0  0  1  0  0  0  0  0  0  0  0  0
    3.3560  -17.6417   22.1144 C   0  0  0  0  0  0  0  0  0  0  0  0
    4.7148  -17.8684   20.1062 C   0  0  2  0  0  0  0  0  0  0  0  0
    4.9984  -18.7233   18.9706 N   0  0  0  0  0  0  0  0  0  0  0  0
    5.9485  -17.3421   20.7058 C   0  0  0  0  0  0  0  0  0  0  0  0
    6.8861  -18.0335   21.1301 O   0  0  0  0  0  0  0  0  0  0  0  0
    7.0384  -13.7880   21.3082 C   0  0  0  0  0  0  0  0  0  0  0  0
    7.2964  -15.2970   21.3040 C   0  0  2  0  0  0  0  0  0  0  0  0
    6.0910  -15.9233   20.8144 N   0  0  0  0  0  0  0  0  0  0  0  0
    7.5607  -15.6777   22.7151 C   0  0  0  0  0  0  0  0  0  0  0  0
    6.6642  -15.4636   23.5693 O   0  0  0  0  0  0  0  0  0  0  0  0
    8.1088  -18.9752   24.3242 C   0  0  0  0  0  0  0  0  0  0  0  0
    9.2951  -18.1203   24.6714 C   0  0  1  0  0  0  0  0  0  0  0  0
   10.4797  -18.5978   23.8731 C   0  0  0  0  0  0  0  0  0  0  0  0
    9.0359  -16.6530   24.5084 C   0  0  2  0  0  0  0  0  0  0  0  0
    8.7678  -16.2687   23.1504 N   0  0  0  0  0  0  0  0  0  0  0  0
   10.2442  -15.9222   24.9650 C   0  0  0  0  0  0  0  0  0  0  0  0
   10.9944  -15.3162   24.1295 O   0  0  0  0  0  0  0  0  0  0  0  0
   10.6011  -15.8700   26.3030 O   0  0  0  0  0  0  0  0  0  0  0  0
  2  1  1  1
  2  4  1  0
  3  2  1  0
  4  5  1  6
  6 10  1  0
  6  4  1  0
  7  6  2  0
  9  8  1  1
  9 11  1  0
  9 10  1  0
 11 17  1  0
 12 11  2  0
 14 13  1  6
 14 16  1  0
 15 14  1  0
 16 18  1  0
 16 17  1  6
 18 19  2  0
 18 20  1  0
M  END
$$$$
