QLE.pdb
     RDKit          3D

 27 26  0  0  1  0  0  0  0  0999 V2000
    9.4639  -12.7268   17.9786 N   0  0  0  0  0  0  0  0  0  0  0  0
    8.2272  -13.3906   17.7933 C   0  0  0  0  0  0  0  0  0  0  0  0
    7.8135  -13.6705   16.6456 O   0  0  0  0  0  0  0  0  0  0  0  0
    7.4167  -13.7563   18.9654 C   0  0  0  0  0  0  0  0  0  0  0  0
    8.1305  -13.3682   20.2454 C   0  0  0  0  0  0  0  0  0  0  0  0
    8.5025  -14.6623   20.9423 C   0  0  2  0  0  0  0  0  0  0  0  0
    7.3978  -15.5795   20.8782 N   0  0  0  0  0  0  0  0  0  0  0  0
    8.8770  -14.3578   22.3436 C   0  0  0  0  0  0  0  0  0  0  0  0
    9.9139  -13.6333   22.4991 O   0  0  0  0  0  0  0  0  0  0  0  0
    5.7915  -12.5708   26.4662 C   0  0  0  0  0  0  0  0  0  0  0  0
    6.9545  -12.8795   25.5561 C   0  0  1  0  0  0  0  0  0  0  0  0
    8.0339  -11.8412   25.9107 C   0  0  0  0  0  0  0  0  0  0  0  0
    7.5699  -14.2089   25.7854 C   0  0  0  0  0  0  0  0  0  0  0  0
    8.6797  -14.5754   24.8331 C   0  0  2  0  0  0  0  0  0  0  0  0
    8.1761  -14.8075   23.4899 N   0  0  0  0  0  0  0  0  0  0  0  0
    9.4019  -15.7865   25.2957 C   0  0  0  0  0  0  0  0  0  0  0  0
    9.3924  -16.1346   26.5215 O   0  0  0  0  0  0  0  0  0  0  0  0
   10.1384  -16.6299   24.4414 N   0  0  0  0  0  0  0  0  0  0  0  0
   10.7727  -17.8660   24.9292 C   0  0  1  0  0  0  0  0  0  0  0  0
   10.9669  -18.8305   23.8193 C   0  0  0  0  0  0  0  0  0  0  0  0
    9.6823  -19.1149   23.0966 C   0  0  0  0  0  0  0  0  0  0  0  0
    9.8104  -20.0901   22.0047 C   0  0  0  0  0  0  0  0  0  0  0  0
    9.6394  -19.7260   20.8200 O   0  0  0  0  0  0  0  0  0  0  0  0
   12.0793  -17.4266   25.4717 C   0  0  0  0  0  0  0  0  0  0  0  0
   12.8267  -18.2208   26.1562 O   0  0  0  0  0  0  0  0  0  0  0  0
   10.1204  -21.4157   22.2787 O   0  0  0  0  0  0  0  0  0  0  0  0
   12.5790  -16.1553   25.2813 O   0  0  0  0  0  0  0  0  0  0  0  0
  2  1  1  0
  2  3  2  0
  4  2  1  0
  5  4  1  0
  6  8  1  0
  6  5  1  0
  6  7  1  1
  8 15  1  0
  9  8  2  0
 11 10  1  1
 12 11  1  0
 14 13  1  1
 13 11  1  0
 14 16  1  0
 15 14  1  0
 16 18  1  0
 17 16  2  0
 18 19  1  0
 19 24  1  0
 19 20  1  6
 21 20  1  0
 22 23  2  0
 22 21  1  0
 24 25  2  0
 24 27  1  0
 26 22  1  0
M  END
$$$$
