QLE.pdb
     RDKit          3D

 27 26  0  0  1  0  0  0  0  0999 V2000
    5.0043  -20.7093   23.7526 N   0  0  0  0  0  0  0  0  0  0  0  0
    5.4300  -20.6883   22.4026 C   0  0  0  0  0  0  0  0  0  0  0  0
    5.6509  -21.7523   21.7815 O   0  0  0  0  0  0  0  0  0  0  0  0
    5.6159  -19.3983   21.7199 C   0  0  0  0  0  0  0  0  0  0  0  0
    6.7332  -18.6089   22.3734 C   0  0  0  0  0  0  0  0  0  0  0  0
    6.7071  -17.2266   21.7512 C   0  0  2  0  0  0  0  0  0  0  0  0
    7.3638  -17.2604   20.4731 N   0  0  0  0  0  0  0  0  0  0  0  0
    7.3660  -16.2752   22.6771 C   0  0  0  0  0  0  0  0  0  0  0  0
    8.5619  -15.9477   22.3824 O   0  0  0  0  0  0  0  0  0  0  0  0
    7.8072  -11.7956   25.7038 C   0  0  0  0  0  0  0  0  0  0  0  0
    7.0631  -12.9218   26.3775 C   0  0  1  0  0  0  0  0  0  0  0  0
    5.8903  -12.2500   27.1137 C   0  0  0  0  0  0  0  0  0  0  0  0
    6.4568  -13.8970   25.4394 C   0  0  0  0  0  0  0  0  0  0  0  0
    7.4390  -14.7047   24.6295 C   0  0  2  0  0  0  0  0  0  0  0  0
    6.7689  -15.7214   23.8365 N   0  0  0  0  0  0  0  0  0  0  0  0
    8.4438  -15.3573   25.5051 C   0  0  0  0  0  0  0  0  0  0  0  0
    9.1825  -14.6745   26.2875 O   0  0  0  0  0  0  0  0  0  0  0  0
    8.6591  -16.7485   25.5438 N   0  0  0  0  0  0  0  0  0  0  0  0
    9.9716  -17.3215   25.8862 C   0  0  1  0  0  0  0  0  0  0  0  0
   11.0355  -16.7498   25.0253 C   0  0  0  0  0  0  0  0  0  0  0  0
   12.3989  -17.2283   25.4322 C   0  0  0  0  0  0  0  0  0  0  0  0
   13.4942  -16.6861   24.6160 C   0  0  0  0  0  0  0  0  0  0  0  0
   14.6787  -16.9898   24.8807 O   0  0  0  0  0  0  0  0  0  0  0  0
   10.1873  -16.9418   27.3019 C   0  0  0  0  0  0  0  0  0  0  0  0
   10.5549  -17.8056   28.1832 O   0  0  0  0  0  0  0  0  0  0  0  0
   13.2237  -15.8371   23.5508 O   0  0  0  0  0  0  0  0  0  0  0  0
   10.0140  -15.6546   27.7659 O   0  0  0  0  0  0  0  0  0  0  0  0
  2  1  1  0
  2  3  2  0
  4  2  1  0
  5  4  1  0
  6  8  1  0
  6  5  1  0
  6  7  1  6
  8 15  1  0
  9  8  2  0
 11 10  1  6
 12 11  1  0
 14 13  1  1
 13 11  1  0
 14 16  1  0
 15 14  1  0
 16 18  1  0
 17 16  2  0
 18 19  1  0
 19 24  1  0
 19 20  1  6
 21 20  1  0
 22 23  2  0
 22 21  1  0
 24 25  2  0
 24 27  1  0
 26 22  1  0
M  END
$$$$
