QLE.pdb
     RDKit          3D

 27 26  0  0  1  0  0  0  0  0999 V2000
    8.9598  -20.2166   20.9948 N   0  0  0  0  0  0  0  0  0  0  0  0
    8.7240  -19.5766   19.7541 C   0  0  0  0  0  0  0  0  0  0  0  0
    8.6236  -20.2399   18.6974 O   0  0  0  0  0  0  0  0  0  0  0  0
    8.5957  -18.1118   19.7056 C   0  0  0  0  0  0  0  0  0  0  0  0
    8.6312  -17.5299   21.1052 C   0  0  0  0  0  0  0  0  0  0  0  0
    8.3633  -16.0444   20.9627 C   0  0  2  0  0  0  0  0  0  0  0  0
    9.1486  -15.5142   19.8818 N   0  0  0  0  0  0  0  0  0  0  0  0
    8.6838  -15.3775   22.2468 C   0  0  0  0  0  0  0  0  0  0  0  0
    9.9189  -15.3288   22.5572 O   0  0  0  0  0  0  0  0  0  0  0  0
    8.5470  -11.8479   26.4187 C   0  0  0  0  0  0  0  0  0  0  0  0
    7.3951  -12.8190   26.3422 C   0  0  1  0  0  0  0  0  0  0  0  0
    6.1544  -12.0108   26.7620 C   0  0  0  0  0  0  0  0  0  0  0  0
    7.1154  -13.3243   24.9764 C   0  0  0  0  0  0  0  0  0  0  0  0
    8.1024  -14.3359   24.4516 C   0  0  2  0  0  0  0  0  0  0  0  0
    7.7322  -14.8062   23.1274 N   0  0  0  0  0  0  0  0  0  0  0  0
    8.2115  -15.4996   25.3660 C   0  0  0  0  0  0  0  0  0  0  0  0
    7.1871  -16.1849   25.6899 O   0  0  0  0  0  0  0  0  0  0  0  0
    9.4239  -15.9325   25.9369 N   0  0  0  0  0  0  0  0  0  0  0  0
    9.5248  -17.2036   26.6734 C   0  0  1  0  0  0  0  0  0  0  0  0
   10.3401  -18.1856   25.9178 C   0  0  0  0  0  0  0  0  0  0  0  0
   11.7000  -17.6433   25.5860 C   0  0  0  0  0  0  0  0  0  0  0  0
   12.5092  -18.5290   24.7372 C   0  0  0  0  0  0  0  0  0  0  0  0
   12.5124  -18.3716   23.4960 O   0  0  0  0  0  0  0  0  0  0  0  0
   10.1900  -16.8454   27.9477 C   0  0  0  0  0  0  0  0  0  0  0  0
   10.5099  -15.6289   28.2227 O   0  0  0  0  0  0  0  0  0  0  0  0
   13.2720  -19.5417   25.3037 O   0  0  0  0  0  0  0  0  0  0  0  0
   10.5054  -17.7771   28.9145 O   0  0  0  0  0  0  0  0  0  0  0  0
  2  1  1  0
  2  3  2  0
  4  2  1  0
  5  4  1  0
  6  8  1  0
  6  5  1  0
  6  7  1  6
  8 15  1  0
  9  8  2  0
 11 10  1  6
 12 11  1  0
 14 13  1  1
 13 11  1  0
 14 16  1  0
 15 14  1  0
 16 18  1  0
 17 16  2  0
 18 19  1  0
 19 24  1  0
 19 20  1  6
 21 20  1  0
 22 23  2  0
 22 21  1  0
 24 25  2  0
 24 27  1  0
 26 22  1  0
M  END
$$$$
