QLE.pdb
     RDKit          3D

 27 26  0  0  1  0  0  0  0  0999 V2000
    9.7203  -13.6187   18.0800 N   0  0  0  0  0  0  0  0  0  0  0  0
    8.3334  -13.3870   17.9152 C   0  0  0  0  0  0  0  0  0  0  0  0
    7.7981  -13.4662   16.7866 O   0  0  0  0  0  0  0  0  0  0  0  0
    7.5098  -13.0481   19.0862 C   0  0  0  0  0  0  0  0  0  0  0  0
    8.3296  -13.1473   20.3576 C   0  0  0  0  0  0  0  0  0  0  0  0
    8.0730  -14.5272   20.9309 C   0  0  2  0  0  0  0  0  0  0  0  0
    6.6742  -14.8406   20.8260 N   0  0  0  0  0  0  0  0  0  0  0  0
    8.5321  -14.5502   22.3399 C   0  0  0  0  0  0  0  0  0  0  0  0
    9.7937  -14.5100   22.5163 O   0  0  0  0  0  0  0  0  0  0  0  0
    5.6025  -12.2840   26.4351 C   0  0  0  0  0  0  0  0  0  0  0  0
    6.7799  -12.7101   25.5936 C   0  0  1  0  0  0  0  0  0  0  0  0
    7.9479  -11.8168   26.0481 C   0  0  0  0  0  0  0  0  0  0  0  0
    7.2168  -14.1084   25.8226 C   0  0  0  0  0  0  0  0  0  0  0  0
    8.2134  -14.6413   24.8246 C   0  0  2  0  0  0  0  0  0  0  0  0
    7.6827  -14.6122   23.4722 N   0  0  0  0  0  0  0  0  0  0  0  0
    8.6126  -16.0310   25.1588 C   0  0  0  0  0  0  0  0  0  0  0  0
    7.8483  -17.0183   24.9038 O   0  0  0  0  0  0  0  0  0  0  0  0
    9.8369  -16.3659   25.7689 N   0  0  0  0  0  0  0  0  0  0  0  0
   10.2115  -17.7637   26.0413 C   0  0  1  0  0  0  0  0  0  0  0  0
   11.1857  -18.2525   25.0354 C   0  0  0  0  0  0  0  0  0  0  0  0
   12.3857  -17.3557   24.9399 C   0  0  0  0  0  0  0  0  0  0  0  0
   13.4243  -17.8380   24.0187 C   0  0  0  0  0  0  0  0  0  0  0  0
   13.2509  -18.9033   23.3859 O   0  0  0  0  0  0  0  0  0  0  0  0
   10.8267  -17.7300   27.3885 C   0  0  0  0  0  0  0  0  0  0  0  0
   10.9719  -16.6266   28.0362 O   0  0  0  0  0  0  0  0  0  0  0  0
   14.5994  -17.1188   23.8451 O   0  0  0  0  0  0  0  0  0  0  0  0
   11.2776  -18.8626   28.0335 O   0  0  0  0  0  0  0  0  0  0  0  0
  2  1  1  0
  2  3  2  0
  4  2  1  0
  5  4  1  0
  6  8  1  0
  6  5  1  0
  6  7  1  1
  8 15  1  0
  9  8  2  0
 11 10  1  1
 12 11  1  0
 14 13  1  1
 13 11  1  0
 14 16  1  0
 15 14  1  0
 16 18  1  0
 17 16  2  0
 18 19  1  0
 19 24  1  0
 19 20  1  6
 21 20  1  0
 22 23  2  0
 22 21  1  0
 24 25  2  0
 24 27  1  0
 26 22  1  0
M  END
$$$$
