QLE.pdb
     RDKit          3D

 27 26  0  0  1  0  0  0  0  0999 V2000
    8.4165  -20.4828   21.6415 N   0  0  0  0  0  0  0  0  0  0  0  0
    8.2324  -19.9644   20.3370 C   0  0  0  0  0  0  0  0  0  0  0  0
    8.0670  -20.7280   19.3592 O   0  0  0  0  0  0  0  0  0  0  0  0
    8.2359  -18.5082   20.1273 C   0  0  0  0  0  0  0  0  0  0  0  0
    8.3121  -17.7814   21.4557 C   0  0  0  0  0  0  0  0  0  0  0  0
    8.1697  -16.3035   21.1487 C   0  0  2  0  0  0  0  0  0  0  0  0
    9.0178  -15.9571   20.0411 N   0  0  0  0  0  0  0  0  0  0  0  0
    8.5172  -15.5293   22.3637 C   0  0  0  0  0  0  0  0  0  0  0  0
    9.7580  -15.3002   22.5433 O   0  0  0  0  0  0  0  0  0  0  0  0
    8.2133  -12.0661   26.5914 C   0  0  0  0  0  0  0  0  0  0  0  0
    7.2131  -13.1954   26.6059 C   0  0  1  0  0  0  0  0  0  0  0  0
    5.9107  -12.5770   27.1445 C   0  0  0  0  0  0  0  0  0  0  0  0
    6.8883  -13.7374   25.2645 C   0  0  0  0  0  0  0  0  0  0  0  0
    8.0114  -14.4756   24.5813 C   0  0  2  0  0  0  0  0  0  0  0  0
    7.5850  -15.0406   23.3122 N   0  0  0  0  0  0  0  0  0  0  0  0
    8.5377  -15.5629   25.4433 C   0  0  0  0  0  0  0  0  0  0  0  0
    7.7698  -16.4646   25.9138 O   0  0  0  0  0  0  0  0  0  0  0  0
    9.8936  -15.6861   25.8035 N   0  0  0  0  0  0  0  0  0  0  0  0
   10.3852  -16.8245   26.5977 C   0  0  1  0  0  0  0  0  0  0  0  0
   11.7550  -17.2068   26.1764 C   0  0  0  0  0  0  0  0  0  0  0  0
   11.7604  -17.8615   24.8256 C   0  0  0  0  0  0  0  0  0  0  0  0
   13.0970  -18.0002   24.2307 C   0  0  0  0  0  0  0  0  0  0  0  0
   13.2609  -17.7879   23.0086 O   0  0  0  0  0  0  0  0  0  0  0  0
   10.3887  -16.3317   27.9948 C   0  0  0  0  0  0  0  0  0  0  0  0
   10.0870  -15.1130   28.2807 O   0  0  0  0  0  0  0  0  0  0  0  0
   14.1820  -18.3662   25.0163 O   0  0  0  0  0  0  0  0  0  0  0  0
   10.7083  -17.1340   29.0701 O   0  0  0  0  0  0  0  0  0  0  0  0
  2  1  1  0
  2  3  2  0
  4  2  1  0
  5  4  1  0
  6  8  1  0
  6  5  1  0
  6  7  1  6
  8 15  1  0
  9  8  2  0
 11 10  1  6
 12 11  1  0
 14 13  1  1
 13 11  1  0
 14 16  1  0
 15 14  1  0
 16 18  1  0
 17 16  2  0
 18 19  1  0
 19 24  1  0
 19 20  1  6
 21 20  1  0
 22 23  2  0
 22 21  1  0
 24 25  2  0
 24 27  1  0
 26 22  1  0
M  END
$$$$
