QLE.pdb
     RDKit          3D

 27 26  0  0  1  0  0  0  0  0999 V2000
   10.0211  -16.0836   18.0867 N   0  0  0  0  0  0  0  0  0  0  0  0
    8.8314  -16.8462   18.1746 C   0  0  0  0  0  0  0  0  0  0  0  0
    8.4693  -17.5835   17.2302 O   0  0  0  0  0  0  0  0  0  0  0  0
    8.0090  -16.7708   19.3921 C   0  0  0  0  0  0  0  0  0  0  0  0
    8.6645  -15.8692   20.4197 C   0  0  0  0  0  0  0  0  0  0  0  0
    8.5500  -16.5798   21.7541 C   0  0  2  0  0  0  0  0  0  0  0  0
    7.1968  -17.0232   21.9498 N   0  0  0  0  0  0  0  0  0  0  0  0
    8.9793  -15.6512   22.8264 C   0  0  0  0  0  0  0  0  0  0  0  0
   10.1616  -15.1870   22.7221 O   0  0  0  0  0  0  0  0  0  0  0  0
    5.6584  -12.2415   25.8619 C   0  0  0  0  0  0  0  0  0  0  0  0
    6.7677  -12.8639   25.0507 C   0  0  1  0  0  0  0  0  0  0  0  0
    7.6710  -11.6906   24.6311 C   0  0  0  0  0  0  0  0  0  0  0  0
    7.6310  -13.7960   25.8155 C   0  0  0  0  0  0  0  0  0  0  0  0
    8.7240  -14.4599   25.0172 C   0  0  2  0  0  0  0  0  0  0  0  0
    8.1823  -15.2568   23.9294 N   0  0  0  0  0  0  0  0  0  0  0  0
    9.5647  -15.3262   25.8804 C   0  0  0  0  0  0  0  0  0  0  0  0
   10.1143  -14.8732   26.9371 O   0  0  0  0  0  0  0  0  0  0  0  0
    9.8183  -16.6851   25.6114 N   0  0  0  0  0  0  0  0  0  0  0  0
   10.6230  -17.5191   26.5197 C   0  0  1  0  0  0  0  0  0  0  0  0
    9.8988  -18.7654   26.8692 C   0  0  0  0  0  0  0  0  0  0  0  0
   10.7420  -19.6847   27.7042 C   0  0  0  0  0  0  0  0  0  0  0  0
   10.0389  -20.8887   28.1688 C   0  0  0  0  0  0  0  0  0  0  0  0
   10.5344  -22.0189   27.9628 O   0  0  0  0  0  0  0  0  0  0  0  0
   11.8520  -17.8286   25.7527 C   0  0  0  0  0  0  0  0  0  0  0  0
   11.8284  -17.9818   24.4744 O   0  0  0  0  0  0  0  0  0  0  0  0
    8.8258  -20.7811   28.8360 O   0  0  0  0  0  0  0  0  0  0  0  0
   13.0888  -17.9694   26.3465 O   0  0  0  0  0  0  0  0  0  0  0  0
  2  1  1  0
  2  3  2  0
  4  2  1  0
  5  4  1  0
  6  8  1  0
  6  5  1  0
  6  7  1  1
  8 15  1  0
  9  8  2  0
 11 10  1  1
 12 11  1  0
 14 13  1  1
 13 11  1  0
 14 16  1  0
 15 14  1  0
 16 18  1  0
 17 16  2  0
 18 19  1  0
 19 24  1  0
 19 20  1  6
 21 20  1  0
 22 23  2  0
 22 21  1  0
 24 25  2  0
 24 27  1  0
 26 22  1  0
M  END
$$$$
