QLE.pdb
     RDKit          3D

 27 26  0  0  1  0  0  0  0  0999 V2000
    6.1713  -17.7687   18.6091 N   0  0  0  0  0  0  0  0  0  0  0  0
    7.5087  -17.9198   19.0484 C   0  0  0  0  0  0  0  0  0  0  0  0
    8.2949  -18.6955   18.4596 O   0  0  0  0  0  0  0  0  0  0  0  0
    7.9811  -17.1551   20.2131 C   0  0  0  0  0  0  0  0  0  0  0  0
    6.8302  -16.4097   20.8601 C   0  0  0  0  0  0  0  0  0  0  0  0
    7.2880  -14.9749   21.0344 C   0  0  2  0  0  0  0  0  0  0  0  0
    8.2302  -14.6404   20.0017 N   0  0  0  0  0  0  0  0  0  0  0  0
    7.8830  -14.8256   22.3836 C   0  0  0  0  0  0  0  0  0  0  0  0
    9.1413  -15.0117   22.4621 O   0  0  0  0  0  0  0  0  0  0  0  0
    5.4753  -11.7018   26.4714 C   0  0  0  0  0  0  0  0  0  0  0  0
    6.4627  -12.2929   25.4958 C   0  0  1  0  0  0  0  0  0  0  0  0
    7.7060  -11.3895   25.5794 C   0  0  0  0  0  0  0  0  0  0  0  0
    6.9209  -13.6588   25.8466 C   0  0  0  0  0  0  0  0  0  0  0  0
    7.8308  -14.3100   24.8362 C   0  0  2  0  0  0  0  0  0  0  0  0
    7.1633  -14.4981   23.5592 N   0  0  0  0  0  0  0  0  0  0  0  0
    8.3192  -15.6230   25.3257 C   0  0  0  0  0  0  0  0  0  0  0  0
    7.5284  -16.6123   25.4668 O   0  0  0  0  0  0  0  0  0  0  0  0
    9.6617  -15.8789   25.6659 N   0  0  0  0  0  0  0  0  0  0  0  0
   10.1314  -17.2319   26.0076 C   0  0  1  0  0  0  0  0  0  0  0  0
   11.3650  -17.5659   25.2549 C   0  0  0  0  0  0  0  0  0  0  0  0
   12.4140  -16.5025   25.4036 C   0  0  0  0  0  0  0  0  0  0  0  0
   13.5994  -16.7057   24.5591 C   0  0  0  0  0  0  0  0  0  0  0  0
   13.9056  -15.8513   23.6979 O   0  0  0  0  0  0  0  0  0  0  0  0
   10.4081  -17.1754   27.4618 C   0  0  0  0  0  0  0  0  0  0  0  0
   10.2726  -16.0843   28.1321 O   0  0  0  0  0  0  0  0  0  0  0  0
   14.3840  -17.8415   24.7099 O   0  0  0  0  0  0  0  0  0  0  0  0
   10.8215  -18.2727   28.1879 O   0  0  0  0  0  0  0  0  0  0  0  0
  2  1  1  0
  2  3  2  0
  4  2  1  0
  5  4  1  0
  6  8  1  0
  6  5  1  0
  6  7  1  6
  8 15  1  0
  9  8  2  0
 11 10  1  1
 12 11  1  0
 14 13  1  1
 13 11  1  0
 14 16  1  0
 15 14  1  0
 16 18  1  0
 17 16  2  0
 18 19  1  0
 19 24  1  0
 19 20  1  6
 21 20  1  0
 22 23  2  0
 22 21  1  0
 24 25  2  0
 24 27  1  0
 26 22  1  0
M  END
$$$$
