QLE.pdb
     RDKit          3D

 27 26  0  0  1  0  0  0  0  0999 V2000
    7.5714  -19.0914   20.2630 N   0  0  0  0  0  0  0  0  0  0  0  0
    6.7916  -18.2817   19.4023 C   0  0  0  0  0  0  0  0  0  0  0  0
    6.2261  -18.7699   18.3980 O   0  0  0  0  0  0  0  0  0  0  0  0
    6.6438  -16.8468   19.6917 C   0  0  0  0  0  0  0  0  0  0  0  0
    7.3758  -16.4856   20.9693 C   0  0  0  0  0  0  0  0  0  0  0  0
    7.1999  -14.9919   21.1607 C   0  0  2  0  0  0  0  0  0  0  0  0
    7.7514  -14.2928   20.0324 N   0  0  0  0  0  0  0  0  0  0  0  0
    7.8618  -14.5928   22.4253 C   0  0  0  0  0  0  0  0  0  0  0  0
    9.1147  -14.3706   22.3532 O   0  0  0  0  0  0  0  0  0  0  0  0
    5.5271  -11.9124   26.8205 C   0  0  0  0  0  0  0  0  0  0  0  0
    6.5693  -12.3388   25.8165 C   0  0  1  0  0  0  0  0  0  0  0  0
    7.7721  -11.4102   26.0610 C   0  0  0  0  0  0  0  0  0  0  0  0
    7.0696  -13.7213   26.0091 C   0  0  0  0  0  0  0  0  0  0  0  0
    7.9545  -14.2433   24.9058 C   0  0  2  0  0  0  0  0  0  0  0  0
    7.2098  -14.4461   23.6746 N   0  0  0  0  0  0  0  0  0  0  0  0
    8.5994  -15.5211   25.2980 C   0  0  0  0  0  0  0  0  0  0  0  0
    7.9243  -16.5962   25.4087 O   0  0  0  0  0  0  0  0  0  0  0  0
    9.9746  -15.6489   25.5731 N   0  0  0  0  0  0  0  0  0  0  0  0
   10.6262  -16.9653   25.6768 C   0  0  1  0  0  0  0  0  0  0  0  0
   11.9716  -16.9365   25.0531 C   0  0  0  0  0  0  0  0  0  0  0  0
   12.6963  -18.2391   25.2305 C   0  0  0  0  0  0  0  0  0  0  0  0
   14.0207  -18.2811   24.5948 C   0  0  0  0  0  0  0  0  0  0  0  0
   14.7505  -19.2870   24.7399 O   0  0  0  0  0  0  0  0  0  0  0  0
   10.7327  -17.2160   27.1330 C   0  0  0  0  0  0  0  0  0  0  0  0
   10.5125  -16.2854   27.9953 O   0  0  0  0  0  0  0  0  0  0  0  0
   14.4692  -17.2105   23.8327 O   0  0  0  0  0  0  0  0  0  0  0  0
   11.0676  -18.4467   27.6576 O   0  0  0  0  0  0  0  0  0  0  0  0
  2  1  1  0
  2  3  2  0
  4  2  1  0
  5  4  1  0
  6  8  1  0
  6  5  1  0
  6  7  1  6
  8 15  1  0
  9  8  2  0
 11 10  1  1
 12 11  1  0
 14 13  1  1
 13 11  1  0
 14 16  1  0
 15 14  1  0
 16 18  1  0
 17 16  2  0
 18 19  1  0
 19 24  1  0
 19 20  1  1
 21 20  1  0
 22 23  2  0
 22 21  1  0
 24 25  2  0
 24 27  1  0
 26 22  1  0
M  END
$$$$
