QLE.pdb
     RDKit          3D

 27 26  0  0  1  0  0  0  0  0999 V2000
    8.9347  -12.0998   18.8656 N   0  0  0  0  0  0  0  0  0  0  0  0
    8.1158  -13.1541   18.3942 C   0  0  0  0  0  0  0  0  0  0  0  0
    7.9016  -13.3036   17.1701 O   0  0  0  0  0  0  0  0  0  0  0  0
    7.5077  -14.0868   19.3559 C   0  0  0  0  0  0  0  0  0  0  0  0
    7.9780  -13.7780   20.7638 C   0  0  0  0  0  0  0  0  0  0  0  0
    8.3634  -15.1033   21.3913 C   0  0  2  0  0  0  0  0  0  0  0  0
    7.2696  -16.0284   21.2743 N   0  0  0  0  0  0  0  0  0  0  0  0
    8.7305  -14.8703   22.8081 C   0  0  0  0  0  0  0  0  0  0  0  0
    9.8703  -14.3365   23.0086 O   0  0  0  0  0  0  0  0  0  0  0  0
    5.4315  -12.8470   26.4494 C   0  0  0  0  0  0  0  0  0  0  0  0
    6.7081  -13.2101   25.7321 C   0  0  1  0  0  0  0  0  0  0  0  0
    7.7076  -12.0972   26.0943 C   0  0  0  0  0  0  0  0  0  0  0  0
    7.3219  -14.4804   26.1885 C   0  0  0  0  0  0  0  0  0  0  0  0
    8.3955  -15.0349   25.2869 C   0  0  2  0  0  0  0  0  0  0  0  0
    7.9187  -15.1934   23.9234 N   0  0  0  0  0  0  0  0  0  0  0  0
    8.8862  -16.3443   25.7839 C   0  0  0  0  0  0  0  0  0  0  0  0
    8.0880  -17.3172   25.9844 O   0  0  0  0  0  0  0  0  0  0  0  0
   10.2390  -16.6141   26.0677 N   0  0  0  0  0  0  0  0  0  0  0  0
   10.6688  -17.8954   26.6522 C   0  0  1  0  0  0  0  0  0  0  0  0
   12.0114  -18.2778   26.1510 C   0  0  0  0  0  0  0  0  0  0  0  0
   12.1736  -17.9597   24.6930 C   0  0  0  0  0  0  0  0  0  0  0  0
   13.5162  -18.2368   24.1634 C   0  0  0  0  0  0  0  0  0  0  0  0
   14.4077  -18.6771   24.9229 O   0  0  0  0  0  0  0  0  0  0  0  0
   10.7098  -17.6454   28.1118 C   0  0  0  0  0  0  0  0  0  0  0  0
   10.9989  -18.5806   28.9483 O   0  0  0  0  0  0  0  0  0  0  0  0
   13.8036  -18.0129   22.8234 O   0  0  0  0  0  0  0  0  0  0  0  0
   10.4472  -16.4104   28.6668 O   0  0  0  0  0  0  0  0  0  0  0  0
  2  1  1  0
  2  3  2  0
  4  2  1  0
  5  4  1  0
  6  8  1  0
  6  5  1  0
  6  7  1  1
  8 15  1  0
  9  8  2  0
 11 10  1  1
 12 11  1  0
 14 13  1  1
 13 11  1  0
 14 16  1  0
 15 14  1  0
 16 18  1  0
 17 16  2  0
 18 19  1  0
 19 24  1  0
 19 20  1  6
 21 20  1  0
 22 23  2  0
 22 21  1  0
 24 25  2  0
 24 27  1  0
 26 22  1  0
M  END
$$$$
