QLE.pdb
     RDKit          3D

 27 26  0  0  1  0  0  0  0  0999 V2000
    9.8649  -19.4064   20.0961 N   0  0  0  0  0  0  0  0  0  0  0  0
    9.0341  -18.8476   19.0951 C   0  0  0  0  0  0  0  0  0  0  0  0
    8.7669  -19.4852   18.0517 O   0  0  0  0  0  0  0  0  0  0  0  0
    8.4772  -17.4989   19.2833 C   0  0  0  0  0  0  0  0  0  0  0  0
    8.9037  -16.9315   20.6230 C   0  0  0  0  0  0  0  0  0  0  0  0
    7.9538  -15.7908   20.9316 C   0  0  2  0  0  0  0  0  0  0  0  0
    7.9644  -14.8475   19.8472 N   0  0  0  0  0  0  0  0  0  0  0  0
    8.3668  -15.1591   22.2071 C   0  0  0  0  0  0  0  0  0  0  0  0
    9.6216  -15.0172   22.3787 O   0  0  0  0  0  0  0  0  0  0  0  0
    8.1676  -11.7662   26.2847 C   0  0  0  0  0  0  0  0  0  0  0  0
    7.3252  -12.9836   26.5746 C   0  0  1  0  0  0  0  0  0  0  0  0
    6.0565  -12.4453   27.2598 C   0  0  0  0  0  0  0  0  0  0  0  0
    6.8651  -13.7069   25.3646 C   0  0  0  0  0  0  0  0  0  0  0  0
    7.9577  -14.3391   24.5403 C   0  0  2  0  0  0  0  0  0  0  0  0
    7.4813  -14.7147   23.2199 N   0  0  0  0  0  0  0  0  0  0  0  0
    8.5095  -15.5396   25.2160 C   0  0  0  0  0  0  0  0  0  0  0  0
    7.8249  -16.6085   25.3288 O   0  0  0  0  0  0  0  0  0  0  0  0
    9.8014  -15.5966   25.7738 N   0  0  0  0  0  0  0  0  0  0  0  0
   10.4415  -16.8767   26.1199 C   0  0  1  0  0  0  0  0  0  0  0  0
   11.7462  -17.0160   25.4283 C   0  0  0  0  0  0  0  0  0  0  0  0
   12.5062  -18.2180   25.9087 C   0  0  0  0  0  0  0  0  0  0  0  0
   13.8092  -18.4055   25.2553 C   0  0  0  0  0  0  0  0  0  0  0  0
   14.4908  -17.4094   24.9258 O   0  0  0  0  0  0  0  0  0  0  0  0
   10.6343  -16.8134   27.5874 C   0  0  0  0  0  0  0  0  0  0  0  0
   11.1437  -17.7971   28.2436 O   0  0  0  0  0  0  0  0  0  0  0  0
   14.2906  -19.6828   25.0002 O   0  0  0  0  0  0  0  0  0  0  0  0
   10.2886  -15.7108   28.3404 O   0  0  0  0  0  0  0  0  0  0  0  0
  2  1  1  0
  2  3  2  0
  4  2  1  0
  5  4  1  0
  6  8  1  0
  6  5  1  0
  6  7  1  6
  8 15  1  0
  9  8  2  0
 11 10  1  6
 12 11  1  0
 14 13  1  1
 13 11  1  0
 14 16  1  0
 15 14  1  0
 16 18  1  0
 17 16  2  0
 18 19  1  0
 19 24  1  0
 19 20  1  6
 21 20  1  0
 22 23  2  0
 22 21  1  0
 24 25  2  0
 24 27  1  0
 26 22  1  0
M  END
$$$$
