QLE.pdb
     RDKit          3D

 27 26  0  0  1  0  0  0  0  0999 V2000
    5.9659  -18.1883   21.0482 N   0  0  0  0  0  0  0  0  0  0  0  0
    5.9960  -17.8015   19.6866 C   0  0  0  0  0  0  0  0  0  0  0  0
    5.1648  -18.2585   18.8700 O   0  0  0  0  0  0  0  0  0  0  0  0
    7.0184  -16.8498   19.2246 C   0  0  0  0  0  0  0  0  0  0  0  0
    7.8904  -16.4050   20.3824 C   0  0  0  0  0  0  0  0  0  0  0  0
    7.4140  -15.0203   20.7754 C   0  0  2  0  0  0  0  0  0  0  0  0
    7.7641  -14.0798   19.7464 N   0  0  0  0  0  0  0  0  0  0  0  0
    8.0256  -14.6577   22.0758 C   0  0  0  0  0  0  0  0  0  0  0  0
    9.2485  -14.3012   22.0370 O   0  0  0  0  0  0  0  0  0  0  0  0
    5.8005  -11.8739   26.3980 C   0  0  0  0  0  0  0  0  0  0  0  0
    6.8386  -12.4048   25.4407 C   0  0  1  0  0  0  0  0  0  0  0  0
    8.1321  -11.6438   25.7818 C   0  0  0  0  0  0  0  0  0  0  0  0
    7.1483  -13.8442   25.6164 C   0  0  0  0  0  0  0  0  0  0  0  0
    8.0606  -14.4367   24.5725 C   0  0  2  0  0  0  0  0  0  0  0  0
    7.3570  -14.6807   23.3247 N   0  0  0  0  0  0  0  0  0  0  0  0
    8.6603  -15.7083   25.0473 C   0  0  0  0  0  0  0  0  0  0  0  0
    7.9356  -16.7203   25.3204 O   0  0  0  0  0  0  0  0  0  0  0  0
   10.0437  -15.8981   25.2306 N   0  0  0  0  0  0  0  0  0  0  0  0
   10.6207  -17.2341   25.4552 C   0  0  1  0  0  0  0  0  0  0  0  0
   11.9864  -17.3200   24.8829 C   0  0  0  0  0  0  0  0  0  0  0  0
   12.6896  -18.5773   25.3048 C   0  0  0  0  0  0  0  0  0  0  0  0
   14.0327  -18.7363   24.7296 C   0  0  0  0  0  0  0  0  0  0  0  0
   14.2658  -18.3322   23.5687 O   0  0  0  0  0  0  0  0  0  0  0  0
   10.6638  -17.3796   26.9289 C   0  0  0  0  0  0  0  0  0  0  0  0
   10.5296  -16.3655   27.7108 O   0  0  0  0  0  0  0  0  0  0  0  0
   15.0471  -19.3331   25.4665 O   0  0  0  0  0  0  0  0  0  0  0  0
   10.8454  -18.5947   27.5555 O   0  0  0  0  0  0  0  0  0  0  0  0
  2  1  1  0
  2  3  2  0
  4  2  1  0
  5  4  1  0
  6  8  1  0
  6  5  1  0
  6  7  1  6
  8 15  1  0
  9  8  2  0
 11 10  1  1
 12 11  1  0
 14 13  1  1
 13 11  1  0
 14 16  1  0
 15 14  1  0
 16 18  1  0
 17 16  2  0
 18 19  1  0
 19 24  1  0
 19 20  1  1
 21 20  1  0
 22 23  2  0
 22 21  1  0
 24 25  2  0
 24 27  1  0
 26 22  1  0
M  END
$$$$
