QLE.pdb
     RDKit          3D

 27 26  0  0  1  0  0  0  0  0999 V2000
    9.2820  -12.8411   17.8647 N   0  0  0  0  0  0  0  0  0  0  0  0
    7.9863  -13.3641   17.6367 C   0  0  0  0  0  0  0  0  0  0  0  0
    7.5869  -13.6088   16.4760 O   0  0  0  0  0  0  0  0  0  0  0  0
    7.0966  -13.6233   18.7794 C   0  0  0  0  0  0  0  0  0  0  0  0
    7.8316  -13.3962   20.0858 C   0  0  0  0  0  0  0  0  0  0  0  0
    7.8824  -14.7369   20.7920 C   0  0  2  0  0  0  0  0  0  0  0  0
    6.5759  -15.3361   20.7837 N   0  0  0  0  0  0  0  0  0  0  0  0
    8.3775  -14.5289   22.1733 C   0  0  0  0  0  0  0  0  0  0  0  0
    9.5718  -14.0968   22.2787 O   0  0  0  0  0  0  0  0  0  0  0  0
    5.4858  -12.6079   26.6030 C   0  0  0  0  0  0  0  0  0  0  0  0
    6.6037  -12.8824   25.6280 C   0  0  1  0  0  0  0  0  0  0  0  0
    7.7513  -11.9491   26.0533 C   0  0  0  0  0  0  0  0  0  0  0  0
    7.1460  -14.2607   25.6968 C   0  0  0  0  0  0  0  0  0  0  0  0
    8.2042  -14.5862   24.6734 C   0  0  2  0  0  0  0  0  0  0  0  0
    7.6296  -14.7725   23.3517 N   0  0  0  0  0  0  0  0  0  0  0  0
    8.9551  -15.8089   25.0521 C   0  0  0  0  0  0  0  0  0  0  0  0
    8.4009  -16.9563   25.0386 O   0  0  0  0  0  0  0  0  0  0  0  0
   10.3068  -15.8035   25.4472 N   0  0  0  0  0  0  0  0  0  0  0  0
   11.1154  -17.0340   25.4636 C   0  0  1  0  0  0  0  0  0  0  0  0
   12.5005  -16.7589   25.0099 C   0  0  0  0  0  0  0  0  0  0  0  0
   13.3936  -17.9518   25.1906 C   0  0  0  0  0  0  0  0  0  0  0  0
   14.7785  -17.7380   24.7478 C   0  0  0  0  0  0  0  0  0  0  0  0
   15.0924  -16.6712   24.1745 O   0  0  0  0  0  0  0  0  0  0  0  0
   11.1080  -17.4672   26.8802 C   0  0  0  0  0  0  0  0  0  0  0  0
   10.7181  -16.6822   27.8234 O   0  0  0  0  0  0  0  0  0  0  0  0
   15.7436  -18.7134   24.9613 O   0  0  0  0  0  0  0  0  0  0  0  0
   11.5101  -18.7245   27.2801 O   0  0  0  0  0  0  0  0  0  0  0  0
  2  1  1  0
  2  3  2  0
  4  2  1  0
  5  4  1  0
  6  8  1  0
  6  5  1  0
  6  7  1  1
  8 15  1  0
  9  8  2  0
 11 10  1  1
 12 11  1  0
 14 13  1  1
 13 11  1  0
 14 16  1  0
 15 14  1  0
 16 18  1  0
 17 16  2  0
 18 19  1  0
 19 24  1  0
 19 20  1  1
 21 20  1  0
 22 23  2  0
 22 21  1  0
 24 25  2  0
 24 27  1  0
 26 22  1  0
M  END
$$$$
