QLE.pdb
     RDKit          3D

 27 26  0  0  1  0  0  0  0  0999 V2000
    7.1713  -17.3973   18.7580 N   0  0  0  0  0  0  0  0  0  0  0  0
    8.0026  -16.2733   18.5347 C   0  0  0  0  0  0  0  0  0  0  0  0
    7.6124  -15.3150   17.8304 O   0  0  0  0  0  0  0  0  0  0  0  0
    9.3437  -16.2307   19.1381 C   0  0  0  0  0  0  0  0  0  0  0  0
    9.3313  -15.3889   20.3989 C   0  0  0  0  0  0  0  0  0  0  0  0
    8.8716  -16.2983   21.5215 C   0  0  2  0  0  0  0  0  0  0  0  0
    7.4794  -16.6114   21.3492 N   0  0  0  0  0  0  0  0  0  0  0  0
    9.1213  -15.6207   22.8157 C   0  0  0  0  0  0  0  0  0  0  0  0
   10.3317  -15.3001   23.0532 O   0  0  0  0  0  0  0  0  0  0  0  0
    5.8311  -12.1934   25.8222 C   0  0  0  0  0  0  0  0  0  0  0  0
    7.0523  -12.8585   25.2372 C   0  0  1  0  0  0  0  0  0  0  0  0
    8.2331  -11.9498   25.6227 C   0  0  0  0  0  0  0  0  0  0  0  0
    7.3530  -14.1917   25.8123 C   0  0  0  0  0  0  0  0  0  0  0  0
    8.4748  -14.9424   25.1407 C   0  0  2  0  0  0  0  0  0  0  0  0
    8.1288  -15.3144   23.7793 N   0  0  0  0  0  0  0  0  0  0  0  0
    8.8294  -16.1658   25.9021 C   0  0  0  0  0  0  0  0  0  0  0  0
    7.9730  -17.0857   26.1123 O   0  0  0  0  0  0  0  0  0  0  0  0
   10.1080  -16.4062   26.4414 N   0  0  0  0  0  0  0  0  0  0  0  0
   10.4376  -17.6685   27.1241 C   0  0  1  0  0  0  0  0  0  0  0  0
   11.7858  -18.1438   26.7285 C   0  0  0  0  0  0  0  0  0  0  0  0
   11.9667  -18.1301   25.2384 C   0  0  0  0  0  0  0  0  0  0  0  0
   13.3036  -18.5459   24.7917 C   0  0  0  0  0  0  0  0  0  0  0  0
   13.6520  -19.7430   24.8967 O   0  0  0  0  0  0  0  0  0  0  0  0
   10.4065  -17.3324   28.5666 C   0  0  0  0  0  0  0  0  0  0  0  0
   10.3301  -16.1132   28.9733 O   0  0  0  0  0  0  0  0  0  0  0  0
   14.1852  -17.6180   24.2531 O   0  0  0  0  0  0  0  0  0  0  0  0
   10.4541  -18.2892   29.5587 O   0  0  0  0  0  0  0  0  0  0  0  0
  2  1  1  0
  2  3  2  0
  4  2  1  0
  5  4  1  0
  6  8  1  0
  6  5  1  0
  6  7  1  6
  8 15  1  0
  9  8  2  0
 11 10  1  1
 12 11  1  0
 14 13  1  1
 13 11  1  0
 14 16  1  0
 15 14  1  0
 16 18  1  0
 17 16  2  0
 18 19  1  0
 19 24  1  0
 19 20  1  6
 21 20  1  0
 22 23  2  0
 22 21  1  0
 24 25  2  0
 24 27  1  0
 26 22  1  0
M  END
$$$$
