QLE.pdb
     RDKit          3D

 27 26  0  0  1  0  0  0  0  0999 V2000
    5.6913  -18.0546   20.9083 N   0  0  0  0  0  0  0  0  0  0  0  0
    6.3389  -17.8509   19.6659 C   0  0  0  0  0  0  0  0  0  0  0  0
    5.7702  -18.1412   18.5894 O   0  0  0  0  0  0  0  0  0  0  0  0
    7.6991  -17.2908   19.6393 C   0  0  0  0  0  0  0  0  0  0  0  0
    8.1774  -16.9932   21.0469 C   0  0  0  0  0  0  0  0  0  0  0  0
    7.8809  -15.5287   21.3036 C   0  0  2  0  0  0  0  0  0  0  0  0
    8.4690  -14.7282   20.2647 N   0  0  0  0  0  0  0  0  0  0  0  0
    8.4103  -15.1627   22.6387 C   0  0  0  0  0  0  0  0  0  0  0  0
    9.6783  -15.0741   22.7310 O   0  0  0  0  0  0  0  0  0  0  0  0
    5.6663  -12.1568   26.5845 C   0  0  0  0  0  0  0  0  0  0  0  0
    6.7552  -12.6904   25.6869 C   0  0  1  0  0  0  0  0  0  0  0  0
    7.9549  -11.7505   25.9014 C   0  0  0  0  0  0  0  0  0  0  0  0
    7.2269  -14.0497   26.0452 C   0  0  0  0  0  0  0  0  0  0  0  0
    8.2188  -14.6584   25.0867 C   0  0  2  0  0  0  0  0  0  0  0  0
    7.6196  -14.9118   23.7873 N   0  0  0  0  0  0  0  0  0  0  0  0
    8.7687  -15.9284   25.6226 C   0  0  0  0  0  0  0  0  0  0  0  0
    8.0119  -16.9210   25.8791 O   0  0  0  0  0  0  0  0  0  0  0  0
   10.1365  -16.1372   25.8851 N   0  0  0  0  0  0  0  0  0  0  0  0
   10.6570  -17.4542   26.2885 C   0  0  1  0  0  0  0  0  0  0  0  0
   12.0681  -17.6153   25.8609 C   0  0  0  0  0  0  0  0  0  0  0  0
   12.2080  -17.5583   24.3674 C   0  0  0  0  0  0  0  0  0  0  0  0
   13.5807  -17.3163   23.9014 C   0  0  0  0  0  0  0  0  0  0  0  0
   13.8211  -17.2541   22.6751 O   0  0  0  0  0  0  0  0  0  0  0  0
   10.5572  -17.4588   27.7665 C   0  0  0  0  0  0  0  0  0  0  0  0
   10.1386  -16.4296   28.4173 O   0  0  0  0  0  0  0  0  0  0  0  0
   14.6151  -17.1561   24.8138 O   0  0  0  0  0  0  0  0  0  0  0  0
   10.8985  -18.5514   28.5359 O   0  0  0  0  0  0  0  0  0  0  0  0
  2  1  1  0
  2  3  2  0
  4  2  1  0
  5  4  1  0
  6  8  1  0
  6  5  1  0
  6  7  1  6
  8 15  1  0
  9  8  2  0
 11 10  1  1
 12 11  1  0
 14 13  1  1
 13 11  1  0
 14 16  1  0
 15 14  1  0
 16 18  1  0
 17 16  2  0
 18 19  1  0
 19 24  1  0
 19 20  1  1
 21 20  1  0
 22 23  2  0
 22 21  1  0
 24 25  2  0
 24 27  1  0
 26 22  1  0
M  END
$$$$
