QLE.pdb
     RDKit          3D

 27 26  0  0  1  0  0  0  0  0999 V2000
    8.6134  -12.1860   17.9489 N   0  0  0  0  0  0  0  0  0  0  0  0
    8.0617  -13.4897   17.9300 C   0  0  0  0  0  0  0  0  0  0  0  0
    8.0541  -14.1694   16.8790 O   0  0  0  0  0  0  0  0  0  0  0  0
    7.4889  -14.0536   19.1622 C   0  0  0  0  0  0  0  0  0  0  0  0
    8.5264  -14.0751   20.2676 C   0  0  0  0  0  0  0  0  0  0  0  0
    8.2512  -15.3156   21.0947 C   0  0  2  0  0  0  0  0  0  0  0  0
    6.8585  -15.6583   21.0015 N   0  0  0  0  0  0  0  0  0  0  0  0
    8.6548  -15.0526   22.4963 C   0  0  0  0  0  0  0  0  0  0  0  0
    9.8929  -14.8167   22.6854 O   0  0  0  0  0  0  0  0  0  0  0  0
    5.8522  -12.1544   26.3305 C   0  0  0  0  0  0  0  0  0  0  0  0
    6.9686  -12.7689   25.5231 C   0  0  1  0  0  0  0  0  0  0  0  0
    8.2361  -11.9963   25.9297 C   0  0  0  0  0  0  0  0  0  0  0  0
    7.2346  -14.1931   25.8387 C   0  0  0  0  0  0  0  0  0  0  0  0
    8.2651  -14.8625   24.9652 C   0  0  2  0  0  0  0  0  0  0  0  0
    7.7774  -15.0462   23.6087 N   0  0  0  0  0  0  0  0  0  0  0  0
    8.6606  -16.1806   25.5206 C   0  0  0  0  0  0  0  0  0  0  0  0
    7.8521  -17.1657   25.5264 O   0  0  0  0  0  0  0  0  0  0  0  0
    9.9287  -16.4461   26.0726 N   0  0  0  0  0  0  0  0  0  0  0  0
   10.3405  -17.8081   26.4515 C   0  0  1  0  0  0  0  0  0  0  0  0
   11.6240  -18.1692   25.8017 C   0  0  0  0  0  0  0  0  0  0  0  0
   12.1723  -19.4625   26.3309 C   0  0  0  0  0  0  0  0  0  0  0  0
   13.3903  -19.9224   25.6491 C   0  0  0  0  0  0  0  0  0  0  0  0
   13.9767  -20.9533   26.0476 O   0  0  0  0  0  0  0  0  0  0  0  0
   10.4992  -17.7547   27.9235 C   0  0  0  0  0  0  0  0  0  0  0  0
   10.5454  -16.6345   28.5565 O   0  0  0  0  0  0  0  0  0  0  0  0
   13.8964  -19.2197   24.5636 O   0  0  0  0  0  0  0  0  0  0  0  0
   10.6042  -18.8856   28.7060 O   0  0  0  0  0  0  0  0  0  0  0  0
  2  1  1  0
  2  3  2  0
  4  2  1  0
  5  4  1  0
  6  8  1  0
  6  5  1  0
  6  7  1  1
  8 15  1  0
  9  8  2  0
 11 10  1  1
 12 11  1  0
 14 13  1  1
 13 11  1  0
 14 16  1  0
 15 14  1  0
 16 18  1  0
 17 16  2  0
 18 19  1  0
 19 24  1  0
 19 20  1  6
 21 20  1  0
 22 23  2  0
 22 21  1  0
 24 25  2  0
 24 27  1  0
 26 22  1  0
M  END
$$$$
