QLE.pdb
     RDKit          3D

 27 26  0  0  1  0  0  0  0  0999 V2000
    8.1907  -11.8651   18.4806 N   0  0  0  0  0  0  0  0  0  0  0  0
    7.9380  -13.1340   17.9057 C   0  0  0  0  0  0  0  0  0  0  0  0
    7.8292  -13.2679   16.6660 O   0  0  0  0  0  0  0  0  0  0  0  0
    7.8009  -14.3115   18.7770 C   0  0  0  0  0  0  0  0  0  0  0  0
    8.0199  -13.9265   20.2269 C   0  0  0  0  0  0  0  0  0  0  0  0
    8.2397  -15.2187   20.9889 C   0  0  2  0  0  0  0  0  0  0  0  0
    7.0408  -16.0107   20.9511 N   0  0  0  0  0  0  0  0  0  0  0  0
    8.6319  -14.8903   22.3799 C   0  0  0  0  0  0  0  0  0  0  0  0
    9.7988  -14.4004   22.5296 O   0  0  0  0  0  0  0  0  0  0  0  0
    5.3531  -12.7460   26.2687 C   0  0  0  0  0  0  0  0  0  0  0  0
    6.5686  -13.0829   25.4410 C   0  0  1  0  0  0  0  0  0  0  0  0
    7.6057  -11.9985   25.7832 C   0  0  0  0  0  0  0  0  0  0  0  0
    7.1988  -14.3800   25.7860 C   0  0  0  0  0  0  0  0  0  0  0  0
    8.3081  -14.8200   24.8647 C   0  0  2  0  0  0  0  0  0  0  0  0
    7.8159  -15.0804   23.5225 N   0  0  0  0  0  0  0  0  0  0  0  0
    8.9781  -16.0396   25.3802 C   0  0  0  0  0  0  0  0  0  0  0  0
    8.3758  -17.1622   25.4118 O   0  0  0  0  0  0  0  0  0  0  0  0
   10.3004  -16.0580   25.8645 N   0  0  0  0  0  0  0  0  0  0  0  0
   10.9129  -17.2842   26.4026 C   0  0  1  0  0  0  0  0  0  0  0  0
   12.3250  -17.4024   25.9645 C   0  0  0  0  0  0  0  0  0  0  0  0
   12.4380  -17.5173   24.4721 C   0  0  0  0  0  0  0  0  0  0  0  0
   13.8171  -17.6520   23.9826 C   0  0  0  0  0  0  0  0  0  0  0  0
   14.3388  -18.7855   23.8918 O   0  0  0  0  0  0  0  0  0  0  0  0
   10.8356  -17.1261   27.8735 C   0  0  0  0  0  0  0  0  0  0  0  0
   10.4691  -16.0165   28.4142 O   0  0  0  0  0  0  0  0  0  0  0  0
   14.5473  -16.5280   23.6195 O   0  0  0  0  0  0  0  0  0  0  0  0
   11.1441  -18.1433   28.7524 O   0  0  0  0  0  0  0  0  0  0  0  0
  2  1  1  0
  2  3  2  0
  4  2  1  0
  5  4  1  0
  6  8  1  0
  6  5  1  0
  6  7  1  1
  8 15  1  0
  9  8  2  0
 11 10  1  1
 12 11  1  0
 14 13  1  1
 13 11  1  0
 14 16  1  0
 15 14  1  0
 16 18  1  0
 17 16  2  0
 18 19  1  0
 19 24  1  0
 19 20  1  6
 21 20  1  0
 22 23  2  0
 22 21  1  0
 24 25  2  0
 24 27  1  0
 26 22  1  0
M  END
$$$$
