DVI.pdb
     RDKit          3D

 24 23  0  0  1  0  0  0  0  0999 V2000
   12.7406  -16.8418   19.9184 N   0  0  0  0  0  0  0  0  0  0  0  0
   11.8796  -17.5225   20.9218 C   0  0  1  0  0  0  0  0  0  0  0  0
   12.7238  -18.3158   21.8547 C   0  0  0  0  0  0  0  0  0  0  0  0
   13.4864  -19.4254   21.3144 C   0  0  0  0  0  0  0  0  0  0  0  0
   13.1024  -20.1304   20.3638 O   0  0  0  0  0  0  0  0  0  0  0  0
   11.0031  -16.5131   21.5464 C   0  0  0  0  0  0  0  0  0  0  0  0
   11.4553  -15.5066   22.0785 O   0  0  0  0  0  0  0  0  0  0  0  0
   14.7184  -19.7364   21.8751 O   0  0  0  0  0  0  0  0  0  0  0  0
    7.6021  -14.9532   20.0045 C   0  0  0  0  0  0  0  0  0  0  0  0
    7.4418  -15.3313   21.4385 C   0  0  2  0  0  0  0  0  0  0  0  0
    6.6154  -14.3426   22.2222 C   0  0  0  0  0  0  0  0  0  0  0  0
    8.6809  -15.6876   22.1704 C   0  0  2  0  0  0  0  0  0  0  0  0
    9.5578  -16.6330   21.5779 N   0  0  0  0  0  0  0  0  0  0  0  0
    8.5500  -15.7338   23.6467 C   0  0  0  0  0  0  0  0  0  0  0  0
    8.7546  -16.8278   24.2875 O   0  0  0  0  0  0  0  0  0  0  0  0
    5.9446  -11.7191   26.7953 C   0  0  0  0  0  0  0  0  0  0  0  0
    6.3134  -12.9446   25.9603 C   0  0  0  0  0  0  0  0  0  0  0  0
    7.5461  -13.5446   26.5989 C   0  0  2  0  0  0  0  0  0  0  0  0
    8.6274  -12.4912   26.4997 C   0  0  0  0  0  0  0  0  0  0  0  0
    8.0229  -14.7748   25.9162 C   0  0  2  0  0  0  0  0  0  0  0  0
    8.2014  -14.6423   24.4809 N   0  0  0  0  0  0  0  0  0  0  0  0
    7.1139  -15.8998   26.2423 C   0  0  0  0  0  0  0  0  0  0  0  0
    6.2288  -16.2248   25.4249 O   0  0  0  0  0  0  0  0  0  0  0  0
    7.1993  -16.6205   27.4288 O   0  0  0  0  0  0  0  0  0  0  0  0
  2  3  1  0
  2  1  1  6
  3  4  1  0
  4  5  2  0
  4  8  1  0
  6  7  2  0
  6  2  1  0
 10  9  1  6
 10 12  1  0
 11 10  1  0
 12 14  1  0
 12 13  1  6
 13  6  1  0
 14 21  1  0
 15 14  2  0
 16 17  1  0
 18 20  1  0
 18 17  1  0
 18 19  1  6
 20 22  1  0
 20 21  1  6
 22 23  2  0
 22 24  1  0
M  END
$$$$
