DVI.pdb
     RDKit          3D

 24 23  0  0  1  0  0  0  0  0999 V2000
    9.0758  -17.4523   19.1559 N   0  0  0  0  0  0  0  0  0  0  0  0
    9.7765  -17.7946   20.4222 C   0  0  1  0  0  0  0  0  0  0  0  0
   11.1670  -17.2677   20.3868 C   0  0  0  0  0  0  0  0  0  0  0  0
   12.0691  -17.7809   19.3731 C   0  0  0  0  0  0  0  0  0  0  0  0
   12.5934  -17.0749   18.4928 O   0  0  0  0  0  0  0  0  0  0  0  0
    8.9446  -17.3411   21.5534 C   0  0  0  0  0  0  0  0  0  0  0  0
    8.4754  -16.2103   21.5966 O   0  0  0  0  0  0  0  0  0  0  0  0
   12.3793  -19.1346   19.3660 O   0  0  0  0  0  0  0  0  0  0  0  0
    6.7202  -18.6795   25.8854 C   0  0  0  0  0  0  0  0  0  0  0  0
    6.9473  -18.8123   24.4172 C   0  0  2  0  0  0  0  0  0  0  0  0
    7.3566  -20.2043   24.0053 C   0  0  0  0  0  0  0  0  0  0  0  0
    7.8214  -17.7928   23.7890 C   0  0  2  0  0  0  0  0  0  0  0  0
    8.6222  -18.1880   22.6860 N   0  0  0  0  0  0  0  0  0  0  0  0
    8.4157  -16.8085   24.7253 C   0  0  0  0  0  0  0  0  0  0  0  0
    9.6653  -16.8561   25.0179 O   0  0  0  0  0  0  0  0  0  0  0  0
    5.5721  -12.2793   26.4819 C   0  0  0  0  0  0  0  0  0  0  0  0
    6.7071  -13.0009   25.7566 C   0  0  0  0  0  0  0  0  0  0  0  0
    7.4777  -13.7608   26.8130 C   0  0  2  0  0  0  0  0  0  0  0  0
    8.3266  -12.7368   27.5338 C   0  0  0  0  0  0  0  0  0  0  0  0
    8.3736  -14.8041   26.2514 C   0  0  2  0  0  0  0  0  0  0  0  0
    7.7186  -15.7594   25.3751 N   0  0  0  0  0  0  0  0  0  0  0  0
    9.0819  -15.4898   27.3588 C   0  0  0  0  0  0  0  0  0  0  0  0
    8.6290  -16.5666   27.7977 O   0  0  0  0  0  0  0  0  0  0  0  0
   10.2407  -14.9867   27.9406 O   0  0  0  0  0  0  0  0  0  0  0  0
  2  3  1  0
  2  1  1  6
  3  4  1  0
  4  5  2  0
  4  8  1  0
  6  7  2  0
  6  2  1  0
 10  9  1  1
 10 12  1  0
 11 10  1  0
 12 14  1  0
 12 13  1  1
 13  6  1  0
 14 21  1  0
 15 14  2  0
 16 17  1  0
 18 20  1  0
 18 17  1  0
 18 19  1  6
 20 22  1  0
 20 21  1  1
 22 23  2  0
 22 24  1  0
M  END
$$$$
