DVI.pdb
     RDKit          3D

 24 23  0  0  1  0  0  0  0  0999 V2000
   11.9433  -16.6986   19.2183 N   0  0  0  0  0  0  0  0  0  0  0  0
   11.5658  -17.2857   20.5316 C   0  0  1  0  0  0  0  0  0  0  0  0
   12.7800  -17.7950   21.2234 C   0  0  0  0  0  0  0  0  0  0  0  0
   13.4194  -18.9867   20.6982 C   0  0  0  0  0  0  0  0  0  0  0  0
   14.3235  -19.6039   21.2896 O   0  0  0  0  0  0  0  0  0  0  0  0
   10.7698  -16.2910   21.2761 C   0  0  0  0  0  0  0  0  0  0  0  0
   11.2352  -15.2059   21.6024 O   0  0  0  0  0  0  0  0  0  0  0  0
   13.0149  -19.4847   19.4664 O   0  0  0  0  0  0  0  0  0  0  0  0
    6.2238  -16.3265   21.8266 C   0  0  0  0  0  0  0  0  0  0  0  0
    7.2546  -15.2500   21.7671 C   0  0  2  0  0  0  0  0  0  0  0  0
    7.3986  -14.6440   20.3935 C   0  0  0  0  0  0  0  0  0  0  0  0
    8.5800  -15.5714   22.3485 C   0  0  2  0  0  0  0  0  0  0  0  0
    9.3934  -16.5182   21.6734 N   0  0  0  0  0  0  0  0  0  0  0  0
    8.6320  -15.5844   23.8304 C   0  0  0  0  0  0  0  0  0  0  0  0
    9.0281  -16.6303   24.4617 O   0  0  0  0  0  0  0  0  0  0  0  0
    5.7798  -11.8791   27.0784 C   0  0  0  0  0  0  0  0  0  0  0  0
    6.2282  -13.1189   26.3058 C   0  0  0  0  0  0  0  0  0  0  0  0
    7.6024  -13.4761   26.8267 C   0  0  2  0  0  0  0  0  0  0  0  0
    8.4714  -12.2602   26.5920 C   0  0  0  0  0  0  0  0  0  0  0  0
    8.2142  -14.6346   26.1264 C   0  0  2  0  0  0  0  0  0  0  0  0
    8.2700  -14.5096   24.6804 N   0  0  0  0  0  0  0  0  0  0  0  0
    7.5142  -15.8773   26.5309 C   0  0  0  0  0  0  0  0  0  0  0  0
    7.6634  -16.3107   27.6916 O   0  0  0  0  0  0  0  0  0  0  0  0
    6.6888  -16.5937   25.6706 O   0  0  0  0  0  0  0  0  0  0  0  0
  2  3  1  0
  2  1  1  6
  3  4  1  0
  4  5  2  0
  4  8  1  0
  6  7  2  0
  6  2  1  0
 10  9  1  6
 10 12  1  0
 11 10  1  0
 12 14  1  0
 12 13  1  6
 13  6  1  0
 14 21  1  0
 15 14  2  0
 16 17  1  0
 18 20  1  0
 18 17  1  0
 18 19  1  6
 20 22  1  0
 20 21  1  6
 22 23  2  0
 22 24  1  0
M  END
$$$$
