DVI.pdb
     RDKit          3D

 24 23  0  0  1  0  0  0  0  0999 V2000
   12.5237  -17.0085   19.1505 N   0  0  0  0  0  0  0  0  0  0  0  0
   11.7946  -17.6719   20.2640 C   0  0  1  0  0  0  0  0  0  0  0  0
   12.7668  -18.2126   21.2513 C   0  0  0  0  0  0  0  0  0  0  0  0
   13.7209  -19.2080   20.7997 C   0  0  0  0  0  0  0  0  0  0  0  0
   13.4114  -20.2053   20.1232 O   0  0  0  0  0  0  0  0  0  0  0  0
   10.7948  -16.7261   20.7962 C   0  0  0  0  0  0  0  0  0  0  0  0
   11.0571  -15.5430   20.9752 O   0  0  0  0  0  0  0  0  0  0  0  0
   15.0616  -19.0591   21.1301 O   0  0  0  0  0  0  0  0  0  0  0  0
    6.8004  -16.4304   19.8075 C   0  0  0  0  0  0  0  0  0  0  0  0
    7.0566  -16.4250   21.2769 C   0  0  2  0  0  0  0  0  0  0  0  0
    6.1456  -15.4906   22.0329 C   0  0  0  0  0  0  0  0  0  0  0  0
    8.4667  -16.2524   21.7011 C   0  0  2  0  0  0  0  0  0  0  0  0
    9.4424  -17.1191   21.1437 N   0  0  0  0  0  0  0  0  0  0  0  0
    8.6552  -15.8606   23.1188 C   0  0  0  0  0  0  0  0  0  0  0  0
    9.3537  -16.5905   23.9116 O   0  0  0  0  0  0  0  0  0  0  0  0
    7.3311  -11.4451   27.3148 C   0  0  0  0  0  0  0  0  0  0  0  0
    7.9560  -12.8139   27.0486 C   0  0  0  0  0  0  0  0  0  0  0  0
    7.6550  -13.1503   25.6050 C   0  0  2  0  0  0  0  0  0  0  0  0
    6.1560  -13.3356   25.5190 C   0  0  0  0  0  0  0  0  0  0  0  0
    8.3115  -14.4002   25.1429 C   0  0  2  0  0  0  0  0  0  0  0  0
    8.1174  -14.7035   23.7359 N   0  0  0  0  0  0  0  0  0  0  0  0
    7.8754  -15.5285   26.0002 C   0  0  0  0  0  0  0  0  0  0  0  0
    6.8587  -16.1784   25.6819 O   0  0  0  0  0  0  0  0  0  0  0  0
    8.5513  -15.9040   27.1563 O   0  0  0  0  0  0  0  0  0  0  0  0
  2  3  1  0
  2  1  1  6
  3  4  1  0
  4  5  2  0
  4  8  1  0
  6  7  2  0
  6  2  1  0
 10  9  1  6
 10 12  1  0
 11 10  1  0
 12 14  1  0
 12 13  1  1
 13  6  1  0
 14 21  1  0
 15 14  2  0
 16 17  1  0
 18 20  1  0
 18 17  1  0
 18 19  1  1
 20 22  1  0
 20 21  1  6
 22 23  2  0
 22 24  1  0
M  END
$$$$
