DVI.pdb
     RDKit          3D

 24 23  0  0  1  0  0  0  0  0999 V2000
   12.5649  -17.1493   19.5344 N   0  0  0  0  0  0  0  0  0  0  0  0
   11.2120  -17.6000   19.9567 C   0  0  1  0  0  0  0  0  0  0  0  0
   11.2831  -18.9937   20.4712 C   0  0  0  0  0  0  0  0  0  0  0  0
   11.5011  -20.0661   19.5186 C   0  0  0  0  0  0  0  0  0  0  0  0
   10.7435  -20.3047   18.5609 O   0  0  0  0  0  0  0  0  0  0  0  0
   10.6551  -16.5981   20.8859 C   0  0  0  0  0  0  0  0  0  0  0  0
   11.3753  -15.8977   21.5868 O   0  0  0  0  0  0  0  0  0  0  0  0
   12.6128  -20.8856   19.6649 O   0  0  0  0  0  0  0  0  0  0  0  0
    7.4680  -14.0663   20.1788 C   0  0  0  0  0  0  0  0  0  0  0  0
    7.4265  -14.7232   21.5173 C   0  0  2  0  0  0  0  0  0  0  0  0
    6.9265  -13.8106   22.6090 C   0  0  0  0  0  0  0  0  0  0  0  0
    8.6547  -15.4371   21.9414 C   0  0  2  0  0  0  0  0  0  0  0  0
    9.2310  -16.3682   21.0387 N   0  0  0  0  0  0  0  0  0  0  0  0
    8.7197  -15.7785   23.3829 C   0  0  0  0  0  0  0  0  0  0  0  0
    8.4666  -16.9718   23.7844 O   0  0  0  0  0  0  0  0  0  0  0  0
    9.7191  -13.4312   29.0724 C   0  0  0  0  0  0  0  0  0  0  0  0
    9.6185  -14.6817   28.2000 C   0  0  0  0  0  0  0  0  0  0  0  0
    9.3703  -14.2015   26.7875 C   0  0  2  0  0  0  0  0  0  0  0  0
    8.0905  -13.3961   26.8349 C   0  0  0  0  0  0  0  0  0  0  0  0
    9.1947  -15.3081   25.8121 C   0  0  2  0  0  0  0  0  0  0  0  0
    9.0467  -14.8826   24.4314 N   0  0  0  0  0  0  0  0  0  0  0  0
    8.0571  -16.1591   26.2362 C   0  0  0  0  0  0  0  0  0  0  0  0
    6.9307  -15.9651   25.7352 O   0  0  0  0  0  0  0  0  0  0  0  0
    8.1838  -17.1761   27.1765 O   0  0  0  0  0  0  0  0  0  0  0  0
  2  3  1  0
  2  1  1  1
  3  4  1  0
  4  5  2  0
  4  8  1  0
  6  7  2  0
  6  2  1  0
 10  9  1  6
 10 12  1  0
 11 10  1  0
 12 14  1  0
 12 13  1  6
 13  6  1  0
 14 21  1  0
 15 14  2  0
 16 17  1  0
 18 20  1  0
 18 17  1  0
 18 19  1  1
 20 22  1  0
 20 21  1  6
 22 23  2  0
 22 24  1  0
M  END
$$$$
