DVI.pdb
     RDKit          3D

 24 23  0  0  1  0  0  0  0  0999 V2000
   13.1220  -16.8609   20.4027 N   0  0  0  0  0  0  0  0  0  0  0  0
   11.9102  -17.4934   20.9884 C   0  0  1  0  0  0  0  0  0  0  0  0
   12.3108  -18.5337   21.9730 C   0  0  0  0  0  0  0  0  0  0  0  0
   13.1290  -19.6383   21.5090 C   0  0  0  0  0  0  0  0  0  0  0  0
   13.6249  -19.7003   20.3696 O   0  0  0  0  0  0  0  0  0  0  0  0
   11.0284  -16.4271   21.5008 C   0  0  0  0  0  0  0  0  0  0  0  0
   11.4735  -15.4487   22.0884 O   0  0  0  0  0  0  0  0  0  0  0  0
   13.3863  -20.6978   22.3693 O   0  0  0  0  0  0  0  0  0  0  0  0
    7.4543  -14.9032   19.8812 C   0  0  0  0  0  0  0  0  0  0  0  0
    7.3940  -15.2772   21.3239 C   0  0  2  0  0  0  0  0  0  0  0  0
    6.5585  -14.3286   22.1466 C   0  0  0  0  0  0  0  0  0  0  0  0
    8.6892  -15.5586   21.9881 C   0  0  2  0  0  0  0  0  0  0  0  0
    9.5859  -16.4546   21.3501 N   0  0  0  0  0  0  0  0  0  0  0  0
    8.6410  -15.6062   23.4694 C   0  0  0  0  0  0  0  0  0  0  0  0
    8.7124  -16.7280   24.0905 O   0  0  0  0  0  0  0  0  0  0  0  0
    6.2071  -11.5531   26.2420 C   0  0  0  0  0  0  0  0  0  0  0  0
    7.3653  -12.3324   25.6206 C   0  0  0  0  0  0  0  0  0  0  0  0
    7.4881  -13.6189   26.4062 C   0  0  2  0  0  0  0  0  0  0  0  0
    8.0641  -13.2376   27.7521 C   0  0  0  0  0  0  0  0  0  0  0  0
    8.3920  -14.6121   25.7712 C   0  0  2  0  0  0  0  0  0  0  0  0
    8.5148  -14.4866   24.3294 N   0  0  0  0  0  0  0  0  0  0  0  0
    7.9662  -15.9790   26.1565 C   0  0  0  0  0  0  0  0  0  0  0  0
    6.9889  -16.4983   25.5798 O   0  0  0  0  0  0  0  0  0  0  0  0
    8.6095  -16.7212   27.1412 O   0  0  0  0  0  0  0  0  0  0  0  0
  2  3  1  0
  2  1  1  1
  3  4  1  0
  4  5  2  0
  4  8  1  0
  6  7  2  0
  6  2  1  0
 10  9  1  6
 10 12  1  0
 11 10  1  0
 12 14  1  0
 12 13  1  6
 13  6  1  0
 14 21  1  0
 15 14  2  0
 16 17  1  0
 18 20  1  0
 18 17  1  0
 18 19  1  1
 20 22  1  0
 20 21  1  6
 22 23  2  0
 22 24  1  0
M  END
$$$$
