DVI.pdb
     RDKit          3D

 24 23  0  0  1  0  0  0  0  0999 V2000
   12.2076  -16.8705   19.2679 N   0  0  0  0  0  0  0  0  0  0  0  0
   11.4903  -17.6676   20.2983 C   0  0  1  0  0  0  0  0  0  0  0  0
   12.3918  -18.7199   20.8389 C   0  0  0  0  0  0  0  0  0  0  0  0
   12.8284  -19.7749   19.9437 C   0  0  0  0  0  0  0  0  0  0  0  0
   12.5916  -19.7873   18.7223 O   0  0  0  0  0  0  0  0  0  0  0  0
   10.9165  -16.7389   21.2911 C   0  0  0  0  0  0  0  0  0  0  0  0
   11.6143  -15.9459   21.9115 O   0  0  0  0  0  0  0  0  0  0  0  0
   13.5534  -20.8419   20.4582 O   0  0  0  0  0  0  0  0  0  0  0  0
    7.3338  -14.6620   20.9645 C   0  0  0  0  0  0  0  0  0  0  0  0
    7.5479  -15.3124   22.2896 C   0  0  2  0  0  0  0  0  0  0  0  0
    7.0419  -14.4841   23.4440 C   0  0  0  0  0  0  0  0  0  0  0  0
    8.9120  -15.8260   22.5608 C   0  0  2  0  0  0  0  0  0  0  0  0
    9.5010  -16.6937   21.6046 N   0  0  0  0  0  0  0  0  0  0  0  0
    9.2086  -16.1057   23.9864 C   0  0  0  0  0  0  0  0  0  0  0  0
    9.2574  -17.3137   24.4196 O   0  0  0  0  0  0  0  0  0  0  0  0
    9.8894  -13.5295   29.6018 C   0  0  0  0  0  0  0  0  0  0  0  0
   10.1572  -14.7484   28.7200 C   0  0  0  0  0  0  0  0  0  0  0  0
    9.7853  -14.3486   27.3096 C   0  0  2  0  0  0  0  0  0  0  0  0
    8.3654  -13.8311   27.3787 C   0  0  0  0  0  0  0  0  0  0  0  0
    9.8284  -15.4790   26.3468 C   0  0  2  0  0  0  0  0  0  0  0  0
    9.4569  -15.1322   24.9863 N   0  0  0  0  0  0  0  0  0  0  0  0
    8.9977  -16.5936   26.8623 C   0  0  0  0  0  0  0  0  0  0  0  0
    7.8136  -16.6976   26.4824 O   0  0  0  0  0  0  0  0  0  0  0  0
    9.4781  -17.5416   27.7596 O   0  0  0  0  0  0  0  0  0  0  0  0
  2  3  1  0
  2  1  1  6
  3  4  1  0
  4  5  2  0
  4  8  1  0
  6  7  2  0
  6  2  1  0
 10  9  1  6
 10 12  1  0
 11 10  1  0
 12 14  1  0
 12 13  1  6
 13  6  1  0
 14 21  1  0
 15 14  2  0
 16 17  1  0
 18 20  1  0
 18 17  1  0
 18 19  1  1
 20 22  1  0
 20 21  1  6
 22 23  2  0
 22 24  1  0
M  END
$$$$
