DVI.pdb
     RDKit          3D

 24 23  0  0  1  0  0  0  0  0999 V2000
   12.4966  -17.3328   20.0004 N   0  0  0  0  0  0  0  0  0  0  0  0
   11.3149  -17.8545   20.7373 C   0  0  1  0  0  0  0  0  0  0  0  0
   11.7263  -18.9825   21.6152 C   0  0  0  0  0  0  0  0  0  0  0  0
   12.1177  -20.2313   20.9889 C   0  0  0  0  0  0  0  0  0  0  0  0
   12.3458  -20.3527   19.7719 O   0  0  0  0  0  0  0  0  0  0  0  0
   10.6485  -16.7237   21.4115 C   0  0  0  0  0  0  0  0  0  0  0  0
   11.2687  -15.9364   22.1158 O   0  0  0  0  0  0  0  0  0  0  0  0
   12.2514  -21.3692   21.7739 O   0  0  0  0  0  0  0  0  0  0  0  0
    7.6424  -14.2902   19.9230 C   0  0  0  0  0  0  0  0  0  0  0  0
    7.3947  -14.7769   21.3110 C   0  0  2  0  0  0  0  0  0  0  0  0
    6.7636  -13.7346   22.1997 C   0  0  0  0  0  0  0  0  0  0  0  0
    8.5333  -15.4384   21.9923 C   0  0  2  0  0  0  0  0  0  0  0  0
    9.2269  -16.4604   21.2936 N   0  0  0  0  0  0  0  0  0  0  0  0
    8.3726  -15.6220   23.4549 C   0  0  0  0  0  0  0  0  0  0  0  0
    8.2409  -16.7970   23.9560 O   0  0  0  0  0  0  0  0  0  0  0  0
    6.2381  -11.7010   26.9699 C   0  0  0  0  0  0  0  0  0  0  0  0
    6.6521  -12.7524   25.9414 C   0  0  0  0  0  0  0  0  0  0  0  0
    7.7094  -13.6079   26.6031 C   0  0  2  0  0  0  0  0  0  0  0  0
    8.9449  -12.7417   26.7125 C   0  0  0  0  0  0  0  0  0  0  0  0
    8.0545  -14.8245   25.8237 C   0  0  2  0  0  0  0  0  0  0  0  0
    8.3435  -14.5849   24.4206 N   0  0  0  0  0  0  0  0  0  0  0  0
    6.9788  -15.8318   25.9855 C   0  0  0  0  0  0  0  0  0  0  0  0
    6.1242  -15.9609   25.0853 O   0  0  0  0  0  0  0  0  0  0  0  0
    6.8727  -16.6506   27.1048 O   0  0  0  0  0  0  0  0  0  0  0  0
  2  3  1  0
  2  1  1  1
  3  4  1  0
  4  5  2  0
  4  8  1  0
  6  7  2  0
  6  2  1  0
 10  9  1  6
 10 12  1  0
 11 10  1  0
 12 14  1  0
 12 13  1  6
 13  6  1  0
 14 21  1  0
 15 14  2  0
 16 17  1  0
 18 20  1  0
 18 17  1  0
 18 19  1  6
 20 22  1  0
 20 21  1  6
 22 23  2  0
 22 24  1  0
M  END
$$$$
