DVI.pdb
     RDKit          3D

 24 23  0  0  1  0  0  0  0  0999 V2000
   12.1709  -14.1377   18.6089 N   0  0  0  0  0  0  0  0  0  0  0  0
   12.0187  -15.2523   19.5816 C   0  0  1  0  0  0  0  0  0  0  0  0
   13.3583  -15.7703   19.9678 C   0  0  0  0  0  0  0  0  0  0  0  0
   14.2025  -16.3304   18.9292 C   0  0  0  0  0  0  0  0  0  0  0  0
   13.7652  -16.9436   17.9388 O   0  0  0  0  0  0  0  0  0  0  0  0
   11.1626  -14.7901   20.6910 C   0  0  0  0  0  0  0  0  0  0  0  0
   11.3726  -13.7311   21.2700 O   0  0  0  0  0  0  0  0  0  0  0  0
   15.5803  -16.1857   19.0258 O   0  0  0  0  0  0  0  0  0  0  0  0
    7.3767  -14.0768   20.7541 C   0  0  0  0  0  0  0  0  0  0  0  0
    7.7151  -14.9625   21.9057 C   0  0  2  0  0  0  0  0  0  0  0  0
    6.9243  -14.6436   23.1497 C   0  0  0  0  0  0  0  0  0  0  0  0
    9.1560  -15.1202   22.2168 C   0  0  2  0  0  0  0  0  0  0  0  0
   10.0215  -15.5437   21.1750 N   0  0  0  0  0  0  0  0  0  0  0  0
    9.4555  -15.6250   23.5786 C   0  0  0  0  0  0  0  0  0  0  0  0
    9.9484  -16.7988   23.7472 O   0  0  0  0  0  0  0  0  0  0  0  0
   10.2401  -13.6393   29.4222 C   0  0  0  0  0  0  0  0  0  0  0  0
   10.3421  -14.8085   28.4437 C   0  0  0  0  0  0  0  0  0  0  0  0
    9.7641  -14.3235   27.1329 C   0  0  2  0  0  0  0  0  0  0  0  0
    8.3203  -13.9697   27.4141 C   0  0  0  0  0  0  0  0  0  0  0  0
    9.7971  -15.3501   26.0597 C   0  0  2  0  0  0  0  0  0  0  0  0
    9.2444  -14.9172   24.7883 N   0  0  0  0  0  0  0  0  0  0  0  0
    9.1319  -16.5844   26.5415 C   0  0  0  0  0  0  0  0  0  0  0  0
    9.6783  -17.2619   27.4358 O   0  0  0  0  0  0  0  0  0  0  0  0
    7.9138  -17.0310   26.0404 O   0  0  0  0  0  0  0  0  0  0  0  0
  2  3  1  0
  2  1  1  6
  3  4  1  0
  4  5  2  0
  4  8  1  0
  6  7  2  0
  6  2  1  0
 10  9  1  6
 10 12  1  0
 11 10  1  0
 12 14  1  0
 12 13  1  6
 13  6  1  0
 14 21  1  0
 15 14  2  0
 16 17  1  0
 18 20  1  0
 18 17  1  0
 18 19  1  1
 20 22  1  0
 20 21  1  6
 22 23  2  0
 22 24  1  0
M  END
$$$$
