CVH.pdb
     RDKit          3D

 24 24  0  0  1  0  0  0  0  0999 V2000
    7.9061  -13.9576   17.6777 N   0  0  0  0  0  0  0  0  0  0  0  0
    8.8055  -14.3279   18.7381 C   0  0  1  0  0  0  0  0  0  0  0  0
    9.5616  -13.1487   19.3150 C   0  0  0  0  0  0  0  0  0  0  0  0
    8.3230  -12.0029   20.0067 S   0  0  0  0  0  0  0  0  0  0  0  0
    8.1165  -15.1069   19.8040 C   0  0  0  0  0  0  0  0  0  0  0  0
    7.0089  -15.6623   19.6094 O   0  0  0  0  0  0  0  0  0  0  0  0
   10.1539  -17.9844   21.2361 C   0  0  0  0  0  0  0  0  0  0  0  0
    8.6778  -17.7033   21.4067 C   0  0  2  0  0  0  0  0  0  0  0  0
    8.0139  -17.8066   20.0535 C   0  0  0  0  0  0  0  0  0  0  0  0
    8.4025  -16.3550   21.9760 C   0  0  2  0  0  0  0  0  0  0  0  0
    8.6868  -15.2566   21.1026 N   0  0  0  0  0  0  0  0  0  0  0  0
    9.0461  -16.1670   23.3245 C   0  0  0  0  0  0  0  0  0  0  0  0
   10.2761  -15.9545   23.3646 O   0  0  0  0  0  0  0  0  0  0  0  0
    8.3360  -16.2181   24.5392 N   0  0  0  0  0  0  0  0  0  0  0  0
    8.8794  -15.9640   25.8331 C   0  0  1  0  0  0  0  0  0  0  0  0
    7.9649  -15.3546   26.8344 C   0  0  0  0  0  0  0  0  0  0  0  0
    7.3894  -14.0774   26.3527 C   0  0  0  0  0  0  0  0  0  0  0  0
    8.0666  -13.1391   25.6206 C   0  0  0  0  0  0  0  0  0  0  0  0
    7.2065  -12.1410   25.3701 N   0  0  0  0  0  0  0  0  0  0  0  0
    6.0275  -12.4381   25.9245 C   0  0  0  0  0  0  0  0  0  0  0  0
    6.1348  -13.6556   26.5448 N   0  0  0  0  0  0  0  0  0  0  0  0
    9.4827  -17.1867   26.4434 C   0  0  0  0  0  0  0  0  0  0  0  0
    9.3626  -18.2712   25.8245 O   0  0  0  0  0  0  0  0  0  0  0  0
   10.1604  -17.1694   27.6509 O   0  0  0  0  0  0  0  0  0  0  0  0
  2  5  1  0
  2  1  1  6
  3  2  1  0
  4  3  1  0
  5  6  2  0
  8  7  1  6
  8  9  1  0
  8 10  1  0
 10 11  1  6
 11  5  1  0
 12 13  2  0
 12 10  1  0
 14 12  1  0
 15 14  1  0
 15 22  1  0
 15 16  1  1
 17 21  1  0
 17 16  1  0
 18 17  2  0
 19 18  1  0
 19 20  1  0
 20 21  2  0
 22 24  1  0
 23 22  2  0
M  END
$$$$
