CVH.pdb
     RDKit          3D

 24 24  0  0  1  0  0  0  0  0999 V2000
    9.0611  -17.7749   16.5431 N   0  0  0  0  0  0  0  0  0  0  0  0
    8.0158  -17.2720   17.3947 C   0  0  1  0  0  0  0  0  0  0  0  0
    6.9894  -18.3246   17.7605 C   0  0  0  0  0  0  0  0  0  0  0  0
    7.9023  -19.7585   18.4206 S   0  0  0  0  0  0  0  0  0  0  0  0
    8.5618  -16.5999   18.6063 C   0  0  0  0  0  0  0  0  0  0  0  0
    9.7253  -16.8199   19.0197 O   0  0  0  0  0  0  0  0  0  0  0  0
    7.5345  -12.7545   19.5806 C   0  0  0  0  0  0  0  0  0  0  0  0
    7.5883  -13.6697   20.7834 C   0  0  2  0  0  0  0  0  0  0  0  0
    8.3303  -12.9579   21.8904 C   0  0  0  0  0  0  0  0  0  0  0  0
    8.2696  -14.9637   20.5021 C   0  0  2  0  0  0  0  0  0  0  0  0
    7.7818  -15.6714   19.3571 N   0  0  0  0  0  0  0  0  0  0  0  0
    8.3226  -15.8521   21.7171 C   0  0  0  0  0  0  0  0  0  0  0  0
    7.5103  -16.7980   21.7898 O   0  0  0  0  0  0  0  0  0  0  0  0
    9.2371  -15.6728   22.7725 N   0  0  0  0  0  0  0  0  0  0  0  0
   10.1646  -16.6475   23.2455 C   0  0  1  0  0  0  0  0  0  0  0  0
   11.1167  -17.2037   22.2484 C   0  0  0  0  0  0  0  0  0  0  0  0
   10.6960  -18.5403   21.7676 C   0  0  0  0  0  0  0  0  0  0  0  0
    9.5659  -19.1991   22.1725 C   0  0  0  0  0  0  0  0  0  0  0  0
    9.5302  -20.3628   21.5066 N   0  0  0  0  0  0  0  0  0  0  0  0
   10.6001  -20.4367   20.7093 C   0  0  0  0  0  0  0  0  0  0  0  0
   11.3387  -19.2930   20.8681 N   0  0  0  0  0  0  0  0  0  0  0  0
   10.9551  -16.1561   24.4138 C   0  0  0  0  0  0  0  0  0  0  0  0
   11.6190  -15.1014   24.2706 O   0  0  0  0  0  0  0  0  0  0  0  0
   10.9834  -16.8118   25.6332 O   0  0  0  0  0  0  0  0  0  0  0  0
  2  5  1  0
  2  1  1  1
  3  2  1  0
  4  3  1  0
  5  6  2  0
  8  7  1  6
  8  9  1  0
  8 10  1  0
 10 11  1  6
 11  5  1  0
 12 13  2  0
 12 10  1  0
 14 12  1  0
 15 14  1  0
 15 22  1  0
 15 16  1  6
 17 21  1  0
 17 16  1  0
 18 17  2  0
 19 18  1  0
 19 20  1  0
 20 21  2  0
 22 24  1  0
 23 22  2  0
M  END
$$$$
