CVH.pdb
     RDKit          3D

 24 24  0  0  1  0  0  0  0  0999 V2000
    8.4342  -15.1615   14.0728 N   0  0  0  0  0  0  0  0  0  0  0  0
    8.5777  -15.8685   15.3179 C   0  0  1  0  0  0  0  0  0  0  0  0
    9.1472  -17.2619   15.1477 C   0  0  0  0  0  0  0  0  0  0  0  0
    9.1994  -18.0267   16.8023 S   0  0  0  0  0  0  0  0  0  0  0  0
    9.3528  -15.0819   16.3170 C   0  0  0  0  0  0  0  0  0  0  0  0
   10.5075  -14.6560   16.0751 O   0  0  0  0  0  0  0  0  0  0  0  0
    7.7429  -14.1548   20.3672 C   0  0  0  0  0  0  0  0  0  0  0  0
    8.7054  -13.2998   19.5736 C   0  0  2  0  0  0  0  0  0  0  0  0
    7.9060  -12.2847   18.7907 C   0  0  0  0  0  0  0  0  0  0  0  0
    9.5416  -14.0880   18.6264 C   0  0  2  0  0  0  0  0  0  0  0  0
    8.8154  -14.7764   17.6022 N   0  0  0  0  0  0  0  0  0  0  0  0
   10.4921  -15.0110   19.3425 C   0  0  0  0  0  0  0  0  0  0  0  0
   10.2341  -16.2329   19.3467 O   0  0  0  0  0  0  0  0  0  0  0  0
   11.6531  -14.5699   20.0056 N   0  0  0  0  0  0  0  0  0  0  0  0
   12.6166  -15.4059   20.6433 C   0  0  1  0  0  0  0  0  0  0  0  0
   13.9980  -14.8680   20.7565 C   0  0  0  0  0  0  0  0  0  0  0  0
   14.6158  -14.6463   19.4284 C   0  0  0  0  0  0  0  0  0  0  0  0
   14.3671  -15.3999   18.3125 C   0  0  0  0  0  0  0  0  0  0  0  0
   15.1011  -14.8811   17.3171 N   0  0  0  0  0  0  0  0  0  0  0  0
   15.7893  -13.8367   17.7875 C   0  0  0  0  0  0  0  0  0  0  0  0
   15.4890  -13.6826   19.1159 N   0  0  0  0  0  0  0  0  0  0  0  0
   12.1776  -15.8394   22.0036 C   0  0  0  0  0  0  0  0  0  0  0  0
   11.1280  -15.3346   22.4696 O   0  0  0  0  0  0  0  0  0  0  0  0
   12.8759  -16.7650   22.7608 O   0  0  0  0  0  0  0  0  0  0  0  0
  2  5  1  0
  2  1  1  6
  3  2  1  0
  4  3  1  0
  5  6  2  0
  8  7  1  6
  8  9  1  0
  8 10  1  0
 10 11  1  6
 11  5  1  0
 12 13  2  0
 12 10  1  0
 14 12  1  0
 15 14  1  0
 15 22  1  0
 15 16  1  1
 17 21  1  0
 17 16  1  0
 18 17  2  0
 19 18  1  0
 19 20  1  0
 20 21  2  0
 22 24  1  0
 23 22  2  0
M  END
$$$$
