CVH.pdb
     RDKit          3D

 24 24  0  0  1  0  0  0  0  0999 V2000
    7.4483  -15.4676   19.2429 N   0  0  0  0  0  0  0  0  0  0  0  0
    7.0764  -16.0122   20.5219 C   0  0  1  0  0  0  0  0  0  0  0  0
    6.8874  -17.5150   20.4956 C   0  0  0  0  0  0  0  0  0  0  0  0
    6.1482  -17.9916   22.0930 S   0  0  0  0  0  0  0  0  0  0  0  0
    8.0219  -15.6012   21.5966 C   0  0  0  0  0  0  0  0  0  0  0  0
    9.2655  -15.6536   21.4422 O   0  0  0  0  0  0  0  0  0  0  0  0
    6.6477  -14.2104   25.6269 C   0  0  0  0  0  0  0  0  0  0  0  0
    7.8723  -13.7428   24.8727 C   0  0  2  0  0  0  0  0  0  0  0  0
    7.4997  -12.5157   24.0740 C   0  0  0  0  0  0  0  0  0  0  0  0
    8.4156  -14.7737   23.9454 C   0  0  2  0  0  0  0  0  0  0  0  0
    7.5541  -15.1280   22.8580 N   0  0  0  0  0  0  0  0  0  0  0  0
    8.9062  -15.9939   24.6793 C   0  0  0  0  0  0  0  0  0  0  0  0
    8.0824  -16.8969   24.9353 O   0  0  0  0  0  0  0  0  0  0  0  0
   10.2411  -16.1696   25.0908 N   0  0  0  0  0  0  0  0  0  0  0  0
   10.7535  -17.2980   25.7967 C   0  0  1  0  0  0  0  0  0  0  0  0
   12.2050  -17.5802   25.6426 C   0  0  0  0  0  0  0  0  0  0  0  0
   12.5869  -17.7546   24.2220 C   0  0  0  0  0  0  0  0  0  0  0  0
   11.7283  -18.1152   23.2180 C   0  0  0  0  0  0  0  0  0  0  0  0
   12.4442  -18.1546   22.0846 N   0  0  0  0  0  0  0  0  0  0  0  0
   13.7105  -17.8304   22.3626 C   0  0  0  0  0  0  0  0  0  0  0  0
   13.8080  -17.5773   23.7061 N   0  0  0  0  0  0  0  0  0  0  0  0
   10.4478  -17.2380   27.2576 C   0  0  0  0  0  0  0  0  0  0  0  0
   10.7574  -18.2283   27.9626 O   0  0  0  0  0  0  0  0  0  0  0  0
    9.8429  -16.1454   27.8559 O   0  0  0  0  0  0  0  0  0  0  0  0
  2  5  1  0
  2  1  1  6
  3  2  1  0
  4  3  1  0
  5  6  2  0
  8  7  1  6
  8  9  1  0
  8 10  1  0
 10 11  1  6
 11  5  1  0
 12 13  2  0
 12 10  1  0
 14 12  1  0
 15 14  1  0
 15 22  1  0
 15 16  1  1
 17 21  1  0
 17 16  1  0
 18 17  2  0
 19 18  1  0
 19 20  1  0
 20 21  2  0
 22 24  1  0
 23 22  2  0
M  END
$$$$
