CVH.pdb
     RDKit          3D

 24 24  0  0  1  0  0  0  0  0999 V2000
    8.3051  -15.8361   14.0618 N   0  0  0  0  0  0  0  0  0  0  0  0
    8.2333  -16.3684   15.3969 C   0  0  1  0  0  0  0  0  0  0  0  0
    8.7677  -17.7821   15.5024 C   0  0  0  0  0  0  0  0  0  0  0  0
    8.5273  -18.3198   17.2282 S   0  0  0  0  0  0  0  0  0  0  0  0
    8.8801  -15.4665   16.3898 C   0  0  0  0  0  0  0  0  0  0  0  0
   10.0629  -15.0714   16.2558 O   0  0  0  0  0  0  0  0  0  0  0  0
    8.5215  -12.5091   20.3876 C   0  0  0  0  0  0  0  0  0  0  0  0
    7.8301  -13.4176   19.3957 C   0  0  2  0  0  0  0  0  0  0  0  0
    6.9253  -14.3557   20.1597 C   0  0  0  0  0  0  0  0  0  0  0  0
    8.7813  -14.2237   18.5812 C   0  0  2  0  0  0  0  0  0  0  0  0
    8.1809  -15.0092   17.5456 N   0  0  0  0  0  0  0  0  0  0  0  0
    9.7001  -15.0533   19.4390 C   0  0  0  0  0  0  0  0  0  0  0  0
    9.3506  -16.2194   19.7179 O   0  0  0  0  0  0  0  0  0  0  0  0
   10.9289  -14.5846   19.9417 N   0  0  0  0  0  0  0  0  0  0  0  0
   11.8118  -15.3114   20.7939 C   0  0  1  0  0  0  0  0  0  0  0  0
   13.1661  -14.7343   21.0017 C   0  0  0  0  0  0  0  0  0  0  0  0
   13.9710  -14.7506   19.7582 C   0  0  0  0  0  0  0  0  0  0  0  0
   13.8824  -15.7042   18.7794 C   0  0  0  0  0  0  0  0  0  0  0  0
   14.7558  -15.3642   17.8200 N   0  0  0  0  0  0  0  0  0  0  0  0
   15.3745  -14.2358   18.1800 C   0  0  0  0  0  0  0  0  0  0  0  0
   14.8857  -13.8434   19.3989 N   0  0  0  0  0  0  0  0  0  0  0  0
   11.2123  -15.5759   22.1362 C   0  0  0  0  0  0  0  0  0  0  0  0
   10.2177  -14.8926   22.4792 O   0  0  0  0  0  0  0  0  0  0  0  0
   11.7061  -16.5338   23.0059 O   0  0  0  0  0  0  0  0  0  0  0  0
  2  5  1  0
  2  1  1  6
  3  2  1  0
  4  3  1  0
  5  6  2  0
  8  7  1  1
  8  9  1  0
  8 10  1  0
 10 11  1  6
 11  5  1  0
 12 13  2  0
 12 10  1  0
 14 12  1  0
 15 14  1  0
 15 22  1  0
 15 16  1  1
 17 21  1  0
 17 16  1  0
 18 17  2  0
 19 18  1  0
 19 20  1  0
 20 21  2  0
 22 24  1  0
 23 22  2  0
M  END
$$$$
