CVH.pdb
     RDKit          3D

 24 24  0  0  1  0  0  0  0  0999 V2000
    5.0986  -13.1703   26.3964 N   0  0  0  0  0  0  0  0  0  0  0  0
    6.4769  -13.0198   26.0112 C   0  0  1  0  0  0  0  0  0  0  0  0
    7.4125  -12.8794   27.1944 C   0  0  0  0  0  0  0  0  0  0  0  0
    8.6650  -11.6329   26.7439 S   0  0  0  0  0  0  0  0  0  0  0  0
    6.9189  -14.1063   25.0937 C   0  0  0  0  0  0  0  0  0  0  0  0
    6.7401  -15.3177   25.3650 O   0  0  0  0  0  0  0  0  0  0  0  0
    8.5711  -13.3805   20.9861 C   0  0  0  0  0  0  0  0  0  0  0  0
    7.8317  -14.5829   21.5292 C   0  0  2  0  0  0  0  0  0  0  0  0
    6.3510  -14.3634   21.3249 C   0  0  0  0  0  0  0  0  0  0  0  0
    8.0876  -14.8204   22.9769 C   0  0  2  0  0  0  0  0  0  0  0  0
    7.5705  -13.8176   23.8584 N   0  0  0  0  0  0  0  0  0  0  0  0
    9.5402  -15.1034   23.2567 C   0  0  0  0  0  0  0  0  0  0  0  0
   10.2756  -14.1450   23.5733 O   0  0  0  0  0  0  0  0  0  0  0  0
   10.1111  -16.3881   23.1801 N   0  0  0  0  0  0  0  0  0  0  0  0
   10.6073  -17.1461   24.2816 C   0  0  1  0  0  0  0  0  0  0  0  0
    9.6874  -17.3299   25.4351 C   0  0  0  0  0  0  0  0  0  0  0  0
   10.3364  -18.0592   26.5493 C   0  0  0  0  0  0  0  0  0  0  0  0
   11.6371  -18.4874   26.5537 C   0  0  0  0  0  0  0  0  0  0  0  0
   11.8482  -19.0889   27.7337 N   0  0  0  0  0  0  0  0  0  0  0  0
   10.7207  -19.0426   28.4495 C   0  0  0  0  0  0  0  0  0  0  0  0
    9.7645  -18.3958   27.7105 N   0  0  0  0  0  0  0  0  0  0  0  0
   11.0998  -18.4934   23.8652 C   0  0  0  0  0  0  0  0  0  0  0  0
   11.7458  -19.1665   24.7037 O   0  0  0  0  0  0  0  0  0  0  0  0
   10.8740  -19.0211   22.6049 O   0  0  0  0  0  0  0  0  0  0  0  0
  2  5  1  0
  2  1  1  1
  3  2  1  0
  4  3  1  0
  5  6  2  0
  8  7  1  1
  8  9  1  0
  8 10  1  0
 10 11  1  1
 11  5  1  0
 12 13  2  0
 12 10  1  0
 14 12  1  0
 15 14  1  0
 15 22  1  0
 15 16  1  1
 17 21  1  0
 17 16  1  0
 18 17  2  0
 19 18  1  0
 19 20  1  0
 20 21  2  0
 22 24  1  0
 23 22  2  0
M  END
$$$$
