CVH.pdb
     RDKit          3D

 24 24  0  0  1  0  0  0  0  0999 V2000
    8.5547  -16.9266   15.1749 N   0  0  0  0  0  0  0  0  0  0  0  0
    7.8850  -17.0723   16.4402 C   0  0  1  0  0  0  0  0  0  0  0  0
    7.7447  -18.5165   16.8753 C   0  0  0  0  0  0  0  0  0  0  0  0
    6.5677  -19.3105   15.7309 S   0  0  0  0  0  0  0  0  0  0  0  0
    8.5184  -16.2427   17.5024 C   0  0  0  0  0  0  0  0  0  0  0  0
    9.7625  -16.1068   17.5849 O   0  0  0  0  0  0  0  0  0  0  0  0
    7.0042  -12.6976   19.2082 C   0  0  0  0  0  0  0  0  0  0  0  0
    7.3815  -13.8017   20.1704 C   0  0  2  0  0  0  0  0  0  0  0  0
    8.0663  -13.1791   21.3645 C   0  0  0  0  0  0  0  0  0  0  0  0
    8.2916  -14.8149   19.5680 C   0  0  2  0  0  0  0  0  0  0  0  0
    7.7351  -15.5624   18.4810 N   0  0  0  0  0  0  0  0  0  0  0  0
    8.8968  -15.7219   20.6070 C   0  0  0  0  0  0  0  0  0  0  0  0
    8.2885  -16.7738   20.8954 O   0  0  0  0  0  0  0  0  0  0  0  0
   10.1089  -15.4470   21.2684 N   0  0  0  0  0  0  0  0  0  0  0  0
   10.7838  -16.3232   22.1689 C   0  0  1  0  0  0  0  0  0  0  0  0
   12.2489  -16.1238   22.3237 C   0  0  0  0  0  0  0  0  0  0  0  0
   12.8232  -17.0197   23.3543 C   0  0  0  0  0  0  0  0  0  0  0  0
   12.3374  -17.1638   24.6264 C   0  0  0  0  0  0  0  0  0  0  0  0
   13.1145  -18.0662   25.2434 N   0  0  0  0  0  0  0  0  0  0  0  0
   14.0581  -18.4775   24.3912 C   0  0  0  0  0  0  0  0  0  0  0  0
   13.8811  -17.8231   23.1999 N   0  0  0  0  0  0  0  0  0  0  0  0
   10.1709  -16.3162   23.5311 C   0  0  0  0  0  0  0  0  0  0  0  0
    9.4769  -15.3232   23.8567 O   0  0  0  0  0  0  0  0  0  0  0  0
   10.3376  -17.3501   24.4371 O   0  0  0  0  0  0  0  0  0  0  0  0
  2  5  1  0
  2  1  1  6
  3  2  1  0
  4  3  1  0
  5  6  2  0
  8  7  1  6
  8  9  1  0
  8 10  1  0
 10 11  1  6
 11  5  1  0
 12 13  2  0
 12 10  1  0
 14 12  1  0
 15 14  1  0
 15 22  1  0
 15 16  1  1
 17 21  1  0
 17 16  1  0
 18 17  2  0
 19 18  1  0
 19 20  1  0
 20 21  2  0
 22 24  1  0
 23 22  2  0
M  END
$$$$
