CVH.pdb
     RDKit          3D

 24 24  0  0  1  0  0  0  0  0999 V2000
    5.5981  -19.1037   24.5998 N   0  0  0  0  0  0  0  0  0  0  0  0
    6.3018  -17.8687   24.8246 C   0  0  1  0  0  0  0  0  0  0  0  0
    7.0513  -17.8430   26.1408 C   0  0  0  0  0  0  0  0  0  0  0  0
    7.0581  -16.1144   26.7214 S   0  0  0  0  0  0  0  0  0  0  0  0
    7.1936  -17.5222   23.6834 C   0  0  0  0  0  0  0  0  0  0  0  0
    7.9034  -18.3831   23.1106 O   0  0  0  0  0  0  0  0  0  0  0  0
    6.5580  -14.5137   20.8502 C   0  0  0  0  0  0  0  0  0  0  0  0
    7.9155  -14.4891   21.5165 C   0  0  2  0  0  0  0  0  0  0  0  0
    8.9611  -14.2299   20.4573 C   0  0  0  0  0  0  0  0  0  0  0  0
    8.2450  -15.7614   22.2167 C   0  0  2  0  0  0  0  0  0  0  0  0
    7.2832  -16.1878   23.1879 N   0  0  0  0  0  0  0  0  0  0  0  0
    9.6377  -15.7485   22.7900 C   0  0  0  0  0  0  0  0  0  0  0  0
    9.8625  -15.0105   23.7720 O   0  0  0  0  0  0  0  0  0  0  0  0
   10.6966  -16.5227   22.2784 N   0  0  0  0  0  0  0  0  0  0  0  0
   12.0107  -16.6025   22.8268 C   0  0  1  0  0  0  0  0  0  0  0  0
   12.4689  -17.9450   23.2718 C   0  0  0  0  0  0  0  0  0  0  0  0
   11.6514  -18.4652   24.3923 C   0  0  0  0  0  0  0  0  0  0  0  0
   11.4473  -17.8165   25.5809 C   0  0  0  0  0  0  0  0  0  0  0  0
   10.6488  -18.5982   26.3225 N   0  0  0  0  0  0  0  0  0  0  0  0
   10.3586  -19.7019   25.6271 C   0  0  0  0  0  0  0  0  0  0  0  0
   10.9862  -19.6253   24.4110 N   0  0  0  0  0  0  0  0  0  0  0  0
   13.0439  -16.0452   21.9031 C   0  0  0  0  0  0  0  0  0  0  0  0
   12.6911  -15.7563   20.7345 O   0  0  0  0  0  0  0  0  0  0  0  0
   14.3597  -15.8384   22.2822 O   0  0  0  0  0  0  0  0  0  0  0  0
  2  5  1  0
  2  1  1  6
  3  2  1  0
  4  3  1  0
  5  6  2  0
  8  7  1  6
  8  9  1  0
  8 10  1  0
 10 11  1  1
 11  5  1  0
 12 13  2  0
 12 10  1  0
 14 12  1  0
 15 14  1  0
 15 22  1  0
 15 16  1  6
 17 21  1  0
 17 16  1  0
 18 17  2  0
 19 18  1  0
 19 20  1  0
 20 21  2  0
 22 24  1  0
 23 22  2  0
M  END
$$$$
