CVH.pdb
     RDKit          3D

 24 24  0  0  1  0  0  0  0  0999 V2000
    7.9794  -17.5305   16.5050 N   0  0  0  0  0  0  0  0  0  0  0  0
    7.3423  -17.1484   17.7374 C   0  0  1  0  0  0  0  0  0  0  0  0
    6.7206  -18.3180   18.4725 C   0  0  0  0  0  0  0  0  0  0  0  0
    8.0862  -19.2794   19.2048 S   0  0  0  0  0  0  0  0  0  0  0  0
    8.2597  -16.3760   18.6205 C   0  0  0  0  0  0  0  0  0  0  0  0
    9.5066  -16.4832   18.5382 O   0  0  0  0  0  0  0  0  0  0  0  0
    6.7586  -13.6461   21.8285 C   0  0  0  0  0  0  0  0  0  0  0  0
    8.0610  -13.5147   21.0710 C   0  0  2  0  0  0  0  0  0  0  0  0
    7.8344  -12.6007   19.8896 C   0  0  0  0  0  0  0  0  0  0  0  0
    8.5829  -14.8190   20.5770 C   0  0  2  0  0  0  0  0  0  0  0  0
    7.7596  -15.4752   19.6066 N   0  0  0  0  0  0  0  0  0  0  0  0
    8.9497  -15.7467   21.7054 C   0  0  0  0  0  0  0  0  0  0  0  0
    8.1218  -16.6189   22.0423 O   0  0  0  0  0  0  0  0  0  0  0  0
   10.1735  -15.6823   22.3986 N   0  0  0  0  0  0  0  0  0  0  0  0
   10.5746  -16.5437   23.4621 C   0  0  1  0  0  0  0  0  0  0  0  0
   12.0266  -16.8453   23.5667 C   0  0  0  0  0  0  0  0  0  0  0  0
   12.5136  -17.6287   22.4075 C   0  0  0  0  0  0  0  0  0  0  0  0
   11.7276  -18.4108   21.6040 C   0  0  0  0  0  0  0  0  0  0  0  0
   12.5284  -18.9406   20.6676 N   0  0  0  0  0  0  0  0  0  0  0  0
   13.7763  -18.5087   20.8724 C   0  0  0  0  0  0  0  0  0  0  0  0
   13.7749  -17.6824   21.9659 N   0  0  0  0  0  0  0  0  0  0  0  0
   10.1084  -16.0532   24.7938 C   0  0  0  0  0  0  0  0  0  0  0  0
    9.6013  -14.9073   24.8520 O   0  0  0  0  0  0  0  0  0  0  0  0
   10.2135  -16.8050   25.9520 O   0  0  0  0  0  0  0  0  0  0  0  0
  2  5  1  0
  2  1  1  6
  3  2  1  0
  4  3  1  0
  5  6  2  0
  8  7  1  6
  8  9  1  0
  8 10  1  0
 10 11  1  6
 11  5  1  0
 12 13  2  0
 12 10  1  0
 14 12  1  0
 15 14  1  0
 15 22  1  0
 15 16  1  1
 17 21  1  0
 17 16  1  0
 18 17  2  0
 19 18  1  0
 19 20  1  0
 20 21  2  0
 22 24  1  0
 23 22  2  0
M  END
$$$$
