CVH.pdb
     RDKit          3D

 24 24  0  0  1  0  0  0  0  0999 V2000
    9.0461  -17.5212   16.3841 N   0  0  0  0  0  0  0  0  0  0  0  0
    8.1778  -17.5117   17.5316 C   0  0  1  0  0  0  0  0  0  0  0  0
    7.7934  -18.9010   17.9974 C   0  0  0  0  0  0  0  0  0  0  0  0
    6.7456  -19.6329   16.6967 S   0  0  0  0  0  0  0  0  0  0  0  0
    8.7398  -16.6999   18.6464 C   0  0  0  0  0  0  0  0  0  0  0  0
    9.9485  -16.7688   18.9739 O   0  0  0  0  0  0  0  0  0  0  0  0
    7.3280  -12.8656   19.7434 C   0  0  0  0  0  0  0  0  0  0  0  0
    7.5336  -13.8597   20.8643 C   0  0  2  0  0  0  0  0  0  0  0  0
    8.1592  -13.1361   22.0336 C   0  0  0  0  0  0  0  0  0  0  0  0
    8.4105  -15.0002   20.4793 C   0  0  2  0  0  0  0  0  0  0  0  0
    7.9244  -15.8030   19.3980 N   0  0  0  0  0  0  0  0  0  0  0  0
    8.7927  -15.8467   21.6649 C   0  0  0  0  0  0  0  0  0  0  0  0
    7.9495  -16.6553   22.1063 O   0  0  0  0  0  0  0  0  0  0  0  0
   10.0471  -15.7744   22.3002 N   0  0  0  0  0  0  0  0  0  0  0  0
   10.4748  -16.5840   23.3936 C   0  0  1  0  0  0  0  0  0  0  0  0
   11.9184  -16.9366   23.4397 C   0  0  0  0  0  0  0  0  0  0  0  0
   12.3287  -17.7421   22.2661 C   0  0  0  0  0  0  0  0  0  0  0  0
   11.5520  -18.6905   21.6560 C   0  0  0  0  0  0  0  0  0  0  0  0
   12.2657  -19.1837   20.6332 N   0  0  0  0  0  0  0  0  0  0  0  0
   13.4516  -18.5687   20.5984 C   0  0  0  0  0  0  0  0  0  0  0  0
   13.4987  -17.6598   21.6233 N   0  0  0  0  0  0  0  0  0  0  0  0
   10.1018  -15.9940   24.7143 C   0  0  0  0  0  0  0  0  0  0  0  0
    9.6360  -14.8293   24.7256 O   0  0  0  0  0  0  0  0  0  0  0  0
   10.2490  -16.6744   25.9114 O   0  0  0  0  0  0  0  0  0  0  0  0
  2  5  1  0
  2  1  1  6
  3  2  1  0
  4  3  1  0
  5  6  2  0
  8  7  1  6
  8  9  1  0
  8 10  1  0
 10 11  1  6
 11  5  1  0
 12 13  2  0
 12 10  1  0
 14 12  1  0
 15 14  1  0
 15 22  1  0
 15 16  1  1
 17 21  1  0
 17 16  1  0
 18 17  2  0
 19 18  1  0
 19 20  1  0
 20 21  2  0
 22 24  1  0
 23 22  2  0
M  END
$$$$
