CVH.pdb
     RDKit          3D

 24 24  0  0  1  0  0  0  0  0999 V2000
    7.9896  -14.1503   20.0115 N   0  0  0  0  0  0  0  0  0  0  0  0
    7.2145  -14.5512   21.1558 C   0  0  1  0  0  0  0  0  0  0  0  0
    6.7468  -15.9903   21.0821 C   0  0  0  0  0  0  0  0  0  0  0  0
    5.7685  -16.1594   19.5525 S   0  0  0  0  0  0  0  0  0  0  0  0
    7.9277  -14.2755   22.4338 C   0  0  0  0  0  0  0  0  0  0  0  0
    9.1503  -14.5162   22.5768 O   0  0  0  0  0  0  0  0  0  0  0  0
    7.9326  -12.3037   27.0187 C   0  0  0  0  0  0  0  0  0  0  0  0
    7.1865  -12.5466   25.7258 C   0  0  2  0  0  0  0  0  0  0  0  0
    5.7992  -13.0412   26.0624 C   0  0  0  0  0  0  0  0  0  0  0  0
    7.8533  -13.5461   24.8461 C   0  0  2  0  0  0  0  0  0  0  0  0
    7.2492  -13.7233   23.5601 N   0  0  0  0  0  0  0  0  0  0  0  0
    8.0615  -14.8649   25.5430 C   0  0  0  0  0  0  0  0  0  0  0  0
    7.1643  -15.7284   25.4478 O   0  0  0  0  0  0  0  0  0  0  0  0
    9.2114  -15.1746   26.2942 N   0  0  0  0  0  0  0  0  0  0  0  0
    9.8158  -16.4621   26.3993 C   0  0  1  0  0  0  0  0  0  0  0  0
   10.9539  -16.7430   25.4849 C   0  0  0  0  0  0  0  0  0  0  0  0
   11.4850  -18.1137   25.6677 C   0  0  0  0  0  0  0  0  0  0  0  0
   11.1597  -18.9489   26.7030 C   0  0  0  0  0  0  0  0  0  0  0  0
   11.8302  -20.0941   26.5090 N   0  0  0  0  0  0  0  0  0  0  0  0
   12.5538  -19.9863   25.3907 C   0  0  0  0  0  0  0  0  0  0  0  0
   12.3416  -18.7424   24.8555 N   0  0  0  0  0  0  0  0  0  0  0  0
   10.2579  -16.7674   27.7931 C   0  0  0  0  0  0  0  0  0  0  0  0
   10.2198  -15.8399   28.6367 O   0  0  0  0  0  0  0  0  0  0  0  0
   10.7030  -18.0189   28.1847 O   0  0  0  0  0  0  0  0  0  0  0  0
  2  5  1  0
  2  1  1  6
  3  2  1  0
  4  3  1  0
  5  6  2  0
  8  7  1  1
  8  9  1  0
  8 10  1  0
 10 11  1  6
 11  5  1  0
 12 13  2  0
 12 10  1  0
 14 12  1  0
 15 14  1  0
 15 22  1  0
 15 16  1  6
 17 21  1  0
 17 16  1  0
 18 17  2  0
 19 18  1  0
 19 20  1  0
 20 21  2  0
 22 24  1  0
 23 22  2  0
M  END
$$$$
