CVH.pdb
     RDKit          3D

 24 24  0  0  1  0  0  0  0  0999 V2000
    5.2826  -19.1855   20.1251 N   0  0  0  0  0  0  0  0  0  0  0  0
    5.2744  -18.0166   20.9643 C   0  0  1  0  0  0  0  0  0  0  0  0
    4.9434  -18.3254   22.4100 C   0  0  0  0  0  0  0  0  0  0  0  0
    3.1471  -18.6273   22.4971 S   0  0  0  0  0  0  0  0  0  0  0  0
    6.5410  -17.2417   20.8495 C   0  0  0  0  0  0  0  0  0  0  0  0
    7.6649  -17.7962   20.8975 O   0  0  0  0  0  0  0  0  0  0  0  0
    8.8707  -12.9492   19.8321 C   0  0  0  0  0  0  0  0  0  0  0  0
    7.5746  -13.7234   19.9208 C   0  0  2  0  0  0  0  0  0  0  0  0
    6.5620  -12.8742   20.6529 C   0  0  0  0  0  0  0  0  0  0  0  0
    7.7185  -15.0227   20.6341 C   0  0  2  0  0  0  0  0  0  0  0  0
    6.5339  -15.8256   20.6802 N   0  0  0  0  0  0  0  0  0  0  0  0
    8.3226  -14.8536   22.0033 C   0  0  0  0  0  0  0  0  0  0  0  0
    7.7377  -14.1074   22.8161 O   0  0  0  0  0  0  0  0  0  0  0  0
    9.5090  -15.4909   22.4141 N   0  0  0  0  0  0  0  0  0  0  0  0
   10.0200  -15.5219   23.7452 C   0  0  1  0  0  0  0  0  0  0  0  0
    9.1569  -16.1531   24.7781 C   0  0  0  0  0  0  0  0  0  0  0  0
    8.0513  -15.2601   25.1962 C   0  0  0  0  0  0  0  0  0  0  0  0
    8.0024  -13.9115   24.9638 C   0  0  0  0  0  0  0  0  0  0  0  0
    6.8472  -13.4661   25.4794 N   0  0  0  0  0  0  0  0  0  0  0  0
    6.1895  -14.4968   26.0187 C   0  0  0  0  0  0  0  0  0  0  0  0
    6.9413  -15.6296   25.8443 N   0  0  0  0  0  0  0  0  0  0  0  0
   11.3688  -16.1595   23.8188 C   0  0  0  0  0  0  0  0  0  0  0  0
   11.8341  -16.6697   22.7715 O   0  0  0  0  0  0  0  0  0  0  0  0
   12.1156  -16.2091   24.9838 O   0  0  0  0  0  0  0  0  0  0  0  0
  2  5  1  0
  2  1  1  6
  3  2  1  0
  4  3  1  0
  5  6  2  0
  8  7  1  1
  8  9  1  0
  8 10  1  0
 10 11  1  1
 11  5  1  0
 12 13  2  0
 12 10  1  0
 14 12  1  0
 15 14  1  0
 15 22  1  0
 15 16  1  1
 17 21  1  0
 17 16  1  0
 18 17  2  0
 19 18  1  0
 19 20  1  0
 20 21  2  0
 22 24  1  0
 23 22  2  0
M  END
$$$$
