CVH.pdb
     RDKit          3D

 24 24  0  0  1  0  0  0  0  0999 V2000
    4.5625  -18.2514   20.0637 N   0  0  0  0  0  0  0  0  0  0  0  0
    5.4772  -17.7881   21.0734 C   0  0  1  0  0  0  0  0  0  0  0  0
    5.9959  -18.9009   21.9608 C   0  0  0  0  0  0  0  0  0  0  0  0
    4.6202  -19.4093   23.0445 S   0  0  0  0  0  0  0  0  0  0  0  0
    6.5926  -16.9928   20.4893 C   0  0  0  0  0  0  0  0  0  0  0  0
    6.6701  -16.7623   19.2589 O   0  0  0  0  0  0  0  0  0  0  0  0
    8.6056  -13.0848   19.8578 C   0  0  0  0  0  0  0  0  0  0  0  0
    7.7059  -14.1408   20.4600 C   0  0  2  0  0  0  0  0  0  0  0  0
    6.9772  -13.5317   21.6349 C   0  0  0  0  0  0  0  0  0  0  0  0
    8.4493  -15.3440   20.9263 C   0  0  2  0  0  0  0  0  0  0  0  0
    7.6304  -16.4552   21.3066 N   0  0  0  0  0  0  0  0  0  0  0  0
    9.4550  -15.0095   21.9963 C   0  0  0  0  0  0  0  0  0  0  0  0
    9.0320  -14.7712   23.1469 O   0  0  0  0  0  0  0  0  0  0  0  0
   10.8431  -14.9514   21.7683 N   0  0  0  0  0  0  0  0  0  0  0  0
   11.8269  -15.7617   22.4081 C   0  0  1  0  0  0  0  0  0  0  0  0
   11.6556  -17.2343   22.2966 C   0  0  0  0  0  0  0  0  0  0  0  0
   10.6060  -17.7399   23.2116 C   0  0  0  0  0  0  0  0  0  0  0  0
   10.4642  -17.3701   24.5225 C   0  0  0  0  0  0  0  0  0  0  0  0
    9.4004  -18.0301   25.0035 N   0  0  0  0  0  0  0  0  0  0  0  0
    8.8882  -18.7902   24.0310 C   0  0  0  0  0  0  0  0  0  0  0  0
    9.6418  -18.6128   22.9000 N   0  0  0  0  0  0  0  0  0  0  0  0
   13.2131  -15.4238   21.9656 C   0  0  0  0  0  0  0  0  0  0  0  0
   14.1704  -15.9355   22.5944 O   0  0  0  0  0  0  0  0  0  0  0  0
   13.4787  -14.5778   20.9019 O   0  0  0  0  0  0  0  0  0  0  0  0
  2  5  1  0
  2  1  1  6
  3  2  1  0
  4  3  1  0
  5  6  2  0
  8  7  1  1
  8  9  1  0
  8 10  1  0
 10 11  1  1
 11  5  1  0
 12 13  2  0
 12 10  1  0
 14 12  1  0
 15 14  1  0
 15 22  1  0
 15 16  1  6
 17 21  1  0
 17 16  1  0
 18 17  2  0
 19 18  1  0
 19 20  1  0
 20 21  2  0
 22 24  1  0
 23 22  2  0
M  END
$$$$
