CVH.pdb
     RDKit          3D

 24 24  0  0  1  0  0  0  0  0999 V2000
    9.1135  -17.2271   16.5410 N   0  0  0  0  0  0  0  0  0  0  0  0
    8.2582  -17.2555   17.6980 C   0  0  1  0  0  0  0  0  0  0  0  0
    7.8657  -18.6588   18.1123 C   0  0  0  0  0  0  0  0  0  0  0  0
    6.6819  -18.5007   19.4904 S   0  0  0  0  0  0  0  0  0  0  0  0
    8.8406  -16.4942   18.8378 C   0  0  0  0  0  0  0  0  0  0  0  0
   10.0538  -16.5816   19.1434 O   0  0  0  0  0  0  0  0  0  0  0  0
    6.4896  -13.5525   21.3045 C   0  0  0  0  0  0  0  0  0  0  0  0
    7.9394  -13.4977   20.8776 C   0  0  2  0  0  0  0  0  0  0  0  0
    8.0192  -12.7709   19.5556 C   0  0  0  0  0  0  0  0  0  0  0  0
    8.5537  -14.8455   20.7236 C   0  0  2  0  0  0  0  0  0  0  0  0
    8.0406  -15.6273   19.6394 N   0  0  0  0  0  0  0  0  0  0  0  0
    8.5469  -15.6223   22.0139 C   0  0  0  0  0  0  0  0  0  0  0  0
    7.5678  -16.3603   22.2508 O   0  0  0  0  0  0  0  0  0  0  0  0
    9.5837  -15.5602   22.9645 N   0  0  0  0  0  0  0  0  0  0  0  0
   10.1383  -16.6713   23.6658 C   0  0  1  0  0  0  0  0  0  0  0  0
   10.6796  -17.7814   22.8382 C   0  0  0  0  0  0  0  0  0  0  0  0
   11.0706  -18.9473   23.6643 C   0  0  0  0  0  0  0  0  0  0  0  0
   10.7592  -19.1100   24.9879 C   0  0  0  0  0  0  0  0  0  0  0  0
   11.2756  -20.2871   25.3707 N   0  0  0  0  0  0  0  0  0  0  0  0
   11.8917  -20.8482   24.3260 C   0  0  0  0  0  0  0  0  0  0  0  0
   11.7669  -20.0107   23.2482 N   0  0  0  0  0  0  0  0  0  0  0  0
   11.1988  -16.2576   24.6330 C   0  0  0  0  0  0  0  0  0  0  0  0
   11.9867  -15.3457   24.2846 O   0  0  0  0  0  0  0  0  0  0  0  0
   11.3443  -16.8349   25.8833 O   0  0  0  0  0  0  0  0  0  0  0  0
  2  5  1  0
  2  1  1  6
  3  2  1  0
  4  3  1  0
  5  6  2  0
  8  7  1  6
  8  9  1  0
  8 10  1  0
 10 11  1  6
 11  5  1  0
 12 13  2  0
 12 10  1  0
 14 12  1  0
 15 14  1  0
 15 22  1  0
 15 16  1  6
 17 21  1  0
 17 16  1  0
 18 17  2  0
 19 18  1  0
 19 20  1  0
 20 21  2  0
 22 24  1  0
 23 22  2  0
M  END
$$$$
