EWA.pdb
     RDKit          3D

 29 30  0  0  1  0  0  0  0  0999 V2000
   10.5352  -18.6336   21.7087 N   0  0  0  0  0  0  0  0  0  0  0  0
   11.5651  -17.6475   21.9058 C   0  0  1  0  0  0  0  0  0  0  0  0
   11.7420  -16.7631   20.6854 C   0  0  0  0  0  0  0  0  0  0  0  0
   12.1122  -17.5959   19.4653 C   0  0  0  0  0  0  0  0  0  0  0  0
   12.3416  -16.6598   18.3330 C   0  0  0  0  0  0  0  0  0  0  0  0
   13.4553  -16.1588   18.0948 O   0  0  0  0  0  0  0  0  0  0  0  0
   11.2000  -16.7472   23.0329 C   0  0  0  0  0  0  0  0  0  0  0  0
   11.8831  -15.7222   23.2660 O   0  0  0  0  0  0  0  0  0  0  0  0
   11.2801  -16.3227   17.5007 O   0  0  0  0  0  0  0  0  0  0  0  0
   10.0832  -17.0480   23.8388 N   0  0  0  0  0  0  0  0  0  0  0  0
    9.6862  -16.1304   24.9211 C   0  0  1  0  0  0  0  0  0  0  0  0
    8.2028  -16.1865   24.9662 C   0  0  0  0  0  0  0  0  0  0  0  0
    7.4699  -15.0408   24.4326 C   0  0  0  0  0  0  0  0  0  0  0  0
    6.9369  -14.8576   23.1580 C   0  0  0  0  0  0  0  0  0  0  0  0
    6.3511  -13.6501   23.1155 N   0  0  0  0  0  0  0  0  0  0  0  0
    6.4731  -13.0266   24.3068 C   0  0  0  0  0  0  0  0  0  0  0  0
    6.0427  -11.8095   24.7794 C   0  0  0  0  0  0  0  0  0  0  0  0
    6.3070  -11.4412   26.0905 C   0  0  0  0  0  0  0  0  0  0  0  0
    6.9951  -12.2990   26.8948 C   0  0  0  0  0  0  0  0  0  0  0  0
    7.4290  -13.5055   26.4460 C   0  0  0  0  0  0  0  0  0  0  0  0
    7.1582  -13.8680   25.1253 C   0  0  0  0  0  0  0  0  0  0  0  0
   10.4249  -16.4162   26.1435 C   0  0  0  0  0  0  0  0  0  0  0  0
   11.0217  -17.5379   26.2742 O   0  0  0  0  0  0  0  0  0  0  0  0
   11.0930  -14.5816   29.3293 C   0  0  0  0  0  0  0  0  0  0  0  0
   11.2142  -15.8409   28.4273 C   0  0  2  0  0  0  0  0  0  0  0  0
   10.5167  -15.4828   27.2050 N   0  0  0  0  0  0  0  0  0  0  0  0
   10.5477  -16.9061   29.2030 C   0  0  0  0  0  0  0  0  0  0  0  0
    9.4161  -17.3502   28.9714 O   0  0  0  0  0  0  0  0  0  0  0  0
   11.2428  -17.4510   30.2728 O   0  0  0  0  0  0  0  0  0  0  0  0
  2  3  1  0
  2  1  1  6
  4  5  1  0
  4  3  1  0
  5  6  2  0
  7  2  1  0
  8  7  2  0
  9  5  1  0
 10  7  1  0
 11 10  1  0
 11 12  1  1
 12 13  1  0
 13 14  2  0
 14 15  1  0
 16 15  1  0
 17 16  2  0
 18 17  1  0
 19 20  1  0
 19 18  2  0
 20 21  2  0
 21 13  1  0
 21 16  1  0
 22 26  1  0
 22 11  1  0
 23 22  2  0
 25 24  1  1
 25 27  1  0
 25 26  1  0
 27 29  1  0
 28 27  2  0
M  END
$$$$
