EWA.pdb
     RDKit          3D

 29 30  0  0  1  0  0  0  0  0999 V2000
   11.2061  -18.6564   21.3132 N   0  0  0  0  0  0  0  0  0  0  0  0
   12.2324  -17.8377   21.9034 C   0  0  1  0  0  0  0  0  0  0  0  0
   13.0233  -17.0785   20.8540 C   0  0  0  0  0  0  0  0  0  0  0  0
   12.6852  -17.5805   19.4566 C   0  0  0  0  0  0  0  0  0  0  0  0
   13.5385  -16.8376   18.4917 C   0  0  0  0  0  0  0  0  0  0  0  0
   14.7416  -17.1043   18.3201 O   0  0  0  0  0  0  0  0  0  0  0  0
   11.6196  -16.8156   22.7946 C   0  0  0  0  0  0  0  0  0  0  0  0
   12.3119  -15.8667   23.2326 O   0  0  0  0  0  0  0  0  0  0  0  0
   12.9841  -15.8030   17.7465 O   0  0  0  0  0  0  0  0  0  0  0  0
   10.2581  -16.9152   23.1455 N   0  0  0  0  0  0  0  0  0  0  0  0
    9.6661  -15.9474   24.0858 C   0  0  1  0  0  0  0  0  0  0  0  0
    8.2057  -15.9736   23.8168 C   0  0  0  0  0  0  0  0  0  0  0  0
    7.3474  -15.1715   24.6853 C   0  0  0  0  0  0  0  0  0  0  0  0
    6.4152  -15.5958   25.6303 C   0  0  0  0  0  0  0  0  0  0  0  0
    5.8566  -14.5099   26.1886 N   0  0  0  0  0  0  0  0  0  0  0  0
    6.3791  -13.3855   25.6543 C   0  0  0  0  0  0  0  0  0  0  0  0
    6.1664  -12.0473   25.8866 C   0  0  0  0  0  0  0  0  0  0  0  0
    6.8868  -11.0968   25.1781 C   0  0  0  0  0  0  0  0  0  0  0  0
    7.8007  -11.5088   24.2554 C   0  0  0  0  0  0  0  0  0  0  0  0
    8.0246  -12.8263   24.0115 C   0  0  0  0  0  0  0  0  0  0  0  0
    7.2954  -13.7759   24.7294 C   0  0  0  0  0  0  0  0  0  0  0  0
   10.1217  -16.1978   25.4464 C   0  0  0  0  0  0  0  0  0  0  0  0
   10.5185  -17.3664   25.7756 O   0  0  0  0  0  0  0  0  0  0  0  0
   10.3845  -14.1850   28.5788 C   0  0  0  0  0  0  0  0  0  0  0  0
   10.6957  -15.4604   27.7478 C   0  0  2  0  0  0  0  0  0  0  0  0
   10.1509  -15.1801   26.4313 N   0  0  0  0  0  0  0  0  0  0  0  0
    9.9905  -16.5406   28.4664 C   0  0  0  0  0  0  0  0  0  0  0  0
   10.3943  -17.0855   29.5014 O   0  0  0  0  0  0  0  0  0  0  0  0
    8.7830  -16.9780   27.9415 O   0  0  0  0  0  0  0  0  0  0  0  0
  2  3  1  0
  2  1  1  6
  4  5  1  0
  4  3  1  0
  5  6  2  0
  7  2  1  0
  8  7  2  0
  9  5  1  0
 10  7  1  0
 11 10  1  0
 11 12  1  1
 12 13  1  0
 13 14  2  0
 14 15  1  0
 16 15  1  0
 17 16  2  0
 18 17  1  0
 19 20  1  0
 19 18  2  0
 20 21  2  0
 21 13  1  0
 21 16  1  0
 22 26  1  0
 22 11  1  0
 23 22  2  0
 25 24  1  1
 25 27  1  0
 25 26  1  0
 27 29  1  0
 28 27  2  0
M  END
$$$$
