EWA.pdb
     RDKit          3D

 29 30  0  0  1  0  0  0  0  0999 V2000
   10.4181  -16.2281   20.8215 N   0  0  0  0  0  0  0  0  0  0  0  0
   10.5113  -17.1427   21.9290 C   0  0  1  0  0  0  0  0  0  0  0  0
   11.8441  -17.8681   21.9527 C   0  0  0  0  0  0  0  0  0  0  0  0
   12.9827  -16.9147   21.6151 C   0  0  0  0  0  0  0  0  0  0  0  0
   14.2420  -17.7051   21.5957 C   0  0  0  0  0  0  0  0  0  0  0  0
   14.7539  -18.1215   20.5409 O   0  0  0  0  0  0  0  0  0  0  0  0
   10.4101  -16.3993   23.2141 C   0  0  0  0  0  0  0  0  0  0  0  0
   11.0481  -15.3323   23.3755 O   0  0  0  0  0  0  0  0  0  0  0  0
   14.8825  -17.9975   22.7946 O   0  0  0  0  0  0  0  0  0  0  0  0
    9.5943  -16.8962   24.2507 N   0  0  0  0  0  0  0  0  0  0  0  0
    9.4241  -16.1203   25.4917 C   0  0  1  0  0  0  0  0  0  0  0  0
    7.9800  -16.2144   25.8250 C   0  0  0  0  0  0  0  0  0  0  0  0
    7.0801  -15.2513   25.1950 C   0  0  0  0  0  0  0  0  0  0  0  0
    6.1378  -15.4596   24.1896 C   0  0  0  0  0  0  0  0  0  0  0  0
    5.5430  -14.2865   23.9194 N   0  0  0  0  0  0  0  0  0  0  0  0
    6.0506  -13.3110   24.7028 C   0  0  0  0  0  0  0  0  0  0  0  0
    5.7781  -11.9695   24.8292 C   0  0  0  0  0  0  0  0  0  0  0  0
    6.4668  -11.2062   25.7606 C   0  0  0  0  0  0  0  0  0  0  0  0
    7.4103  -11.8038   26.5410 C   0  0  0  0  0  0  0  0  0  0  0  0
    7.6940  -13.1277   26.4305 C   0  0  0  0  0  0  0  0  0  0  0  0
    6.9957  -13.8882   25.4908 C   0  0  0  0  0  0  0  0  0  0  0  0
   10.3930  -16.5302   26.4991 C   0  0  0  0  0  0  0  0  0  0  0  0
   11.0586  -17.6079   26.3350 O   0  0  0  0  0  0  0  0  0  0  0  0
   11.3930  -15.2468   29.8609 C   0  0  0  0  0  0  0  0  0  0  0  0
   11.4703  -16.3051   28.7259 C   0  0  2  0  0  0  0  0  0  0  0  0
   10.6365  -15.7656   27.6665 N   0  0  0  0  0  0  0  0  0  0  0  0
   10.9304  -17.5342   29.3410 C   0  0  0  0  0  0  0  0  0  0  0  0
    9.8204  -18.0226   29.0941 O   0  0  0  0  0  0  0  0  0  0  0  0
   11.7281  -18.1922   30.2659 O   0  0  0  0  0  0  0  0  0  0  0  0
  2  3  1  0
  2  1  1  6
  4  5  1  0
  4  3  1  0
  5  6  2  0
  7  2  1  0
  8  7  2  0
  9  5  1  0
 10  7  1  0
 11 10  1  0
 11 12  1  1
 12 13  1  0
 13 14  2  0
 14 15  1  0
 16 15  1  0
 17 16  2  0
 18 17  1  0
 19 20  1  0
 19 18  2  0
 20 21  2  0
 21 13  1  0
 21 16  1  0
 22 26  1  0
 22 11  1  0
 23 22  2  0
 25 24  1  1
 25 27  1  0
 25 26  1  0
 27 29  1  0
 28 27  2  0
M  END
$$$$
