EWA.pdb
     RDKit          3D

 29 30  0  0  1  0  0  0  0  0999 V2000
    8.3550  -17.9870   20.1308 N   0  0  0  0  0  0  0  0  0  0  0  0
    9.7284  -18.2549   20.4680 C   0  0  1  0  0  0  0  0  0  0  0  0
   10.6809  -17.7598   19.3952 C   0  0  0  0  0  0  0  0  0  0  0  0
   10.2174  -18.2065   18.0151 C   0  0  0  0  0  0  0  0  0  0  0  0
   11.2288  -17.7441   17.0281 C   0  0  0  0  0  0  0  0  0  0  0  0
   10.9270  -17.4090   15.8686 O   0  0  0  0  0  0  0  0  0  0  0  0
   10.0941  -17.5418   21.7219 C   0  0  0  0  0  0  0  0  0  0  0  0
   11.2835  -17.5350   22.1177 O   0  0  0  0  0  0  0  0  0  0  0  0
   12.5665  -17.6789   17.4016 O   0  0  0  0  0  0  0  0  0  0  0  0
    9.1004  -16.8725   22.4646 N   0  0  0  0  0  0  0  0  0  0  0  0
    9.4421  -16.2383   23.7499 C   0  0  1  0  0  0  0  0  0  0  0  0
    8.4672  -15.1308   23.9188 C   0  0  0  0  0  0  0  0  0  0  0  0
    8.2802  -14.5989   25.2666 C   0  0  0  0  0  0  0  0  0  0  0  0
    8.7714  -15.0850   26.4768 C   0  0  0  0  0  0  0  0  0  0  0  0
    8.3430  -14.2778   27.4605 N   0  0  0  0  0  0  0  0  0  0  0  0
    7.5899  -13.2784   26.9536 C   0  0  0  0  0  0  0  0  0  0  0  0
    6.9462  -12.2050   27.5223 C   0  0  0  0  0  0  0  0  0  0  0  0
    6.2490  -11.3108   26.7229 C   0  0  0  0  0  0  0  0  0  0  0  0
    6.2131  -11.5133   25.3761 C   0  0  0  0  0  0  0  0  0  0  0  0
    6.8424  -12.5681   24.7958 C   0  0  0  0  0  0  0  0  0  0  0  0
    7.5419  -13.4627   25.6079 C   0  0  0  0  0  0  0  0  0  0  0  0
    9.5475  -17.2323   24.8094 C   0  0  0  0  0  0  0  0  0  0  0  0
    8.5450  -17.9754   25.0814 O   0  0  0  0  0  0  0  0  0  0  0  0
   12.1922  -19.1002   26.3954 C   0  0  0  0  0  0  0  0  0  0  0  0
   10.7983  -18.4400   26.5832 C   0  0  2  0  0  0  0  0  0  0  0  0
   10.7377  -17.4164   25.5551 N   0  0  0  0  0  0  0  0  0  0  0  0
   10.8359  -17.9018   27.9578 C   0  0  0  0  0  0  0  0  0  0  0  0
   10.8632  -16.6992   28.2483 O   0  0  0  0  0  0  0  0  0  0  0  0
   10.8409  -18.8134   29.0036 O   0  0  0  0  0  0  0  0  0  0  0  0
  2  3  1  0
  2  1  1  6
  4  5  1  0
  4  3  1  0
  5  6  2  0
  7  2  1  0
  8  7  2  0
  9  5  1  0
 10  7  1  0
 11 10  1  0
 11 12  1  1
 12 13  1  0
 13 14  2  0
 14 15  1  0
 16 15  1  0
 17 16  2  0
 18 17  1  0
 19 20  1  0
 19 18  2  0
 20 21  2  0
 21 13  1  0
 21 16  1  0
 22 26  1  0
 22 11  1  0
 23 22  2  0
 25 24  1  6
 25 27  1  0
 25 26  1  0
 27 29  1  0
 28 27  2  0
M  END
$$$$
