EWA.pdb
     RDKit          3D

 29 30  0  0  1  0  0  0  0  0999 V2000
   11.5080  -16.5031   19.6457 N   0  0  0  0  0  0  0  0  0  0  0  0
   11.4754  -17.1274   20.9423 C   0  0  1  0  0  0  0  0  0  0  0  0
   12.8666  -17.4818   21.4343 C   0  0  0  0  0  0  0  0  0  0  0  0
   13.4722  -18.5915   20.5852 C   0  0  0  0  0  0  0  0  0  0  0  0
   14.8086  -18.9144   21.1515 C   0  0  0  0  0  0  0  0  0  0  0  0
   14.9696  -19.7724   22.0379 O   0  0  0  0  0  0  0  0  0  0  0  0
   10.8965  -16.1919   21.9443 C   0  0  0  0  0  0  0  0  0  0  0  0
   11.1543  -14.9666   21.8833 O   0  0  0  0  0  0  0  0  0  0  0  0
   15.9297  -18.2394   20.6819 O   0  0  0  0  0  0  0  0  0  0  0  0
   10.0563  -16.6854   22.9628 N   0  0  0  0  0  0  0  0  0  0  0  0
    9.5117  -15.7677   23.9789 C   0  0  1  0  0  0  0  0  0  0  0  0
    8.0361  -15.8332   23.8241 C   0  0  0  0  0  0  0  0  0  0  0  0
    7.2245  -15.1174   24.8055 C   0  0  0  0  0  0  0  0  0  0  0  0
    6.3852  -15.6321   25.7918 C   0  0  0  0  0  0  0  0  0  0  0  0
    5.8382  -14.6033   26.4591 N   0  0  0  0  0  0  0  0  0  0  0  0
    6.2794  -13.4301   25.9573 C   0  0  0  0  0  0  0  0  0  0  0  0
    6.0426  -12.1172   26.2891 C   0  0  0  0  0  0  0  0  0  0  0  0
    6.6727  -11.0996   25.5877 C   0  0  0  0  0  0  0  0  0  0  0  0
    7.5227  -11.4211   24.5726 C   0  0  0  0  0  0  0  0  0  0  0  0
    7.7691  -12.7122   24.2297 C   0  0  0  0  0  0  0  0  0  0  0  0
    7.1309  -13.7298   24.9412 C   0  0  0  0  0  0  0  0  0  0  0  0
   10.0810  -16.0458   25.2905 C   0  0  0  0  0  0  0  0  0  0  0  0
   10.4901  -17.2241   25.5654 O   0  0  0  0  0  0  0  0  0  0  0  0
   10.5080  -14.1277   28.4586 C   0  0  0  0  0  0  0  0  0  0  0  0
   10.7885  -15.3744   27.5748 C   0  0  2  0  0  0  0  0  0  0  0  0
   10.2090  -15.0450   26.2847 N   0  0  0  0  0  0  0  0  0  0  0  0
   10.0972  -16.4759   28.2743 C   0  0  0  0  0  0  0  0  0  0  0  0
   10.5018  -17.0253   29.3067 O   0  0  0  0  0  0  0  0  0  0  0  0
    8.9029  -16.9295   27.7334 O   0  0  0  0  0  0  0  0  0  0  0  0
  2  3  1  0
  2  1  1  6
  4  5  1  0
  4  3  1  0
  5  6  2  0
  7  2  1  0
  8  7  2  0
  9  5  1  0
 10  7  1  0
 11 10  1  0
 11 12  1  1
 12 13  1  0
 13 14  2  0
 14 15  1  0
 16 15  1  0
 17 16  2  0
 18 17  1  0
 19 20  1  0
 19 18  2  0
 20 21  2  0
 21 13  1  0
 21 16  1  0
 22 26  1  0
 22 11  1  0
 23 22  2  0
 25 24  1  1
 25 27  1  0
 25 26  1  0
 27 29  1  0
 28 27  2  0
M  END
$$$$
