EWA.pdb
     RDKit          3D

 29 30  0  0  1  0  0  0  0  0999 V2000
   11.5905  -16.4547   19.7373 N   0  0  0  0  0  0  0  0  0  0  0  0
   11.5978  -17.0976   21.0252 C   0  0  1  0  0  0  0  0  0  0  0  0
   13.0060  -17.4298   21.4833 C   0  0  0  0  0  0  0  0  0  0  0  0
   13.6185  -18.5105   20.6023 C   0  0  0  0  0  0  0  0  0  0  0  0
   13.1282  -19.8251   21.0943 C   0  0  0  0  0  0  0  0  0  0  0  0
   12.1763  -20.4250   20.5633 O   0  0  0  0  0  0  0  0  0  0  0  0
   11.0210  -16.1884   22.0522 C   0  0  0  0  0  0  0  0  0  0  0  0
   11.3293  -14.9734   22.0611 O   0  0  0  0  0  0  0  0  0  0  0  0
   13.7475  -20.4182   22.1887 O   0  0  0  0  0  0  0  0  0  0  0  0
   10.1257  -16.6953   23.0158 N   0  0  0  0  0  0  0  0  0  0  0  0
    9.5510  -15.7975   24.0330 C   0  0  1  0  0  0  0  0  0  0  0  0
    8.0812  -15.8525   23.8276 C   0  0  0  0  0  0  0  0  0  0  0  0
    7.2390  -15.1727   24.8089 C   0  0  0  0  0  0  0  0  0  0  0  0
    6.4080  -15.7236   25.7826 C   0  0  0  0  0  0  0  0  0  0  0  0
    5.8230  -14.7194   26.4551 N   0  0  0  0  0  0  0  0  0  0  0  0
    6.2313  -13.5279   25.9689 C   0  0  0  0  0  0  0  0  0  0  0  0
    5.9503  -12.2265   26.3116 C   0  0  0  0  0  0  0  0  0  0  0  0
    6.5539  -11.1825   25.6259 C   0  0  0  0  0  0  0  0  0  0  0  0
    7.4222  -11.4666   24.6152 C   0  0  0  0  0  0  0  0  0  0  0  0
    7.7122  -12.7458   24.2617 C   0  0  0  0  0  0  0  0  0  0  0  0
    7.1004  -13.7902   24.9575 C   0  0  0  0  0  0  0  0  0  0  0  0
   10.0748  -16.1069   25.3565 C   0  0  0  0  0  0  0  0  0  0  0  0
   10.4090  -17.3067   25.6397 O   0  0  0  0  0  0  0  0  0  0  0  0
   10.5172  -14.2225   28.5409 C   0  0  0  0  0  0  0  0  0  0  0  0
   10.7651  -15.4766   27.6577 C   0  0  2  0  0  0  0  0  0  0  0  0
   10.2393  -15.1143   26.3536 N   0  0  0  0  0  0  0  0  0  0  0  0
   10.0032  -16.5481   28.3302 C   0  0  0  0  0  0  0  0  0  0  0  0
    8.9022  -16.9751   27.9603 O   0  0  0  0  0  0  0  0  0  0  0  0
   10.5644  -17.1201   29.4627 O   0  0  0  0  0  0  0  0  0  0  0  0
  2  3  1  0
  2  1  1  6
  4  5  1  0
  4  3  1  0
  5  6  2  0
  7  2  1  0
  8  7  2  0
  9  5  1  0
 10  7  1  0
 11 10  1  0
 11 12  1  1
 12 13  1  0
 13 14  2  0
 14 15  1  0
 16 15  1  0
 17 16  2  0
 18 17  1  0
 19 20  1  0
 19 18  2  0
 20 21  2  0
 21 13  1  0
 21 16  1  0
 22 26  1  0
 22 11  1  0
 23 22  2  0
 25 24  1  1
 25 27  1  0
 25 26  1  0
 27 29  1  0
 28 27  2  0
M  END
$$$$
