EWA.pdb
     RDKit          3D

 29 30  0  0  1  0  0  0  0  0999 V2000
    7.9387  -16.0852   20.2530 N   0  0  0  0  0  0  0  0  0  0  0  0
    8.3578  -17.0356   21.2495 C   0  0  1  0  0  0  0  0  0  0  0  0
    9.2449  -18.1174   20.6613 C   0  0  0  0  0  0  0  0  0  0  0  0
   10.2571  -17.5178   19.6944 C   0  0  0  0  0  0  0  0  0  0  0  0
   11.1221  -18.6233   19.2040 C   0  0  0  0  0  0  0  0  0  0  0  0
   10.9468  -19.1702   18.1003 O   0  0  0  0  0  0  0  0  0  0  0  0
    9.1611  -16.3527   22.2996 C   0  0  0  0  0  0  0  0  0  0  0  0
    9.8377  -15.3371   22.0129 O   0  0  0  0  0  0  0  0  0  0  0  0
   12.1705  -19.0733   19.9988 O   0  0  0  0  0  0  0  0  0  0  0  0
    9.1598  -16.8492   23.6189 N   0  0  0  0  0  0  0  0  0  0  0  0
   10.0341  -16.2406   24.6368 C   0  0  1  0  0  0  0  0  0  0  0  0
    9.2200  -16.1828   25.8775 C   0  0  0  0  0  0  0  0  0  0  0  0
    7.9769  -15.4168   25.8312 C   0  0  0  0  0  0  0  0  0  0  0  0
    6.6769  -15.8678   25.6102 C   0  0  0  0  0  0  0  0  0  0  0  0
    5.8509  -14.8100   25.6508 N   0  0  0  0  0  0  0  0  0  0  0  0
    6.5479  -13.6786   25.8895 C   0  0  0  0  0  0  0  0  0  0  0  0
    6.1808  -12.3623   26.0395 C   0  0  0  0  0  0  0  0  0  0  0  0
    7.1434  -11.3995   26.3061 C   0  0  0  0  0  0  0  0  0  0  0  0
    8.4478  -11.7777   26.4152 C   0  0  0  0  0  0  0  0  0  0  0  0
    8.8300  -13.0731   26.2698 C   0  0  0  0  0  0  0  0  0  0  0  0
    7.8545  -14.0353   26.0021 C   0  0  0  0  0  0  0  0  0  0  0  0
   11.3230  -16.9172   24.6881 C   0  0  0  0  0  0  0  0  0  0  0  0
   11.3664  -18.1844   24.8413 O   0  0  0  0  0  0  0  0  0  0  0  0
   14.8835  -15.9210   24.2255 C   0  0  0  0  0  0  0  0  0  0  0  0
   13.8065  -16.9224   24.7270 C   0  0  2  0  0  0  0  0  0  0  0  0
   12.5480  -16.2167   24.5641 N   0  0  0  0  0  0  0  0  0  0  0  0
   14.1722  -17.1701   26.1361 C   0  0  0  0  0  0  0  0  0  0  0  0
   13.4690  -16.8818   27.1127 O   0  0  0  0  0  0  0  0  0  0  0  0
   15.3971  -17.7723   26.3844 O   0  0  0  0  0  0  0  0  0  0  0  0
  2  3  1  0
  2  1  1  6
  4  5  1  0
  4  3  1  0
  5  6  2  0
  7  2  1  0
  8  7  2  0
  9  5  1  0
 10  7  1  0
 11 10  1  0
 11 12  1  1
 12 13  1  0
 13 14  2  0
 14 15  1  0
 16 15  1  0
 17 16  2  0
 18 17  1  0
 19 20  1  0
 19 18  2  0
 20 21  2  0
 21 13  1  0
 21 16  1  0
 22 26  1  0
 22 11  1  0
 23 22  2  0
 25 24  1  1
 25 27  1  0
 25 26  1  0
 27 29  1  0
 28 27  2  0
M  END
$$$$
