EWA.pdb
     RDKit          3D

 29 30  0  0  1  0  0  0  0  0999 V2000
   10.8792  -16.2609   19.9163 N   0  0  0  0  0  0  0  0  0  0  0  0
   10.8649  -17.0611   21.1127 C   0  0  1  0  0  0  0  0  0  0  0  0
   12.2409  -17.6098   21.4424 C   0  0  0  0  0  0  0  0  0  0  0  0
   12.9705  -18.0327   20.1744 C   0  0  0  0  0  0  0  0  0  0  0  0
   13.7430  -19.2639   20.4878 C   0  0  0  0  0  0  0  0  0  0  0  0
   13.3145  -20.4044   20.2358 O   0  0  0  0  0  0  0  0  0  0  0  0
   10.4489  -16.2317   22.2760 C   0  0  0  0  0  0  0  0  0  0  0  0
   10.8328  -15.0419   22.3695 O   0  0  0  0  0  0  0  0  0  0  0  0
   14.9933  -19.1512   21.0856 O   0  0  0  0  0  0  0  0  0  0  0  0
    9.6212  -16.7855   23.2735 N   0  0  0  0  0  0  0  0  0  0  0  0
    9.1848  -15.9590   24.4125 C   0  0  1  0  0  0  0  0  0  0  0  0
    7.7755  -16.3498   24.6710 C   0  0  0  0  0  0  0  0  0  0  0  0
    6.8641  -15.3089   25.1402 C   0  0  0  0  0  0  0  0  0  0  0  0
    5.5059  -15.4021   25.4381 C   0  0  0  0  0  0  0  0  0  0  0  0
    5.0763  -14.1920   25.8305 N   0  0  0  0  0  0  0  0  0  0  0  0
    6.0914  -13.3022   25.8055 C   0  0  0  0  0  0  0  0  0  0  0  0
    6.1801  -11.9678   26.1242 C   0  0  0  0  0  0  0  0  0  0  0  0
    7.3953  -11.3076   26.0153 C   0  0  0  0  0  0  0  0  0  0  0  0
    8.4900  -11.9983   25.5902 C   0  0  0  0  0  0  0  0  0  0  0  0
    8.4222  -13.3169   25.2703 C   0  0  0  0  0  0  0  0  0  0  0  0
    7.1953  -13.9733   25.3832 C   0  0  0  0  0  0  0  0  0  0  0  0
   10.1368  -16.0429   25.5118 C   0  0  0  0  0  0  0  0  0  0  0  0
   11.0771  -16.9063   25.4696 O   0  0  0  0  0  0  0  0  0  0  0  0
   10.7082  -14.1446   28.6772 C   0  0  0  0  0  0  0  0  0  0  0  0
   11.0425  -15.3100   27.7054 C   0  0  2  0  0  0  0  0  0  0  0  0
   10.0657  -15.1867   26.6380 N   0  0  0  0  0  0  0  0  0  0  0  0
   10.8755  -16.5250   28.5279 C   0  0  0  0  0  0  0  0  0  0  0  0
   11.6511  -16.8896   29.4206 O   0  0  0  0  0  0  0  0  0  0  0  0
    9.7644  -17.3184   28.2815 O   0  0  0  0  0  0  0  0  0  0  0  0
  2  3  1  0
  2  1  1  6
  4  5  1  0
  4  3  1  0
  5  6  2  0
  7  2  1  0
  8  7  2  0
  9  5  1  0
 10  7  1  0
 11 10  1  0
 11 12  1  1
 12 13  1  0
 13 14  2  0
 14 15  1  0
 16 15  1  0
 17 16  2  0
 18 17  1  0
 19 20  1  0
 19 18  2  0
 20 21  2  0
 21 13  1  0
 21 16  1  0
 22 26  1  0
 22 11  1  0
 23 22  2  0
 25 24  1  1
 25 27  1  0
 25 26  1  0
 27 29  1  0
 28 27  2  0
M  END
$$$$
