EWA.pdb
     RDKit          3D

 29 30  0  0  1  0  0  0  0  0999 V2000
    8.9167  -17.7939   21.5666 N   0  0  0  0  0  0  0  0  0  0  0  0
   10.3441  -17.8801   21.7307 C   0  0  1  0  0  0  0  0  0  0  0  0
   11.0862  -17.2786   20.5514 C   0  0  0  0  0  0  0  0  0  0  0  0
   10.8242  -18.0808   19.2837 C   0  0  0  0  0  0  0  0  0  0  0  0
   11.5997  -17.4505   18.1828 C   0  0  0  0  0  0  0  0  0  0  0  0
   12.8317  -17.2871   18.2411 O   0  0  0  0  0  0  0  0  0  0  0  0
   10.7664  -17.1129   22.9337 C   0  0  0  0  0  0  0  0  0  0  0  0
   11.9830  -17.0050   23.2159 O   0  0  0  0  0  0  0  0  0  0  0  0
   10.9356  -17.0225   17.0386 O   0  0  0  0  0  0  0  0  0  0  0  0
    9.7957  -16.5061   23.7563 N   0  0  0  0  0  0  0  0  0  0  0  0
   10.2065  -15.7901   24.9768 C   0  0  1  0  0  0  0  0  0  0  0  0
    9.6223  -14.4301   24.8559 C   0  0  0  0  0  0  0  0  0  0  0  0
    8.2740  -14.3238   24.3036 C   0  0  0  0  0  0  0  0  0  0  0  0
    7.0482  -14.4881   24.9459 C   0  0  0  0  0  0  0  0  0  0  0  0
    6.0712  -14.3011   24.0439 N   0  0  0  0  0  0  0  0  0  0  0  0
    6.5975  -14.0199   22.8328 C   0  0  0  0  0  0  0  0  0  0  0  0
    6.0402  -13.7356   21.6087 C   0  0  0  0  0  0  0  0  0  0  0  0
    6.8568  -13.4597   20.5217 C   0  0  0  0  0  0  0  0  0  0  0  0
    8.2091  -13.4757   20.6867 C   0  0  0  0  0  0  0  0  0  0  0  0
    8.7784  -13.7548   21.8881 C   0  0  0  0  0  0  0  0  0  0  0  0
    7.9489  -14.0309   22.9766 C   0  0  0  0  0  0  0  0  0  0  0  0
    9.8977  -16.5705   26.1673 C   0  0  0  0  0  0  0  0  0  0  0  0
   10.2183  -16.1208   27.3190 O   0  0  0  0  0  0  0  0  0  0  0  0
    8.2231  -19.8424   26.8370 C   0  0  0  0  0  0  0  0  0  0  0  0
    9.0148  -18.5917   27.3095 C   0  0  2  0  0  0  0  0  0  0  0  0
    9.2383  -17.8223   26.0985 N   0  0  0  0  0  0  0  0  0  0  0  0
   10.2498  -19.1474   27.8984 C   0  0  0  0  0  0  0  0  0  0  0  0
   10.3057  -19.7882   28.9555 O   0  0  0  0  0  0  0  0  0  0  0  0
   11.4381  -18.9352   27.2145 O   0  0  0  0  0  0  0  0  0  0  0  0
  2  3  1  0
  2  1  1  6
  4  5  1  0
  4  3  1  0
  5  6  2  0
  7  2  1  0
  8  7  2  0
  9  5  1  0
 10  7  1  0
 11 10  1  0
 11 12  1  1
 12 13  1  0
 13 14  2  0
 14 15  1  0
 16 15  1  0
 17 16  2  0
 18 17  1  0
 19 20  1  0
 19 18  2  0
 20 21  2  0
 21 13  1  0
 21 16  1  0
 22 26  1  0
 22 11  1  0
 23 22  2  0
 25 24  1  6
 25 27  1  0
 25 26  1  0
 27 29  1  0
 28 27  2  0
M  END
$$$$
