EWA.pdb
     RDKit          3D

 29 30  0  0  1  0  0  0  0  0999 V2000
    6.6165  -15.5885   20.3332 N   0  0  0  0  0  0  0  0  0  0  0  0
    7.8499  -16.3166   20.4768 C   0  0  1  0  0  0  0  0  0  0  0  0
    8.7642  -16.1212   19.2815 C   0  0  0  0  0  0  0  0  0  0  0  0
    8.1804  -16.7856   18.0418 C   0  0  0  0  0  0  0  0  0  0  0  0
    9.3080  -17.1000   17.1251 C   0  0  0  0  0  0  0  0  0  0  0  0
   10.4974  -16.9172   17.4410 O   0  0  0  0  0  0  0  0  0  0  0  0
    8.5963  -15.8256   21.6668 C   0  0  0  0  0  0  0  0  0  0  0  0
    9.1807  -14.7172   21.6295 O   0  0  0  0  0  0  0  0  0  0  0  0
    9.0376  -17.6184   15.8637 O   0  0  0  0  0  0  0  0  0  0  0  0
    8.6450  -16.6088   22.8378 N   0  0  0  0  0  0  0  0  0  0  0  0
    9.4821  -16.1854   23.9740 C   0  0  1  0  0  0  0  0  0  0  0  0
    8.5877  -16.2129   25.1592 C   0  0  0  0  0  0  0  0  0  0  0  0
    7.4609  -15.2831   25.1732 C   0  0  0  0  0  0  0  0  0  0  0  0
    6.1449  -15.4944   24.7664 C   0  0  0  0  0  0  0  0  0  0  0  0
    5.4570  -14.3571   24.9562 N   0  0  0  0  0  0  0  0  0  0  0  0
    6.2607  -13.4024   25.4715 C   0  0  0  0  0  0  0  0  0  0  0  0
    6.0466  -12.0999   25.8556 C   0  0  0  0  0  0  0  0  0  0  0  0
    7.0886  -11.3521   26.3844 C   0  0  0  0  0  0  0  0  0  0  0  0
    8.3175  -11.9257   26.5148 C   0  0  0  0  0  0  0  0  0  0  0  0
    8.5487  -13.2109   26.1405 C   0  0  0  0  0  0  0  0  0  0  0  0
    7.4942  -13.9561   25.6097 C   0  0  0  0  0  0  0  0  0  0  0  0
   10.7186  -16.9537   24.0247 C   0  0  0  0  0  0  0  0  0  0  0  0
   10.6797  -18.2238   23.8962 O   0  0  0  0  0  0  0  0  0  0  0  0
   14.3514  -16.1613   24.1012 C   0  0  0  0  0  0  0  0  0  0  0  0
   13.1770  -17.1557   24.3161 C   0  0  2  0  0  0  0  0  0  0  0  0
   11.9818  -16.3386   24.2045 N   0  0  0  0  0  0  0  0  0  0  0  0
   13.4046  -17.6958   25.6715 C   0  0  0  0  0  0  0  0  0  0  0  0
   12.6813  -17.4796   26.6520 O   0  0  0  0  0  0  0  0  0  0  0  0
   14.5136  -18.5077   25.8603 O   0  0  0  0  0  0  0  0  0  0  0  0
  2  3  1  0
  2  1  1  6
  4  5  1  0
  4  3  1  0
  5  6  2  0
  7  2  1  0
  8  7  2  0
  9  5  1  0
 10  7  1  0
 11 10  1  0
 11 12  1  1
 12 13  1  0
 13 14  2  0
 14 15  1  0
 16 15  1  0
 17 16  2  0
 18 17  1  0
 19 20  1  0
 19 18  2  0
 20 21  2  0
 21 13  1  0
 21 16  1  0
 22 26  1  0
 22 11  1  0
 23 22  2  0
 25 24  1  1
 25 27  1  0
 25 26  1  0
 27 29  1  0
 28 27  2  0
M  END
$$$$
