EWA.pdb
     RDKit          3D

 29 30  0  0  1  0  0  0  0  0999 V2000
   10.5393  -18.7270   21.8343 N   0  0  0  0  0  0  0  0  0  0  0  0
   11.6177  -17.8136   22.1078 C   0  0  1  0  0  0  0  0  0  0  0  0
   11.9318  -16.9351   20.9109 C   0  0  0  0  0  0  0  0  0  0  0  0
   12.3728  -17.7800   19.7230 C   0  0  0  0  0  0  0  0  0  0  0  0
   12.8002  -16.8516   18.6431 C   0  0  0  0  0  0  0  0  0  0  0  0
   12.3044  -16.8795   17.5023 O   0  0  0  0  0  0  0  0  0  0  0  0
   11.2412  -16.8982   23.2188 C   0  0  0  0  0  0  0  0  0  0  0  0
   11.9134  -15.8626   23.4358 O   0  0  0  0  0  0  0  0  0  0  0  0
   13.7907  -15.9114   18.9040 O   0  0  0  0  0  0  0  0  0  0  0  0
   10.1259  -17.1967   24.0276 N   0  0  0  0  0  0  0  0  0  0  0  0
    9.7078  -16.2575   25.0831 C   0  0  1  0  0  0  0  0  0  0  0  0
    8.2252  -16.3348   25.1201 C   0  0  0  0  0  0  0  0  0  0  0  0
    7.4788  -15.2049   24.5720 C   0  0  0  0  0  0  0  0  0  0  0  0
    6.8288  -15.0965   23.3440 C   0  0  0  0  0  0  0  0  0  0  0  0
    6.2790  -13.8741   23.2643 N   0  0  0  0  0  0  0  0  0  0  0  0
    6.5368  -13.1690   24.3865 C   0  0  0  0  0  0  0  0  0  0  0  0
    6.1925  -11.9047   24.8023 C   0  0  0  0  0  0  0  0  0  0  0  0
    6.5958  -11.4505   26.0496 C   0  0  0  0  0  0  0  0  0  0  0  0
    7.3331  -12.2718   26.8483 C   0  0  0  0  0  0  0  0  0  0  0  0
    7.6835  -13.5240   26.4549 C   0  0  0  0  0  0  0  0  0  0  0  0
    7.2729  -13.9729   25.1984 C   0  0  0  0  0  0  0  0  0  0  0  0
   10.4424  -16.5003   26.3172 C   0  0  0  0  0  0  0  0  0  0  0  0
   11.0606  -17.6064   26.4780 O   0  0  0  0  0  0  0  0  0  0  0  0
   11.0517  -14.5806   29.4642 C   0  0  0  0  0  0  0  0  0  0  0  0
   11.2551  -15.8331   28.5675 C   0  0  2  0  0  0  0  0  0  0  0  0
   10.5070  -15.5413   27.3577 N   0  0  0  0  0  0  0  0  0  0  0  0
   10.6915  -16.9421   29.3632 C   0  0  0  0  0  0  0  0  0  0  0  0
    9.5877  -17.4662   29.1675 O   0  0  0  0  0  0  0  0  0  0  0  0
   11.4577  -17.4345   30.4098 O   0  0  0  0  0  0  0  0  0  0  0  0
  2  3  1  0
  2  1  1  6
  4  5  1  0
  4  3  1  0
  5  6  2  0
  7  2  1  0
  8  7  2  0
  9  5  1  0
 10  7  1  0
 11 10  1  0
 11 12  1  1
 12 13  1  0
 13 14  2  0
 14 15  1  0
 16 15  1  0
 17 16  2  0
 18 17  1  0
 19 20  1  0
 19 18  2  0
 20 21  2  0
 21 13  1  0
 21 16  1  0
 22 26  1  0
 22 11  1  0
 23 22  2  0
 25 24  1  1
 25 27  1  0
 25 26  1  0
 27 29  1  0
 28 27  2  0
M  END
$$$$
