EWA.pdb
     RDKit          3D

 29 30  0  0  1  0  0  0  0  0999 V2000
   10.9378  -17.9507   20.2645 N   0  0  0  0  0  0  0  0  0  0  0  0
   11.3139  -18.2515   21.6209 C   0  0  1  0  0  0  0  0  0  0  0  0
   12.7951  -18.5585   21.7421 C   0  0  0  0  0  0  0  0  0  0  0  0
   13.2578  -19.4441   20.5928 C   0  0  0  0  0  0  0  0  0  0  0  0
   12.9322  -20.8508   20.9481 C   0  0  0  0  0  0  0  0  0  0  0  0
   13.3672  -21.3983   21.9771 O   0  0  0  0  0  0  0  0  0  0  0  0
   11.0512  -17.0764   22.4954 C   0  0  0  0  0  0  0  0  0  0  0  0
   11.8155  -16.0834   22.4610 O   0  0  0  0  0  0  0  0  0  0  0  0
   12.1117  -21.5943   20.1072 O   0  0  0  0  0  0  0  0  0  0  0  0
    9.9402  -17.0808   23.3629 N   0  0  0  0  0  0  0  0  0  0  0  0
    9.6498  -15.9002   24.1953 C   0  0  1  0  0  0  0  0  0  0  0  0
    8.2105  -15.6049   23.9786 C   0  0  0  0  0  0  0  0  0  0  0  0
    7.8098  -14.2004   23.9448 C   0  0  0  0  0  0  0  0  0  0  0  0
    7.9570  -13.2712   22.9167 C   0  0  0  0  0  0  0  0  0  0  0  0
    7.4465  -12.1002   23.3302 N   0  0  0  0  0  0  0  0  0  0  0  0
    6.9675  -12.2144   24.5874 C   0  0  0  0  0  0  0  0  0  0  0  0
    6.3437  -11.3340   25.4393 C   0  0  0  0  0  0  0  0  0  0  0  0
    5.9352  -11.7561   26.6961 C   0  0  0  0  0  0  0  0  0  0  0  0
    6.1615  -13.0469   27.0686 C   0  0  0  0  0  0  0  0  0  0  0  0
    6.7767  -13.9313   26.2411 C   0  0  0  0  0  0  0  0  0  0  0  0
    7.1840  -13.4980   24.9781 C   0  0  0  0  0  0  0  0  0  0  0  0
   10.1154  -16.0986   25.5611 C   0  0  0  0  0  0  0  0  0  0  0  0
   10.1949  -17.2814   26.0366 O   0  0  0  0  0  0  0  0  0  0  0  0
   10.8093  -13.9547   28.4973 C   0  0  0  0  0  0  0  0  0  0  0  0
   11.0439  -15.2751   27.7127 C   0  0  2  0  0  0  0  0  0  0  0  0
   10.4975  -15.0171   26.3923 N   0  0  0  0  0  0  0  0  0  0  0  0
   10.2933  -16.2893   28.4799 C   0  0  0  0  0  0  0  0  0  0  0  0
   10.6639  -16.7863   29.5509 O   0  0  0  0  0  0  0  0  0  0  0  0
    9.0800  -16.7176   27.9610 O   0  0  0  0  0  0  0  0  0  0  0  0
  2  3  1  0
  2  1  1  6
  4  5  1  0
  4  3  1  0
  5  6  2  0
  7  2  1  0
  8  7  2  0
  9  5  1  0
 10  7  1  0
 11 10  1  0
 11 12  1  1
 12 13  1  0
 13 14  2  0
 14 15  1  0
 16 15  1  0
 17 16  2  0
 18 17  1  0
 19 20  1  0
 19 18  2  0
 20 21  2  0
 21 13  1  0
 21 16  1  0
 22 26  1  0
 22 11  1  0
 23 22  2  0
 25 24  1  1
 25 27  1  0
 25 26  1  0
 27 29  1  0
 28 27  2  0
M  END
$$$$
