EWA.pdb
     RDKit          3D

 29 30  0  0  1  0  0  0  0  0999 V2000
   10.4047  -18.4391   21.9848 N   0  0  0  0  0  0  0  0  0  0  0  0
   11.0844  -17.1703   21.9911 C   0  0  1  0  0  0  0  0  0  0  0  0
   10.6756  -16.3042   20.8139 C   0  0  0  0  0  0  0  0  0  0  0  0
   11.7798  -16.2629   19.7659 C   0  0  0  0  0  0  0  0  0  0  0  0
   11.6908  -17.5141   18.9675 C   0  0  0  0  0  0  0  0  0  0  0  0
   10.7298  -18.2989   19.0593 O   0  0  0  0  0  0  0  0  0  0  0  0
   10.7322  -16.4092   23.2203 C   0  0  0  0  0  0  0  0  0  0  0  0
   11.2324  -15.2781   23.4248 O   0  0  0  0  0  0  0  0  0  0  0  0
   12.7135  -17.8317   18.0807 O   0  0  0  0  0  0  0  0  0  0  0  0
    9.8336  -16.9618   24.1553 N   0  0  0  0  0  0  0  0  0  0  0  0
    9.5012  -16.2216   25.3852 C   0  0  1  0  0  0  0  0  0  0  0  0
    8.0689  -16.5120   25.6495 C   0  0  0  0  0  0  0  0  0  0  0  0
    7.0903  -15.5154   25.2210 C   0  0  0  0  0  0  0  0  0  0  0  0
    5.9823  -15.6752   24.3910 C   0  0  0  0  0  0  0  0  0  0  0  0
    5.3711  -14.4858   24.2698 N   0  0  0  0  0  0  0  0  0  0  0  0
    6.0266  -13.5460   24.9839 C   0  0  0  0  0  0  0  0  0  0  0  0
    5.8055  -12.2067   25.2017 C   0  0  0  0  0  0  0  0  0  0  0  0
    6.6612  -11.4866   26.0224 C   0  0  0  0  0  0  0  0  0  0  0  0
    7.7159  -12.1238   26.6035 C   0  0  0  0  0  0  0  0  0  0  0  0
    7.9511  -13.4462   26.4000 C   0  0  0  0  0  0  0  0  0  0  0  0
    7.0846  -14.1632   25.5730 C   0  0  0  0  0  0  0  0  0  0  0  0
   10.4676  -16.5009   26.4385 C   0  0  0  0  0  0  0  0  0  0  0  0
   11.2347  -17.5174   26.3398 O   0  0  0  0  0  0  0  0  0  0  0  0
   11.2966  -14.9593   29.7393 C   0  0  0  0  0  0  0  0  0  0  0  0
   11.4608  -16.0802   28.6760 C   0  0  2  0  0  0  0  0  0  0  0  0
   10.5989  -15.6732   27.5805 N   0  0  0  0  0  0  0  0  0  0  0  0
   11.0070  -17.3034   29.3678 C   0  0  0  0  0  0  0  0  0  0  0  0
    9.9411  -17.8909   29.1440 O   0  0  0  0  0  0  0  0  0  0  0  0
   11.8388  -17.8348   30.3427 O   0  0  0  0  0  0  0  0  0  0  0  0
  2  3  1  0
  2  1  1  1
  4  5  1  0
  4  3  1  0
  5  6  2  0
  7  2  1  0
  8  7  2  0
  9  5  1  0
 10  7  1  0
 11 10  1  0
 11 12  1  1
 12 13  1  0
 13 14  2  0
 14 15  1  0
 16 15  1  0
 17 16  2  0
 18 17  1  0
 19 20  1  0
 19 18  2  0
 20 21  2  0
 21 13  1  0
 21 16  1  0
 22 26  1  0
 22 11  1  0
 23 22  2  0
 25 24  1  1
 25 27  1  0
 25 26  1  0
 27 29  1  0
 28 27  2  0
M  END
$$$$
