VVW.pdb
     RDKit          3D

 29 30  0  0  1  0  0  0  0  0999 V2000
   27.6668  -16.5785  -16.5650 C   0  0  0  0  0  0  0  0  0  0  0  0
   27.5524  -17.5974  -15.4560 C   0  0  2  0  0  0  0  0  0  0  0  0
   28.9005  -18.3003  -15.3472 C   0  0  0  0  0  0  0  0  0  0  0  0
   26.4311  -18.5836  -15.7248 C   0  0  2  0  0  0  0  0  0  0  0  0
   25.7240  -18.1211  -16.8826 N   0  0  0  0  0  0  0  0  0  0  0  0
   25.5588  -18.7510  -14.5441 C   0  0  0  0  0  0  0  0  0  0  0  0
   25.0670  -17.7520  -13.9604 O   0  0  0  0  0  0  0  0  0  0  0  0
   22.2288  -20.3123  -13.8258 C   0  0  0  0  0  0  0  0  0  0  0  0
   23.2295  -20.9484  -12.9294 C   0  0  2  0  0  0  0  0  0  0  0  0
   22.6020  -21.1003  -11.5479 C   0  0  0  0  0  0  0  0  0  0  0  0
   24.4963  -20.1533  -12.7406 C   0  0  2  0  0  0  0  0  0  0  0  0
   25.2165  -20.0289  -13.9907 N   0  0  0  0  0  0  0  0  0  0  0  0
   25.3389  -20.6568  -11.6406 C   0  0  0  0  0  0  0  0  0  0  0  0
   25.8107  -21.8168  -11.6902 O   0  0  0  0  0  0  0  0  0  0  0  0
   25.6429  -19.8676  -10.5084 N   0  0  0  0  0  0  0  0  0  0  0  0
   26.4334  -20.4553   -9.4379 C   0  0  1  0  0  0  0  0  0  0  0  0
   27.3951  -19.3938   -8.8739 C   0  0  0  0  0  0  0  0  0  0  0  0
   28.2646  -20.0458   -7.8861 C   0  0  0  0  0  0  0  0  0  0  0  0
   28.9675  -21.2254   -8.0224 C   0  0  0  0  0  0  0  0  0  0  0  0
   29.6331  -21.4616   -6.8815 N   0  0  0  0  0  0  0  0  0  0  0  0
   29.3749  -20.4571   -6.0074 C   0  0  0  0  0  0  0  0  0  0  0  0
   29.8076  -20.2285   -4.7104 C   0  0  0  0  0  0  0  0  0  0  0  0
   29.4172  -19.1291   -3.9891 C   0  0  0  0  0  0  0  0  0  0  0  0
   28.5667  -18.2428   -4.6040 C   0  0  0  0  0  0  0  0  0  0  0  0
   28.1299  -18.4598   -5.8933 C   0  0  0  0  0  0  0  0  0  0  0  0
   28.5233  -19.5731   -6.6280 C   0  0  0  0  0  0  0  0  0  0  0  0
   25.5850  -21.0024   -8.3705 C   0  0  0  0  0  0  0  0  0  0  0  0
   24.4781  -20.4851   -8.1270 O   0  0  0  0  0  0  0  0  0  0  0  0
   25.9936  -22.0876   -7.6259 O   0  0  0  0  0  0  0  0  0  0  0  0
  2  1  1  6
  2  3  1  0
  4  5  1  6
  4  2  1  0
  6  4  1  0
  7  6  2  0
  9  8  1  6
  9 11  1  0
 10  9  1  0
 11 12  1  6
 12  6  1  0
 13 11  1  0
 13 14  2  0
 15 16  1  0
 15 13  1  0
 16 17  1  1
 18 17  1  0
 19 18  2  0
 20 19  1  0
 21 20  1  0
 21 26  2  0
 22 21  1  0
 23 22  2  0
 23 24  1  0
 24 25  2  0
 25 26  1  0
 26 18  1  0
 27 16  1  0
 28 27  2  0
 29 27  1  0
M  END
$$$$
