VVW.pdb
     RDKit          3D

 29 30  0  0  1  0  0  0  0  0999 V2000
   26.4898  -17.6861  -15.5949 C   0  0  0  0  0  0  0  0  0  0  0  0
   25.2224  -18.4744  -15.8265 C   0  0  2  0  0  0  0  0  0  0  0  0
   24.2040  -17.5220  -16.4422 C   0  0  0  0  0  0  0  0  0  0  0  0
   24.7058  -19.0824  -14.5359 C   0  0  2  0  0  0  0  0  0  0  0  0
   24.3264  -18.0003  -13.6760 N   0  0  0  0  0  0  0  0  0  0  0  0
   25.7017  -19.9853  -13.9227 C   0  0  0  0  0  0  0  0  0  0  0  0
   26.0183  -21.0673  -14.4792 O   0  0  0  0  0  0  0  0  0  0  0  0
   29.2508  -19.8326  -13.3074 C   0  0  0  0  0  0  0  0  0  0  0  0
   28.6517  -20.1495  -11.9844 C   0  0  2  0  0  0  0  0  0  0  0  0
   29.4882  -21.2460  -11.3339 C   0  0  0  0  0  0  0  0  0  0  0  0
   27.2372  -20.6672  -12.0452 C   0  0  2  0  0  0  0  0  0  0  0  0
   26.3638  -19.7038  -12.6822 N   0  0  0  0  0  0  0  0  0  0  0  0
   26.7304  -21.1254  -10.7387 C   0  0  0  0  0  0  0  0  0  0  0  0
   27.0828  -22.2383  -10.2828 O   0  0  0  0  0  0  0  0  0  0  0  0
   25.8446  -20.3438   -9.9631 N   0  0  0  0  0  0  0  0  0  0  0  0
   25.0682  -20.9950   -8.9192 C   0  0  1  0  0  0  0  0  0  0  0  0
   25.0099  -20.0798   -7.6828 C   0  0  0  0  0  0  0  0  0  0  0  0
   26.3641  -19.5716   -7.4280 C   0  0  0  0  0  0  0  0  0  0  0  0
   27.0558  -18.6095   -8.1351 C   0  0  0  0  0  0  0  0  0  0  0  0
   28.2613  -18.4459   -7.5689 N   0  0  0  0  0  0  0  0  0  0  0  0
   28.3645  -19.2842   -6.5076 C   0  0  0  0  0  0  0  0  0  0  0  0
   29.3904  -19.5039   -5.6016 C   0  0  0  0  0  0  0  0  0  0  0  0
   29.2879  -20.4174   -4.5835 C   0  0  0  0  0  0  0  0  0  0  0  0
   28.1130  -21.1225   -4.4869 C   0  0  0  0  0  0  0  0  0  0  0  0
   27.0860  -20.9124   -5.3821 C   0  0  0  0  0  0  0  0  0  0  0  0
   27.1859  -19.9873   -6.4156 C   0  0  0  0  0  0  0  0  0  0  0  0
   23.7133  -21.3315   -9.3768 C   0  0  0  0  0  0  0  0  0  0  0  0
   23.3317  -20.9782  -10.5090 O   0  0  0  0  0  0  0  0  0  0  0  0
   22.8473  -22.0375   -8.5700 O   0  0  0  0  0  0  0  0  0  0  0  0
  2  1  1  1
  2  3  1  0
  4  5  1  1
  4  2  1  0
  6  4  1  0
  7  6  2  0
  9  8  1  6
  9 11  1  0
 10  9  1  0
 11 12  1  1
 12  6  1  0
 13 11  1  0
 13 14  2  0
 15 16  1  0
 15 13  1  0
 16 17  1  1
 18 17  1  0
 19 18  2  0
 20 19  1  0
 21 20  1  0
 21 26  2  0
 22 21  1  0
 23 22  2  0
 23 24  1  0
 24 25  2  0
 25 26  1  0
 26 18  1  0
 27 16  1  0
 28 27  2  0
 29 27  1  0
M  END
$$$$
