VVW.pdb
     RDKit          3D

 29 30  0  0  1  0  0  0  0  0999 V2000
   26.9816  -17.9507  -18.1617 C   0  0  0  0  0  0  0  0  0  0  0  0
   28.2366  -17.9388  -17.3214 C   0  0  2  0  0  0  0  0  0  0  0  0
   29.4137  -18.1621  -18.2639 C   0  0  0  0  0  0  0  0  0  0  0  0
   28.1851  -18.9975  -16.2357 C   0  0  2  0  0  0  0  0  0  0  0  0
   28.0860  -20.2711  -16.8856 N   0  0  0  0  0  0  0  0  0  0  0  0
   27.0831  -18.7477  -15.2838 C   0  0  0  0  0  0  0  0  0  0  0  0
   27.0091  -17.6612  -14.6556 O   0  0  0  0  0  0  0  0  0  0  0  0
   23.2410  -20.2816  -15.7412 C   0  0  0  0  0  0  0  0  0  0  0  0
   23.6775  -19.1481  -14.8842 C   0  0  2  0  0  0  0  0  0  0  0  0
   23.9447  -17.9467  -15.7845 C   0  0  0  0  0  0  0  0  0  0  0  0
   24.9488  -19.3987  -14.1138 C   0  0  2  0  0  0  0  0  0  0  0  0
   26.0441  -19.6981  -15.0124 N   0  0  0  0  0  0  0  0  0  0  0  0
   24.7917  -20.4028  -13.0458 C   0  0  0  0  0  0  0  0  0  0  0  0
   25.1141  -21.5961  -13.2524 O   0  0  0  0  0  0  0  0  0  0  0  0
   24.2817  -20.0672  -11.7713 N   0  0  0  0  0  0  0  0  0  0  0  0
   24.0456  -21.1329  -10.8096 C   0  0  1  0  0  0  0  0  0  0  0  0
   24.5280  -20.6799   -9.4197 C   0  0  0  0  0  0  0  0  0  0  0  0
   25.8509  -20.0613   -9.5759 C   0  0  0  0  0  0  0  0  0  0  0  0
   26.2007  -18.7430   -9.3666 C   0  0  0  0  0  0  0  0  0  0  0  0
   27.5095  -18.6010   -9.6262 N   0  0  0  0  0  0  0  0  0  0  0  0
   28.0152  -19.8027  -10.0001 C   0  0  0  0  0  0  0  0  0  0  0  0
   29.2935  -20.1912  -10.3699 C   0  0  0  0  0  0  0  0  0  0  0  0
   29.5961  -21.4825  -10.7199 C   0  0  0  0  0  0  0  0  0  0  0  0
   28.5725  -22.3981  -10.6921 C   0  0  0  0  0  0  0  0  0  0  0  0
   27.2975  -22.0233  -10.3260 C   0  0  0  0  0  0  0  0  0  0  0  0
   26.9865  -20.7153   -9.9704 C   0  0  0  0  0  0  0  0  0  0  0  0
   22.6296  -21.5219  -10.7632 C   0  0  0  0  0  0  0  0  0  0  0  0
   21.7796  -20.8567  -11.3854 O   0  0  0  0  0  0  0  0  0  0  0  0
   22.2191  -22.6192  -10.0376 O   0  0  0  0  0  0  0  0  0  0  0  0
  2  1  1  6
  2  3  1  0
  4  5  1  6
  4  2  1  0
  6  4  1  0
  7  6  2  0
  9  8  1  6
  9 11  1  0
 10  9  1  0
 11 12  1  6
 12  6  1  0
 13 11  1  0
 13 14  2  0
 15 16  1  0
 15 13  1  0
 16 17  1  1
 18 17  1  0
 19 18  2  0
 20 19  1  0
 21 20  1  0
 21 26  2  0
 22 21  1  0
 23 22  2  0
 23 24  1  0
 24 25  2  0
 25 26  1  0
 26 18  1  0
 27 16  1  0
 28 27  2  0
 29 27  1  0
M  END
$$$$
