VVW.pdb
     RDKit          3D

 29 30  0  0  1  0  0  0  0  0999 V2000
   25.5208  -25.4662  -18.3643 C   0  0  0  0  0  0  0  0  0  0  0  0
   26.2169  -24.7166  -17.2531 C   0  0  2  0  0  0  0  0  0  0  0  0
   25.1730  -24.4263  -16.1809 C   0  0  0  0  0  0  0  0  0  0  0  0
   26.8586  -23.4403  -17.7644 C   0  0  2  0  0  0  0  0  0  0  0  0
   27.9370  -23.8210  -18.6284 N   0  0  0  0  0  0  0  0  0  0  0  0
   27.2892  -22.5651  -16.6546 C   0  0  0  0  0  0  0  0  0  0  0  0
   28.3257  -22.8274  -15.9932 O   0  0  0  0  0  0  0  0  0  0  0  0
   28.0940  -18.7502  -16.4731 C   0  0  0  0  0  0  0  0  0  0  0  0
   27.0324  -19.1178  -15.4996 C   0  0  2  0  0  0  0  0  0  0  0  0
   27.2860  -18.3499  -14.2068 C   0  0  0  0  0  0  0  0  0  0  0  0
   26.9988  -20.5793  -15.1316 C   0  0  2  0  0  0  0  0  0  0  0  0
   26.5783  -21.3841  -16.2596 N   0  0  0  0  0  0  0  0  0  0  0  0
   26.2199  -20.8522  -13.9099 C   0  0  0  0  0  0  0  0  0  0  0  0
   24.9696  -20.7701  -13.9299 O   0  0  0  0  0  0  0  0  0  0  0  0
   26.8393  -21.2104  -12.6912 N   0  0  0  0  0  0  0  0  0  0  0  0
   26.0087  -21.3885  -11.5103 C   0  0  1  0  0  0  0  0  0  0  0  0
   26.8799  -21.8971  -10.3475 C   0  0  0  0  0  0  0  0  0  0  0  0
   26.7197  -20.9708   -9.2192 C   0  0  0  0  0  0  0  0  0  0  0  0
   25.6519  -20.1393   -8.9495 C   0  0  0  0  0  0  0  0  0  0  0  0
   25.9125  -19.4595   -7.8225 N   0  0  0  0  0  0  0  0  0  0  0  0
   27.1297  -19.8344   -7.3559 C   0  0  0  0  0  0  0  0  0  0  0  0
   27.8537  -19.4369   -6.2426 C   0  0  0  0  0  0  0  0  0  0  0  0
   29.0914  -19.9504   -5.9498 C   0  0  0  0  0  0  0  0  0  0  0  0
   29.6024  -20.8903   -6.8114 C   0  0  0  0  0  0  0  0  0  0  0  0
   28.8915  -21.2932   -7.9216 C   0  0  0  0  0  0  0  0  0  0  0  0
   27.6364  -20.7752   -8.2220 C   0  0  0  0  0  0  0  0  0  0  0  0
   25.3208  -20.1459  -11.1347 C   0  0  0  0  0  0  0  0  0  0  0  0
   25.8903  -19.0480  -11.2850 O   0  0  0  0  0  0  0  0  0  0  0  0
   24.0450  -20.1711  -10.6143 O   0  0  0  0  0  0  0  0  0  0  0  0
  2  1  1  6
  2  3  1  0
  4  5  1  1
  4  2  1  0
  6  4  1  0
  7  6  2  0
  9  8  1  6
  9 11  1  0
 10  9  1  0
 11 12  1  6
 12  6  1  0
 13 11  1  0
 13 14  2  0
 15 16  1  0
 15 13  1  0
 16 17  1  1
 18 17  1  0
 19 18  2  0
 20 19  1  0
 21 20  1  0
 21 26  2  0
 22 21  1  0
 23 22  2  0
 23 24  1  0
 24 25  2  0
 25 26  1  0
 26 18  1  0
 27 16  1  0
 28 27  2  0
 29 27  1  0
M  END
$$$$
