VVW.pdb
     RDKit          3D

 29 30  0  0  1  0  0  0  0  0999 V2000
   25.6311  -14.8199  -15.5454 C   0  0  0  0  0  0  0  0  0  0  0  0
   26.1470  -15.8282  -14.5462 C   0  0  2  0  0  0  0  0  0  0  0  0
   27.4692  -15.2946  -14.0073 C   0  0  0  0  0  0  0  0  0  0  0  0
   26.3162  -17.1969  -15.1789 C   0  0  2  0  0  0  0  0  0  0  0  0
   25.7371  -17.1365  -16.4886 N   0  0  0  0  0  0  0  0  0  0  0  0
   25.7316  -18.2615  -14.3376 C   0  0  0  0  0  0  0  0  0  0  0  0
   24.4893  -18.3298  -14.1571 O   0  0  0  0  0  0  0  0  0  0  0  0
   25.5513  -21.7919  -14.9077 C   0  0  0  0  0  0  0  0  0  0  0  0
   26.1188  -21.6652  -13.5397 C   0  0  2  0  0  0  0  0  0  0  0  0
   25.4330  -22.6908  -12.6435 C   0  0  0  0  0  0  0  0  0  0  0  0
   25.9045  -20.3197  -12.8947 C   0  0  2  0  0  0  0  0  0  0  0  0
   26.5143  -19.2688  -13.6825 N   0  0  0  0  0  0  0  0  0  0  0  0
   26.3106  -20.2840  -11.4779 C   0  0  0  0  0  0  0  0  0  0  0  0
   27.5131  -20.1068  -11.1728 O   0  0  0  0  0  0  0  0  0  0  0  0
   25.3791  -20.4448  -10.4274 N   0  0  0  0  0  0  0  0  0  0  0  0
   25.8742  -20.7511   -9.0942 C   0  0  1  0  0  0  0  0  0  0  0  0
   26.1790  -19.4381   -8.3507 C   0  0  0  0  0  0  0  0  0  0  0  0
   26.5160  -19.7697   -6.9602 C   0  0  0  0  0  0  0  0  0  0  0  0
   25.7364  -20.4305   -6.0331 C   0  0  0  0  0  0  0  0  0  0  0  0
   26.4231  -20.5225   -4.8840 N   0  0  0  0  0  0  0  0  0  0  0  0
   27.6338  -19.9336   -5.0484 C   0  0  0  0  0  0  0  0  0  0  0  0
   28.7010  -19.7601   -4.1809 C   0  0  0  0  0  0  0  0  0  0  0  0
   29.8558  -19.1218   -4.5558 C   0  0  0  0  0  0  0  0  0  0  0  0
   29.9240  -18.6499   -5.8440 C   0  0  0  0  0  0  0  0  0  0  0  0
   28.8690  -18.8167   -6.7155 C   0  0  0  0  0  0  0  0  0  0  0  0
   27.6966  -19.4632   -6.3394 C   0  0  0  0  0  0  0  0  0  0  0  0
   24.9191  -21.5665   -8.3317 C   0  0  0  0  0  0  0  0  0  0  0  0
   23.6971  -21.4650   -8.5523 O   0  0  0  0  0  0  0  0  0  0  0  0
   25.3528  -22.4504   -7.3674 O   0  0  0  0  0  0  0  0  0  0  0  0
  2  1  1  6
  2  3  1  0
  4  5  1  6
  4  2  1  0
  6  4  1  0
  7  6  2  0
  9  8  1  6
  9 11  1  0
 10  9  1  0
 11 12  1  6
 12  6  1  0
 13 11  1  0
 13 14  2  0
 15 16  1  0
 15 13  1  0
 16 17  1  1
 18 17  1  0
 19 18  2  0
 20 19  1  0
 21 20  1  0
 21 26  2  0
 22 21  1  0
 23 22  2  0
 23 24  1  0
 24 25  2  0
 25 26  1  0
 26 18  1  0
 27 16  1  0
 28 27  2  0
 29 27  1  0
M  END
$$$$
