VVW.pdb
     RDKit          3D

 29 30  0  0  1  0  0  0  0  0999 V2000
   20.9905  -21.6408  -16.5005 C   0  0  0  0  0  0  0  0  0  0  0  0
   20.0721  -21.0930  -15.4339 C   0  0  2  0  0  0  0  0  0  0  0  0
   19.0858  -20.1576  -16.1237 C   0  0  0  0  0  0  0  0  0  0  0  0
   20.8519  -20.3758  -14.3477 C   0  0  2  0  0  0  0  0  0  0  0  0
   21.2385  -19.0990  -14.8718 N   0  0  0  0  0  0  0  0  0  0  0  0
   22.0001  -21.1799  -13.8808 C   0  0  0  0  0  0  0  0  0  0  0  0
   21.8205  -22.2612  -13.2649 O   0  0  0  0  0  0  0  0  0  0  0  0
   24.7448  -23.1087  -15.4729 C   0  0  0  0  0  0  0  0  0  0  0  0
   25.3699  -22.0839  -14.5961 C   0  0  2  0  0  0  0  0  0  0  0  0
   26.5595  -22.7246  -13.8890 C   0  0  0  0  0  0  0  0  0  0  0  0
   24.4656  -21.5480  -13.5156 C   0  0  2  0  0  0  0  0  0  0  0  0
   23.3669  -20.7992  -14.0891 N   0  0  0  0  0  0  0  0  0  0  0  0
   25.1890  -20.7977  -12.4728 C   0  0  0  0  0  0  0  0  0  0  0  0
   25.5503  -19.6165  -12.6843 O   0  0  0  0  0  0  0  0  0  0  0  0
   25.4979  -21.3686  -11.2175 N   0  0  0  0  0  0  0  0  0  0  0  0
   26.3398  -20.6202  -10.2969 C   0  0  1  0  0  0  0  0  0  0  0  0
   25.9599  -20.9837   -8.8501 C   0  0  0  0  0  0  0  0  0  0  0  0
   26.6895  -20.0835   -7.9476 C   0  0  0  0  0  0  0  0  0  0  0  0
   26.7846  -18.7086   -8.0158 C   0  0  0  0  0  0  0  0  0  0  0  0
   27.5491  -18.2813   -6.9992 N   0  0  0  0  0  0  0  0  0  0  0  0
   27.9518  -19.3536   -6.2728 C   0  0  0  0  0  0  0  0  0  0  0  0
   28.7448  -19.4559   -5.1404 C   0  0  0  0  0  0  0  0  0  0  0  0
   29.0362  -20.6614   -4.5544 C   0  0  0  0  0  0  0  0  0  0  0  0
   28.5071  -21.7878   -5.1359 C   0  0  0  0  0  0  0  0  0  0  0  0
   27.7171  -21.6982   -6.2620 C   0  0  0  0  0  0  0  0  0  0  0  0
   27.4193  -20.4781   -6.8592 C   0  0  0  0  0  0  0  0  0  0  0  0
   27.7673  -20.8730  -10.5348 C   0  0  0  0  0  0  0  0  0  0  0  0
   28.1775  -22.0399  -10.6836 O   0  0  0  0  0  0  0  0  0  0  0  0
   28.6706  -19.8341  -10.5974 O   0  0  0  0  0  0  0  0  0  0  0  0
  2  1  1  6
  2  3  1  0
  4  5  1  6
  4  2  1  0
  6  4  1  0
  7  6  2  0
  9  8  1  1
  9 11  1  0
 10  9  1  0
 11 12  1  6
 12  6  1  0
 13 11  1  0
 13 14  2  0
 15 16  1  0
 15 13  1  0
 16 17  1  1
 18 17  1  0
 19 18  2  0
 20 19  1  0
 21 20  1  0
 21 26  2  0
 22 21  1  0
 23 22  2  0
 23 24  1  0
 24 25  2  0
 25 26  1  0
 26 18  1  0
 27 16  1  0
 28 27  2  0
 29 27  1  0
M  END
$$$$
