VVW.pdb
     RDKit          3D

 29 30  0  0  1  0  0  0  0  0999 V2000
   26.3581  -17.7306  -16.6504 C   0  0  0  0  0  0  0  0  0  0  0  0
   27.5968  -17.3091  -15.8960 C   0  0  2  0  0  0  0  0  0  0  0  0
   28.6718  -16.9972  -16.9307 C   0  0  0  0  0  0  0  0  0  0  0  0
   28.0504  -18.3884  -14.9308 C   0  0  2  0  0  0  0  0  0  0  0  0
   28.4074  -19.5364  -15.7111 N   0  0  0  0  0  0  0  0  0  0  0  0
   27.0178  -18.6791  -13.9149 C   0  0  0  0  0  0  0  0  0  0  0  0
   26.4769  -17.7502  -13.2628 O   0  0  0  0  0  0  0  0  0  0  0  0
   23.6936  -20.6678  -14.1238 C   0  0  0  0  0  0  0  0  0  0  0  0
   24.5300  -21.1972  -13.0148 C   0  0  2  0  0  0  0  0  0  0  0  0
   23.6239  -21.4497  -11.8145 C   0  0  0  0  0  0  0  0  0  0  0  0
   25.6137  -20.2604  -12.5453 C   0  0  2  0  0  0  0  0  0  0  0  0
   26.5670  -20.0047  -13.6049 N   0  0  0  0  0  0  0  0  0  0  0  0
   26.2535  -20.6957  -11.2904 C   0  0  0  0  0  0  0  0  0  0  0  0
   26.9939  -21.7067  -11.2800 O   0  0  0  0  0  0  0  0  0  0  0  0
   26.0618  -20.0044  -10.0729 N   0  0  0  0  0  0  0  0  0  0  0  0
   26.6211  -20.5670   -8.8535 C   0  0  1  0  0  0  0  0  0  0  0  0
   27.5964  -19.5543   -8.2267 C   0  0  0  0  0  0  0  0  0  0  0  0
   28.2588  -20.2044   -7.0884 C   0  0  0  0  0  0  0  0  0  0  0  0
   28.9022  -21.4248   -7.0655 C   0  0  0  0  0  0  0  0  0  0  0  0
   29.3644  -21.6421   -5.8247 N   0  0  0  0  0  0  0  0  0  0  0  0
   29.0326  -20.5852   -5.0421 C   0  0  0  0  0  0  0  0  0  0  0  0
   29.2686  -20.3190   -3.7022 C   0  0  0  0  0  0  0  0  0  0  0  0
   28.8363  -19.1676   -3.0950 C   0  0  0  0  0  0  0  0  0  0  0  0
   28.1480  -18.2673   -3.8713 C   0  0  0  0  0  0  0  0  0  0  0  0
   27.9075  -18.5212   -5.2047 C   0  0  0  0  0  0  0  0  0  0  0  0
   28.3440  -19.6873   -5.8241 C   0  0  0  0  0  0  0  0  0  0  0  0
   25.5730  -20.9370   -7.8927 C   0  0  0  0  0  0  0  0  0  0  0  0
   24.4770  -20.3446   -7.9067 O   0  0  0  0  0  0  0  0  0  0  0  0
   25.7804  -21.9366   -6.9671 O   0  0  0  0  0  0  0  0  0  0  0  0
  2  1  1  6
  2  3  1  0
  4  5  1  6
  4  2  1  0
  6  4  1  0
  7  6  2  0
  9  8  1  6
  9 11  1  0
 10  9  1  0
 11 12  1  6
 12  6  1  0
 13 11  1  0
 13 14  2  0
 15 16  1  0
 15 13  1  0
 16 17  1  1
 18 17  1  0
 19 18  2  0
 20 19  1  0
 21 20  1  0
 21 26  2  0
 22 21  1  0
 23 22  2  0
 23 24  1  0
 24 25  2  0
 25 26  1  0
 26 18  1  0
 27 16  1  0
 28 27  2  0
 29 27  1  0
M  END
$$$$
