VVW.pdb
     RDKit          3D

 29 30  0  0  1  0  0  0  0  0999 V2000
   21.8980  -19.1377  -16.4279 C   0  0  0  0  0  0  0  0  0  0  0  0
   23.0796  -18.2012  -16.3376 C   0  0  2  0  0  0  0  0  0  0  0  0
   23.5801  -17.9670  -17.7582 C   0  0  0  0  0  0  0  0  0  0  0  0
   24.1705  -18.7714  -15.4506 C   0  0  2  0  0  0  0  0  0  0  0  0
   24.6498  -19.9674  -16.0785 N   0  0  0  0  0  0  0  0  0  0  0  0
   23.6891  -18.9961  -14.0719 C   0  0  0  0  0  0  0  0  0  0  0  0
   23.2434  -18.0439  -13.3826 O   0  0  0  0  0  0  0  0  0  0  0  0
   20.8557  -20.8323  -12.7074 C   0  0  0  0  0  0  0  0  0  0  0  0
   22.0514  -21.3519  -11.9933 C   0  0  2  0  0  0  0  0  0  0  0  0
   21.6995  -21.4925  -10.5162 C   0  0  0  0  0  0  0  0  0  0  0  0
   23.2613  -20.4554  -12.0632 C   0  0  2  0  0  0  0  0  0  0  0  0
   23.6934  -20.2805  -13.4342 N   0  0  0  0  0  0  0  0  0  0  0  0
   24.3521  -20.8822  -11.1678 C   0  0  0  0  0  0  0  0  0  0  0  0
   25.0129  -21.9144  -11.4295 O   0  0  0  0  0  0  0  0  0  0  0  0
   24.6901  -20.1591  -10.0016 N   0  0  0  0  0  0  0  0  0  0  0  0
   25.7900  -20.6356   -9.1773 C   0  0  1  0  0  0  0  0  0  0  0  0
   26.7432  -19.4654   -8.8748 C   0  0  0  0  0  0  0  0  0  0  0  0
   27.9125  -20.0017   -8.1662 C   0  0  0  0  0  0  0  0  0  0  0  0
   28.8596  -20.8861   -8.6405 C   0  0  0  0  0  0  0  0  0  0  0  0
   29.7553  -21.1165   -7.6683 N   0  0  0  0  0  0  0  0  0  0  0  0
   29.4067  -20.3980   -6.5720 C   0  0  0  0  0  0  0  0  0  0  0  0
   29.9893  -20.2852   -5.3191 C   0  0  0  0  0  0  0  0  0  0  0  0
   29.4635  -19.4886   -4.3339 C   0  0  0  0  0  0  0  0  0  0  0  0
   28.3183  -18.7915   -4.6328 C   0  0  0  0  0  0  0  0  0  0  0  0
   27.7303  -18.8959   -5.8752 C   0  0  0  0  0  0  0  0  0  0  0  0
   28.2600  -19.7023   -6.8767 C   0  0  0  0  0  0  0  0  0  0  0  0
   25.3117  -21.2474   -7.9301 C   0  0  0  0  0  0  0  0  0  0  0  0
   24.2410  -20.8665   -7.4194 O   0  0  0  0  0  0  0  0  0  0  0  0
   26.0313  -22.2445   -7.3079 O   0  0  0  0  0  0  0  0  0  0  0  0
  2  1  1  6
  2  3  1  0
  4  5  1  6
  4  2  1  0
  6  4  1  0
  7  6  2  0
  9  8  1  6
  9 11  1  0
 10  9  1  0
 11 12  1  6
 12  6  1  0
 13 11  1  0
 13 14  2  0
 15 16  1  0
 15 13  1  0
 16 17  1  1
 18 17  1  0
 19 18  2  0
 20 19  1  0
 21 20  1  0
 21 26  2  0
 22 21  1  0
 23 22  2  0
 23 24  1  0
 24 25  2  0
 25 26  1  0
 26 18  1  0
 27 16  1  0
 28 27  2  0
 29 27  1  0
M  END
$$$$
