VVW.pdb
     RDKit          3D

 29 30  0  0  1  0  0  0  0  0999 V2000
   27.9371  -17.1601  -16.7686 C   0  0  0  0  0  0  0  0  0  0  0  0
   27.1864  -17.4669  -15.4945 C   0  0  2  0  0  0  0  0  0  0  0  0
   28.1609  -18.1646  -14.5526 C   0  0  0  0  0  0  0  0  0  0  0  0
   25.9645  -18.3245  -15.7655 C   0  0  2  0  0  0  0  0  0  0  0  0
   25.1510  -17.6215  -16.7134 N   0  0  0  0  0  0  0  0  0  0  0  0
   25.2437  -18.6546  -14.5187 C   0  0  0  0  0  0  0  0  0  0  0  0
   24.6711  -17.7574  -13.8496 O   0  0  0  0  0  0  0  0  0  0  0  0
   22.2393  -20.7098  -13.8620 C   0  0  0  0  0  0  0  0  0  0  0  0
   23.3161  -21.2276  -12.9776 C   0  0  2  0  0  0  0  0  0  0  0  0
   22.7101  -21.5137  -11.6078 C   0  0  0  0  0  0  0  0  0  0  0  0
   24.4562  -20.2679  -12.7509 C   0  0  2  0  0  0  0  0  0  0  0  0
   25.1451  -19.9851  -13.9929 N   0  0  0  0  0  0  0  0  0  0  0  0
   25.3677  -20.6938  -11.6732 C   0  0  0  0  0  0  0  0  0  0  0  0
   25.9504  -21.8011  -11.7436 O   0  0  0  0  0  0  0  0  0  0  0  0
   25.6164  -19.8869  -10.5401 N   0  0  0  0  0  0  0  0  0  0  0  0
   26.5024  -20.3919   -9.5026 C   0  0  1  0  0  0  0  0  0  0  0  0
   27.2554  -19.2137   -8.8588 C   0  0  0  0  0  0  0  0  0  0  0  0
   28.2889  -19.7637   -7.9719 C   0  0  0  0  0  0  0  0  0  0  0  0
   29.4222  -20.4674   -8.3246 C   0  0  0  0  0  0  0  0  0  0  0  0
   30.0931  -20.7867   -7.2072 N   0  0  0  0  0  0  0  0  0  0  0  0
   29.4159  -20.3031   -6.1361 C   0  0  0  0  0  0  0  0  0  0  0  0
   29.6773  -20.3614   -4.7760 C   0  0  0  0  0  0  0  0  0  0  0  0
   28.8448  -19.7970   -3.8434 C   0  0  0  0  0  0  0  0  0  0  0  0
   27.7205  -19.1588   -4.3079 C   0  0  0  0  0  0  0  0  0  0  0  0
   27.4504  -19.0945   -5.6581 C   0  0  0  0  0  0  0  0  0  0  0  0
   28.2918  -19.6654   -6.6069 C   0  0  0  0  0  0  0  0  0  0  0  0
   25.7695  -21.1550   -8.4833 C   0  0  0  0  0  0  0  0  0  0  0  0
   24.6499  -20.7665   -8.0987 O   0  0  0  0  0  0  0  0  0  0  0  0
   26.3013  -22.3038   -7.9388 O   0  0  0  0  0  0  0  0  0  0  0  0
  2  1  1  6
  2  3  1  0
  4  5  1  6
  4  2  1  0
  6  4  1  0
  7  6  2  0
  9  8  1  6
  9 11  1  0
 10  9  1  0
 11 12  1  6
 12  6  1  0
 13 11  1  0
 13 14  2  0
 15 16  1  0
 15 13  1  0
 16 17  1  1
 18 17  1  0
 19 18  2  0
 20 19  1  0
 21 20  1  0
 21 26  2  0
 22 21  1  0
 23 22  2  0
 23 24  1  0
 24 25  2  0
 25 26  1  0
 26 18  1  0
 27 16  1  0
 28 27  2  0
 29 27  1  0
M  END
$$$$
