VVW.pdb
     RDKit          3D

 29 30  0  0  1  0  0  0  0  0999 V2000
   26.4196  -16.6005  -16.6525 C   0  0  0  0  0  0  0  0  0  0  0  0
   27.6536  -16.7447  -15.7935 C   0  0  2  0  0  0  0  0  0  0  0  0
   28.8473  -16.3250  -16.6434 C   0  0  0  0  0  0  0  0  0  0  0  0
   27.8076  -18.1645  -15.2810 C   0  0  2  0  0  0  0  0  0  0  0  0
   27.7393  -19.0378  -16.4155 N   0  0  0  0  0  0  0  0  0  0  0  0
   26.8016  -18.4820  -14.2466 C   0  0  0  0  0  0  0  0  0  0  0  0
   26.1566  -17.5673  -13.6739 O   0  0  0  0  0  0  0  0  0  0  0  0
   23.6676  -20.4929  -14.5597 C   0  0  0  0  0  0  0  0  0  0  0  0
   24.4286  -21.0334  -13.4029 C   0  0  2  0  0  0  0  0  0  0  0  0
   23.4428  -21.3112  -12.2731 C   0  0  0  0  0  0  0  0  0  0  0  0
   25.4689  -20.0962  -12.8444 C   0  0  2  0  0  0  0  0  0  0  0  0
   26.4932  -19.8190  -13.8297 N   0  0  0  0  0  0  0  0  0  0  0  0
   26.0211  -20.5452  -11.5532 C   0  0  0  0  0  0  0  0  0  0  0  0
   26.7149  -21.5872  -11.4944 O   0  0  0  0  0  0  0  0  0  0  0  0
   25.7952  -19.8330  -10.3537 N   0  0  0  0  0  0  0  0  0  0  0  0
   26.2424  -20.4170   -9.0987 C   0  0  1  0  0  0  0  0  0  0  0  0
   26.4074  -19.3028   -8.0494 C   0  0  0  0  0  0  0  0  0  0  0  0
   26.8513  -19.9218   -6.7936 C   0  0  0  0  0  0  0  0  0  0  0  0
   26.2215  -20.9113   -6.0668 C   0  0  0  0  0  0  0  0  0  0  0  0
   26.9641  -21.1853   -4.9833 N   0  0  0  0  0  0  0  0  0  0  0  0
   28.0641  -20.3918   -4.9938 C   0  0  0  0  0  0  0  0  0  0  0  0
   29.1302  -20.2809   -4.1147 C   0  0  0  0  0  0  0  0  0  0  0  0
   30.1583  -19.3953   -4.3153 C   0  0  0  0  0  0  0  0  0  0  0  0
   30.0980  -18.6052   -5.4374 C   0  0  0  0  0  0  0  0  0  0  0  0
   29.0428  -18.7068   -6.3185 C   0  0  0  0  0  0  0  0  0  0  0  0
   27.9986  -19.6033   -6.1188 C   0  0  0  0  0  0  0  0  0  0  0  0
   25.3140  -21.4479   -8.6153 C   0  0  0  0  0  0  0  0  0  0  0  0
   24.0844  -21.2557   -8.6720 O   0  0  0  0  0  0  0  0  0  0  0  0
   25.7814  -22.6356   -8.0954 O   0  0  0  0  0  0  0  0  0  0  0  0
  2  1  1  6
  2  3  1  0
  4  5  1  6
  4  2  1  0
  6  4  1  0
  7  6  2  0
  9  8  1  6
  9 11  1  0
 10  9  1  0
 11 12  1  6
 12  6  1  0
 13 11  1  0
 13 14  2  0
 15 16  1  0
 15 13  1  0
 16 17  1  1
 18 17  1  0
 19 18  2  0
 20 19  1  0
 21 20  1  0
 21 26  2  0
 22 21  1  0
 23 22  2  0
 23 24  1  0
 24 25  2  0
 25 26  1  0
 26 18  1  0
 27 16  1  0
 28 27  2  0
 29 27  1  0
M  END
$$$$
