VVW.pdb
     RDKit          3D

 29 30  0  0  1  0  0  0  0  0999 V2000
   28.4167  -21.3755  -18.6376 C   0  0  0  0  0  0  0  0  0  0  0  0
   27.6136  -20.5572  -17.6544 C   0  0  2  0  0  0  0  0  0  0  0  0
   28.3321  -19.2238  -17.4831 C   0  0  0  0  0  0  0  0  0  0  0  0
   27.4596  -21.2800  -16.3293 C   0  0  2  0  0  0  0  0  0  0  0  0
   27.0228  -22.6141  -16.6188 N   0  0  0  0  0  0  0  0  0  0  0  0
   26.5468  -20.5585  -15.4186 C   0  0  0  0  0  0  0  0  0  0  0  0
   25.9119  -19.5472  -15.8120 O   0  0  0  0  0  0  0  0  0  0  0  0
   23.7543  -20.1270  -15.3618 C   0  0  0  0  0  0  0  0  0  0  0  0
   23.8934  -20.8033  -14.0454 C   0  0  2  0  0  0  0  0  0  0  0  0
   22.7492  -20.3406  -13.1498 C   0  0  0  0  0  0  0  0  0  0  0  0
   25.1702  -20.4855  -13.3097 C   0  0  2  0  0  0  0  0  0  0  0  0
   26.3223  -20.9461  -14.0563 N   0  0  0  0  0  0  0  0  0  0  0  0
   25.1669  -20.9550  -11.9121 C   0  0  0  0  0  0  0  0  0  0  0  0
   24.9501  -22.1622  -11.6550 O   0  0  0  0  0  0  0  0  0  0  0  0
   25.4035  -20.0804  -10.8276 N   0  0  0  0  0  0  0  0  0  0  0  0
   25.5787  -20.6456   -9.4986 C   0  0  1  0  0  0  0  0  0  0  0  0
   26.4991  -19.7285   -8.6731 C   0  0  0  0  0  0  0  0  0  0  0  0
   26.6260  -20.3027   -7.3273 C   0  0  0  0  0  0  0  0  0  0  0  0
   26.0300  -21.4448   -6.8328 C   0  0  0  0  0  0  0  0  0  0  0  0
   26.4100  -21.6079   -5.5563 N   0  0  0  0  0  0  0  0  0  0  0  0
   27.2414  -20.5926   -5.2134 C   0  0  0  0  0  0  0  0  0  0  0  0
   27.8990  -20.2984   -4.0290 C   0  0  0  0  0  0  0  0  0  0  0  0
   28.7073  -19.1988   -3.8915 C   0  0  0  0  0  0  0  0  0  0  0  0
   28.8483  -18.3808   -4.9860 C   0  0  0  0  0  0  0  0  0  0  0  0
   28.1994  -18.6634   -6.1689 C   0  0  0  0  0  0  0  0  0  0  0  0
   27.3791  -19.7772   -6.3125 C   0  0  0  0  0  0  0  0  0  0  0  0
   24.2931  -20.8382   -8.8140 C   0  0  0  0  0  0  0  0  0  0  0  0
   23.3380  -20.0753   -9.0547 O   0  0  0  0  0  0  0  0  0  0  0  0
   24.1212  -21.8567   -7.9017 O   0  0  0  0  0  0  0  0  0  0  0  0
  2  1  1  6
  2  3  1  0
  4  5  1  6
  4  2  1  0
  6  4  1  0
  7  6  2  0
  9  8  1  6
  9 11  1  0
 10  9  1  0
 11 12  1  6
 12  6  1  0
 13 11  1  0
 13 14  2  0
 15 16  1  0
 15 13  1  0
 16 17  1  1
 18 17  1  0
 19 18  2  0
 20 19  1  0
 21 20  1  0
 21 26  2  0
 22 21  1  0
 23 22  2  0
 23 24  1  0
 24 25  2  0
 25 26  1  0
 26 18  1  0
 27 16  1  0
 28 27  2  0
 29 27  1  0
M  END
$$$$
