VVW.pdb
     RDKit          3D

 29 30  0  0  1  0  0  0  0  0999 V2000
   28.6476  -18.2187  -14.1774 C   0  0  0  0  0  0  0  0  0  0  0  0
   28.6920  -19.7132  -14.3916 C   0  0  2  0  0  0  0  0  0  0  0  0
   29.6209  -19.9731  -15.5719 C   0  0  0  0  0  0  0  0  0  0  0  0
   27.3056  -20.2775  -14.6403 C   0  0  2  0  0  0  0  0  0  0  0  0
   26.8666  -19.7862  -15.9132 N   0  0  0  0  0  0  0  0  0  0  0  0
   26.3767  -19.9435  -13.5409 C   0  0  0  0  0  0  0  0  0  0  0  0
   26.0809  -18.7478  -13.2892 O   0  0  0  0  0  0  0  0  0  0  0  0
   22.9589  -20.3945  -13.3778 C   0  0  0  0  0  0  0  0  0  0  0  0
   23.4079  -20.9630  -12.0797 C   0  0  2  0  0  0  0  0  0  0  0  0
   22.4772  -20.4473  -10.9873 C   0  0  0  0  0  0  0  0  0  0  0  0
   24.8056  -20.5705  -11.6738 C   0  0  2  0  0  0  0  0  0  0  0  0
   25.7597  -20.9295  -12.7022 N   0  0  0  0  0  0  0  0  0  0  0  0
   25.1845  -21.0707  -10.3397 C   0  0  0  0  0  0  0  0  0  0  0  0
   25.5812  -22.2512  -10.2001 O   0  0  0  0  0  0  0  0  0  0  0  0
   25.1171  -20.2555   -9.1872 N   0  0  0  0  0  0  0  0  0  0  0  0
   25.3802  -20.8566   -7.8889 C   0  0  1  0  0  0  0  0  0  0  0  0
   25.5369  -19.7448   -6.8359 C   0  0  0  0  0  0  0  0  0  0  0  0
   26.9654  -19.4228   -6.7225 C   0  0  0  0  0  0  0  0  0  0  0  0
   27.7363  -18.6706   -7.5851 C   0  0  0  0  0  0  0  0  0  0  0  0
   28.9905  -18.6262   -7.1104 N   0  0  0  0  0  0  0  0  0  0  0  0
   29.0477  -19.3358   -5.9559 C   0  0  0  0  0  0  0  0  0  0  0  0
   30.0938  -19.5987   -5.0852 C   0  0  0  0  0  0  0  0  0  0  0  0
   29.9340  -20.3557   -3.9526 C   0  0  0  0  0  0  0  0  0  0  0  0
   28.6793  -20.8558   -3.7021 C   0  0  0  0  0  0  0  0  0  0  0  0
   27.6315  -20.6008   -4.5607 C   0  0  0  0  0  0  0  0  0  0  0  0
   27.7894  -19.8338   -5.7100 C   0  0  0  0  0  0  0  0  0  0  0  0
   24.3188  -21.7936   -7.4964 C   0  0  0  0  0  0  0  0  0  0  0  0
   23.1652  -21.6524   -7.9451 O   0  0  0  0  0  0  0  0  0  0  0  0
   24.5769  -22.8362   -6.6330 O   0  0  0  0  0  0  0  0  0  0  0  0
  2  1  1  6
  2  3  1  0
  4  5  1  6
  4  2  1  0
  6  4  1  0
  7  6  2  0
  9  8  1  6
  9 11  1  0
 10  9  1  0
 11 12  1  6
 12  6  1  0
 13 11  1  0
 13 14  2  0
 15 16  1  0
 15 13  1  0
 16 17  1  1
 18 17  1  0
 19 18  2  0
 20 19  1  0
 21 20  1  0
 21 26  2  0
 22 21  1  0
 23 22  2  0
 23 24  1  0
 24 25  2  0
 25 26  1  0
 26 18  1  0
 27 16  1  0
 28 27  2  0
 29 27  1  0
M  END
$$$$
