VVW.pdb
     RDKit          3D

 29 30  0  0  1  0  0  0  0  0999 V2000
   25.9062  -15.6924  -15.6064 C   0  0  0  0  0  0  0  0  0  0  0  0
   27.2946  -16.2555  -15.4153 C   0  0  2  0  0  0  0  0  0  0  0  0
   28.1452  -15.7658  -16.5816 C   0  0  0  0  0  0  0  0  0  0  0  0
   27.2713  -17.7708  -15.3418 C   0  0  2  0  0  0  0  0  0  0  0  0
   26.9235  -18.2563  -16.6447 N   0  0  0  0  0  0  0  0  0  0  0  0
   26.3580  -18.2505  -14.2840 C   0  0  0  0  0  0  0  0  0  0  0  0
   25.6143  -17.4488  -13.6637 O   0  0  0  0  0  0  0  0  0  0  0  0
   23.5050  -20.5513  -14.4596 C   0  0  0  0  0  0  0  0  0  0  0  0
   24.3594  -21.0542  -13.3520 C   0  0  2  0  0  0  0  0  0  0  0  0
   23.4548  -21.4064  -12.1759 C   0  0  0  0  0  0  0  0  0  0  0  0
   25.3665  -20.0582  -12.8360 C   0  0  2  0  0  0  0  0  0  0  0  0
   26.2533  -19.6271  -13.8964 N   0  0  0  0  0  0  0  0  0  0  0  0
   26.0885  -20.5296  -11.6401 C   0  0  0  0  0  0  0  0  0  0  0  0
   27.2848  -20.8920  -11.7302 O   0  0  0  0  0  0  0  0  0  0  0  0
   25.4734  -20.5905  -10.3693 N   0  0  0  0  0  0  0  0  0  0  0  0
   26.2828  -20.9565   -9.2172 C   0  0  1  0  0  0  0  0  0  0  0  0
   27.3604  -19.8809   -8.9902 C   0  0  0  0  0  0  0  0  0  0  0  0
   28.2692  -20.3609   -7.9411 C   0  0  0  0  0  0  0  0  0  0  0  0
   29.1374  -21.4320   -7.9961 C   0  0  0  0  0  0  0  0  0  0  0  0
   29.7789  -21.5239   -6.8211 N   0  0  0  0  0  0  0  0  0  0  0  0
   29.3430  -20.5323   -6.0049 C   0  0  0  0  0  0  0  0  0  0  0  0
   29.6816  -20.1917   -4.7045 C   0  0  0  0  0  0  0  0  0  0  0  0
   29.1081  -19.1313   -4.0502 C   0  0  0  0  0  0  0  0  0  0  0  0
   28.1684  -18.4018   -4.7371 C   0  0  0  0  0  0  0  0  0  0  0  0
   27.8239  -18.7312   -6.0305 C   0  0  0  0  0  0  0  0  0  0  0  0
   28.4029  -19.8054   -6.6975 C   0  0  0  0  0  0  0  0  0  0  0  0
   25.4649  -21.1309   -8.0093 C   0  0  0  0  0  0  0  0  0  0  0  0
   24.4691  -20.4064   -7.8206 O   0  0  0  0  0  0  0  0  0  0  0  0
   25.7808  -22.0900   -7.0714 O   0  0  0  0  0  0  0  0  0  0  0  0
  2  1  1  6
  2  3  1  0
  4  5  1  6
  4  2  1  0
  6  4  1  0
  7  6  2  0
  9  8  1  6
  9 11  1  0
 10  9  1  0
 11 12  1  6
 12  6  1  0
 13 11  1  0
 13 14  2  0
 15 16  1  0
 15 13  1  0
 16 17  1  1
 18 17  1  0
 19 18  2  0
 20 19  1  0
 21 20  1  0
 21 26  2  0
 22 21  1  0
 23 22  2  0
 23 24  1  0
 24 25  2  0
 25 26  1  0
 26 18  1  0
 27 16  1  0
 28 27  2  0
 29 27  1  0
M  END
$$$$
