VVW.pdb
     RDKit          3D

 29 30  0  0  1  0  0  0  0  0999 V2000
   28.6748  -22.5711  -15.2134 C   0  0  0  0  0  0  0  0  0  0  0  0
   27.6285  -23.0401  -16.1964 C   0  0  2  0  0  0  0  0  0  0  0  0
   28.3428  -23.8754  -17.2526 C   0  0  0  0  0  0  0  0  0  0  0  0
   26.8905  -21.8695  -16.8188 C   0  0  2  0  0  0  0  0  0  0  0  0
   27.7846  -21.2478  -17.7506 N   0  0  0  0  0  0  0  0  0  0  0  0
   26.3863  -20.9354  -15.7911 C   0  0  0  0  0  0  0  0  0  0  0  0
   27.0281  -19.8952  -15.4965 O   0  0  0  0  0  0  0  0  0  0  0  0
   23.3109  -18.8187  -15.6781 C   0  0  0  0  0  0  0  0  0  0  0  0
   23.3305  -19.6611  -14.4535 C   0  0  2  0  0  0  0  0  0  0  0  0
   22.8631  -18.8061  -13.2806 C   0  0  0  0  0  0  0  0  0  0  0  0
   24.6908  -20.1938  -14.0814 C   0  0  2  0  0  0  0  0  0  0  0  0
   25.1619  -21.1384  -15.0728 N   0  0  0  0  0  0  0  0  0  0  0  0
   24.7496  -20.7263  -12.7079 C   0  0  0  0  0  0  0  0  0  0  0  0
   24.1261  -21.7724  -12.4118 O   0  0  0  0  0  0  0  0  0  0  0  0
   25.4965  -20.0916  -11.6899 N   0  0  0  0  0  0  0  0  0  0  0  0
   25.5359  -20.6995  -10.3688 C   0  0  1  0  0  0  0  0  0  0  0  0
   26.7796  -20.1961   -9.6141 C   0  0  0  0  0  0  0  0  0  0  0  0
   26.6708  -20.6311   -8.2155 C   0  0  0  0  0  0  0  0  0  0  0  0
   25.8889  -21.6451   -7.7011 C   0  0  0  0  0  0  0  0  0  0  0  0
   26.0861  -21.7072   -6.3753 N   0  0  0  0  0  0  0  0  0  0  0  0
   26.9814  -20.7523   -6.0201 C   0  0  0  0  0  0  0  0  0  0  0  0
   27.5169  -20.4011   -4.7906 C   0  0  0  0  0  0  0  0  0  0  0  0
   28.4246  -19.3826   -4.6490 C   0  0  0  0  0  0  0  0  0  0  0  0
   28.7948  -18.7071   -5.7864 C   0  0  0  0  0  0  0  0  0  0  0  0
   28.2690  -19.0476   -7.0143 C   0  0  0  0  0  0  0  0  0  0  0  0
   27.3485  -20.0795   -7.1622 C   0  0  0  0  0  0  0  0  0  0  0  0
   24.3160  -20.4154   -9.6010 C   0  0  0  0  0  0  0  0  0  0  0  0
   23.7846  -19.2905   -9.6684 O   0  0  0  0  0  0  0  0  0  0  0  0
   23.7421  -21.3784   -8.7996 O   0  0  0  0  0  0  0  0  0  0  0  0
  2  1  1  1
  2  3  1  0
  4  5  1  6
  4  2  1  0
  6  4  1  0
  7  6  2  0
  9  8  1  6
  9 11  1  0
 10  9  1  0
 11 12  1  6
 12  6  1  0
 13 11  1  0
 13 14  2  0
 15 16  1  0
 15 13  1  0
 16 17  1  1
 18 17  1  0
 19 18  2  0
 20 19  1  0
 21 20  1  0
 21 26  2  0
 22 21  1  0
 23 22  2  0
 23 24  1  0
 24 25  2  0
 25 26  1  0
 26 18  1  0
 27 16  1  0
 28 27  2  0
 29 27  1  0
M  END
$$$$
