VVW.pdb
     RDKit          3D

 29 30  0  0  1  0  0  0  0  0999 V2000
   30.2999  -21.1401  -18.6972 C   0  0  0  0  0  0  0  0  0  0  0  0
   30.1638  -22.5903  -18.2977 C   0  0  2  0  0  0  0  0  0  0  0  0
   30.1694  -23.4147  -19.5799 C   0  0  0  0  0  0  0  0  0  0  0  0
   28.9004  -22.8254  -17.4911 C   0  0  2  0  0  0  0  0  0  0  0  0
   27.7882  -22.6415  -18.3764 N   0  0  0  0  0  0  0  0  0  0  0  0
   28.8428  -21.9501  -16.3022 C   0  0  0  0  0  0  0  0  0  0  0  0
   29.6594  -22.0938  -15.3571 O   0  0  0  0  0  0  0  0  0  0  0  0
   27.5601  -17.8698  -13.9047 C   0  0  0  0  0  0  0  0  0  0  0  0
   27.7255  -18.6916  -15.1323 C   0  0  2  0  0  0  0  0  0  0  0  0
   26.5473  -18.4069  -16.0575 C   0  0  0  0  0  0  0  0  0  0  0  0
   27.7340  -20.1800  -14.8933 C   0  0  2  0  0  0  0  0  0  0  0  0
   27.8793  -20.9004  -16.1410 N   0  0  0  0  0  0  0  0  0  0  0  0
   26.5874  -20.6456  -14.0920 C   0  0  0  0  0  0  0  0  0  0  0  0
   25.5113  -20.9551  -14.6548 O   0  0  0  0  0  0  0  0  0  0  0  0
   26.6539  -20.7596  -12.6850 N   0  0  0  0  0  0  0  0  0  0  0  0
   25.5729  -21.4374  -11.9862 C   0  0  1  0  0  0  0  0  0  0  0  0
   26.1163  -22.0543  -10.6847 C   0  0  0  0  0  0  0  0  0  0  0  0
   26.2392  -20.9818   -9.6889 C   0  0  0  0  0  0  0  0  0  0  0  0
   25.2792  -20.0688   -9.3029 C   0  0  0  0  0  0  0  0  0  0  0  0
   25.8063  -19.2620   -8.3693 N   0  0  0  0  0  0  0  0  0  0  0  0
   27.0906  -19.6345   -8.1425 C   0  0  0  0  0  0  0  0  0  0  0  0
   28.0597  -19.1328   -7.2877 C   0  0  0  0  0  0  0  0  0  0  0  0
   29.3213  -19.6663   -7.2139 C   0  0  0  0  0  0  0  0  0  0  0  0
   29.6009  -20.7353   -8.0299 C   0  0  0  0  0  0  0  0  0  0  0  0
   28.6451  -21.2428   -8.8838 C   0  0  0  0  0  0  0  0  0  0  0  0
   27.3650  -20.7049   -8.9617 C   0  0  0  0  0  0  0  0  0  0  0  0
   24.4547  -20.5288  -11.6992 C   0  0  0  0  0  0  0  0  0  0  0  0
   24.6416  -19.2972  -11.6781 O   0  0  0  0  0  0  0  0  0  0  0  0
   23.1901  -21.0170  -11.4506 O   0  0  0  0  0  0  0  0  0  0  0  0
  2  1  1  6
  2  3  1  0
  4  5  1  6
  4  2  1  0
  6  4  1  0
  7  6  2  0
  9  8  1  1
  9 11  1  0
 10  9  1  0
 11 12  1  6
 12  6  1  0
 13 11  1  0
 13 14  2  0
 15 16  1  0
 15 13  1  0
 16 17  1  1
 18 17  1  0
 19 18  2  0
 20 19  1  0
 21 20  1  0
 21 26  2  0
 22 21  1  0
 23 22  2  0
 23 24  1  0
 24 25  2  0
 25 26  1  0
 26 18  1  0
 27 16  1  0
 28 27  2  0
 29 27  1  0
M  END
$$$$
