VVW.pdb
     RDKit          3D

 29 30  0  0  1  0  0  0  0  0999 V2000
   22.1338  -19.1706  -17.4901 C   0  0  0  0  0  0  0  0  0  0  0  0
   22.2798  -17.8931  -16.6976 C   0  0  2  0  0  0  0  0  0  0  0  0
   21.5341  -16.8022  -17.4575 C   0  0  0  0  0  0  0  0  0  0  0  0
   23.7395  -17.5315  -16.4956 C   0  0  2  0  0  0  0  0  0  0  0  0
   24.2841  -17.2185  -17.7840 N   0  0  0  0  0  0  0  0  0  0  0  0
   24.4764  -18.6091  -15.8036 C   0  0  0  0  0  0  0  0  0  0  0  0
   23.9017  -19.6817  -15.4877 O   0  0  0  0  0  0  0  0  0  0  0  0
   27.9438  -20.2012  -16.7304 C   0  0  0  0  0  0  0  0  0  0  0  0
   27.9214  -19.8043  -15.2981 C   0  0  2  0  0  0  0  0  0  0  0  0
   28.5427  -20.9329  -14.4821 C   0  0  0  0  0  0  0  0  0  0  0  0
   26.5429  -19.5744  -14.7332 C   0  0  2  0  0  0  0  0  0  0  0  0
   25.8631  -18.5159  -15.4505 N   0  0  0  0  0  0  0  0  0  0  0  0
   26.5406  -19.3713  -13.2729 C   0  0  0  0  0  0  0  0  0  0  0  0
   26.9024  -18.2728  -12.7903 O   0  0  0  0  0  0  0  0  0  0  0  0
   26.1382  -20.3867  -12.3762 N   0  0  0  0  0  0  0  0  0  0  0  0
   26.1446  -20.1028  -10.9494 C   0  0  1  0  0  0  0  0  0  0  0  0
   24.9356  -19.2156  -10.6018 C   0  0  0  0  0  0  0  0  0  0  0  0
   23.7867  -20.0928  -10.3417 C   0  0  0  0  0  0  0  0  0  0  0  0
   23.4575  -20.7323   -9.1641 C   0  0  0  0  0  0  0  0  0  0  0  0
   22.3323  -21.4367   -9.3595 N   0  0  0  0  0  0  0  0  0  0  0  0
   21.9254  -21.2660  -10.6420 C   0  0  0  0  0  0  0  0  0  0  0  0
   20.8387  -21.7694  -11.3401 C   0  0  0  0  0  0  0  0  0  0  0  0
   20.6085  -21.4670  -12.6581 C   0  0  0  0  0  0  0  0  0  0  0  0
   21.5065  -20.6327  -13.2782 C   0  0  0  0  0  0  0  0  0  0  0  0
   22.5907  -20.1261  -12.5940 C   0  0  0  0  0  0  0  0  0  0  0  0
   22.8276  -20.4302  -11.2579 C   0  0  0  0  0  0  0  0  0  0  0  0
   26.1287  -21.3341  -10.1481 C   0  0  0  0  0  0  0  0  0  0  0  0
   25.9763  -22.4383  -10.7047 O   0  0  0  0  0  0  0  0  0  0  0  0
   26.2808  -21.2912   -8.7791 O   0  0  0  0  0  0  0  0  0  0  0  0
  2  1  1  6
  2  3  1  0
  4  5  1  6
  4  2  1  0
  6  4  1  0
  7  6  2  0
  9  8  1  6
  9 11  1  0
 10  9  1  0
 11 12  1  6
 12  6  1  0
 13 11  1  0
 13 14  2  0
 15 16  1  0
 15 13  1  0
 16 17  1  1
 18 17  1  0
 19 18  2  0
 20 19  1  0
 21 20  1  0
 21 26  2  0
 22 21  1  0
 23 22  2  0
 23 24  1  0
 24 25  2  0
 25 26  1  0
 26 18  1  0
 27 16  1  0
 28 27  2  0
 29 27  1  0
M  END
$$$$
