MMP.pdb
     RDKit          3D

 24 24  0  0  1  0  0  0  0  0999 V2000
    8.1998  -12.1857   18.4162 C   0  0  0  0  0  0  0  0  0  0  0  0
    7.8606  -13.8097   17.7050 S   0  0  0  0  0  0  0  0  0  0  0  0
    8.3858  -15.0798   18.8776 C   0  0  0  0  0  0  0  0  0  0  0  0
    9.1478  -14.4756   20.0349 C   0  0  0  0  0  0  0  0  0  0  0  0
    9.4226  -15.4940   21.0834 C   0  0  2  0  0  0  0  0  0  0  0  0
    8.4986  -16.6041   20.9146 N   0  0  0  0  0  0  0  0  0  0  0  0
    9.4145  -14.9938   22.4713 C   0  0  0  0  0  0  0  0  0  0  0  0
   10.3659  -14.2357   22.8642 O   0  0  0  0  0  0  0  0  0  0  0  0
    6.3080  -10.8704   26.7860 C   0  0  0  0  0  0  0  0  0  0  0  0
    5.8133  -12.5545   27.0177 S   0  0  0  0  0  0  0  0  0  0  0  0
    7.0631  -13.7772   26.6146 C   0  0  0  0  0  0  0  0  0  0  0  0
    7.1587  -14.1917   25.2060 C   0  0  0  0  0  0  0  0  0  0  0  0
    8.4629  -14.7761   24.7675 C   0  0  2  0  0  0  0  0  0  0  0  0
    8.4198  -15.2816   23.4393 N   0  0  0  0  0  0  0  0  0  0  0  0
    9.0864  -15.7158   25.7077 C   0  0  0  0  0  0  0  0  0  0  0  0
    9.1085  -16.9685   25.3152 O   0  0  0  0  0  0  0  0  0  0  0  0
    9.6660  -15.4947   26.9604 N   0  0  0  0  0  0  0  0  0  0  0  0
    9.2803  -14.3990   27.8576 C   0  0  0  0  0  0  0  0  0  0  0  0
   10.6325  -13.9362   28.3377 C   0  0  0  0  0  0  0  0  0  0  0  0
   11.5591  -15.1081   28.2082 C   0  0  0  0  0  0  0  0  0  0  0  0
   10.6537  -16.2073   27.6698 C   0  0  1  0  0  0  0  0  0  0  0  0
   10.1400  -17.0675   28.7475 C   0  0  0  0  0  0  0  0  0  0  0  0
    8.9322  -16.9884   29.0570 O   0  0  0  0  0  0  0  0  0  0  0  0
   10.9634  -17.9513   29.4146 O   0  0  0  0  0  0  0  0  0  0  0  0
  2  1  1  0
  2  3  1  0
  3  4  1  0
  5  6  1  1
  5  4  1  0
  7  5  1  0
  7  8  2  0
 10  9  1  0
 10 11  1  0
 11 12  1  0
 13 12  1  1
 13 15  1  0
 13 14  1  0
 14  7  1  0
 15 16  2  0
 17 21  1  0
 17 15  1  0
 18 17  1  0
 19 18  1  0
 20 19  1  0
 20 21  1  0
 21 22  1  1
 22 23  2  0
 22 24  1  0
M  END
$$$$
