MMP.pdb
     RDKit          3D

 24 24  0  0  1  0  0  0  0  0999 V2000
    8.9402  -12.1763   19.4602 C   0  0  0  0  0  0  0  0  0  0  0  0
    7.4277  -12.9608   20.0559 S   0  0  0  0  0  0  0  0  0  0  0  0
    7.5468  -14.7418   19.7764 C   0  0  0  0  0  0  0  0  0  0  0  0
    8.9769  -15.2191   19.8863 C   0  0  0  0  0  0  0  0  0  0  0  0
    9.1673  -16.0616   21.0970 C   0  0  2  0  0  0  0  0  0  0  0  0
    8.0748  -17.0175   21.1816 N   0  0  0  0  0  0  0  0  0  0  0  0
    9.3356  -15.3237   22.3634 C   0  0  0  0  0  0  0  0  0  0  0  0
   10.3445  -14.5512   22.5032 O   0  0  0  0  0  0  0  0  0  0  0  0
    5.2931  -11.8867   25.9956 C   0  0  0  0  0  0  0  0  0  0  0  0
    6.5732  -12.2373   27.1674 S   0  0  0  0  0  0  0  0  0  0  0  0
    7.7904  -13.4402   26.6278 C   0  0  0  0  0  0  0  0  0  0  0  0
    7.6050  -14.0193   25.2879 C   0  0  0  0  0  0  0  0  0  0  0  0
    8.7519  -14.8007   24.7322 C   0  0  2  0  0  0  0  0  0  0  0  0
    8.4560  -15.3909   23.4729 N   0  0  0  0  0  0  0  0  0  0  0  0
    9.3875  -15.7440   25.6607 C   0  0  0  0  0  0  0  0  0  0  0  0
    9.4634  -16.9836   25.2347 O   0  0  0  0  0  0  0  0  0  0  0  0
    9.9307  -15.5378   26.9322 N   0  0  0  0  0  0  0  0  0  0  0  0
    9.5714  -14.4113   27.8017 C   0  0  0  0  0  0  0  0  0  0  0  0
   10.9277  -14.0156   28.3281 C   0  0  0  0  0  0  0  0  0  0  0  0
   11.7936  -15.2372   28.2472 C   0  0  0  0  0  0  0  0  0  0  0  0
   10.8509  -16.2931   27.6868 C   0  0  1  0  0  0  0  0  0  0  0  0
   10.2511  -17.1103   28.7534 C   0  0  0  0  0  0  0  0  0  0  0  0
   10.9938  -17.8449   29.4389 O   0  0  0  0  0  0  0  0  0  0  0  0
    8.8949  -17.0781   29.0057 O   0  0  0  0  0  0  0  0  0  0  0  0
  2  1  1  0
  2  3  1  0
  3  4  1  0
  5  6  1  1
  5  4  1  0
  7  5  1  0
  7  8  2  0
 10  9  1  0
 10 11  1  0
 11 12  1  0
 13 12  1  1
 13 15  1  0
 13 14  1  0
 14  7  1  0
 15 16  2  0
 17 21  1  0
 17 15  1  0
 18 17  1  0
 19 18  1  0
 20 19  1  0
 20 21  1  0
 21 22  1  1
 22 23  2  0
 22 24  1  0
M  END
$$$$
