MMP.pdb
     RDKit          3D

 24 24  0  0  1  0  0  0  0  0999 V2000
    8.6452  -20.4453   26.5755 C   0  0  0  0  0  0  0  0  0  0  0  0
    9.0010  -21.4658   25.1298 S   0  0  0  0  0  0  0  0  0  0  0  0
    8.2598  -20.6926   23.6749 C   0  0  0  0  0  0  0  0  0  0  0  0
    6.7747  -20.9665   23.6056 C   0  0  0  0  0  0  0  0  0  0  0  0
    6.0073  -19.9470   24.3695 C   0  0  2  0  0  0  0  0  0  0  0  0
    4.6157  -20.3627   24.4421 N   0  0  0  0  0  0  0  0  0  0  0  0
    6.1298  -18.5613   23.8785 C   0  0  0  0  0  0  0  0  0  0  0  0
    6.2661  -18.3562   22.6240 O   0  0  0  0  0  0  0  0  0  0  0  0
    6.7481  -11.9438   27.1082 C   0  0  0  0  0  0  0  0  0  0  0  0
    7.8226  -12.9824   26.1588 S   0  0  0  0  0  0  0  0  0  0  0  0
    7.3333  -14.7065   26.0717 C   0  0  0  0  0  0  0  0  0  0  0  0
    6.1826  -15.0291   25.2132 C   0  0  0  0  0  0  0  0  0  0  0  0
    6.3902  -16.0995   24.1905 C   0  0  2  0  0  0  0  0  0  0  0  0
    6.1079  -17.4001   24.6911 N   0  0  0  0  0  0  0  0  0  0  0  0
    7.6619  -16.0415   23.4590 C   0  0  0  0  0  0  0  0  0  0  0  0
    8.4350  -17.0939   23.5959 O   0  0  0  0  0  0  0  0  0  0  0  0
    8.1884  -15.0439   22.6333 N   0  0  0  0  0  0  0  0  0  0  0  0
    7.7181  -13.6535   22.6294 C   0  0  0  0  0  0  0  0  0  0  0  0
    7.6841  -13.3697   21.1491 C   0  0  0  0  0  0  0  0  0  0  0  0
    8.6689  -14.3026   20.5097 C   0  0  0  0  0  0  0  0  0  0  0  0
    9.2399  -15.0686   21.6950 C   0  0  1  0  0  0  0  0  0  0  0  0
   10.5030  -14.4801   22.1675 C   0  0  0  0  0  0  0  0  0  0  0  0
   10.5131  -13.8736   23.2598 O   0  0  0  0  0  0  0  0  0  0  0  0
   11.6646  -14.5866   21.4304 O   0  0  0  0  0  0  0  0  0  0  0  0
  2  1  1  0
  2  3  1  0
  3  4  1  0
  5  6  1  6
  5  4  1  0
  7  5  1  0
  7  8  2  0
 10  9  1  0
 10 11  1  0
 11 12  1  0
 13 12  1  1
 13 15  1  0
 13 14  1  0
 14  7  1  0
 15 16  2  0
 17 21  1  0
 17 15  1  0
 18 17  1  0
 19 18  1  0
 20 19  1  0
 20 21  1  0
 21 22  1  1
 22 23  2  0
 22 24  1  0
M  END
$$$$
