MMP.pdb
     RDKit          3D

 24 24  0  0  1  0  0  0  0  0999 V2000
   10.2770  -20.7155   22.4920 C   0  0  0  0  0  0  0  0  0  0  0  0
   11.3557  -19.8141   21.3598 S   0  0  0  0  0  0  0  0  0  0  0  0
   10.7882  -18.1020   21.2542 C   0  0  0  0  0  0  0  0  0  0  0  0
    9.2979  -18.0035   21.4876 C   0  0  0  0  0  0  0  0  0  0  0  0
    8.8309  -16.5963   21.3709 C   0  0  2  0  0  0  0  0  0  0  0  0
    9.3735  -16.0201   20.1510 N   0  0  0  0  0  0  0  0  0  0  0  0
    9.1048  -15.7380   22.5392 C   0  0  0  0  0  0  0  0  0  0  0  0
   10.2050  -15.0890   22.5893 O   0  0  0  0  0  0  0  0  0  0  0  0
    5.9181  -11.8372   27.2210 C   0  0  0  0  0  0  0  0  0  0  0  0
    6.3241  -11.5538   25.5212 S   0  0  0  0  0  0  0  0  0  0  0  0
    6.8988  -12.9981   24.6249 C   0  0  0  0  0  0  0  0  0  0  0  0
    7.4684  -14.0942   25.4244 C   0  0  0  0  0  0  0  0  0  0  0  0
    8.6097  -14.8435   24.8152 C   0  0  2  0  0  0  0  0  0  0  0  0
    8.2355  -15.5581   23.6444 N   0  0  0  0  0  0  0  0  0  0  0  0
    9.4021  -15.6595   25.7438 C   0  0  0  0  0  0  0  0  0  0  0  0
    9.7580  -16.8386   25.2891 O   0  0  0  0  0  0  0  0  0  0  0  0
    9.8447  -15.3850   27.0410 N   0  0  0  0  0  0  0  0  0  0  0  0
    9.2509  -14.3599   27.9076 C   0  0  0  0  0  0  0  0  0  0  0  0
   10.4895  -13.7370   28.4999 C   0  0  0  0  0  0  0  0  0  0  0  0
   11.5651  -14.7804   28.4429 C   0  0  0  0  0  0  0  0  0  0  0  0
   10.8537  -15.9773   27.8270 C   0  0  1  0  0  0  0  0  0  0  0  0
   10.3673  -16.9111   28.8549 C   0  0  0  0  0  0  0  0  0  0  0  0
   11.2015  -17.5444   29.5362 O   0  0  0  0  0  0  0  0  0  0  0  0
    9.0179  -17.0961   29.0759 O   0  0  0  0  0  0  0  0  0  0  0  0
  2  1  1  0
  2  3  1  0
  3  4  1  0
  5  6  1  6
  5  4  1  0
  7  5  1  0
  7  8  2  0
 10  9  1  0
 10 11  1  0
 11 12  1  0
 13 12  1  1
 13 15  1  0
 13 14  1  0
 14  7  1  0
 15 16  2  0
 17 21  1  0
 17 15  1  0
 18 17  1  0
 19 18  1  0
 20 19  1  0
 20 21  1  0
 21 22  1  1
 22 23  2  0
 22 24  1  0
M  END
$$$$
