MMP.pdb
     RDKit          3D

 24 24  0  0  1  0  0  0  0  0999 V2000
    8.3213  -11.9062   19.2846 C   0  0  0  0  0  0  0  0  0  0  0  0
    7.7298  -13.3098   18.3161 S   0  0  0  0  0  0  0  0  0  0  0  0
    7.9275  -14.8162   19.2937 C   0  0  0  0  0  0  0  0  0  0  0  0
    9.3052  -14.8917   19.9112 C   0  0  0  0  0  0  0  0  0  0  0  0
    9.3423  -15.8886   21.0143 C   0  0  2  0  0  0  0  0  0  0  0  0
    8.1984  -16.7769   20.8843 N   0  0  0  0  0  0  0  0  0  0  0  0
    9.4345  -15.3259   22.3750 C   0  0  0  0  0  0  0  0  0  0  0  0
   10.4758  -14.6610   22.7034 O   0  0  0  0  0  0  0  0  0  0  0  0
    5.9886  -11.0985   26.6354 C   0  0  0  0  0  0  0  0  0  0  0  0
    5.9417  -12.8041   27.1080 S   0  0  0  0  0  0  0  0  0  0  0  0
    7.3492  -13.7807   26.5741 C   0  0  0  0  0  0  0  0  0  0  0  0
    7.3333  -14.2671   25.1855 C   0  0  0  0  0  0  0  0  0  0  0  0
    8.5907  -14.9017   24.6845 C   0  0  2  0  0  0  0  0  0  0  0  0
    8.4461  -15.4553   23.3828 N   0  0  0  0  0  0  0  0  0  0  0  0
    9.2536  -15.8218   25.6172 C   0  0  0  0  0  0  0  0  0  0  0  0
    9.4144  -17.0475   25.1750 O   0  0  0  0  0  0  0  0  0  0  0  0
    9.7467  -15.6058   26.9072 N   0  0  0  0  0  0  0  0  0  0  0  0
    9.2608  -14.5482   27.8016 C   0  0  0  0  0  0  0  0  0  0  0  0
   10.5605  -14.0406   28.3729 C   0  0  0  0  0  0  0  0  0  0  0  0
   11.5428  -15.1695   28.2761 C   0  0  0  0  0  0  0  0  0  0  0  0
   10.7197  -16.2928   27.6609 C   0  0  1  0  0  0  0  0  0  0  0  0
   10.1796  -17.1985   28.6871 C   0  0  0  0  0  0  0  0  0  0  0  0
    8.9510  -17.1870   28.9139 O   0  0  0  0  0  0  0  0  0  0  0  0
   11.0008  -18.0516   29.3956 O   0  0  0  0  0  0  0  0  0  0  0  0
  2  1  1  0
  2  3  1  0
  3  4  1  0
  5  6  1  1
  5  4  1  0
  7  5  1  0
  7  8  2  0
 10  9  1  0
 10 11  1  0
 11 12  1  0
 13 12  1  1
 13 15  1  0
 13 14  1  0
 14  7  1  0
 15 16  2  0
 17 21  1  0
 17 15  1  0
 18 17  1  0
 19 18  1  0
 20 19  1  0
 20 21  1  0
 21 22  1  1
 22 23  2  0
 22 24  1  0
M  END
$$$$
