MMP.pdb
     RDKit          3D

 24 24  0  0  1  0  0  0  0  0999 V2000
    0.3160  -19.4465   22.0674 C   0  0  0  0  0  0  0  0  0  0  0  0
    1.2080  -21.0074   22.2286 S   0  0  0  0  0  0  0  0  0  0  0  0
    2.8819  -20.6634   22.8149 C   0  0  0  0  0  0  0  0  0  0  0  0
    3.4042  -19.3628   22.2486 C   0  0  0  0  0  0  0  0  0  0  0  0
    4.7920  -19.0972   22.7127 C   0  0  2  0  0  0  0  0  0  0  0  0
    5.0380  -19.8641   23.9235 N   0  0  0  0  0  0  0  0  0  0  0  0
    5.1380  -17.6749   22.8973 C   0  0  0  0  0  0  0  0  0  0  0  0
    4.9093  -16.8513   21.9468 O   0  0  0  0  0  0  0  0  0  0  0  0
    6.3468  -11.8449   27.3979 C   0  0  0  0  0  0  0  0  0  0  0  0
    7.3752  -13.2661   27.1584 S   0  0  0  0  0  0  0  0  0  0  0  0
    7.2729  -14.0139   25.5305 C   0  0  0  0  0  0  0  0  0  0  0  0
    6.5892  -15.3134   25.4370 C   0  0  0  0  0  0  0  0  0  0  0  0
    6.4286  -15.8878   24.0661 C   0  0  2  0  0  0  0  0  0  0  0  0
    5.7159  -17.1182   24.0658 N   0  0  0  0  0  0  0  0  0  0  0  0
    7.6503  -15.9446   23.2537 C   0  0  0  0  0  0  0  0  0  0  0  0
    8.3383  -17.0583   23.3545 O   0  0  0  0  0  0  0  0  0  0  0  0
    8.2049  -15.0020   22.3831 N   0  0  0  0  0  0  0  0  0  0  0  0
    7.7442  -13.6121   22.2820 C   0  0  0  0  0  0  0  0  0  0  0  0
    7.7510  -13.4191   20.7867 C   0  0  0  0  0  0  0  0  0  0  0  0
    8.7458  -14.3944   20.2317 C   0  0  0  0  0  0  0  0  0  0  0  0
    9.2804  -15.0895   21.4762 C   0  0  1  0  0  0  0  0  0  0  0  0
   10.5347  -14.4796   21.9453 C   0  0  0  0  0  0  0  0  0  0  0  0
   11.5487  -14.5539   21.2192 O   0  0  0  0  0  0  0  0  0  0  0  0
   10.6074  -13.8336   23.1624 O   0  0  0  0  0  0  0  0  0  0  0  0
  2  1  1  0
  2  3  1  0
  3  4  1  0
  5  6  1  1
  5  4  1  0
  7  5  1  0
  7  8  2  0
 10  9  1  0
 10 11  1  0
 11 12  1  0
 13 12  1  1
 13 15  1  0
 13 14  1  0
 14  7  1  0
 15 16  2  0
 17 21  1  0
 17 15  1  0
 18 17  1  0
 19 18  1  0
 20 19  1  0
 20 21  1  0
 21 22  1  1
 22 23  2  0
 22 24  1  0
M  END
$$$$
