MMP.pdb
     RDKit          3D

 24 24  0  0  1  0  0  0  0  0999 V2000
    1.2811  -19.0625   20.7337 C   0  0  0  0  0  0  0  0  0  0  0  0
    1.2555  -20.2026   22.1327 S   0  0  0  0  0  0  0  0  0  0  0  0
    2.8851  -20.2033   22.9130 C   0  0  0  0  0  0  0  0  0  0  0  0
    3.7565  -19.0977   22.3623 C   0  0  0  0  0  0  0  0  0  0  0  0
    5.1027  -19.1137   22.9943 C   0  0  2  0  0  0  0  0  0  0  0  0
    5.0063  -19.7664   24.2902 N   0  0  0  0  0  0  0  0  0  0  0  0
    5.7691  -17.8018   23.1012 C   0  0  0  0  0  0  0  0  0  0  0  0
    6.0403  -17.1536   22.0331 O   0  0  0  0  0  0  0  0  0  0  0  0
    5.7378  -12.0014   26.7494 C   0  0  0  0  0  0  0  0  0  0  0  0
    7.2983  -12.8169   26.9355 S   0  0  0  0  0  0  0  0  0  0  0  0
    7.6939  -14.0054   25.6507 C   0  0  0  0  0  0  0  0  0  0  0  0
    6.7898  -15.1576   25.5089 C   0  0  0  0  0  0  0  0  0  0  0  0
    7.0625  -16.0857   24.3690 C   0  0  2  0  0  0  0  0  0  0  0  0
    6.1468  -17.1719   24.3136 N   0  0  0  0  0  0  0  0  0  0  0  0
    8.4580  -16.5175   24.2209 C   0  0  0  0  0  0  0  0  0  0  0  0
    8.7722  -17.6231   24.8555 O   0  0  0  0  0  0  0  0  0  0  0  0
    9.5145  -15.9421   23.5090 N   0  0  0  0  0  0  0  0  0  0  0  0
    9.5366  -14.5424   23.0679 C   0  0  0  0  0  0  0  0  0  0  0  0
   10.0863  -14.6935   21.6721 C   0  0  0  0  0  0  0  0  0  0  0  0
   10.8792  -15.9663   21.6577 C   0  0  0  0  0  0  0  0  0  0  0  0
   10.7525  -16.4693   23.0890 C   0  0  1  0  0  0  0  0  0  0  0  0
   11.9049  -16.0692   23.9118 C   0  0  0  0  0  0  0  0  0  0  0  0
   11.7449  -15.1904   24.7854 O   0  0  0  0  0  0  0  0  0  0  0  0
   13.1469  -16.6439   23.7353 O   0  0  0  0  0  0  0  0  0  0  0  0
  2  1  1  0
  2  3  1  0
  3  4  1  0
  5  6  1  1
  5  4  1  0
  7  5  1  0
  7  8  2  0
 10  9  1  0
 10 11  1  0
 11 12  1  0
 13 12  1  1
 13 15  1  0
 13 14  1  0
 14  7  1  0
 15 16  2  0
 17 21  1  0
 17 15  1  0
 18 17  1  0
 19 18  1  0
 20 19  1  0
 20 21  1  0
 21 22  1  1
 22 23  2  0
 22 24  1  0
M  END
$$$$
