MMP.pdb
     RDKit          3D

 24 24  0  0  1  0  0  0  0  0999 V2000
    8.8229  -12.2293   18.6630 C   0  0  0  0  0  0  0  0  0  0  0  0
    7.3467  -13.2536   18.8348 S   0  0  0  0  0  0  0  0  0  0  0  0
    7.7080  -14.6088   19.9738 C   0  0  0  0  0  0  0  0  0  0  0  0
    9.1925  -14.8853   20.0429 C   0  0  0  0  0  0  0  0  0  0  0  0
    9.5069  -15.8450   21.1348 C   0  0  2  0  0  0  0  0  0  0  0  0
    8.6576  -17.0165   20.9905 N   0  0  0  0  0  0  0  0  0  0  0  0
    9.4371  -15.2953   22.5021 C   0  0  0  0  0  0  0  0  0  0  0  0
   10.3460  -14.4862   22.8938 O   0  0  0  0  0  0  0  0  0  0  0  0
    6.7281  -11.3726   27.3684 C   0  0  0  0  0  0  0  0  0  0  0  0
    5.9048  -12.8801   26.9390 S   0  0  0  0  0  0  0  0  0  0  0  0
    6.9840  -14.2907   26.6836 C   0  0  0  0  0  0  0  0  0  0  0  0
    7.0675  -14.8255   25.3154 C   0  0  0  0  0  0  0  0  0  0  0  0
    8.4396  -15.0793   24.7789 C   0  0  2  0  0  0  0  0  0  0  0  0
    8.4252  -15.5871   23.4509 N   0  0  0  0  0  0  0  0  0  0  0  0
    9.3371  -15.8356   25.6612 C   0  0  0  0  0  0  0  0  0  0  0  0
    9.8133  -16.9491   25.1539 O   0  0  0  0  0  0  0  0  0  0  0  0
    9.7726  -15.5626   26.9611 N   0  0  0  0  0  0  0  0  0  0  0  0
    9.2001  -14.5122   27.8114 C   0  0  0  0  0  0  0  0  0  0  0  0
   10.4500  -13.9214   28.4128 C   0  0  0  0  0  0  0  0  0  0  0  0
   11.4941  -14.9972   28.3779 C   0  0  0  0  0  0  0  0  0  0  0  0
   10.7541  -16.1778   27.7643 C   0  0  1  0  0  0  0  0  0  0  0  0
   10.2278  -17.0870   28.7946 C   0  0  0  0  0  0  0  0  0  0  0  0
   11.0346  -17.7054   29.5209 O   0  0  0  0  0  0  0  0  0  0  0  0
    8.8706  -17.2652   28.9693 O   0  0  0  0  0  0  0  0  0  0  0  0
  2  1  1  0
  2  3  1  0
  3  4  1  0
  5  6  1  1
  5  4  1  0
  7  5  1  0
  7  8  2  0
 10  9  1  0
 10 11  1  0
 11 12  1  0
 13 12  1  1
 13 15  1  0
 13 14  1  0
 14  7  1  0
 15 16  2  0
 17 21  1  0
 17 15  1  0
 18 17  1  0
 19 18  1  0
 20 19  1  0
 20 21  1  0
 21 22  1  1
 22 23  2  0
 22 24  1  0
M  END
$$$$
