MMP.pdb
     RDKit          3D

 24 24  0  0  1  0  0  0  0  0999 V2000
    9.6277  -15.1434   29.8188 C   0  0  0  0  0  0  0  0  0  0  0  0
   10.7164  -16.3277   29.0001 S   0  0  0  0  0  0  0  0  0  0  0  0
    9.7412  -17.3067   27.8361 C   0  0  0  0  0  0  0  0  0  0  0  0
    8.3547  -17.5767   28.3745 C   0  0  0  0  0  0  0  0  0  0  0  0
    7.5278  -18.3081   27.3779 C   0  0  2  0  0  0  0  0  0  0  0  0
    8.1610  -19.5845   27.0872 N   0  0  0  0  0  0  0  0  0  0  0  0
    7.2212  -17.5656   26.1405 C   0  0  0  0  0  0  0  0  0  0  0  0
    7.4389  -18.1232   25.0110 O   0  0  0  0  0  0  0  0  0  0  0  0
    9.0091  -11.8272   27.5072 C   0  0  0  0  0  0  0  0  0  0  0  0
    8.3723  -12.6422   26.0702 S   0  0  0  0  0  0  0  0  0  0  0  0
    6.7686  -13.4183   26.2833 C   0  0  0  0  0  0  0  0  0  0  0  0
    6.1908  -14.0860   25.1063 C   0  0  0  0  0  0  0  0  0  0  0  0
    6.5954  -15.5069   24.8774 C   0  0  2  0  0  0  0  0  0  0  0  0
    6.6898  -16.2527   26.0843 N   0  0  0  0  0  0  0  0  0  0  0  0
    7.7573  -15.7036   24.0015 C   0  0  0  0  0  0  0  0  0  0  0  0
    8.6518  -16.5579   24.4416 O   0  0  0  0  0  0  0  0  0  0  0  0
    8.0695  -15.1280   22.7665 N   0  0  0  0  0  0  0  0  0  0  0  0
    7.8416  -13.7149   22.4422 C   0  0  0  0  0  0  0  0  0  0  0  0
    7.2888  -13.8302   21.0442 C   0  0  0  0  0  0  0  0  0  0  0  0
    7.8084  -15.1193   20.4813 C   0  0  0  0  0  0  0  0  0  0  0  0
    8.6690  -15.6683   21.6108 C   0  0  1  0  0  0  0  0  0  0  0  0
   10.0882  -15.3229   21.4326 C   0  0  0  0  0  0  0  0  0  0  0  0
   10.5971  -14.4620   22.1817 O   0  0  0  0  0  0  0  0  0  0  0  0
   10.8580  -15.9289   20.4609 O   0  0  0  0  0  0  0  0  0  0  0  0
  2  1  1  0
  2  3  1  0
  3  4  1  0
  5  6  1  6
  5  4  1  0
  7  5  1  0
  7  8  2  0
 10  9  1  0
 10 11  1  0
 11 12  1  0
 13 12  1  1
 13 15  1  0
 13 14  1  0
 14  7  1  0
 15 16  2  0
 17 21  1  0
 17 15  1  0
 18 17  1  0
 19 18  1  0
 20 19  1  0
 20 21  1  0
 21 22  1  6
 22 23  2  0
 22 24  1  0
M  END
$$$$
