MMP.pdb
     RDKit          3D

 24 24  0  0  1  0  0  0  0  0999 V2000
    8.7673  -12.0193   19.4484 C   0  0  0  0  0  0  0  0  0  0  0  0
    7.3630  -12.9386   20.1124 S   0  0  0  0  0  0  0  0  0  0  0  0
    7.5368  -14.6777   19.6545 C   0  0  0  0  0  0  0  0  0  0  0  0
    8.9614  -15.1512   19.8319 C   0  0  0  0  0  0  0  0  0  0  0  0
    9.0735  -16.0889   20.9808 C   0  0  2  0  0  0  0  0  0  0  0  0
    7.8938  -16.9387   21.0113 N   0  0  0  0  0  0  0  0  0  0  0  0
    9.3165  -15.4589   22.2926 C   0  0  0  0  0  0  0  0  0  0  0  0
   10.3616  -14.7403   22.4528 O   0  0  0  0  0  0  0  0  0  0  0  0
    4.9918  -12.5058   27.0464 C   0  0  0  0  0  0  0  0  0  0  0  0
    6.7426  -12.2584   26.9561 S   0  0  0  0  0  0  0  0  0  0  0  0
    7.5268  -12.9016   25.4759 C   0  0  0  0  0  0  0  0  0  0  0  0
    7.5433  -14.3640   25.3134 C   0  0  0  0  0  0  0  0  0  0  0  0
    8.7584  -14.9520   24.6710 C   0  0  2  0  0  0  0  0  0  0  0  0
    8.4737  -15.5772   23.4261 N   0  0  0  0  0  0  0  0  0  0  0  0
    9.5968  -15.7860   25.5412 C   0  0  0  0  0  0  0  0  0  0  0  0
   10.0303  -16.9008   24.9997 O   0  0  0  0  0  0  0  0  0  0  0  0
   10.0138  -15.5865   26.8605 N   0  0  0  0  0  0  0  0  0  0  0  0
    9.4603  -14.5548   27.7456 C   0  0  0  0  0  0  0  0  0  0  0  0
   10.7170  -14.0362   28.3974 C   0  0  0  0  0  0  0  0  0  0  0  0
   11.7235  -15.1461   28.3348 C   0  0  0  0  0  0  0  0  0  0  0  0
   10.9560  -16.2712   27.6543 C   0  0  1  0  0  0  0  0  0  0  0  0
   10.3766  -17.2056   28.6322 C   0  0  0  0  0  0  0  0  0  0  0  0
    9.1403  -17.1978   28.8131 O   0  0  0  0  0  0  0  0  0  0  0  0
   11.1694  -18.0814   29.3453 O   0  0  0  0  0  0  0  0  0  0  0  0
  2  1  1  0
  2  3  1  0
  3  4  1  0
  5  6  1  1
  5  4  1  0
  7  5  1  0
  7  8  2  0
 10  9  1  0
 10 11  1  0
 11 12  1  0
 13 12  1  1
 13 15  1  0
 13 14  1  0
 14  7  1  0
 15 16  2  0
 17 21  1  0
 17 15  1  0
 18 17  1  0
 19 18  1  0
 20 19  1  0
 20 21  1  0
 21 22  1  1
 22 23  2  0
 22 24  1  0
M  END
$$$$
