MMP.pdb
     RDKit          3D

 24 24  0  0  1  0  0  0  0  0999 V2000
    6.3632  -11.5098   26.4257 C   0  0  0  0  0  0  0  0  0  0  0  0
    5.1023  -12.8009   26.3893 S   0  0  0  0  0  0  0  0  0  0  0  0
    5.5001  -13.9660   25.0670 C   0  0  0  0  0  0  0  0  0  0  0  0
    6.7078  -14.8038   25.4201 C   0  0  0  0  0  0  0  0  0  0  0  0
    7.4297  -15.2428   24.1961 C   0  0  2  0  0  0  0  0  0  0  0  0
    6.5424  -16.0753   23.3997 N   0  0  0  0  0  0  0  0  0  0  0  0
    8.7263  -15.9073   24.4283 C   0  0  0  0  0  0  0  0  0  0  0  0
    8.8393  -17.1552   24.1749 O   0  0  0  0  0  0  0  0  0  0  0  0
   10.1280  -15.4713   29.3642 C   0  0  0  0  0  0  0  0  0  0  0  0
   11.5354  -14.5799   28.7648 S   0  0  0  0  0  0  0  0  0  0  0  0
   11.4764  -14.1452   27.0249 C   0  0  0  0  0  0  0  0  0  0  0  0
   12.0260  -15.1254   26.0751 C   0  0  0  0  0  0  0  0  0  0  0  0
   11.0386  -15.9921   25.3618 C   0  0  2  0  0  0  0  0  0  0  0  0
    9.8949  -15.2727   24.9190 N   0  0  0  0  0  0  0  0  0  0  0  0
   10.6872  -17.2461   26.0399 C   0  0  0  0  0  0  0  0  0  0  0  0
    9.4912  -17.2739   26.5808 O   0  0  0  0  0  0  0  0  0  0  0  0
   11.4211  -18.4244   26.2044 N   0  0  0  0  0  0  0  0  0  0  0  0
   12.7942  -18.6068   25.7191 C   0  0  0  0  0  0  0  0  0  0  0  0
   12.7112  -20.0003   25.1497 C   0  0  0  0  0  0  0  0  0  0  0  0
   11.5939  -20.6936   25.8707 C   0  0  0  0  0  0  0  0  0  0  0  0
   11.1064  -19.6364   26.8517 C   0  0  1  0  0  0  0  0  0  0  0  0
   11.7159  -19.8029   28.1806 C   0  0  0  0  0  0  0  0  0  0  0  0
   12.5791  -18.9805   28.5544 O   0  0  0  0  0  0  0  0  0  0  0  0
   11.3525  -20.8426   29.0118 O   0  0  0  0  0  0  0  0  0  0  0  0
  2  1  1  0
  2  3  1  0
  3  4  1  0
  5  6  1  1
  5  4  1  0
  7  5  1  0
  7  8  2  0
 10  9  1  0
 10 11  1  0
 11 12  1  0
 13 12  1  1
 13 15  1  0
 13 14  1  0
 14  7  1  0
 15 16  2  0
 17 21  1  0
 17 15  1  0
 18 17  1  0
 19 18  1  0
 20 19  1  0
 20 21  1  0
 21 22  1  1
 22 23  2  0
 22 24  1  0
M  END
$$$$
