MMP.pdb
     RDKit          3D

 24 24  0  0  1  0  0  0  0  0999 V2000
    8.6265  -21.1181   20.4696 C   0  0  0  0  0  0  0  0  0  0  0  0
    8.0814  -22.3528   21.6680 S   0  0  0  0  0  0  0  0  0  0  0  0
    7.8809  -21.5544   23.2762 C   0  0  0  0  0  0  0  0  0  0  0  0
    7.0166  -20.3187   23.1704 C   0  0  0  0  0  0  0  0  0  0  0  0
    6.9927  -19.5718   24.4563 C   0  0  2  0  0  0  0  0  0  0  0  0
    5.9485  -20.1262   25.3030 N   0  0  0  0  0  0  0  0  0  0  0  0
    6.8670  -18.1067   24.3367 C   0  0  0  0  0  0  0  0  0  0  0  0
    5.8459  -17.6169   23.7437 O   0  0  0  0  0  0  0  0  0  0  0  0
    9.5680  -14.0514   28.9088 C   0  0  0  0  0  0  0  0  0  0  0  0
    8.9365  -13.3149   27.4277 S   0  0  0  0  0  0  0  0  0  0  0  0
    8.0193  -14.4249   26.3570 C   0  0  0  0  0  0  0  0  0  0  0  0
    8.7246  -14.9420   25.1738 C   0  0  0  0  0  0  0  0  0  0  0  0
    7.9518  -15.8605   24.2826 C   0  0  2  0  0  0  0  0  0  0  0  0
    7.7992  -17.1619   24.8344 N   0  0  0  0  0  0  0  0  0  0  0  0
    8.3784  -15.8909   22.8780 C   0  0  0  0  0  0  0  0  0  0  0  0
    8.8146  -17.0532   22.4505 O   0  0  0  0  0  0  0  0  0  0  0  0
    8.3953  -14.8793   21.9134 N   0  0  0  0  0  0  0  0  0  0  0  0
    8.1400  -13.4644   22.2082 C   0  0  0  0  0  0  0  0  0  0  0  0
    7.2566  -13.0874   21.0460 C   0  0  0  0  0  0  0  0  0  0  0  0
    7.5799  -14.0394   19.9334 C   0  0  0  0  0  0  0  0  0  0  0  0
    8.6741  -14.9125   20.5321 C   0  0  1  0  0  0  0  0  0  0  0  0
   10.0161  -14.4360   20.1616 C   0  0  0  0  0  0  0  0  0  0  0  0
   10.7108  -13.8610   21.0263 O   0  0  0  0  0  0  0  0  0  0  0  0
   10.5139  -14.6126   18.8868 O   0  0  0  0  0  0  0  0  0  0  0  0
  2  1  1  0
  2  3  1  0
  3  4  1  0
  5  6  1  1
  5  4  1  0
  7  5  1  0
  7  8  2  0
 10  9  1  0
 10 11  1  0
 11 12  1  0
 13 12  1  1
 13 15  1  0
 13 14  1  0
 14  7  1  0
 15 16  2  0
 17 21  1  0
 17 15  1  0
 18 17  1  0
 19 18  1  0
 20 19  1  0
 20 21  1  0
 21 22  1  1
 22 23  2  0
 22 24  1  0
M  END
$$$$
