GQP.pdb
     RDKit          3D

 21 21  0  0  1  0  0  0  0  0999 V2000
   28.4525  -25.6155  -17.4418 N   0  0  0  0  0  0  0  0  0  0  0  0
   27.0752  -25.2542  -17.2945 C   0  0  0  0  0  0  0  0  0  0  0  0
   26.9481  -23.9181  -16.6121 C   0  0  0  0  0  0  0  0  0  0  0  0
   27.9783  -23.3301  -16.2577 O   0  0  0  0  0  0  0  0  0  0  0  0
   21.9063  -21.2872  -15.3088 N   0  0  0  0  0  0  0  0  0  0  0  0
   22.6610  -20.0673  -15.2219 C   0  0  0  0  0  0  0  0  0  0  0  0
   22.1126  -19.1040  -14.6444 O   0  0  0  0  0  0  0  0  0  0  0  0
   24.0477  -19.9855  -15.8103 C   0  0  0  0  0  0  0  0  0  0  0  0
   24.3428  -21.3481  -16.3780 C   0  0  0  0  0  0  0  0  0  0  0  0
   25.4372  -22.0982  -15.7334 C   0  0  2  0  0  0  0  0  0  0  0  0
   25.6714  -23.3572  -16.3866 N   0  0  0  0  0  0  0  0  0  0  0  0
   25.4629  -22.1888  -14.2734 C   0  0  0  0  0  0  0  0  0  0  0  0
   24.7059  -23.0995  -13.7707 O   0  0  0  0  0  0  0  0  0  0  0  0
   26.2095  -21.4049  -13.3769 N   0  0  0  0  0  0  0  0  0  0  0  0
   27.1760  -20.3982  -13.8793 C   0  0  0  0  0  0  0  0  0  0  0  0
   28.2218  -20.3267  -12.7886 C   0  0  0  0  0  0  0  0  0  0  0  0
   27.3279  -20.2883  -11.5713 C   0  0  0  0  0  0  0  0  0  0  0  0
   26.2728  -21.3453  -11.9417 C   0  0  1  0  0  0  0  0  0  0  0  0
   25.0274  -20.8836  -11.3053 C   0  0  0  0  0  0  0  0  0  0  0  0
   24.1554  -20.3175  -11.9917 O   0  0  0  0  0  0  0  0  0  0  0  0
   24.8068  -21.0671   -9.9558 O   0  0  0  0  0  0  0  0  0  0  0  0
  2  1  1  0
  2  3  1  0
  3 11  1  0
  4  3  2  0
  5  6  1  0
  6  8  1  0
  7  6  2  0
  8  9  1  0
 10  9  1  1
 11 10  1  0
 12 10  1  0
 12 14  1  0
 13 12  2  0
 14 18  1  0
 15 14  1  0
 15 16  1  0
 16 17  1  0
 18 17  1  0
 18 19  1  1
 19 21  1  0
 20 19  2  0
M  END
$$$$
