GQP.pdb
     RDKit          3D

 21 21  0  0  1  0  0  0  0  0999 V2000
   27.8117  -17.0712  -18.2310 N   0  0  0  0  0  0  0  0  0  0  0  0
   27.6044  -18.3152  -17.5536 C   0  0  0  0  0  0  0  0  0  0  0  0
   26.8304  -18.1023  -16.2799 C   0  0  0  0  0  0  0  0  0  0  0  0
   26.1959  -17.0487  -16.1378 O   0  0  0  0  0  0  0  0  0  0  0  0
   22.4097  -18.4244  -16.5076 N   0  0  0  0  0  0  0  0  0  0  0  0
   22.1087  -19.2208  -15.3498 C   0  0  0  0  0  0  0  0  0  0  0  0
   20.9128  -19.2631  -14.9890 O   0  0  0  0  0  0  0  0  0  0  0  0
   23.2073  -19.9589  -14.6259 C   0  0  0  0  0  0  0  0  0  0  0  0
   24.4856  -19.6155  -15.3428 C   0  0  0  0  0  0  0  0  0  0  0  0
   25.6875  -19.4767  -14.4990 C   0  0  2  0  0  0  0  0  0  0  0  0
   26.8362  -19.0940  -15.2740 N   0  0  0  0  0  0  0  0  0  0  0  0
   25.9755  -20.5150  -13.5093 C   0  0  0  0  0  0  0  0  0  0  0  0
   26.3594  -21.6416  -13.9976 O   0  0  0  0  0  0  0  0  0  0  0  0
   25.8804  -20.4185  -12.1102 N   0  0  0  0  0  0  0  0  0  0  0  0
   25.5607  -19.1226  -11.4634 C   0  0  0  0  0  0  0  0  0  0  0  0
   26.2377  -19.2165  -10.1138 C   0  0  0  0  0  0  0  0  0  0  0  0
   25.8411  -20.6199   -9.7195 C   0  0  0  0  0  0  0  0  0  0  0  0
   26.0439  -21.3720  -11.0465 C   0  0  1  0  0  0  0  0  0  0  0  0
   25.0318  -22.4420  -11.0396 C   0  0  0  0  0  0  0  0  0  0  0  0
   23.9984  -22.3199  -11.7248 O   0  0  0  0  0  0  0  0  0  0  0  0
   25.2072  -23.5833  -10.2847 O   0  0  0  0  0  0  0  0  0  0  0  0
  2  1  1  0
  2  3  1  0
  3 11  1  0
  4  3  2  0
  5  6  1  0
  6  8  1  0
  7  6  2  0
  8  9  1  0
 10  9  1  6
 11 10  1  0
 12 10  1  0
 12 14  1  0
 13 12  2  0
 14 18  1  0
 15 14  1  0
 15 16  1  0
 16 17  1  0
 18 17  1  0
 18 19  1  6
 19 21  1  0
 20 19  2  0
M  END
$$$$
