GQP.pdb
     RDKit          3D

 21 21  0  0  1  0  0  0  0  0999 V2000
   26.6953  -25.7827  -16.5547 N   0  0  0  0  0  0  0  0  0  0  0  0
   25.8896  -24.6222  -16.7853 C   0  0  0  0  0  0  0  0  0  0  0  0
   26.0699  -23.6226  -15.6739 C   0  0  0  0  0  0  0  0  0  0  0  0
   26.3907  -24.0326  -14.5507 O   0  0  0  0  0  0  0  0  0  0  0  0
   28.4870  -18.5626  -15.0939 N   0  0  0  0  0  0  0  0  0  0  0  0
   28.3429  -19.1721  -16.3875 C   0  0  0  0  0  0  0  0  0  0  0  0
   29.3110  -19.0686  -17.1713 O   0  0  0  0  0  0  0  0  0  0  0  0
   27.0702  -19.8956  -16.7515 C   0  0  0  0  0  0  0  0  0  0  0  0
   26.2198  -19.8980  -15.5095 C   0  0  0  0  0  0  0  0  0  0  0  0
   25.9372  -21.2191  -14.9173 C   0  0  2  0  0  0  0  0  0  0  0  0
   25.8736  -22.2458  -15.9215 N   0  0  0  0  0  0  0  0  0  0  0  0
   24.8815  -21.3270  -13.9101 C   0  0  0  0  0  0  0  0  0  0  0  0
   23.7516  -21.7579  -14.3492 O   0  0  0  0  0  0  0  0  0  0  0  0
   24.9647  -21.0171  -12.5416 N   0  0  0  0  0  0  0  0  0  0  0  0
   26.2538  -20.5969  -11.9403 C   0  0  0  0  0  0  0  0  0  0  0  0
   26.1488  -21.0583  -10.5034 C   0  0  0  0  0  0  0  0  0  0  0  0
   24.7409  -20.6108  -10.1874 C   0  0  0  0  0  0  0  0  0  0  0  0
   24.0017  -21.0183  -11.4739 C   0  0  1  0  0  0  0  0  0  0  0  0
   22.9294  -20.0212  -11.6325 C   0  0  0  0  0  0  0  0  0  0  0  0
   23.0755  -19.0784  -12.4337 O   0  0  0  0  0  0  0  0  0  0  0  0
   21.7596  -20.1118  -10.9068 O   0  0  0  0  0  0  0  0  0  0  0  0
  2  1  1  0
  2  3  1  0
  3 11  1  0
  4  3  2  0
  5  6  1  0
  6  8  1  0
  7  6  2  0
  8  9  1  0
 10  9  1  6
 11 10  1  0
 12 10  1  0
 12 14  1  0
 13 12  2  0
 14 18  1  0
 15 14  1  0
 15 16  1  0
 16 17  1  0
 18 17  1  0
 18 19  1  6
 19 21  1  0
 20 19  2  0
M  END
$$$$
