GQP.pdb
     RDKit          3D

 21 21  0  0  1  0  0  0  0  0999 V2000
   20.8051  -12.3658  -17.7469 N   0  0  0  0  0  0  0  0  0  0  0  0
   20.8966  -10.9614  -18.0086 C   0  0  0  0  0  0  0  0  0  0  0  0
   20.4954  -10.1687  -16.7931 C   0  0  0  0  0  0  0  0  0  0  0  0
   19.7229  -10.6842  -15.9743 O   0  0  0  0  0  0  0  0  0  0  0  0
   21.4473   -5.9272  -12.5970 N   0  0  0  0  0  0  0  0  0  0  0  0
   22.3005   -5.5531  -13.6914 C   0  0  0  0  0  0  0  0  0  0  0  0
   22.8769   -4.4474  -13.6056 O   0  0  0  0  0  0  0  0  0  0  0  0
   22.4713   -6.4743  -14.8739 C   0  0  0  0  0  0  0  0  0  0  0  0
   21.6079   -7.6759  -14.5969 C   0  0  0  0  0  0  0  0  0  0  0  0
   20.5467   -7.9554  -15.5825 C   0  0  2  0  0  0  0  0  0  0  0  0
   20.9981   -8.8624  -16.6023 N   0  0  0  0  0  0  0  0  0  0  0  0
   19.7618   -6.8376  -16.1067 C   0  0  0  0  0  0  0  0  0  0  0  0
   20.2428   -6.2821  -17.1628 O   0  0  0  0  0  0  0  0  0  0  0  0
   18.5628   -6.3138  -15.5928 N   0  0  0  0  0  0  0  0  0  0  0  0
   17.8348   -7.0186  -14.5097 C   0  0  0  0  0  0  0  0  0  0  0  0
   16.3890   -6.6375  -14.7398 C   0  0  0  0  0  0  0  0  0  0  0  0
   16.5466   -5.1572  -14.9973 C   0  0  0  0  0  0  0  0  0  0  0  0
   17.7899   -5.1421  -15.9039 C   0  0  1  0  0  0  0  0  0  0  0  0
   18.4732   -3.8740  -15.5968 C   0  0  0  0  0  0  0  0  0  0  0  0
   19.5529   -3.8883  -14.9753 O   0  0  0  0  0  0  0  0  0  0  0  0
   17.9375   -2.6638  -15.9863 O   0  0  0  0  0  0  0  0  0  0  0  0
  2  1  1  0
  2  3  1  0
  3 11  1  0
  4  3  2  0
  5  6  1  0
  6  8  1  0
  7  6  2  0
  8  9  1  0
 10  9  1  6
 11 10  1  0
 12 10  1  0
 12 14  1  0
 13 12  2  0
 14 18  1  0
 15 14  1  0
 15 16  1  0
 16 17  1  0
 18 17  1  0
 18 19  1  1
 19 21  1  0
 20 19  2  0
M  END
$$$$
