GQP.pdb
     RDKit          3D

 21 21  0  0  1  0  0  0  0  0999 V2000
   14.7385  -12.5314  -13.3766 N   0  0  0  0  0  0  0  0  0  0  0  0
   15.6928  -11.8494  -12.5560 C   0  0  0  0  0  0  0  0  0  0  0  0
   15.4024  -10.3725  -12.5215 C   0  0  0  0  0  0  0  0  0  0  0  0
   14.7495   -9.8722  -13.4468 O   0  0  0  0  0  0  0  0  0  0  0  0
   15.1741   -7.3341   -7.2919 N   0  0  0  0  0  0  0  0  0  0  0  0
   15.1229   -6.1747   -8.1396 C   0  0  0  0  0  0  0  0  0  0  0  0
   14.9888   -5.0678   -7.5748 O   0  0  0  0  0  0  0  0  0  0  0  0
   15.2287   -6.3206   -9.6374 C   0  0  0  0  0  0  0  0  0  0  0  0
   15.4536   -7.7855   -9.9008 C   0  0  0  0  0  0  0  0  0  0  0  0
   15.6428   -8.1711  -11.3119 C   0  0  2  0  0  0  0  0  0  0  0  0
   15.8718   -9.5838  -11.4477 N   0  0  0  0  0  0  0  0  0  0  0  0
   16.5228   -7.3577  -12.1512 C   0  0  0  0  0  0  0  0  0  0  0  0
   17.7719   -7.6580  -12.0822 O   0  0  0  0  0  0  0  0  0  0  0  0
   16.1602   -6.3041  -13.0081 N   0  0  0  0  0  0  0  0  0  0  0  0
   14.7318   -5.9942  -13.2601 C   0  0  0  0  0  0  0  0  0  0  0  0
   14.7310   -5.4054  -14.6536 C   0  0  0  0  0  0  0  0  0  0  0  0
   15.9191   -4.4785  -14.5464 C   0  0  0  0  0  0  0  0  0  0  0  0
   16.9213   -5.3637  -13.7850 C   0  0  1  0  0  0  0  0  0  0  0  0
   17.7228   -4.4285  -12.9775 C   0  0  0  0  0  0  0  0  0  0  0  0
   17.5511   -4.3722  -11.7448 O   0  0  0  0  0  0  0  0  0  0  0  0
   18.6656   -3.6090  -13.5632 O   0  0  0  0  0  0  0  0  0  0  0  0
  2  1  1  0
  2  3  1  0
  3 11  1  0
  4  3  2  0
  5  6  1  0
  6  8  1  0
  7  6  2  0
  8  9  1  0
 10  9  1  1
 11 10  1  0
 12 10  1  0
 12 14  1  0
 13 12  2  0
 14 18  1  0
 15 14  1  0
 15 16  1  0
 16 17  1  0
 18 17  1  0
 18 19  1  1
 19 21  1  0
 20 19  2  0
M  END
$$$$
