GQP.pdb
     RDKit          3D

 21 21  0  0  1  0  0  0  0  0999 V2000
   19.4952  -12.4095  -17.4505 N   0  0  0  0  0  0  0  0  0  0  0  0
   20.4541  -11.3900  -17.1496 C   0  0  0  0  0  0  0  0  0  0  0  0
   19.7820  -10.2011  -16.5159 C   0  0  0  0  0  0  0  0  0  0  0  0
   18.8340   -9.6678  -17.1071 O   0  0  0  0  0  0  0  0  0  0  0  0
   18.1542   -9.1864  -10.8614 N   0  0  0  0  0  0  0  0  0  0  0  0
   17.5355   -9.9681  -11.8967 C   0  0  0  0  0  0  0  0  0  0  0  0
   16.6233  -10.7475  -11.5468 O   0  0  0  0  0  0  0  0  0  0  0  0
   17.9888   -9.8310  -13.3290 C   0  0  0  0  0  0  0  0  0  0  0  0
   19.1258   -8.8445  -13.3160 C   0  0  0  0  0  0  0  0  0  0  0  0
   19.7305   -8.5317  -14.6245 C   0  0  2  0  0  0  0  0  0  0  0  0
   20.2346   -9.7132  -15.2698 N   0  0  0  0  0  0  0  0  0  0  0  0
   20.6341   -7.3855  -14.7255 C   0  0  0  0  0  0  0  0  0  0  0  0
   21.8869   -7.6728  -14.6696 O   0  0  0  0  0  0  0  0  0  0  0  0
   20.2902   -6.0307  -14.8739 N   0  0  0  0  0  0  0  0  0  0  0  0
   18.8743   -5.6271  -15.0536 C   0  0  0  0  0  0  0  0  0  0  0  0
   18.9625   -4.3543  -15.8663 C   0  0  0  0  0  0  0  0  0  0  0  0
   20.0840   -3.6544  -15.1351 C   0  0  0  0  0  0  0  0  0  0  0  0
   21.0632   -4.8188  -14.9046 C   0  0  1  0  0  0  0  0  0  0  0  0
   21.7387   -4.5061  -13.6337 C   0  0  0  0  0  0  0  0  0  0  0  0
   21.4312   -5.1303  -12.6003 O   0  0  0  0  0  0  0  0  0  0  0  0
   22.7110   -3.5297  -13.5653 O   0  0  0  0  0  0  0  0  0  0  0  0
  2  1  1  0
  2  3  1  0
  3 11  1  0
  4  3  2  0
  5  6  1  0
  6  8  1  0
  7  6  2  0
  8  9  1  0
 10  9  1  1
 11 10  1  0
 12 10  1  0
 12 14  1  0
 13 12  2  0
 14 18  1  0
 15 14  1  0
 15 16  1  0
 16 17  1  0
 18 17  1  0
 18 19  1  1
 19 21  1  0
 20 19  2  0
M  END
$$$$
