GQP.pdb
     RDKit          3D

 21 21  0  0  1  0  0  0  0  0999 V2000
   21.3102  -16.5261  -18.6753 N   0  0  0  0  0  0  0  0  0  0  0  0
   21.2356  -15.1455  -18.3043 C   0  0  0  0  0  0  0  0  0  0  0  0
   22.5906  -14.4965  -18.4025 C   0  0  0  0  0  0  0  0  0  0  0  0
   23.4937  -15.0919  -19.0047 O   0  0  0  0  0  0  0  0  0  0  0  0
   24.9099  -12.0035  -22.0530 N   0  0  0  0  0  0  0  0  0  0  0  0
   23.6237  -11.4702  -21.6970 C   0  0  0  0  0  0  0  0  0  0  0  0
   22.9460  -10.9676  -22.6192 O   0  0  0  0  0  0  0  0  0  0  0  0
   23.1430  -11.5295  -20.2683 C   0  0  0  0  0  0  0  0  0  0  0  0
   24.2242  -12.2318  -19.4914 C   0  0  0  0  0  0  0  0  0  0  0  0
   23.9740  -12.4160  -18.0494 C   0  0  2  0  0  0  0  0  0  0  0  0
   22.8139  -13.2318  -17.8143 N   0  0  0  0  0  0  0  0  0  0  0  0
   24.0521  -11.2511  -17.1677 C   0  0  0  0  0  0  0  0  0  0  0  0
   22.9174  -10.7686  -16.8008 O   0  0  0  0  0  0  0  0  0  0  0  0
   25.2088  -10.6135  -16.6869 N   0  0  0  0  0  0  0  0  0  0  0  0
   26.5546  -11.1400  -17.0209 C   0  0  0  0  0  0  0  0  0  0  0  0
   27.4059  -10.7289  -15.8399 C   0  0  0  0  0  0  0  0  0  0  0  0
   26.9396   -9.3026  -15.6654 C   0  0  0  0  0  0  0  0  0  0  0  0
   25.4208   -9.4590  -15.8565 C   0  0  1  0  0  0  0  0  0  0  0  0
   24.9784   -8.1931  -16.4654 C   0  0  0  0  0  0  0  0  0  0  0  0
   24.7923   -8.1306  -17.6958 O   0  0  0  0  0  0  0  0  0  0  0  0
   24.7648   -7.0686  -15.6951 O   0  0  0  0  0  0  0  0  0  0  0  0
  2  1  1  0
  2  3  1  0
  3 11  1  0
  4  3  2  0
  5  6  1  0
  6  8  1  0
  7  6  2  0
  8  9  1  0
 10  9  1  6
 11 10  1  0
 12 10  1  0
 12 14  1  0
 13 12  2  0
 14 18  1  0
 15 14  1  0
 15 16  1  0
 16 17  1  0
 18 17  1  0
 18 19  1  6
 19 21  1  0
 20 19  2  0
M  END
$$$$
