GQP.pdb
     RDKit          3D

 21 21  0  0  1  0  0  0  0  0999 V2000
    9.0477  -10.4572   -8.2900 N   0  0  0  0  0  0  0  0  0  0  0  0
    9.4653   -9.9560   -9.5642 C   0  0  0  0  0  0  0  0  0  0  0  0
   10.9421   -9.6632   -9.5602 C   0  0  0  0  0  0  0  0  0  0  0  0
   11.5312   -9.5878   -8.4740 O   0  0  0  0  0  0  0  0  0  0  0  0
   14.8839  -10.2413  -14.3836 N   0  0  0  0  0  0  0  0  0  0  0  0
   14.1412  -11.2906  -13.7412 C   0  0  0  0  0  0  0  0  0  0  0  0
   14.1029  -12.3947  -14.3259 O   0  0  0  0  0  0  0  0  0  0  0  0
   13.4513  -11.0393  -12.4234 C   0  0  0  0  0  0  0  0  0  0  0  0
   13.6192   -9.5713  -12.1359 C   0  0  0  0  0  0  0  0  0  0  0  0
   13.0068   -9.0787  -10.8877 C   0  0  2  0  0  0  0  0  0  0  0  0
   11.6306   -9.4800  -10.7800 N   0  0  0  0  0  0  0  0  0  0  0  0
   13.2384   -7.6896  -10.4913 C   0  0  0  0  0  0  0  0  0  0  0  0
   12.3834   -6.8432  -10.9470 O   0  0  0  0  0  0  0  0  0  0  0  0
   14.2731   -7.1879   -9.6828 N   0  0  0  0  0  0  0  0  0  0  0  0
   15.2203   -8.1105   -9.0109 C   0  0  0  0  0  0  0  0  0  0  0  0
   15.6369   -7.3567   -7.7673 C   0  0  0  0  0  0  0  0  0  0  0  0
   15.8738   -5.9870   -8.3588 C   0  0  0  0  0  0  0  0  0  0  0  0
   14.6681   -5.8577   -9.3061 C   0  0  1  0  0  0  0  0  0  0  0  0
   15.1487   -5.0344  -10.4287 C   0  0  0  0  0  0  0  0  0  0  0  0
   15.4756   -5.5800  -11.5000 O   0  0  0  0  0  0  0  0  0  0  0  0
   15.2444   -3.6627  -10.3161 O   0  0  0  0  0  0  0  0  0  0  0  0
  2  1  1  0
  2  3  1  0
  3 11  1  0
  4  3  2  0
  5  6  1  0
  6  8  1  0
  7  6  2  0
  8  9  1  0
 10  9  1  6
 11 10  1  0
 12 10  1  0
 12 14  1  0
 13 12  2  0
 14 18  1  0
 15 14  1  0
 15 16  1  0
 16 17  1  0
 18 17  1  0
 18 19  1  6
 19 21  1  0
 20 19  2  0
M  END
$$$$
