GQP.pdb
     RDKit          3D

 21 21  0  0  1  0  0  0  0  0999 V2000
   20.2120  -21.1156  -12.7830 N   0  0  0  0  0  0  0  0  0  0  0  0
   20.6676  -20.5672  -14.0244 C   0  0  0  0  0  0  0  0  0  0  0  0
   21.9614  -19.8219  -13.8313 C   0  0  0  0  0  0  0  0  0  0  0  0
   21.9286  -18.6942  -13.3213 O   0  0  0  0  0  0  0  0  0  0  0  0
   26.8460  -21.9493  -11.4185 N   0  0  0  0  0  0  0  0  0  0  0  0
   25.7913  -21.2101  -10.7808 C   0  0  0  0  0  0  0  0  0  0  0  0
   25.7076  -21.3046   -9.5373 O   0  0  0  0  0  0  0  0  0  0  0  0
   24.8460  -20.3688  -11.6020 C   0  0  0  0  0  0  0  0  0  0  0  0
   25.2712  -20.5394  -13.0358 C   0  0  0  0  0  0  0  0  0  0  0  0
   24.4759  -19.8099  -14.0413 C   0  0  2  0  0  0  0  0  0  0  0  0
   23.1828  -20.4095  -14.2290 N   0  0  0  0  0  0  0  0  0  0  0  0
   25.1190  -19.4143  -15.2945 C   0  0  0  0  0  0  0  0  0  0  0  0
   24.8568  -20.1686  -16.3032 O   0  0  0  0  0  0  0  0  0  0  0  0
   25.9756  -18.3215  -15.5131 N   0  0  0  0  0  0  0  0  0  0  0  0
   26.2822  -17.3720  -14.4156 C   0  0  0  0  0  0  0  0  0  0  0  0
   26.5542  -16.0680  -15.1325 C   0  0  0  0  0  0  0  0  0  0  0  0
   27.4323  -16.5657  -16.2565 C   0  0  0  0  0  0  0  0  0  0  0  0
   26.6928  -17.8511  -16.6670 C   0  0  1  0  0  0  0  0  0  0  0  0
   27.7469  -18.7681  -17.1328 C   0  0  0  0  0  0  0  0  0  0  0  0
   28.1357  -19.6907  -16.3913 O   0  0  0  0  0  0  0  0  0  0  0  0
   28.3153  -18.6242  -18.3816 O   0  0  0  0  0  0  0  0  0  0  0  0
  2  1  1  0
  2  3  1  0
  3 11  1  0
  4  3  2  0
  5  6  1  0
  6  8  1  0
  7  6  2  0
  8  9  1  0
 10  9  1  6
 11 10  1  0
 12 10  1  0
 12 14  1  0
 13 12  2  0
 14 18  1  0
 15 14  1  0
 15 16  1  0
 16 17  1  0
 18 17  1  0
 18 19  1  1
 19 21  1  0
 20 19  2  0
M  END
$$$$
