GQP.pdb
     RDKit          3D

 21 21  0  0  1  0  0  0  0  0999 V2000
   15.7340  -22.3430    1.0450 N   0  0  0  0  0  0  0  0  0  0  0  0
   15.2685  -21.1321    1.6504 C   0  0  0  0  0  0  0  0  0  0  0  0
   16.4075  -20.3933    2.3012 C   0  0  0  0  0  0  0  0  0  0  0  0
   17.5053  -20.9574    2.3978 O   0  0  0  0  0  0  0  0  0  0  0  0
   16.3340  -14.3104    3.0174 N   0  0  0  0  0  0  0  0  0  0  0  0
   17.5760  -14.5600    3.6959 C   0  0  0  0  0  0  0  0  0  0  0  0
   18.2449  -13.5602    4.0352 O   0  0  0  0  0  0  0  0  0  0  0  0
   18.0234  -15.9743    3.9708 C   0  0  0  0  0  0  0  0  0  0  0  0
   16.9822  -16.8701    3.3550 C   0  0  0  0  0  0  0  0  0  0  0  0
   17.2043  -18.3211    3.5004 C   0  0  2  0  0  0  0  0  0  0  0  0
   16.2139  -19.0815    2.7881 N   0  0  0  0  0  0  0  0  0  0  0  0
   17.5023  -18.8572    4.8286 C   0  0  0  0  0  0  0  0  0  0  0  0
   16.4865  -19.3155    5.4716 O   0  0  0  0  0  0  0  0  0  0  0  0
   18.7527  -18.9251    5.4672 N   0  0  0  0  0  0  0  0  0  0  0  0
   19.9999  -18.6433    4.7155 C   0  0  0  0  0  0  0  0  0  0  0  0
   21.0441  -19.4776    5.4240 C   0  0  0  0  0  0  0  0  0  0  0  0
   20.6898  -19.1749    6.8611 C   0  0  0  0  0  0  0  0  0  0  0  0
   19.1534  -19.2431    6.8109 C   0  0  1  0  0  0  0  0  0  0  0  0
   18.6932  -18.2733    7.8193 C   0  0  0  0  0  0  0  0  0  0  0  0
   18.2962  -17.1485    7.4593 O   0  0  0  0  0  0  0  0  0  0  0  0
   18.6932  -18.5883    9.1625 O   0  0  0  0  0  0  0  0  0  0  0  0
  2  1  1  0
  2  3  1  0
  3 11  1  0
  4  3  2  0
  5  6  1  0
  6  8  1  0
  7  6  2  0
  8  9  1  0
 10  9  1  1
 11 10  1  0
 12 10  1  0
 12 14  1  0
 13 12  2  0
 14 18  1  0
 15 14  1  0
 15 16  1  0
 16 17  1  0
 18 17  1  0
 18 19  1  1
 19 21  1  0
 20 19  2  0
M  END
$$$$
