GQP.pdb
     RDKit          3D

 21 21  0  0  1  0  0  0  0  0999 V2000
   25.3620  -20.5158   -9.0610 N   0  0  0  0  0  0  0  0  0  0  0  0
   24.7122  -20.9635  -10.2554 C   0  0  0  0  0  0  0  0  0  0  0  0
   25.3499  -20.3428  -11.4699 C   0  0  0  0  0  0  0  0  0  0  0  0
   25.9338  -19.2580  -11.3471 O   0  0  0  0  0  0  0  0  0  0  0  0
   28.5678  -22.5180  -15.4865 N   0  0  0  0  0  0  0  0  0  0  0  0
   28.0959  -21.4156  -16.2786 C   0  0  0  0  0  0  0  0  0  0  0  0
   28.9447  -20.8141  -16.9715 O   0  0  0  0  0  0  0  0  0  0  0  0
   26.6383  -21.0276  -16.2530 C   0  0  0  0  0  0  0  0  0  0  0  0
   26.1034  -21.4961  -14.9262 C   0  0  0  0  0  0  0  0  0  0  0  0
   25.7452  -20.4406  -13.9601 C   0  0  2  0  0  0  0  0  0  0  0  0
   25.2761  -20.9963  -12.7200 N   0  0  0  0  0  0  0  0  0  0  0  0
   24.9499  -19.3035  -14.4236 C   0  0  0  0  0  0  0  0  0  0  0  0
   23.6760  -19.4526  -14.3231 O   0  0  0  0  0  0  0  0  0  0  0  0
   25.4160  -18.0893  -14.9567 N   0  0  0  0  0  0  0  0  0  0  0  0
   26.8654  -17.7744  -14.9613 C   0  0  0  0  0  0  0  0  0  0  0  0
   26.9065  -16.2639  -14.8890 C   0  0  0  0  0  0  0  0  0  0  0  0
   25.8382  -15.9246  -15.9019 C   0  0  0  0  0  0  0  0  0  0  0  0
   24.7549  -16.9599  -15.5522 C   0  0  1  0  0  0  0  0  0  0  0  0
   24.0860  -17.2615  -16.8292 C   0  0  0  0  0  0  0  0  0  0  0  0
   24.4448  -18.2505  -17.4965 O   0  0  0  0  0  0  0  0  0  0  0  0
   23.0639  -16.4653  -17.3033 O   0  0  0  0  0  0  0  0  0  0  0  0
  2  1  1  0
  2  3  1  0
  3 11  1  0
  4  3  2  0
  5  6  1  0
  6  8  1  0
  7  6  2  0
  8  9  1  0
 10  9  1  6
 11 10  1  0
 12 10  1  0
 12 14  1  0
 13 12  2  0
 14 18  1  0
 15 14  1  0
 15 16  1  0
 16 17  1  0
 18 17  1  0
 18 19  1  6
 19 21  1  0
 20 19  2  0
M  END
$$$$
