KFG.pdb
     RDKit          3D

 25 25  0  0  1  0  0  0  0  0999 V2000
   27.7896  -30.1278  -16.8669 N   0  0  0  0  0  0  0  0  0  0  0  0
   26.4128  -29.7251  -16.7985 C   0  0  1  0  0  0  0  0  0  0  0  0
   25.5536  -30.6553  -16.0090 C   0  0  0  0  0  0  0  0  0  0  0  0
   24.9450  -31.7761  -16.7828 C   0  0  0  0  0  0  0  0  0  0  0  0
   23.8357  -31.3892  -17.7058 C   0  0  0  0  0  0  0  0  0  0  0  0
   22.6695  -32.3339  -17.5735 C   0  0  0  0  0  0  0  0  0  0  0  0
   21.7488  -31.8526  -16.5709 N   0  0  0  0  0  0  0  0  0  0  0  0
   26.3381  -28.3528  -16.2380 C   0  0  0  0  0  0  0  0  0  0  0  0
   27.0706  -28.0520  -15.2800 O   0  0  0  0  0  0  0  0  0  0  0  0
   25.4725  -27.3558  -16.7361 N   0  0  0  0  0  0  0  0  0  0  0  0
   25.4340  -26.0627  -16.1367 C   0  0  1  0  0  0  0  0  0  0  0  0
   26.0308  -25.0140  -17.0455 C   0  0  0  0  0  0  0  0  0  0  0  0
   27.4133  -25.2794  -17.4500 C   0  0  0  0  0  0  0  0  0  0  0  0
   28.5112  -25.1297  -16.6380 C   0  0  0  0  0  0  0  0  0  0  0  0
   29.7786  -25.4003  -17.0792 C   0  0  0  0  0  0  0  0  0  0  0  0
   29.9765  -25.8312  -18.3565 C   0  0  0  0  0  0  0  0  0  0  0  0
   28.9084  -25.9973  -19.2099 C   0  0  0  0  0  0  0  0  0  0  0  0
   27.6488  -25.7183  -18.7399 C   0  0  0  0  0  0  0  0  0  0  0  0
   24.0802  -25.7608  -15.6771 C   0  0  0  0  0  0  0  0  0  0  0  0
   23.0269  -26.1281  -16.2736 O   0  0  0  0  0  0  0  0  0  0  0  0
   23.8984  -25.0046  -14.4810 N   0  0  0  0  0  0  0  0  0  0  0  0
   22.5723  -24.8378  -13.9228 C   0  0  0  0  0  0  0  0  0  0  0  0
   21.8144  -23.7607  -14.5998 C   0  0  0  0  0  0  0  0  0  0  0  0
   22.2610  -23.0937  -15.5666 O   0  0  0  0  0  0  0  0  0  0  0  0
   20.5371  -23.4572  -14.1545 O   0  0  0  0  0  0  0  0  0  0  0  0
  2  3  1  0
  2  1  1  1
  4  3  1  0
  5  4  1  0
  6  7  1  0
  6  5  1  0
  8  2  1  0
  9  8  2  0
 10  8  1  0
 11 10  1  0
 11 12  1  6
 12 13  1  0
 13 18  2  0
 14 13  1  0
 14 15  2  0
 15 16  1  0
 16 17  2  0
 18 17  1  0
 19 20  2  0
 19 11  1  0
 21 19  1  0
 22 21  1  0
 23 22  1  0
 23 25  1  0
 24 23  2  0
M  END
$$$$
