KFG.pdb
     RDKit          3D

 25 25  0  0  1  0  0  0  0  0999 V2000
   24.0716  -27.2440  -16.5917 N   0  0  0  0  0  0  0  0  0  0  0  0
   24.2658  -27.9856  -17.8060 C   0  0  1  0  0  0  0  0  0  0  0  0
   23.6099  -27.3704  -18.9968 C   0  0  0  0  0  0  0  0  0  0  0  0
   22.1202  -27.4478  -19.0179 C   0  0  0  0  0  0  0  0  0  0  0  0
   21.4095  -26.2851  -18.4053 C   0  0  0  0  0  0  0  0  0  0  0  0
   19.9250  -26.5338  -18.3398 C   0  0  0  0  0  0  0  0  0  0  0  0
   19.2655  -25.4416  -17.6640 N   0  0  0  0  0  0  0  0  0  0  0  0
   25.7215  -28.1481  -18.0454 C   0  0  0  0  0  0  0  0  0  0  0  0
   26.1589  -28.0325  -19.2030 O   0  0  0  0  0  0  0  0  0  0  0  0
   26.6509  -28.4297  -17.0214 N   0  0  0  0  0  0  0  0  0  0  0  0
   28.0515  -28.4111  -17.2875 C   0  0  1  0  0  0  0  0  0  0  0  0
   28.7241  -27.2305  -16.6274 C   0  0  0  0  0  0  0  0  0  0  0  0
   28.2728  -25.9255  -17.1161 C   0  0  0  0  0  0  0  0  0  0  0  0
   27.1979  -25.2298  -16.6183 C   0  0  0  0  0  0  0  0  0  0  0  0
   26.8321  -24.0095  -17.1194 C   0  0  0  0  0  0  0  0  0  0  0  0
   27.5419  -23.4532  -18.1407 C   0  0  0  0  0  0  0  0  0  0  0  0
   28.6280  -24.1108  -18.6745 C   0  0  0  0  0  0  0  0  0  0  0  0
   28.9715  -25.3331  -18.1518 C   0  0  0  0  0  0  0  0  0  0  0  0
   28.6445  -29.7045  -16.9555 C   0  0  0  0  0  0  0  0  0  0  0  0
   28.2960  -30.4159  -15.9692 O   0  0  0  0  0  0  0  0  0  0  0  0
   29.6868  -30.2292  -17.7764 N   0  0  0  0  0  0  0  0  0  0  0  0
   30.3167  -31.4875  -17.4330 C   0  0  0  0  0  0  0  0  0  0  0  0
   31.2770  -31.9307  -18.4695 C   0  0  0  0  0  0  0  0  0  0  0  0
   31.9967  -32.9553  -18.3627 O   0  0  0  0  0  0  0  0  0  0  0  0
   31.4025  -31.1843  -19.6310 O   0  0  0  0  0  0  0  0  0  0  0  0
  2  3  1  0
  2  1  1  1
  4  3  1  0
  5  4  1  0
  6  7  1  0
  6  5  1  0
  8  2  1  0
  9  8  2  0
 10  8  1  0
 11 10  1  0
 11 12  1  1
 12 13  1  0
 13 18  2  0
 14 13  1  0
 14 15  2  0
 15 16  1  0
 16 17  2  0
 18 17  1  0
 19 20  2  0
 19 11  1  0
 21 19  1  0
 22 21  1  0
 23 22  1  0
 23 25  1  0
 24 23  2  0
M  END
$$$$
