KFG.pdb
     RDKit          3D

 25 25  0  0  1  0  0  0  0  0999 V2000
   26.7061  -18.6456  -14.0560 N   0  0  0  0  0  0  0  0  0  0  0  0
   27.1964  -19.9954  -14.0532 C   0  0  1  0  0  0  0  0  0  0  0  0
   28.6822  -20.0948  -14.1497 C   0  0  0  0  0  0  0  0  0  0  0  0
   29.3155  -19.2277  -15.1855 C   0  0  0  0  0  0  0  0  0  0  0  0
   28.5185  -19.0355  -16.4345 C   0  0  0  0  0  0  0  0  0  0  0  0
   29.1999  -18.0665  -17.3654 C   0  0  0  0  0  0  0  0  0  0  0  0
   28.4341  -17.9196  -18.5805 N   0  0  0  0  0  0  0  0  0  0  0  0
   26.7118  -20.6829  -12.8304 C   0  0  0  0  0  0  0  0  0  0  0  0
   26.9162  -21.9023  -12.7030 O   0  0  0  0  0  0  0  0  0  0  0  0
   26.0232  -20.0242  -11.7895 N   0  0  0  0  0  0  0  0  0  0  0  0
   25.2282  -20.7625  -10.8644 C   0  0  1  0  0  0  0  0  0  0  0  0
   25.3631  -20.2181   -9.4617 C   0  0  0  0  0  0  0  0  0  0  0  0
   26.7092  -20.3308   -8.8955 C   0  0  0  0  0  0  0  0  0  0  0  0
   27.6650  -21.2238   -9.3152 C   0  0  0  0  0  0  0  0  0  0  0  0
   28.9082  -21.2733   -8.7440 C   0  0  0  0  0  0  0  0  0  0  0  0
   29.2248  -20.4208   -7.7294 C   0  0  0  0  0  0  0  0  0  0  0  0
   28.3014  -19.5068   -7.2725 C   0  0  0  0  0  0  0  0  0  0  0  0
   27.0627  -19.4801   -7.8644 C   0  0  0  0  0  0  0  0  0  0  0  0
   23.8513  -20.8540  -11.3446 C   0  0  0  0  0  0  0  0  0  0  0  0
   22.9921  -19.9334  -11.2241 O   0  0  0  0  0  0  0  0  0  0  0  0
   23.4141  -22.0453  -11.9967 N   0  0  0  0  0  0  0  0  0  0  0  0
   22.3285  -21.9916  -12.9541 C   0  0  0  0  0  0  0  0  0  0  0  0
   21.0305  -21.6907  -12.3080 C   0  0  0  0  0  0  0  0  0  0  0  0
   20.8293  -20.6878  -11.5781 O   0  0  0  0  0  0  0  0  0  0  0  0
   19.9648  -22.5543  -12.5091 O   0  0  0  0  0  0  0  0  0  0  0  0
  2  3  1  0
  2  1  1  1
  4  3  1  0
  5  4  1  0
  6  7  1  0
  6  5  1  0
  8  2  1  0
  9  8  2  0
 10  8  1  0
 11 10  1  0
 11 12  1  1
 12 13  1  0
 13 18  2  0
 14 13  1  0
 14 15  2  0
 15 16  1  0
 16 17  2  0
 18 17  1  0
 19 20  2  0
 19 11  1  0
 21 19  1  0
 22 21  1  0
 23 22  1  0
 23 25  1  0
 24 23  2  0
M  END
$$$$
