KFG.pdb
     RDKit          3D

 25 25  0  0  1  0  0  0  0  0999 V2000
   25.7859  -19.5102  -12.8588 N   0  0  0  0  0  0  0  0  0  0  0  0
   25.8129  -20.9144  -12.5593 C   0  0  1  0  0  0  0  0  0  0  0  0
   26.6546  -21.7126  -13.4980 C   0  0  0  0  0  0  0  0  0  0  0  0
   26.6976  -21.2114  -14.9025 C   0  0  0  0  0  0  0  0  0  0  0  0
   26.0213  -22.0792  -15.9134 C   0  0  0  0  0  0  0  0  0  0  0  0
   26.9231  -22.3372  -17.0924 C   0  0  0  0  0  0  0  0  0  0  0  0
   27.0759  -21.1344  -17.8764 N   0  0  0  0  0  0  0  0  0  0  0  0
   26.2786  -21.1016  -11.1625 C   0  0  0  0  0  0  0  0  0  0  0  0
   26.4414  -22.2556  -10.7307 O   0  0  0  0  0  0  0  0  0  0  0  0
   26.5515  -20.0313  -10.2842 N   0  0  0  0  0  0  0  0  0  0  0  0
   26.7628  -20.2691   -8.8943 C   0  0  1  0  0  0  0  0  0  0  0  0
   27.8103  -19.3401   -8.3273 C   0  0  0  0  0  0  0  0  0  0  0  0
   28.0817  -19.5324   -6.9008 C   0  0  0  0  0  0  0  0  0  0  0  0
   27.4612  -18.8474   -5.8845 C   0  0  0  0  0  0  0  0  0  0  0  0
   27.7596  -19.0800   -4.5688 C   0  0  0  0  0  0  0  0  0  0  0  0
   28.6956  -20.0133   -4.2385 C   0  0  0  0  0  0  0  0  0  0  0  0
   29.3459  -20.7269   -5.2207 C   0  0  0  0  0  0  0  0  0  0  0  0
   29.0261  -20.4723   -6.5315 C   0  0  0  0  0  0  0  0  0  0  0  0
   25.4883  -20.2464   -8.1801 C   0  0  0  0  0  0  0  0  0  0  0  0
   24.6031  -19.3553   -8.3306 O   0  0  0  0  0  0  0  0  0  0  0  0
   25.1904  -21.2818   -7.2448 N   0  0  0  0  0  0  0  0  0  0  0  0
   23.9467  -21.2533   -6.5030 C   0  0  0  0  0  0  0  0  0  0  0  0
   23.8106  -22.4184   -5.5990 C   0  0  0  0  0  0  0  0  0  0  0  0
   24.6312  -23.3690   -5.5563 O   0  0  0  0  0  0  0  0  0  0  0  0
   22.7212  -22.4804   -4.7437 O   0  0  0  0  0  0  0  0  0  0  0  0
  2  3  1  0
  2  1  1  6
  4  3  1  0
  5  4  1  0
  6  7  1  0
  6  5  1  0
  8  2  1  0
  9  8  2  0
 10  8  1  0
 11 10  1  0
 11 12  1  1
 12 13  1  0
 13 18  2  0
 14 13  1  0
 14 15  2  0
 15 16  1  0
 16 17  2  0
 18 17  1  0
 19 20  2  0
 19 11  1  0
 21 19  1  0
 22 21  1  0
 23 22  1  0
 23 25  1  0
 24 23  2  0
M  END
$$$$
