KFG.pdb
     RDKit          3D

 25 25  0  0  1  0  0  0  0  0999 V2000
   23.5800  -10.3968  -19.0064 N   0  0  0  0  0  0  0  0  0  0  0  0
   22.9763   -9.1290  -19.3073 C   0  0  1  0  0  0  0  0  0  0  0  0
   21.6795   -9.2394  -20.0372 C   0  0  0  0  0  0  0  0  0  0  0  0
   21.7281  -10.0078  -21.3151 C   0  0  0  0  0  0  0  0  0  0  0  0
   21.0162   -9.3788  -22.4682 C   0  0  0  0  0  0  0  0  0  0  0  0
   21.0894  -10.2562  -23.6908 C   0  0  0  0  0  0  0  0  0  0  0  0
   20.4812   -9.5917  -24.8191 N   0  0  0  0  0  0  0  0  0  0  0  0
   22.7950   -8.3687  -18.0455 C   0  0  0  0  0  0  0  0  0  0  0  0
   22.1188   -8.8702  -17.1312 O   0  0  0  0  0  0  0  0  0  0  0  0
   23.3532   -7.0924  -17.8201 N   0  0  0  0  0  0  0  0  0  0  0  0
   23.1755   -6.4335  -16.5682 C   0  0  1  0  0  0  0  0  0  0  0  0
   24.4619   -6.3925  -15.7774 C   0  0  0  0  0  0  0  0  0  0  0  0
   25.1406   -7.6850  -15.6581 C   0  0  0  0  0  0  0  0  0  0  0  0
   26.1978   -8.0911  -16.4356 C   0  0  0  0  0  0  0  0  0  0  0  0
   26.7904   -9.3138  -16.2681 C   0  0  0  0  0  0  0  0  0  0  0  0
   26.3326  -10.1655  -15.3082 C   0  0  0  0  0  0  0  0  0  0  0  0
   25.2752   -9.8051  -14.5027 C   0  0  0  0  0  0  0  0  0  0  0  0
   24.7007   -8.5727  -14.6936 C   0  0  0  0  0  0  0  0  0  0  0  0
   22.5515   -5.1279  -16.7703 C   0  0  0  0  0  0  0  0  0  0  0  0
   23.0432   -4.2060  -17.4836 O   0  0  0  0  0  0  0  0  0  0  0  0
   21.3058   -4.8407  -16.1368 N   0  0  0  0  0  0  0  0  0  0  0  0
   20.6355   -3.5822  -16.3916 C   0  0  0  0  0  0  0  0  0  0  0  0
   19.3765   -3.4560  -15.6223 C   0  0  0  0  0  0  0  0  0  0  0  0
   19.2383   -2.7002  -14.6279 O   0  0  0  0  0  0  0  0  0  0  0  0
   18.2768   -4.2073  -16.0072 O   0  0  0  0  0  0  0  0  0  0  0  0
  2  3  1  0
  2  1  1  1
  4  3  1  0
  5  4  1  0
  6  7  1  0
  6  5  1  0
  8  2  1  0
  9  8  2  0
 10  8  1  0
 11 10  1  0
 11 12  1  6
 12 13  1  0
 13 18  2  0
 14 13  1  0
 14 15  2  0
 15 16  1  0
 16 17  2  0
 18 17  1  0
 19 20  2  0
 19 11  1  0
 21 19  1  0
 22 21  1  0
 23 22  1  0
 23 25  1  0
 24 23  2  0
M  END
$$$$
