KFG.pdb
     RDKit          3D

 25 25  0  0  1  0  0  0  0  0999 V2000
   28.2619  -22.3793  -16.1997 N   0  0  0  0  0  0  0  0  0  0  0  0
   27.0680  -21.5818  -16.1718 C   0  0  1  0  0  0  0  0  0  0  0  0
   26.0642  -21.9668  -17.2067 C   0  0  0  0  0  0  0  0  0  0  0  0
   25.7378  -20.9086  -18.2063 C   0  0  0  0  0  0  0  0  0  0  0  0
   25.3983  -19.5705  -17.6349 C   0  0  0  0  0  0  0  0  0  0  0  0
   24.9794  -18.6117  -18.7189 C   0  0  0  0  0  0  0  0  0  0  0  0
   24.6926  -17.3143  -18.1540 N   0  0  0  0  0  0  0  0  0  0  0  0
   26.4673  -21.6585  -14.8168 C   0  0  0  0  0  0  0  0  0  0  0  0
   26.3118  -22.7727  -14.2883 O   0  0  0  0  0  0  0  0  0  0  0  0
   26.0570  -20.5250  -14.0831 N   0  0  0  0  0  0  0  0  0  0  0  0
   25.5724  -20.6606  -12.7491 C   0  0  1  0  0  0  0  0  0  0  0  0
   26.4066  -19.8635  -11.7740 C   0  0  0  0  0  0  0  0  0  0  0  0
   27.7685  -20.3696  -11.5877 C   0  0  0  0  0  0  0  0  0  0  0  0
   28.8323  -20.0802  -12.4072 C   0  0  0  0  0  0  0  0  0  0  0  0
   30.0833  -20.5843  -12.1727 C   0  0  0  0  0  0  0  0  0  0  0  0
   30.2987  -21.3977  -11.1010 C   0  0  0  0  0  0  0  0  0  0  0  0
   29.2649  -21.7177  -10.2493 C   0  0  0  0  0  0  0  0  0  0  0  0
   28.0211  -21.1975  -10.5095 C   0  0  0  0  0  0  0  0  0  0  0  0
   24.1425  -20.3642  -12.7002 C   0  0  0  0  0  0  0  0  0  0  0  0
   23.6069  -19.3485  -13.2311 O   0  0  0  0  0  0  0  0  0  0  0  0
   23.2644  -21.2576  -12.0174 N   0  0  0  0  0  0  0  0  0  0  0  0
   21.8584  -20.9348  -11.8873 C   0  0  0  0  0  0  0  0  0  0  0  0
   21.0682  -21.4100  -13.0460 C   0  0  0  0  0  0  0  0  0  0  0  0
   21.5618  -22.0308  -14.0208 O   0  0  0  0  0  0  0  0  0  0  0  0
   19.7040  -21.1648  -13.0738 O   0  0  0  0  0  0  0  0  0  0  0  0
  2  3  1  0
  2  1  1  1
  4  3  1  0
  5  4  1  0
  6  7  1  0
  6  5  1  0
  8  2  1  0
  9  8  2  0
 10  8  1  0
 11 10  1  0
 11 12  1  1
 12 13  1  0
 13 18  2  0
 14 13  1  0
 14 15  2  0
 15 16  1  0
 16 17  2  0
 18 17  1  0
 19 20  2  0
 19 11  1  0
 21 19  1  0
 22 21  1  0
 23 22  1  0
 23 25  1  0
 24 23  2  0
M  END
$$$$
