KFG.pdb
     RDKit          3D

 25 25  0  0  1  0  0  0  0  0999 V2000
   28.9521  -26.0285  -17.4251 N   0  0  0  0  0  0  0  0  0  0  0  0
   27.6056  -26.3418  -17.0363 C   0  0  1  0  0  0  0  0  0  0  0  0
   27.5174  -27.3006  -15.8963 C   0  0  0  0  0  0  0  0  0  0  0  0
   27.7688  -28.7300  -16.2417 C   0  0  0  0  0  0  0  0  0  0  0  0
   26.6574  -29.4196  -16.9639 C   0  0  0  0  0  0  0  0  0  0  0  0
   27.0389  -30.8338  -17.3164 C   0  0  0  0  0  0  0  0  0  0  0  0
   25.9778  -31.4650  -18.0650 N   0  0  0  0  0  0  0  0  0  0  0  0
   26.8923  -25.0824  -16.7076 C   0  0  0  0  0  0  0  0  0  0  0  0
   27.5089  -24.1748  -16.1237 O   0  0  0  0  0  0  0  0  0  0  0  0
   25.5364  -24.8519  -17.0236 N   0  0  0  0  0  0  0  0  0  0  0  0
   24.9398  -23.5807  -16.7768 C   0  0  1  0  0  0  0  0  0  0  0  0
   24.3611  -22.9868  -18.0395 C   0  0  0  0  0  0  0  0  0  0  0  0
   25.3612  -22.5486  -19.0158 C   0  0  0  0  0  0  0  0  0  0  0  0
   25.9734  -23.3671  -19.9337 C   0  0  0  0  0  0  0  0  0  0  0  0
   26.8986  -22.8907  -20.8231 C   0  0  0  0  0  0  0  0  0  0  0  0
   27.2348  -21.5704  -20.8127 C   0  0  0  0  0  0  0  0  0  0  0  0
   26.6493  -20.7086  -19.9120 C   0  0  0  0  0  0  0  0  0  0  0  0
   25.7247  -21.2147  -19.0320 C   0  0  0  0  0  0  0  0  0  0  0  0
   23.9932  -23.6755  -15.6677 C   0  0  0  0  0  0  0  0  0  0  0  0
   23.3277  -22.7001  -15.2137 O   0  0  0  0  0  0  0  0  0  0  0  0
   23.7814  -24.9355  -15.0327 N   0  0  0  0  0  0  0  0  0  0  0  0
   22.8182  -25.0530  -13.9573 C   0  0  0  0  0  0  0  0  0  0  0  0
   21.5243  -25.5997  -14.4259 C   0  0  0  0  0  0  0  0  0  0  0  0
   21.2193  -25.7315  -15.6378 O   0  0  0  0  0  0  0  0  0  0  0  0
   20.5831  -25.9940  -13.4874 O   0  0  0  0  0  0  0  0  0  0  0  0
  2  3  1  0
  2  1  1  1
  4  3  1  0
  5  4  1  0
  6  7  1  0
  6  5  1  0
  8  2  1  0
  9  8  2  0
 10  8  1  0
 11 10  1  0
 11 12  1  6
 12 13  1  0
 13 18  2  0
 14 13  1  0
 14 15  2  0
 15 16  1  0
 16 17  2  0
 18 17  1  0
 19 20  2  0
 19 11  1  0
 21 19  1  0
 22 21  1  0
 23 22  1  0
 23 25  1  0
 24 23  2  0
M  END
$$$$
