KFG.pdb
     RDKit          3D

 25 25  0  0  1  0  0  0  0  0999 V2000
   26.4228  -19.8001  -14.4800 N   0  0  0  0  0  0  0  0  0  0  0  0
   26.5388  -21.1666  -14.0542 C   0  0  1  0  0  0  0  0  0  0  0  0
   27.8691  -21.7760  -14.3470 C   0  0  0  0  0  0  0  0  0  0  0  0
   28.2856  -21.7452  -15.7792 C   0  0  0  0  0  0  0  0  0  0  0  0
   27.5095  -22.6384  -16.6914 C   0  0  0  0  0  0  0  0  0  0  0  0
   27.8327  -22.3480  -18.1341 C   0  0  0  0  0  0  0  0  0  0  0  0
   28.8042  -23.2949  -18.6282 N   0  0  0  0  0  0  0  0  0  0  0  0
   26.2430  -21.2470  -12.6020 C   0  0  0  0  0  0  0  0  0  0  0  0
   26.3054  -22.3507  -12.0340 O   0  0  0  0  0  0  0  0  0  0  0  0
   25.8904  -20.1281  -11.8175 N   0  0  0  0  0  0  0  0  0  0  0  0
   25.3444  -20.3005  -10.5118 C   0  0  1  0  0  0  0  0  0  0  0  0
   25.9361  -19.3160   -9.5306 C   0  0  0  0  0  0  0  0  0  0  0  0
   27.0658  -19.8368   -8.7573 C   0  0  0  0  0  0  0  0  0  0  0  0
   28.0335  -20.6779   -9.2507 C   0  0  0  0  0  0  0  0  0  0  0  0
   29.0675  -21.1248   -8.4728 C   0  0  0  0  0  0  0  0  0  0  0  0
   29.1563  -20.7352   -7.1702 C   0  0  0  0  0  0  0  0  0  0  0  0
   28.2111  -19.8928   -6.6282 C   0  0  0  0  0  0  0  0  0  0  0  0
   27.1854  -19.4606   -7.4322 C   0  0  0  0  0  0  0  0  0  0  0  0
   23.8845  -20.2878  -10.5706 C   0  0  0  0  0  0  0  0  0  0  0  0
   23.2044  -19.4279  -11.2017 O   0  0  0  0  0  0  0  0  0  0  0  0
   23.1465  -21.2967   -9.8829 N   0  0  0  0  0  0  0  0  0  0  0  0
   21.6987  -21.2547   -9.8702 C   0  0  0  0  0  0  0  0  0  0  0  0
   21.1221  -21.5154  -11.2090 C   0  0  0  0  0  0  0  0  0  0  0  0
   21.8024  -21.8614  -12.2073 O   0  0  0  0  0  0  0  0  0  0  0  0
   19.7548  -21.3743  -11.3898 O   0  0  0  0  0  0  0  0  0  0  0  0
  2  3  1  0
  2  1  1  1
  4  3  1  0
  5  4  1  0
  6  7  1  0
  6  5  1  0
  8  2  1  0
  9  8  2  0
 10  8  1  0
 11 10  1  0
 11 12  1  1
 12 13  1  0
 13 18  2  0
 14 13  1  0
 14 15  2  0
 15 16  1  0
 16 17  2  0
 18 17  1  0
 19 20  2  0
 19 11  1  0
 21 19  1  0
 22 21  1  0
 23 22  1  0
 23 25  1  0
 24 23  2  0
M  END
$$$$
