KFG.pdb
     RDKit          3D

 25 25  0  0  1  0  0  0  0  0999 V2000
   22.4922  -20.5436  -11.1919 N   0  0  0  0  0  0  0  0  0  0  0  0
   23.1442  -20.4137  -12.4648 C   0  0  1  0  0  0  0  0  0  0  0  0
   22.6230  -19.2881  -13.2944 C   0  0  0  0  0  0  0  0  0  0  0  0
   21.2799  -19.5112  -13.9041 C   0  0  0  0  0  0  0  0  0  0  0  0
   21.1546  -20.7388  -14.7464 C   0  0  0  0  0  0  0  0  0  0  0  0
   19.8163  -20.7851  -15.4367 C   0  0  0  0  0  0  0  0  0  0  0  0
   19.7089  -21.9817  -16.2374 N   0  0  0  0  0  0  0  0  0  0  0  0
   24.6043  -20.2606  -12.2464 C   0  0  0  0  0  0  0  0  0  0  0  0
   25.1809  -19.2596  -12.7050 O   0  0  0  0  0  0  0  0  0  0  0  0
   25.3867  -21.1977  -11.5386 N   0  0  0  0  0  0  0  0  0  0  0  0
   26.8086  -21.0925  -11.5245 C   0  0  1  0  0  0  0  0  0  0  0  0
   27.4004  -21.7595  -10.3052 C   0  0  0  0  0  0  0  0  0  0  0  0
   27.3925  -20.9303   -9.0978 C   0  0  0  0  0  0  0  0  0  0  0  0
   28.5116  -20.5613   -8.3916 C   0  0  0  0  0  0  0  0  0  0  0  0
   28.4336  -19.7788   -7.2711 C   0  0  0  0  0  0  0  0  0  0  0  0
   27.2206  -19.3440   -6.8284 C   0  0  0  0  0  0  0  0  0  0  0  0
   26.0688  -19.6865   -7.5014 C   0  0  0  0  0  0  0  0  0  0  0  0
   26.1777  -20.4723   -8.6220 C   0  0  0  0  0  0  0  0  0  0  0  0
   27.3607  -21.5603  -12.7939 C   0  0  0  0  0  0  0  0  0  0  0  0
   27.0942  -22.6809  -13.3169 O   0  0  0  0  0  0  0  0  0  0  0  0
   28.2622  -20.7237  -13.5170 N   0  0  0  0  0  0  0  0  0  0  0  0
   28.8918  -21.2109  -14.7270 C   0  0  0  0  0  0  0  0  0  0  0  0
   27.9283  -21.3369  -15.8444 C   0  0  0  0  0  0  0  0  0  0  0  0
   27.5095  -22.4367  -16.2851 O   0  0  0  0  0  0  0  0  0  0  0  0
   27.4503  -20.1856  -16.4511 O   0  0  0  0  0  0  0  0  0  0  0  0
  2  3  1  0
  2  1  1  1
  4  3  1  0
  5  4  1  0
  6  7  1  0
  6  5  1  0
  8  2  1  0
  9  8  2  0
 10  8  1  0
 11 10  1  0
 11 12  1  1
 12 13  1  0
 13 18  2  0
 14 13  1  0
 14 15  2  0
 15 16  1  0
 16 17  2  0
 18 17  1  0
 19 20  2  0
 19 11  1  0
 21 19  1  0
 22 21  1  0
 23 22  1  0
 23 25  1  0
 24 23  2  0
M  END
$$$$
