KFG.pdb
     RDKit          3D

 25 25  0  0  1  0  0  0  0  0999 V2000
   21.9799  -20.2479  -11.1069 N   0  0  0  0  0  0  0  0  0  0  0  0
   22.8374  -20.9045  -12.0533 C   0  0  1  0  0  0  0  0  0  0  0  0
   22.4863  -20.6251  -13.4765 C   0  0  0  0  0  0  0  0  0  0  0  0
   21.9038  -21.7739  -14.2291 C   0  0  0  0  0  0  0  0  0  0  0  0
   22.6803  -23.0481  -14.1551 C   0  0  0  0  0  0  0  0  0  0  0  0
   21.9745  -24.1538  -14.8961 C   0  0  0  0  0  0  0  0  0  0  0  0
   22.7161  -25.3869  -14.7770 N   0  0  0  0  0  0  0  0  0  0  0  0
   24.2437  -20.5147  -11.7828 C   0  0  0  0  0  0  0  0  0  0  0  0
   24.5467  -19.3093  -11.7869 O   0  0  0  0  0  0  0  0  0  0  0  0
   25.2709  -21.4452  -11.5173 N   0  0  0  0  0  0  0  0  0  0  0  0
   26.6312  -21.0238  -11.4468 C   0  0  1  0  0  0  0  0  0  0  0  0
   27.3630  -21.7046  -10.3141 C   0  0  0  0  0  0  0  0  0  0  0  0
   27.3483  -20.9626   -9.0514 C   0  0  0  0  0  0  0  0  0  0  0  0
   28.4678  -20.5527   -8.3688 C   0  0  0  0  0  0  0  0  0  0  0  0
   28.3829  -19.8569   -7.1929 C   0  0  0  0  0  0  0  0  0  0  0  0
   27.1623  -19.5530   -6.6693 C   0  0  0  0  0  0  0  0  0  0  0  0
   26.0098  -19.9414   -7.3155 C   0  0  0  0  0  0  0  0  0  0  0  0
   26.1258  -20.6380   -8.4930 C   0  0  0  0  0  0  0  0  0  0  0  0
   27.2721  -21.1707  -12.7517 C   0  0  0  0  0  0  0  0  0  0  0  0
   26.8604  -21.9435  -13.6647 O   0  0  0  0  0  0  0  0  0  0  0  0
   28.4403  -20.4074  -13.0487 N   0  0  0  0  0  0  0  0  0  0  0  0
   28.3849  -19.3520  -14.0392 C   0  0  0  0  0  0  0  0  0  0  0  0
   27.9844  -19.8592  -15.3716 C   0  0  0  0  0  0  0  0  0  0  0  0
   28.8011  -20.2119  -16.2592 O   0  0  0  0  0  0  0  0  0  0  0  0
   26.6351  -19.9572  -15.6744 O   0  0  0  0  0  0  0  0  0  0  0  0
  2  3  1  0
  2  1  1  1
  4  3  1  0
  5  4  1  0
  6  7  1  0
  6  5  1  0
  8  2  1  0
  9  8  2  0
 10  8  1  0
 11 10  1  0
 11 12  1  1
 12 13  1  0
 13 18  2  0
 14 13  1  0
 14 15  2  0
 15 16  1  0
 16 17  2  0
 18 17  1  0
 19 20  2  0
 19 11  1  0
 21 19  1  0
 22 21  1  0
 23 22  1  0
 23 25  1  0
 24 23  2  0
M  END
$$$$
