KFG.pdb
     RDKit          3D

 25 25  0  0  1  0  0  0  0  0999 V2000
   28.7297  -21.4653  -14.8574 N   0  0  0  0  0  0  0  0  0  0  0  0
   27.8024  -20.4264  -14.5069 C   0  0  1  0  0  0  0  0  0  0  0  0
   27.0947  -19.8326  -15.6788 C   0  0  0  0  0  0  0  0  0  0  0  0
   27.8245  -18.7352  -16.3780 C   0  0  0  0  0  0  0  0  0  0  0  0
   29.0996  -19.1371  -17.0448 C   0  0  0  0  0  0  0  0  0  0  0  0
   29.7167  -17.9727  -17.7751 C   0  0  0  0  0  0  0  0  0  0  0  0
   29.0232  -17.7402  -19.0199 N   0  0  0  0  0  0  0  0  0  0  0  0
   26.8222  -20.9630  -13.5301 C   0  0  0  0  0  0  0  0  0  0  0  0
   26.4611  -22.1483  -13.6274 O   0  0  0  0  0  0  0  0  0  0  0  0
   26.2689  -20.1958  -12.4828 N   0  0  0  0  0  0  0  0  0  0  0  0
   25.3097  -20.7652  -11.5948 C   0  0  1  0  0  0  0  0  0  0  0  0
   25.3768  -20.1286  -10.2264 C   0  0  0  0  0  0  0  0  0  0  0  0
   26.5808  -20.4622   -9.4620 C   0  0  0  0  0  0  0  0  0  0  0  0
   26.8218  -20.0717   -8.1672 C   0  0  0  0  0  0  0  0  0  0  0  0
   27.9691  -20.4228   -7.5081 C   0  0  0  0  0  0  0  0  0  0  0  0
   28.9102  -21.1807   -8.1377 C   0  0  0  0  0  0  0  0  0  0  0  0
   28.7158  -21.5976   -9.4358 C   0  0  0  0  0  0  0  0  0  0  0  0
   27.5556  -21.2303  -10.0717 C   0  0  0  0  0  0  0  0  0  0  0  0
   23.9823  -20.7417  -12.2050 C   0  0  0  0  0  0  0  0  0  0  0  0
   23.5245  -19.7732  -12.8777 O   0  0  0  0  0  0  0  0  0  0  0  0
   23.1204  -21.8683  -12.0518 N   0  0  0  0  0  0  0  0  0  0  0  0
   21.8097  -21.8681  -12.6682 C   0  0  0  0  0  0  0  0  0  0  0  0
   20.7897  -21.2261  -11.8078 C   0  0  0  0  0  0  0  0  0  0  0  0
   20.9760  -20.1485  -11.1887 O   0  0  0  0  0  0  0  0  0  0  0  0
   19.5523  -21.8349  -11.6656 O   0  0  0  0  0  0  0  0  0  0  0  0
  2  3  1  0
  2  1  1  6
  4  3  1  0
  5  4  1  0
  6  7  1  0
  6  5  1  0
  8  2  1  0
  9  8  2  0
 10  8  1  0
 11 10  1  0
 11 12  1  1
 12 13  1  0
 13 18  2  0
 14 13  1  0
 14 15  2  0
 15 16  1  0
 16 17  2  0
 18 17  1  0
 19 20  2  0
 19 11  1  0
 21 19  1  0
 22 21  1  0
 23 22  1  0
 23 25  1  0
 24 23  2  0
M  END
$$$$
