KFG.pdb
     RDKit          3D

 25 25  0  0  1  0  0  0  0  0999 V2000
   19.4854  -10.8092  -16.9154 N   0  0  0  0  0  0  0  0  0  0  0  0
   19.6796   -9.5245  -17.5269 C   0  0  1  0  0  0  0  0  0  0  0  0
   18.6761   -9.2047  -18.5841 C   0  0  0  0  0  0  0  0  0  0  0  0
   18.2470  -10.3574  -19.4284 C   0  0  0  0  0  0  0  0  0  0  0  0
   16.7730  -10.4861  -19.6355 C   0  0  0  0  0  0  0  0  0  0  0  0
   16.4514  -11.6809  -20.4950 C   0  0  0  0  0  0  0  0  0  0  0  0
   16.5301  -12.8929  -19.7143 N   0  0  0  0  0  0  0  0  0  0  0  0
   19.6679   -8.4805  -16.4719 C   0  0  0  0  0  0  0  0  0  0  0  0
   19.0432   -8.6943  -15.4189 O   0  0  0  0  0  0  0  0  0  0  0  0
   20.3339   -7.2425  -16.5961 N   0  0  0  0  0  0  0  0  0  0  0  0
   20.3506   -6.3158  -15.5127 C   0  0  1  0  0  0  0  0  0  0  0  0
   21.6913   -6.3030  -14.8166 C   0  0  0  0  0  0  0  0  0  0  0  0
   22.0245   -7.5485  -14.1216 C   0  0  0  0  0  0  0  0  0  0  0  0
   21.4669   -7.9584  -12.9348 C   0  0  0  0  0  0  0  0  0  0  0  0
   21.8210   -9.1394  -12.3399 C   0  0  0  0  0  0  0  0  0  0  0  0
   22.7509   -9.9443  -12.9263 C   0  0  0  0  0  0  0  0  0  0  0  0
   23.3392   -9.5781  -14.1165 C   0  0  0  0  0  0  0  0  0  0  0  0
   22.9644   -8.3882  -14.6901 C   0  0  0  0  0  0  0  0  0  0  0  0
   19.8952   -5.0034  -15.9655 C   0  0  0  0  0  0  0  0  0  0  0  0
   20.4319   -4.3482  -16.9051 O   0  0  0  0  0  0  0  0  0  0  0  0
   18.7744   -4.3921  -15.3284 N   0  0  0  0  0  0  0  0  0  0  0  0
   18.3310   -3.0777  -15.7451 C   0  0  0  0  0  0  0  0  0  0  0  0
   17.1314   -2.6324  -14.9997 C   0  0  0  0  0  0  0  0  0  0  0  0
   16.0026   -3.1747  -15.1044 O   0  0  0  0  0  0  0  0  0  0  0  0
   17.2416   -1.5568  -14.1320 O   0  0  0  0  0  0  0  0  0  0  0  0
  2  3  1  0
  2  1  1  1
  4  3  1  0
  5  4  1  0
  6  7  1  0
  6  5  1  0
  8  2  1  0
  9  8  2  0
 10  8  1  0
 11 10  1  0
 11 12  1  6
 12 13  1  0
 13 18  2  0
 14 13  1  0
 14 15  2  0
 15 16  1  0
 16 17  2  0
 18 17  1  0
 19 20  2  0
 19 11  1  0
 21 19  1  0
 22 21  1  0
 23 22  1  0
 23 25  1  0
 24 23  2  0
M  END
$$$$
