KFG.pdb
     RDKit          3D

 25 25  0  0  1  0  0  0  0  0999 V2000
   24.2173  -10.5604  -19.5406 N   0  0  0  0  0  0  0  0  0  0  0  0
   23.7751   -9.1959  -19.6090 C   0  0  1  0  0  0  0  0  0  0  0  0
   22.7614   -8.9458  -20.6751 C   0  0  0  0  0  0  0  0  0  0  0  0
   23.2865   -8.9532  -22.0715 C   0  0  0  0  0  0  0  0  0  0  0  0
   23.5090  -10.3061  -22.6651 C   0  0  0  0  0  0  0  0  0  0  0  0
   24.0383  -10.1976  -24.0715 C   0  0  0  0  0  0  0  0  0  0  0  0
   24.2665  -11.5129  -24.6216 N   0  0  0  0  0  0  0  0  0  0  0  0
   23.2400   -8.7944  -18.2841 C   0  0  0  0  0  0  0  0  0  0  0  0
   22.3691   -9.4997  -17.7466 O   0  0  0  0  0  0  0  0  0  0  0  0
   23.6682   -7.6432  -17.5893 N   0  0  0  0  0  0  0  0  0  0  0  0
   23.1783   -7.3616  -16.2802 C   0  0  1  0  0  0  0  0  0  0  0  0
   24.2564   -7.5369  -15.2367 C   0  0  0  0  0  0  0  0  0  0  0  0
   24.8270   -8.8846  -15.1763 C   0  0  0  0  0  0  0  0  0  0  0  0
   26.0349   -9.2506  -15.7186 C   0  0  0  0  0  0  0  0  0  0  0  0
   26.5125  -10.5299  -15.6219 C   0  0  0  0  0  0  0  0  0  0  0  0
   25.7834  -11.4808  -14.9733 C   0  0  0  0  0  0  0  0  0  0  0  0
   24.5660  -11.1641  -14.4123 C   0  0  0  0  0  0  0  0  0  0  0  0
   24.1124   -9.8730  -14.5250 C   0  0  0  0  0  0  0  0  0  0  0  0
   22.5254   -6.0546  -16.2572 C   0  0  0  0  0  0  0  0  0  0  0  0
   23.0749   -4.9771  -16.6278 O   0  0  0  0  0  0  0  0  0  0  0  0
   21.1805   -5.9510  -15.7925 N   0  0  0  0  0  0  0  0  0  0  0  0
   20.5737   -4.6483  -15.6120 C   0  0  0  0  0  0  0  0  0  0  0  0
   19.1443   -4.7466  -15.2378 C   0  0  0  0  0  0  0  0  0  0  0  0
   18.4437   -3.7628  -14.8909 O   0  0  0  0  0  0  0  0  0  0  0  0
   18.5272   -5.9878  -15.2661 O   0  0  0  0  0  0  0  0  0  0  0  0
  2  3  1  0
  2  1  1  1
  4  3  1  0
  5  4  1  0
  6  7  1  0
  6  5  1  0
  8  2  1  0
  9  8  2  0
 10  8  1  0
 11 10  1  0
 11 12  1  1
 12 13  1  0
 13 18  2  0
 14 13  1  0
 14 15  2  0
 15 16  1  0
 16 17  2  0
 18 17  1  0
 19 20  2  0
 19 11  1  0
 21 19  1  0
 22 21  1  0
 23 22  1  0
 23 25  1  0
 24 23  2  0
M  END
$$$$
