GYQ.pdb
     RDKit          3D

 26 26  0  0  1  0  0  0  0  0999 V2000
    6.8323  -13.9434   19.6757 N   0  0  0  0  0  0  0  0  0  0  0  0
    6.5855  -14.6987   20.8883 C   0  0  0  0  0  0  0  0  0  0  0  0
    7.7142  -14.5001   21.8396 C   0  0  0  0  0  0  0  0  0  0  0  0
    8.6647  -13.7381   21.5264 O   0  0  0  0  0  0  0  0  0  0  0  0
    5.1230  -10.8315   27.1324 O   0  0  0  0  0  0  0  0  0  0  0  0
    5.9376  -11.8877   26.7093 C   0  0  0  0  0  0  0  0  0  0  0  0
    5.3448  -13.1019   26.4433 C   0  0  0  0  0  0  0  0  0  0  0  0
    6.1805  -14.1222   26.0276 C   0  0  0  0  0  0  0  0  0  0  0  0
    7.5390  -13.9587   25.8791 C   0  0  0  0  0  0  0  0  0  0  0  0
    8.3988  -15.0567   25.4373 C   0  0  0  0  0  0  0  0  0  0  0  0
    8.8759  -14.9198   24.0178 C   0  0  2  0  0  0  0  0  0  0  0  0
    7.7730  -15.1378   23.1034 N   0  0  0  0  0  0  0  0  0  0  0  0
   10.0440  -15.7605   23.7065 C   0  0  0  0  0  0  0  0  0  0  0  0
   11.1681  -15.3770   24.1194 O   0  0  0  0  0  0  0  0  0  0  0  0
    8.0970  -12.7307   26.1541 C   0  0  0  0  0  0  0  0  0  0  0  0
    7.2850  -11.6806   26.5750 C   0  0  0  0  0  0  0  0  0  0  0  0
   12.6285  -13.8935   19.8224 N   0  0  0  0  0  0  0  0  0  0  0  0
   13.1013  -15.1417   20.3409 C   0  0  0  0  0  0  0  0  0  0  0  0
   14.0864  -15.7615   19.7992 O   0  0  0  0  0  0  0  0  0  0  0  0
   12.4943  -15.7841   21.5258 C   0  0  0  0  0  0  0  0  0  0  0  0
   11.6791  -16.9963   21.2577 C   0  0  0  0  0  0  0  0  0  0  0  0
   11.1787  -17.6819   22.4707 C   0  0  2  0  0  0  0  0  0  0  0  0
    9.9882  -16.9656   22.9775 N   0  0  0  0  0  0  0  0  0  0  0  0
   12.0804  -17.8380   23.5797 C   0  0  0  0  0  0  0  0  0  0  0  0
   13.3299  -18.4132   23.4430 O   0  0  0  0  0  0  0  0  0  0  0  0
   11.7670  -17.4645   24.7378 O   0  0  0  0  0  0  0  0  0  0  0  0
  1  2  1  0
  2  3  1  0
  3  4  2  0
  6  7  2  0
  6  5  1  0
  8  7  1  0
  9  8  2  0
 11 10  1  1
 10  9  1  0
 12 11  1  0
 12  3  1  0
 13 11  1  0
 14 13  2  0
 15  9  1  0
 15 16  2  0
 16  6  1  0
 18 19  2  0
 18 17  1  0
 20 18  1  0
 21 20  1  0
 22 21  1  6
 22 23  1  0
 23 13  1  0
 24 25  1  0
 24 22  1  0
 26 24  2  0
M  END
$$$$
