GYQ.pdb
     RDKit          3D

 26 26  0  0  1  0  0  0  0  0999 V2000
    8.1840  -19.5549   20.0581 N   0  0  0  0  0  0  0  0  0  0  0  0
    7.5720  -18.9521   21.2260 C   0  0  0  0  0  0  0  0  0  0  0  0
    8.4100  -17.8153   21.6991 C   0  0  0  0  0  0  0  0  0  0  0  0
    9.5499  -17.6330   21.1997 O   0  0  0  0  0  0  0  0  0  0  0  0
    7.3413  -12.5879   18.0630 O   0  0  0  0  0  0  0  0  0  0  0  0
    7.5629  -13.0802   19.3540 C   0  0  0  0  0  0  0  0  0  0  0  0
    8.8017  -12.8844   19.9226 C   0  0  0  0  0  0  0  0  0  0  0  0
    8.9843  -13.3842   21.1989 C   0  0  0  0  0  0  0  0  0  0  0  0
    7.9946  -14.0475   21.8879 C   0  0  0  0  0  0  0  0  0  0  0  0
    8.2166  -14.5657   23.2378 C   0  0  0  0  0  0  0  0  0  0  0  0
    8.8721  -15.9188   23.2677 C   0  0  2  0  0  0  0  0  0  0  0  0
    7.9805  -16.9115   22.7021 N   0  0  0  0  0  0  0  0  0  0  0  0
    9.3726  -16.3004   24.5989 C   0  0  0  0  0  0  0  0  0  0  0  0
    8.5471  -16.7726   25.4215 O   0  0  0  0  0  0  0  0  0  0  0  0
    6.7683  -14.2249   21.2880 C   0  0  0  0  0  0  0  0  0  0  0  0
    6.5495  -13.7344   20.0033 C   0  0  0  0  0  0  0  0  0  0  0  0
   10.3676  -14.7867   30.0150 N   0  0  0  0  0  0  0  0  0  0  0  0
   10.3816  -13.9706   28.8384 C   0  0  0  0  0  0  0  0  0  0  0  0
   10.3269  -12.6901   28.9111 O   0  0  0  0  0  0  0  0  0  0  0  0
   10.4667  -14.5471   27.4798 C   0  0  0  0  0  0  0  0  0  0  0  0
   10.3955  -16.0285   27.4004 C   0  0  0  0  0  0  0  0  0  0  0  0
   11.2203  -16.6274   26.3268 C   0  0  2  0  0  0  0  0  0  0  0  0
   10.7136  -16.1726   25.0139 N   0  0  0  0  0  0  0  0  0  0  0  0
   11.3165  -18.0608   26.2677 C   0  0  0  0  0  0  0  0  0  0  0  0
   11.9256  -18.8037   27.2616 O   0  0  0  0  0  0  0  0  0  0  0  0
   10.8560  -18.7099   25.2954 O   0  0  0  0  0  0  0  0  0  0  0  0
  1  2  1  0
  2  3  1  0
  3  4  2  0
  6  7  2  0
  6  5  1  0
  8  7  1  0
  9  8  2  0
 11 10  1  1
 10  9  1  0
 12 11  1  0
 12  3  1  0
 13 11  1  0
 14 13  2  0
 15  9  1  0
 15 16  2  0
 16  6  1  0
 18 19  2  0
 18 17  1  0
 20 18  1  0
 21 20  1  0
 22 21  1  1
 22 23  1  0
 23 13  1  0
 24 25  1  0
 24 22  1  0
 26 24  2  0
M  END
$$$$
