GYQ.pdb
     RDKit          3D

 26 26  0  0  1  0  0  0  0  0999 V2000
   10.4829  -16.9013   18.7774 N   0  0  0  0  0  0  0  0  0  0  0  0
    9.1672  -16.8175   19.3807 C   0  0  0  0  0  0  0  0  0  0  0  0
    9.2629  -16.1221   20.6943 C   0  0  0  0  0  0  0  0  0  0  0  0
   10.3934  -15.8933   21.1960 O   0  0  0  0  0  0  0  0  0  0  0  0
    6.9083  -12.0942   28.1921 O   0  0  0  0  0  0  0  0  0  0  0  0
    6.9139  -12.6721   26.9177 C   0  0  0  0  0  0  0  0  0  0  0  0
    7.4613  -11.9533   25.8785 C   0  0  0  0  0  0  0  0  0  0  0  0
    7.4495  -12.5557   24.6338 C   0  0  0  0  0  0  0  0  0  0  0  0
    6.9235  -13.8091   24.4177 C   0  0  0  0  0  0  0  0  0  0  0  0
    6.9248  -14.4216   23.0892 C   0  0  0  0  0  0  0  0  0  0  0  0
    8.2404  -15.0430   22.7094 C   0  0  2  0  0  0  0  0  0  0  0  0
    8.1236  -15.6971   21.4215 N   0  0  0  0  0  0  0  0  0  0  0  0
    8.7929  -15.9302   23.7467 C   0  0  0  0  0  0  0  0  0  0  0  0
    8.2965  -17.0800   23.8587 O   0  0  0  0  0  0  0  0  0  0  0  0
    6.3845  -14.4985   25.4804 C   0  0  0  0  0  0  0  0  0  0  0  0
    6.3797  -13.9220   26.7479 C   0  0  0  0  0  0  0  0  0  0  0  0
   14.0825  -17.6840   22.2557 N   0  0  0  0  0  0  0  0  0  0  0  0
   13.7090  -17.5127   23.6274 C   0  0  0  0  0  0  0  0  0  0  0  0
   14.5903  -17.3397   24.5446 O   0  0  0  0  0  0  0  0  0  0  0  0
   12.2976  -17.5169   24.0667 C   0  0  0  0  0  0  0  0  0  0  0  0
   11.9619  -16.5843   25.1729 C   0  0  0  0  0  0  0  0  0  0  0  0
   10.5237  -16.5343   25.5204 C   0  0  2  0  0  0  0  0  0  0  0  0
    9.8399  -15.5786   24.6225 N   0  0  0  0  0  0  0  0  0  0  0  0
   10.1651  -16.1784   26.8665 C   0  0  0  0  0  0  0  0  0  0  0  0
    9.5054  -15.0024   27.1708 O   0  0  0  0  0  0  0  0  0  0  0  0
   10.4468  -16.9223   27.8391 O   0  0  0  0  0  0  0  0  0  0  0  0
  1  2  1  0
  2  3  1  0
  3  4  2  0
  6  7  2  0
  6  5  1  0
  8  7  1  0
  9  8  2  0
 11 10  1  1
 10  9  1  0
 12 11  1  0
 12  3  1  0
 13 11  1  0
 14 13  2  0
 15  9  1  0
 15 16  2  0
 16  6  1  0
 18 19  2  0
 18 17  1  0
 20 18  1  0
 21 20  1  0
 22 21  1  1
 22 23  1  0
 23 13  1  0
 24 25  1  0
 24 22  1  0
 26 24  2  0
M  END
$$$$
