GYQ.pdb
     RDKit          3D

 26 26  0  0  1  0  0  0  0  0999 V2000
    7.3581  -14.6669   19.7422 N   0  0  0  0  0  0  0  0  0  0  0  0
    6.6812  -14.9024   21.0025 C   0  0  0  0  0  0  0  0  0  0  0  0
    7.6707  -14.8691   22.1153 C   0  0  0  0  0  0  0  0  0  0  0  0
    8.8978  -14.7802   21.8540 O   0  0  0  0  0  0  0  0  0  0  0  0
   11.0254  -14.6688   30.2807 O   0  0  0  0  0  0  0  0  0  0  0  0
   10.1716  -14.6281   29.1728 C   0  0  0  0  0  0  0  0  0  0  0  0
    9.9726  -13.4175   28.5474 C   0  0  0  0  0  0  0  0  0  0  0  0
    9.1229  -13.4153   27.4565 C   0  0  0  0  0  0  0  0  0  0  0  0
    8.4954  -14.5515   26.9985 C   0  0  0  0  0  0  0  0  0  0  0  0
    7.6013  -14.5190   25.8412 C   0  0  0  0  0  0  0  0  0  0  0  0
    8.2726  -14.8838   24.5459 C   0  0  2  0  0  0  0  0  0  0  0  0
    7.2928  -14.9335   23.4793 N   0  0  0  0  0  0  0  0  0  0  0  0
    9.0822  -16.1109   24.6285 C   0  0  0  0  0  0  0  0  0  0  0  0
    8.4757  -17.2123   24.6461 O   0  0  0  0  0  0  0  0  0  0  0  0
    8.7180  -15.7443   27.6486 C   0  0  0  0  0  0  0  0  0  0  0  0
    9.5679  -15.7831   28.7510 C   0  0  0  0  0  0  0  0  0  0  0  0
   12.5100  -17.6052   19.7611 N   0  0  0  0  0  0  0  0  0  0  0  0
   12.8277  -17.3491   21.1337 C   0  0  0  0  0  0  0  0  0  0  0  0
   14.0035  -16.9774   21.4906 O   0  0  0  0  0  0  0  0  0  0  0  0
   11.8281  -17.4886   22.2138 C   0  0  0  0  0  0  0  0  0  0  0  0
   12.3273  -17.2482   23.5918 C   0  0  0  0  0  0  0  0  0  0  0  0
   11.2987  -17.3731   24.6493 C   0  0  2  0  0  0  0  0  0  0  0  0
   10.4902  -16.1354   24.6892 N   0  0  0  0  0  0  0  0  0  0  0  0
   11.7386  -17.6327   25.9933 C   0  0  0  0  0  0  0  0  0  0  0  0
   11.9498  -16.6215   26.9117 O   0  0  0  0  0  0  0  0  0  0  0  0
   11.9635  -18.8016   26.3959 O   0  0  0  0  0  0  0  0  0  0  0  0
  1  2  1  0
  2  3  1  0
  3  4  2  0
  6  7  2  0
  6  5  1  0
  8  7  1  0
  9  8  2  0
 11 10  1  1
 10  9  1  0
 12 11  1  0
 12  3  1  0
 13 11  1  0
 14 13  2  0
 15  9  1  0
 15 16  2  0
 16  6  1  0
 18 19  2  0
 18 17  1  0
 20 18  1  0
 21 20  1  0
 22 21  1  6
 22 23  1  0
 23 13  1  0
 24 25  1  0
 24 22  1  0
 26 24  2  0
M  END
$$$$
