GYQ.pdb
     RDKit          3D

 26 26  0  0  1  0  0  0  0  0999 V2000
   10.0792  -17.0002   18.8311 N   0  0  0  0  0  0  0  0  0  0  0  0
    8.7816  -16.7624   19.4324 C   0  0  0  0  0  0  0  0  0  0  0  0
    8.9532  -16.0355   20.7210 C   0  0  0  0  0  0  0  0  0  0  0  0
   10.0656  -16.0634   21.3074 O   0  0  0  0  0  0  0  0  0  0  0  0
    6.8689  -11.8221   28.1951 O   0  0  0  0  0  0  0  0  0  0  0  0
    6.8667  -12.3320   26.8920 C   0  0  0  0  0  0  0  0  0  0  0  0
    6.1780  -13.4997   26.6502 C   0  0  0  0  0  0  0  0  0  0  0  0
    6.1977  -13.9738   25.3514 C   0  0  0  0  0  0  0  0  0  0  0  0
    6.8643  -13.3304   24.3335 C   0  0  0  0  0  0  0  0  0  0  0  0
    6.8678  -13.8556   22.9682 C   0  0  0  0  0  0  0  0  0  0  0  0
    8.0410  -14.7458   22.6640 C   0  0  2  0  0  0  0  0  0  0  0  0
    7.9074  -15.3002   21.3317 N   0  0  0  0  0  0  0  0  0  0  0  0
    8.2754  -15.7794   23.6862 C   0  0  0  0  0  0  0  0  0  0  0  0
    7.5338  -16.7948   23.6728 O   0  0  0  0  0  0  0  0  0  0  0  0
    7.5423  -12.1652   24.6122 C   0  0  0  0  0  0  0  0  0  0  0  0
    7.5435  -11.6590   25.9094 C   0  0  0  0  0  0  0  0  0  0  0  0
   12.8757  -19.0704   23.3493 N   0  0  0  0  0  0  0  0  0  0  0  0
   12.4844  -19.4362   24.6773 C   0  0  0  0  0  0  0  0  0  0  0  0
   13.0591  -20.3982   25.3035 O   0  0  0  0  0  0  0  0  0  0  0  0
   11.4092  -18.7298   25.4054 C   0  0  0  0  0  0  0  0  0  0  0  0
   10.7841  -17.5891   24.6883 C   0  0  0  0  0  0  0  0  0  0  0  0
    9.7461  -16.8707   25.4618 C   0  0  2  0  0  0  0  0  0  0  0  0
    9.2740  -15.7085   24.6785 N   0  0  0  0  0  0  0  0  0  0  0  0
   10.0926  -16.3846   26.7698 C   0  0  0  0  0  0  0  0  0  0  0  0
    9.9791  -17.1661   27.9043 O   0  0  0  0  0  0  0  0  0  0  0  0
   10.5089  -15.2121   26.9451 O   0  0  0  0  0  0  0  0  0  0  0  0
  1  2  1  0
  2  3  1  0
  3  4  2  0
  6  7  2  0
  6  5  1  0
  8  7  1  0
  9  8  2  0
 11 10  1  1
 10  9  1  0
 12 11  1  0
 12  3  1  0
 13 11  1  0
 14 13  2  0
 15  9  1  0
 15 16  2  0
 16  6  1  0
 18 19  2  0
 18 17  1  0
 20 18  1  0
 21 20  1  0
 22 21  1  6
 22 23  1  0
 23 13  1  0
 24 25  1  0
 24 22  1  0
 26 24  2  0
M  END
$$$$
