GYQ.pdb
     RDKit          3D

 26 26  0  0  1  0  0  0  0  0999 V2000
    6.5352  -19.3364   19.6602 N   0  0  0  0  0  0  0  0  0  0  0  0
    5.9313  -18.7280   20.8294 C   0  0  0  0  0  0  0  0  0  0  0  0
    6.9675  -17.9820   21.5965 C   0  0  0  0  0  0  0  0  0  0  0  0
    8.1620  -18.3753   21.5729 O   0  0  0  0  0  0  0  0  0  0  0  0
    8.0960  -12.4486   18.0702 O   0  0  0  0  0  0  0  0  0  0  0  0
    7.9463  -13.0099   19.3433 C   0  0  0  0  0  0  0  0  0  0  0  0
    9.0619  -13.1172   20.1435 C   0  0  0  0  0  0  0  0  0  0  0  0
    8.8763  -13.6765   21.3944 C   0  0  0  0  0  0  0  0  0  0  0  0
    7.6495  -14.1118   21.8414 C   0  0  0  0  0  0  0  0  0  0  0  0
    7.4831  -14.6998   23.1705 C   0  0  0  0  0  0  0  0  0  0  0  0
    7.6683  -16.1918   23.2010 C   0  0  2  0  0  0  0  0  0  0  0  0
    6.6705  -16.8301   22.3660 N   0  0  0  0  0  0  0  0  0  0  0  0
    7.7093  -16.7515   24.5623 C   0  0  0  0  0  0  0  0  0  0  0  0
    6.6530  -16.7122   25.2434 O   0  0  0  0  0  0  0  0  0  0  0  0
    6.5561  -13.9887   21.0140 C   0  0  0  0  0  0  0  0  0  0  0  0
    6.7067  -13.4300   19.7474 C   0  0  0  0  0  0  0  0  0  0  0  0
    6.5429  -20.7449   27.4079 N   0  0  0  0  0  0  0  0  0  0  0  0
    7.7873  -20.8155   28.1129 C   0  0  0  0  0  0  0  0  0  0  0  0
    7.8865  -21.4294   29.2360 O   0  0  0  0  0  0  0  0  0  0  0  0
    9.0250  -20.1976   27.5919 C   0  0  0  0  0  0  0  0  0  0  0  0
    8.8838  -19.4372   26.3239 C   0  0  0  0  0  0  0  0  0  0  0  0
    8.8591  -17.9661   26.4882 C   0  0  2  0  0  0  0  0  0  0  0  0
    8.8512  -17.3283   25.1540 N   0  0  0  0  0  0  0  0  0  0  0  0
    9.9178  -17.3520   27.2427 C   0  0  0  0  0  0  0  0  0  0  0  0
   10.9283  -16.6238   26.6433 O   0  0  0  0  0  0  0  0  0  0  0  0
    9.9798  -17.4588   28.4932 O   0  0  0  0  0  0  0  0  0  0  0  0
  1  2  1  0
  2  3  1  0
  3  4  2  0
  6  7  2  0
  6  5  1  0
  8  7  1  0
  9  8  2  0
 11 10  1  1
 10  9  1  0
 12 11  1  0
 12  3  1  0
 13 11  1  0
 14 13  2  0
 15  9  1  0
 15 16  2  0
 16  6  1  0
 18 19  2  0
 18 17  1  0
 20 18  1  0
 21 20  1  0
 22 21  1  6
 22 23  1  0
 23 13  1  0
 24 25  1  0
 24 22  1  0
 26 24  2  0
M  END
$$$$
