GYQ.pdb
     RDKit          3D

 26 26  0  0  1  0  0  0  0  0999 V2000
    6.8287  -19.2133   20.1534 N   0  0  0  0  0  0  0  0  0  0  0  0
    6.0785  -18.3475   21.0421 C   0  0  0  0  0  0  0  0  0  0  0  0
    7.0202  -17.5236   21.8501 C   0  0  0  0  0  0  0  0  0  0  0  0
    8.2397  -17.8297   21.8874 O   0  0  0  0  0  0  0  0  0  0  0  0
    8.5020  -12.5184   17.9966 O   0  0  0  0  0  0  0  0  0  0  0  0
    8.2182  -12.9329   19.3027 C   0  0  0  0  0  0  0  0  0  0  0  0
    9.2576  -13.0088   20.2027 C   0  0  0  0  0  0  0  0  0  0  0  0
    8.9400  -13.4221   21.4836 C   0  0  0  0  0  0  0  0  0  0  0  0
    7.6581  -13.7468   21.8652 C   0  0  0  0  0  0  0  0  0  0  0  0
    7.3516  -14.1811   23.2281 C   0  0  0  0  0  0  0  0  0  0  0  0
    7.5199  -15.6595   23.4456 C   0  0  2  0  0  0  0  0  0  0  0  0
    6.6045  -16.3911   22.5929 N   0  0  0  0  0  0  0  0  0  0  0  0
    7.4204  -16.0609   24.8588 C   0  0  0  0  0  0  0  0  0  0  0  0
    6.3191  -15.8878   25.4405 O   0  0  0  0  0  0  0  0  0  0  0  0
    6.6439  -13.6591   20.9385 C   0  0  0  0  0  0  0  0  0  0  0  0
    6.9279  -13.2464   19.6393 C   0  0  0  0  0  0  0  0  0  0  0  0
    7.4658  -21.9995   26.4830 N   0  0  0  0  0  0  0  0  0  0  0  0
    6.9102  -20.7628   26.0223 C   0  0  0  0  0  0  0  0  0  0  0  0
    5.6725  -20.6652   25.6962 O   0  0  0  0  0  0  0  0  0  0  0  0
    7.7190  -19.5312   25.9020 C   0  0  0  0  0  0  0  0  0  0  0  0
    7.2833  -18.3869   26.7425 C   0  0  0  0  0  0  0  0  0  0  0  0
    8.2954  -17.3178   26.8988 C   0  0  2  0  0  0  0  0  0  0  0  0
    8.4751  -16.6259   25.6041 N   0  0  0  0  0  0  0  0  0  0  0  0
    9.6045  -17.6886   27.3637 C   0  0  0  0  0  0  0  0  0  0  0  0
   10.7402  -17.5136   26.5955 O   0  0  0  0  0  0  0  0  0  0  0  0
    9.7769  -18.2034   28.4969 O   0  0  0  0  0  0  0  0  0  0  0  0
  1  2  1  0
  2  3  1  0
  3  4  2  0
  6  7  2  0
  6  5  1  0
  8  7  1  0
  9  8  2  0
 11 10  1  1
 10  9  1  0
 12 11  1  0
 12  3  1  0
 13 11  1  0
 14 13  2  0
 15  9  1  0
 15 16  2  0
 16  6  1  0
 18 19  2  0
 18 17  1  0
 20 18  1  0
 21 20  1  0
 22 21  1  6
 22 23  1  0
 23 13  1  0
 24 25  1  0
 24 22  1  0
 26 24  2  0
M  END
$$$$
