GYQ.pdb
     RDKit          3D

 26 26  0  0  1  0  0  0  0  0999 V2000
    9.6717  -17.4060   18.8767 N   0  0  0  0  0  0  0  0  0  0  0  0
    8.4221  -16.8976   19.4076 C   0  0  0  0  0  0  0  0  0  0  0  0
    8.6822  -16.1505   20.6696 C   0  0  0  0  0  0  0  0  0  0  0  0
    9.7993  -16.2586   21.2375 O   0  0  0  0  0  0  0  0  0  0  0  0
    7.0299  -11.6752   28.1025 O   0  0  0  0  0  0  0  0  0  0  0  0
    6.9837  -12.1895   26.8019 C   0  0  0  0  0  0  0  0  0  0  0  0
    7.9287  -11.7598   25.8972 C   0  0  0  0  0  0  0  0  0  0  0  0
    7.8523  -12.2891   24.6219 C   0  0  0  0  0  0  0  0  0  0  0  0
    6.8904  -13.2006   24.2501 C   0  0  0  0  0  0  0  0  0  0  0  0
    6.8339  -13.7439   22.8930 C   0  0  0  0  0  0  0  0  0  0  0  0
    7.9153  -14.7456   22.5954 C   0  0  2  0  0  0  0  0  0  0  0  0
    7.7169  -15.3080   21.2746 N   0  0  0  0  0  0  0  0  0  0  0  0
    8.0617  -15.7787   23.6344 C   0  0  0  0  0  0  0  0  0  0  0  0
    7.1713  -16.6633   23.7100 O   0  0  0  0  0  0  0  0  0  0  0  0
    5.9616  -13.6075   25.1812 C   0  0  0  0  0  0  0  0  0  0  0  0
    6.0090  -13.0948   26.4750 C   0  0  0  0  0  0  0  0  0  0  0  0
   10.5689  -20.3084   22.5505 N   0  0  0  0  0  0  0  0  0  0  0  0
   10.6841  -20.4733   23.9682 C   0  0  0  0  0  0  0  0  0  0  0  0
   11.1348  -21.5603   24.4813 O   0  0  0  0  0  0  0  0  0  0  0  0
   10.3014  -19.4086   24.9196 C   0  0  0  0  0  0  0  0  0  0  0  0
    9.7990  -18.1494   24.3130 C   0  0  0  0  0  0  0  0  0  0  0  0
    9.5189  -17.0677   25.2842 C   0  0  2  0  0  0  0  0  0  0  0  0
    9.1316  -15.8438   24.5498 N   0  0  0  0  0  0  0  0  0  0  0  0
   10.5613  -16.6963   26.2021 C   0  0  0  0  0  0  0  0  0  0  0  0
   11.4297  -15.6502   25.9527 O   0  0  0  0  0  0  0  0  0  0  0  0
   10.7393  -17.3182   27.2794 O   0  0  0  0  0  0  0  0  0  0  0  0
  1  2  1  0
  2  3  1  0
  3  4  2  0
  6  7  2  0
  6  5  1  0
  8  7  1  0
  9  8  2  0
 11 10  1  1
 10  9  1  0
 12 11  1  0
 12  3  1  0
 13 11  1  0
 14 13  2  0
 15  9  1  0
 15 16  2  0
 16  6  1  0
 18 19  2  0
 18 17  1  0
 20 18  1  0
 21 20  1  0
 22 21  1  6
 22 23  1  0
 23 13  1  0
 24 25  1  0
 24 22  1  0
 26 24  2  0
M  END
$$$$
