GYQ.pdb
     RDKit          3D

 26 26  0  0  1  0  0  0  0  0999 V2000
   12.0718  -17.2157   16.4331 N   0  0  0  0  0  0  0  0  0  0  0  0
   11.1099  -17.3458   17.5100 C   0  0  0  0  0  0  0  0  0  0  0  0
   11.5114  -16.4718   18.6473 C   0  0  0  0  0  0  0  0  0  0  0  0
   12.5904  -15.8284   18.5864 O   0  0  0  0  0  0  0  0  0  0  0  0
    6.1724  -12.3099   18.6549 O   0  0  0  0  0  0  0  0  0  0  0  0
    7.1250  -12.9900   19.4218 C   0  0  0  0  0  0  0  0  0  0  0  0
    8.3120  -12.3511   19.7031 C   0  0  0  0  0  0  0  0  0  0  0  0
    9.2294  -13.0534   20.4630 C   0  0  0  0  0  0  0  0  0  0  0  0
    8.9928  -14.3274   20.9270 C   0  0  0  0  0  0  0  0  0  0  0  0
    9.9824  -15.0465   21.7293 C   0  0  0  0  0  0  0  0  0  0  0  0
   11.1695  -15.5261   20.9406 C   0  0  2  0  0  0  0  0  0  0  0  0
   10.7248  -16.3255   19.8166 N   0  0  0  0  0  0  0  0  0  0  0  0
   12.1805  -16.2149   21.7602 C   0  0  0  0  0  0  0  0  0  0  0  0
   12.0237  -17.4444   21.9721 O   0  0  0  0  0  0  0  0  0  0  0  0
    7.7947  -14.9350   20.6261 C   0  0  0  0  0  0  0  0  0  0  0  0
    6.8477  -14.2569   19.8629 C   0  0  0  0  0  0  0  0  0  0  0  0
   19.0882  -16.6186   21.5404 N   0  0  0  0  0  0  0  0  0  0  0  0
   18.2284  -15.8051   22.3462 C   0  0  0  0  0  0  0  0  0  0  0  0
   18.5168  -14.5821   22.6089 O   0  0  0  0  0  0  0  0  0  0  0  0
   16.9631  -16.3169   22.9141 C   0  0  0  0  0  0  0  0  0  0  0  0
   15.7185  -15.7464   22.3383 C   0  0  0  0  0  0  0  0  0  0  0  0
   14.4683  -16.3225   22.8831 C   0  0  2  0  0  0  0  0  0  0  0  0
   13.3117  -15.5903   22.3233 N   0  0  0  0  0  0  0  0  0  0  0  0
   14.3008  -16.3468   24.3109 C   0  0  0  0  0  0  0  0  0  0  0  0
   13.3270  -15.6068   24.9550 O   0  0  0  0  0  0  0  0  0  0  0  0
   15.0459  -17.0407   25.0473 O   0  0  0  0  0  0  0  0  0  0  0  0
  1  2  1  0
  2  3  1  0
  3  4  2  0
  6  7  2  0
  6  5  1  0
  8  7  1  0
  9  8  2  0
 11 10  1  1
 10  9  1  0
 12 11  1  0
 12  3  1  0
 13 11  1  0
 14 13  2  0
 15  9  1  0
 15 16  2  0
 16  6  1  0
 18 19  2  0
 18 17  1  0
 20 18  1  0
 21 20  1  0
 22 21  1  1
 22 23  1  0
 23 13  1  0
 24 25  1  0
 24 22  1  0
 26 24  2  0
M  END
$$$$
