GYQ.pdb
     RDKit          3D

 26 26  0  0  1  0  0  0  0  0999 V2000
   10.4379  -17.2037   18.5980 N   0  0  0  0  0  0  0  0  0  0  0  0
    9.1377  -17.1180   19.2338 C   0  0  0  0  0  0  0  0  0  0  0  0
    9.2607  -16.3899   20.5273 C   0  0  0  0  0  0  0  0  0  0  0  0
   10.4008  -16.1681   21.0101 O   0  0  0  0  0  0  0  0  0  0  0  0
    7.2512  -11.7435   27.7404 O   0  0  0  0  0  0  0  0  0  0  0  0
    7.1972  -12.4274   26.5208 C   0  0  0  0  0  0  0  0  0  0  0  0
    7.7732  -11.8385   25.4173 C   0  0  0  0  0  0  0  0  0  0  0  0
    7.7008  -12.5430   24.2296 C   0  0  0  0  0  0  0  0  0  0  0  0
    7.0898  -13.7721   24.1285 C   0  0  0  0  0  0  0  0  0  0  0  0
    7.0284  -14.4948   22.8580 C   0  0  0  0  0  0  0  0  0  0  0  0
    8.2789  -15.2663   22.5383 C   0  0  2  0  0  0  0  0  0  0  0  0
    8.1376  -15.9254   21.2554 N   0  0  0  0  0  0  0  0  0  0  0  0
    8.6887  -16.1915   23.6080 C   0  0  0  0  0  0  0  0  0  0  0  0
    8.0114  -17.2389   23.7672 O   0  0  0  0  0  0  0  0  0  0  0  0
    6.5245  -14.3305   25.2527 C   0  0  0  0  0  0  0  0  0  0  0  0
    6.5791  -13.6486   26.4656 C   0  0  0  0  0  0  0  0  0  0  0  0
   14.3901  -18.7642   24.3648 N   0  0  0  0  0  0  0  0  0  0  0  0
   12.9965  -19.0159   24.1527 C   0  0  0  0  0  0  0  0  0  0  0  0
   12.5401  -20.2114   24.0504 O   0  0  0  0  0  0  0  0  0  0  0  0
   12.0052  -17.9244   24.0468 C   0  0  0  0  0  0  0  0  0  0  0  0
   11.6676  -17.2321   25.3167 C   0  0  0  0  0  0  0  0  0  0  0  0
   10.2261  -16.9474   25.4978 C   0  0  2  0  0  0  0  0  0  0  0  0
    9.7879  -15.9834   24.4654 N   0  0  0  0  0  0  0  0  0  0  0  0
    9.7931  -16.4307   26.7678 C   0  0  0  0  0  0  0  0  0  0  0  0
    9.4786  -17.2528   27.8335 O   0  0  0  0  0  0  0  0  0  0  0  0
    9.6695  -15.1960   26.9662 O   0  0  0  0  0  0  0  0  0  0  0  0
  1  2  1  0
  2  3  1  0
  3  4  2  0
  6  7  2  0
  6  5  1  0
  8  7  1  0
  9  8  2  0
 11 10  1  1
 10  9  1  0
 12 11  1  0
 12  3  1  0
 13 11  1  0
 14 13  2  0
 15  9  1  0
 15 16  2  0
 16  6  1  0
 18 19  2  0
 18 17  1  0
 20 18  1  0
 21 20  1  0
 22 21  1  1
 22 23  1  0
 23 13  1  0
 24 25  1  0
 24 22  1  0
 26 24  2  0
M  END
$$$$
