GYQ.pdb
     RDKit          3D

 26 26  0  0  1  0  0  0  0  0999 V2000
    7.1798  -19.6393   20.2277 N   0  0  0  0  0  0  0  0  0  0  0  0
    6.9929  -18.7203   21.3334 C   0  0  0  0  0  0  0  0  0  0  0  0
    8.1660  -17.8076   21.4287 C   0  0  0  0  0  0  0  0  0  0  0  0
    9.1701  -18.0070   20.6978 O   0  0  0  0  0  0  0  0  0  0  0  0
    6.7652  -12.5496   17.5896 O   0  0  0  0  0  0  0  0  0  0  0  0
    7.2967  -13.0100   18.7994 C   0  0  0  0  0  0  0  0  0  0  0  0
    6.4222  -13.3670   19.8015 C   0  0  0  0  0  0  0  0  0  0  0  0
    6.9829  -13.8173   20.9826 C   0  0  0  0  0  0  0  0  0  0  0  0
    8.3427  -13.9133   21.1728 C   0  0  0  0  0  0  0  0  0  0  0  0
    8.9077  -14.3935   22.4338 C   0  0  0  0  0  0  0  0  0  0  0  0
    9.3600  -15.8269   22.3887 C   0  0  2  0  0  0  0  0  0  0  0  0
    8.2096  -16.7053   22.3177 N   0  0  0  0  0  0  0  0  0  0  0  0
   10.2810  -16.1874   23.4795 C   0  0  0  0  0  0  0  0  0  0  0  0
    9.7826  -16.4505   24.6036 O   0  0  0  0  0  0  0  0  0  0  0  0
    9.1868  -13.5476   20.1486 C   0  0  0  0  0  0  0  0  0  0  0  0
    8.6564  -13.0896   18.9453 C   0  0  0  0  0  0  0  0  0  0  0  0
   11.4175  -20.9754   25.1106 N   0  0  0  0  0  0  0  0  0  0  0  0
   11.7853  -20.5330   23.7993 C   0  0  0  0  0  0  0  0  0  0  0  0
   11.8053  -21.3404   22.8015 O   0  0  0  0  0  0  0  0  0  0  0  0
   12.1540  -19.1300   23.5150 C   0  0  0  0  0  0  0  0  0  0  0  0
   12.1539  -18.2121   24.6826 C   0  0  0  0  0  0  0  0  0  0  0  0
   12.5812  -16.8279   24.3770 C   0  0  2  0  0  0  0  0  0  0  0  0
   11.6828  -16.2577   23.3499 N   0  0  0  0  0  0  0  0  0  0  0  0
   13.9286  -16.6215   23.9200 C   0  0  0  0  0  0  0  0  0  0  0  0
   15.0273  -16.8452   24.7284 O   0  0  0  0  0  0  0  0  0  0  0  0
   14.1717  -16.2143   22.7563 O   0  0  0  0  0  0  0  0  0  0  0  0
  1  2  1  0
  2  3  1  0
  3  4  2  0
  6  7  2  0
  6  5  1  0
  8  7  1  0
  9  8  2  0
 11 10  1  1
 10  9  1  0
 12 11  1  0
 12  3  1  0
 13 11  1  0
 14 13  2  0
 15  9  1  0
 15 16  2  0
 16  6  1  0
 18 19  2  0
 18 17  1  0
 20 18  1  0
 21 20  1  0
 22 21  1  6
 22 23  1  0
 23 13  1  0
 24 25  1  0
 24 22  1  0
 26 24  2  0
M  END
$$$$
