GYQ.pdb
     RDKit          3D

 26 26  0  0  1  0  0  0  0  0999 V2000
    6.1277  -19.3887   20.4617 N   0  0  0  0  0  0  0  0  0  0  0  0
    5.5427  -18.3619   21.3016 C   0  0  0  0  0  0  0  0  0  0  0  0
    6.6231  -17.6150   22.0041 C   0  0  0  0  0  0  0  0  0  0  0  0
    7.7794  -18.1059   22.0662 O   0  0  0  0  0  0  0  0  0  0  0  0
    8.8507  -12.6974   18.0464 O   0  0  0  0  0  0  0  0  0  0  0  0
    8.4949  -13.0833   19.3435 C   0  0  0  0  0  0  0  0  0  0  0  0
    9.4819  -13.1327   20.3026 C   0  0  0  0  0  0  0  0  0  0  0  0
    9.0938  -13.5181   21.5726 C   0  0  0  0  0  0  0  0  0  0  0  0
    7.7937  -13.8411   21.8885 C   0  0  0  0  0  0  0  0  0  0  0  0
    7.4121  -14.2456   23.2416 C   0  0  0  0  0  0  0  0  0  0  0  0
    7.4180  -15.7343   23.4537 C   0  0  2  0  0  0  0  0  0  0  0  0
    6.4105  -16.3558   22.6177 N   0  0  0  0  0  0  0  0  0  0  0  0
    7.3009  -16.1271   24.8680 C   0  0  0  0  0  0  0  0  0  0  0  0
    6.1468  -16.1996   25.3618 O   0  0  0  0  0  0  0  0  0  0  0  0
    6.8333  -13.7804   20.9041 C   0  0  0  0  0  0  0  0  0  0  0  0
    7.1890  -13.3962   19.6137 C   0  0  0  0  0  0  0  0  0  0  0  0
    5.9157  -21.4047   24.8533 N   0  0  0  0  0  0  0  0  0  0  0  0
    6.8286  -20.9706   25.8675 C   0  0  0  0  0  0  0  0  0  0  0  0
    7.6145  -21.7958   26.4586 O   0  0  0  0  0  0  0  0  0  0  0  0
    6.9267  -19.5566   26.2873 C   0  0  0  0  0  0  0  0  0  0  0  0
    8.1261  -18.8221   25.8100 C   0  0  0  0  0  0  0  0  0  0  0  0
    8.4566  -17.6095   26.5924 C   0  0  2  0  0  0  0  0  0  0  0  0
    8.3939  -16.4274   25.7059 N   0  0  0  0  0  0  0  0  0  0  0  0
    9.7261  -17.5643   27.2658 C   0  0  0  0  0  0  0  0  0  0  0  0
   10.9158  -17.3641   26.5910 O   0  0  0  0  0  0  0  0  0  0  0  0
    9.8147  -17.7166   28.5100 O   0  0  0  0  0  0  0  0  0  0  0  0
  1  2  1  0
  2  3  1  0
  3  4  2  0
  6  7  2  0
  6  5  1  0
  8  7  1  0
  9  8  2  0
 11 10  1  1
 10  9  1  0
 12 11  1  0
 12  3  1  0
 13 11  1  0
 14 13  2  0
 15  9  1  0
 15 16  2  0
 16  6  1  0
 18 19  2  0
 18 17  1  0
 20 18  1  0
 21 20  1  0
 22 21  1  6
 22 23  1  0
 23 13  1  0
 24 25  1  0
 24 22  1  0
 26 24  2  0
M  END
$$$$
