GYQ.pdb
     RDKit          3D

 26 26  0  0  1  0  0  0  0  0999 V2000
    9.3952  -17.8574   18.8775 N   0  0  0  0  0  0  0  0  0  0  0  0
    8.1889  -17.6229   19.6467 C   0  0  0  0  0  0  0  0  0  0  0  0
    8.5175  -16.8260   20.8614 C   0  0  0  0  0  0  0  0  0  0  0  0
    9.7147  -16.7240   21.2332 O   0  0  0  0  0  0  0  0  0  0  0  0
    7.5618  -11.7447   28.0182 O   0  0  0  0  0  0  0  0  0  0  0  0
    7.3707  -12.4170   26.8059 C   0  0  0  0  0  0  0  0  0  0  0  0
    8.0665  -11.9794   25.7012 C   0  0  0  0  0  0  0  0  0  0  0  0
    7.8527  -12.6674   24.5209 C   0  0  0  0  0  0  0  0  0  0  0  0
    6.9934  -13.7385   24.4281 C   0  0  0  0  0  0  0  0  0  0  0  0
    6.7870  -14.4477   23.1654 C   0  0  0  0  0  0  0  0  0  0  0  0
    7.8676  -15.4434   22.8455 C   0  0  2  0  0  0  0  0  0  0  0  0
    7.5313  -16.1645   21.6342 N   0  0  0  0  0  0  0  0  0  0  0  0
    8.1909  -16.3408   23.9672 C   0  0  0  0  0  0  0  0  0  0  0  0
    7.3325  -17.1984   24.2970 O   0  0  0  0  0  0  0  0  0  0  0  0
    6.3145  -14.1484   25.5533 C   0  0  0  0  0  0  0  0  0  0  0  0
    6.5058  -13.4783   26.7589 C   0  0  0  0  0  0  0  0  0  0  0  0
   13.1049  -19.1987   23.3832 N   0  0  0  0  0  0  0  0  0  0  0  0
   13.3090  -18.0897   24.2657 C   0  0  0  0  0  0  0  0  0  0  0  0
   14.4884  -17.6806   24.5650 O   0  0  0  0  0  0  0  0  0  0  0  0
   12.1839  -17.3495   24.8751 C   0  0  0  0  0  0  0  0  0  0  0  0
   10.9330  -18.1247   25.0756 C   0  0  0  0  0  0  0  0  0  0  0  0
    9.8146  -17.3482   25.6571 C   0  0  2  0  0  0  0  0  0  0  0  0
    9.3967  -16.3043   24.6964 N   0  0  0  0  0  0  0  0  0  0  0  0
   10.0287  -16.6966   26.9207 C   0  0  0  0  0  0  0  0  0  0  0  0
   10.1975  -15.3290   27.0295 O   0  0  0  0  0  0  0  0  0  0  0  0
   10.0832  -17.3478   27.9940 O   0  0  0  0  0  0  0  0  0  0  0  0
  1  2  1  0
  2  3  1  0
  3  4  2  0
  6  7  2  0
  6  5  1  0
  8  7  1  0
  9  8  2  0
 11 10  1  1
 10  9  1  0
 12 11  1  0
 12  3  1  0
 13 11  1  0
 14 13  2  0
 15  9  1  0
 15 16  2  0
 16  6  1  0
 18 19  2  0
 18 17  1  0
 20 18  1  0
 21 20  1  0
 22 21  1  6
 22 23  1  0
 23 13  1  0
 24 25  1  0
 24 22  1  0
 26 24  2  0
M  END
$$$$
