GYQ.pdb
     RDKit          3D

 26 26  0  0  1  0  0  0  0  0999 V2000
    7.5148  -16.9250   18.6725 N   0  0  0  0  0  0  0  0  0  0  0  0
    8.8953  -16.5291   18.8709 C   0  0  0  0  0  0  0  0  0  0  0  0
    9.0239  -15.7920   20.1588 C   0  0  0  0  0  0  0  0  0  0  0  0
   10.1245  -15.2674   20.4679 O   0  0  0  0  0  0  0  0  0  0  0  0
    6.9788  -12.2661   27.9913 O   0  0  0  0  0  0  0  0  0  0  0  0
    6.9343  -12.8121   26.7036 C   0  0  0  0  0  0  0  0  0  0  0  0
    7.4064  -12.0521   25.6568 C   0  0  0  0  0  0  0  0  0  0  0  0
    7.3468  -12.6237   24.3991 C   0  0  0  0  0  0  0  0  0  0  0  0
    6.8456  -13.8862   24.1775 C   0  0  0  0  0  0  0  0  0  0  0  0
    6.7950  -14.4655   22.8351 C   0  0  0  0  0  0  0  0  0  0  0  0
    8.1177  -14.9933   22.3523 C   0  0  2  0  0  0  0  0  0  0  0  0
    7.9492  -15.6490   21.0709 N   0  0  0  0  0  0  0  0  0  0  0  0
    8.8062  -15.8441   23.3373 C   0  0  0  0  0  0  0  0  0  0  0  0
    8.3242  -16.9828   23.5658 O   0  0  0  0  0  0  0  0  0  0  0  0
    6.3823  -14.6172   25.2480 C   0  0  0  0  0  0  0  0  0  0  0  0
    6.4272  -14.0725   26.5288 C   0  0  0  0  0  0  0  0  0  0  0  0
   14.9340  -15.5220   22.7235 N   0  0  0  0  0  0  0  0  0  0  0  0
   14.8035  -16.3541   23.8815 C   0  0  0  0  0  0  0  0  0  0  0  0
   15.8329  -16.7800   24.5192 O   0  0  0  0  0  0  0  0  0  0  0  0
   13.4866  -16.7642   24.4135 C   0  0  0  0  0  0  0  0  0  0  0  0
   12.3189  -15.9952   23.9125 C   0  0  0  0  0  0  0  0  0  0  0  0
   11.0162  -16.4195   24.4736 C   0  0  2  0  0  0  0  0  0  0  0  0
    9.9685  -15.4695   24.0413 N   0  0  0  0  0  0  0  0  0  0  0  0
   10.9048  -16.5489   25.9012 C   0  0  0  0  0  0  0  0  0  0  0  0
   10.4592  -15.5170   26.7058 O   0  0  0  0  0  0  0  0  0  0  0  0
   11.2201  -17.6131   26.4903 O   0  0  0  0  0  0  0  0  0  0  0  0
  1  2  1  0
  2  3  1  0
  3  4  2  0
  6  7  2  0
  6  5  1  0
  8  7  1  0
  9  8  2  0
 11 10  1  1
 10  9  1  0
 12 11  1  0
 12  3  1  0
 13 11  1  0
 14 13  2  0
 15  9  1  0
 15 16  2  0
 16  6  1  0
 18 19  2  0
 18 17  1  0
 20 18  1  0
 21 20  1  0
 22 21  1  1
 22 23  1  0
 23 13  1  0
 24 25  1  0
 24 22  1  0
 26 24  2  0
M  END
$$$$
