MLQ.pdb
     RDKit          3D

 26 25  0  0  1  0  0  0  0  0999 V2000
   12.1194  -14.5803    7.3647 C   0  0  0  0  0  0  0  0  0  0  0  0
   12.3422  -12.8066    7.1642 S   0  0  0  0  0  0  0  0  0  0  0  0
   13.4711  -12.3337    5.8748 C   0  0  0  0  0  0  0  0  0  0  0  0
   14.8856  -12.7338    6.1344 C   0  0  0  0  0  0  0  0  0  0  0  0
   15.8653  -12.3963    5.0739 C   0  0  2  0  0  0  0  0  0  0  0  0
   15.6778  -13.1175    3.8483 N   0  0  0  0  0  0  0  0  0  0  0  0
   17.2527  -12.6551    5.5904 C   0  0  0  0  0  0  0  0  0  0  0  0
   17.7952  -13.7310    5.1814 O   0  0  0  0  0  0  0  0  0  0  0  0
   22.2605  -11.0557    6.8416 C   0  0  0  0  0  0  0  0  0  0  0  0
   21.2513  -10.8457    7.9728 C   0  0  1  0  0  0  0  0  0  0  0  0
   21.6934   -9.7432    8.8635 C   0  0  0  0  0  0  0  0  0  0  0  0
   19.8853  -10.7545    7.4135 C   0  0  0  0  0  0  0  0  0  0  0  0
   19.2829  -11.9986    6.8789 C   0  0  2  0  0  0  0  0  0  0  0  0
   17.9254  -11.7705    6.4697 N   0  0  0  0  0  0  0  0  0  0  0  0
   19.2532  -13.0931    7.9274 C   0  0  0  0  0  0  0  0  0  0  0  0
   18.3120  -13.2196    8.7462 O   0  0  0  0  0  0  0  0  0  0  0  0
   20.3779  -19.9873    8.6298 N   0  0  0  0  0  0  0  0  0  0  0  0
   21.1342  -18.7977    8.5992 C   0  0  0  0  0  0  0  0  0  0  0  0
   22.2268  -18.7652    7.9527 O   0  0  0  0  0  0  0  0  0  0  0  0
   20.7052  -17.5704    9.2870 C   0  0  0  0  0  0  0  0  0  0  0  0
   20.6948  -16.3989    8.3725 C   0  0  0  0  0  0  0  0  0  0  0  0
   20.2409  -15.1480    9.0000 C   0  0  2  0  0  0  0  0  0  0  0  0
   20.3064  -14.0342    8.0262 N   0  0  0  0  0  0  0  0  0  0  0  0
   20.7894  -14.6739   10.2484 C   0  0  0  0  0  0  0  0  0  0  0  0
   21.6364  -13.7091   10.2262 O   0  0  0  0  0  0  0  0  0  0  0  0
   20.5124  -15.1272   11.5344 O   0  0  0  0  0  0  0  0  0  0  0  0
  2  1  1  0
  3  2  1  0
  4  3  1  0
  4  5  1  0
  5  6  1  6
  7  5  1  0
  7  8  2  0
 10 11  1  6
 10  9  1  0
 12 10  1  0
 13 12  1  1
 13 14  1  0
 14  7  1  0
 15 13  1  0
 16 15  2  0
 17 18  1  0
 18 19  2  0
 20 18  1  0
 20 21  1  0
 22 21  1  6
 22 23  1  0
 23 15  1  0
 24 22  1  0
 25 24  2  0
 26 24  1  0
M  END
$$$$
