MLQ.pdb
     RDKit          3D

 26 25  0  0  1  0  0  0  0  0999 V2000
   19.5256   -8.0030  -21.9149 C   0  0  0  0  0  0  0  0  0  0  0  0
   18.3960   -9.4002  -22.0017 S   0  0  0  0  0  0  0  0  0  0  0  0
   18.7931  -10.7536  -20.9194 C   0  0  0  0  0  0  0  0  0  0  0  0
   19.6122  -10.3592  -19.7354 C   0  0  0  0  0  0  0  0  0  0  0  0
   20.2907  -11.4623  -19.0135 C   0  0  2  0  0  0  0  0  0  0  0  0
   19.4028  -12.4696  -18.5092 N   0  0  0  0  0  0  0  0  0  0  0  0
   21.0807  -10.8860  -17.8723 C   0  0  0  0  0  0  0  0  0  0  0  0
   20.4229  -10.6795  -16.8028 O   0  0  0  0  0  0  0  0  0  0  0  0
   24.9475  -10.3250  -14.4454 C   0  0  0  0  0  0  0  0  0  0  0  0
   25.5145  -10.0144  -15.8326 C   0  0  1  0  0  0  0  0  0  0  0  0
   26.9390  -10.4246  -15.9139 C   0  0  0  0  0  0  0  0  0  0  0  0
   24.6021  -10.5352  -16.8736 C   0  0  0  0  0  0  0  0  0  0  0  0
   23.1985  -10.0599  -16.8498 C   0  0  2  0  0  0  0  0  0  0  0  0
   22.4637  -10.5907  -17.9637 N   0  0  0  0  0  0  0  0  0  0  0  0
   23.1248   -8.5489  -16.9480 C   0  0  0  0  0  0  0  0  0  0  0  0
   23.2704   -7.9339  -18.0309 O   0  0  0  0  0  0  0  0  0  0  0  0
   19.4590   -5.6252  -18.7411 N   0  0  0  0  0  0  0  0  0  0  0  0
   19.8675   -4.5719  -17.8976 C   0  0  0  0  0  0  0  0  0  0  0  0
   19.2779   -3.4491  -17.9654 O   0  0  0  0  0  0  0  0  0  0  0  0
   20.9582   -4.7181  -16.9218 C   0  0  0  0  0  0  0  0  0  0  0  0
   21.4940   -6.1041  -16.8950 C   0  0  0  0  0  0  0  0  0  0  0  0
   22.5789   -6.3126  -15.9234 C   0  0  2  0  0  0  0  0  0  0  0  0
   22.8840   -7.7565  -15.7996 N   0  0  0  0  0  0  0  0  0  0  0  0
   22.5324   -5.7569  -14.5919 C   0  0  0  0  0  0  0  0  0  0  0  0
   22.3312   -6.5450  -13.5984 O   0  0  0  0  0  0  0  0  0  0  0  0
   22.6910   -4.4280  -14.2108 O   0  0  0  0  0  0  0  0  0  0  0  0
  2  1  1  0
  3  2  1  0
  4  3  1  0
  4  5  1  0
  5  6  1  1
  7  5  1  0
  7  8  2  0
 10 11  1  1
 10  9  1  0
 12 10  1  0
 13 12  1  6
 13 14  1  0
 14  7  1  0
 15 13  1  0
 16 15  2  0
 17 18  1  0
 18 19  2  0
 20 18  1  0
 20 21  1  0
 22 21  1  1
 22 23  1  0
 23 15  1  0
 24 22  1  0
 25 24  2  0
 26 24  1  0
M  END
$$$$
