MLQ.pdb
     RDKit          3D

 26 25  0  0  1  0  0  0  0  0999 V2000
   27.0351  -12.7613  -16.0791 C   0  0  0  0  0  0  0  0  0  0  0  0
   26.5493  -14.4380  -15.6449 S   0  0  0  0  0  0  0  0  0  0  0  0
   25.2352  -15.1169  -16.6312 C   0  0  0  0  0  0  0  0  0  0  0  0
   24.8791  -16.5226  -16.2770 C   0  0  0  0  0  0  0  0  0  0  0  0
   26.0133  -17.4654  -16.1243 C   0  0  2  0  0  0  0  0  0  0  0  0
   26.5750  -17.9161  -17.3647 N   0  0  0  0  0  0  0  0  0  0  0  0
   25.5554  -18.6557  -15.3295 C   0  0  0  0  0  0  0  0  0  0  0  0
   25.0818  -19.6188  -16.0132 O   0  0  0  0  0  0  0  0  0  0  0  0
   26.0159  -22.3690  -11.6408 C   0  0  0  0  0  0  0  0  0  0  0  0
   25.5561  -21.0699  -10.9752 C   0  0  1  0  0  0  0  0  0  0  0  0
   26.0409  -21.0061   -9.5733 C   0  0  0  0  0  0  0  0  0  0  0  0
   25.8717  -19.9207  -11.8510 C   0  0  0  0  0  0  0  0  0  0  0  0
   25.2267  -19.8827  -13.1848 C   0  0  2  0  0  0  0  0  0  0  0  0
   25.6414  -18.7186  -13.9163 N   0  0  0  0  0  0  0  0  0  0  0  0
   23.7167  -19.8193  -13.0671 C   0  0  0  0  0  0  0  0  0  0  0  0
   23.1315  -19.0207  -12.2977 O   0  0  0  0  0  0  0  0  0  0  0  0
   21.1499  -17.5854  -16.8929 N   0  0  0  0  0  0  0  0  0  0  0  0
   20.8946  -18.9670  -17.0107 C   0  0  0  0  0  0  0  0  0  0  0  0
   20.1865  -19.3943  -17.9745 O   0  0  0  0  0  0  0  0  0  0  0  0
   21.4253  -19.9530  -16.0571 C   0  0  0  0  0  0  0  0  0  0  0  0
   20.8062  -19.8114  -14.7134 C   0  0  0  0  0  0  0  0  0  0  0  0
   21.4187  -20.6549  -13.6753 C   0  0  2  0  0  0  0  0  0  0  0  0
   22.8909  -20.6751  -13.8355 N   0  0  0  0  0  0  0  0  0  0  0  0
   20.9838  -22.0101  -13.4338 C   0  0  0  0  0  0  0  0  0  0  0  0
   19.7613  -22.2184  -13.1013 O   0  0  0  0  0  0  0  0  0  0  0  0
   21.7320  -23.1800  -13.5227 O   0  0  0  0  0  0  0  0  0  0  0  0
  2  1  1  0
  3  2  1  0
  4  3  1  0
  4  5  1  0
  5  6  1  6
  7  5  1  0
  7  8  2  0
 10 11  1  1
 10  9  1  0
 12 10  1  0
 13 12  1  1
 13 14  1  0
 14  7  1  0
 15 13  1  0
 16 15  2  0
 17 18  1  0
 18 19  2  0
 20 18  1  0
 20 21  1  0
 22 21  1  6
 22 23  1  0
 23 15  1  0
 24 22  1  0
 25 24  2  0
 26 24  1  0
M  END
$$$$
