MLQ.pdb
     RDKit          3D

 26 25  0  0  1  0  0  0  0  0999 V2000
   12.0997  -28.4987   -2.8112 C   0  0  0  0  0  0  0  0  0  0  0  0
   12.0251  -27.4459   -4.2679 S   0  0  0  0  0  0  0  0  0  0  0  0
   13.3817  -26.3102   -4.4424 C   0  0  0  0  0  0  0  0  0  0  0  0
   14.2788  -26.2540   -3.2506 C   0  0  0  0  0  0  0  0  0  0  0  0
   15.5402  -25.4927   -3.4174 C   0  0  2  0  0  0  0  0  0  0  0  0
   15.7077  -24.9087   -4.7167 N   0  0  0  0  0  0  0  0  0  0  0  0
   16.7015  -26.4032   -3.1331 C   0  0  0  0  0  0  0  0  0  0  0  0
   17.5112  -26.5726   -4.1000 O   0  0  0  0  0  0  0  0  0  0  0  0
   21.1635  -27.0673   -1.0559 C   0  0  0  0  0  0  0  0  0  0  0  0
   20.1233  -26.9753    0.0629 C   0  0  1  0  0  0  0  0  0  0  0  0
   20.6434  -26.1580    1.1880 C   0  0  0  0  0  0  0  0  0  0  0  0
   18.8132  -26.5875   -0.5033 C   0  0  0  0  0  0  0  0  0  0  0  0
   18.1858  -27.5190   -1.4704 C   0  0  2  0  0  0  0  0  0  0  0  0
   16.8974  -27.0344   -1.8795 N   0  0  0  0  0  0  0  0  0  0  0  0
   17.9716  -28.8894   -0.8587 C   0  0  0  0  0  0  0  0  0  0  0  0
   17.1262  -29.1029    0.0423 O   0  0  0  0  0  0  0  0  0  0  0  0
   19.3357  -32.0274   -4.4319 N   0  0  0  0  0  0  0  0  0  0  0  0
   17.9509  -31.9927   -4.1694 C   0  0  0  0  0  0  0  0  0  0  0  0
   17.1342  -31.8322   -5.1287 O   0  0  0  0  0  0  0  0  0  0  0  0
   17.3991  -32.1434   -2.8144 C   0  0  0  0  0  0  0  0  0  0  0  0
   18.4672  -32.3553   -1.8029 C   0  0  0  0  0  0  0  0  0  0  0  0
   18.4860  -31.3525   -0.7266 C   0  0  2  0  0  0  0  0  0  0  0  0
   18.7316  -30.0042   -1.2880 N   0  0  0  0  0  0  0  0  0  0  0  0
   19.3181  -31.5000    0.4438 C   0  0  0  0  0  0  0  0  0  0  0  0
   20.1526  -30.5678    0.7321 O   0  0  0  0  0  0  0  0  0  0  0  0
   19.3409  -32.5531    1.3531 O   0  0  0  0  0  0  0  0  0  0  0  0
  2  1  1  0
  3  2  1  0
  4  3  1  0
  4  5  1  0
  5  6  1  6
  7  5  1  0
  7  8  2  0
 10 11  1  1
 10  9  1  0
 12 10  1  0
 13 12  1  1
 13 14  1  0
 14  7  1  0
 15 13  1  0
 16 15  2  0
 17 18  1  0
 18 19  2  0
 20 18  1  0
 20 21  1  0
 22 21  1  6
 22 23  1  0
 23 15  1  0
 24 22  1  0
 25 24  2  0
 26 24  1  0
M  END
$$$$
