MLQ.pdb
     RDKit          3D

 26 25  0  0  1  0  0  0  0  0999 V2000
   23.0520  -35.0400  -16.5823 C   0  0  0  0  0  0  0  0  0  0  0  0
   23.8546  -33.5233  -16.0428 S   0  0  0  0  0  0  0  0  0  0  0  0
   25.5518  -33.3539  -16.5441 C   0  0  0  0  0  0  0  0  0  0  0  0
   26.1775  -32.0635  -16.1300 C   0  0  0  0  0  0  0  0  0  0  0  0
   27.5920  -31.8656  -16.5280 C   0  0  2  0  0  0  0  0  0  0  0  0
   28.5343  -32.6064  -15.7402 N   0  0  0  0  0  0  0  0  0  0  0  0
   27.9228  -30.4021  -16.4444 C   0  0  0  0  0  0  0  0  0  0  0  0
   28.6199  -30.0571  -15.4373 O   0  0  0  0  0  0  0  0  0  0  0  0
   31.3721  -27.5374  -19.0302 C   0  0  0  0  0  0  0  0  0  0  0  0
   30.4107  -27.8136  -17.8718 C   0  0  1  0  0  0  0  0  0  0  0  0
   30.6797  -26.8872  -16.7432 C   0  0  0  0  0  0  0  0  0  0  0  0
   29.0225  -27.8747  -18.3782 C   0  0  0  0  0  0  0  0  0  0  0  0
   27.9439  -28.0942  -17.3857 C   0  0  2  0  0  0  0  0  0  0  0  0
   27.4985  -29.4592  -17.4135 N   0  0  0  0  0  0  0  0  0  0  0  0
   26.7364  -27.2265  -17.6807 C   0  0  0  0  0  0  0  0  0  0  0  0
   25.9584  -27.4533  -18.6375 O   0  0  0  0  0  0  0  0  0  0  0  0
   23.4348  -23.6688  -13.6857 N   0  0  0  0  0  0  0  0  0  0  0  0
   23.0109  -24.9165  -14.1870 C   0  0  0  0  0  0  0  0  0  0  0  0
   22.0797  -25.5465  -13.5962 O   0  0  0  0  0  0  0  0  0  0  0  0
   23.6022  -25.5288  -15.3864 C   0  0  0  0  0  0  0  0  0  0  0  0
   24.6929  -24.6934  -15.9531 C   0  0  0  0  0  0  0  0  0  0  0  0
   25.2814  -25.2285  -17.1908 C   0  0  2  0  0  0  0  0  0  0  0  0
   26.4327  -26.1041  -16.8728 N   0  0  0  0  0  0  0  0  0  0  0  0
   25.6688  -24.3732  -18.2873 C   0  0  0  0  0  0  0  0  0  0  0  0
   24.7540  -23.8802  -19.0416 O   0  0  0  0  0  0  0  0  0  0  0  0
   26.9513  -23.9797  -18.6569 O   0  0  0  0  0  0  0  0  0  0  0  0
  2  1  1  0
  3  2  1  0
  4  3  1  0
  4  5  1  0
  5  6  1  1
  7  5  1  0
  7  8  2  0
 10 11  1  1
 10  9  1  0
 12 10  1  0
 13 12  1  6
 13 14  1  0
 14  7  1  0
 15 13  1  0
 16 15  2  0
 17 18  1  0
 18 19  2  0
 20 18  1  0
 20 21  1  0
 22 21  1  1
 22 23  1  0
 23 15  1  0
 24 22  1  0
 25 24  2  0
 26 24  1  0
M  END
$$$$
