MLQ.pdb
     RDKit          3D

 26 25  0  0  1  0  0  0  0  0999 V2000
   20.9082   -6.3848  -22.6520 C   0  0  0  0  0  0  0  0  0  0  0  0
   20.4783   -7.7057  -23.7949 S   0  0  0  0  0  0  0  0  0  0  0  0
   20.8573   -9.3455  -23.2223 C   0  0  0  0  0  0  0  0  0  0  0  0
   20.6759   -9.5283  -21.7519 C   0  0  0  0  0  0  0  0  0  0  0  0
   21.0903  -10.8407  -21.2005 C   0  0  2  0  0  0  0  0  0  0  0  0
   20.3299  -11.9527  -21.6931 N   0  0  0  0  0  0  0  0  0  0  0  0
   20.9840  -10.7965  -19.7021 C   0  0  0  0  0  0  0  0  0  0  0  0
   19.8894  -11.2307  -19.2198 O   0  0  0  0  0  0  0  0  0  0  0  0
   22.1783  -11.8866  -14.8269 C   0  0  0  0  0  0  0  0  0  0  0  0
   23.3046  -11.0244  -15.4018 C   0  0  1  0  0  0  0  0  0  0  0  0
   24.6147  -11.4432  -14.8426 C   0  0  0  0  0  0  0  0  0  0  0  0
   23.1875  -10.9665  -16.8749 C   0  0  0  0  0  0  0  0  0  0  0  0
   21.9436  -10.3900  -17.4378 C   0  0  2  0  0  0  0  0  0  0  0  0
   22.0230  -10.3111  -18.8695 N   0  0  0  0  0  0  0  0  0  0  0  0
   21.7064   -8.9823  -16.9275 C   0  0  0  0  0  0  0  0  0  0  0  0
   22.4356   -8.0146  -17.2499 O   0  0  0  0  0  0  0  0  0  0  0  0
   16.2965   -6.2441  -16.3431 N   0  0  0  0  0  0  0  0  0  0  0  0
   17.1124   -5.3713  -15.5944 C   0  0  0  0  0  0  0  0  0  0  0  0
   16.6166   -4.3046  -15.1158 O   0  0  0  0  0  0  0  0  0  0  0  0
   18.5330   -5.6476  -15.3318 C   0  0  0  0  0  0  0  0  0  0  0  0
   18.9506   -6.9646  -15.8795 C   0  0  0  0  0  0  0  0  0  0  0  0
   20.3553   -7.3109  -15.6124 C   0  0  2  0  0  0  0  0  0  0  0  0
   20.6321   -8.6984  -16.0500 N   0  0  0  0  0  0  0  0  0  0  0  0
   20.9546   -7.1319  -14.3113 C   0  0  0  0  0  0  0  0  0  0  0  0
   20.9590   -8.1191  -13.4903 O   0  0  0  0  0  0  0  0  0  0  0  0
   21.5655   -5.9922  -13.7975 O   0  0  0  0  0  0  0  0  0  0  0  0
  2  1  1  0
  3  2  1  0
  4  3  1  0
  4  5  1  0
  5  6  1  6
  7  5  1  0
  7  8  2  0
 10 11  1  6
 10  9  1  0
 12 10  1  0
 13 12  1  1
 13 14  1  0
 14  7  1  0
 15 13  1  0
 16 15  2  0
 17 18  1  0
 18 19  2  0
 20 18  1  0
 20 21  1  0
 22 21  1  1
 22 23  1  0
 23 15  1  0
 24 22  1  0
 25 24  2  0
 26 24  1  0
M  END
$$$$
