MLQ.pdb
     RDKit          3D

 26 25  0  0  1  0  0  0  0  0999 V2000
   23.7273  -20.1699   -9.2880 C   0  0  0  0  0  0  0  0  0  0  0  0
   22.0901  -20.8571   -9.0001 S   0  0  0  0  0  0  0  0  0  0  0  0
   20.9716  -20.7312  -10.3762 C   0  0  0  0  0  0  0  0  0  0  0  0
   21.6416  -20.8104  -11.7077 C   0  0  0  0  0  0  0  0  0  0  0  0
   21.7226  -19.5442  -12.4749 C   0  0  2  0  0  0  0  0  0  0  0  0
   20.4610  -19.0740  -12.9696 N   0  0  0  0  0  0  0  0  0  0  0  0
   22.6654  -19.7323  -13.6299 C   0  0  0  0  0  0  0  0  0  0  0  0
   22.3269  -19.1519  -14.7105 O   0  0  0  0  0  0  0  0  0  0  0  0
   27.7918  -18.8996  -14.3373 C   0  0  0  0  0  0  0  0  0  0  0  0
   27.5830  -20.3848  -14.0323 C   0  0  1  0  0  0  0  0  0  0  0  0
   28.7533  -20.9332  -13.3015 C   0  0  0  0  0  0  0  0  0  0  0  0
   26.2512  -20.5872  -13.4219 C   0  0  0  0  0  0  0  0  0  0  0  0
   25.0757  -20.0749  -14.1650 C   0  0  2  0  0  0  0  0  0  0  0  0
   23.8549  -20.4971  -13.5374 N   0  0  0  0  0  0  0  0  0  0  0  0
   25.0491  -20.5995  -15.5870 C   0  0  0  0  0  0  0  0  0  0  0  0
   25.0296  -19.8428  -16.5865 O   0  0  0  0  0  0  0  0  0  0  0  0
   22.8655  -25.6553  -13.9914 N   0  0  0  0  0  0  0  0  0  0  0  0
   21.7259  -25.0472  -14.5565 C   0  0  0  0  0  0  0  0  0  0  0  0
   20.6241  -25.6784  -14.5792 O   0  0  0  0  0  0  0  0  0  0  0  0
   21.7531  -23.6904  -15.1238 C   0  0  0  0  0  0  0  0  0  0  0  0
   23.0677  -23.0298  -14.9140 C   0  0  0  0  0  0  0  0  0  0  0  0
   23.7832  -22.7022  -16.1571 C   0  0  2  0  0  0  0  0  0  0  0  0
   25.0451  -21.9910  -15.8487 N   0  0  0  0  0  0  0  0  0  0  0  0
   23.1433  -22.0091  -17.2498 C   0  0  0  0  0  0  0  0  0  0  0  0
   22.2739  -22.6361  -17.9568 O   0  0  0  0  0  0  0  0  0  0  0  0
   23.3351  -20.6938  -17.6613 O   0  0  0  0  0  0  0  0  0  0  0  0
  2  1  1  0
  3  2  1  0
  4  3  1  0
  4  5  1  0
  5  6  1  6
  7  5  1  0
  7  8  2  0
 10 11  1  1
 10  9  1  0
 12 10  1  0
 13 12  1  1
 13 14  1  0
 14  7  1  0
 15 13  1  0
 16 15  2  0
 17 18  1  0
 18 19  2  0
 20 18  1  0
 20 21  1  0
 22 21  1  1
 22 23  1  0
 23 15  1  0
 24 22  1  0
 25 24  2  0
 26 24  1  0
M  END
$$$$
