MLQ.pdb
     RDKit          3D

 26 25  0  0  1  0  0  0  0  0999 V2000
   12.9205  -24.3008  -11.7976 C   0  0  0  0  0  0  0  0  0  0  0  0
   13.2908  -23.2702  -13.2247 S   0  0  0  0  0  0  0  0  0  0  0  0
   15.0113  -23.1889  -13.6646 C   0  0  0  0  0  0  0  0  0  0  0  0
   15.9387  -23.4537  -12.5252 C   0  0  0  0  0  0  0  0  0  0  0  0
   17.3872  -23.4212  -12.8404 C   0  0  2  0  0  0  0  0  0  0  0  0
   17.8207  -24.4645  -13.7242 N   0  0  0  0  0  0  0  0  0  0  0  0
   18.1679  -23.5050  -11.5591 C   0  0  0  0  0  0  0  0  0  0  0  0
   18.4775  -24.6811  -11.1848 O   0  0  0  0  0  0  0  0  0  0  0  0
   21.2874  -19.2058   -9.6417 C   0  0  0  0  0  0  0  0  0  0  0  0
   20.8992  -20.6111  -10.1072 C   0  0  1  0  0  0  0  0  0  0  0  0
   22.1131  -21.4324  -10.3439 C   0  0  0  0  0  0  0  0  0  0  0  0
   19.8718  -21.1712   -9.2027 C   0  0  0  0  0  0  0  0  0  0  0  0
   19.2716  -22.4738   -9.5763 C   0  0  2  0  0  0  0  0  0  0  0  0
   18.5440  -22.3627  -10.8094 N   0  0  0  0  0  0  0  0  0  0  0  0
   18.2918  -22.9532   -8.5236 C   0  0  0  0  0  0  0  0  0  0  0  0
   17.0619  -22.7173   -8.5873 O   0  0  0  0  0  0  0  0  0  0  0  0
   15.3927  -27.5724   -7.4228 N   0  0  0  0  0  0  0  0  0  0  0  0
   14.7447  -26.4138   -6.9478 C   0  0  0  0  0  0  0  0  0  0  0  0
   13.5462  -26.4899   -6.5347 O   0  0  0  0  0  0  0  0  0  0  0  0
   15.4061  -25.1009   -6.9014 C   0  0  0  0  0  0  0  0  0  0  0  0
   16.8121  -25.1730   -7.3777 C   0  0  0  0  0  0  0  0  0  0  0  0
   17.7693  -24.4259   -6.5470 C   0  0  2  0  0  0  0  0  0  0  0  0
   18.7339  -23.7005   -7.4052 N   0  0  0  0  0  0  0  0  0  0  0  0
   18.5140  -25.0549   -5.4822 C   0  0  0  0  0  0  0  0  0  0  0  0
   19.7466  -25.3544   -5.6814 O   0  0  0  0  0  0  0  0  0  0  0  0
   18.0700  -25.3911   -4.2071 O   0  0  0  0  0  0  0  0  0  0  0  0
  2  1  1  0
  3  2  1  0
  4  3  1  0
  4  5  1  0
  5  6  1  6
  7  5  1  0
  7  8  2  0
 10 11  1  1
 10  9  1  0
 12 10  1  0
 13 12  1  1
 13 14  1  0
 14  7  1  0
 15 13  1  0
 16 15  2  0
 17 18  1  0
 18 19  2  0
 20 18  1  0
 20 21  1  0
 22 21  1  6
 22 23  1  0
 23 15  1  0
 24 22  1  0
 25 24  2  0
 26 24  1  0
M  END
$$$$
