MLQ.pdb
     RDKit          3D

 26 25  0  0  1  0  0  0  0  0999 V2000
   16.3110   -9.9489  -20.5719 C   0  0  0  0  0  0  0  0  0  0  0  0
   17.2692  -11.4447  -20.8553 S   0  0  0  0  0  0  0  0  0  0  0  0
   17.9597  -12.1811  -19.3919 C   0  0  0  0  0  0  0  0  0  0  0  0
   18.3380  -11.1923  -18.3396 C   0  0  0  0  0  0  0  0  0  0  0  0
   18.9674  -11.7474  -17.1173 C   0  0  2  0  0  0  0  0  0  0  0  0
   18.2193  -12.8025  -16.4973 N   0  0  0  0  0  0  0  0  0  0  0  0
   19.1691  -10.6374  -16.1245 C   0  0  0  0  0  0  0  0  0  0  0  0
   18.1447  -10.3291  -15.4354 O   0  0  0  0  0  0  0  0  0  0  0  0
   23.4163   -9.8347  -12.6313 C   0  0  0  0  0  0  0  0  0  0  0  0
   21.9680   -9.7946  -13.1243 C   0  0  1  0  0  0  0  0  0  0  0  0
   21.0496   -9.4586  -12.0072 C   0  0  0  0  0  0  0  0  0  0  0  0
   21.8783   -8.9638  -14.3445 C   0  0  0  0  0  0  0  0  0  0  0  0
   20.5627   -8.8888  -15.0230 C   0  0  2  0  0  0  0  0  0  0  0  0
   20.4086   -9.9722  -15.9530 N   0  0  0  0  0  0  0  0  0  0  0  0
   20.4201   -7.6021  -15.8118 C   0  0  0  0  0  0  0  0  0  0  0  0
   20.9905   -7.4175  -16.9130 O   0  0  0  0  0  0  0  0  0  0  0  0
   16.2252   -4.1026  -19.6815 N   0  0  0  0  0  0  0  0  0  0  0  0
   17.2219   -5.0004  -19.2473 C   0  0  0  0  0  0  0  0  0  0  0  0
   17.2397   -6.1860  -19.7022 O   0  0  0  0  0  0  0  0  0  0  0  0
   18.2633   -4.6187  -18.2814 C   0  0  0  0  0  0  0  0  0  0  0  0
   18.6388   -5.7520  -17.3964 C   0  0  0  0  0  0  0  0  0  0  0  0
   19.3466   -5.3510  -16.1705 C   0  0  2  0  0  0  0  0  0  0  0  0
   19.6222   -6.5373  -15.3278 N   0  0  0  0  0  0  0  0  0  0  0  0
   18.8527   -4.3039  -15.3082 C   0  0  0  0  0  0  0  0  0  0  0  0
   18.2401   -4.6287  -14.2275 O   0  0  0  0  0  0  0  0  0  0  0  0
   18.9578   -2.9274  -15.4830 O   0  0  0  0  0  0  0  0  0  0  0  0
  2  1  1  0
  3  2  1  0
  4  3  1  0
  4  5  1  0
  5  6  1  1
  7  5  1  0
  7  8  2  0
 10 11  1  1
 10  9  1  0
 12 10  1  0
 13 12  1  6
 13 14  1  0
 14  7  1  0
 15 13  1  0
 16 15  2  0
 17 18  1  0
 18 19  2  0
 20 18  1  0
 20 21  1  0
 22 21  1  6
 22 23  1  0
 23 15  1  0
 24 22  1  0
 25 24  2  0
 26 24  1  0
M  END
$$$$
