MLQ.pdb
     RDKit          3D

 26 25  0  0  1  0  0  0  0  0999 V2000
   25.4600  -19.5298  -19.4857 C   0  0  0  0  0  0  0  0  0  0  0  0
   27.2097  -19.9379  -19.5721 S   0  0  0  0  0  0  0  0  0  0  0  0
   27.8067  -20.9631  -18.2480 C   0  0  0  0  0  0  0  0  0  0  0  0
   26.7969  -21.2159  -17.1782 C   0  0  0  0  0  0  0  0  0  0  0  0
   27.2882  -21.9190  -15.9688 C   0  0  2  0  0  0  0  0  0  0  0  0
   27.7724  -23.2464  -16.2156 N   0  0  0  0  0  0  0  0  0  0  0  0
   26.1805  -21.9794  -14.9550 C   0  0  0  0  0  0  0  0  0  0  0  0
   25.3627  -22.9438  -15.0974 O   0  0  0  0  0  0  0  0  0  0  0  0
   26.2456  -20.1550   -9.4360 C   0  0  0  0  0  0  0  0  0  0  0  0
   25.9324  -21.1159  -10.5853 C   0  0  1  0  0  0  0  0  0  0  0  0
   25.1878  -22.2984  -10.0838 C   0  0  0  0  0  0  0  0  0  0  0  0
   25.3323  -20.3689  -11.7119 C   0  0  0  0  0  0  0  0  0  0  0  0
   24.9912  -21.1355  -12.9335 C   0  0  2  0  0  0  0  0  0  0  0  0
   26.0440  -21.0373  -13.9052 N   0  0  0  0  0  0  0  0  0  0  0  0
   23.7317  -20.6020  -13.5872 C   0  0  0  0  0  0  0  0  0  0  0  0
   23.6923  -19.4959  -14.1763 O   0  0  0  0  0  0  0  0  0  0  0  0
   21.0380  -23.1590  -17.9598 N   0  0  0  0  0  0  0  0  0  0  0  0
   20.0283  -22.2284  -17.6399 C   0  0  0  0  0  0  0  0  0  0  0  0
   19.0345  -22.0885  -18.4181 O   0  0  0  0  0  0  0  0  0  0  0  0
   20.0701  -21.4038  -16.4227 C   0  0  0  0  0  0  0  0  0  0  0  0
   21.2774  -21.6876  -15.6038 C   0  0  0  0  0  0  0  0  0  0  0  0
   21.3519  -20.9179  -14.3522 C   0  0  2  0  0  0  0  0  0  0  0  0
   22.5268  -21.3450  -13.5582 N   0  0  0  0  0  0  0  0  0  0  0  0
   20.2287  -20.8083  -13.4520 C   0  0  0  0  0  0  0  0  0  0  0  0
   20.3151  -21.3392  -12.2861 O   0  0  0  0  0  0  0  0  0  0  0  0
   19.0111  -20.1719  -13.6728 O   0  0  0  0  0  0  0  0  0  0  0  0
  2  1  1  0
  3  2  1  0
  4  3  1  0
  4  5  1  0
  5  6  1  6
  7  5  1  0
  7  8  2  0
 10 11  1  1
 10  9  1  0
 12 10  1  0
 13 12  1  1
 13 14  1  0
 14  7  1  0
 15 13  1  0
 16 15  2  0
 17 18  1  0
 18 19  2  0
 20 18  1  0
 20 21  1  0
 22 21  1  6
 22 23  1  0
 23 15  1  0
 24 22  1  0
 25 24  2  0
 26 24  1  0
M  END
$$$$
