MLQ.pdb
     RDKit          3D

 26 25  0  0  1  0  0  0  0  0999 V2000
   24.6927  -18.1216  -17.6047 C   0  0  0  0  0  0  0  0  0  0  0  0
   26.1784  -17.6275  -18.4903 S   0  0  0  0  0  0  0  0  0  0  0  0
   27.5652  -18.7231  -18.2979 C   0  0  0  0  0  0  0  0  0  0  0  0
   27.5436  -19.5066  -17.0274 C   0  0  0  0  0  0  0  0  0  0  0  0
   28.7262  -20.3623  -16.7671 C   0  0  2  0  0  0  0  0  0  0  0  0
   28.9190  -21.4083  -17.7294 N   0  0  0  0  0  0  0  0  0  0  0  0
   28.5979  -20.9695  -15.3984 C   0  0  0  0  0  0  0  0  0  0  0  0
   27.9130  -22.0402  -15.3387 O   0  0  0  0  0  0  0  0  0  0  0  0
   30.0575  -22.7169  -10.6790 C   0  0  0  0  0  0  0  0  0  0  0  0
   30.2114  -21.1944  -10.7065 C   0  0  1  0  0  0  0  0  0  0  0  0
   31.3278  -20.7705   -9.8244 C   0  0  0  0  0  0  0  0  0  0  0  0
   30.2410  -20.7203  -12.1071 C   0  0  0  0  0  0  0  0  0  0  0  0
   29.0543  -21.0044  -12.9482 C   0  0  2  0  0  0  0  0  0  0  0  0
   29.1952  -20.4032  -14.2448 N   0  0  0  0  0  0  0  0  0  0  0  0
   27.7907  -20.4385  -12.3307 C   0  0  0  0  0  0  0  0  0  0  0  0
   27.4968  -19.2210  -12.3884 O   0  0  0  0  0  0  0  0  0  0  0  0
   22.8046  -22.9818  -13.6119 N   0  0  0  0  0  0  0  0  0  0  0  0
   22.3123  -21.8388  -12.9492 C   0  0  0  0  0  0  0  0  0  0  0  0
   21.0588  -21.6742  -12.8292 O   0  0  0  0  0  0  0  0  0  0  0  0
   23.1985  -20.8150  -12.3748 C   0  0  0  0  0  0  0  0  0  0  0  0
   24.6326  -21.1591  -12.5583 C   0  0  0  0  0  0  0  0  0  0  0  0
   25.4828  -20.8372  -11.4015 C   0  0  2  0  0  0  0  0  0  0  0  0
   26.8746  -21.2775  -11.6514 N   0  0  0  0  0  0  0  0  0  0  0  0
   25.1309  -21.2320  -10.0583 C   0  0  0  0  0  0  0  0  0  0  0  0
   25.7500  -22.2200   -9.5207 O   0  0  0  0  0  0  0  0  0  0  0  0
   24.1782  -20.6631   -9.2187 O   0  0  0  0  0  0  0  0  0  0  0  0
  2  1  1  0
  3  2  1  0
  4  3  1  0
  4  5  1  0
  5  6  1  6
  7  5  1  0
  7  8  2  0
 10 11  1  6
 10  9  1  0
 12 10  1  0
 13 12  1  1
 13 14  1  0
 14  7  1  0
 15 13  1  0
 16 15  2  0
 17 18  1  0
 18 19  2  0
 20 18  1  0
 20 21  1  0
 22 21  1  6
 22 23  1  0
 23 15  1  0
 24 22  1  0
 25 24  2  0
 26 24  1  0
M  END
$$$$
