MLQ.pdb
     RDKit          3D

 26 25  0  0  1  0  0  0  0  0999 V2000
   12.9152  -23.1650    4.4361 C   0  0  0  0  0  0  0  0  0  0  0  0
   11.9976  -22.1404    3.2767 S   0  0  0  0  0  0  0  0  0  0  0  0
   13.0017  -21.1771    2.1702 C   0  0  0  0  0  0  0  0  0  0  0  0
   14.1235  -20.4587    2.8439 C   0  0  0  0  0  0  0  0  0  0  0  0
   15.0436  -19.7063    1.9574 C   0  0  2  0  0  0  0  0  0  0  0  0
   15.7111  -20.5154    0.9792 N   0  0  0  0  0  0  0  0  0  0  0  0
   16.0710  -19.0059    2.8014 C   0  0  0  0  0  0  0  0  0  0  0  0
   17.1324  -19.6691    3.0312 O   0  0  0  0  0  0  0  0  0  0  0  0
   17.3580  -13.6517    2.4854 C   0  0  0  0  0  0  0  0  0  0  0  0
   17.5814  -15.1545    2.6698 C   0  0  1  0  0  0  0  0  0  0  0  0
   19.0197  -15.4876    2.5124 C   0  0  0  0  0  0  0  0  0  0  0  0
   16.9151  -15.6106    3.9088 C   0  0  0  0  0  0  0  0  0  0  0  0
   16.8641  -17.0708    4.1576 C   0  0  2  0  0  0  0  0  0  0  0  0
   15.8873  -17.6963    3.3109 N   0  0  0  0  0  0  0  0  0  0  0  0
   16.4705  -17.3740    5.5898 C   0  0  0  0  0  0  0  0  0  0  0  0
   15.3567  -17.8619    5.8960 O   0  0  0  0  0  0  0  0  0  0  0  0
   16.6855  -21.9479    7.6918 N   0  0  0  0  0  0  0  0  0  0  0  0
   16.6349  -21.3405    8.9632 C   0  0  0  0  0  0  0  0  0  0  0  0
   16.4633  -22.0596    9.9958 O   0  0  0  0  0  0  0  0  0  0  0  0
   16.7813  -19.8892    9.1522 C   0  0  0  0  0  0  0  0  0  0  0  0
   16.9689  -19.1795    7.8600 C   0  0  0  0  0  0  0  0  0  0  0  0
   17.1477  -17.7250    7.9913 C   0  0  2  0  0  0  0  0  0  0  0  0
   17.3611  -17.1138    6.6593 N   0  0  0  0  0  0  0  0  0  0  0  0
   18.1120  -17.1503    8.8988 C   0  0  0  0  0  0  0  0  0  0  0  0
   19.1435  -16.5592    8.4138 O   0  0  0  0  0  0  0  0  0  0  0  0
   18.0785  -17.1357   10.2898 O   0  0  0  0  0  0  0  0  0  0  0  0
  2  1  1  0
  3  2  1  0
  4  3  1  0
  4  5  1  0
  5  6  1  6
  7  5  1  0
  7  8  2  0
 10 11  1  1
 10  9  1  0
 12 10  1  0
 13 12  1  1
 13 14  1  0
 14  7  1  0
 15 13  1  0
 16 15  2  0
 17 18  1  0
 18 19  2  0
 20 18  1  0
 20 21  1  0
 22 21  1  6
 22 23  1  0
 23 15  1  0
 24 22  1  0
 25 24  2  0
 26 24  1  0
M  END
$$$$
