MLQ.pdb
     RDKit          3D

 26 25  0  0  1  0  0  0  0  0999 V2000
   16.3747  -21.0454  -13.1245 C   0  0  0  0  0  0  0  0  0  0  0  0
   17.1645  -22.5536  -12.5438 S   0  0  0  0  0  0  0  0  0  0  0  0
   18.7659  -22.8788  -13.2440 C   0  0  0  0  0  0  0  0  0  0  0  0
   19.6298  -21.6672  -13.3632 C   0  0  0  0  0  0  0  0  0  0  0  0
   20.7439  -21.7522  -14.3379 C   0  0  2  0  0  0  0  0  0  0  0  0
   21.2182  -23.0850  -14.5748 N   0  0  0  0  0  0  0  0  0  0  0  0
   21.8841  -20.9026  -13.8517 C   0  0  0  0  0  0  0  0  0  0  0  0
   21.6042  -19.6779  -13.6494 O   0  0  0  0  0  0  0  0  0  0  0  0
   25.1056  -21.9041   -9.7165 C   0  0  0  0  0  0  0  0  0  0  0  0
   24.2448  -21.2094  -10.7741 C   0  0  1  0  0  0  0  0  0  0  0  0
   23.6992  -19.9350  -10.2427 C   0  0  0  0  0  0  0  0  0  0  0  0
   24.9813  -21.1457  -12.0551 C   0  0  0  0  0  0  0  0  0  0  0  0
   24.2723  -20.5678  -13.2212 C   0  0  2  0  0  0  0  0  0  0  0  0
   23.1859  -21.4152  -13.6260 N   0  0  0  0  0  0  0  0  0  0  0  0
   25.1954  -20.4274  -14.4154 C   0  0  0  0  0  0  0  0  0  0  0  0
   26.4420  -20.3550  -14.3015 O   0  0  0  0  0  0  0  0  0  0  0  0
   26.1024  -25.1483  -15.5126 N   0  0  0  0  0  0  0  0  0  0  0  0
   26.3890  -24.7906  -16.8459 C   0  0  0  0  0  0  0  0  0  0  0  0
   26.8993  -25.6493  -17.6301 O   0  0  0  0  0  0  0  0  0  0  0  0
   26.1130  -23.4487  -17.3811 C   0  0  0  0  0  0  0  0  0  0  0  0
   25.5698  -22.5388  -16.3392 C   0  0  0  0  0  0  0  0  0  0  0  0
   25.2771  -21.1791  -16.8189 C   0  0  2  0  0  0  0  0  0  0  0  0
   24.6776  -20.3713  -15.7320 N   0  0  0  0  0  0  0  0  0  0  0  0
   24.5123  -20.9382  -18.0194 C   0  0  0  0  0  0  0  0  0  0  0  0
   23.2356  -21.0682  -17.9771 O   0  0  0  0  0  0  0  0  0  0  0  0
   24.9808  -20.5582  -19.2733 O   0  0  0  0  0  0  0  0  0  0  0  0
  2  1  1  0
  3  2  1  0
  4  3  1  0
  4  5  1  0
  5  6  1  1
  7  5  1  0
  7  8  2  0
 10 11  1  1
 10  9  1  0
 12 10  1  0
 13 12  1  1
 13 14  1  0
 14  7  1  0
 15 13  1  0
 16 15  2  0
 17 18  1  0
 18 19  2  0
 20 18  1  0
 20 21  1  0
 22 21  1  1
 22 23  1  0
 23 15  1  0
 24 22  1  0
 25 24  2  0
 26 24  1  0
M  END
$$$$
