MLQ.pdb
     RDKit          3D

 26 25  0  0  1  0  0  0  0  0999 V2000
   14.2951  -12.5924  -20.3387 C   0  0  0  0  0  0  0  0  0  0  0  0
   15.4913  -11.7697  -19.2765 S   0  0  0  0  0  0  0  0  0  0  0  0
   16.8284  -12.7986  -18.7159 C   0  0  0  0  0  0  0  0  0  0  0  0
   17.7699  -12.1101  -17.7842 C   0  0  0  0  0  0  0  0  0  0  0  0
   18.9201  -12.9141  -17.3054 C   0  0  2  0  0  0  0  0  0  0  0  0
   18.5512  -14.1005  -16.5888 N   0  0  0  0  0  0  0  0  0  0  0  0
   19.7836  -12.0552  -16.4250 C   0  0  0  0  0  0  0  0  0  0  0  0
   19.3123  -11.8128  -15.2681 O   0  0  0  0  0  0  0  0  0  0  0  0
   23.8080  -10.3697  -13.7368 C   0  0  0  0  0  0  0  0  0  0  0  0
   24.2331  -10.3956  -15.2068 C   0  0  1  0  0  0  0  0  0  0  0  0
   25.6628  -10.7775  -15.3261 C   0  0  0  0  0  0  0  0  0  0  0  0
   23.2576  -11.1790  -15.9954 C   0  0  0  0  0  0  0  0  0  0  0  0
   21.8456  -10.7294  -15.9741 C   0  0  2  0  0  0  0  0  0  0  0  0
   21.0396  -11.5455  -16.8382 N   0  0  0  0  0  0  0  0  0  0  0  0
   21.7132   -9.3001  -16.4616 C   0  0  0  0  0  0  0  0  0  0  0  0
   22.0227   -8.9515  -17.6256 O   0  0  0  0  0  0  0  0  0  0  0  0
   17.4924   -5.4027  -15.0207 N   0  0  0  0  0  0  0  0  0  0  0  0
   18.2443   -4.6198  -15.9205 C   0  0  0  0  0  0  0  0  0  0  0  0
   17.9300   -3.4038  -16.1085 O   0  0  0  0  0  0  0  0  0  0  0  0
   19.3994   -5.1536  -16.6583 C   0  0  0  0  0  0  0  0  0  0  0  0
   19.6621   -6.5767  -16.3197 C   0  0  0  0  0  0  0  0  0  0  0  0
   21.0810   -6.8896  -16.0890 C   0  0  2  0  0  0  0  0  0  0  0  0
   21.2257   -8.2823  -15.6065 N   0  0  0  0  0  0  0  0  0  0  0  0
   21.9279   -6.0514  -15.2741 C   0  0  0  0  0  0  0  0  0  0  0  0
   22.6251   -5.1356  -15.8432 O   0  0  0  0  0  0  0  0  0  0  0  0
   22.0989   -6.0886  -13.8936 O   0  0  0  0  0  0  0  0  0  0  0  0
  2  1  1  0
  3  2  1  0
  4  3  1  0
  4  5  1  0
  5  6  1  1
  7  5  1  0
  7  8  2  0
 10 11  1  1
 10  9  1  0
 12 10  1  0
 13 12  1  6
 13 14  1  0
 14  7  1  0
 15 13  1  0
 16 15  2  0
 17 18  1  0
 18 19  2  0
 20 18  1  0
 20 21  1  0
 22 21  1  1
 22 23  1  0
 23 15  1  0
 24 22  1  0
 25 24  2  0
 26 24  1  0
M  END
$$$$
