LAW.pdb
     RDKit          3D

 28 29  0  0  1  0  0  0  0  0999 V2000
   16.7678  -16.0077  -17.3070 C   0  0  0  0  0  0  0  0  0  0  0  0
   18.1014  -16.1515  -18.0542 C   0  0  2  0  0  0  0  0  0  0  0  0
   18.5696  -17.5584  -17.8310 C   0  0  0  0  0  0  0  0  0  0  0  0
   19.0733  -15.1059  -17.5582 C   0  0  0  0  0  0  0  0  0  0  0  0
   18.4944  -13.7485  -17.7750 C   0  0  2  0  0  0  0  0  0  0  0  0
   18.1662  -13.5912  -19.1625 N   0  0  0  0  0  0  0  0  0  0  0  0
   19.3219  -12.6503  -17.2433 C   0  0  0  0  0  0  0  0  0  0  0  0
   19.7845  -12.7111  -16.0757 O   0  0  0  0  0  0  0  0  0  0  0  0
   20.8968   -9.4655  -18.5332 C   0  0  0  0  0  0  0  0  0  0  0  0
   20.5033  -10.4350  -17.4556 C   0  0  2  0  0  0  0  0  0  0  0  0
   19.6508  -11.4744  -17.9860 N   0  0  0  0  0  0  0  0  0  0  0  0
   19.8311   -9.6769  -16.3634 C   0  0  0  0  0  0  0  0  0  0  0  0
   18.5596   -9.5242  -16.3455 O   0  0  0  0  0  0  0  0  0  0  0  0
   20.5320   -9.0858  -15.2942 N   0  0  0  0  0  0  0  0  0  0  0  0
   19.8402   -8.2618  -14.2881 C   0  0  1  0  0  0  0  0  0  0  0  0
   20.6950   -8.3903  -13.0583 C   0  0  0  0  0  0  0  0  0  0  0  0
   20.3622   -7.5765  -11.9113 C   0  0  0  0  0  0  0  0  0  0  0  0
   19.6288   -8.0071  -10.8214 C   0  0  0  0  0  0  0  0  0  0  0  0
   19.4763   -6.9930   -9.9588 N   0  0  0  0  0  0  0  0  0  0  0  0
   20.0941   -5.9194  -10.4655 C   0  0  0  0  0  0  0  0  0  0  0  0
   20.2713   -4.6260  -10.0088 C   0  0  0  0  0  0  0  0  0  0  0  0
   20.9841   -3.6895  -10.7326 C   0  0  0  0  0  0  0  0  0  0  0  0
   21.5354   -4.0558  -11.9469 C   0  0  0  0  0  0  0  0  0  0  0  0
   21.3744   -5.3166  -12.4146 C   0  0  0  0  0  0  0  0  0  0  0  0
   20.6620   -6.2537  -11.6935 C   0  0  0  0  0  0  0  0  0  0  0  0
   19.7212   -6.8704  -14.7431 C   0  0  0  0  0  0  0  0  0  0  0  0
   18.6329   -6.0693  -14.3715 O   0  0  0  0  0  0  0  0  0  0  0  0
   20.5672   -6.3071  -15.4824 O   0  0  0  0  0  0  0  0  0  0  0  0
  2  3  1  1
  2  1  1  0
  4  2  1  0
  5  4  1  0
  5  6  1  6
  7  5  1  0
  8  7  2  0
 10  9  1  6
 10 12  1  0
 10 11  1  0
 11  7  1  0
 12 13  2  0
 14 15  1  0
 14 12  1  0
 16 17  1  0
 15 16  1  1
 17 18  2  0
 18 19  1  0
 20 19  1  0
 21 20  2  0
 22 21  1  0
 23 24  1  0
 23 22  2  0
 24 25  2  0
 25 17  1  0
 25 20  1  0
 26 27  1  0
 26 15  1  0
 28 26  2  0
M  END
$$$$
