LAW.pdb
     RDKit          3D

 28 29  0  0  1  0  0  0  0  0999 V2000
   28.2724  -22.8711  -16.6007 C   0  0  0  0  0  0  0  0  0  0  0  0
   29.2639  -22.1188  -15.7015 C   0  0  2  0  0  0  0  0  0  0  0  0
   30.4189  -23.0455  -15.4659 C   0  0  0  0  0  0  0  0  0  0  0  0
   28.5670  -21.6878  -14.4316 C   0  0  0  0  0  0  0  0  0  0  0  0
   27.4810  -20.7215  -14.7657 C   0  0  2  0  0  0  0  0  0  0  0  0
   28.0214  -19.6628  -15.5686 N   0  0  0  0  0  0  0  0  0  0  0  0
   26.7253  -20.2386  -13.5955 C   0  0  0  0  0  0  0  0  0  0  0  0
   27.2990  -19.5649  -12.7024 O   0  0  0  0  0  0  0  0  0  0  0  0
   23.1291  -19.8894  -12.5736 C   0  0  0  0  0  0  0  0  0  0  0  0
   24.6004  -19.9384  -12.2753 C   0  0  2  0  0  0  0  0  0  0  0  0
   25.3329  -20.4893  -13.3926 N   0  0  0  0  0  0  0  0  0  0  0  0
   24.8025  -20.7407  -11.0364 C   0  0  0  0  0  0  0  0  0  0  0  0
   24.9069  -22.0164  -11.0804 O   0  0  0  0  0  0  0  0  0  0  0  0
   24.8914  -20.1649   -9.7541 N   0  0  0  0  0  0  0  0  0  0  0  0
   24.8436  -20.9944   -8.5376 C   0  0  1  0  0  0  0  0  0  0  0  0
   25.5647  -20.1733   -7.5055 C   0  0  0  0  0  0  0  0  0  0  0  0
   27.0096  -20.1979   -7.5058 C   0  0  0  0  0  0  0  0  0  0  0  0
   27.7937  -20.6216   -8.5625 C   0  0  0  0  0  0  0  0  0  0  0  0
   29.0861  -20.5464   -8.2162 N   0  0  0  0  0  0  0  0  0  0  0  0
   29.1544  -20.0838   -6.9622 C   0  0  0  0  0  0  0  0  0  0  0  0
   30.2096  -19.7963   -6.1157 C   0  0  0  0  0  0  0  0  0  0  0  0
   30.0071  -19.2980   -4.8430 C   0  0  0  0  0  0  0  0  0  0  0  0
   28.7138  -19.0809   -4.4039 C   0  0  0  0  0  0  0  0  0  0  0  0
   27.6647  -19.3557   -5.2153 C   0  0  0  0  0  0  0  0  0  0  0  0
   27.8646  -19.8542   -6.4869 C   0  0  0  0  0  0  0  0  0  0  0  0
   23.4553  -21.2809   -8.1537 C   0  0  0  0  0  0  0  0  0  0  0  0
   23.1394  -22.3282   -7.2775 O   0  0  0  0  0  0  0  0  0  0  0  0
   22.4694  -20.6233   -8.5723 O   0  0  0  0  0  0  0  0  0  0  0  0
  2  3  1  1
  2  1  1  0
  4  2  1  0
  5  4  1  0
  5  6  1  1
  7  5  1  0
  8  7  2  0
 10  9  1  6
 10 12  1  0
 10 11  1  0
 11  7  1  0
 12 13  2  0
 14 15  1  0
 14 12  1  0
 16 17  1  0
 15 16  1  1
 17 18  2  0
 18 19  1  0
 20 19  1  0
 21 20  2  0
 22 21  1  0
 23 24  1  0
 23 22  2  0
 24 25  2  0
 25 17  1  0
 25 20  1  0
 26 27  1  0
 26 15  1  0
 28 26  2  0
M  END
$$$$
