LAW.pdb
     RDKit          3D

 28 29  0  0  1  0  0  0  0  0999 V2000
   29.5006  -16.8345  -17.3250 C   0  0  0  0  0  0  0  0  0  0  0  0
   28.3796  -15.8679  -16.9169 C   0  0  2  0  0  0  0  0  0  0  0  0
   28.9682  -14.4892  -16.9486 C   0  0  0  0  0  0  0  0  0  0  0  0
   27.8406  -16.2632  -15.5615 C   0  0  0  0  0  0  0  0  0  0  0  0
   27.2345  -17.6234  -15.6466 C   0  0  2  0  0  0  0  0  0  0  0  0
   26.4800  -17.7290  -16.8619 N   0  0  0  0  0  0  0  0  0  0  0  0
   26.4696  -18.0165  -14.4491 C   0  0  0  0  0  0  0  0  0  0  0  0
   25.9957  -17.1403  -13.6818 O   0  0  0  0  0  0  0  0  0  0  0  0
   24.2246  -20.5870  -13.4104 C   0  0  0  0  0  0  0  0  0  0  0  0
   25.3734  -19.7296  -12.9619 C   0  0  2  0  0  0  0  0  0  0  0  0
   26.2162  -19.3739  -14.0806 N   0  0  0  0  0  0  0  0  0  0  0  0
   26.1325  -20.4701  -11.9155 C   0  0  0  0  0  0  0  0  0  0  0  0
   26.9807  -21.3777  -12.2271 O   0  0  0  0  0  0  0  0  0  0  0  0
   25.9744  -20.2296  -10.5368 N   0  0  0  0  0  0  0  0  0  0  0  0
   26.3197  -21.2547   -9.5366 C   0  0  1  0  0  0  0  0  0  0  0  0
   27.5933  -20.7494   -8.9185 C   0  0  0  0  0  0  0  0  0  0  0  0
   27.5289  -20.1976   -7.5844 C   0  0  0  0  0  0  0  0  0  0  0  0
   26.3944  -19.6630   -7.0030 C   0  0  0  0  0  0  0  0  0  0  0  0
   26.6927  -19.2122   -5.7768 N   0  0  0  0  0  0  0  0  0  0  0  0
   27.9917  -19.4439   -5.5531 C   0  0  0  0  0  0  0  0  0  0  0  0
   28.8229  -19.2079   -4.4732 C   0  0  0  0  0  0  0  0  0  0  0  0
   30.1565  -19.5690   -4.4883 C   0  0  0  0  0  0  0  0  0  0  0  0
   30.6740  -20.1833   -5.6141 C   0  0  0  0  0  0  0  0  0  0  0  0
   29.8790  -20.4240   -6.6840 C   0  0  0  0  0  0  0  0  0  0  0  0
   28.5466  -20.0635   -6.6714 C   0  0  0  0  0  0  0  0  0  0  0  0
   25.2421  -21.4076   -8.5504 C   0  0  0  0  0  0  0  0  0  0  0  0
   25.2983  -22.3886   -7.5511 O   0  0  0  0  0  0  0  0  0  0  0  0
   24.2130  -20.6864   -8.5293 O   0  0  0  0  0  0  0  0  0  0  0  0
  2  3  1  1
  2  1  1  0
  4  2  1  0
  5  4  1  0
  5  6  1  6
  7  5  1  0
  8  7  2  0
 10  9  1  6
 10 12  1  0
 10 11  1  0
 11  7  1  0
 12 13  2  0
 14 15  1  0
 14 12  1  0
 16 17  1  0
 15 16  1  1
 17 18  2  0
 18 19  1  0
 20 19  1  0
 21 20  2  0
 22 21  1  0
 23 24  1  0
 23 22  2  0
 24 25  2  0
 25 17  1  0
 25 20  1  0
 26 27  1  0
 26 15  1  0
 28 26  2  0
M  END
$$$$
