LAW.pdb
     RDKit          3D

 28 29  0  0  1  0  0  0  0  0999 V2000
   28.2514  -24.4975  -17.3076 C   0  0  0  0  0  0  0  0  0  0  0  0
   29.2321  -23.3179  -17.3734 C   0  0  2  0  0  0  0  0  0  0  0  0
   30.6110  -23.9064  -17.3993 C   0  0  0  0  0  0  0  0  0  0  0  0
   28.9915  -22.3952  -16.2010 C   0  0  0  0  0  0  0  0  0  0  0  0
   27.6015  -21.8587  -16.2697 C   0  0  2  0  0  0  0  0  0  0  0  0
   27.4147  -21.1904  -17.5250 N   0  0  0  0  0  0  0  0  0  0  0  0
   27.2166  -21.0364  -15.1081 C   0  0  0  0  0  0  0  0  0  0  0  0
   28.0777  -20.3477  -14.5038 O   0  0  0  0  0  0  0  0  0  0  0  0
   24.1342  -19.5262  -13.7207 C   0  0  0  0  0  0  0  0  0  0  0  0
   25.5172  -20.0751  -13.5156 C   0  0  2  0  0  0  0  0  0  0  0  0
   25.8840  -20.9605  -14.5972 N   0  0  0  0  0  0  0  0  0  0  0  0
   25.5567  -20.7705  -12.1987 C   0  0  0  0  0  0  0  0  0  0  0  0
   25.2409  -22.0069  -12.0904 O   0  0  0  0  0  0  0  0  0  0  0  0
   25.9365  -20.1304  -11.0029 N   0  0  0  0  0  0  0  0  0  0  0  0
   25.8823  -20.8321   -9.7087 C   0  0  1  0  0  0  0  0  0  0  0  0
   26.9568  -20.1734   -8.8894 C   0  0  0  0  0  0  0  0  0  0  0  0
   26.9103  -20.3326   -7.4538 C   0  0  0  0  0  0  0  0  0  0  0  0
   25.9939  -21.1124   -6.7733 C   0  0  0  0  0  0  0  0  0  0  0  0
   26.2125  -21.0082   -5.4552 N   0  0  0  0  0  0  0  0  0  0  0  0
   27.2479  -20.1809   -5.2694 C   0  0  0  0  0  0  0  0  0  0  0  0
   27.9079  -19.7293   -4.1411 C   0  0  0  0  0  0  0  0  0  0  0  0
   28.9882  -18.8719   -4.2237 C   0  0  0  0  0  0  0  0  0  0  0  0
   29.4211  -18.4540   -5.4688 C   0  0  0  0  0  0  0  0  0  0  0  0
   28.7898  -18.8827   -6.5879 C   0  0  0  0  0  0  0  0  0  0  0  0
   27.7099  -19.7387   -6.5077 C   0  0  0  0  0  0  0  0  0  0  0  0
   24.5535  -20.7004   -9.0972 C   0  0  0  0  0  0  0  0  0  0  0  0
   24.0523  -21.6712   -8.2194 O   0  0  0  0  0  0  0  0  0  0  0  0
   23.7844  -19.7295   -9.3103 O   0  0  0  0  0  0  0  0  0  0  0  0
  2  3  1  1
  2  1  1  0
  4  2  1  0
  5  4  1  0
  5  6  1  6
  7  5  1  0
  8  7  2  0
 10  9  1  6
 10 12  1  0
 10 11  1  0
 11  7  1  0
 12 13  2  0
 14 15  1  0
 14 12  1  0
 16 17  1  0
 15 16  1  1
 17 18  2  0
 18 19  1  0
 20 19  1  0
 21 20  2  0
 22 21  1  0
 23 24  1  0
 23 22  2  0
 24 25  2  0
 25 17  1  0
 25 20  1  0
 26 27  1  0
 26 15  1  0
 28 26  2  0
M  END
$$$$
