LAW.pdb
     RDKit          3D

 28 29  0  0  1  0  0  0  0  0999 V2000
   28.0446  -15.4599  -16.7162 C   0  0  0  0  0  0  0  0  0  0  0  0
   26.5596  -15.6135  -16.3575 C   0  0  2  0  0  0  0  0  0  0  0  0
   26.1233  -14.3070  -15.7648 C   0  0  0  0  0  0  0  0  0  0  0  0
   26.3848  -16.7885  -15.4233 C   0  0  0  0  0  0  0  0  0  0  0  0
   26.8204  -18.0379  -16.1115 C   0  0  2  0  0  0  0  0  0  0  0  0
   26.0539  -18.2077  -17.3120 N   0  0  0  0  0  0  0  0  0  0  0  0
   26.8213  -19.2317  -15.2464 C   0  0  0  0  0  0  0  0  0  0  0  0
   25.7465  -19.8321  -14.9909 O   0  0  0  0  0  0  0  0  0  0  0  0
   29.3324  -21.1861  -13.1918 C   0  0  0  0  0  0  0  0  0  0  0  0
   27.9514  -20.7260  -13.5617 C   0  0  2  0  0  0  0  0  0  0  0  0
   28.0003  -19.7795  -14.6526 N   0  0  0  0  0  0  0  0  0  0  0  0
   27.3119  -20.1374  -12.3516 C   0  0  0  0  0  0  0  0  0  0  0  0
   27.5702  -18.9394  -11.9798 O   0  0  0  0  0  0  0  0  0  0  0  0
   26.3963  -20.8426  -11.5465 N   0  0  0  0  0  0  0  0  0  0  0  0
   25.9249  -20.2938  -10.2632 C   0  0  1  0  0  0  0  0  0  0  0  0
   24.8185  -19.3531  -10.6511 C   0  0  0  0  0  0  0  0  0  0  0  0
   23.6311  -19.9131  -11.2553 C   0  0  0  0  0  0  0  0  0  0  0  0
   22.6203  -20.5564  -10.5657 C   0  0  0  0  0  0  0  0  0  0  0  0
   21.6903  -20.9806  -11.4323 N   0  0  0  0  0  0  0  0  0  0  0  0
   22.0763  -20.6257  -12.6636 C   0  0  0  0  0  0  0  0  0  0  0  0
   21.5102  -20.7844  -13.9155 C   0  0  0  0  0  0  0  0  0  0  0  0
   22.1179  -20.2965  -15.0564 C   0  0  0  0  0  0  0  0  0  0  0  0
   23.3251  -19.6314  -14.9432 C   0  0  0  0  0  0  0  0  0  0  0  0
   23.8987  -19.4647  -13.7276 C   0  0  0  0  0  0  0  0  0  0  0  0
   23.2938  -19.9518  -12.5865 C   0  0  0  0  0  0  0  0  0  0  0  0
   25.4604  -21.3667   -9.3743 C   0  0  0  0  0  0  0  0  0  0  0  0
   25.0702  -21.1056   -8.0537 O   0  0  0  0  0  0  0  0  0  0  0  0
   25.3796  -22.5714   -9.7235 O   0  0  0  0  0  0  0  0  0  0  0  0
  2  3  1  1
  2  1  1  0
  4  2  1  0
  5  4  1  0
  5  6  1  6
  7  5  1  0
  8  7  2  0
 10  9  1  1
 10 12  1  0
 10 11  1  0
 11  7  1  0
 12 13  2  0
 14 15  1  0
 14 12  1  0
 16 17  1  0
 15 16  1  6
 17 18  2  0
 18 19  1  0
 20 19  1  0
 21 20  2  0
 22 21  1  0
 23 24  1  0
 23 22  2  0
 24 25  2  0
 25 17  1  0
 25 20  1  0
 26 27  1  0
 26 15  1  0
 28 26  2  0
M  END
$$$$
