LAW.pdb
     RDKit          3D

 28 29  0  0  1  0  0  0  0  0999 V2000
   28.8701  -15.8254  -17.4279 C   0  0  0  0  0  0  0  0  0  0  0  0
   27.6482  -14.9936  -17.0124 C   0  0  2  0  0  0  0  0  0  0  0  0
   28.0794  -13.5577  -17.0309 C   0  0  0  0  0  0  0  0  0  0  0  0
   27.1565  -15.4589  -15.6611 C   0  0  0  0  0  0  0  0  0  0  0  0
   26.8772  -16.9231  -15.7126 C   0  0  2  0  0  0  0  0  0  0  0  0
   26.1015  -17.2151  -16.8833 N   0  0  0  0  0  0  0  0  0  0  0  0
   26.2911  -17.4670  -14.4740 C   0  0  0  0  0  0  0  0  0  0  0  0
   26.8257  -17.2305  -13.3608 O   0  0  0  0  0  0  0  0  0  0  0  0
   23.1825  -19.3651  -13.4564 C   0  0  0  0  0  0  0  0  0  0  0  0
   24.5306  -18.7507  -13.2087 C   0  0  2  0  0  0  0  0  0  0  0  0
   25.1131  -18.2757  -14.4430 N   0  0  0  0  0  0  0  0  0  0  0  0
   25.3964  -19.7672  -12.5479 C   0  0  0  0  0  0  0  0  0  0  0  0
   25.9231  -20.7257  -13.2142 O   0  0  0  0  0  0  0  0  0  0  0  0
   25.6913  -19.7467  -11.1707 N   0  0  0  0  0  0  0  0  0  0  0  0
   26.5751  -20.7561  -10.5623 C   0  0  1  0  0  0  0  0  0  0  0  0
   27.3413  -19.9915   -9.5192 C   0  0  0  0  0  0  0  0  0  0  0  0
   26.9248  -20.1182   -8.1412 C   0  0  0  0  0  0  0  0  0  0  0  0
   25.7117  -20.6344   -7.7253 C   0  0  0  0  0  0  0  0  0  0  0  0
   25.6372  -20.5744   -6.3886 N   0  0  0  0  0  0  0  0  0  0  0  0
   26.7730  -20.0330   -5.9325 C   0  0  0  0  0  0  0  0  0  0  0  0
   27.2437  -19.7504   -4.6632 C   0  0  0  0  0  0  0  0  0  0  0  0
   28.4915  -19.1941   -4.4565 C   0  0  0  0  0  0  0  0  0  0  0  0
   29.2913  -18.9124   -5.5490 C   0  0  0  0  0  0  0  0  0  0  0  0
   28.8510  -19.1800   -6.8016 C   0  0  0  0  0  0  0  0  0  0  0  0
   27.6045  -19.7351   -7.0105 C   0  0  0  0  0  0  0  0  0  0  0  0
   25.7928  -21.8574   -9.9858 C   0  0  0  0  0  0  0  0  0  0  0  0
   24.4003  -21.7737   -9.8505 O   0  0  0  0  0  0  0  0  0  0  0  0
   26.3020  -22.9325   -9.5802 O   0  0  0  0  0  0  0  0  0  0  0  0
  2  3  1  1
  2  1  1  0
  4  2  1  0
  5  4  1  0
  5  6  1  6
  7  5  1  0
  8  7  2  0
 10  9  1  6
 10 12  1  0
 10 11  1  0
 11  7  1  0
 12 13  2  0
 14 15  1  0
 14 12  1  0
 16 17  1  0
 15 16  1  1
 17 18  2  0
 18 19  1  0
 20 19  1  0
 21 20  2  0
 22 21  1  0
 23 24  1  0
 23 22  2  0
 24 25  2  0
 25 17  1  0
 25 20  1  0
 26 27  1  0
 26 15  1  0
 28 26  2  0
M  END
$$$$
