LAW.pdb
     RDKit          3D

 28 29  0  0  1  0  0  0  0  0999 V2000
   26.4437  -15.5651  -14.8597 C   0  0  0  0  0  0  0  0  0  0  0  0
   25.2479  -16.5182  -14.7211 C   0  0  2  0  0  0  0  0  0  0  0  0
   24.1490  -15.7364  -14.0657 C   0  0  0  0  0  0  0  0  0  0  0  0
   25.6662  -17.7427  -13.9403 C   0  0  0  0  0  0  0  0  0  0  0  0
   26.7459  -18.4576  -14.6804 C   0  0  2  0  0  0  0  0  0  0  0  0
   26.3774  -18.5687  -16.0622 N   0  0  0  0  0  0  0  0  0  0  0  0
   27.1386  -19.7438  -14.0763 C   0  0  0  0  0  0  0  0  0  0  0  0
   26.5819  -20.8118  -14.4373 O   0  0  0  0  0  0  0  0  0  0  0  0
   29.9699  -21.1363  -12.0896 C   0  0  0  0  0  0  0  0  0  0  0  0
   28.5299  -21.1506  -12.5163 C   0  0  2  0  0  0  0  0  0  0  0  0
   28.1457  -19.8724  -13.0703 N   0  0  0  0  0  0  0  0  0  0  0  0
   27.6937  -21.5124  -11.3376 C   0  0  0  0  0  0  0  0  0  0  0  0
   27.7922  -22.6613  -10.7805 O   0  0  0  0  0  0  0  0  0  0  0  0
   26.7540  -20.6341  -10.7635 N   0  0  0  0  0  0  0  0  0  0  0  0
   25.6618  -21.1332   -9.9102 C   0  0  1  0  0  0  0  0  0  0  0  0
   25.3401  -19.9728   -9.0105 C   0  0  0  0  0  0  0  0  0  0  0  0
   26.3778  -19.4884   -8.1290 C   0  0  0  0  0  0  0  0  0  0  0  0
   27.0020  -18.2601   -8.2411 C   0  0  0  0  0  0  0  0  0  0  0  0
   27.9354  -18.1462   -7.2863 N   0  0  0  0  0  0  0  0  0  0  0  0
   27.9277  -19.2708   -6.5608 C   0  0  0  0  0  0  0  0  0  0  0  0
   28.6524  -19.6926   -5.4610 C   0  0  0  0  0  0  0  0  0  0  0  0
   28.4331  -20.9235   -4.8729 C   0  0  0  0  0  0  0  0  0  0  0  0
   27.4621  -21.7563   -5.3987 C   0  0  0  0  0  0  0  0  0  0  0  0
   26.7404  -21.3647   -6.4758 C   0  0  0  0  0  0  0  0  0  0  0  0
   26.9583  -20.1358   -7.0654 C   0  0  0  0  0  0  0  0  0  0  0  0
   24.5102  -21.5466  -10.7225 C   0  0  0  0  0  0  0  0  0  0  0  0
   23.3976  -20.7116  -10.8936 O   0  0  0  0  0  0  0  0  0  0  0  0
   24.4381  -22.6546  -11.3116 O   0  0  0  0  0  0  0  0  0  0  0  0
  2  3  1  1
  2  1  1  0
  4  2  1  0
  5  4  1  0
  5  6  1  6
  7  5  1  0
  8  7  2  0
 10  9  1  1
 10 12  1  0
 10 11  1  0
 11  7  1  0
 12 13  2  0
 14 15  1  0
 14 12  1  0
 16 17  1  0
 15 16  1  1
 17 18  2  0
 18 19  1  0
 20 19  1  0
 21 20  2  0
 22 21  1  0
 23 24  1  0
 23 22  2  0
 24 25  2  0
 25 17  1  0
 25 20  1  0
 26 27  1  0
 26 15  1  0
 28 26  2  0
M  END
$$$$
