LAW.pdb
     RDKit          3D

 28 29  0  0  1  0  0  0  0  0999 V2000
   13.6051  -21.6969    2.6474 C   0  0  0  0  0  0  0  0  0  0  0  0
   14.1664  -20.5707    1.7676 C   0  0  2  0  0  0  0  0  0  0  0  0
   14.4987  -21.1865    0.4414 C   0  0  0  0  0  0  0  0  0  0  0  0
   15.3549  -19.9383    2.4543 C   0  0  0  0  0  0  0  0  0  0  0  0
   14.9488  -19.4603    3.8075 C   0  0  2  0  0  0  0  0  0  0  0  0
   14.2245  -18.2292    3.6758 N   0  0  0  0  0  0  0  0  0  0  0  0
   16.0580  -19.3837    4.7757 C   0  0  0  0  0  0  0  0  0  0  0  0
   16.7924  -18.3642    4.8213 O   0  0  0  0  0  0  0  0  0  0  0  0
   17.1562  -19.1576    7.6199 C   0  0  0  0  0  0  0  0  0  0  0  0
   17.4305  -20.2973    6.6809 C   0  0  2  0  0  0  0  0  0  0  0  0
   16.3733  -20.4237    5.7039 N   0  0  0  0  0  0  0  0  0  0  0  0
   17.5876  -21.5416    7.4849 C   0  0  0  0  0  0  0  0  0  0  0  0
   16.5919  -22.0701    8.0927 O   0  0  0  0  0  0  0  0  0  0  0  0
   18.8177  -22.2120    7.6308 N   0  0  0  0  0  0  0  0  0  0  0  0
   18.8875  -23.6829    7.6722 C   0  0  1  0  0  0  0  0  0  0  0  0
   19.7639  -24.0412    6.5046 C   0  0  0  0  0  0  0  0  0  0  0  0
   19.1360  -24.2321    5.2171 C   0  0  0  0  0  0  0  0  0  0  0  0
   17.8209  -23.9226    4.9243 C   0  0  0  0  0  0  0  0  0  0  0  0
   17.5574  -24.2562    3.6534 N   0  0  0  0  0  0  0  0  0  0  0  0
   18.6708  -24.7724    3.1194 C   0  0  0  0  0  0  0  0  0  0  0  0
   18.9796  -25.2600    1.8626 C   0  0  0  0  0  0  0  0  0  0  0  0
   20.2416  -25.7304    1.5541 C   0  0  0  0  0  0  0  0  0  0  0  0
   21.2224  -25.7131    2.5288 C   0  0  0  0  0  0  0  0  0  0  0  0
   20.9429  -25.2407    3.7670 C   0  0  0  0  0  0  0  0  0  0  0  0
   19.6827  -24.7709    4.0778 C   0  0  0  0  0  0  0  0  0  0  0  0
   19.4434  -24.1447    8.9507 C   0  0  0  0  0  0  0  0  0  0  0  0
   19.8197  -23.2415    9.9542 O   0  0  0  0  0  0  0  0  0  0  0  0
   19.6190  -25.3565    9.2341 O   0  0  0  0  0  0  0  0  0  0  0  0
  2  3  1  6
  2  1  1  0
  4  2  1  0
  5  4  1  0
  5  6  1  6
  7  5  1  0
  8  7  2  0
 10  9  1  1
 10 12  1  0
 10 11  1  0
 11  7  1  0
 12 13  2  0
 14 15  1  0
 14 12  1  0
 16 17  1  0
 15 16  1  6
 17 18  2  0
 18 19  1  0
 20 19  1  0
 21 20  2  0
 22 21  1  0
 23 24  1  0
 23 22  2  0
 24 25  2  0
 25 17  1  0
 25 20  1  0
 26 27  1  0
 26 15  1  0
 28 26  2  0
M  END
$$$$
