LAW.pdb
     RDKit          3D

 28 29  0  0  1  0  0  0  0  0999 V2000
   29.2788  -19.9052  -15.6389 C   0  0  0  0  0  0  0  0  0  0  0  0
   28.3584  -18.6771  -15.5937 C   0  0  2  0  0  0  0  0  0  0  0  0
   29.1724  -17.5121  -16.0719 C   0  0  0  0  0  0  0  0  0  0  0  0
   27.8186  -18.5020  -14.1931 C   0  0  0  0  0  0  0  0  0  0  0  0
   26.9533  -19.6662  -13.8462 C   0  0  2  0  0  0  0  0  0  0  0  0
   26.1641  -20.0251  -14.9890 N   0  0  0  0  0  0  0  0  0  0  0  0
   26.1542  -19.4775  -12.6217 C   0  0  0  0  0  0  0  0  0  0  0  0
   26.5020  -18.6303  -11.7603 O   0  0  0  0  0  0  0  0  0  0  0  0
   22.7336  -20.2912  -11.3811 C   0  0  0  0  0  0  0  0  0  0  0  0
   24.1834  -19.9847  -11.1362 C   0  0  2  0  0  0  0  0  0  0  0  0
   24.9659  -20.2155  -12.3290 N   0  0  0  0  0  0  0  0  0  0  0  0
   24.6556  -20.8228   -9.9985 C   0  0  0  0  0  0  0  0  0  0  0  0
   25.1075  -22.0061  -10.1876 O   0  0  0  0  0  0  0  0  0  0  0  0
   24.6387  -20.3822   -8.6608 N   0  0  0  0  0  0  0  0  0  0  0  0
   24.8919  -21.3112   -7.5459 C   0  0  1  0  0  0  0  0  0  0  0  0
   25.2519  -20.4134   -6.3953 C   0  0  0  0  0  0  0  0  0  0  0  0
   26.5303  -19.7405   -6.4326 C   0  0  0  0  0  0  0  0  0  0  0  0
   26.9010  -18.7972   -7.3727 C   0  0  0  0  0  0  0  0  0  0  0  0
   28.1598  -18.4033   -7.1357 N   0  0  0  0  0  0  0  0  0  0  0  0
   28.6094  -19.0690   -6.0653 C   0  0  0  0  0  0  0  0  0  0  0  0
   29.8077  -19.0525   -5.3751 C   0  0  0  0  0  0  0  0  0  0  0  0
   30.0176  -19.8430   -4.2615 C   0  0  0  0  0  0  0  0  0  0  0  0
   29.0013  -20.6734   -3.8254 C   0  0  0  0  0  0  0  0  0  0  0  0
   27.8193  -20.7068   -4.4859 C   0  0  0  0  0  0  0  0  0  0  0  0
   27.6077  -19.9184   -5.5990 C   0  0  0  0  0  0  0  0  0  0  0  0
   23.7045  -22.1292   -7.2663 C   0  0  0  0  0  0  0  0  0  0  0  0
   23.7911  -23.3157   -6.5253 O   0  0  0  0  0  0  0  0  0  0  0  0
   22.5487  -21.8329   -7.6612 O   0  0  0  0  0  0  0  0  0  0  0  0
  2  3  1  1
  2  1  1  0
  4  2  1  0
  5  4  1  0
  5  6  1  6
  7  5  1  0
  8  7  2  0
 10  9  1  6
 10 12  1  0
 10 11  1  0
 11  7  1  0
 12 13  2  0
 14 15  1  0
 14 12  1  0
 16 17  1  0
 15 16  1  1
 17 18  2  0
 18 19  1  0
 20 19  1  0
 21 20  2  0
 22 21  1  0
 23 24  1  0
 23 22  2  0
 24 25  2  0
 25 17  1  0
 25 20  1  0
 26 27  1  0
 26 15  1  0
 28 26  2  0
M  END
$$$$
