LAW.pdb
     RDKit          3D

 28 29  0  0  1  0  0  0  0  0999 V2000
   29.6985  -17.8512  -17.5025 C   0  0  0  0  0  0  0  0  0  0  0  0
   28.7448  -16.7516  -17.0138 C   0  0  2  0  0  0  0  0  0  0  0  0
   29.3777  -15.4415  -17.3765 C   0  0  0  0  0  0  0  0  0  0  0  0
   28.5031  -16.9152  -15.5310 C   0  0  0  0  0  0  0  0  0  0  0  0
   27.8835  -18.2473  -15.2738 C   0  0  2  0  0  0  0  0  0  0  0  0
   27.1172  -18.6411  -16.4207 N   0  0  0  0  0  0  0  0  0  0  0  0
   27.1256  -18.3240  -14.0116 C   0  0  0  0  0  0  0  0  0  0  0  0
   27.6675  -17.9999  -12.9243 O   0  0  0  0  0  0  0  0  0  0  0  0
   23.5911  -19.0650  -12.8979 C   0  0  0  0  0  0  0  0  0  0  0  0
   25.0624  -18.8661  -12.6708 C   0  0  2  0  0  0  0  0  0  0  0  0
   25.7661  -18.7567  -13.9283 N   0  0  0  0  0  0  0  0  0  0  0  0
   25.5703  -20.0039  -11.8541 C   0  0  0  0  0  0  0  0  0  0  0  0
   25.9882  -21.0823  -12.4041 O   0  0  0  0  0  0  0  0  0  0  0  0
   25.6257  -19.9751  -10.4470 N   0  0  0  0  0  0  0  0  0  0  0  0
   25.9319  -21.1875   -9.6682 C   0  0  1  0  0  0  0  0  0  0  0  0
   27.1455  -20.8105   -8.8652 C   0  0  0  0  0  0  0  0  0  0  0  0
   26.9662  -20.5114   -7.4627 C   0  0  0  0  0  0  0  0  0  0  0  0
   25.8039  -20.7343   -6.7482 C   0  0  0  0  0  0  0  0  0  0  0  0
   25.9690  -20.3128   -5.4869 N   0  0  0  0  0  0  0  0  0  0  0  0
   27.2095  -19.8242   -5.3705 C   0  0  0  0  0  0  0  0  0  0  0  0
   27.9170  -19.2796   -4.3144 C   0  0  0  0  0  0  0  0  0  0  0  0
   29.2252  -18.8577   -4.4548 C   0  0  0  0  0  0  0  0  0  0  0  0
   29.8437  -18.9836   -5.6853 C   0  0  0  0  0  0  0  0  0  0  0  0
   29.1704  -19.5134   -6.7343 C   0  0  0  0  0  0  0  0  0  0  0  0
   27.8632  -19.9350   -6.5964 C   0  0  0  0  0  0  0  0  0  0  0  0
   24.7948  -21.5650   -8.8187 C   0  0  0  0  0  0  0  0  0  0  0  0
   23.6785  -20.7296   -8.6762 O   0  0  0  0  0  0  0  0  0  0  0  0
   24.7390  -22.6408   -8.1713 O   0  0  0  0  0  0  0  0  0  0  0  0
  2  3  1  1
  2  1  1  0
  4  2  1  0
  5  4  1  0
  5  6  1  6
  7  5  1  0
  8  7  2  0
 10  9  1  6
 10 12  1  0
 10 11  1  0
 11  7  1  0
 12 13  2  0
 14 15  1  0
 14 12  1  0
 16 17  1  0
 15 16  1  1
 17 18  2  0
 18 19  1  0
 20 19  1  0
 21 20  2  0
 22 21  1  0
 23 24  1  0
 23 22  2  0
 24 25  2  0
 25 17  1  0
 25 20  1  0
 26 27  1  0
 26 15  1  0
 28 26  2  0
M  END
$$$$
