LAW.pdb
     RDKit          3D

 28 29  0  0  1  0  0  0  0  0999 V2000
   19.9113  -13.6417  -15.5870 C   0  0  0  0  0  0  0  0  0  0  0  0
   19.3448  -13.2044  -16.9454 C   0  0  2  0  0  0  0  0  0  0  0  0
   20.4909  -13.2142  -17.9122 C   0  0  0  0  0  0  0  0  0  0  0  0
   18.6847  -11.8522  -16.8054 C   0  0  0  0  0  0  0  0  0  0  0  0
   17.5511  -11.9515  -15.8412 C   0  0  2  0  0  0  0  0  0  0  0  0
   16.6437  -12.9710  -16.2825 N   0  0  0  0  0  0  0  0  0  0  0  0
   16.8894  -10.6650  -15.5569 C   0  0  0  0  0  0  0  0  0  0  0  0
   16.1001  -10.1578  -16.3939 O   0  0  0  0  0  0  0  0  0  0  0  0
   16.1439   -8.4975  -12.6285 C   0  0  0  0  0  0  0  0  0  0  0  0
   16.4146   -8.6679  -14.0960 C   0  0  2  0  0  0  0  0  0  0  0  0
   17.0861   -9.9217  -14.3522 N   0  0  0  0  0  0  0  0  0  0  0  0
   17.2222   -7.5065  -14.5633 C   0  0  0  0  0  0  0  0  0  0  0  0
   18.4958   -7.4858  -14.4296 O   0  0  0  0  0  0  0  0  0  0  0  0
   16.6539   -6.3711  -15.1730 N   0  0  0  0  0  0  0  0  0  0  0  0
   17.4913   -5.2504  -15.6345 C   0  0  1  0  0  0  0  0  0  0  0  0
   17.2008   -5.1576  -17.1064 C   0  0  0  0  0  0  0  0  0  0  0  0
   17.5569   -6.2820  -17.9415 C   0  0  0  0  0  0  0  0  0  0  0  0
   18.8504   -6.6754  -18.2300 C   0  0  0  0  0  0  0  0  0  0  0  0
   18.8212   -7.7292  -19.0572 N   0  0  0  0  0  0  0  0  0  0  0  0
   17.5405   -8.0255  -19.3085 C   0  0  0  0  0  0  0  0  0  0  0  0
   16.9271   -9.0060  -20.0668 C   0  0  0  0  0  0  0  0  0  0  0  0
   15.5517   -9.1099  -20.1477 C   0  0  0  0  0  0  0  0  0  0  0  0
   14.7672   -8.2086  -19.4513 C   0  0  0  0  0  0  0  0  0  0  0  0
   15.3458   -7.2395  -18.7026 C   0  0  0  0  0  0  0  0  0  0  0  0
   16.7197   -7.1334  -18.6208 C   0  0  0  0  0  0  0  0  0  0  0  0
   17.1515   -4.0138  -14.9187 C   0  0  0  0  0  0  0  0  0  0  0  0
   18.0073   -2.9039  -14.9279 O   0  0  0  0  0  0  0  0  0  0  0  0
   16.0920   -3.8618  -14.2599 O   0  0  0  0  0  0  0  0  0  0  0  0
  2  3  1  6
  2  1  1  0
  4  2  1  0
  5  4  1  0
  5  6  1  6
  7  5  1  0
  8  7  2  0
 10  9  1  1
 10 12  1  0
 10 11  1  0
 11  7  1  0
 12 13  2  0
 14 15  1  0
 14 12  1  0
 16 17  1  0
 15 16  1  6
 17 18  2  0
 18 19  1  0
 20 19  1  0
 21 20  2  0
 22 21  1  0
 23 24  1  0
 23 22  2  0
 24 25  2  0
 25 17  1  0
 25 20  1  0
 26 27  1  0
 26 15  1  0
 28 26  2  0
M  END
$$$$
