LAW.pdb
     RDKit          3D

 28 29  0  0  1  0  0  0  0  0999 V2000
   30.2542  -19.1337  -17.2960 C   0  0  0  0  0  0  0  0  0  0  0  0
   28.9690  -18.3003  -17.4016 C   0  0  2  0  0  0  0  0  0  0  0  0
   29.3059  -17.0933  -18.2251 C   0  0  0  0  0  0  0  0  0  0  0  0
   28.4694  -17.9649  -16.0152 C   0  0  0  0  0  0  0  0  0  0  0  0
   28.0678  -19.2196  -15.3161 C   0  0  2  0  0  0  0  0  0  0  0  0
   27.7144  -20.2109  -16.2908 N   0  0  0  0  0  0  0  0  0  0  0  0
   27.0367  -19.0268  -14.2801 C   0  0  0  0  0  0  0  0  0  0  0  0
   27.1833  -18.1473  -13.3937 O   0  0  0  0  0  0  0  0  0  0  0  0
   23.4357  -19.7005  -13.8529 C   0  0  0  0  0  0  0  0  0  0  0  0
   24.7950  -19.5189  -13.2404 C   0  0  2  0  0  0  0  0  0  0  0  0
   25.8344  -19.7959  -14.2054 N   0  0  0  0  0  0  0  0  0  0  0  0
   24.8978  -20.4100  -12.0509 C   0  0  0  0  0  0  0  0  0  0  0  0
   25.2107  -21.6461  -12.1717 O   0  0  0  0  0  0  0  0  0  0  0  0
   24.6627  -19.9656  -10.7353 N   0  0  0  0  0  0  0  0  0  0  0  0
   24.6298  -20.9080   -9.6035 C   0  0  1  0  0  0  0  0  0  0  0  0
   25.3403  -20.1781   -8.4980 C   0  0  0  0  0  0  0  0  0  0  0  0
   26.7481  -20.4412   -8.3052 C   0  0  0  0  0  0  0  0  0  0  0  0
   27.5417  -21.1744   -9.1676 C   0  0  0  0  0  0  0  0  0  0  0  0
   28.7842  -21.2522   -8.6718 N   0  0  0  0  0  0  0  0  0  0  0  0
   28.8114  -20.5864   -7.5111 C   0  0  0  0  0  0  0  0  0  0  0  0
   29.8114  -20.3281   -6.5914 C   0  0  0  0  0  0  0  0  0  0  0  0
   29.5786  -19.5796   -5.4536 C   0  0  0  0  0  0  0  0  0  0  0  0
   28.3108  -19.0751   -5.2286 C   0  0  0  0  0  0  0  0  0  0  0  0
   27.3155  -19.3157   -6.1151 C   0  0  0  0  0  0  0  0  0  0  0  0
   27.5456  -20.0638   -7.2521 C   0  0  0  0  0  0  0  0  0  0  0  0
   23.2467  -21.2510   -9.2481 C   0  0  0  0  0  0  0  0  0  0  0  0
   22.9589  -22.2443   -8.3021 O   0  0  0  0  0  0  0  0  0  0  0  0
   22.2410  -20.6921   -9.7538 O   0  0  0  0  0  0  0  0  0  0  0  0
  2  3  1  6
  2  1  1  0
  4  2  1  0
  5  4  1  0
  5  6  1  6
  7  5  1  0
  8  7  2  0
 10  9  1  6
 10 12  1  0
 10 11  1  0
 11  7  1  0
 12 13  2  0
 14 15  1  0
 14 12  1  0
 16 17  1  0
 15 16  1  1
 17 18  2  0
 18 19  1  0
 20 19  1  0
 21 20  2  0
 22 21  1  0
 23 24  1  0
 23 22  2  0
 24 25  2  0
 25 17  1  0
 25 20  1  0
 26 27  1  0
 26 15  1  0
 28 26  2  0
M  END
$$$$
