EWI.pdb
     RDKit          3D

 32 33  0  0  1  0  0  0  0  0999 V2000
   27.6496  -22.3457  -15.2633 N   0  0  0  0  0  0  0  0  0  0  0  0
   27.6443  -21.1128  -14.5102 C   0  0  1  0  0  0  0  0  0  0  0  0
   27.0773  -19.9733  -15.3315 C   0  0  0  0  0  0  0  0  0  0  0  0
   28.1997  -19.0321  -15.6221 C   0  0  0  0  0  0  0  0  0  0  0  0
   28.5986  -19.0282  -17.0487 C   0  0  0  0  0  0  0  0  0  0  0  0
   27.8659  -18.6258  -17.9891 O   0  0  0  0  0  0  0  0  0  0  0  0
   26.9021  -21.3431  -13.2481 C   0  0  0  0  0  0  0  0  0  0  0  0
   25.7743  -21.9074  -13.2306 O   0  0  0  0  0  0  0  0  0  0  0  0
   29.8610  -19.4903  -17.4438 O   0  0  0  0  0  0  0  0  0  0  0  0
   27.4433  -20.9326  -12.0239 N   0  0  0  0  0  0  0  0  0  0  0  0
   26.7944  -20.9267  -10.7599 C   0  0  1  0  0  0  0  0  0  0  0  0
   27.7279  -20.5409   -9.6624 C   0  0  0  0  0  0  0  0  0  0  0  0
   27.1283  -20.5267   -8.3141 C   0  0  0  0  0  0  0  0  0  0  0  0
   25.8537  -20.9893   -7.9959 C   0  0  0  0  0  0  0  0  0  0  0  0
   25.7199  -20.8387   -6.6781 N   0  0  0  0  0  0  0  0  0  0  0  0
   26.8486  -20.3016   -6.1427 C   0  0  0  0  0  0  0  0  0  0  0  0
   27.1801  -19.9565   -4.8544 C   0  0  0  0  0  0  0  0  0  0  0  0
   28.4236  -19.4069   -4.6223 C   0  0  0  0  0  0  0  0  0  0  0  0
   29.3297  -19.1965   -5.6302 C   0  0  0  0  0  0  0  0  0  0  0  0
   28.9984  -19.5420   -6.9202 C   0  0  0  0  0  0  0  0  0  0  0  0
   27.7459  -20.0987   -7.1636 C   0  0  0  0  0  0  0  0  0  0  0  0
   25.5309  -20.1583  -10.7511 C   0  0  0  0  0  0  0  0  0  0  0  0
   25.5981  -18.9338  -11.0700 O   0  0  0  0  0  0  0  0  0  0  0  0
   22.7478  -18.9766  -14.6436 C   0  0  0  0  0  0  0  0  0  0  0  0
   22.5742  -18.9109  -13.1346 C   0  0  0  0  0  0  0  0  0  0  0  0
   23.0977  -20.1658  -12.4903 C   0  0  2  0  0  0  0  0  0  0  0  0
   22.2880  -21.3817  -12.9718 C   0  0  0  0  0  0  0  0  0  0  0  0
   23.0141  -20.1798  -11.0058 C   0  0  2  0  0  0  0  0  0  0  0  0
   24.2637  -20.6930  -10.4130 N   0  0  0  0  0  0  0  0  0  0  0  0
   21.8539  -20.9080  -10.4463 C   0  0  0  0  0  0  0  0  0  0  0  0
   20.6787  -20.5173  -10.4109 O   0  0  0  0  0  0  0  0  0  0  0  0
   22.0794  -22.1847   -9.8872 O   0  0  0  0  0  0  0  0  0  0  0  0
  2  1  1  6
  2  3  1  0
  3  4  1  0
  4  5  1  0
  5  6  2  0
  7  8  2  0
  7  2  1  0
  9  5  1  0
 10  7  1  0
 11 10  1  0
 11 12  1  1
 13 14  2  0
 13 12  1  0
 15 14  1  0
 16 21  2  0
 16 15  1  0
 17 16  1  0
 18 19  1  0
 18 17  2  0
 19 20  2  0
 20 21  1  0
 21 13  1  0
 22 11  1  0
 22 29  1  0
 23 22  2  0
 24 25  1  0
 26 25  1  0
 26 28  1  0
 26 27  1  6
 28 29  1  1
 28 30  1  0
 30 31  2  0
 30 32  1  0
M  END
$$$$
