EWI.pdb
     RDKit          3D

 32 33  0  0  1  0  0  0  0  0999 V2000
   28.9719  -23.3472  -16.6893 N   0  0  0  0  0  0  0  0  0  0  0  0
   28.0876  -22.2066  -16.7519 C   0  0  1  0  0  0  0  0  0  0  0  0
   27.2945  -22.2001  -18.0424 C   0  0  0  0  0  0  0  0  0  0  0  0
   28.2328  -21.8188  -19.1399 C   0  0  0  0  0  0  0  0  0  0  0  0
   28.3272  -20.3539  -19.3393 C   0  0  0  0  0  0  0  0  0  0  0  0
   27.5256  -19.5179  -18.8478 O   0  0  0  0  0  0  0  0  0  0  0  0
   27.2288  -22.2184  -15.5438 C   0  0  0  0  0  0  0  0  0  0  0  0
   26.6932  -23.2772  -15.1161 O   0  0  0  0  0  0  0  0  0  0  0  0
   29.3526  -19.7984  -20.1161 O   0  0  0  0  0  0  0  0  0  0  0  0
   26.9866  -21.0349  -14.8363 N   0  0  0  0  0  0  0  0  0  0  0  0
   26.2195  -20.8888  -13.6492 C   0  0  1  0  0  0  0  0  0  0  0  0
   26.8261  -19.8926  -12.7195 C   0  0  0  0  0  0  0  0  0  0  0  0
   27.7872  -20.4532  -11.7503 C   0  0  0  0  0  0  0  0  0  0  0  0
   29.0959  -20.8302  -12.0419 C   0  0  0  0  0  0  0  0  0  0  0  0
   29.6315  -21.2402  -10.8920 N   0  0  0  0  0  0  0  0  0  0  0  0
   28.7256  -21.1424   -9.8826 C   0  0  0  0  0  0  0  0  0  0  0  0
   28.8034  -21.4496   -8.5453 C   0  0  0  0  0  0  0  0  0  0  0  0
   27.6869  -21.2497   -7.7607 C   0  0  0  0  0  0  0  0  0  0  0  0
   26.5126  -20.7584   -8.2716 C   0  0  0  0  0  0  0  0  0  0  0  0
   26.4342  -20.4506   -9.6104 C   0  0  0  0  0  0  0  0  0  0  0  0
   27.5568  -20.6478  -10.4097 C   0  0  0  0  0  0  0  0  0  0  0  0
   24.7819  -20.6531  -13.9032 C   0  0  0  0  0  0  0  0  0  0  0  0
   24.4812  -19.6814  -14.6590 O   0  0  0  0  0  0  0  0  0  0  0  0
   21.6798  -23.4429  -16.5947 C   0  0  0  0  0  0  0  0  0  0  0  0
   22.3046  -22.2796  -15.8410 C   0  0  0  0  0  0  0  0  0  0  0  0
   21.6778  -22.1378  -14.4805 C   0  0  2  0  0  0  0  0  0  0  0  0
   20.2031  -21.7241  -14.6211 C   0  0  0  0  0  0  0  0  0  0  0  0
   22.3108  -21.1099  -13.6124 C   0  0  2  0  0  0  0  0  0  0  0  0
   23.7288  -21.4316  -13.3637 N   0  0  0  0  0  0  0  0  0  0  0  0
   21.6188  -20.8550  -12.3296 C   0  0  0  0  0  0  0  0  0  0  0  0
   21.7159  -21.5197  -11.2886 O   0  0  0  0  0  0  0  0  0  0  0  0
   20.7502  -19.7444  -12.2540 O   0  0  0  0  0  0  0  0  0  0  0  0
  2  1  1  6
  2  3  1  0
  3  4  1  0
  4  5  1  0
  5  6  2  0
  7  8  2  0
  7  2  1  0
  9  5  1  0
 10  7  1  0
 11 10  1  0
 11 12  1  6
 13 14  2  0
 13 12  1  0
 15 14  1  0
 16 21  2  0
 16 15  1  0
 17 16  1  0
 18 19  1  0
 18 17  2  0
 19 20  2  0
 20 21  1  0
 21 13  1  0
 22 11  1  0
 22 29  1  0
 23 22  2  0
 24 25  1  0
 26 25  1  0
 26 28  1  0
 26 27  1  6
 28 29  1  1
 28 30  1  0
 30 31  2  0
 30 32  1  0
M  END
$$$$
