EWI.pdb
     RDKit          3D

 32 33  0  0  1  0  0  0  0  0999 V2000
   27.7329  -19.3674  -12.7457 N   0  0  0  0  0  0  0  0  0  0  0  0
   27.6166  -20.8071  -12.7167 C   0  0  1  0  0  0  0  0  0  0  0  0
   28.9605  -21.4685  -12.9427 C   0  0  0  0  0  0  0  0  0  0  0  0
   29.6621  -20.6975  -14.0121 C   0  0  0  0  0  0  0  0  0  0  0  0
   29.4403  -21.2524  -15.3676 C   0  0  0  0  0  0  0  0  0  0  0  0
   29.4642  -22.4795  -15.6444 O   0  0  0  0  0  0  0  0  0  0  0  0
   26.9879  -21.1962  -11.4320 C   0  0  0  0  0  0  0  0  0  0  0  0
   27.0980  -22.3610  -10.9609 O   0  0  0  0  0  0  0  0  0  0  0  0
   29.1828  -20.4092  -16.4566 O   0  0  0  0  0  0  0  0  0  0  0  0
   26.2438  -20.2649  -10.6978 N   0  0  0  0  0  0  0  0  0  0  0  0
   25.1659  -20.5369   -9.8130 C   0  0  1  0  0  0  0  0  0  0  0  0
   25.3154  -19.8072   -8.5207 C   0  0  0  0  0  0  0  0  0  0  0  0
   26.6978  -19.7240   -8.0114 C   0  0  0  0  0  0  0  0  0  0  0  0
   27.7737  -19.1614   -8.6938 C   0  0  0  0  0  0  0  0  0  0  0  0
   28.8219  -19.2476   -7.8746 N   0  0  0  0  0  0  0  0  0  0  0  0
   28.4642  -19.8390   -6.7034 C   0  0  0  0  0  0  0  0  0  0  0  0
   29.1837  -20.1524   -5.5752 C   0  0  0  0  0  0  0  0  0  0  0  0
   28.5301  -20.7767   -4.5334 C   0  0  0  0  0  0  0  0  0  0  0  0
   27.1962  -21.0909   -4.5905 C   0  0  0  0  0  0  0  0  0  0  0  0
   26.4754  -20.7771   -5.7198 C   0  0  0  0  0  0  0  0  0  0  0  0
   27.1266  -20.1456   -6.7758 C   0  0  0  0  0  0  0  0  0  0  0  0
   23.8358  -20.3601  -10.4347 C   0  0  0  0  0  0  0  0  0  0  0  0
   23.6321  -19.2794  -11.0642 O   0  0  0  0  0  0  0  0  0  0  0  0
   22.4019  -22.4829  -14.5858 C   0  0  0  0  0  0  0  0  0  0  0  0
   22.4289  -21.5056  -13.4214 C   0  0  0  0  0  0  0  0  0  0  0  0
   21.4877  -21.9545  -12.3367 C   0  0  2  0  0  0  0  0  0  0  0  0
   20.0370  -21.9066  -12.8458 C   0  0  0  0  0  0  0  0  0  0  0  0
   21.5181  -21.1191  -11.1071 C   0  0  2  0  0  0  0  0  0  0  0  0
   22.7844  -21.3073  -10.3740 N   0  0  0  0  0  0  0  0  0  0  0  0
   20.3719  -21.3048  -10.1899 C   0  0  0  0  0  0  0  0  0  0  0  0
   19.2851  -20.7112  -10.2299 O   0  0  0  0  0  0  0  0  0  0  0  0
   20.5011  -22.2515   -9.1503 O   0  0  0  0  0  0  0  0  0  0  0  0
  2  1  1  1
  2  3  1  0
  3  4  1  0
  4  5  1  0
  5  6  2  0
  7  8  2  0
  7  2  1  0
  9  5  1  0
 10  7  1  0
 11 10  1  0
 11 12  1  1
 13 14  2  0
 13 12  1  0
 15 14  1  0
 16 21  2  0
 16 15  1  0
 17 16  1  0
 18 19  1  0
 18 17  2  0
 19 20  2  0
 20 21  1  0
 21 13  1  0
 22 11  1  0
 22 29  1  0
 23 22  2  0
 24 25  1  0
 26 25  1  0
 26 28  1  0
 26 27  1  6
 28 29  1  1
 28 30  1  0
 30 31  2  0
 30 32  1  0
M  END
$$$$
