EWI.pdb
     RDKit          3D

 32 33  0  0  1  0  0  0  0  0999 V2000
   25.0276  -19.5109  -14.4917 N   0  0  0  0  0  0  0  0  0  0  0  0
   24.1981  -20.6899  -14.3956 C   0  0  1  0  0  0  0  0  0  0  0  0
   24.6564  -21.7608  -15.3639 C   0  0  0  0  0  0  0  0  0  0  0  0
   24.6247  -21.1662  -16.7334 C   0  0  0  0  0  0  0  0  0  0  0  0
   23.2577  -21.0842  -17.2985 C   0  0  0  0  0  0  0  0  0  0  0  0
   22.3848  -20.2578  -16.9267 O   0  0  0  0  0  0  0  0  0  0  0  0
   24.1997  -21.1447  -12.9849 C   0  0  0  0  0  0  0  0  0  0  0  0
   23.8415  -22.3093  -12.6589 O   0  0  0  0  0  0  0  0  0  0  0  0
   22.8465  -21.9558  -18.3156 O   0  0  0  0  0  0  0  0  0  0  0  0
   24.6053  -20.2784  -11.9626 N   0  0  0  0  0  0  0  0  0  0  0  0
   24.5568  -20.5229  -10.5638 C   0  0  1  0  0  0  0  0  0  0  0  0
   25.4996  -19.6411   -9.8167 C   0  0  0  0  0  0  0  0  0  0  0  0
   26.7983  -20.2593   -9.4870 C   0  0  0  0  0  0  0  0  0  0  0  0
   27.5145  -21.1173  -10.3180 C   0  0  0  0  0  0  0  0  0  0  0  0
   28.6414  -21.4113   -9.6693 N   0  0  0  0  0  0  0  0  0  0  0  0
   28.6760  -20.7815   -8.4645 C   0  0  0  0  0  0  0  0  0  0  0  0
   29.6073  -20.7823   -7.4538 C   0  0  0  0  0  0  0  0  0  0  0  0
   29.3468  -20.0388   -6.3218 C   0  0  0  0  0  0  0  0  0  0  0  0
   28.1963  -19.3061   -6.1770 C   0  0  0  0  0  0  0  0  0  0  0  0
   27.2638  -19.3048   -7.1887 C   0  0  0  0  0  0  0  0  0  0  0  0
   27.5190  -20.0514   -8.3356 C   0  0  0  0  0  0  0  0  0  0  0  0
   23.1847  -20.5135  -10.0124 C   0  0  0  0  0  0  0  0  0  0  0  0
   22.4382  -19.5431  -10.3391 O   0  0  0  0  0  0  0  0  0  0  0  0
   19.8064  -21.2724  -12.4770 C   0  0  0  0  0  0  0  0  0  0  0  0
   20.2404  -20.8062  -11.0965 C   0  0  0  0  0  0  0  0  0  0  0  0
   20.5054  -21.9870  -10.2023 C   0  0  2  0  0  0  0  0  0  0  0  0
   19.1773  -22.6484   -9.7967 C   0  0  0  0  0  0  0  0  0  0  0  0
   21.2031  -21.6561   -8.9318 C   0  0  2  0  0  0  0  0  0  0  0  0
   22.6541  -21.5054   -9.1517 N   0  0  0  0  0  0  0  0  0  0  0  0
   20.9570  -22.5942   -7.8143 C   0  0  0  0  0  0  0  0  0  0  0  0
   19.8951  -22.7494   -7.1952 O   0  0  0  0  0  0  0  0  0  0  0  0
   22.0262  -23.4113   -7.3868 O   0  0  0  0  0  0  0  0  0  0  0  0
  2  1  1  1
  2  3  1  0
  3  4  1  0
  4  5  1  0
  5  6  2  0
  7  8  2  0
  7  2  1  0
  9  5  1  0
 10  7  1  0
 11 10  1  0
 11 12  1  1
 13 14  2  0
 13 12  1  0
 15 14  1  0
 16 21  2  0
 16 15  1  0
 17 16  1  0
 18 19  1  0
 18 17  2  0
 19 20  2  0
 20 21  1  0
 21 13  1  0
 22 11  1  0
 22 29  1  0
 23 22  2  0
 24 25  1  0
 26 25  1  0
 26 28  1  0
 26 27  1  1
 28 29  1  6
 28 30  1  0
 30 31  2  0
 30 32  1  0
M  END
$$$$
