EWI.pdb
     RDKit          3D

 32 33  0  0  1  0  0  0  0  0999 V2000
   32.1889  -26.5260  -20.0473 N   0  0  0  0  0  0  0  0  0  0  0  0
   30.9684  -27.2487  -20.3211 C   0  0  1  0  0  0  0  0  0  0  0  0
   31.2239  -28.4233  -21.2428 C   0  0  0  0  0  0  0  0  0  0  0  0
   31.0496  -27.9363  -22.6438 C   0  0  0  0  0  0  0  0  0  0  0  0
   31.1503  -29.0182  -23.6506 C   0  0  0  0  0  0  0  0  0  0  0  0
   31.4880  -30.2017  -23.3889 O   0  0  0  0  0  0  0  0  0  0  0  0
   30.3650  -27.6477  -19.0274 C   0  0  0  0  0  0  0  0  0  0  0  0
   31.0623  -28.0904  -18.0742 O   0  0  0  0  0  0  0  0  0  0  0  0
   30.8647  -28.7734  -25.0004 O   0  0  0  0  0  0  0  0  0  0  0  0
   28.9833  -27.5416  -18.8284 N   0  0  0  0  0  0  0  0  0  0  0  0
   28.2612  -27.8629  -17.6476 C   0  0  1  0  0  0  0  0  0  0  0  0
   27.5557  -26.6724  -17.0912 C   0  0  0  0  0  0  0  0  0  0  0  0
   28.4075  -25.4842  -16.8901 C   0  0  0  0  0  0  0  0  0  0  0  0
   28.1411  -24.2105  -17.3865 C   0  0  0  0  0  0  0  0  0  0  0  0
   29.1240  -23.4249  -16.9463 N   0  0  0  0  0  0  0  0  0  0  0  0
   30.0036  -24.1384  -16.1937 C   0  0  0  0  0  0  0  0  0  0  0  0
   31.1609  -23.7789  -15.5455 C   0  0  0  0  0  0  0  0  0  0  0  0
   31.8582  -24.7522  -14.8608 C   0  0  0  0  0  0  0  0  0  0  0  0
   31.4342  -26.0556  -14.8089 C   0  0  0  0  0  0  0  0  0  0  0  0
   30.2755  -26.4159  -15.4576 C   0  0  0  0  0  0  0  0  0  0  0  0
   29.5645  -25.4398  -16.1501 C   0  0  0  0  0  0  0  0  0  0  0  0
   27.3858  -29.0453  -17.7971 C   0  0  0  0  0  0  0  0  0  0  0  0
   26.8239  -29.2089  -18.9210 O   0  0  0  0  0  0  0  0  0  0  0  0
   27.9474  -33.7188  -14.7306 C   0  0  0  0  0  0  0  0  0  0  0  0
   27.8279  -32.7017  -15.8543 C   0  0  0  0  0  0  0  0  0  0  0  0
   26.4214  -32.1737  -15.9379 C   0  0  2  0  0  0  0  0  0  0  0  0
   25.4502  -33.3159  -16.2815 C   0  0  0  0  0  0  0  0  0  0  0  0
   26.2130  -31.1318  -16.9780 C   0  0  2  0  0  0  0  0  0  0  0  0
   27.1347  -29.9973  -16.7789 N   0  0  0  0  0  0  0  0  0  0  0  0
   24.8243  -30.6372  -17.1057 C   0  0  0  0  0  0  0  0  0  0  0  0
   24.0260  -30.8927  -18.0181 O   0  0  0  0  0  0  0  0  0  0  0  0
   24.3294  -29.7824  -16.0967 O   0  0  0  0  0  0  0  0  0  0  0  0
  2  1  1  1
  2  3  1  0
  3  4  1  0
  4  5  1  0
  5  6  2  0
  7  8  2  0
  7  2  1  0
  9  5  1  0
 10  7  1  0
 11 10  1  0
 11 12  1  6
 13 14  2  0
 13 12  1  0
 15 14  1  0
 16 21  2  0
 16 15  1  0
 17 16  1  0
 18 19  1  0
 18 17  2  0
 19 20  2  0
 20 21  1  0
 21 13  1  0
 22 11  1  0
 22 29  1  0
 23 22  2  0
 24 25  1  0
 26 25  1  0
 26 28  1  0
 26 27  1  6
 28 29  1  1
 28 30  1  0
 30 31  2  0
 30 32  1  0
M  END
$$$$
