EWI.pdb
     RDKit          3D

 32 33  0  0  1  0  0  0  0  0999 V2000
   27.1805  -21.9872  -14.7195 N   0  0  0  0  0  0  0  0  0  0  0  0
   26.4307  -20.9484  -14.0516 C   0  0  1  0  0  0  0  0  0  0  0  0
   25.0838  -20.7365  -14.7113 C   0  0  0  0  0  0  0  0  0  0  0  0
   25.3397  -20.2680  -16.1060 C   0  0  0  0  0  0  0  0  0  0  0  0
   25.4601  -18.7953  -16.2102 C   0  0  0  0  0  0  0  0  0  0  0  0
   24.4837  -18.0017  -16.2081 O   0  0  0  0  0  0  0  0  0  0  0  0
   26.3239  -21.3029  -12.6163 C   0  0  0  0  0  0  0  0  0  0  0  0
   25.9905  -22.4588  -12.2375 O   0  0  0  0  0  0  0  0  0  0  0  0
   26.7152  -18.1824  -16.3216 O   0  0  0  0  0  0  0  0  0  0  0  0
   26.5945  -20.3475  -11.6295 N   0  0  0  0  0  0  0  0  0  0  0  0
   26.3641  -20.4704  -10.2328 C   0  0  1  0  0  0  0  0  0  0  0  0
   27.1545  -19.4740   -9.4536 C   0  0  0  0  0  0  0  0  0  0  0  0
   27.0370  -19.5982   -7.9878 C   0  0  0  0  0  0  0  0  0  0  0  0
   26.0343  -19.0242   -7.2101 C   0  0  0  0  0  0  0  0  0  0  0  0
   26.2666  -19.4117   -5.9558 N   0  0  0  0  0  0  0  0  0  0  0  0
   27.3700  -20.2044   -5.8985 C   0  0  0  0  0  0  0  0  0  0  0  0
   28.0015  -20.8254   -4.8476 C   0  0  0  0  0  0  0  0  0  0  0  0
   29.1343  -21.5672   -5.1094 C   0  0  0  0  0  0  0  0  0  0  0  0
   29.6440  -21.7014   -6.3757 C   0  0  0  0  0  0  0  0  0  0  0  0
   29.0120  -21.0801   -7.4282 C   0  0  0  0  0  0  0  0  0  0  0  0
   27.8670  -20.3303   -7.1735 C   0  0  0  0  0  0  0  0  0  0  0  0
   24.9299  -20.4907   -9.8729 C   0  0  0  0  0  0  0  0  0  0  0  0
   24.2273  -19.5045  -10.2464 O   0  0  0  0  0  0  0  0  0  0  0  0
   21.2683  -22.6882  -12.0133 C   0  0  0  0  0  0  0  0  0  0  0  0
   22.0243  -21.7293  -11.1074 C   0  0  0  0  0  0  0  0  0  0  0  0
   22.0249  -22.2353   -9.6904 C   0  0  2  0  0  0  0  0  0  0  0  0
   20.6001  -22.1842   -9.1129 C   0  0  0  0  0  0  0  0  0  0  0  0
   22.8746  -21.4523   -8.7547 C   0  0  2  0  0  0  0  0  0  0  0  0
   24.2951  -21.5270   -9.1456 N   0  0  0  0  0  0  0  0  0  0  0  0
   22.7257  -21.8022   -7.3246 C   0  0  0  0  0  0  0  0  0  0  0  0
   23.4653  -22.5414   -6.6602 O   0  0  0  0  0  0  0  0  0  0  0  0
   21.6355  -21.2505   -6.6171 O   0  0  0  0  0  0  0  0  0  0  0  0
  2  1  1  6
  2  3  1  0
  3  4  1  0
  4  5  1  0
  5  6  2  0
  7  8  2  0
  7  2  1  0
  9  5  1  0
 10  7  1  0
 11 10  1  0
 11 12  1  1
 13 14  2  0
 13 12  1  0
 15 14  1  0
 16 21  2  0
 16 15  1  0
 17 16  1  0
 18 19  1  0
 18 17  2  0
 19 20  2  0
 20 21  1  0
 21 13  1  0
 22 11  1  0
 22 29  1  0
 23 22  2  0
 24 25  1  0
 26 25  1  0
 26 28  1  0
 26 27  1  1
 28 29  1  6
 28 30  1  0
 30 31  2  0
 30 32  1  0
M  END
$$$$
