EWI.pdb
     RDKit          3D

 32 33  0  0  1  0  0  0  0  0999 V2000
   28.7772  -21.2244  -14.7466 N   0  0  0  0  0  0  0  0  0  0  0  0
   27.9992  -20.1228  -14.2287 C   0  0  1  0  0  0  0  0  0  0  0  0
   27.1527  -19.4931  -15.3157 C   0  0  0  0  0  0  0  0  0  0  0  0
   28.0854  -18.9426  -16.3439 C   0  0  0  0  0  0  0  0  0  0  0  0
   28.1217  -19.7498  -17.5854 C   0  0  0  0  0  0  0  0  0  0  0  0
   27.2312  -19.7250  -18.4740 O   0  0  0  0  0  0  0  0  0  0  0  0
   27.1983  -20.6179  -13.0840 C   0  0  0  0  0  0  0  0  0  0  0  0
   26.0995  -21.2153  -13.2471 O   0  0  0  0  0  0  0  0  0  0  0  0
   29.1895  -20.6183  -17.8477 O   0  0  0  0  0  0  0  0  0  0  0  0
   27.6490  -20.4312  -11.7718 N   0  0  0  0  0  0  0  0  0  0  0  0
   26.9673  -20.7794  -10.5747 C   0  0  1  0  0  0  0  0  0  0  0  0
   27.7542  -20.4074   -9.3635 C   0  0  0  0  0  0  0  0  0  0  0  0
   27.0304  -20.5494   -8.0854 C   0  0  0  0  0  0  0  0  0  0  0  0
   25.7945  -21.1713   -7.9261 C   0  0  0  0  0  0  0  0  0  0  0  0
   25.5179  -21.1242   -6.6228 N   0  0  0  0  0  0  0  0  0  0  0  0
   26.5190  -20.5011   -5.9454 C   0  0  0  0  0  0  0  0  0  0  0  0
   26.6823  -20.2073   -4.6128 C   0  0  0  0  0  0  0  0  0  0  0  0
   27.8244  -19.5390   -4.2241 C   0  0  0  0  0  0  0  0  0  0  0  0
   28.7921  -19.1626   -5.1203 C   0  0  0  0  0  0  0  0  0  0  0  0
   28.6292  -19.4568   -6.4545 C   0  0  0  0  0  0  0  0  0  0  0  0
   27.4800  -20.1323   -6.8558 C   0  0  0  0  0  0  0  0  0  0  0  0
   25.5686  -20.3007  -10.5340 C   0  0  0  0  0  0  0  0  0  0  0  0
   25.3893  -19.0490  -10.4521 O   0  0  0  0  0  0  0  0  0  0  0  0
   23.1528  -20.5079  -14.6634 C   0  0  0  0  0  0  0  0  0  0  0  0
   23.4747  -20.0435  -13.2519 C   0  0  0  0  0  0  0  0  0  0  0  0
   22.6738  -20.8252  -12.2461 C   0  0  2  0  0  0  0  0  0  0  0  0
   21.1901  -20.4286  -12.3322 C   0  0  0  0  0  0  0  0  0  0  0  0
   23.0750  -20.6059  -10.8313 C   0  0  2  0  0  0  0  0  0  0  0  0
   24.4275  -21.1384  -10.5791 N   0  0  0  0  0  0  0  0  0  0  0  0
   22.1302  -21.1286   -9.8196 C   0  0  0  0  0  0  0  0  0  0  0  0
   22.1367  -22.2584   -9.3112 O   0  0  0  0  0  0  0  0  0  0  0  0
   21.1028  -20.2724   -9.3670 O   0  0  0  0  0  0  0  0  0  0  0  0
  2  1  1  6
  2  3  1  0
  3  4  1  0
  4  5  1  0
  5  6  2  0
  7  8  2  0
  7  2  1  0
  9  5  1  0
 10  7  1  0
 11 10  1  0
 11 12  1  1
 13 14  2  0
 13 12  1  0
 15 14  1  0
 16 21  2  0
 16 15  1  0
 17 16  1  0
 18 19  1  0
 18 17  2  0
 19 20  2  0
 20 21  1  0
 21 13  1  0
 22 11  1  0
 22 29  1  0
 23 22  2  0
 24 25  1  0
 26 25  1  0
 26 28  1  0
 26 27  1  1
 28 29  1  6
 28 30  1  0
 30 31  2  0
 30 32  1  0
M  END
$$$$
