EWI.pdb
     RDKit          3D

 32 33  0  0  1  0  0  0  0  0999 V2000
   26.8116  -16.6524  -18.8730 N   0  0  0  0  0  0  0  0  0  0  0  0
   27.1537  -17.7172  -17.9584 C   0  0  1  0  0  0  0  0  0  0  0  0
   28.5332  -17.5087  -17.3686 C   0  0  0  0  0  0  0  0  0  0  0  0
   29.2726  -16.5857  -18.2805 C   0  0  0  0  0  0  0  0  0  0  0  0
   30.2172  -17.2905  -19.1779 C   0  0  0  0  0  0  0  0  0  0  0  0
   30.2579  -18.5395  -19.3251 O   0  0  0  0  0  0  0  0  0  0  0  0
   26.0905  -17.8045  -16.9294 C   0  0  0  0  0  0  0  0  0  0  0  0
   25.7715  -16.8160  -16.2139 O   0  0  0  0  0  0  0  0  0  0  0  0
   31.1527  -16.5782  -19.9399 O   0  0  0  0  0  0  0  0  0  0  0  0
   25.4030  -19.0064  -16.7225 N   0  0  0  0  0  0  0  0  0  0  0  0
   24.3815  -19.2548  -15.7666 C   0  0  1  0  0  0  0  0  0  0  0  0
   23.0942  -19.6302  -16.4198 C   0  0  0  0  0  0  0  0  0  0  0  0
   21.9519  -19.7824  -15.4981 C   0  0  0  0  0  0  0  0  0  0  0  0
   21.5278  -20.9835  -14.9347 C   0  0  0  0  0  0  0  0  0  0  0  0
   20.5043  -20.6805  -14.1360 N   0  0  0  0  0  0  0  0  0  0  0  0
   20.2565  -19.3437  -14.1650 C   0  0  0  0  0  0  0  0  0  0  0  0
   19.3141  -18.5701  -13.5309 C   0  0  0  0  0  0  0  0  0  0  0  0
   19.3053  -17.2134  -13.7785 C   0  0  0  0  0  0  0  0  0  0  0  0
   20.2010  -16.6199  -14.6311 C   0  0  0  0  0  0  0  0  0  0  0  0
   21.1450  -17.3940  -15.2659 C   0  0  0  0  0  0  0  0  0  0  0  0
   21.1621  -18.7643  -15.0210 C   0  0  0  0  0  0  0  0  0  0  0  0
   24.7911  -20.1917  -14.6983 C   0  0  0  0  0  0  0  0  0  0  0  0
   25.4943  -21.1879  -15.0429 O   0  0  0  0  0  0  0  0  0  0  0  0
   26.4944  -18.7069   -9.7458 C   0  0  0  0  0  0  0  0  0  0  0  0
   26.3080  -19.3895  -11.0915 C   0  0  0  0  0  0  0  0  0  0  0  0
   25.1807  -20.3838  -11.0248 C   0  0  2  0  0  0  0  0  0  0  0  0
   25.5350  -21.5160  -10.0457 C   0  0  0  0  0  0  0  0  0  0  0  0
   24.8622  -21.0451  -12.3179 C   0  0  2  0  0  0  0  0  0  0  0  0
   24.4531  -20.0527  -13.3299 N   0  0  0  0  0  0  0  0  0  0  0  0
   23.8593  -22.1303  -12.2411 C   0  0  0  0  0  0  0  0  0  0  0  0
   24.0851  -23.3450  -12.1487 O   0  0  0  0  0  0  0  0  0  0  0  0
   22.4934  -21.7743  -12.2743 O   0  0  0  0  0  0  0  0  0  0  0  0
  2  1  1  6
  2  3  1  0
  3  4  1  0
  4  5  1  0
  5  6  2  0
  7  8  2  0
  7  2  1  0
  9  5  1  0
 10  7  1  0
 11 10  1  0
 11 12  1  6
 13 14  2  0
 13 12  1  0
 15 14  1  0
 16 21  2  0
 16 15  1  0
 17 16  1  0
 18 19  1  0
 18 17  2  0
 19 20  2  0
 20 21  1  0
 21 13  1  0
 22 11  1  0
 22 29  1  0
 23 22  2  0
 24 25  1  0
 26 25  1  0
 26 28  1  0
 26 27  1  1
 28 29  1  6
 28 30  1  0
 30 31  2  0
 30 32  1  0
M  END
$$$$
