EWI.pdb
     RDKit          3D

 32 33  0  0  1  0  0  0  0  0999 V2000
   25.5464  -20.6368  -14.6346 N   0  0  0  0  0  0  0  0  0  0  0  0
   24.6494  -19.9606  -13.7262 C   0  0  1  0  0  0  0  0  0  0  0  0
   23.2239  -19.9975  -14.2372 C   0  0  0  0  0  0  0  0  0  0  0  0
   23.2291  -19.4184  -15.6137 C   0  0  0  0  0  0  0  0  0  0  0  0
   23.2466  -17.9371  -15.6196 C   0  0  0  0  0  0  0  0  0  0  0  0
   22.5015  -17.2160  -14.9069 O   0  0  0  0  0  0  0  0  0  0  0  0
   24.8001  -20.5718  -12.3843 C   0  0  0  0  0  0  0  0  0  0  0  0
   24.5368  -21.7867  -12.1710 O   0  0  0  0  0  0  0  0  0  0  0  0
   24.1266  -17.2315  -16.4509 O   0  0  0  0  0  0  0  0  0  0  0  0
   25.2456  -19.8028  -11.3025 N   0  0  0  0  0  0  0  0  0  0  0  0
   25.3959  -20.2272   -9.9548 C   0  0  1  0  0  0  0  0  0  0  0  0
   26.4266  -19.4243   -9.2354 C   0  0  0  0  0  0  0  0  0  0  0  0
   27.0450  -20.1013   -8.0792 C   0  0  0  0  0  0  0  0  0  0  0  0
   27.2592  -21.4732   -7.9708 C   0  0  0  0  0  0  0  0  0  0  0  0
   27.8745  -21.6642   -6.8037 N   0  0  0  0  0  0  0  0  0  0  0  0
   28.0614  -20.4788   -6.1639 C   0  0  0  0  0  0  0  0  0  0  0  0
   28.6292  -20.1689   -4.9513 C   0  0  0  0  0  0  0  0  0  0  0  0
   28.6598  -18.8465   -4.5607 C   0  0  0  0  0  0  0  0  0  0  0  0
   28.1447  -17.8419   -5.3397 C   0  0  0  0  0  0  0  0  0  0  0  0
   27.5764  -18.1517   -6.5539 C   0  0  0  0  0  0  0  0  0  0  0  0
   27.5423  -19.4838   -6.9569 C   0  0  0  0  0  0  0  0  0  0  0  0
   24.1147  -20.3259   -9.2229 C   0  0  0  0  0  0  0  0  0  0  0  0
   23.3712  -19.2999   -9.2203 O   0  0  0  0  0  0  0  0  0  0  0  0
   20.3104  -20.7112  -10.1484 C   0  0  0  0  0  0  0  0  0  0  0  0
   21.1966  -21.9465  -10.1550 C   0  0  0  0  0  0  0  0  0  0  0  0
   21.4324  -22.4316   -8.7503 C   0  0  2  0  0  0  0  0  0  0  0  0
   20.0981  -22.5073   -7.9888 C   0  0  0  0  0  0  0  0  0  0  0  0
   22.3200  -21.5598   -7.9360 C   0  0  2  0  0  0  0  0  0  0  0  0
   23.6674  -21.4779   -8.5310 N   0  0  0  0  0  0  0  0  0  0  0  0
   22.4214  -21.9237   -6.5054 C   0  0  0  0  0  0  0  0  0  0  0  0
   23.1048  -22.8346   -6.0175 O   0  0  0  0  0  0  0  0  0  0  0  0
   21.6718  -21.1712   -5.5751 O   0  0  0  0  0  0  0  0  0  0  0  0
  2  1  1  6
  2  3  1  0
  3  4  1  0
  4  5  1  0
  5  6  2  0
  7  8  2  0
  7  2  1  0
  9  5  1  0
 10  7  1  0
 11 10  1  0
 11 12  1  1
 13 14  2  0
 13 12  1  0
 15 14  1  0
 16 21  2  0
 16 15  1  0
 17 16  1  0
 18 19  1  0
 18 17  2  0
 19 20  2  0
 20 21  1  0
 21 13  1  0
 22 11  1  0
 22 29  1  0
 23 22  2  0
 24 25  1  0
 26 25  1  0
 26 28  1  0
 26 27  1  1
 28 29  1  6
 28 30  1  0
 30 31  2  0
 30 32  1  0
M  END
$$$$
