EWI.pdb
     RDKit          3D

 32 33  0  0  1  0  0  0  0  0999 V2000
   24.9556  -19.9911  -17.9819 N   0  0  0  0  0  0  0  0  0  0  0  0
   23.5547  -19.9333  -17.6338 C   0  0  1  0  0  0  0  0  0  0  0  0
   22.6808  -20.0275  -18.8675 C   0  0  0  0  0  0  0  0  0  0  0  0
   21.7294  -18.8770  -18.8282 C   0  0  0  0  0  0  0  0  0  0  0  0
   22.4087  -17.5612  -18.8658 C   0  0  0  0  0  0  0  0  0  0  0  0
   23.1824  -17.1882  -19.7853 O   0  0  0  0  0  0  0  0  0  0  0  0
   23.2778  -21.0018  -16.6445 C   0  0  0  0  0  0  0  0  0  0  0  0
   23.6318  -22.1970  -16.8365 O   0  0  0  0  0  0  0  0  0  0  0  0
   22.2203  -16.6250  -17.8404 O   0  0  0  0  0  0  0  0  0  0  0  0
   22.6052  -20.7057  -15.4529 N   0  0  0  0  0  0  0  0  0  0  0  0
   22.3773  -21.5820  -14.3579 C   0  0  1  0  0  0  0  0  0  0  0  0
   22.9685  -21.0524  -13.0951 C   0  0  0  0  0  0  0  0  0  0  0  0
   24.2984  -20.4310  -13.2454 C   0  0  0  0  0  0  0  0  0  0  0  0
   24.6011  -19.1011  -12.9634 C   0  0  0  0  0  0  0  0  0  0  0  0
   25.9075  -18.9595  -13.1880 N   0  0  0  0  0  0  0  0  0  0  0  0
   26.4504  -20.1362  -13.6003 C   0  0  0  0  0  0  0  0  0  0  0  0
   27.7319  -20.4817  -13.9571 C   0  0  0  0  0  0  0  0  0  0  0  0
   27.9744  -21.7802  -14.3536 C   0  0  0  0  0  0  0  0  0  0  0  0
   26.9834  -22.7272  -14.4020 C   0  0  0  0  0  0  0  0  0  0  0  0
   25.7003  -22.3818  -14.0446 C   0  0  0  0  0  0  0  0  0  0  0  0
   25.4465  -21.0737  -13.6418 C   0  0  0  0  0  0  0  0  0  0  0  0
   20.9631  -21.9906  -14.2161 C   0  0  0  0  0  0  0  0  0  0  0  0
   20.0817  -21.1468  -14.5579 O   0  0  0  0  0  0  0  0  0  0  0  0
   17.0008  -25.8528  -15.7891 C   0  0  0  0  0  0  0  0  0  0  0  0
   17.3638  -25.2361  -14.4477 C   0  0  0  0  0  0  0  0  0  0  0  0
   18.8129  -24.8312  -14.4304 C   0  0  2  0  0  0  0  0  0  0  0  0
   19.6642  -25.9496  -13.8055 C   0  0  0  0  0  0  0  0  0  0  0  0
   19.1030  -23.6055  -13.6404 C   0  0  2  0  0  0  0  0  0  0  0  0
   20.5316  -23.2483  -13.7283 N   0  0  0  0  0  0  0  0  0  0  0  0
   18.6815  -23.6544  -12.2228 C   0  0  0  0  0  0  0  0  0  0  0  0
   17.5194  -23.6874  -11.7944 O   0  0  0  0  0  0  0  0  0  0  0  0
   19.6873  -23.6656  -11.2320 O   0  0  0  0  0  0  0  0  0  0  0  0
  2  1  1  6
  2  3  1  0
  3  4  1  0
  4  5  1  0
  5  6  2  0
  7  8  2  0
  7  2  1  0
  9  5  1  0
 10  7  1  0
 11 10  1  0
 11 12  1  1
 13 14  2  0
 13 12  1  0
 15 14  1  0
 16 21  2  0
 16 15  1  0
 17 16  1  0
 18 19  1  0
 18 17  2  0
 19 20  2  0
 20 21  1  0
 21 13  1  0
 22 11  1  0
 22 29  1  0
 23 22  2  0
 24 25  1  0
 26 25  1  0
 26 28  1  0
 26 27  1  1
 28 29  1  1
 28 30  1  0
 30 31  2  0
 30 32  1  0
M  END
$$$$
