YTI.pdb
     RDKit          3D

 28 28  0  0  1  0  0  0  0  0999 V2000
    8.6965  -12.5430   16.1352 O   0  0  0  0  0  0  0  0  0  0  0  0
    8.3017  -13.0554   17.3819 C   0  0  0  0  0  0  0  0  0  0  0  0
    6.9915  -13.0578   17.7942 C   0  0  0  0  0  0  0  0  0  0  0  0
    6.5655  -13.5511   19.0089 C   0  0  0  0  0  0  0  0  0  0  0  0
    7.5299  -14.0710   19.8503 C   0  0  0  0  0  0  0  0  0  0  0  0
    7.2083  -14.6211   21.1719 C   0  0  0  0  0  0  0  0  0  0  0  0
    7.2096  -16.1300   21.2380 C   0  0  2  0  0  0  0  0  0  0  0  0
    6.0574  -16.5471   20.4224 N   0  0  0  0  0  0  0  0  0  0  0  0
    7.0410  -16.5443   22.6411 C   0  0  0  0  0  0  0  0  0  0  0  0
    5.9488  -17.0296   23.0651 O   0  0  0  0  0  0  0  0  0  0  0  0
    8.8736  -14.0852   19.4639 C   0  0  0  0  0  0  0  0  0  0  0  0
    9.2507  -13.5822   18.2430 C   0  0  0  0  0  0  0  0  0  0  0  0
    6.7805  -18.9451   23.8605 C   0  0  0  0  0  0  0  0  0  0  0  0
    7.8778  -18.4843   24.7886 C   0  0  1  0  0  0  0  0  0  0  0  0
    9.0799  -18.8661   24.1279 O   0  0  0  0  0  0  0  0  0  0  0  0
    7.8894  -16.9713   24.9923 C   0  0  2  0  0  0  0  0  0  0  0  0
    8.0661  -16.4383   23.6203 N   0  0  0  0  0  0  0  0  0  0  0  0
    9.0361  -16.6002   25.8236 C   0  0  0  0  0  0  0  0  0  0  0  0
   10.1835  -16.5602   25.3137 O   0  0  0  0  0  0  0  0  0  0  0  0
    7.2527  -12.4966   27.7283 C   0  0  0  0  0  0  0  0  0  0  0  0
    8.3336  -13.3929   27.2189 C   0  0  0  0  0  0  0  0  0  0  0  0
    8.9814  -14.1736   28.3447 C   0  0  2  0  0  0  0  0  0  0  0  0
    9.7838  -13.3200   29.2713 C   0  0  0  0  0  0  0  0  0  0  0  0
    9.8350  -15.3154   27.7627 C   0  0  2  0  0  0  0  0  0  0  0  0
    8.8859  -16.2817   27.1856 N   0  0  0  0  0  0  0  0  0  0  0  0
   10.4962  -15.9466   28.9140 C   0  0  0  0  0  0  0  0  0  0  0  0
   10.0451  -17.1512   29.4009 O   0  0  0  0  0  0  0  0  0  0  0  0
   11.4806  -15.3946   29.4678 O   0  0  0  0  0  0  0  0  0  0  0  0
  2  1  1  0
  3  2  2  0
  4  3  1  0
  5 11  1  0
  5  4  2  0
  6  5  1  0
  7  6  1  0
  7  8  1  6
  9  7  1  0
  9 10  2  0
 11 12  2  0
 12  2  1  0
 14 13  1  6
 15 14  1  0
 16 14  1  0
 16 17  1  6
 17  9  1  0
 18 16  1  0
 19 18  2  0
 21 20  1  0
 22 23  1  6
 22 21  1  0
 24 22  1  0
 24 25  1  1
 25 18  1  0
 26 27  1  0
 26 24  1  0
 28 26  2  0
M  END
$$$$
