YTI.pdb
     RDKit          3D

 28 28  0  0  1  0  0  0  0  0999 V2000
    8.7772  -12.8330   15.1131 O   0  0  0  0  0  0  0  0  0  0  0  0
    8.5331  -13.2896   16.4187 C   0  0  0  0  0  0  0  0  0  0  0  0
    9.4909  -13.9339   17.1632 C   0  0  0  0  0  0  0  0  0  0  0  0
    9.2896  -14.3961   18.4462 C   0  0  0  0  0  0  0  0  0  0  0  0
    8.0413  -14.1897   19.0009 C   0  0  0  0  0  0  0  0  0  0  0  0
    7.6973  -14.6384   20.3548 C   0  0  0  0  0  0  0  0  0  0  0  0
    7.7203  -16.1371   20.5413 C   0  0  2  0  0  0  0  0  0  0  0  0
    6.5256  -16.6264   19.8342 N   0  0  0  0  0  0  0  0  0  0  0  0
    7.6423  -16.4381   21.9807 C   0  0  0  0  0  0  0  0  0  0  0  0
    6.5556  -16.3303   22.6253 O   0  0  0  0  0  0  0  0  0  0  0  0
    7.0418  -13.5374   18.2726 C   0  0  0  0  0  0  0  0  0  0  0  0
    7.2891  -13.0942   16.9966 C   0  0  0  0  0  0  0  0  0  0  0  0
    9.5039  -18.9197   25.8044 C   0  0  0  0  0  0  0  0  0  0  0  0
    9.4557  -18.4390   24.3746 C   0  0  1  0  0  0  0  0  0  0  0  0
    8.8217  -19.5003   23.6684 O   0  0  0  0  0  0  0  0  0  0  0  0
    8.6256  -17.1694   24.2007 C   0  0  2  0  0  0  0  0  0  0  0  0
    8.7547  -16.8664   22.7553 N   0  0  0  0  0  0  0  0  0  0  0  0
    9.2166  -16.0886   24.9922 C   0  0  0  0  0  0  0  0  0  0  0  0
   10.3248  -15.6054   24.6506 O   0  0  0  0  0  0  0  0  0  0  0  0
    6.4446  -11.9847   26.2403 C   0  0  0  0  0  0  0  0  0  0  0  0
    7.5659  -12.9266   25.9460 C   0  0  0  0  0  0  0  0  0  0  0  0
    8.1906  -13.4584   27.2202 C   0  0  2  0  0  0  0  0  0  0  0  0
    8.7482  -12.3862   28.0979 C   0  0  0  0  0  0  0  0  0  0  0  0
    9.2638  -14.5074   26.8755 C   0  0  2  0  0  0  0  0  0  0  0  0
    8.5708  -15.5711   26.1298 N   0  0  0  0  0  0  0  0  0  0  0  0
    9.7106  -15.0597   28.1626 C   0  0  0  0  0  0  0  0  0  0  0  0
   10.8227  -14.5489   28.7902 O   0  0  0  0  0  0  0  0  0  0  0  0
    9.0835  -16.0045   28.7052 O   0  0  0  0  0  0  0  0  0  0  0  0
  2  1  1  0
  3  2  2  0
  4  3  1  0
  5 11  1  0
  5  4  2  0
  6  5  1  0
  7  6  1  0
  7  8  1  6
  9  7  1  0
  9 10  2  0
 11 12  2  0
 12  2  1  0
 14 13  1  1
 15 14  1  0
 16 14  1  0
 16 17  1  6
 17  9  1  0
 18 16  1  0
 19 18  2  0
 21 20  1  0
 22 23  1  6
 22 21  1  0
 24 22  1  0
 24 25  1  6
 25 18  1  0
 26 27  1  0
 26 24  1  0
 28 26  2  0
M  END
$$$$
