YTI.pdb
     RDKit          3D

 28 28  0  0  1  0  0  0  0  0999 V2000
    9.6187  -21.1200   30.2206 O   0  0  0  0  0  0  0  0  0  0  0  0
    8.9096  -20.4078   29.2394 C   0  0  0  0  0  0  0  0  0  0  0  0
    9.2951  -19.1597   28.8144 C   0  0  0  0  0  0  0  0  0  0  0  0
    8.6260  -18.4303   27.8551 C   0  0  0  0  0  0  0  0  0  0  0  0
    7.5005  -19.0059   27.2980 C   0  0  0  0  0  0  0  0  0  0  0  0
    6.6967  -18.3315   26.2724 C   0  0  0  0  0  0  0  0  0  0  0  0
    6.8065  -18.9379   24.8935 C   0  0  2  0  0  0  0  0  0  0  0  0
    7.5079  -20.2162   25.0952 N   0  0  0  0  0  0  0  0  0  0  0  0
    7.5928  -18.0334   24.0378 C   0  0  0  0  0  0  0  0  0  0  0  0
    8.8352  -18.2062   23.8513 O   0  0  0  0  0  0  0  0  0  0  0  0
    7.0784  -20.2749   27.7060 C   0  0  0  0  0  0  0  0  0  0  0  0
    7.7778  -20.9643   28.6659 C   0  0  0  0  0  0  0  0  0  0  0  0
    6.5158  -16.2623   20.5958 C   0  0  0  0  0  0  0  0  0  0  0  0
    6.9666  -15.2823   21.6514 C   0  0  1  0  0  0  0  0  0  0  0  0
    5.7624  -14.8849   22.2988 O   0  0  0  0  0  0  0  0  0  0  0  0
    7.8968  -15.9088   22.6873 C   0  0  2  0  0  0  0  0  0  0  0  0
    7.0389  -16.9124   23.3613 N   0  0  0  0  0  0  0  0  0  0  0  0
    8.3167  -14.8858   23.6471 C   0  0  0  0  0  0  0  0  0  0  0  0
    8.2113  -13.6713   23.3435 O   0  0  0  0  0  0  0  0  0  0  0  0
    6.0210  -11.9639   25.6849 C   0  0  0  0  0  0  0  0  0  0  0  0
    7.2955  -12.6011   25.2368 C   0  0  0  0  0  0  0  0  0  0  0  0
    7.8563  -13.5240   26.2998 C   0  0  2  0  0  0  0  0  0  0  0  0
    8.0134  -12.8660   27.6315 C   0  0  0  0  0  0  0  0  0  0  0  0
    9.1893  -14.1251   25.8171 C   0  0  2  0  0  0  0  0  0  0  0  0
    8.8348  -15.2287   24.9093 N   0  0  0  0  0  0  0  0  0  0  0  0
    9.8266  -14.6956   27.0128 C   0  0  0  0  0  0  0  0  0  0  0  0
    9.8523  -16.0572   27.2048 O   0  0  0  0  0  0  0  0  0  0  0  0
   10.3550  -13.9476   27.8741 O   0  0  0  0  0  0  0  0  0  0  0  0
  2  1  1  0
  3  2  2  0
  4  3  1  0
  5 11  1  0
  5  4  2  0
  6  5  1  0
  7  6  1  0
  7  8  1  1
  9  7  1  0
  9 10  2  0
 11 12  2  0
 12  2  1  0
 14 13  1  6
 15 14  1  0
 16 14  1  0
 16 17  1  1
 17  9  1  0
 18 16  1  0
 19 18  2  0
 21 20  1  0
 22 23  1  1
 22 21  1  0
 24 22  1  0
 24 25  1  6
 25 18  1  0
 26 27  1  0
 26 24  1  0
 28 26  2  0
M  END
$$$$
