YTI.pdb
     RDKit          3D

 28 28  0  0  1  0  0  0  0  0999 V2000
    9.4726  -11.6891   17.9504 O   0  0  0  0  0  0  0  0  0  0  0  0
    8.8432  -12.5650   18.8501 C   0  0  0  0  0  0  0  0  0  0  0  0
    9.5454  -13.2975   19.7759 C   0  0  0  0  0  0  0  0  0  0  0  0
    8.9641  -14.1664   20.6744 C   0  0  0  0  0  0  0  0  0  0  0  0
    7.5896  -14.2956   20.6259 C   0  0  0  0  0  0  0  0  0  0  0  0
    6.8507  -15.1912   21.5230 C   0  0  0  0  0  0  0  0  0  0  0  0
    7.2926  -16.6345   21.4683 C   0  0  2  0  0  0  0  0  0  0  0  0
    6.1387  -17.3647   20.9188 N   0  0  0  0  0  0  0  0  0  0  0  0
    7.6031  -17.0885   22.8344 C   0  0  0  0  0  0  0  0  0  0  0  0
    6.6895  -17.3158   23.6839 O   0  0  0  0  0  0  0  0  0  0  0  0
    6.8421  -13.5657   19.6966 C   0  0  0  0  0  0  0  0  0  0  0  0
    7.4657  -12.7115   18.8207 C   0  0  0  0  0  0  0  0  0  0  0  0
    9.5327  -20.1056   23.7231 C   0  0  0  0  0  0  0  0  0  0  0  0
   10.1536  -18.9542   24.4759 C   0  0  1  0  0  0  0  0  0  0  0  0
   11.2192  -18.5202   23.6374 O   0  0  0  0  0  0  0  0  0  0  0  0
    9.1885  -17.7898   24.6850 C   0  0  2  0  0  0  0  0  0  0  0  0
    8.9255  -17.3064   23.3085 N   0  0  0  0  0  0  0  0  0  0  0  0
    9.8508  -16.7418   25.4641 C   0  0  0  0  0  0  0  0  0  0  0  0
   10.6794  -15.9827   24.9026 O   0  0  0  0  0  0  0  0  0  0  0  0
    7.8374  -12.6940   27.2377 C   0  0  0  0  0  0  0  0  0  0  0  0
    8.8470  -13.7150   26.8265 C   0  0  0  0  0  0  0  0  0  0  0  0
    9.3841  -14.4750   28.0225 C   0  0  2  0  0  0  0  0  0  0  0  0
    9.9989  -13.5911   29.0577 C   0  0  0  0  0  0  0  0  0  0  0  0
   10.3782  -15.5524   27.5513 C   0  0  2  0  0  0  0  0  0  0  0  0
    9.5795  -16.5589   26.8323 N   0  0  0  0  0  0  0  0  0  0  0  0
   10.9081  -16.1700   28.7757 C   0  0  0  0  0  0  0  0  0  0  0  0
   10.4257  -17.3833   29.2076 O   0  0  0  0  0  0  0  0  0  0  0  0
   11.8071  -15.5980   29.4428 O   0  0  0  0  0  0  0  0  0  0  0  0
  2  1  1  0
  3  2  2  0
  4  3  1  0
  5 11  1  0
  5  4  2  0
  6  5  1  0
  7  6  1  0
  7  8  1  1
  9  7  1  0
  9 10  2  0
 11 12  2  0
 12  2  1  0
 14 13  1  6
 15 14  1  0
 16 14  1  0
 16 17  1  6
 17  9  1  0
 18 16  1  0
 19 18  2  0
 21 20  1  0
 22 23  1  1
 22 21  1  0
 24 22  1  0
 24 25  1  6
 25 18  1  0
 26 27  1  0
 26 24  1  0
 28 26  2  0
M  END
$$$$
