YTI.pdb
     RDKit          3D

 28 28  0  0  1  0  0  0  0  0999 V2000
   13.6846  -21.8775   31.2041 O   0  0  0  0  0  0  0  0  0  0  0  0
   13.4281  -20.9859   30.1496 C   0  0  0  0  0  0  0  0  0  0  0  0
   12.2510  -21.0034   29.4420 C   0  0  0  0  0  0  0  0  0  0  0  0
   11.9627  -20.1458   28.4020 C   0  0  0  0  0  0  0  0  0  0  0  0
   12.9294  -19.2184   28.0646 C   0  0  0  0  0  0  0  0  0  0  0  0
   12.7487  -18.2539   26.9738 C   0  0  0  0  0  0  0  0  0  0  0  0
   12.7106  -18.8694   25.5951 C   0  0  2  0  0  0  0  0  0  0  0  0
   14.1211  -18.9781   25.1883 N   0  0  0  0  0  0  0  0  0  0  0  0
   11.9688  -17.9714   24.6941 C   0  0  0  0  0  0  0  0  0  0  0  0
   12.4346  -17.6271   23.5660 O   0  0  0  0  0  0  0  0  0  0  0  0
   14.1399  -19.1712   28.7630 C   0  0  0  0  0  0  0  0  0  0  0  0
   14.3822  -20.0467   29.7929 C   0  0  0  0  0  0  0  0  0  0  0  0
   11.0773  -17.9093   22.2304 C   0  0  0  0  0  0  0  0  0  0  0  0
    9.7755  -17.4321   22.8267 C   0  0  1  0  0  0  0  0  0  0  0  0
    9.1137  -18.6273   23.2272 O   0  0  0  0  0  0  0  0  0  0  0  0
    9.9721  -16.5454   24.0539 C   0  0  2  0  0  0  0  0  0  0  0  0
   10.6938  -17.4246   25.0045 N   0  0  0  0  0  0  0  0  0  0  0  0
    8.6658  -16.1797   24.6052 C   0  0  0  0  0  0  0  0  0  0  0  0
    7.9615  -17.0575   25.1633 O   0  0  0  0  0  0  0  0  0  0  0  0
    6.3369  -10.8028   26.5027 C   0  0  0  0  0  0  0  0  0  0  0  0
    6.2947  -12.2957   26.5259 C   0  0  0  0  0  0  0  0  0  0  0  0
    7.0932  -12.8896   25.3830 C   0  0  2  0  0  0  0  0  0  0  0  0
    6.4641  -12.6716   24.0459 C   0  0  0  0  0  0  0  0  0  0  0  0
    7.3395  -14.3872   25.6429 C   0  0  2  0  0  0  0  0  0  0  0  0
    8.1772  -14.8627   24.5294 N   0  0  0  0  0  0  0  0  0  0  0  0
    6.0226  -15.0325   25.5402 C   0  0  0  0  0  0  0  0  0  0  0  0
    5.2077  -15.1298   26.6438 O   0  0  0  0  0  0  0  0  0  0  0  0
    5.6250  -15.5032   24.4444 O   0  0  0  0  0  0  0  0  0  0  0  0
  2  1  1  0
  3  2  2  0
  4  3  1  0
  5 11  1  0
  5  4  2  0
  6  5  1  0
  7  6  1  0
  7  8  1  6
  9  7  1  0
  9 10  2  0
 11 12  2  0
 12  2  1  0
 14 13  1  1
 15 14  1  0
 16 14  1  0
 16 17  1  1
 17  9  1  0
 18 16  1  0
 19 18  2  0
 21 20  1  0
 22 23  1  6
 22 21  1  0
 24 22  1  0
 24 25  1  6
 25 18  1  0
 26 27  1  0
 26 24  1  0
 28 26  2  0
M  END
$$$$
