YTI.pdb
     RDKit          3D

 28 28  0  0  1  0  0  0  0  0999 V2000
   11.0626  -18.0285   28.4412 O   0  0  0  0  0  0  0  0  0  0  0  0
   11.6045  -18.0085   27.1456 C   0  0  0  0  0  0  0  0  0  0  0  0
   12.0783  -19.1411   26.5294 C   0  0  0  0  0  0  0  0  0  0  0  0
   12.6166  -19.1617   25.2605 C   0  0  0  0  0  0  0  0  0  0  0  0
   12.6752  -17.9597   24.5821 C   0  0  0  0  0  0  0  0  0  0  0  0
   13.2304  -17.8456   23.2288 C   0  0  0  0  0  0  0  0  0  0  0  0
   12.1991  -17.8745   22.1257 C   0  0  2  0  0  0  0  0  0  0  0  0
   12.9765  -17.8158   20.8771 N   0  0  0  0  0  0  0  0  0  0  0  0
   11.3262  -16.6962   22.2602 C   0  0  0  0  0  0  0  0  0  0  0  0
   11.7823  -15.5164   22.1710 O   0  0  0  0  0  0  0  0  0  0  0  0
   12.2023  -16.7865   25.1779 C   0  0  0  0  0  0  0  0  0  0  0  0
   11.6738  -16.8151   26.4451 C   0  0  0  0  0  0  0  0  0  0  0  0
    8.5563  -15.6133   20.1823 C   0  0  0  0  0  0  0  0  0  0  0  0
    8.0149  -15.7278   21.5865 C   0  0  1  0  0  0  0  0  0  0  0  0
    7.4993  -17.0530   21.6571 O   0  0  0  0  0  0  0  0  0  0  0  0
    9.0924  -15.5629   22.6555 C   0  0  2  0  0  0  0  0  0  0  0  0
    9.9267  -16.7780   22.4967 N   0  0  0  0  0  0  0  0  0  0  0  0
    8.4679  -15.5557   23.9798 C   0  0  0  0  0  0  0  0  0  0  0  0
    8.5525  -16.5745   24.7099 O   0  0  0  0  0  0  0  0  0  0  0  0
    7.3993  -10.7778   26.3061 C   0  0  0  0  0  0  0  0  0  0  0  0
    7.8287  -12.2023   26.1734 C   0  0  0  0  0  0  0  0  0  0  0  0
    6.6378  -13.1389   26.1453 C   0  0  2  0  0  0  0  0  0  0  0  0
    5.8642  -13.1507   27.4230 C   0  0  0  0  0  0  0  0  0  0  0  0
    7.0997  -14.5572   25.7631 C   0  0  2  0  0  0  0  0  0  0  0  0
    7.7746  -14.4300   24.4608 N   0  0  0  0  0  0  0  0  0  0  0  0
    5.8700  -15.3402   25.5731 C   0  0  0  0  0  0  0  0  0  0  0  0
    5.4020  -16.1550   26.5774 O   0  0  0  0  0  0  0  0  0  0  0  0
    5.2317  -15.2758   24.4920 O   0  0  0  0  0  0  0  0  0  0  0  0
  2  1  1  0
  3  2  2  0
  4  3  1  0
  5 11  1  0
  5  4  2  0
  6  5  1  0
  7  6  1  0
  7  8  1  6
  9  7  1  0
  9 10  2  0
 11 12  2  0
 12  2  1  0
 14 13  1  6
 15 14  1  0
 16 14  1  0
 16 17  1  1
 17  9  1  0
 18 16  1  0
 19 18  2  0
 21 20  1  0
 22 23  1  1
 22 21  1  0
 24 22  1  0
 24 25  1  6
 25 18  1  0
 26 27  1  0
 26 24  1  0
 28 26  2  0
M  END
$$$$
