YTI.pdb
     RDKit          3D

 28 28  0  0  1  0  0  0  0  0999 V2000
   15.0319  -22.7518   24.3074 O   0  0  0  0  0  0  0  0  0  0  0  0
   14.5441  -21.4968   23.9075 C   0  0  0  0  0  0  0  0  0  0  0  0
   15.3723  -20.4901   23.4746 C   0  0  0  0  0  0  0  0  0  0  0  0
   14.9318  -19.2467   23.0744 C   0  0  0  0  0  0  0  0  0  0  0  0
   13.5703  -19.0171   23.1185 C   0  0  0  0  0  0  0  0  0  0  0  0
   12.9748  -17.7350   22.7254 C   0  0  0  0  0  0  0  0  0  0  0  0
   12.2010  -17.7767   21.4290 C   0  0  2  0  0  0  0  0  0  0  0  0
   13.2088  -17.5626   20.3777 N   0  0  0  0  0  0  0  0  0  0  0  0
   11.2053  -16.6916   21.4348 C   0  0  0  0  0  0  0  0  0  0  0  0
   11.4543  -15.5571   20.9260 O   0  0  0  0  0  0  0  0  0  0  0  0
   12.6970  -20.0186   23.5536 C   0  0  0  0  0  0  0  0  0  0  0  0
   13.1826  -21.2428   23.9426 C   0  0  0  0  0  0  0  0  0  0  0  0
    6.5385  -15.1911   21.7291 C   0  0  0  0  0  0  0  0  0  0  0  0
    7.6331  -16.2302   21.7376 C   0  0  1  0  0  0  0  0  0  0  0  0
    7.6941  -16.6868   20.3904 O   0  0  0  0  0  0  0  0  0  0  0  0
    8.9947  -15.6578   22.1237 C   0  0  2  0  0  0  0  0  0  0  0  0
    9.9069  -16.8197   21.9994 N   0  0  0  0  0  0  0  0  0  0  0  0
    8.9547  -15.2010   23.5143 C   0  0  0  0  0  0  0  0  0  0  0  0
    9.5874  -15.8372   24.3935 O   0  0  0  0  0  0  0  0  0  0  0  0
    6.2664  -10.9189   27.0921 C   0  0  0  0  0  0  0  0  0  0  0  0
    7.1426  -12.1167   26.9232 C   0  0  0  0  0  0  0  0  0  0  0  0
    7.2083  -12.5542   25.4739 C   0  0  2  0  0  0  0  0  0  0  0  0
    5.8784  -12.9336   24.9095 C   0  0  0  0  0  0  0  0  0  0  0  0
    8.2235  -13.7021   25.3219 C   0  0  2  0  0  0  0  0  0  0  0  0
    8.2252  -14.0595   23.8937 N   0  0  0  0  0  0  0  0  0  0  0  0
    7.6667  -14.8310   26.0813 C   0  0  0  0  0  0  0  0  0  0  0  0
    8.0553  -15.0539   27.3816 O   0  0  0  0  0  0  0  0  0  0  0  0
    6.8299  -15.6063   25.5529 O   0  0  0  0  0  0  0  0  0  0  0  0
  2  1  1  0
  3  2  2  0
  4  3  1  0
  5 11  1  0
  5  4  2  0
  6  5  1  0
  7  6  1  0
  7  8  1  6
  9  7  1  0
  9 10  2  0
 11 12  2  0
 12  2  1  0
 14 13  1  6
 15 14  1  0
 16 14  1  0
 16 17  1  1
 17  9  1  0
 18 16  1  0
 19 18  2  0
 21 20  1  0
 22 23  1  1
 22 21  1  0
 24 22  1  0
 24 25  1  6
 25 18  1  0
 26 27  1  0
 26 24  1  0
 28 26  2  0
M  END
$$$$
