YTI.pdb
     RDKit          3D

 28 28  0  0  1  0  0  0  0  0999 V2000
    7.8914  -11.6873   16.5277 O   0  0  0  0  0  0  0  0  0  0  0  0
    7.7877  -12.5011   17.6677 C   0  0  0  0  0  0  0  0  0  0  0  0
    6.6912  -13.2926   17.9086 C   0  0  0  0  0  0  0  0  0  0  0  0
    6.5528  -14.1038   19.0146 C   0  0  0  0  0  0  0  0  0  0  0  0
    7.5908  -14.1078   19.9260 C   0  0  0  0  0  0  0  0  0  0  0  0
    7.5642  -14.9220   21.1463 C   0  0  0  0  0  0  0  0  0  0  0  0
    8.3514  -16.2079   21.0570 C   0  0  2  0  0  0  0  0  0  0  0  0
    7.5975  -17.0503   20.1142 N   0  0  0  0  0  0  0  0  0  0  0  0
    8.4040  -16.8267   22.3923 C   0  0  0  0  0  0  0  0  0  0  0  0
    7.3767  -17.3425   22.9277 O   0  0  0  0  0  0  0  0  0  0  0  0
    8.7228  -13.3149   19.7136 C   0  0  0  0  0  0  0  0  0  0  0  0
    8.8159  -12.5223   18.5961 C   0  0  0  0  0  0  0  0  0  0  0  0
    9.6722  -19.7841   23.6230 C   0  0  0  0  0  0  0  0  0  0  0  0
   10.3693  -18.7307   24.4491 C   0  0  1  0  0  0  0  0  0  0  0  0
   11.5727  -18.4649   23.7364 O   0  0  0  0  0  0  0  0  0  0  0  0
    9.5689  -17.4353   24.5608 C   0  0  2  0  0  0  0  0  0  0  0  0
    9.5856  -16.8976   23.1795 N   0  0  0  0  0  0  0  0  0  0  0  0
   10.2590  -16.5125   25.4642 C   0  0  0  0  0  0  0  0  0  0  0  0
   11.2431  -15.8544   25.0439 O   0  0  0  0  0  0  0  0  0  0  0  0
    7.6683  -12.9115   27.6426 C   0  0  0  0  0  0  0  0  0  0  0  0
    8.7652  -13.7696   27.1026 C   0  0  0  0  0  0  0  0  0  0  0  0
    9.5620  -14.4160   28.2178 C   0  0  2  0  0  0  0  0  0  0  0  0
   10.2082  -13.4278   29.1327 C   0  0  0  0  0  0  0  0  0  0  0  0
   10.6017  -15.3831   27.6220 C   0  0  2  0  0  0  0  0  0  0  0  0
    9.8446  -16.3394   26.7974 N   0  0  0  0  0  0  0  0  0  0  0  0
   11.1737  -16.1087   28.7654 C   0  0  0  0  0  0  0  0  0  0  0  0
   12.3012  -15.6364   29.3955 O   0  0  0  0  0  0  0  0  0  0  0  0
   10.6409  -17.1688   29.1812 O   0  0  0  0  0  0  0  0  0  0  0  0
  2  1  1  0
  3  2  2  0
  4  3  1  0
  5 11  1  0
  5  4  2  0
  6  5  1  0
  7  6  1  0
  7  8  1  6
  9  7  1  0
  9 10  2  0
 11 12  2  0
 12  2  1  0
 14 13  1  6
 15 14  1  0
 16 14  1  0
 16 17  1  6
 17  9  1  0
 18 16  1  0
 19 18  2  0
 21 20  1  0
 22 23  1  6
 22 21  1  0
 24 22  1  0
 24 25  1  6
 25 18  1  0
 26 27  1  0
 26 24  1  0
 28 26  2  0
M  END
$$$$
