YTI.pdb
     RDKit          3D

 28 28  0  0  1  0  0  0  0  0999 V2000
    8.5043  -13.1661   15.1021 O   0  0  0  0  0  0  0  0  0  0  0  0
    8.2016  -13.5312   16.4242 C   0  0  0  0  0  0  0  0  0  0  0  0
    7.0068  -13.2095   17.0205 C   0  0  0  0  0  0  0  0  0  0  0  0
    6.6735  -13.5496   18.3141 C   0  0  0  0  0  0  0  0  0  0  0  0
    7.6116  -14.2575   19.0403 C   0  0  0  0  0  0  0  0  0  0  0  0
    7.3822  -14.6743   20.4283 C   0  0  0  0  0  0  0  0  0  0  0  0
    7.5498  -16.1554   20.6719 C   0  0  2  0  0  0  0  0  0  0  0  0
    6.5834  -16.8008   19.7684 N   0  0  0  0  0  0  0  0  0  0  0  0
    7.2306  -16.4445   22.0802 C   0  0  0  0  0  0  0  0  0  0  0  0
    6.1245  -16.9639   22.4188 O   0  0  0  0  0  0  0  0  0  0  0  0
    8.8388  -14.6025   18.4659 C   0  0  0  0  0  0  0  0  0  0  0  0
    9.1263  -14.2415   17.1725 C   0  0  0  0  0  0  0  0  0  0  0  0
    6.7296  -18.6277   23.4982 C   0  0  0  0  0  0  0  0  0  0  0  0
    7.7712  -18.1133   24.4617 C   0  0  1  0  0  0  0  0  0  0  0  0
    9.0065  -18.5677   23.9190 O   0  0  0  0  0  0  0  0  0  0  0  0
    7.8034  -16.5893   24.5462 C   0  0  2  0  0  0  0  0  0  0  0  0
    8.1161  -16.1720   23.1585 N   0  0  0  0  0  0  0  0  0  0  0  0
    8.8803  -16.1738   25.4471 C   0  0  0  0  0  0  0  0  0  0  0  0
   10.0734  -16.2453   25.0603 O   0  0  0  0  0  0  0  0  0  0  0  0
    7.2883  -11.8271   27.2179 C   0  0  0  0  0  0  0  0  0  0  0  0
    8.1864  -12.9178   26.7333 C   0  0  0  0  0  0  0  0  0  0  0  0
    8.9089  -13.5914   27.8826 C   0  0  2  0  0  0  0  0  0  0  0  0
    9.8441  -12.6806   28.6084 C   0  0  0  0  0  0  0  0  0  0  0  0
    9.6404  -14.8471   27.3735 C   0  0  2  0  0  0  0  0  0  0  0  0
    8.6127  -15.6903   26.7408 N   0  0  0  0  0  0  0  0  0  0  0  0
   10.1314  -15.5379   28.5746 C   0  0  0  0  0  0  0  0  0  0  0  0
   11.3566  -15.2162   29.1103 O   0  0  0  0  0  0  0  0  0  0  0  0
    9.4393  -16.4305   29.1267 O   0  0  0  0  0  0  0  0  0  0  0  0
  2  1  1  0
  3  2  2  0
  4  3  1  0
  5 11  1  0
  5  4  2  0
  6  5  1  0
  7  6  1  0
  7  8  1  6
  9  7  1  0
  9 10  2  0
 11 12  2  0
 12  2  1  0
 14 13  1  6
 15 14  1  0
 16 14  1  0
 16 17  1  6
 17  9  1  0
 18 16  1  0
 19 18  2  0
 21 20  1  0
 22 23  1  6
 22 21  1  0
 24 22  1  0
 24 25  1  1
 25 18  1  0
 26 27  1  0
 26 24  1  0
 28 26  2  0
M  END
$$$$
