YTI.pdb
     RDKit          3D

 28 28  0  0  1  0  0  0  0  0999 V2000
    8.0646  -12.4537   15.2229 O   0  0  0  0  0  0  0  0  0  0  0  0
    7.9638  -13.0216   16.5036 C   0  0  0  0  0  0  0  0  0  0  0  0
    9.0279  -13.6295   17.1240 C   0  0  0  0  0  0  0  0  0  0  0  0
    8.9682  -14.1975   18.3786 C   0  0  0  0  0  0  0  0  0  0  0  0
    7.7552  -14.1425   19.0374 C   0  0  0  0  0  0  0  0  0  0  0  0
    7.5584  -14.7148   20.3740 C   0  0  0  0  0  0  0  0  0  0  0  0
    7.8239  -16.1990   20.4637 C   0  0  2  0  0  0  0  0  0  0  0  0
    6.7470  -16.8257   19.6799 N   0  0  0  0  0  0  0  0  0  0  0  0
    7.7563  -16.6093   21.8764 C   0  0  0  0  0  0  0  0  0  0  0  0
    6.6539  -16.6691   22.5001 O   0  0  0  0  0  0  0  0  0  0  0  0
    6.6503  -13.5315   18.4368 C   0  0  0  0  0  0  0  0  0  0  0  0
    6.7577  -12.9787   17.1843 C   0  0  0  0  0  0  0  0  0  0  0  0
    9.5186  -19.5701   23.6194 C   0  0  0  0  0  0  0  0  0  0  0  0
    9.8320  -18.2947   24.3630 C   0  0  1  0  0  0  0  0  0  0  0  0
   11.0897  -17.8824   23.8385 O   0  0  0  0  0  0  0  0  0  0  0  0
    8.8087  -17.1904   24.1091 C   0  0  2  0  0  0  0  0  0  0  0  0
    8.8969  -16.9661   22.6464 N   0  0  0  0  0  0  0  0  0  0  0  0
    9.2119  -15.9785   24.8252 C   0  0  0  0  0  0  0  0  0  0  0  0
   10.1020  -15.2383   24.3376 O   0  0  0  0  0  0  0  0  0  0  0  0
    7.1959  -11.1270   27.3687 C   0  0  0  0  0  0  0  0  0  0  0  0
    8.2750  -12.1549   27.4690 C   0  0  0  0  0  0  0  0  0  0  0  0
    7.8913  -13.4320   26.7492 C   0  0  2  0  0  0  0  0  0  0  0  0
    6.7013  -14.1114   27.3437 C   0  0  0  0  0  0  0  0  0  0  0  0
    9.1020  -14.3818   26.6927 C   0  0  2  0  0  0  0  0  0  0  0  0
    8.6226  -15.6169   26.0504 N   0  0  0  0  0  0  0  0  0  0  0  0
    9.4362  -14.6868   28.0914 C   0  0  0  0  0  0  0  0  0  0  0  0
    9.1425  -15.9204   28.6237 O   0  0  0  0  0  0  0  0  0  0  0  0
    9.9934  -13.8254   28.8181 O   0  0  0  0  0  0  0  0  0  0  0  0
  2  1  1  0
  3  2  2  0
  4  3  1  0
  5 11  1  0
  5  4  2  0
  6  5  1  0
  7  6  1  0
  7  8  1  6
  9  7  1  0
  9 10  2  0
 11 12  2  0
 12  2  1  0
 14 13  1  6
 15 14  1  0
 16 14  1  0
 16 17  1  6
 17  9  1  0
 18 16  1  0
 19 18  2  0
 21 20  1  0
 22 23  1  1
 22 21  1  0
 24 22  1  0
 24 25  1  6
 25 18  1  0
 26 27  1  0
 26 24  1  0
 28 26  2  0
M  END
$$$$
