SQE.pdb
     RDKit          3D

 25 24  0  0  1  0  0  0  0  0999 V2000
   16.5560  -12.9991  -13.6240 O   0  0  0  0  0  0  0  0  0  0  0  0
   16.3871  -11.7120  -14.1778 C   0  0  0  0  0  0  0  0  0  0  0  0
   15.2764  -11.0528  -13.3619 C   0  0  2  0  0  0  0  0  0  0  0  0
   14.0790  -11.1310  -14.1620 N   0  0  0  0  0  0  0  0  0  0  0  0
   15.5824   -9.6449  -13.0708 C   0  0  0  0  0  0  0  0  0  0  0  0
   15.3313   -8.7431  -13.9325 O   0  0  0  0  0  0  0  0  0  0  0  0
   15.1580   -6.8990   -7.7029 N   0  0  0  0  0  0  0  0  0  0  0  0
   15.7872   -5.8235   -8.3781 C   0  0  0  0  0  0  0  0  0  0  0  0
   15.8789   -4.7236   -7.7806 O   0  0  0  0  0  0  0  0  0  0  0  0
   16.3011   -6.0577   -9.7503 C   0  0  0  0  0  0  0  0  0  0  0  0
   15.9915   -7.4696  -10.1218 C   0  0  0  0  0  0  0  0  0  0  0  0
   16.4588   -7.8491  -11.5055 C   0  0  2  0  0  0  0  0  0  0  0  0
   16.1600   -9.2220  -11.8443 N   0  0  0  0  0  0  0  0  0  0  0  0
   17.9054   -7.5540  -11.6996 C   0  0  0  0  0  0  0  0  0  0  0  0
   18.7579   -8.0144  -10.8971 O   0  0  0  0  0  0  0  0  0  0  0  0
   18.4018   -6.7599  -12.7676 N   0  0  0  0  0  0  0  0  0  0  0  0
   19.8302   -6.5276  -12.9647 C   0  0  1  0  0  0  0  0  0  0  0  0
   20.4077   -7.3943  -14.0142 C   0  0  0  0  0  0  0  0  0  0  0  0
   21.8389   -7.2681  -14.3450 C   0  0  0  0  0  0  0  0  0  0  0  0
   22.4370   -8.1002  -15.3563 C   0  0  0  0  0  0  0  0  0  0  0  0
   23.1168   -7.7092  -16.3021 O   0  0  0  0  0  0  0  0  0  0  0  0
   20.1587   -5.1095  -13.0351 C   0  0  0  0  0  0  0  0  0  0  0  0
   19.1780   -4.1647  -13.4017 O   0  0  0  0  0  0  0  0  0  0  0  0
   22.2348   -9.4938  -15.2695 O   0  0  0  0  0  0  0  0  0  0  0  0
   21.3008   -4.6438  -12.7876 O   0  0  0  0  0  0  0  0  0  0  0  0
  2  1  1  0
  2  3  1  0
  3  5  1  0
  3  4  1  6
  5  6  2  0
  7  8  1  0
  8  9  2  0
 10  8  1  0
 10 11  1  0
 12 11  1  1
 13 12  1  0
 13  5  1  0
 14 16  1  0
 14 12  1  0
 15 14  2  0
 17 18  1  6
 17 16  1  0
 19 18  1  0
 20 24  1  0
 20 19  1  0
 21 20  2  0
 22 23  1  0
 22 17  1  0
 25 22  2  0
M  END
$$$$
