SQE.pdb
     RDKit          3D

 25 24  0  0  1  0  0  0  0  0999 V2000
   20.5562  -11.2677  -14.7076 O   0  0  0  0  0  0  0  0  0  0  0  0
   19.7350  -10.1226  -14.6268 C   0  0  0  0  0  0  0  0  0  0  0  0
   18.2982  -10.6410  -14.6514 C   0  0  2  0  0  0  0  0  0  0  0  0
   17.8739  -10.6060  -16.0294 N   0  0  0  0  0  0  0  0  0  0  0  0
   17.4062   -9.8001  -13.8406 C   0  0  0  0  0  0  0  0  0  0  0  0
   16.8800   -8.7554  -14.3412 O   0  0  0  0  0  0  0  0  0  0  0  0
   13.4078  -11.6476   -9.7425 N   0  0  0  0  0  0  0  0  0  0  0  0
   13.2461  -10.2586   -9.5129 C   0  0  0  0  0  0  0  0  0  0  0  0
   12.2703   -9.8844   -8.8178 O   0  0  0  0  0  0  0  0  0  0  0  0
   14.2371   -9.3267  -10.1057 C   0  0  0  0  0  0  0  0  0  0  0  0
   15.2165  -10.1356  -10.8892 C   0  0  0  0  0  0  0  0  0  0  0  0
   16.2160   -9.3034  -11.6543 C   0  0  2  0  0  0  0  0  0  0  0  0
   17.0891  -10.0974  -12.4885 N   0  0  0  0  0  0  0  0  0  0  0  0
   17.0010   -8.4163  -10.7520 C   0  0  0  0  0  0  0  0  0  0  0  0
   17.9412   -8.8886  -10.0622 O   0  0  0  0  0  0  0  0  0  0  0  0
   16.7490   -7.0251  -10.6150 N   0  0  0  0  0  0  0  0  0  0  0  0
   17.6281   -6.1480   -9.8463 C   0  0  1  0  0  0  0  0  0  0  0  0
   19.0445   -6.2631  -10.2544 C   0  0  0  0  0  0  0  0  0  0  0  0
   19.6009   -5.2850  -11.2072 C   0  0  0  0  0  0  0  0  0  0  0  0
   20.9962   -5.3131  -11.5606 C   0  0  0  0  0  0  0  0  0  0  0  0
   21.5492   -4.5750  -12.3723 O   0  0  0  0  0  0  0  0  0  0  0  0
   17.0932   -4.7984   -9.7176 C   0  0  0  0  0  0  0  0  0  0  0  0
   17.6120   -3.9116   -8.7515 O   0  0  0  0  0  0  0  0  0  0  0  0
   21.8188   -6.2685  -10.9272 O   0  0  0  0  0  0  0  0  0  0  0  0
   16.1605   -4.3457  -10.4301 O   0  0  0  0  0  0  0  0  0  0  0  0
  2  1  1  0
  2  3  1  0
  3  5  1  0
  3  4  1  6
  5  6  2  0
  7  8  1  0
  8  9  2  0
 10  8  1  0
 10 11  1  0
 12 11  1  1
 13 12  1  0
 13  5  1  0
 14 16  1  0
 14 12  1  0
 15 14  2  0
 17 18  1  6
 17 16  1  0
 19 18  1  0
 20 24  1  0
 20 19  1  0
 21 20  2  0
 22 23  1  0
 22 17  1  0
 25 22  2  0
M  END
$$$$
