SQE.pdb
     RDKit          3D

 25 24  0  0  1  0  0  0  0  0999 V2000
   22.8233  -12.7354  -15.5091 O   0  0  0  0  0  0  0  0  0  0  0  0
   22.2413  -11.4509  -15.5648 C   0  0  0  0  0  0  0  0  0  0  0  0
   20.7435  -11.6830  -15.7557 C   0  0  2  0  0  0  0  0  0  0  0  0
   20.5556  -12.0244  -17.1443 N   0  0  0  0  0  0  0  0  0  0  0  0
   19.9647  -10.4782  -15.4356 C   0  0  0  0  0  0  0  0  0  0  0  0
   19.7096   -9.6209  -16.3405 O   0  0  0  0  0  0  0  0  0  0  0  0
   16.1352   -9.4910  -10.5700 N   0  0  0  0  0  0  0  0  0  0  0  0
   15.7007  -10.1379  -11.7537 C   0  0  0  0  0  0  0  0  0  0  0  0
   14.6349  -10.7991  -11.7083 O   0  0  0  0  0  0  0  0  0  0  0  0
   16.5283   -9.9975  -12.9773 C   0  0  0  0  0  0  0  0  0  0  0  0
   17.7774   -9.2700  -12.6059 C   0  0  0  0  0  0  0  0  0  0  0  0
   18.7097   -9.0329  -13.7684 C   0  0  2  0  0  0  0  0  0  0  0  0
   19.4657  -10.2094  -14.1334 N   0  0  0  0  0  0  0  0  0  0  0  0
   19.6114   -7.8732  -13.5249 C   0  0  0  0  0  0  0  0  0  0  0  0
   20.8161   -8.0629  -13.2160 O   0  0  0  0  0  0  0  0  0  0  0  0
   19.1856   -6.5216  -13.6220 N   0  0  0  0  0  0  0  0  0  0  0  0
   20.1308   -5.4085  -13.6439 C   0  0  1  0  0  0  0  0  0  0  0  0
   21.2838   -5.6591  -14.5348 C   0  0  0  0  0  0  0  0  0  0  0  0
   22.3108   -4.6134  -14.6945 C   0  0  0  0  0  0  0  0  0  0  0  0
   23.4066   -4.7914  -15.6112 C   0  0  0  0  0  0  0  0  0  0  0  0
   24.2451   -5.6883  -15.5668 O   0  0  0  0  0  0  0  0  0  0  0  0
   19.4676   -4.1181  -13.7816 C   0  0  0  0  0  0  0  0  0  0  0  0
   20.0587   -2.9497  -13.2578 O   0  0  0  0  0  0  0  0  0  0  0  0
   23.5461   -3.8608  -16.6625 O   0  0  0  0  0  0  0  0  0  0  0  0
   18.3579   -3.9603  -14.3526 O   0  0  0  0  0  0  0  0  0  0  0  0
  2  1  1  0
  2  3  1  0
  3  5  1  0
  3  4  1  6
  5  6  2  0
  7  8  1  0
  8  9  2  0
 10  8  1  0
 10 11  1  0
 12 11  1  1
 13 12  1  0
 13  5  1  0
 14 16  1  0
 14 12  1  0
 15 14  2  0
 17 18  1  6
 17 16  1  0
 19 18  1  0
 20 24  1  0
 20 19  1  0
 21 20  2  0
 22 23  1  0
 22 17  1  0
 25 22  2  0
M  END
$$$$
