SQE.pdb
     RDKit          3D

 25 24  0  0  1  0  0  0  0  0999 V2000
   21.6229  -13.1399  -15.1884 O   0  0  0  0  0  0  0  0  0  0  0  0
   21.1641  -11.8782  -15.6239 C   0  0  0  0  0  0  0  0  0  0  0  0
   20.0308  -12.1664  -16.6068 C   0  0  2  0  0  0  0  0  0  0  0  0
   20.6513  -12.6365  -17.8210 N   0  0  0  0  0  0  0  0  0  0  0  0
   19.2430  -10.9590  -16.8927 C   0  0  0  0  0  0  0  0  0  0  0  0
   19.3784  -10.3535  -18.0035 O   0  0  0  0  0  0  0  0  0  0  0  0
   13.4677  -10.2897  -16.3181 N   0  0  0  0  0  0  0  0  0  0  0  0
   13.7078   -8.8982  -16.4395 C   0  0  0  0  0  0  0  0  0  0  0  0
   12.7165   -8.1319  -16.5130 O   0  0  0  0  0  0  0  0  0  0  0  0
   15.1144   -8.4267  -16.4727 C   0  0  0  0  0  0  0  0  0  0  0  0
   15.9989   -9.6022  -16.2219 C   0  0  0  0  0  0  0  0  0  0  0  0
   17.4701   -9.2672  -16.2308 C   0  0  2  0  0  0  0  0  0  0  0  0
   18.3107  -10.4137  -15.9705 N   0  0  0  0  0  0  0  0  0  0  0  0
   17.7872   -8.1501  -15.2986 C   0  0  0  0  0  0  0  0  0  0  0  0
   18.2214   -8.3945  -14.1434 O   0  0  0  0  0  0  0  0  0  0  0  0
   17.6260   -6.7809  -15.6404 N   0  0  0  0  0  0  0  0  0  0  0  0
   18.3588   -5.7178  -14.9577 C   0  0  1  0  0  0  0  0  0  0  0  0
   19.7869   -6.0467  -14.7621 C   0  0  0  0  0  0  0  0  0  0  0  0
   20.6600   -5.0805  -14.0709 C   0  0  0  0  0  0  0  0  0  0  0  0
   22.0453   -5.3852  -13.8242 C   0  0  0  0  0  0  0  0  0  0  0  0
   22.4845   -6.4519  -13.4014 O   0  0  0  0  0  0  0  0  0  0  0  0
   18.0610   -4.3989  -15.5016 C   0  0  0  0  0  0  0  0  0  0  0  0
   18.0872   -3.2593  -14.6713 O   0  0  0  0  0  0  0  0  0  0  0  0
   22.9995   -4.3794  -14.0859 O   0  0  0  0  0  0  0  0  0  0  0  0
   17.7649   -4.1906  -16.7064 O   0  0  0  0  0  0  0  0  0  0  0  0
  2  1  1  0
  2  3  1  0
  3  5  1  0
  3  4  1  6
  5  6  2  0
  7  8  1  0
  8  9  2  0
 10  8  1  0
 10 11  1  0
 12 11  1  1
 13 12  1  0
 13  5  1  0
 14 16  1  0
 14 12  1  0
 15 14  2  0
 17 18  1  6
 17 16  1  0
 19 18  1  0
 20 24  1  0
 20 19  1  0
 21 20  2  0
 22 23  1  0
 22 17  1  0
 25 22  2  0
M  END
$$$$
