SQE.pdb
     RDKit          3D

 25 24  0  0  1  0  0  0  0  0999 V2000
   25.8616  -18.2407  -16.7278 O   0  0  0  0  0  0  0  0  0  0  0  0
   26.8878  -18.0714  -15.7738 C   0  0  0  0  0  0  0  0  0  0  0  0
   27.3240  -19.4815  -15.3802 C   0  0  2  0  0  0  0  0  0  0  0  0
   27.7622  -20.1279  -16.5928 N   0  0  0  0  0  0  0  0  0  0  0  0
   26.2159  -20.2448  -14.7887 C   0  0  0  0  0  0  0  0  0  0  0  0
   25.6270  -21.1477  -15.4646 O   0  0  0  0  0  0  0  0  0  0  0  0
   24.7040  -20.6481   -8.7105 N   0  0  0  0  0  0  0  0  0  0  0  0
   25.9590  -20.9489   -9.2961 C   0  0  0  0  0  0  0  0  0  0  0  0
   26.9514  -21.0691   -8.5371 O   0  0  0  0  0  0  0  0  0  0  0  0
   26.0291  -21.1046  -10.7701 C   0  0  0  0  0  0  0  0  0  0  0  0
   24.7096  -20.7001  -11.3379 C   0  0  0  0  0  0  0  0  0  0  0  0
   24.6599  -20.7406  -12.8455 C   0  0  2  0  0  0  0  0  0  0  0  0
   25.7518  -20.0243  -13.4647 N   0  0  0  0  0  0  0  0  0  0  0  0
   23.3476  -20.2684  -13.3671 C   0  0  0  0  0  0  0  0  0  0  0  0
   23.2762  -19.1968  -14.0224 O   0  0  0  0  0  0  0  0  0  0  0  0
   22.1305  -20.9726  -13.1663 N   0  0  0  0  0  0  0  0  0  0  0  0
   20.9680  -20.7773  -14.0287 C   0  0  1  0  0  0  0  0  0  0  0  0
   21.3145  -20.8086  -15.4658 C   0  0  0  0  0  0  0  0  0  0  0  0
   20.6765  -19.8450  -16.3812 C   0  0  0  0  0  0  0  0  0  0  0  0
   19.9278  -20.2996  -17.5238 C   0  0  0  0  0  0  0  0  0  0  0  0
   19.7211  -21.4713  -17.8305 O   0  0  0  0  0  0  0  0  0  0  0  0
   19.8265  -21.5831  -13.6146 C   0  0  0  0  0  0  0  0  0  0  0  0
   18.5524  -20.9968  -13.4663 O   0  0  0  0  0  0  0  0  0  0  0  0
   19.3737  -19.3252  -18.3806 O   0  0  0  0  0  0  0  0  0  0  0  0
   19.8943  -22.8139  -13.3638 O   0  0  0  0  0  0  0  0  0  0  0  0
  2  1  1  0
  2  3  1  0
  3  5  1  0
  3  4  1  6
  5  6  2  0
  7  8  1  0
  8  9  2  0
 10  8  1  0
 10 11  1  0
 12 11  1  1
 13 12  1  0
 13  5  1  0
 14 16  1  0
 14 12  1  0
 15 14  2  0
 17 18  1  6
 17 16  1  0
 19 18  1  0
 20 24  1  0
 20 19  1  0
 21 20  2  0
 22 23  1  0
 22 17  1  0
 25 22  2  0
M  END
$$$$
