SQE.pdb
     RDKit          3D

 25 24  0  0  1  0  0  0  0  0999 V2000
   17.9031  -11.6777  -18.7231 O   0  0  0  0  0  0  0  0  0  0  0  0
   18.7137  -10.8637  -17.9032 C   0  0  0  0  0  0  0  0  0  0  0  0
   19.7179  -11.8085  -17.2454 C   0  0  2  0  0  0  0  0  0  0  0  0
   18.9609  -12.6581  -16.3592 N   0  0  0  0  0  0  0  0  0  0  0  0
   20.7292  -11.0711  -16.4749 C   0  0  0  0  0  0  0  0  0  0  0  0
   20.4127  -10.5012  -15.3822 O   0  0  0  0  0  0  0  0  0  0  0  0
   26.8652  -11.7878  -16.9134 N   0  0  0  0  0  0  0  0  0  0  0  0
   26.8749  -10.6181  -16.1133 C   0  0  0  0  0  0  0  0  0  0  0  0
   27.9790  -10.2090  -15.6785 O   0  0  0  0  0  0  0  0  0  0  0  0
   25.5824   -9.9443  -15.8353 C   0  0  0  0  0  0  0  0  0  0  0  0
   24.5001  -10.7420  -16.4829 C   0  0  0  0  0  0  0  0  0  0  0  0
   23.1101  -10.2456  -16.1691 C   0  0  2  0  0  0  0  0  0  0  0  0
   22.0811  -10.9556  -16.8944 N   0  0  0  0  0  0  0  0  0  0  0  0
   22.9899   -8.7756  -16.3737 C   0  0  0  0  0  0  0  0  0  0  0  0
   22.9023   -8.3041  -17.5369 O   0  0  0  0  0  0  0  0  0  0  0  0
   22.9670   -7.8398  -15.3054 N   0  0  0  0  0  0  0  0  0  0  0  0
   22.5375   -6.4565  -15.4928 C   0  0  1  0  0  0  0  0  0  0  0  0
   21.3183   -6.3471  -16.3219 C   0  0  0  0  0  0  0  0  0  0  0  0
   20.6649   -5.0338  -16.4716 C   0  0  0  0  0  0  0  0  0  0  0  0
   19.4902   -4.8849  -17.2904 C   0  0  0  0  0  0  0  0  0  0  0  0
   18.9513   -5.7731  -17.9463 O   0  0  0  0  0  0  0  0  0  0  0  0
   22.5522   -5.6961  -14.2496 C   0  0  0  0  0  0  0  0  0  0  0  0
   22.7432   -4.2989  -14.2670 O   0  0  0  0  0  0  0  0  0  0  0  0
   18.8894   -3.6101  -17.3578 O   0  0  0  0  0  0  0  0  0  0  0  0
   22.4058   -6.2136  -13.1124 O   0  0  0  0  0  0  0  0  0  0  0  0
  2  1  1  0
  2  3  1  0
  3  5  1  0
  3  4  1  1
  5  6  2  0
  7  8  1  0
  8  9  2  0
 10  8  1  0
 10 11  1  0
 12 11  1  6
 13 12  1  0
 13  5  1  0
 14 16  1  0
 14 12  1  0
 15 14  2  0
 17 18  1  1
 17 16  1  0
 19 18  1  0
 20 24  1  0
 20 19  1  0
 21 20  2  0
 22 23  1  0
 22 17  1  0
 25 22  2  0
M  END
$$$$
