SQE.pdb
     RDKit          3D

 25 24  0  0  1  0  0  0  0  0999 V2000
   26.3196  -12.5027  -15.9275 O   0  0  0  0  0  0  0  0  0  0  0  0
   25.5468  -11.3970  -16.3422 C   0  0  0  0  0  0  0  0  0  0  0  0
   24.1713  -11.9614  -16.6930 C   0  0  2  0  0  0  0  0  0  0  0  0
   24.3138  -12.6262  -17.9650 N   0  0  0  0  0  0  0  0  0  0  0  0
   23.1628  -10.8979  -16.8040 C   0  0  0  0  0  0  0  0  0  0  0  0
   22.8885  -10.3908  -17.9382 O   0  0  0  0  0  0  0  0  0  0  0  0
   17.8123  -10.7520  -14.3198 N   0  0  0  0  0  0  0  0  0  0  0  0
   17.7632   -9.4253  -14.8158 C   0  0  0  0  0  0  0  0  0  0  0  0
   16.6647   -8.8196  -14.7748 O   0  0  0  0  0  0  0  0  0  0  0  0
   19.0104   -8.8282  -15.3542 C   0  0  0  0  0  0  0  0  0  0  0  0
   20.0854   -9.8604  -15.2743 C   0  0  0  0  0  0  0  0  0  0  0  0
   21.4323   -9.3712  -15.7469 C   0  0  2  0  0  0  0  0  0  0  0  0
   22.4561  -10.3893  -15.6821 N   0  0  0  0  0  0  0  0  0  0  0  0
   21.8569   -8.1404  -15.0242 C   0  0  0  0  0  0  0  0  0  0  0  0
   22.4952   -8.2300  -13.9438 O   0  0  0  0  0  0  0  0  0  0  0  0
   21.5789   -6.8280  -15.4911 N   0  0  0  0  0  0  0  0  0  0  0  0
   22.0227   -5.6369  -14.7718 C   0  0  1  0  0  0  0  0  0  0  0  0
   21.7065   -4.3859  -15.4938 C   0  0  0  0  0  0  0  0  0  0  0  0
   22.0531   -3.0920  -14.8778 C   0  0  0  0  0  0  0  0  0  0  0  0
   21.7505   -1.8535  -15.5466 C   0  0  0  0  0  0  0  0  0  0  0  0
   21.2446   -1.7408  -16.6606 O   0  0  0  0  0  0  0  0  0  0  0  0
   21.6757   -5.6798  -13.3570 C   0  0  0  0  0  0  0  0  0  0  0  0
   22.5660   -5.1770  -12.3858 O   0  0  0  0  0  0  0  0  0  0  0  0
   22.0557   -0.6497  -14.8771 O   0  0  0  0  0  0  0  0  0  0  0  0
   20.5980   -6.1559  -12.9161 O   0  0  0  0  0  0  0  0  0  0  0  0
  2  1  1  0
  2  3  1  0
  3  5  1  0
  3  4  1  6
  5  6  2  0
  7  8  1  0
  8  9  2  0
 10  8  1  0
 10 11  1  0
 12 11  1  1
 13 12  1  0
 13  5  1  0
 14 16  1  0
 14 12  1  0
 15 14  2  0
 17 18  1  6
 17 16  1  0
 19 18  1  0
 20 24  1  0
 20 19  1  0
 21 20  2  0
 22 23  1  0
 22 17  1  0
 25 22  2  0
M  END
$$$$
