SQE.pdb
     RDKit          3D

 25 24  0  0  1  0  0  0  0  0999 V2000
   17.1742  -13.1130  -13.9970 O   0  0  0  0  0  0  0  0  0  0  0  0
   17.3518  -11.7210  -14.1484 C   0  0  0  0  0  0  0  0  0  0  0  0
   16.1080  -11.0763  -13.5393 C   0  0  2  0  0  0  0  0  0  0  0  0
   15.0798  -11.1360  -14.5490 N   0  0  0  0  0  0  0  0  0  0  0  0
   16.3521   -9.6752  -13.1681 C   0  0  0  0  0  0  0  0  0  0  0  0
   16.3286   -8.7637  -14.0555 O   0  0  0  0  0  0  0  0  0  0  0  0
   15.4075   -7.1938   -7.6151 N   0  0  0  0  0  0  0  0  0  0  0  0
   15.9006   -6.0369   -8.2686 C   0  0  0  0  0  0  0  0  0  0  0  0
   15.7966   -4.9349   -7.6771 O   0  0  0  0  0  0  0  0  0  0  0  0
   16.5106   -6.1933   -9.6122 C   0  0  0  0  0  0  0  0  0  0  0  0
   16.3453   -7.6168  -10.0288 C   0  0  0  0  0  0  0  0  0  0  0  0
   16.8542   -7.9047  -11.4198 C   0  0  2  0  0  0  0  0  0  0  0  0
   16.6209   -9.2697  -11.8339 N   0  0  0  0  0  0  0  0  0  0  0  0
   18.2902   -7.5398  -11.5685 C   0  0  0  0  0  0  0  0  0  0  0  0
   19.1872   -8.3805  -11.3013 O   0  0  0  0  0  0  0  0  0  0  0  0
   18.7276   -6.2616  -12.0070 N   0  0  0  0  0  0  0  0  0  0  0  0
   20.0639   -6.0429  -12.5544 C   0  0  1  0  0  0  0  0  0  0  0  0
   20.5133   -7.1552  -13.4187 C   0  0  0  0  0  0  0  0  0  0  0  0
   21.8387   -7.0784  -14.0598 C   0  0  0  0  0  0  0  0  0  0  0  0
   22.2848   -8.1140  -14.9549 C   0  0  0  0  0  0  0  0  0  0  0  0
   22.6988   -7.9482  -16.0998 O   0  0  0  0  0  0  0  0  0  0  0  0
   20.2351   -4.6954  -13.0825 C   0  0  0  0  0  0  0  0  0  0  0  0
   21.5235   -4.1386  -13.2199 O   0  0  0  0  0  0  0  0  0  0  0  0
   22.2504   -9.4466  -14.4926 O   0  0  0  0  0  0  0  0  0  0  0  0
   19.2801   -3.9570  -13.4361 O   0  0  0  0  0  0  0  0  0  0  0  0
  2  1  1  0
  2  3  1  0
  3  5  1  0
  3  4  1  6
  5  6  2  0
  7  8  1  0
  8  9  2  0
 10  8  1  0
 10 11  1  0
 12 11  1  1
 13 12  1  0
 13  5  1  0
 14 16  1  0
 14 12  1  0
 15 14  2  0
 17 18  1  6
 17 16  1  0
 19 18  1  0
 20 24  1  0
 20 19  1  0
 21 20  2  0
 22 23  1  0
 22 17  1  0
 25 22  2  0
M  END
$$$$
