SQE.pdb
     RDKit          3D

 25 24  0  0  1  0  0  0  0  0999 V2000
   16.1013   -8.8229  -13.6665 O   0  0  0  0  0  0  0  0  0  0  0  0
   15.8499   -9.0337  -15.0392 C   0  0  0  0  0  0  0  0  0  0  0  0
   16.4862  -10.3815  -15.3744 C   0  0  2  0  0  0  0  0  0  0  0  0
   15.9519  -11.3324  -14.4308 N   0  0  0  0  0  0  0  0  0  0  0  0
   17.9499  -10.3342  -15.2498 C   0  0  0  0  0  0  0  0  0  0  0  0
   18.5514  -11.1255  -14.4555 O   0  0  0  0  0  0  0  0  0  0  0  0
   22.1521  -11.5516  -18.7135 N   0  0  0  0  0  0  0  0  0  0  0  0
   23.0209  -10.8096  -17.8750 C   0  0  0  0  0  0  0  0  0  0  0  0
   24.2571  -10.9135  -18.0655 O   0  0  0  0  0  0  0  0  0  0  0  0
   22.4217   -9.9536  -16.8214 C   0  0  0  0  0  0  0  0  0  0  0  0
   20.9375  -10.0242  -16.9615 C   0  0  0  0  0  0  0  0  0  0  0  0
   20.1899   -9.3095  -15.8628 C   0  0  2  0  0  0  0  0  0  0  0  0
   18.7549   -9.4271  -15.9888 N   0  0  0  0  0  0  0  0  0  0  0  0
   20.6011   -7.8825  -15.7535 C   0  0  0  0  0  0  0  0  0  0  0  0
   20.0146   -7.0016  -16.4339 O   0  0  0  0  0  0  0  0  0  0  0  0
   21.6473   -7.4363  -14.9026 N   0  0  0  0  0  0  0  0  0  0  0  0
   21.8722   -6.0203  -14.6242 C   0  0  1  0  0  0  0  0  0  0  0  0
   20.8903   -5.1451  -15.2994 C   0  0  0  0  0  0  0  0  0  0  0  0
   20.9296   -3.6925  -15.0498 C   0  0  0  0  0  0  0  0  0  0  0  0
   19.8204   -2.8519  -15.4182 C   0  0  0  0  0  0  0  0  0  0  0  0
   18.7932   -3.2202  -15.9828 O   0  0  0  0  0  0  0  0  0  0  0  0
   22.1126   -5.7627  -13.2100 C   0  0  0  0  0  0  0  0  0  0  0  0
   22.7247   -4.5620  -12.7949 O   0  0  0  0  0  0  0  0  0  0  0  0
   19.9028   -1.4773  -15.1108 O   0  0  0  0  0  0  0  0  0  0  0  0
   21.8070   -6.5663  -12.2917 O   0  0  0  0  0  0  0  0  0  0  0  0
  2  1  1  0
  2  3  1  0
  3  5  1  0
  3  4  1  1
  5  6  2  0
  7  8  1  0
  8  9  2  0
 10  8  1  0
 10 11  1  0
 12 11  1  6
 13 12  1  0
 13  5  1  0
 14 16  1  0
 14 12  1  0
 15 14  2  0
 17 18  1  1
 17 16  1  0
 19 18  1  0
 20 24  1  0
 20 19  1  0
 21 20  2  0
 22 23  1  0
 22 17  1  0
 25 22  2  0
M  END
$$$$
