SQE.pdb
     RDKit          3D

 25 24  0  0  1  0  0  0  0  0999 V2000
   14.0889   -8.9367  -15.4880 O   0  0  0  0  0  0  0  0  0  0  0  0
   15.1055   -8.4659  -14.6296 C   0  0  0  0  0  0  0  0  0  0  0  0
   16.0137   -9.6658  -14.3664 C   0  0  2  0  0  0  0  0  0  0  0  0
   15.4772  -10.3394  -13.2093 N   0  0  0  0  0  0  0  0  0  0  0  0
   17.3965   -9.2479  -14.0951 C   0  0  0  0  0  0  0  0  0  0  0  0
   17.7369   -8.8793  -12.9259 O   0  0  0  0  0  0  0  0  0  0  0  0
   22.5325  -11.6084  -16.0470 N   0  0  0  0  0  0  0  0  0  0  0  0
   23.1060  -10.4194  -15.5315 C   0  0  0  0  0  0  0  0  0  0  0  0
   24.3549  -10.3668  -15.4183 O   0  0  0  0  0  0  0  0  0  0  0  0
   22.2000   -9.3060  -15.1555 C   0  0  0  0  0  0  0  0  0  0  0  0
   20.7950   -9.7861  -15.3070 C   0  0  0  0  0  0  0  0  0  0  0  0
   19.7590   -8.7708  -14.8917 C   0  0  2  0  0  0  0  0  0  0  0  0
   18.4045   -9.2322  -15.0954 N   0  0  0  0  0  0  0  0  0  0  0  0
   19.9799   -7.4550  -15.5528 C   0  0  0  0  0  0  0  0  0  0  0  0
   19.6390   -7.2846  -16.7518 O   0  0  0  0  0  0  0  0  0  0  0  0
   20.5701   -6.3425  -14.8958 N   0  0  0  0  0  0  0  0  0  0  0  0
   20.7789   -5.0633  -15.5689 C   0  0  1  0  0  0  0  0  0  0  0  0
   20.4145   -3.9083  -14.7208 C   0  0  0  0  0  0  0  0  0  0  0  0
   20.5189   -2.5464  -15.2757 C   0  0  0  0  0  0  0  0  0  0  0  0
   20.1676   -1.3985  -14.4809 C   0  0  0  0  0  0  0  0  0  0  0  0
   19.7576   -1.4217  -13.3229 O   0  0  0  0  0  0  0  0  0  0  0  0
   22.0674   -4.9951  -16.2465 C   0  0  0  0  0  0  0  0  0  0  0  0
   22.1526   -4.5397  -17.5786 O   0  0  0  0  0  0  0  0  0  0  0  0
   20.2999   -0.1227  -15.0687 O   0  0  0  0  0  0  0  0  0  0  0  0
   23.1561   -5.3302  -15.7128 O   0  0  0  0  0  0  0  0  0  0  0  0
  2  1  1  0
  2  3  1  0
  3  5  1  0
  3  4  1  1
  5  6  2  0
  7  8  1  0
  8  9  2  0
 10  8  1  0
 10 11  1  0
 12 11  1  6
 13 12  1  0
 13  5  1  0
 14 16  1  0
 14 12  1  0
 15 14  2  0
 17 18  1  1
 17 16  1  0
 19 18  1  0
 20 24  1  0
 20 19  1  0
 21 20  2  0
 22 23  1  0
 22 17  1  0
 25 22  2  0
M  END
$$$$
