SQE.pdb
     RDKit          3D

 25 24  0  0  1  0  0  0  0  0999 V2000
   22.6224  -32.7168   -6.9418 O   0  0  0  0  0  0  0  0  0  0  0  0
   23.0839  -32.8957   -8.2635 C   0  0  0  0  0  0  0  0  0  0  0  0
   24.5495  -32.4649   -8.2522 C   0  0  2  0  0  0  0  0  0  0  0  0
   25.0243  -32.5926   -9.6081 N   0  0  0  0  0  0  0  0  0  0  0  0
   25.3563  -33.3161   -7.3662 C   0  0  0  0  0  0  0  0  0  0  0  0
   25.7205  -34.4741   -7.7473 O   0  0  0  0  0  0  0  0  0  0  0  0
   29.9188  -34.3401   -3.7304 N   0  0  0  0  0  0  0  0  0  0  0  0
   30.0139  -34.4055   -5.1428 C   0  0  0  0  0  0  0  0  0  0  0  0
   30.9716  -35.0454   -5.6414 O   0  0  0  0  0  0  0  0  0  0  0  0
   28.9783  -33.7154   -5.9510 C   0  0  0  0  0  0  0  0  0  0  0  0
   27.9775  -33.1296   -5.0116 C   0  0  0  0  0  0  0  0  0  0  0  0
   26.5873  -33.6920   -5.1784 C   0  0  2  0  0  0  0  0  0  0  0  0
   25.7645  -32.9058   -6.0693 N   0  0  0  0  0  0  0  0  0  0  0  0
   25.9123  -33.8930   -3.8664 C   0  0  0  0  0  0  0  0  0  0  0  0
   25.2604  -32.9543   -3.3404 O   0  0  0  0  0  0  0  0  0  0  0  0
   25.9582  -35.1164   -3.1461 N   0  0  0  0  0  0  0  0  0  0  0  0
   25.2329  -35.3083   -1.8930 C   0  0  1  0  0  0  0  0  0  0  0  0
   24.8768  -36.7231   -1.6532 C   0  0  0  0  0  0  0  0  0  0  0  0
   24.1332  -37.0810   -0.4314 C   0  0  0  0  0  0  0  0  0  0  0  0
   23.9319  -38.4598   -0.0693 C   0  0  0  0  0  0  0  0  0  0  0  0
   24.3068  -39.4364   -0.7136 O   0  0  0  0  0  0  0  0  0  0  0  0
   25.8441  -34.5912   -0.7811 C   0  0  0  0  0  0  0  0  0  0  0  0
   25.0430  -33.9074    0.1567 O   0  0  0  0  0  0  0  0  0  0  0  0
   23.2436  -38.7336    1.1315 O   0  0  0  0  0  0  0  0  0  0  0  0
   27.0856  -34.5289   -0.5879 O   0  0  0  0  0  0  0  0  0  0  0  0
  2  1  1  0
  2  3  1  0
  3  5  1  0
  3  4  1  6
  5  6  2  0
  7  8  1  0
  8  9  2  0
 10  8  1  0
 10 11  1  0
 12 11  1  1
 13 12  1  0
 13  5  1  0
 14 16  1  0
 14 12  1  0
 15 14  2  0
 17 18  1  1
 17 16  1  0
 19 18  1  0
 20 24  1  0
 20 19  1  0
 21 20  2  0
 22 23  1  0
 22 17  1  0
 25 22  2  0
M  END
$$$$
