SQE.pdb
     RDKit          3D

 25 24  0  0  1  0  0  0  0  0999 V2000
   25.0085  -19.0450  -16.3598 O   0  0  0  0  0  0  0  0  0  0  0  0
   25.9201  -20.0266  -16.8040 C   0  0  0  0  0  0  0  0  0  0  0  0
   26.6679  -20.4921  -15.5559 C   0  0  2  0  0  0  0  0  0  0  0  0
   27.6564  -21.4431  -16.0017 N   0  0  0  0  0  0  0  0  0  0  0  0
   25.7638  -21.1372  -14.5932 C   0  0  0  0  0  0  0  0  0  0  0  0
   25.3952  -22.3423  -14.7684 O   0  0  0  0  0  0  0  0  0  0  0  0
   25.1971  -20.4575   -8.5315 N   0  0  0  0  0  0  0  0  0  0  0  0
   26.2606  -21.0160   -9.2836 C   0  0  0  0  0  0  0  0  0  0  0  0
   27.3416  -21.2535   -8.6918 O   0  0  0  0  0  0  0  0  0  0  0  0
   26.0368  -21.2879  -10.7251 C   0  0  0  0  0  0  0  0  0  0  0  0
   24.6693  -20.8047  -11.0767 C   0  0  0  0  0  0  0  0  0  0  0  0
   24.2998  -21.0289  -12.5224 C   0  0  2  0  0  0  0  0  0  0  0  0
   25.2635  -20.4704  -13.4434 N   0  0  0  0  0  0  0  0  0  0  0  0
   22.9267  -20.5376  -12.8235 C   0  0  0  0  0  0  0  0  0  0  0  0
   22.7631  -19.4300  -13.3972 O   0  0  0  0  0  0  0  0  0  0  0  0
   21.7504  -21.2625  -12.4941 N   0  0  0  0  0  0  0  0  0  0  0  0
   20.4358  -20.8850  -13.0064 C   0  0  1  0  0  0  0  0  0  0  0  0
   20.4477  -20.6167  -14.4603 C   0  0  0  0  0  0  0  0  0  0  0  0
   19.1897  -20.2468  -15.1344 C   0  0  0  0  0  0  0  0  0  0  0  0
   19.1427  -20.0753  -16.5631 C   0  0  0  0  0  0  0  0  0  0  0  0
   18.1876  -19.6473  -17.2067 O   0  0  0  0  0  0  0  0  0  0  0  0
   19.3755  -21.7537  -12.5113 C   0  0  0  0  0  0  0  0  0  0  0  0
   18.0907  -21.2358  -12.2466 O   0  0  0  0  0  0  0  0  0  0  0  0
   20.2885  -20.4254  -17.3083 O   0  0  0  0  0  0  0  0  0  0  0  0
   19.5261  -22.9824  -12.2879 O   0  0  0  0  0  0  0  0  0  0  0  0
  2  1  1  0
  2  3  1  0
  3  5  1  0
  3  4  1  6
  5  6  2  0
  7  8  1  0
  8  9  2  0
 10  8  1  0
 10 11  1  0
 12 11  1  1
 13 12  1  0
 13  5  1  0
 14 16  1  0
 14 12  1  0
 15 14  2  0
 17 18  1  6
 17 16  1  0
 19 18  1  0
 20 24  1  0
 20 19  1  0
 21 20  2  0
 22 23  1  0
 22 17  1  0
 25 22  2  0
M  END
$$$$
