GIH.pdb
     RDKit          3D

 23 23  0  0  1  0  0  0  0  0999 V2000
    7.6339  -18.9529   16.5784 N   0  0  0  0  0  0  0  0  0  0  0  0
    7.1986  -18.6260   17.8982 C   0  0  0  0  0  0  0  0  0  0  0  0
    8.0917  -17.5927   18.5388 C   0  0  0  0  0  0  0  0  0  0  0  0
    9.2556  -17.4034   18.1341 O   0  0  0  0  0  0  0  0  0  0  0  0
    7.7661  -12.3019   21.4032 C   0  0  0  0  0  0  0  0  0  0  0  0
    8.5667  -13.5432   21.1231 C   0  0  0  0  0  0  0  0  0  0  0  0
    7.6120  -14.6533   20.7269 C   0  0  2  0  0  0  0  0  0  0  0  0
    6.5167  -14.7825   21.7484 C   0  0  0  0  0  0  0  0  0  0  0  0
    8.3193  -15.8941   20.3514 C   0  0  2  0  0  0  0  0  0  0  0  0
    7.5313  -16.8557   19.6207 N   0  0  0  0  0  0  0  0  0  0  0  0
    9.1429  -16.5385   21.3767 C   0  0  0  0  0  0  0  0  0  0  0  0
    8.7056  -17.3967   22.1943 O   0  0  0  0  0  0  0  0  0  0  0  0
   10.5130  -16.2171   21.5086 N   0  0  0  0  0  0  0  0  0  0  0  0
   11.3297  -16.8200   22.5900 C   0  0  1  0  0  0  0  0  0  0  0  0
   12.7788  -16.7384   22.2586 C   0  0  0  0  0  0  0  0  0  0  0  0
   13.1685  -17.7733   21.3077 C   0  0  0  0  0  0  0  0  0  0  0  0
   12.6663  -19.0524   21.1314 C   0  0  0  0  0  0  0  0  0  0  0  0
   13.3247  -19.6975   20.1529 N   0  0  0  0  0  0  0  0  0  0  0  0
   14.2464  -18.8458   19.6977 C   0  0  0  0  0  0  0  0  0  0  0  0
   14.1648  -17.6982   20.3753 N   0  0  0  0  0  0  0  0  0  0  0  0
   11.0444  -16.1013   23.8421 C   0  0  0  0  0  0  0  0  0  0  0  0
   11.1346  -16.6348   25.1163 O   0  0  0  0  0  0  0  0  0  0  0  0
   10.6831  -14.8960   23.7812 O   0  0  0  0  0  0  0  0  0  0  0  0
  2  1  1  0
  2  3  1  0
  3 10  1  0
  4  3  2  0
  5  6  1  0
  6  7  1  0
  7  8  1  1
  7  9  1  0
  9 11  1  0
  9 10  1  1
 11 12  2  0
 13 11  1  0
 13 14  1  0
 14 21  1  0
 14 15  1  6
 16 15  1  0
 17 16  2  0
 18 19  1  0
 18 17  1  0
 19 20  2  0
 20 16  1  0
 21 23  2  0
 21 22  1  0
M  END
$$$$
