GIH.pdb
     RDKit          3D

 23 23  0  0  1  0  0  0  0  0999 V2000
    6.9915  -16.1301   20.0286 N   0  0  0  0  0  0  0  0  0  0  0  0
    6.4045  -15.9839   21.3217 C   0  0  0  0  0  0  0  0  0  0  0  0
    7.3982  -15.4588   22.3278 C   0  0  0  0  0  0  0  0  0  0  0  0
    8.6249  -15.5047   22.1101 O   0  0  0  0  0  0  0  0  0  0  0  0
    7.5534  -11.6506   27.1171 C   0  0  0  0  0  0  0  0  0  0  0  0
    8.2018  -12.7616   26.3391 C   0  0  0  0  0  0  0  0  0  0  0  0
    7.1503  -13.4121   25.4604 C   0  0  2  0  0  0  0  0  0  0  0  0
    5.9493  -13.7875   26.2828 C   0  0  0  0  0  0  0  0  0  0  0  0
    7.7168  -14.4650   24.5936 C   0  0  2  0  0  0  0  0  0  0  0  0
    6.8566  -14.9140   23.5268 N   0  0  0  0  0  0  0  0  0  0  0  0
    8.3952  -15.5858   25.2480 C   0  0  0  0  0  0  0  0  0  0  0  0
    7.8125  -16.6460   25.6121 O   0  0  0  0  0  0  0  0  0  0  0  0
    9.7817  -15.5318   25.5174 N   0  0  0  0  0  0  0  0  0  0  0  0
   10.4969  -16.7221   26.0385 C   0  0  1  0  0  0  0  0  0  0  0  0
   11.9164  -16.7176   25.5898 C   0  0  0  0  0  0  0  0  0  0  0  0
   12.0190  -16.8471   24.1407 C   0  0  0  0  0  0  0  0  0  0  0  0
   11.3989  -17.7406   23.2825 C   0  0  0  0  0  0  0  0  0  0  0  0
   11.7859  -17.5351   22.0117 N   0  0  0  0  0  0  0  0  0  0  0  0
   12.6498  -16.5178   22.0436 C   0  0  0  0  0  0  0  0  0  0  0  0
   12.7977  -16.0992   23.3028 N   0  0  0  0  0  0  0  0  0  0  0  0
   10.4193  -16.7031   27.5080 C   0  0  0  0  0  0  0  0  0  0  0  0
   10.7709  -17.7463   28.3474 O   0  0  0  0  0  0  0  0  0  0  0  0
    9.9988  -15.6625   28.0801 O   0  0  0  0  0  0  0  0  0  0  0  0
  2  1  1  0
  2  3  1  0
  3 10  1  0
  4  3  2  0
  5  6  1  0
  6  7  1  0
  7  8  1  1
  7  9  1  0
  9 11  1  0
  9 10  1  1
 11 12  2  0
 13 11  1  0
 13 14  1  0
 14 21  1  0
 14 15  1  1
 16 15  1  0
 17 16  2  0
 18 19  1  0
 18 17  1  0
 19 20  2  0
 20 16  1  0
 21 23  2  0
 21 22  1  0
M  END
$$$$
