GIH.pdb
     RDKit          3D

 23 23  0  0  1  0  0  0  0  0999 V2000
    5.0539  -19.9021   23.7945 N   0  0  0  0  0  0  0  0  0  0  0  0
    5.4377  -19.0130   24.8436 C   0  0  0  0  0  0  0  0  0  0  0  0
    6.1571  -17.7996   24.3092 C   0  0  0  0  0  0  0  0  0  0  0  0
    6.6892  -17.8073   23.1817 O   0  0  0  0  0  0  0  0  0  0  0  0
    7.0205  -11.9234   26.1085 C   0  0  0  0  0  0  0  0  0  0  0  0
    7.1491  -13.0062   25.0737 C   0  0  0  0  0  0  0  0  0  0  0  0
    6.7921  -14.3327   25.7171 C   0  0  2  0  0  0  0  0  0  0  0  0
    7.5146  -14.4832   27.0266 C   0  0  0  0  0  0  0  0  0  0  0  0
    6.8930  -15.4609   24.7697 C   0  0  2  0  0  0  0  0  0  0  0  0
    6.1912  -16.6586   25.1604 N   0  0  0  0  0  0  0  0  0  0  0  0
    8.2162  -15.7654   24.2207 C   0  0  0  0  0  0  0  0  0  0  0  0
    8.5539  -15.5307   23.0262 O   0  0  0  0  0  0  0  0  0  0  0  0
    9.2122  -16.3615   25.0274 N   0  0  0  0  0  0  0  0  0  0  0  0
   10.5670  -16.6242   24.4842 C   0  0  1  0  0  0  0  0  0  0  0  0
   11.2118  -15.3545   24.0498 C   0  0  0  0  0  0  0  0  0  0  0  0
   12.2232  -15.5920   23.0263 C   0  0  0  0  0  0  0  0  0  0  0  0
   12.6324  -16.7787   22.4399 C   0  0  0  0  0  0  0  0  0  0  0  0
   13.6155  -16.5617   21.5492 N   0  0  0  0  0  0  0  0  0  0  0  0
   13.8434  -15.2463   21.5567 C   0  0  0  0  0  0  0  0  0  0  0  0
   13.0230  -14.6577   22.4302 N   0  0  0  0  0  0  0  0  0  0  0  0
   11.3675  -17.2786   25.5314 C   0  0  0  0  0  0  0  0  0  0  0  0
   11.5560  -16.8025   26.8176 O   0  0  0  0  0  0  0  0  0  0  0  0
   11.9446  -18.3659   25.2637 O   0  0  0  0  0  0  0  0  0  0  0  0
  2  1  1  0
  2  3  1  0
  3 10  1  0
  4  3  2  0
  5  6  1  0
  6  7  1  0
  7  8  1  1
  7  9  1  0
  9 11  1  0
  9 10  1  1
 11 12  2  0
 13 11  1  0
 13 14  1  0
 14 21  1  0
 14 15  1  1
 16 15  1  0
 17 16  2  0
 18 19  1  0
 18 17  1  0
 19 20  2  0
 20 16  1  0
 21 23  2  0
 21 22  1  0
M  END
$$$$
