GIH.pdb
     RDKit          3D

 23 23  0  0  1  0  0  0  0  0999 V2000
    6.7431  -15.1191   20.4100 N   0  0  0  0  0  0  0  0  0  0  0  0
    6.1842  -15.1203   21.7238 C   0  0  0  0  0  0  0  0  0  0  0  0
    7.2457  -14.9398   22.7802 C   0  0  0  0  0  0  0  0  0  0  0  0
    8.4544  -15.0918   22.5154 O   0  0  0  0  0  0  0  0  0  0  0  0
    6.1977  -11.3330   26.5815 C   0  0  0  0  0  0  0  0  0  0  0  0
    6.9420  -12.1425   25.5564 C   0  0  0  0  0  0  0  0  0  0  0  0
    7.3675  -13.4521   26.1926 C   0  0  2  0  0  0  0  0  0  0  0  0
    8.3841  -13.1971   27.2701 C   0  0  0  0  0  0  0  0  0  0  0  0
    7.7084  -14.4792   25.1878 C   0  0  2  0  0  0  0  0  0  0  0  0
    6.7888  -14.5895   24.0826 N   0  0  0  0  0  0  0  0  0  0  0  0
    8.1204  -15.7954   25.6806 C   0  0  0  0  0  0  0  0  0  0  0  0
    7.3323  -16.6254   26.2152 O   0  0  0  0  0  0  0  0  0  0  0  0
    9.4672  -16.2132   25.5826 N   0  0  0  0  0  0  0  0  0  0  0  0
    9.8555  -17.6001   25.9367 C   0  0  1  0  0  0  0  0  0  0  0  0
   10.8817  -18.1143   24.9886 C   0  0  0  0  0  0  0  0  0  0  0  0
   11.3632  -19.4324   25.3858 C   0  0  0  0  0  0  0  0  0  0  0  0
   10.9852  -20.2323   26.4520 C   0  0  0  0  0  0  0  0  0  0  0  0
   11.6965  -21.3727   26.4744 N   0  0  0  0  0  0  0  0  0  0  0  0
   12.5294  -21.3144   25.4326 C   0  0  0  0  0  0  0  0  0  0  0  0
   12.3421  -20.1666   24.7770 N   0  0  0  0  0  0  0  0  0  0  0  0
   10.3777  -17.5985   27.3126 C   0  0  0  0  0  0  0  0  0  0  0  0
   10.3703  -18.6783   28.1789 O   0  0  0  0  0  0  0  0  0  0  0  0
   10.8789  -16.5372   27.7702 O   0  0  0  0  0  0  0  0  0  0  0  0
  2  1  1  0
  2  3  1  0
  3 10  1  0
  4  3  2  0
  5  6  1  0
  6  7  1  0
  7  8  1  1
  7  9  1  0
  9 11  1  0
  9 10  1  6
 11 12  2  0
 13 11  1  0
 13 14  1  0
 14 21  1  0
 14 15  1  6
 16 15  1  0
 17 16  2  0
 18 19  1  0
 18 17  1  0
 19 20  2  0
 20 16  1  0
 21 23  2  0
 21 22  1  0
M  END
$$$$
