GIH.pdb
     RDKit          3D

 23 23  0  0  1  0  0  0  0  0999 V2000
    4.8447  -19.6877   21.7237 N   0  0  0  0  0  0  0  0  0  0  0  0
    4.9008  -18.3307   22.1639 C   0  0  0  0  0  0  0  0  0  0  0  0
    6.2246  -17.6908   21.8273 C   0  0  0  0  0  0  0  0  0  0  0  0
    7.2351  -18.3813   21.5895 O   0  0  0  0  0  0  0  0  0  0  0  0
    8.4005  -12.3933   19.7086 C   0  0  0  0  0  0  0  0  0  0  0  0
    8.6535  -13.7106   20.3874 C   0  0  0  0  0  0  0  0  0  0  0  0
    7.3392  -14.2281   20.9405 C   0  0  2  0  0  0  0  0  0  0  0  0
    6.6595  -13.1562   21.7459 C   0  0  0  0  0  0  0  0  0  0  0  0
    7.4823  -15.5504   21.5820 C   0  0  2  0  0  0  0  0  0  0  0  0
    6.2498  -16.2673   21.7979 N   0  0  0  0  0  0  0  0  0  0  0  0
    8.3725  -15.6460   22.7409 C   0  0  0  0  0  0  0  0  0  0  0  0
    8.1154  -15.1406   23.8699 O   0  0  0  0  0  0  0  0  0  0  0  0
    9.6072  -16.3278   22.6479 N   0  0  0  0  0  0  0  0  0  0  0  0
   10.5054  -16.4277   23.8239 C   0  0  1  0  0  0  0  0  0  0  0  0
   10.4564  -17.7977   24.4047 C   0  0  0  0  0  0  0  0  0  0  0  0
    9.2660  -17.9874   25.2257 C   0  0  0  0  0  0  0  0  0  0  0  0
    8.3104  -17.0696   25.6306 C   0  0  0  0  0  0  0  0  0  0  0  0
    7.3796  -17.6536   26.4050 N   0  0  0  0  0  0  0  0  0  0  0  0
    7.7272  -18.9389   26.5028 C   0  0  0  0  0  0  0  0  0  0  0  0
    8.8466  -19.1512   25.8068 N   0  0  0  0  0  0  0  0  0  0  0  0
   11.8731  -16.0981   23.3920 C   0  0  0  0  0  0  0  0  0  0  0  0
   12.9358  -15.8095   24.2310 O   0  0  0  0  0  0  0  0  0  0  0  0
   12.1290  -16.0661   22.1590 O   0  0  0  0  0  0  0  0  0  0  0  0
  2  1  1  0
  2  3  1  0
  3 10  1  0
  4  3  2  0
  5  6  1  0
  6  7  1  0
  7  8  1  1
  7  9  1  0
  9 11  1  0
  9 10  1  1
 11 12  2  0
 13 11  1  0
 13 14  1  0
 14 21  1  0
 14 15  1  6
 16 15  1  0
 17 16  2  0
 18 19  1  0
 18 17  1  0
 19 20  2  0
 20 16  1  0
 21 23  2  0
 21 22  1  0
M  END
$$$$
