GIH.pdb
     RDKit          3D

 23 23  0  0  1  0  0  0  0  0999 V2000
    3.8669  -19.0677   20.5906 N   0  0  0  0  0  0  0  0  0  0  0  0
    4.0343  -17.6719   20.8394 C   0  0  0  0  0  0  0  0  0  0  0  0
    5.4364  -17.3521   21.2949 C   0  0  0  0  0  0  0  0  0  0  0  0
    6.2743  -18.2541   21.4915 O   0  0  0  0  0  0  0  0  0  0  0  0
    7.7653  -12.5145   19.9007 C   0  0  0  0  0  0  0  0  0  0  0  0
    7.4685  -13.9652   20.1605 C   0  0  0  0  0  0  0  0  0  0  0  0
    7.4330  -14.1889   21.6604 C   0  0  2  0  0  0  0  0  0  0  0  0
    8.7020  -13.6843   22.2885 C   0  0  0  0  0  0  0  0  0  0  0  0
    7.0176  -15.5613   22.0132 C   0  0  2  0  0  0  0  0  0  0  0  0
    5.7410  -15.9741   21.4845 N   0  0  0  0  0  0  0  0  0  0  0  0
    7.1860  -15.9808   23.4062 C   0  0  0  0  0  0  0  0  0  0  0  0
    6.2778  -15.9001   24.2806 O   0  0  0  0  0  0  0  0  0  0  0  0
    8.4169  -16.5102   23.8564 N   0  0  0  0  0  0  0  0  0  0  0  0
    8.5125  -17.1848   25.1738 C   0  0  1  0  0  0  0  0  0  0  0  0
    7.6318  -18.3846   25.2122 C   0  0  0  0  0  0  0  0  0  0  0  0
    7.8280  -19.1522   26.4367 C   0  0  0  0  0  0  0  0  0  0  0  0
    8.6459  -18.8951   27.5251 C   0  0  0  0  0  0  0  0  0  0  0  0
    8.5486  -19.8732   28.4421 N   0  0  0  0  0  0  0  0  0  0  0  0
    7.6759  -20.7579   27.9542 C   0  0  0  0  0  0  0  0  0  0  0  0
    7.2398  -20.3419   26.7629 N   0  0  0  0  0  0  0  0  0  0  0  0
    9.9159  -17.5663   25.3986 C   0  0  0  0  0  0  0  0  0  0  0  0
   10.4781  -17.8862   26.6225 O   0  0  0  0  0  0  0  0  0  0  0  0
   10.6977  -17.6129   24.4119 O   0  0  0  0  0  0  0  0  0  0  0  0
  2  1  1  0
  2  3  1  0
  3 10  1  0
  4  3  2  0
  5  6  1  0
  6  7  1  0
  7  8  1  6
  7  9  1  0
  9 11  1  0
  9 10  1  1
 11 12  2  0
 13 11  1  0
 13 14  1  0
 14 21  1  0
 14 15  1  6
 16 15  1  0
 17 16  2  0
 18 19  1  0
 18 17  1  0
 19 20  2  0
 20 16  1  0
 21 23  2  0
 21 22  1  0
M  END
$$$$
