GIH.pdb
     RDKit          3D

 23 23  0  0  1  0  0  0  0  0999 V2000
    6.1053  -17.5368   21.9016 N   0  0  0  0  0  0  0  0  0  0  0  0
    5.8789  -17.2053   23.2717 C   0  0  0  0  0  0  0  0  0  0  0  0
    6.9881  -16.3469   23.8270 C   0  0  0  0  0  0  0  0  0  0  0  0
    8.1224  -16.3409   23.3096 O   0  0  0  0  0  0  0  0  0  0  0  0
    5.8765  -11.7239   26.5222 C   0  0  0  0  0  0  0  0  0  0  0  0
    6.5231  -12.7485   25.6322 C   0  0  0  0  0  0  0  0  0  0  0  0
    7.2873  -13.7287   26.5017 C   0  0  2  0  0  0  0  0  0  0  0  0
    8.3608  -13.0100   27.2704 C   0  0  0  0  0  0  0  0  0  0  0  0
    7.6988  -14.9361   25.7577 C   0  0  2  0  0  0  0  0  0  0  0  0
    6.6648  -15.5534   24.9644 N   0  0  0  0  0  0  0  0  0  0  0  0
    8.4958  -15.9330   26.4759 C   0  0  0  0  0  0  0  0  0  0  0  0
    7.9991  -16.8688   27.1639 O   0  0  0  0  0  0  0  0  0  0  0  0
    9.9082  -15.8920   26.4364 N   0  0  0  0  0  0  0  0  0  0  0  0
   10.7119  -17.0167   26.9739 C   0  0  1  0  0  0  0  0  0  0  0  0
   11.9864  -17.1575   26.2175 C   0  0  0  0  0  0  0  0  0  0  0  0
   12.8211  -18.2183   26.7699 C   0  0  0  0  0  0  0  0  0  0  0  0
   12.5564  -19.1162   27.7912 C   0  0  0  0  0  0  0  0  0  0  0  0
   13.6097  -19.9227   28.0082 N   0  0  0  0  0  0  0  0  0  0  0  0
   14.5503  -19.5523   27.1363 C   0  0  0  0  0  0  0  0  0  0  0  0
   14.0950  -18.5402   26.3940 N   0  0  0  0  0  0  0  0  0  0  0  0
   10.9815  -16.7553   28.3969 C   0  0  0  0  0  0  0  0  0  0  0  0
   11.2784  -17.7140   29.3504 O   0  0  0  0  0  0  0  0  0  0  0  0
   10.9443  -15.5669   28.8132 O   0  0  0  0  0  0  0  0  0  0  0  0
  2  1  1  0
  2  3  1  0
  3 10  1  0
  4  3  2  0
  5  6  1  0
  6  7  1  0
  7  8  1  6
  7  9  1  0
  9 11  1  0
  9 10  1  1
 11 12  2  0
 13 11  1  0
 13 14  1  0
 14 21  1  0
 14 15  1  6
 16 15  1  0
 17 16  2  0
 18 19  1  0
 18 17  1  0
 19 20  2  0
 20 16  1  0
 21 23  2  0
 21 22  1  0
M  END
$$$$
