GIH.pdb
     RDKit          3D

 23 23  0  0  1  0  0  0  0  0999 V2000
    6.7475  -14.1207   20.1167 N   0  0  0  0  0  0  0  0  0  0  0  0
    6.2488  -14.5429   21.3861 C   0  0  0  0  0  0  0  0  0  0  0  0
    7.3021  -14.4376   22.4608 C   0  0  0  0  0  0  0  0  0  0  0  0
    8.5152  -14.5329   22.1893 O   0  0  0  0  0  0  0  0  0  0  0  0
    6.1819  -11.4164   26.9155 C   0  0  0  0  0  0  0  0  0  0  0  0
    6.8036  -12.0501   25.7022 C   0  0  0  0  0  0  0  0  0  0  0  0
    7.2914  -13.4362   26.0789 C   0  0  2  0  0  0  0  0  0  0  0  0
    8.2419  -13.3518   27.2403 C   0  0  0  0  0  0  0  0  0  0  0  0
    7.7441  -14.2097   24.9053 C   0  0  2  0  0  0  0  0  0  0  0  0
    6.8324  -14.2251   23.7881 N   0  0  0  0  0  0  0  0  0  0  0  0
    8.3199  -15.5338   25.1504 C   0  0  0  0  0  0  0  0  0  0  0  0
    7.6403  -16.5479   25.4757 O   0  0  0  0  0  0  0  0  0  0  0  0
    9.7124  -15.7475   25.0354 N   0  0  0  0  0  0  0  0  0  0  0  0
   10.2779  -17.1148   25.1383 C   0  0  1  0  0  0  0  0  0  0  0  0
   11.5041  -17.2380   24.3031 C   0  0  0  0  0  0  0  0  0  0  0  0
   12.1681  -18.5192   24.5148 C   0  0  0  0  0  0  0  0  0  0  0  0
   11.8057  -19.5850   25.3224 C   0  0  0  0  0  0  0  0  0  0  0  0
   12.7110  -20.5758   25.2470 N   0  0  0  0  0  0  0  0  0  0  0  0
   13.6533  -20.1578   24.3987 C   0  0  0  0  0  0  0  0  0  0  0  0
   13.3433  -18.9369   23.9560 N   0  0  0  0  0  0  0  0  0  0  0  0
   10.5861  -17.3839   26.5519 C   0  0  0  0  0  0  0  0  0  0  0  0
   10.6900  -18.6375   27.1298 O   0  0  0  0  0  0  0  0  0  0  0  0
   10.7748  -16.4096   27.3280 O   0  0  0  0  0  0  0  0  0  0  0  0
  2  1  1  0
  2  3  1  0
  3 10  1  0
  4  3  2  0
  5  6  1  0
  6  7  1  0
  7  8  1  1
  7  9  1  0
  9 11  1  0
  9 10  1  6
 11 12  2  0
 13 11  1  0
 13 14  1  0
 14 21  1  0
 14 15  1  6
 16 15  1  0
 17 16  2  0
 18 19  1  0
 18 17  1  0
 19 20  2  0
 20 16  1  0
 21 23  2  0
 21 22  1  0
M  END
$$$$
