GIH.pdb
     RDKit          3D

 23 23  0  0  1  0  0  0  0  0999 V2000
    7.2094  -14.6749   19.8860 N   0  0  0  0  0  0  0  0  0  0  0  0
    6.6103  -14.8700   21.1672 C   0  0  0  0  0  0  0  0  0  0  0  0
    7.5468  -14.4819   22.2843 C   0  0  0  0  0  0  0  0  0  0  0  0
    8.7708  -14.3514   22.0865 O   0  0  0  0  0  0  0  0  0  0  0  0
    5.7773  -11.8421   26.8188 C   0  0  0  0  0  0  0  0  0  0  0  0
    6.4017  -12.4081   25.5739 C   0  0  0  0  0  0  0  0  0  0  0  0
    7.1574  -13.6701   25.9446 C   0  0  2  0  0  0  0  0  0  0  0  0
    8.0800  -13.3996   27.1001 C   0  0  0  0  0  0  0  0  0  0  0  0
    7.7467  -14.3375   24.7666 C   0  0  2  0  0  0  0  0  0  0  0  0
    6.9550  -14.2760   23.5630 N   0  0  0  0  0  0  0  0  0  0  0  0
    8.3265  -15.6679   24.9639 C   0  0  0  0  0  0  0  0  0  0  0  0
    8.1979  -16.6206   24.1443 O   0  0  0  0  0  0  0  0  0  0  0  0
    9.0799  -15.9618   26.1232 N   0  0  0  0  0  0  0  0  0  0  0  0
   10.3163  -16.7762   26.0343 C   0  0  1  0  0  0  0  0  0  0  0  0
   11.3257  -16.1023   25.1721 C   0  0  0  0  0  0  0  0  0  0  0  0
   11.2398  -16.5612   23.7904 C   0  0  0  0  0  0  0  0  0  0  0  0
   10.3957  -17.4979   23.2162 C   0  0  0  0  0  0  0  0  0  0  0  0
   10.6607  -17.6461   21.9066 N   0  0  0  0  0  0  0  0  0  0  0  0
   11.6679  -16.8138   21.6323 C   0  0  0  0  0  0  0  0  0  0  0  0
   12.0220  -16.1628   22.7429 N   0  0  0  0  0  0  0  0  0  0  0  0
   10.8440  -16.9680   27.3946 C   0  0  0  0  0  0  0  0  0  0  0  0
   10.4010  -16.3128   28.5308 O   0  0  0  0  0  0  0  0  0  0  0  0
   11.7809  -17.7913   27.5717 O   0  0  0  0  0  0  0  0  0  0  0  0
  2  1  1  0
  2  3  1  0
  3 10  1  0
  4  3  2  0
  5  6  1  0
  6  7  1  0
  7  8  1  1
  7  9  1  0
  9 11  1  0
  9 10  1  6
 11 12  2  0
 13 11  1  0
 13 14  1  0
 14 21  1  0
 14 15  1  6
 16 15  1  0
 17 16  2  0
 18 19  1  0
 18 17  1  0
 19 20  2  0
 20 16  1  0
 21 23  2  0
 21 22  1  0
M  END
$$$$
