GIH.pdb
     RDKit          3D

 23 23  0  0  1  0  0  0  0  0999 V2000
    7.2012  -14.8737   20.0997 N   0  0  0  0  0  0  0  0  0  0  0  0
    6.5306  -14.9991   21.3538 C   0  0  0  0  0  0  0  0  0  0  0  0
    7.4718  -14.7815   22.5124 C   0  0  0  0  0  0  0  0  0  0  0  0
    8.7069  -14.8724   22.3684 O   0  0  0  0  0  0  0  0  0  0  0  0
    5.9823  -11.2775   26.3003 C   0  0  0  0  0  0  0  0  0  0  0  0
    6.7469  -12.0865   25.2899 C   0  0  0  0  0  0  0  0  0  0  0  0
    7.2036  -13.3740   25.9492 C   0  0  2  0  0  0  0  0  0  0  0  0
    8.1340  -13.0691   27.0897 C   0  0  0  0  0  0  0  0  0  0  0  0
    7.6642  -14.3750   24.9661 C   0  0  2  0  0  0  0  0  0  0  0  0
    6.8713  -14.4698   23.7653 N   0  0  0  0  0  0  0  0  0  0  0  0
    8.0365  -15.6976   25.4729 C   0  0  0  0  0  0  0  0  0  0  0  0
    7.2012  -16.5776   25.8247 O   0  0  0  0  0  0  0  0  0  0  0  0
    9.3955  -16.0645   25.6017 N   0  0  0  0  0  0  0  0  0  0  0  0
    9.7708  -17.4298   26.0429 C   0  0  1  0  0  0  0  0  0  0  0  0
   10.8056  -18.0053   25.1404 C   0  0  0  0  0  0  0  0  0  0  0  0
   10.2995  -18.1672   23.7822 C   0  0  0  0  0  0  0  0  0  0  0  0
    9.2767  -18.9707   23.3050 C   0  0  0  0  0  0  0  0  0  0  0  0
    9.1436  -18.8407   21.9737 N   0  0  0  0  0  0  0  0  0  0  0  0
   10.0714  -17.9612   21.5891 C   0  0  0  0  0  0  0  0  0  0  0  0
   10.7656  -17.5528   22.6539 N   0  0  0  0  0  0  0  0  0  0  0  0
   10.2758  -17.3487   27.4228 C   0  0  0  0  0  0  0  0  0  0  0  0
   10.5269  -18.4269   28.2540 O   0  0  0  0  0  0  0  0  0  0  0  0
   10.5072  -16.2140   27.9187 O   0  0  0  0  0  0  0  0  0  0  0  0
  2  1  1  0
  2  3  1  0
  3 10  1  0
  4  3  2  0
  5  6  1  0
  6  7  1  0
  7  8  1  1
  7  9  1  0
  9 11  1  0
  9 10  1  6
 11 12  2  0
 13 11  1  0
 13 14  1  0
 14 21  1  0
 14 15  1  6
 16 15  1  0
 17 16  2  0
 18 19  1  0
 18 17  1  0
 19 20  2  0
 20 16  1  0
 21 23  2  0
 21 22  1  0
M  END
$$$$
