GIH.pdb
     RDKit          3D

 23 23  0  0  1  0  0  0  0  0999 V2000
   14.0259  -14.5818   17.6251 N   0  0  0  0  0  0  0  0  0  0  0  0
   12.6722  -15.0197   17.7442 C   0  0  0  0  0  0  0  0  0  0  0  0
   12.1033  -14.7049   19.1054 C   0  0  0  0  0  0  0  0  0  0  0  0
   12.8333  -14.3121   20.0366 O   0  0  0  0  0  0  0  0  0  0  0  0
    7.3925  -12.1922   19.4129 C   0  0  0  0  0  0  0  0  0  0  0  0
    8.7909  -12.7234   19.5626 C   0  0  0  0  0  0  0  0  0  0  0  0
    8.7467  -13.9545   20.4477 C   0  0  2  0  0  0  0  0  0  0  0  0
    8.0742  -13.6295   21.7522 C   0  0  0  0  0  0  0  0  0  0  0  0
   10.0543  -14.6360   20.5266 C   0  0  2  0  0  0  0  0  0  0  0  0
   10.6988  -14.8815   19.2602 N   0  0  0  0  0  0  0  0  0  0  0  0
   10.1606  -15.7920   21.4194 C   0  0  0  0  0  0  0  0  0  0  0  0
    9.4775  -16.8468   21.2899 O   0  0  0  0  0  0  0  0  0  0  0  0
   11.0603  -15.7813   22.5096 N   0  0  0  0  0  0  0  0  0  0  0  0
   11.1263  -16.9297   23.4459 C   0  0  1  0  0  0  0  0  0  0  0  0
   12.5291  -17.4067   23.5907 C   0  0  0  0  0  0  0  0  0  0  0  0
   12.9922  -18.0787   22.3820 C   0  0  0  0  0  0  0  0  0  0  0  0
   12.2669  -18.6824   21.3676 C   0  0  0  0  0  0  0  0  0  0  0  0
   13.0840  -19.2094   20.4394 N   0  0  0  0  0  0  0  0  0  0  0  0
   14.3287  -18.9509   20.8467 C   0  0  0  0  0  0  0  0  0  0  0  0
   14.2890  -18.2795   22.0000 N   0  0  0  0  0  0  0  0  0  0  0  0
   10.5901  -16.4985   24.7468 C   0  0  0  0  0  0  0  0  0  0  0  0
   10.0830  -15.2426   25.0334 O   0  0  0  0  0  0  0  0  0  0  0  0
   10.5800  -17.3203   25.7016 O   0  0  0  0  0  0  0  0  0  0  0  0
  2  1  1  0
  2  3  1  0
  3 10  1  0
  4  3  2  0
  5  6  1  0
  6  7  1  0
  7  8  1  1
  7  9  1  0
  9 11  1  0
  9 10  1  6
 11 12  2  0
 13 11  1  0
 13 14  1  0
 14 21  1  0
 14 15  1  1
 16 15  1  0
 17 16  2  0
 18 19  1  0
 18 17  1  0
 19 20  2  0
 20 16  1  0
 21 23  2  0
 21 22  1  0
M  END
$$$$
