GIH.pdb
     RDKit          3D

 23 23  0  0  1  0  0  0  0  0999 V2000
    7.6799  -15.8068   20.4516 N   0  0  0  0  0  0  0  0  0  0  0  0
    7.0231  -15.8677   21.7179 C   0  0  0  0  0  0  0  0  0  0  0  0
    7.8731  -15.2759   22.8146 C   0  0  0  0  0  0  0  0  0  0  0  0
    9.1124  -15.1991   22.7024 O   0  0  0  0  0  0  0  0  0  0  0  0
    7.3332  -11.2956   27.3858 C   0  0  0  0  0  0  0  0  0  0  0  0
    8.1087  -12.4230   26.7632 C   0  0  0  0  0  0  0  0  0  0  0  0
    7.1993  -13.1574   25.7964 C   0  0  2  0  0  0  0  0  0  0  0  0
    5.9043  -13.5116   26.4724 C   0  0  0  0  0  0  0  0  0  0  0  0
    7.8982  -14.2481   25.0874 C   0  0  2  0  0  0  0  0  0  0  0  0
    7.1824  -14.8160   23.9718 N   0  0  0  0  0  0  0  0  0  0  0  0
    8.5360  -15.2839   25.9031 C   0  0  0  0  0  0  0  0  0  0  0  0
    7.9210  -16.2730   26.3924 O   0  0  0  0  0  0  0  0  0  0  0  0
    9.9174  -15.2223   26.1963 N   0  0  0  0  0  0  0  0  0  0  0  0
   10.5775  -16.3110   26.9571 C   0  0  1  0  0  0  0  0  0  0  0  0
   12.0024  -16.4460   26.5476 C   0  0  0  0  0  0  0  0  0  0  0  0
   12.1265  -17.1177   25.2589 C   0  0  0  0  0  0  0  0  0  0  0  0
   11.1501  -17.6784   24.4516 C   0  0  0  0  0  0  0  0  0  0  0  0
   11.6918  -18.2228   23.3483 N   0  0  0  0  0  0  0  0  0  0  0  0
   13.0080  -18.0182   23.4379 C   0  0  0  0  0  0  0  0  0  0  0  0
   13.2804  -17.3625   24.5686 N   0  0  0  0  0  0  0  0  0  0  0  0
   10.4794  -15.9993   28.3920 C   0  0  0  0  0  0  0  0  0  0  0  0
   10.5679  -16.9175   29.4242 O   0  0  0  0  0  0  0  0  0  0  0  0
   10.2973  -14.8029   28.7421 O   0  0  0  0  0  0  0  0  0  0  0  0
  2  1  1  0
  2  3  1  0
  3 10  1  0
  4  3  2  0
  5  6  1  0
  6  7  1  0
  7  8  1  1
  7  9  1  0
  9 11  1  0
  9 10  1  6
 11 12  2  0
 13 11  1  0
 13 14  1  0
 14 21  1  0
 14 15  1  6
 16 15  1  0
 17 16  2  0
 18 19  1  0
 18 17  1  0
 19 20  2  0
 20 16  1  0
 21 23  2  0
 21 22  1  0
M  END
$$$$
