AWY.pdb
     RDKit          3D

 32 34  0  0  1  0  0  0  0  0999 V2000
   30.8817  -19.0588  -20.7849 C   0  0  0  0  0  0  0  0  0  0  0  0
   29.6096  -18.3132  -20.8975 C   0  0  2  0  0  0  0  0  0  0  0  0
   29.8026  -17.0728  -21.6195 N   0  0  0  0  0  0  0  0  0  0  0  0
   28.9018  -18.0302  -19.6297 C   0  0  0  0  0  0  0  0  0  0  0  0
   29.4493  -17.3199  -18.7844 O   0  0  0  0  0  0  0  0  0  0  0  0
   27.6163  -18.5252  -19.3117 N   0  0  0  0  0  0  0  0  0  0  0  0
   26.8159  -18.3369  -18.1879 C   0  0  1  0  0  0  0  0  0  0  0  0
   25.3775  -18.2268  -18.2453 C   0  0  0  0  0  0  0  0  0  0  0  0
   24.7701  -17.8730  -16.9251 C   0  0  0  0  0  0  0  0  0  0  0  0
   25.0433  -16.7565  -16.1464 C   0  0  0  0  0  0  0  0  0  0  0  0
   24.2864  -16.7812  -15.0350 N   0  0  0  0  0  0  0  0  0  0  0  0
   23.5206  -17.8810  -15.0547 C   0  0  0  0  0  0  0  0  0  0  0  0
   22.5945  -18.3546  -14.1590 C   0  0  0  0  0  0  0  0  0  0  0  0
   21.9083  -19.5322  -14.3720 C   0  0  0  0  0  0  0  0  0  0  0  0
   22.2139  -20.2030  -15.5452 C   0  0  0  0  0  0  0  0  0  0  0  0
   23.1366  -19.7521  -16.4603 C   0  0  0  0  0  0  0  0  0  0  0  0
   23.7957  -18.5741  -16.2064 C   0  0  0  0  0  0  0  0  0  0  0  0
   27.2536  -19.2960  -17.1026 C   0  0  0  0  0  0  0  0  0  0  0  0
   27.5497  -20.4603  -17.4350 O   0  0  0  0  0  0  0  0  0  0  0  0
   24.8828  -21.1699   -9.1931 O   0  0  0  0  0  0  0  0  0  0  0  0
   25.6769  -20.7058  -10.2307 C   0  0  0  0  0  0  0  0  0  0  0  0
   25.5225  -19.4569  -10.7820 C   0  0  0  0  0  0  0  0  0  0  0  0
   26.3189  -19.0338  -11.7990 C   0  0  0  0  0  0  0  0  0  0  0  0
   27.3342  -19.8256  -12.3468 C   0  0  0  0  0  0  0  0  0  0  0  0
   28.1461  -19.3093  -13.4639 C   0  0  0  0  0  0  0  0  0  0  0  0
   27.7582  -19.9639  -14.7466 C   0  0  2  0  0  0  0  0  0  0  0  0
   27.3465  -18.9501  -15.7383 N   0  0  0  0  0  0  0  0  0  0  0  0
   26.6147  -20.8659  -14.5574 C   0  0  0  0  0  0  0  0  0  0  0  0
   26.7468  -22.2424  -14.4128 O   0  0  0  0  0  0  0  0  0  0  0  0
   27.4813  -21.0769  -11.7872 C   0  0  0  0  0  0  0  0  0  0  0  0
   26.6707  -21.5035  -10.7540 C   0  0  0  0  0  0  0  0  0  0  0  0
   25.4503  -20.4016  -14.5226 O   0  0  0  0  0  0  0  0  0  0  0  0
  2  1  1  1
  3  2  1  0
  4  2  1  0
  4  5  2  0
  6  4  1  0
  7  6  1  0
  7  8  1  6
  9  8  1  0
  9 17  1  0
 10  9  2  0
 11 10  1  0
 11 12  1  0
 12 13  1  0
 12 17  2  0
 13 14  2  0
 14 15  1  0
 16 15  2  0
 17 16  1  0
 18  7  1  0
 19 18  2  0
 20 21  1  0
 21 31  2  0
 21 22  1  0
 22 23  2  0
 23 24  1  0
 24 25  1  0
 26 25  1  1
 26 28  1  0
 26 27  1  0
 27 18  1  0
 28 29  1  0
 30 24  2  0
 31 30  1  0
 32 28  2  0
M  END
$$$$
