AWY.pdb
     RDKit          3D

 32 34  0  0  1  0  0  0  0  0999 V2000
   29.2594  -23.4360  -16.7190 C   0  0  0  0  0  0  0  0  0  0  0  0
   27.9877  -22.6855  -16.7973 C   0  0  2  0  0  0  0  0  0  0  0  0
   28.2002  -21.3715  -17.3679 N   0  0  0  0  0  0  0  0  0  0  0  0
   27.2293  -22.5481  -15.5346 C   0  0  0  0  0  0  0  0  0  0  0  0
   26.8948  -23.5650  -14.9240 O   0  0  0  0  0  0  0  0  0  0  0  0
   26.8537  -21.3095  -14.9659 N   0  0  0  0  0  0  0  0  0  0  0  0
   26.2249  -21.0097  -13.7603 C   0  0  1  0  0  0  0  0  0  0  0  0
   26.6536  -19.9470  -12.8822 C   0  0  0  0  0  0  0  0  0  0  0  0
   27.6319  -20.4079  -11.8490 C   0  0  0  0  0  0  0  0  0  0  0  0
   28.9378  -20.8306  -12.0573 C   0  0  0  0  0  0  0  0  0  0  0  0
   29.5049  -21.1515  -10.8809 N   0  0  0  0  0  0  0  0  0  0  0  0
   28.6131  -20.9541   -9.9000 C   0  0  0  0  0  0  0  0  0  0  0  0
   28.7059  -21.1371   -8.5427 C   0  0  0  0  0  0  0  0  0  0  0  0
   27.6489  -20.8735   -7.6964 C   0  0  0  0  0  0  0  0  0  0  0  0
   26.4917  -20.4135   -8.3040 C   0  0  0  0  0  0  0  0  0  0  0  0
   26.3705  -20.2207   -9.6606 C   0  0  0  0  0  0  0  0  0  0  0  0
   27.4494  -20.4962  -10.4646 C   0  0  0  0  0  0  0  0  0  0  0  0
   24.7279  -20.9760  -13.9782 C   0  0  0  0  0  0  0  0  0  0  0  0
   24.2915  -20.3159  -14.9413 O   0  0  0  0  0  0  0  0  0  0  0  0
   16.0589  -22.4174  -14.0021 O   0  0  0  0  0  0  0  0  0  0  0  0
   17.4145  -22.4756  -13.7171 C   0  0  0  0  0  0  0  0  0  0  0  0
   18.3280  -23.0485  -14.5686 C   0  0  0  0  0  0  0  0  0  0  0  0
   19.6505  -23.0885  -14.2576 C   0  0  0  0  0  0  0  0  0  0  0  0
   20.1666  -22.5587  -13.0697 C   0  0  0  0  0  0  0  0  0  0  0  0
   21.6104  -22.6565  -12.7883 C   0  0  0  0  0  0  0  0  0  0  0  0
   22.3525  -21.5359  -13.4350 C   0  0  2  0  0  0  0  0  0  0  0  0
   23.7984  -21.6474  -13.1567 N   0  0  0  0  0  0  0  0  0  0  0  0
   21.9149  -20.2364  -12.9090 C   0  0  0  0  0  0  0  0  0  0  0  0
   20.9628  -19.4421  -13.5382 O   0  0  0  0  0  0  0  0  0  0  0  0
   19.2424  -21.9861  -12.2219 C   0  0  0  0  0  0  0  0  0  0  0  0
   17.8996  -21.9470  -12.5410 C   0  0  0  0  0  0  0  0  0  0  0  0
   22.4075  -19.7942  -11.8439 O   0  0  0  0  0  0  0  0  0  0  0  0
  2  1  1  1
  3  2  1  0
  4  2  1  0
  4  5  2  0
  6  4  1  0
  7  6  1  0
  7  8  1  6
  9  8  1  0
  9 17  1  0
 10  9  2  0
 11 10  1  0
 11 12  1  0
 12 13  1  0
 12 17  2  0
 13 14  2  0
 14 15  1  0
 16 15  2  0
 17 16  1  0
 18  7  1  0
 19 18  2  0
 20 21  1  0
 21 31  2  0
 21 22  1  0
 22 23  2  0
 23 24  1  0
 24 25  1  0
 26 25  1  1
 26 28  1  0
 26 27  1  0
 27 18  1  0
 28 29  1  0
 30 24  2  0
 31 30  1  0
 32 28  2  0
M  END
$$$$
