AWY.pdb
     RDKit          3D

 32 34  0  0  1  0  0  0  0  0999 V2000
   26.3726  -17.9550  -18.5698 C   0  0  0  0  0  0  0  0  0  0  0  0
   25.4689  -18.8742  -17.8453 C   0  0  2  0  0  0  0  0  0  0  0  0
   24.7015  -19.6787  -18.7732 N   0  0  0  0  0  0  0  0  0  0  0  0
   24.5488  -18.2527  -16.8677 C   0  0  0  0  0  0  0  0  0  0  0  0
   25.0085  -17.4942  -16.0119 O   0  0  0  0  0  0  0  0  0  0  0  0
   23.1520  -18.4697  -16.8443 N   0  0  0  0  0  0  0  0  0  0  0  0
   22.1531  -17.9133  -16.0497 C   0  0  1  0  0  0  0  0  0  0  0  0
   21.3033  -16.8297  -16.4831 C   0  0  0  0  0  0  0  0  0  0  0  0
   21.5796  -16.4031  -17.8897 C   0  0  0  0  0  0  0  0  0  0  0  0
   22.6743  -16.7451  -18.6721 C   0  0  0  0  0  0  0  0  0  0  0  0
   22.5599  -16.1788  -19.8865 N   0  0  0  0  0  0  0  0  0  0  0  0
   21.4221  -15.4718  -19.9312 C   0  0  0  0  0  0  0  0  0  0  0  0
   20.8638  -14.7187  -20.9339 C   0  0  0  0  0  0  0  0  0  0  0  0
   19.6654  -14.0557  -20.7685 C   0  0  0  0  0  0  0  0  0  0  0  0
   19.0644  -14.1994  -19.5283 C   0  0  0  0  0  0  0  0  0  0  0  0
   19.6006  -14.9473  -18.5059 C   0  0  0  0  0  0  0  0  0  0  0  0
   20.7959  -15.5903  -18.7161 C   0  0  0  0  0  0  0  0  0  0  0  0
   21.3484  -19.0264  -15.4151 C   0  0  0  0  0  0  0  0  0  0  0  0
   21.2591  -20.1075  -16.0292 O   0  0  0  0  0  0  0  0  0  0  0  0
   17.0750  -24.4579  -10.0076 O   0  0  0  0  0  0  0  0  0  0  0  0
   17.8427  -23.4367  -10.5465 C   0  0  0  0  0  0  0  0  0  0  0  0
   18.9881  -23.6710  -11.2681 C   0  0  0  0  0  0  0  0  0  0  0  0
   19.7173  -22.6457  -11.7825 C   0  0  0  0  0  0  0  0  0  0  0  0
   19.3598  -21.3030  -11.6168 C   0  0  0  0  0  0  0  0  0  0  0  0
   20.2102  -20.2412  -12.1849 C   0  0  0  0  0  0  0  0  0  0  0  0
   19.9223  -20.0526  -13.6361 C   0  0  2  0  0  0  0  0  0  0  0  0
   20.6944  -18.9129  -14.1704 N   0  0  0  0  0  0  0  0  0  0  0  0
   18.5029  -19.7501  -13.8605 C   0  0  0  0  0  0  0  0  0  0  0  0
   17.5373  -20.7311  -14.0568 O   0  0  0  0  0  0  0  0  0  0  0  0
   18.2092  -21.0781  -10.8913 C   0  0  0  0  0  0  0  0  0  0  0  0
   17.4708  -22.1221  -10.3703 C   0  0  0  0  0  0  0  0  0  0  0  0
   18.1129  -18.5584  -13.8838 O   0  0  0  0  0  0  0  0  0  0  0  0
  2  1  1  6
  3  2  1  0
  4  2  1  0
  4  5  2  0
  6  4  1  0
  7  6  1  0
  7  8  1  6
  9  8  1  0
  9 17  1  0
 10  9  2  0
 11 10  1  0
 11 12  1  0
 12 13  1  0
 12 17  2  0
 13 14  2  0
 14 15  1  0
 16 15  2  0
 17 16  1  0
 18  7  1  0
 19 18  2  0
 20 21  1  0
 21 31  2  0
 21 22  1  0
 22 23  2  0
 23 24  1  0
 24 25  1  0
 26 25  1  1
 26 28  1  0
 26 27  1  0
 27 18  1  0
 28 29  1  0
 30 24  2  0
 31 30  1  0
 32 28  2  0
M  END
$$$$
