AWY.pdb
     RDKit          3D

 32 34  0  0  1  0  0  0  0  0999 V2000
   22.4772  -16.3817  -17.8858 C   0  0  0  0  0  0  0  0  0  0  0  0
   23.7338  -16.8788  -17.2853 C   0  0  2  0  0  0  0  0  0  0  0  0
   24.8251  -16.7960  -18.2337 N   0  0  0  0  0  0  0  0  0  0  0  0
   23.6920  -18.2424  -16.7133 C   0  0  0  0  0  0  0  0  0  0  0  0
   23.4928  -19.1999  -17.4632 O   0  0  0  0  0  0  0  0  0  0  0  0
   23.8684  -18.5324  -15.3409 N   0  0  0  0  0  0  0  0  0  0  0  0
   23.9782  -19.7473  -14.6695 C   0  0  1  0  0  0  0  0  0  0  0  0
   25.0995  -20.0927  -13.8284 C   0  0  0  0  0  0  0  0  0  0  0  0
   26.4073  -20.0312  -14.5516 C   0  0  0  0  0  0  0  0  0  0  0  0
   27.2464  -18.9325  -14.6788 C   0  0  0  0  0  0  0  0  0  0  0  0
   28.3370  -19.2732  -15.3882 N   0  0  0  0  0  0  0  0  0  0  0  0
   28.2446  -20.5647  -15.7346 C   0  0  0  0  0  0  0  0  0  0  0  0
   29.0900  -21.3705  -16.4558 C   0  0  0  0  0  0  0  0  0  0  0  0
   28.7984  -22.6952  -16.7072 C   0  0  0  0  0  0  0  0  0  0  0  0
   27.6007  -23.1573  -16.1858 C   0  0  0  0  0  0  0  0  0  0  0  0
   26.7349  -22.3728  -15.4597 C   0  0  0  0  0  0  0  0  0  0  0  0
   27.0668  -21.0593  -15.2339 C   0  0  0  0  0  0  0  0  0  0  0  0
   22.6621  -20.0579  -13.9906 C   0  0  0  0  0  0  0  0  0  0  0  0
   22.2307  -19.2444  -13.1504 O   0  0  0  0  0  0  0  0  0  0  0  0
   14.4285  -20.8621  -11.9528 O   0  0  0  0  0  0  0  0  0  0  0  0
   15.7169  -20.7013  -12.4392 C   0  0  0  0  0  0  0  0  0  0  0  0
   16.7596  -20.2759  -11.6521 C   0  0  0  0  0  0  0  0  0  0  0  0
   18.0110  -20.1290  -12.1618 C   0  0  0  0  0  0  0  0  0  0  0  0
   18.3209  -20.3957  -13.5001 C   0  0  0  0  0  0  0  0  0  0  0  0
   19.6968  -20.1937  -13.9896 C   0  0  0  0  0  0  0  0  0  0  0  0
   20.5572  -21.3627  -13.6467 C   0  0  2  0  0  0  0  0  0  0  0  0
   21.8954  -21.2125  -14.2527 N   0  0  0  0  0  0  0  0  0  0  0  0
   19.9887  -22.6116  -14.1699 C   0  0  0  0  0  0  0  0  0  0  0  0
   19.1299  -23.4229  -13.4366 O   0  0  0  0  0  0  0  0  0  0  0  0
   17.2683  -20.8218  -14.2818 C   0  0  0  0  0  0  0  0  0  0  0  0
   15.9982  -20.9702  -13.7606 C   0  0  0  0  0  0  0  0  0  0  0  0
   20.2750  -22.9919  -15.3300 O   0  0  0  0  0  0  0  0  0  0  0  0
  2  1  1  6
  3  2  1  0
  4  2  1  0
  4  5  2  0
  6  4  1  0
  7  6  1  0
  7  8  1  1
  9  8  1  0
  9 17  1  0
 10  9  2  0
 11 10  1  0
 11 12  1  0
 12 13  1  0
 12 17  2  0
 13 14  2  0
 14 15  1  0
 16 15  2  0
 17 16  1  0
 18  7  1  0
 19 18  2  0
 20 21  1  0
 21 31  2  0
 21 22  1  0
 22 23  2  0
 23 24  1  0
 24 25  1  0
 26 25  1  6
 26 28  1  0
 26 27  1  0
 27 18  1  0
 28 29  1  0
 30 24  2  0
 31 30  1  0
 32 28  2  0
M  END
$$$$
