AWY.pdb
     RDKit          3D

 32 34  0  0  1  0  0  0  0  0999 V2000
   33.6457  -37.6350   -8.5597 C   0  0  0  0  0  0  0  0  0  0  0  0
   32.7598  -36.5241   -8.9691 C   0  0  2  0  0  0  0  0  0  0  0  0
   33.5054  -35.5072   -9.6814 N   0  0  0  0  0  0  0  0  0  0  0  0
   31.9731  -35.8829   -7.8928 C   0  0  0  0  0  0  0  0  0  0  0  0
   32.5401  -35.1142   -7.1140 O   0  0  0  0  0  0  0  0  0  0  0  0
   30.5897  -36.0916   -7.6896 N   0  0  0  0  0  0  0  0  0  0  0  0
   29.7276  -35.6149   -6.7056 C   0  0  1  0  0  0  0  0  0  0  0  0
   28.2946  -35.5485   -6.8678 C   0  0  0  0  0  0  0  0  0  0  0  0
   27.8746  -34.5679   -7.9162 C   0  0  0  0  0  0  0  0  0  0  0  0
   28.2494  -34.5545   -9.2529 C   0  0  0  0  0  0  0  0  0  0  0  0
   27.6538  -33.5258   -9.8818 N   0  0  0  0  0  0  0  0  0  0  0  0
   26.8960  -32.8575   -9.0010 C   0  0  0  0  0  0  0  0  0  0  0  0
   26.1043  -31.7459   -9.1488 C   0  0  0  0  0  0  0  0  0  0  0  0
   25.3989  -31.2062   -8.0934 C   0  0  0  0  0  0  0  0  0  0  0  0
   25.5413  -31.8574   -6.8786 C   0  0  0  0  0  0  0  0  0  0  0  0
   26.3271  -32.9725   -6.7016 C   0  0  0  0  0  0  0  0  0  0  0  0
   27.0112  -33.4752   -7.7812 C   0  0  0  0  0  0  0  0  0  0  0  0
   30.1050  -36.2314   -5.3764 C   0  0  0  0  0  0  0  0  0  0  0  0
   30.0978  -37.4745   -5.2847 O   0  0  0  0  0  0  0  0  0  0  0  0
   33.9022  -39.1622    1.7098 O   0  0  0  0  0  0  0  0  0  0  0  0
   33.5134  -38.5103    0.5495 C   0  0  0  0  0  0  0  0  0  0  0  0
   32.2127  -38.4950    0.1071 C   0  0  0  0  0  0  0  0  0  0  0  0
   31.8662  -37.8457   -1.0357 C   0  0  0  0  0  0  0  0  0  0  0  0
   32.7927  -37.1592   -1.8285 C   0  0  0  0  0  0  0  0  0  0  0  0
   32.3491  -36.4947   -3.0676 C   0  0  0  0  0  0  0  0  0  0  0  0
   30.8937  -36.1749   -3.0044 C   0  0  2  0  0  0  0  0  0  0  0  0
   30.4646  -35.4827   -4.2362 N   0  0  0  0  0  0  0  0  0  0  0  0
   30.5964  -35.2749   -1.8827 C   0  0  0  0  0  0  0  0  0  0  0  0
   30.7304  -35.6492   -0.5503 O   0  0  0  0  0  0  0  0  0  0  0  0
   34.0949  -37.1803   -1.3765 C   0  0  0  0  0  0  0  0  0  0  0  0
   34.4434  -37.8408   -0.2151 C   0  0  0  0  0  0  0  0  0  0  0  0
   30.1983  -34.1068   -2.1058 O   0  0  0  0  0  0  0  0  0  0  0  0
  2  1  1  1
  3  2  1  0
  4  2  1  0
  4  5  2  0
  6  4  1  0
  7  6  1  0
  7  8  1  6
  9  8  1  0
  9 17  1  0
 10  9  2  0
 11 10  1  0
 11 12  1  0
 12 13  1  0
 12 17  2  0
 13 14  2  0
 14 15  1  0
 16 15  2  0
 17 16  1  0
 18  7  1  0
 19 18  2  0
 20 21  1  0
 21 31  2  0
 21 22  1  0
 22 23  2  0
 23 24  1  0
 24 25  1  0
 26 25  1  6
 26 28  1  0
 26 27  1  0
 27 18  1  0
 28 29  1  0
 30 24  2  0
 31 30  1  0
 32 28  2  0
M  END
$$$$
