AWY.pdb
     RDKit          3D

 32 34  0  0  1  0  0  0  0  0999 V2000
   18.2920  -14.6025  -23.7303 C   0  0  0  0  0  0  0  0  0  0  0  0
   18.7438  -13.3670  -23.0550 C   0  0  2  0  0  0  0  0  0  0  0  0
   20.1658  -13.4183  -22.7859 N   0  0  0  0  0  0  0  0  0  0  0  0
   18.0289  -13.0006  -21.8127 C   0  0  0  0  0  0  0  0  0  0  0  0
   16.8077  -12.8395  -21.8506 O   0  0  0  0  0  0  0  0  0  0  0  0
   18.6582  -12.8191  -20.5598 N   0  0  0  0  0  0  0  0  0  0  0  0
   18.1292  -12.5390  -19.3027 C   0  0  1  0  0  0  0  0  0  0  0  0
   18.3971  -13.3385  -18.1308 C   0  0  0  0  0  0  0  0  0  0  0  0
   17.9943  -14.7689  -18.3004 C   0  0  0  0  0  0  0  0  0  0  0  0
   18.7961  -15.8247  -18.7124 C   0  0  0  0  0  0  0  0  0  0  0  0
   18.0783  -16.9618  -18.7274 N   0  0  0  0  0  0  0  0  0  0  0  0
   16.8250  -16.6901  -18.3378 C   0  0  0  0  0  0  0  0  0  0  0  0
   15.7267  -17.5008  -18.1936 C   0  0  0  0  0  0  0  0  0  0  0  0
   14.5065  -17.0101  -17.7772 C   0  0  0  0  0  0  0  0  0  0  0  0
   14.4624  -15.6502  -17.5151 C   0  0  0  0  0  0  0  0  0  0  0  0
   15.5466  -14.8145  -17.6507 C   0  0  0  0  0  0  0  0  0  0  0  0
   16.7418  -15.3474  -18.0679 C   0  0  0  0  0  0  0  0  0  0  0  0
   18.2949  -11.0630  -19.0139 C   0  0  0  0  0  0  0  0  0  0  0  0
   19.4470  -10.5877  -19.0382 O   0  0  0  0  0  0  0  0  0  0  0  0
   17.0913   -2.4015  -18.2525 O   0  0  0  0  0  0  0  0  0  0  0  0
   16.9204   -3.7551  -18.5000 C   0  0  0  0  0  0  0  0  0  0  0  0
   15.9868   -4.5179  -17.8412 C   0  0  0  0  0  0  0  0  0  0  0  0
   15.8459   -5.8431  -18.1087 C   0  0  0  0  0  0  0  0  0  0  0  0
   16.6276   -6.5126  -19.0569 C   0  0  0  0  0  0  0  0  0  0  0  0
   16.4343   -7.9570  -19.2800 C   0  0  0  0  0  0  0  0  0  0  0  0
   17.4705   -8.7476  -18.5549 C   0  0  2  0  0  0  0  0  0  0  0  0
   17.2234  -10.1941  -18.7198 N   0  0  0  0  0  0  0  0  0  0  0  0
   17.4374   -8.4698  -17.1133 C   0  0  0  0  0  0  0  0  0  0  0  0
   18.3203   -7.5982  -16.4856 O   0  0  0  0  0  0  0  0  0  0  0  0
   17.5615   -5.7389  -19.7124 C   0  0  0  0  0  0  0  0  0  0  0  0
   17.7018   -4.3928  -19.4383 C   0  0  0  0  0  0  0  0  0  0  0  0
   16.5841   -9.0327  -16.3867 O   0  0  0  0  0  0  0  0  0  0  0  0
  2  1  1  1
  3  2  1  0
  4  2  1  0
  4  5  2  0
  6  4  1  0
  7  6  1  0
  7  8  1  1
  9  8  1  0
  9 17  1  0
 10  9  2  0
 11 10  1  0
 11 12  1  0
 12 13  1  0
 12 17  2  0
 13 14  2  0
 14 15  1  0
 16 15  2  0
 17 16  1  0
 18  7  1  0
 19 18  2  0
 20 21  1  0
 21 31  2  0
 21 22  1  0
 22 23  2  0
 23 24  1  0
 24 25  1  0
 26 25  1  6
 26 28  1  0
 26 27  1  0
 27 18  1  0
 28 29  1  0
 30 24  2  0
 31 30  1  0
 32 28  2  0
M  END
$$$$
