AWY.pdb
     RDKit          3D

 32 34  0  0  1  0  0  0  0  0999 V2000
   27.4742   -9.2862  -24.4918 C   0  0  0  0  0  0  0  0  0  0  0  0
   27.8403   -8.5146  -23.2846 C   0  0  2  0  0  0  0  0  0  0  0  0
   29.2393   -8.7003  -22.9600 N   0  0  0  0  0  0  0  0  0  0  0  0
   27.0255   -8.7645  -22.0754 C   0  0  0  0  0  0  0  0  0  0  0  0
   26.7189   -9.9235  -21.7897 O   0  0  0  0  0  0  0  0  0  0  0  0
   26.5646   -7.7495  -21.2060 N   0  0  0  0  0  0  0  0  0  0  0  0
   25.9954   -7.8207  -19.9372 C   0  0  1  0  0  0  0  0  0  0  0  0
   26.6645   -7.3728  -18.7390 C   0  0  0  0  0  0  0  0  0  0  0  0
   27.8532   -8.2110  -18.3908 C   0  0  0  0  0  0  0  0  0  0  0  0
   27.9010   -9.5934  -18.2716 C   0  0  0  0  0  0  0  0  0  0  0  0
   29.1508   -9.9799  -17.9600 N   0  0  0  0  0  0  0  0  0  0  0  0
   29.9318   -8.8945  -17.8691 C   0  0  0  0  0  0  0  0  0  0  0  0
   31.2661   -8.7621  -17.5752 C   0  0  0  0  0  0  0  0  0  0  0  0
   31.8847   -7.5300  -17.5279 C   0  0  0  0  0  0  0  0  0  0  0  0
   31.0738   -6.4388  -17.7956 C   0  0  0  0  0  0  0  0  0  0  0  0
   29.7347   -6.5417  -18.0930 C   0  0  0  0  0  0  0  0  0  0  0  0
   29.1614   -7.7893  -18.1292 C   0  0  0  0  0  0  0  0  0  0  0  0
   24.5749   -7.3039  -20.0027 C   0  0  0  0  0  0  0  0  0  0  0  0
   24.4034   -6.0912  -20.2344 O   0  0  0  0  0  0  0  0  0  0  0  0
   15.8759   -6.2920  -20.5098 O   0  0  0  0  0  0  0  0  0  0  0  0
   17.1707   -6.7837  -20.5750 C   0  0  0  0  0  0  0  0  0  0  0  0
   17.5760   -7.9007  -19.8854 C   0  0  0  0  0  0  0  0  0  0  0  0
   18.8540   -8.3555  -19.9722 C   0  0  0  0  0  0  0  0  0  0  0  0
   19.8300   -7.7299  -20.7558 C   0  0  0  0  0  0  0  0  0  0  0  0
   21.2028   -8.2666  -20.7858 C   0  0  0  0  0  0  0  0  0  0  0  0
   22.0874   -7.5090  -19.8542 C   0  0  2  0  0  0  0  0  0  0  0  0
   23.4344   -8.1131  -19.8176 N   0  0  0  0  0  0  0  0  0  0  0  0
   21.5661   -7.5432  -18.4817 C   0  0  0  0  0  0  0  0  0  0  0  0
   20.7008   -6.5816  -17.9719 O   0  0  0  0  0  0  0  0  0  0  0  0
   19.4138   -6.6100  -21.4438 C   0  0  0  0  0  0  0  0  0  0  0  0
   18.1147   -6.1508  -21.3535 C   0  0  0  0  0  0  0  0  0  0  0  0
   21.9014   -8.4712  -17.7077 O   0  0  0  0  0  0  0  0  0  0  0  0
  2  1  1  6
  3  2  1  0
  4  2  1  0
  4  5  2  0
  6  4  1  0
  7  6  1  0
  7  8  1  1
  9  8  1  0
  9 17  1  0
 10  9  2  0
 11 10  1  0
 11 12  1  0
 12 13  1  0
 12 17  2  0
 13 14  2  0
 14 15  1  0
 16 15  2  0
 17 16  1  0
 18  7  1  0
 19 18  2  0
 20 21  1  0
 21 31  2  0
 21 22  1  0
 22 23  2  0
 23 24  1  0
 24 25  1  0
 26 25  1  6
 26 28  1  0
 26 27  1  0
 27 18  1  0
 28 29  1  0
 30 24  2  0
 31 30  1  0
 32 28  2  0
M  END
$$$$
