AWY.pdb
     RDKit          3D

 32 34  0  0  1  0  0  0  0  0999 V2000
   26.9452  -11.1838  -15.2436 C   0  0  0  0  0  0  0  0  0  0  0  0
   25.7326  -12.0076  -15.4373 C   0  0  2  0  0  0  0  0  0  0  0  0
   25.9953  -13.1040  -16.3463 N   0  0  0  0  0  0  0  0  0  0  0  0
   24.5177  -11.2904  -15.8824 C   0  0  0  0  0  0  0  0  0  0  0  0
   24.3747  -11.0424  -17.0811 O   0  0  0  0  0  0  0  0  0  0  0  0
   23.4876  -10.8610  -15.0145 N   0  0  0  0  0  0  0  0  0  0  0  0
   22.2382  -10.3073  -15.2813 C   0  0  1  0  0  0  0  0  0  0  0  0
   20.9930  -10.9833  -15.0042 C   0  0  0  0  0  0  0  0  0  0  0  0
   20.8654  -12.2843  -15.7307 C   0  0  0  0  0  0  0  0  0  0  0  0
   21.3288  -13.5263  -15.3182 C   0  0  0  0  0  0  0  0  0  0  0  0
   21.0103  -14.4577  -16.2345 N   0  0  0  0  0  0  0  0  0  0  0  0
   20.3499  -13.8691  -17.2415 C   0  0  0  0  0  0  0  0  0  0  0  0
   19.8235  -14.3827  -18.4005 C   0  0  0  0  0  0  0  0  0  0  0  0
   19.1746  -13.5881  -19.3228 C   0  0  0  0  0  0  0  0  0  0  0  0
   19.0894  -12.2424  -19.0035 C   0  0  0  0  0  0  0  0  0  0  0  0
   19.6072  -11.7006  -17.8500 C   0  0  0  0  0  0  0  0  0  0  0  0
   20.2449  -12.5303  -16.9604 C   0  0  0  0  0  0  0  0  0  0  0  0
   22.2138   -8.8787  -14.7836 C   0  0  0  0  0  0  0  0  0  0  0  0
   22.3841   -8.6805  -13.5648 O   0  0  0  0  0  0  0  0  0  0  0  0
   22.4309   -0.0646  -14.1612 O   0  0  0  0  0  0  0  0  0  0  0  0
   22.4917   -1.3720  -14.6191 C   0  0  0  0  0  0  0  0  0  0  0  0
   22.8561   -1.6919  -15.9046 C   0  0  0  0  0  0  0  0  0  0  0  0
   22.9051   -2.9850  -16.3205 C   0  0  0  0  0  0  0  0  0  0  0  0
   22.5936   -4.0628  -15.4842 C   0  0  0  0  0  0  0  0  0  0  0  0
   22.6478   -5.4394  -16.0094 C   0  0  0  0  0  0  0  0  0  0  0  0
   22.0370   -6.3983  -15.0441 C   0  0  2  0  0  0  0  0  0  0  0  0
   22.0104   -7.7590  -15.6171 N   0  0  0  0  0  0  0  0  0  0  0  0
   20.6466   -6.0342  -14.7425 C   0  0  0  0  0  0  0  0  0  0  0  0
   20.2720   -5.3465  -13.5936 O   0  0  0  0  0  0  0  0  0  0  0  0
   22.2291   -3.7318  -14.1965 C   0  0  0  0  0  0  0  0  0  0  0  0
   22.1805   -2.4171  -13.7773 C   0  0  0  0  0  0  0  0  0  0  0  0
   19.7305   -6.3471  -15.5397 O   0  0  0  0  0  0  0  0  0  0  0  0
  2  1  1  6
  3  2  1  0
  4  2  1  0
  4  5  2  0
  6  4  1  0
  7  6  1  0
  7  8  1  1
  9  8  1  0
  9 17  1  0
 10  9  2  0
 11 10  1  0
 11 12  1  0
 12 13  1  0
 12 17  2  0
 13 14  2  0
 14 15  1  0
 16 15  2  0
 17 16  1  0
 18  7  1  0
 19 18  2  0
 20 21  1  0
 21 31  2  0
 21 22  1  0
 22 23  2  0
 23 24  1  0
 24 25  1  0
 26 25  1  6
 26 28  1  0
 26 27  1  0
 27 18  1  0
 28 29  1  0
 30 24  2  0
 31 30  1  0
 32 28  2  0
M  END
$$$$
