AWY.pdb
     RDKit          3D

 32 34  0  0  1  0  0  0  0  0999 V2000
   28.3375  -18.8396  -17.5757 C   0  0  0  0  0  0  0  0  0  0  0  0
   28.7394  -20.0801  -16.8782 C   0  0  2  0  0  0  0  0  0  0  0  0
   28.8720  -21.1768  -17.8146 N   0  0  0  0  0  0  0  0  0  0  0  0
   27.8800  -20.5062  -15.7520 C   0  0  0  0  0  0  0  0  0  0  0  0
   26.8353  -21.1137  -15.9933 O   0  0  0  0  0  0  0  0  0  0  0  0
   28.1772  -20.2627  -14.3915 N   0  0  0  0  0  0  0  0  0  0  0  0
   27.4798  -20.5869  -13.2307 C   0  0  1  0  0  0  0  0  0  0  0  0
   28.0731  -20.5675  -11.9147 C   0  0  0  0  0  0  0  0  0  0  0  0
   27.0909  -20.8813  -10.8313 C   0  0  0  0  0  0  0  0  0  0  0  0
   26.0702  -21.8217  -10.8687 C   0  0  0  0  0  0  0  0  0  0  0  0
   25.4090  -21.8217   -9.6976 N   0  0  0  0  0  0  0  0  0  0  0  0
   25.9615  -20.9091   -8.8862 C   0  0  0  0  0  0  0  0  0  0  0  0
   25.6494  -20.5318   -7.6039 C   0  0  0  0  0  0  0  0  0  0  0  0
   26.3546  -19.5499   -6.9394 C   0  0  0  0  0  0  0  0  0  0  0  0
   27.3950  -18.9717   -7.6488 C   0  0  0  0  0  0  0  0  0  0  0  0
   27.7301  -19.3299   -8.9340 C   0  0  0  0  0  0  0  0  0  0  0  0
   27.0000  -20.3130   -9.5561 C   0  0  0  0  0  0  0  0  0  0  0  0
   26.1418  -19.8806  -13.2439 C   0  0  0  0  0  0  0  0  0  0  0  0
   26.1371  -18.6350  -13.1966 O   0  0  0  0  0  0  0  0  0  0  0  0
   18.2281  -16.7473  -14.8250 O   0  0  0  0  0  0  0  0  0  0  0  0
   19.4117  -17.4685  -14.7885 C   0  0  0  0  0  0  0  0  0  0  0  0
   20.6400  -16.8900  -14.9990 C   0  0  0  0  0  0  0  0  0  0  0  0
   21.7811  -17.6271  -14.9560 C   0  0  0  0  0  0  0  0  0  0  0  0
   21.7861  -19.0026  -14.6988 C   0  0  0  0  0  0  0  0  0  0  0  0
   23.0610  -19.7431  -14.6883 C   0  0  0  0  0  0  0  0  0  0  0  0
   23.6450  -19.7714  -13.3162 C   0  0  2  0  0  0  0  0  0  0  0  0
   24.9008  -20.5481  -13.3070 N   0  0  0  0  0  0  0  0  0  0  0  0
   22.7337  -20.4206  -12.3650 C   0  0  0  0  0  0  0  0  0  0  0  0
   21.9054  -19.7134  -11.5007 O   0  0  0  0  0  0  0  0  0  0  0  0
   20.5491  -19.5739  -14.4891 C   0  0  0  0  0  0  0  0  0  0  0  0
   19.3918  -18.8221  -14.5333 C   0  0  0  0  0  0  0  0  0  0  0  0
   22.6795  -21.6720  -12.3046 O   0  0  0  0  0  0  0  0  0  0  0  0
  2  1  1  6
  3  2  1  0
  4  2  1  0
  4  5  2  0
  6  4  1  0
  7  6  1  0
  7  8  1  1
  9  8  1  0
  9 17  1  0
 10  9  2  0
 11 10  1  0
 11 12  1  0
 12 13  1  0
 12 17  2  0
 13 14  2  0
 14 15  1  0
 16 15  2  0
 17 16  1  0
 18  7  1  0
 19 18  2  0
 20 21  1  0
 21 31  2  0
 21 22  1  0
 22 23  2  0
 23 24  1  0
 24 25  1  0
 26 25  1  6
 26 28  1  0
 26 27  1  0
 27 18  1  0
 28 29  1  0
 30 24  2  0
 31 30  1  0
 32 28  2  0
M  END
$$$$
