AWY.pdb
     RDKit          3D

 32 34  0  0  1  0  0  0  0  0999 V2000
   23.8104  -16.1887  -23.4443 C   0  0  0  0  0  0  0  0  0  0  0  0
   24.6958  -16.6574  -22.3566 C   0  0  2  0  0  0  0  0  0  0  0  0
   24.6153  -18.0960  -22.2116 N   0  0  0  0  0  0  0  0  0  0  0  0
   24.4987  -16.0257  -21.0335 C   0  0  0  0  0  0  0  0  0  0  0  0
   23.7088  -16.5376  -20.2379 O   0  0  0  0  0  0  0  0  0  0  0  0
   25.1651  -14.8541  -20.6069 N   0  0  0  0  0  0  0  0  0  0  0  0
   25.1927  -14.2167  -19.3693 C   0  0  1  0  0  0  0  0  0  0  0  0
   26.4114  -13.8091  -18.7115 C   0  0  0  0  0  0  0  0  0  0  0  0
   27.2679  -14.9670  -18.3083 C   0  0  0  0  0  0  0  0  0  0  0  0
   28.2842  -15.5581  -19.0467 C   0  0  0  0  0  0  0  0  0  0  0  0
   28.8330  -16.5632  -18.3416 N   0  0  0  0  0  0  0  0  0  0  0  0
   28.2100  -16.6552  -17.1584 C   0  0  0  0  0  0  0  0  0  0  0  0
   28.3971  -17.5112  -16.1018 C   0  0  0  0  0  0  0  0  0  0  0  0
   27.6302  -17.4373  -14.9575 C   0  0  0  0  0  0  0  0  0  0  0  0
   26.6623  -16.4459  -14.9447 C   0  0  0  0  0  0  0  0  0  0  0  0
   26.4528  -15.5747  -15.9884 C   0  0  0  0  0  0  0  0  0  0  0  0
   27.2407  -15.6854  -17.1079 C   0  0  0  0  0  0  0  0  0  0  0  0
   24.1630  -13.1081  -19.3608 C   0  0  0  0  0  0  0  0  0  0  0  0
   24.2315  -12.2390  -20.2517 O   0  0  0  0  0  0  0  0  0  0  0  0
   18.6386  -16.5770  -16.0078 O   0  0  0  0  0  0  0  0  0  0  0  0
   19.1875  -15.5614  -16.7757 C   0  0  0  0  0  0  0  0  0  0  0  0
   20.0906  -15.7984  -17.7836 C   0  0  0  0  0  0  0  0  0  0  0  0
   20.6093  -14.7785  -18.5173 C   0  0  0  0  0  0  0  0  0  0  0  0
   20.2666  -13.4390  -18.3022 C   0  0  0  0  0  0  0  0  0  0  0  0
   20.8852  -12.3819  -19.1229 C   0  0  0  0  0  0  0  0  0  0  0  0
   22.1510  -11.9000  -18.4983 C   0  0  2  0  0  0  0  0  0  0  0  0
   23.1310  -13.0008  -18.4053 N   0  0  0  0  0  0  0  0  0  0  0  0
   21.9180  -11.4183  -17.1307 C   0  0  0  0  0  0  0  0  0  0  0  0
   21.1573  -10.2914  -16.8398 O   0  0  0  0  0  0  0  0  0  0  0  0
   19.3600  -13.2113  -17.2889 C   0  0  0  0  0  0  0  0  0  0  0  0
   18.8349  -14.2497  -16.5457 C   0  0  0  0  0  0  0  0  0  0  0  0
   22.4183  -12.0309  -16.1575 O   0  0  0  0  0  0  0  0  0  0  0  0
  2  1  1  6
  3  2  1  0
  4  2  1  0
  4  5  2  0
  6  4  1  0
  7  6  1  0
  7  8  1  6
  9  8  1  0
  9 17  1  0
 10  9  2  0
 11 10  1  0
 11 12  1  0
 12 13  1  0
 12 17  2  0
 13 14  2  0
 14 15  1  0
 16 15  2  0
 17 16  1  0
 18  7  1  0
 19 18  2  0
 20 21  1  0
 21 31  2  0
 21 22  1  0
 22 23  2  0
 23 24  1  0
 24 25  1  0
 26 25  1  1
 26 28  1  0
 26 27  1  0
 27 18  1  0
 28 29  1  0
 30 24  2  0
 31 30  1  0
 32 28  2  0
M  END
$$$$
