AWY.pdb
     RDKit          3D

 32 34  0  0  1  0  0  0  0  0999 V2000
   29.8302  -24.0867  -16.7509 C   0  0  0  0  0  0  0  0  0  0  0  0
   28.7939  -23.4666  -17.6042 C   0  0  2  0  0  0  0  0  0  0  0  0
   29.3859  -22.8812  -18.7891 N   0  0  0  0  0  0  0  0  0  0  0  0
   27.9226  -22.4642  -16.9527 C   0  0  0  0  0  0  0  0  0  0  0  0
   28.3335  -21.3098  -16.8210 O   0  0  0  0  0  0  0  0  0  0  0  0
   26.6261  -22.7403  -16.4612 N   0  0  0  0  0  0  0  0  0  0  0  0
   25.6919  -21.9203  -15.8338 C   0  0  1  0  0  0  0  0  0  0  0  0
   24.2896  -21.9049  -16.1767 C   0  0  0  0  0  0  0  0  0  0  0  0
   23.5295  -20.8340  -15.4609 C   0  0  0  0  0  0  0  0  0  0  0  0
   23.7762  -19.4680  -15.4863 C   0  0  0  0  0  0  0  0  0  0  0  0
   22.8685  -18.8278  -14.7281 N   0  0  0  0  0  0  0  0  0  0  0  0
   22.0284  -19.7296  -14.2013 C   0  0  0  0  0  0  0  0  0  0  0  0
   20.9489  -19.5807  -13.3665 C   0  0  0  0  0  0  0  0  0  0  0  0
   20.2088  -20.6600  -12.9303 C   0  0  0  0  0  0  0  0  0  0  0  0
   20.6249  -21.8997  -13.3884 C   0  0  0  0  0  0  0  0  0  0  0  0
   21.7021  -22.0784  -14.2251 C   0  0  0  0  0  0  0  0  0  0  0  0
   22.4096  -20.9745  -14.6341 C   0  0  0  0  0  0  0  0  0  0  0  0
   25.8935  -21.9965  -14.3362 C   0  0  0  0  0  0  0  0  0  0  0  0
   25.8658  -23.1207  -13.7984 O   0  0  0  0  0  0  0  0  0  0  0  0
   28.3830  -20.5162   -6.0290 O   0  0  0  0  0  0  0  0  0  0  0  0
   28.1303  -20.3975   -7.3871 C   0  0  0  0  0  0  0  0  0  0  0  0
   28.9488  -20.9457   -8.3449 C   0  0  0  0  0  0  0  0  0  0  0  0
   28.6711  -20.8101   -9.6685 C   0  0  0  0  0  0  0  0  0  0  0  0
   27.5523  -20.1152  -10.1414 C   0  0  0  0  0  0  0  0  0  0  0  0
   27.3250  -19.9899  -11.5926 C   0  0  0  0  0  0  0  0  0  0  0  0
   26.3969  -21.0524  -12.0764 C   0  0  2  0  0  0  0  0  0  0  0  0
   26.1113  -20.8714  -13.5138 N   0  0  0  0  0  0  0  0  0  0  0  0
   25.1088  -20.9920  -11.3736 C   0  0  0  0  0  0  0  0  0  0  0  0
   24.0977  -20.0999  -11.7130 O   0  0  0  0  0  0  0  0  0  0  0  0
   26.7373  -19.5688   -9.1729 C   0  0  0  0  0  0  0  0  0  0  0  0
   27.0223  -19.7086   -7.8291 C   0  0  0  0  0  0  0  0  0  0  0  0
   24.8814  -21.7684  -10.4154 O   0  0  0  0  0  0  0  0  0  0  0  0
  2  1  1  1
  3  2  1  0
  4  2  1  0
  4  5  2  0
  6  4  1  0
  7  6  1  0
  7  8  1  1
  9  8  1  0
  9 17  1  0
 10  9  2  0
 11 10  1  0
 11 12  1  0
 12 13  1  0
 12 17  2  0
 13 14  2  0
 14 15  1  0
 16 15  2  0
 17 16  1  0
 18  7  1  0
 19 18  2  0
 20 21  1  0
 21 31  2  0
 21 22  1  0
 22 23  2  0
 23 24  1  0
 24 25  1  0
 26 25  1  1
 26 28  1  0
 26 27  1  0
 27 18  1  0
 28 29  1  0
 30 24  2  0
 31 30  1  0
 32 28  2  0
M  END
$$$$
