AWY.pdb
     RDKit          3D

 32 34  0  0  1  0  0  0  0  0999 V2000
   28.5047  -18.8264  -12.9223 C   0  0  0  0  0  0  0  0  0  0  0  0
   28.6645  -20.1914  -12.3767 C   0  0  2  0  0  0  0  0  0  0  0  0
   29.2038  -21.0863  -13.3796 N   0  0  0  0  0  0  0  0  0  0  0  0
   27.4573  -20.8039  -11.7802 C   0  0  0  0  0  0  0  0  0  0  0  0
   26.8061  -21.6124  -12.4445 O   0  0  0  0  0  0  0  0  0  0  0  0
   26.9876  -20.5238  -10.4766 N   0  0  0  0  0  0  0  0  0  0  0  0
   25.8861  -21.0099   -9.7771 C   0  0  1  0  0  0  0  0  0  0  0  0
   25.8594  -21.1627   -8.3418 C   0  0  0  0  0  0  0  0  0  0  0  0
   26.6986  -20.1463   -7.6349 C   0  0  0  0  0  0  0  0  0  0  0  0
   26.8173  -18.7967   -7.9380 C   0  0  0  0  0  0  0  0  0  0  0  0
   27.6543  -18.2068   -7.0661 N   0  0  0  0  0  0  0  0  0  0  0  0
   28.0934  -19.1260   -6.1950 C   0  0  0  0  0  0  0  0  0  0  0  0
   28.9560  -19.0255   -5.1319 C   0  0  0  0  0  0  0  0  0  0  0  0
   29.2843  -20.1152   -4.3524 C   0  0  0  0  0  0  0  0  0  0  0  0
   28.6883  -21.3134   -4.7115 C   0  0  0  0  0  0  0  0  0  0  0  0
   27.8206  -21.4433   -5.7710 C   0  0  0  0  0  0  0  0  0  0  0  0
   27.5225  -20.3308   -6.5192 C   0  0  0  0  0  0  0  0  0  0  0  0
   24.6365  -20.3226  -10.2827 C   0  0  0  0  0  0  0  0  0  0  0  0
   24.7189  -19.1212  -10.6047 O   0  0  0  0  0  0  0  0  0  0  0  0
   21.8916  -18.1311  -17.3698 O   0  0  0  0  0  0  0  0  0  0  0  0
   22.1398  -18.9006  -16.2434 C   0  0  0  0  0  0  0  0  0  0  0  0
   23.1447  -18.6100  -15.3527 C   0  0  0  0  0  0  0  0  0  0  0  0
   23.3604  -19.3862  -14.2580 C   0  0  0  0  0  0  0  0  0  0  0  0
   22.5884  -20.5161  -13.9655 C   0  0  0  0  0  0  0  0  0  0  0  0
   22.8930  -21.3243  -12.7708 C   0  0  0  0  0  0  0  0  0  0  0  0
   22.4872  -20.6057  -11.5284 C   0  0  2  0  0  0  0  0  0  0  0  0
   23.3853  -20.9610  -10.4113 N   0  0  0  0  0  0  0  0  0  0  0  0
   21.1273  -20.9798  -11.1193 C   0  0  0  0  0  0  0  0  0  0  0  0
   20.8284  -22.1735  -10.4720 O   0  0  0  0  0  0  0  0  0  0  0  0
   21.5828  -20.7996  -14.8649 C   0  0  0  0  0  0  0  0  0  0  0  0
   21.3663  -20.0087  -15.9760 C   0  0  0  0  0  0  0  0  0  0  0  0
   20.1681  -20.2066  -11.3534 O   0  0  0  0  0  0  0  0  0  0  0  0
  2  1  1  6
  3  2  1  0
  4  2  1  0
  4  5  2  0
  6  4  1  0
  7  6  1  0
  7  8  1  1
  9  8  1  0
  9 17  1  0
 10  9  2  0
 11 10  1  0
 11 12  1  0
 12 13  1  0
 12 17  2  0
 13 14  2  0
 14 15  1  0
 16 15  2  0
 17 16  1  0
 18  7  1  0
 19 18  2  0
 20 21  1  0
 21 31  2  0
 21 22  1  0
 22 23  2  0
 23 24  1  0
 24 25  1  0
 26 25  1  6
 26 28  1  0
 26 27  1  0
 27 18  1  0
 28 29  1  0
 30 24  2  0
 31 30  1  0
 32 28  2  0
M  END
$$$$
