AWY.pdb
     RDKit          3D

 32 34  0  0  1  0  0  0  0  0999 V2000
   28.0979  -23.3747  -19.6971 C   0  0  0  0  0  0  0  0  0  0  0  0
   29.1455  -23.1384  -18.6806 C   0  0  2  0  0  0  0  0  0  0  0  0
   30.0861  -24.2390  -18.6459 N   0  0  0  0  0  0  0  0  0  0  0  0
   28.6739  -22.8611  -17.3062 C   0  0  0  0  0  0  0  0  0  0  0  0
   28.4909  -23.8046  -16.5347 O   0  0  0  0  0  0  0  0  0  0  0  0
   28.4136  -21.5657  -16.8033 N   0  0  0  0  0  0  0  0  0  0  0  0
   27.9959  -21.1398  -15.5452 C   0  0  1  0  0  0  0  0  0  0  0  0
   28.4304  -19.9037  -14.9391 C   0  0  0  0  0  0  0  0  0  0  0  0
   28.0014  -19.7755  -13.5120 C   0  0  0  0  0  0  0  0  0  0  0  0
   27.0073  -18.9501  -13.0042 C   0  0  0  0  0  0  0  0  0  0  0  0
   26.9046  -19.1269  -11.6750 N   0  0  0  0  0  0  0  0  0  0  0  0
   27.8015  -20.0447  -11.2878 C   0  0  0  0  0  0  0  0  0  0  0  0
   28.0890  -20.5624  -10.0494 C   0  0  0  0  0  0  0  0  0  0  0  0
   29.0718  -21.5127   -9.8654 C   0  0  0  0  0  0  0  0  0  0  0  0
   29.7472  -21.9091  -11.0086 C   0  0  0  0  0  0  0  0  0  0  0  0
   29.4802  -21.4078  -12.2614 C   0  0  0  0  0  0  0  0  0  0  0  0
   28.4925  -20.4631  -12.3968 C   0  0  0  0  0  0  0  0  0  0  0  0
   26.4963  -21.3103  -15.4379 C   0  0  0  0  0  0  0  0  0  0  0  0
   25.7989  -20.9866  -16.4190 O   0  0  0  0  0  0  0  0  0  0  0  0
   18.2176  -22.5316  -12.7420 O   0  0  0  0  0  0  0  0  0  0  0  0
   19.6024  -22.4705  -12.7729 C   0  0  0  0  0  0  0  0  0  0  0  0
   20.3123  -21.4350  -12.2147 C   0  0  0  0  0  0  0  0  0  0  0  0
   21.6703  -21.4068  -12.2633 C   0  0  0  0  0  0  0  0  0  0  0  0
   22.4284  -22.4120  -12.8740 C   0  0  0  0  0  0  0  0  0  0  0  0
   23.8984  -22.3052  -12.9078 C   0  0  0  0  0  0  0  0  0  0  0  0
   24.3676  -21.8886  -14.2609 C   0  0  2  0  0  0  0  0  0  0  0  0
   25.8420  -21.8140  -14.2943 N   0  0  0  0  0  0  0  0  0  0  0  0
   23.8639  -20.5539  -14.6095 C   0  0  0  0  0  0  0  0  0  0  0  0
   22.8500  -20.3412  -15.5369 O   0  0  0  0  0  0  0  0  0  0  0  0
   21.7073  -23.4465  -13.4312 C   0  0  0  0  0  0  0  0  0  0  0  0
   20.3277  -23.4721  -13.3800 C   0  0  0  0  0  0  0  0  0  0  0  0
   24.3539  -19.5374  -14.0625 O   0  0  0  0  0  0  0  0  0  0  0  0
  2  1  1  6
  3  2  1  0
  4  2  1  0
  4  5  2  0
  6  4  1  0
  7  6  1  0
  7  8  1  6
  9  8  1  0
  9 17  1  0
 10  9  2  0
 11 10  1  0
 11 12  1  0
 12 13  1  0
 12 17  2  0
 13 14  2  0
 14 15  1  0
 16 15  2  0
 17 16  1  0
 18  7  1  0
 19 18  2  0
 20 21  1  0
 21 31  2  0
 21 22  1  0
 22 23  2  0
 23 24  1  0
 24 25  1  0
 26 25  1  1
 26 28  1  0
 26 27  1  0
 27 18  1  0
 28 29  1  0
 30 24  2  0
 31 30  1  0
 32 28  2  0
M  END
$$$$
