AWY.pdb
     RDKit          3D

 32 34  0  0  1  0  0  0  0  0999 V2000
   26.1026  -23.0696  -16.8696 C   0  0  0  0  0  0  0  0  0  0  0  0
   25.9085  -22.1244  -17.9901 C   0  0  2  0  0  0  0  0  0  0  0  0
   27.1830  -21.6797  -18.5146 N   0  0  0  0  0  0  0  0  0  0  0  0
   25.0609  -20.9442  -17.7122 C   0  0  0  0  0  0  0  0  0  0  0  0
   25.5729  -19.9474  -17.1993 O   0  0  0  0  0  0  0  0  0  0  0  0
   23.6783  -20.8756  -17.9992 N   0  0  0  0  0  0  0  0  0  0  0  0
   22.7479  -19.8630  -17.7804 C   0  0  1  0  0  0  0  0  0  0  0  0
   21.8950  -19.3292  -18.8157 C   0  0  0  0  0  0  0  0  0  0  0  0
   22.6492  -18.5421  -19.8397 C   0  0  0  0  0  0  0  0  0  0  0  0
   23.3220  -19.0341  -20.9500 C   0  0  0  0  0  0  0  0  0  0  0  0
   23.8648  -18.0159  -21.6407 N   0  0  0  0  0  0  0  0  0  0  0  0
   23.5716  -16.8645  -21.0206 C   0  0  0  0  0  0  0  0  0  0  0  0
   23.8949  -15.5655  -21.3245 C   0  0  0  0  0  0  0  0  0  0  0  0
   23.4893  -14.5084  -20.5363 C   0  0  0  0  0  0  0  0  0  0  0  0
   22.7368  -14.8428  -19.4219 C   0  0  0  0  0  0  0  0  0  0  0  0
   22.3979  -16.1348  -19.0933 C   0  0  0  0  0  0  0  0  0  0  0  0
   22.8237  -17.1556  -19.9077 C   0  0  0  0  0  0  0  0  0  0  0  0
   21.9635  -20.1749  -16.5247 C   0  0  0  0  0  0  0  0  0  0  0  0
   21.4793  -21.3173  -16.4058 O   0  0  0  0  0  0  0  0  0  0  0  0
   18.0566  -20.2484   -8.6589 O   0  0  0  0  0  0  0  0  0  0  0  0
   18.8885  -19.9825   -9.7358 C   0  0  0  0  0  0  0  0  0  0  0  0
   19.7306  -20.9255  -10.2736 C   0  0  0  0  0  0  0  0  0  0  0  0
   20.5334  -20.6306  -11.3301 C   0  0  0  0  0  0  0  0  0  0  0  0
   20.5588  -19.3686  -11.9341 C   0  0  0  0  0  0  0  0  0  0  0  0
   21.4710  -19.1136  -13.0639 C   0  0  0  0  0  0  0  0  0  0  0  0
   20.8836  -19.6121  -14.3410 C   0  0  2  0  0  0  0  0  0  0  0  0
   21.7487  -19.2499  -15.4817 N   0  0  0  0  0  0  0  0  0  0  0  0
   19.5693  -19.0071  -14.5923 C   0  0  0  0  0  0  0  0  0  0  0  0
   18.3770  -19.5622  -14.1410 O   0  0  0  0  0  0  0  0  0  0  0  0
   19.7107  -18.4293  -11.3875 C   0  0  0  0  0  0  0  0  0  0  0  0
   18.8963  -18.7323  -10.3143 C   0  0  0  0  0  0  0  0  0  0  0  0
   19.4861  -17.9392  -15.2445 O   0  0  0  0  0  0  0  0  0  0  0  0
  2  1  1  1
  3  2  1  0
  4  2  1  0
  4  5  2  0
  6  4  1  0
  7  6  1  0
  7  8  1  6
  9  8  1  0
  9 17  1  0
 10  9  2  0
 11 10  1  0
 11 12  1  0
 12 13  1  0
 12 17  2  0
 13 14  2  0
 14 15  1  0
 16 15  2  0
 17 16  1  0
 18  7  1  0
 19 18  2  0
 20 21  1  0
 21 31  2  0
 21 22  1  0
 22 23  2  0
 23 24  1  0
 24 25  1  0
 26 25  1  1
 26 28  1  0
 26 27  1  0
 27 18  1  0
 28 29  1  0
 30 24  2  0
 31 30  1  0
 32 28  2  0
M  END
$$$$
