AWY.pdb
     RDKit          3D

 32 34  0  0  1  0  0  0  0  0999 V2000
   14.4049  -19.5956    4.5974 C   0  0  0  0  0  0  0  0  0  0  0  0
   15.0719  -18.4037    4.0307 C   0  0  2  0  0  0  0  0  0  0  0  0
   15.3567  -18.5939    2.6236 N   0  0  0  0  0  0  0  0  0  0  0  0
   16.3026  -17.9534    4.7172 C   0  0  0  0  0  0  0  0  0  0  0  0
   17.3786  -18.4756    4.4199 O   0  0  0  0  0  0  0  0  0  0  0  0
   16.3341  -16.9464    5.7089 N   0  0  0  0  0  0  0  0  0  0  0  0
   17.4010  -16.3686    6.3922 C   0  0  1  0  0  0  0  0  0  0  0  0
   17.3092  -15.1089    7.0913 C   0  0  0  0  0  0  0  0  0  0  0  0
   17.8887  -13.9705    6.3133 C   0  0  0  0  0  0  0  0  0  0  0  0
   17.3314  -13.3353    5.2118 C   0  0  0  0  0  0  0  0  0  0  0  0
   18.1444  -12.3475    4.7971 N   0  0  0  0  0  0  0  0  0  0  0  0
   19.2236  -12.3102    5.5912 C   0  0  0  0  0  0  0  0  0  0  0  0
   20.3284  -11.4957    5.5784 C   0  0  0  0  0  0  0  0  0  0  0  0
   21.3460  -11.6308    6.4999 C   0  0  0  0  0  0  0  0  0  0  0  0
   21.1803  -12.6390    7.4359 C   0  0  0  0  0  0  0  0  0  0  0  0
   20.0843  -13.4695    7.4725 C   0  0  0  0  0  0  0  0  0  0  0  0
   19.0954  -13.2979    6.5350 C   0  0  0  0  0  0  0  0  0  0  0  0
   18.0740  -17.4242    7.2420 C   0  0  0  0  0  0  0  0  0  0  0  0
   17.3494  -18.1832    7.9149 O   0  0  0  0  0  0  0  0  0  0  0  0
   17.2409  -23.3698    4.7028 O   0  0  0  0  0  0  0  0  0  0  0  0
   18.0960  -22.4585    5.3034 C   0  0  0  0  0  0  0  0  0  0  0  0
   18.6475  -21.3992    4.6242 C   0  0  0  0  0  0  0  0  0  0  0  0
   19.4826  -20.5242    5.2443 C   0  0  0  0  0  0  0  0  0  0  0  0
   19.8337  -20.6379    6.5941 C   0  0  0  0  0  0  0  0  0  0  0  0
   20.7625  -19.6638    7.1958 C   0  0  0  0  0  0  0  0  0  0  0  0
   20.0331  -18.7229    8.0943 C   0  0  2  0  0  0  0  0  0  0  0  0
   19.4715  -17.5999    7.3171 N   0  0  0  0  0  0  0  0  0  0  0  0
   20.9345  -18.1405    9.0968 C   0  0  0  0  0  0  0  0  0  0  0  0
   21.4648  -18.8670   10.1571 O   0  0  0  0  0  0  0  0  0  0  0  0
   19.2755  -21.7038    7.2670 C   0  0  0  0  0  0  0  0  0  0  0  0
   18.4274  -22.5907    6.6340 C   0  0  0  0  0  0  0  0  0  0  0  0
   21.2579  -16.9312    9.0206 O   0  0  0  0  0  0  0  0  0  0  0  0
  2  1  1  1
  3  2  1  0
  4  2  1  0
  4  5  2  0
  6  4  1  0
  7  6  1  0
  7  8  1  1
  9  8  1  0
  9 17  1  0
 10  9  2  0
 11 10  1  0
 11 12  1  0
 12 13  1  0
 12 17  2  0
 13 14  2  0
 14 15  1  0
 16 15  2  0
 17 16  1  0
 18  7  1  0
 19 18  2  0
 20 21  1  0
 21 31  2  0
 21 22  1  0
 22 23  2  0
 23 24  1  0
 24 25  1  0
 26 25  1  6
 26 28  1  0
 26 27  1  0
 27 18  1  0
 28 29  1  0
 30 24  2  0
 31 30  1  0
 32 28  2  0
M  END
$$$$
