AAI.pdb
     RDKit          3D

 19 18  0  0  1  0  0  0  0  0999 V2000
    8.8908  -12.3570   19.3418 C   0  0  0  0  0  0  0  0  0  0  0  0
    8.3775  -13.7589   19.0970 C   0  0  2  0  0  0  0  0  0  0  0  0
    7.2556  -13.6709   18.1850 N   0  0  0  0  0  0  0  0  0  0  0  0
    7.9046  -14.3529   20.3788 C   0  0  0  0  0  0  0  0  0  0  0  0
    6.8417  -13.9805   20.9394 O   0  0  0  0  0  0  0  0  0  0  0  0
    8.6124  -17.4603   22.1771 C   0  0  0  0  0  0  0  0  0  0  0  0
    8.1177  -16.0076   22.2317 C   0  0  2  0  0  0  0  0  0  0  0  0
    8.6468  -15.3779   21.0270 N   0  0  0  0  0  0  0  0  0  0  0  0
    8.7242  -15.4237   23.4539 C   0  0  0  0  0  0  0  0  0  0  0  0
    9.9631  -15.2284   23.4474 O   0  0  0  0  0  0  0  0  0  0  0  0
    5.5907  -12.3556   26.8688 C   0  0  0  0  0  0  0  0  0  0  0  0
    6.3614  -13.5169   26.3361 C   0  0  0  0  0  0  0  0  0  0  0  0
    7.8428  -13.2245   26.2038 C   0  0  2  0  0  0  0  0  0  0  0  0
    8.0120  -12.1921   25.1148 C   0  0  0  0  0  0  0  0  0  0  0  0
    8.5760  -14.4817   25.7949 C   0  0  2  0  0  0  0  0  0  0  0  0
    7.9987  -15.0789   24.6096 N   0  0  0  0  0  0  0  0  0  0  0  0
    8.4853  -15.4590   26.8947 C   0  0  0  0  0  0  0  0  0  0  0  0
    9.1281  -15.2078   28.0878 O   0  0  0  0  0  0  0  0  0  0  0  0
    7.8346  -16.5239   26.7786 O   0  0  0  0  0  0  0  0  0  0  0  0
  2  3  1  0
  2  1  1  1
  4  2  1  0
  5  4  2  0
  7  6  1  6
  7  8  1  0
  8  4  1  0
  9  7  1  0
  9 16  1  0
 10  9  2  0
 12 11  1  0
 12 13  1  0
 13 14  1  6
 15 13  1  0
 15 16  1  6
 15 17  1  0
 17 18  1  0
 19 17  2  0
M  END
$$$$
