AAI.pdb
     RDKit          3D

 19 18  0  0  1  0  0  0  0  0999 V2000
   -5.9016  -28.9290   33.2773 C   0  0  0  0  0  0  0  0  0  0  0  0
   -6.5585  -27.8037   32.5086 C   0  0  2  0  0  0  0  0  0  0  0  0
   -7.5913  -28.3782   31.6711 N   0  0  0  0  0  0  0  0  0  0  0  0
   -5.5528  -27.1365   31.6352 C   0  0  0  0  0  0  0  0  0  0  0  0
   -4.5758  -26.4973   32.1035 O   0  0  0  0  0  0  0  0  0  0  0  0
   -4.7257  -27.2222   28.0308 C   0  0  0  0  0  0  0  0  0  0  0  0
   -4.6874  -26.4996   29.3853 C   0  0  2  0  0  0  0  0  0  0  0  0
   -5.6602  -27.1973   30.2186 N   0  0  0  0  0  0  0  0  0  0  0  0
   -5.1181  -25.1066   29.1082 C   0  0  0  0  0  0  0  0  0  0  0  0
   -6.3384  -24.8439   29.2315 O   0  0  0  0  0  0  0  0  0  0  0  0
   -3.4813  -19.4019   29.4343 C   0  0  0  0  0  0  0  0  0  0  0  0
   -3.9400  -20.3292   28.3590 C   0  0  0  0  0  0  0  0  0  0  0  0
   -3.4677  -21.7534   28.5742 C   0  0  2  0  0  0  0  0  0  0  0  0
   -2.5125  -22.0946   27.4554 C   0  0  0  0  0  0  0  0  0  0  0  0
   -4.6467  -22.6971   28.5068 C   0  0  2  0  0  0  0  0  0  0  0  0
   -4.2471  -24.0720   28.7188 N   0  0  0  0  0  0  0  0  0  0  0  0
   -5.2563  -22.5950   27.1687 C   0  0  0  0  0  0  0  0  0  0  0  0
   -6.2688  -21.6868   26.9456 O   0  0  0  0  0  0  0  0  0  0  0  0
   -4.8791  -23.3162   26.2154 O   0  0  0  0  0  0  0  0  0  0  0  0
  2  3  1  0
  2  1  1  6
  4  2  1  0
  5  4  2  0
  7  6  1  6
  7  8  1  0
  8  4  1  0
  9  7  1  0
  9 16  1  0
 10  9  2  0
 12 11  1  0
 12 13  1  0
 13 14  1  6
 15 13  1  0
 15 16  1  6
 15 17  1  0
 17 18  1  0
 19 17  2  0
M  END
$$$$
