AAI.pdb
     RDKit          3D

 19 18  0  0  1  0  0  0  0  0999 V2000
    9.0576  -12.2612   19.3800 C   0  0  0  0  0  0  0  0  0  0  0  0
    8.5376  -13.6583   19.1219 C   0  0  2  0  0  0  0  0  0  0  0  0
    7.3503  -13.5481   18.2995 N   0  0  0  0  0  0  0  0  0  0  0  0
    8.1657  -14.3034   20.4122 C   0  0  0  0  0  0  0  0  0  0  0  0
    7.0611  -14.0905   20.9753 O   0  0  0  0  0  0  0  0  0  0  0  0
    9.3714  -17.2803   22.1718 C   0  0  0  0  0  0  0  0  0  0  0  0
    8.6076  -15.9494   22.2321 C   0  0  2  0  0  0  0  0  0  0  0  0
    9.0575  -15.1972   21.0661 N   0  0  0  0  0  0  0  0  0  0  0  0
    9.0402  -15.2963   23.4926 C   0  0  0  0  0  0  0  0  0  0  0  0
   10.1899  -14.7957   23.5189 O   0  0  0  0  0  0  0  0  0  0  0  0
    5.7399  -12.1260   26.2068 C   0  0  0  0  0  0  0  0  0  0  0  0
    6.9889  -12.7493   25.6798 C   0  0  0  0  0  0  0  0  0  0  0  0
    7.5024  -13.8682   26.5642 C   0  0  2  0  0  0  0  0  0  0  0  0
    8.0048  -13.2471   27.8457 C   0  0  0  0  0  0  0  0  0  0  0  0
    8.6558  -14.5683   25.8826 C   0  0  2  0  0  0  0  0  0  0  0  0
    8.2445  -15.2058   24.6500 N   0  0  0  0  0  0  0  0  0  0  0  0
    9.1774  -15.6080   26.7879 C   0  0  0  0  0  0  0  0  0  0  0  0
    8.6348  -16.8748   26.7593 O   0  0  0  0  0  0  0  0  0  0  0  0
   10.1097  -15.3747   27.5925 O   0  0  0  0  0  0  0  0  0  0  0  0
  2  3  1  0
  2  1  1  1
  4  2  1  0
  5  4  2  0
  7  6  1  6
  7  8  1  0
  8  4  1  0
  9  7  1  0
  9 16  1  0
 10  9  2  0
 12 11  1  0
 12 13  1  0
 13 14  1  1
 15 13  1  0
 15 16  1  6
 15 17  1  0
 17 18  1  0
 19 17  2  0
M  END
$$$$
