AAI.pdb
     RDKit          3D

 19 18  0  0  1  0  0  0  0  0999 V2000
    5.4684  -19.6450   21.6807 C   0  0  0  0  0  0  0  0  0  0  0  0
    6.0030  -18.8457   22.8487 C   0  0  2  0  0  0  0  0  0  0  0  0
    4.8977  -18.1134   23.4320 N   0  0  0  0  0  0  0  0  0  0  0  0
    7.0203  -17.8696   22.3672 C   0  0  0  0  0  0  0  0  0  0  0  0
    8.1842  -18.2187   22.0415 O   0  0  0  0  0  0  0  0  0  0  0  0
    6.9831  -14.3762   21.1910 C   0  0  0  0  0  0  0  0  0  0  0  0
    7.7420  -15.5414   21.8426 C   0  0  2  0  0  0  0  0  0  0  0  0
    6.7104  -16.4864   22.2555 N   0  0  0  0  0  0  0  0  0  0  0  0
    8.4383  -14.9590   23.0168 C   0  0  0  0  0  0  0  0  0  0  0  0
    9.4417  -14.2398   22.7953 O   0  0  0  0  0  0  0  0  0  0  0  0
    5.7405  -12.3321   26.3274 C   0  0  0  0  0  0  0  0  0  0  0  0
    6.9910  -12.7830   25.6496 C   0  0  0  0  0  0  0  0  0  0  0  0
    7.7067  -13.8802   26.4122 C   0  0  2  0  0  0  0  0  0  0  0  0
    8.4668  -13.2320   27.5447 C   0  0  0  0  0  0  0  0  0  0  0  0
    8.6949  -14.5727   25.5017 C   0  0  2  0  0  0  0  0  0  0  0  0
    8.0434  -15.1635   24.3521 N   0  0  0  0  0  0  0  0  0  0  0  0
    9.3594  -15.6488   26.2588 C   0  0  0  0  0  0  0  0  0  0  0  0
   10.4076  -15.3459   27.1011 O   0  0  0  0  0  0  0  0  0  0  0  0
    8.9977  -16.8448   26.1603 O   0  0  0  0  0  0  0  0  0  0  0  0
  2  3  1  0
  2  1  1  6
  4  2  1  0
  5  4  2  0
  7  6  1  1
  7  8  1  0
  8  4  1  0
  9  7  1  0
  9 16  1  0
 10  9  2  0
 12 11  1  0
 12 13  1  0
 13 14  1  1
 15 13  1  0
 15 16  1  6
 15 17  1  0
 17 18  1  0
 19 17  2  0
M  END
$$$$
