AAI.pdb
     RDKit          3D

 19 18  0  0  1  0  0  0  0  0999 V2000
    6.8982  -15.5777   19.3125 C   0  0  0  0  0  0  0  0  0  0  0  0
    7.9546  -16.1207   20.2495 C   0  0  2  0  0  0  0  0  0  0  0  0
    8.1913  -17.5064   19.9007 N   0  0  0  0  0  0  0  0  0  0  0  0
    7.4609  -16.0602   21.6539 C   0  0  0  0  0  0  0  0  0  0  0  0
    7.0587  -14.9900   22.1785 O   0  0  0  0  0  0  0  0  0  0  0  0
    7.0145  -18.5699   24.3867 C   0  0  0  0  0  0  0  0  0  0  0  0
    7.0227  -17.1256   23.8651 C   0  0  2  0  0  0  0  0  0  0  0  0
    7.4251  -17.2263   22.4667 N   0  0  0  0  0  0  0  0  0  0  0  0
    8.0479  -16.4151   24.6694 C   0  0  0  0  0  0  0  0  0  0  0  0
    9.2447  -16.5311   24.3124 O   0  0  0  0  0  0  0  0  0  0  0  0
    6.3506  -11.8914   26.9543 C   0  0  0  0  0  0  0  0  0  0  0  0
    7.3475  -12.7763   26.2837 C   0  0  0  0  0  0  0  0  0  0  0  0
    8.0738  -13.6826   27.2578 C   0  0  2  0  0  0  0  0  0  0  0  0
    9.1494  -12.8647   27.9318 C   0  0  0  0  0  0  0  0  0  0  0  0
    8.7305  -14.8174   26.5054 C   0  0  2  0  0  0  0  0  0  0  0  0
    7.7602  -15.6261   25.7987 N   0  0  0  0  0  0  0  0  0  0  0  0
    9.4328  -15.6800   27.4726 C   0  0  0  0  0  0  0  0  0  0  0  0
   10.7352  -15.3956   27.8230 O   0  0  0  0  0  0  0  0  0  0  0  0
    8.8773  -16.6757   27.9931 O   0  0  0  0  0  0  0  0  0  0  0  0
  2  3  1  0
  2  1  1  6
  4  2  1  0
  5  4  2  0
  7  6  1  1
  7  8  1  0
  8  4  1  0
  9  7  1  0
  9 16  1  0
 10  9  2  0
 12 11  1  0
 12 13  1  0
 13 14  1  6
 15 13  1  0
 15 16  1  1
 15 17  1  0
 17 18  1  0
 19 17  2  0
M  END
$$$$
