AAI.pdb
     RDKit          3D

 19 18  0  0  1  0  0  0  0  0999 V2000
    8.5616  -12.3179   19.5535 C   0  0  0  0  0  0  0  0  0  0  0  0
    8.3129  -13.7554   19.1529 C   0  0  2  0  0  0  0  0  0  0  0  0
    7.2298  -13.7701   18.1913 N   0  0  0  0  0  0  0  0  0  0  0  0
    7.9017  -14.5467   20.3463 C   0  0  0  0  0  0  0  0  0  0  0  0
    6.7035  -14.6214   20.7219 O   0  0  0  0  0  0  0  0  0  0  0  0
    9.1982  -17.3313   22.2348 C   0  0  0  0  0  0  0  0  0  0  0  0
    8.4385  -15.9984   22.3011 C   0  0  2  0  0  0  0  0  0  0  0  0
    8.8614  -15.2579   21.1176 N   0  0  0  0  0  0  0  0  0  0  0  0
    8.9027  -15.3344   23.5447 C   0  0  0  0  0  0  0  0  0  0  0  0
   10.0502  -14.8282   23.5356 O   0  0  0  0  0  0  0  0  0  0  0  0
    5.7843  -11.8730   25.8733 C   0  0  0  0  0  0  0  0  0  0  0  0
    6.9617  -12.6732   25.4261 C   0  0  0  0  0  0  0  0  0  0  0  0
    7.4157  -13.6774   26.4668 C   0  0  2  0  0  0  0  0  0  0  0  0
    7.9322  -12.9044   27.6567 C   0  0  0  0  0  0  0  0  0  0  0  0
    8.5436  -14.5151   25.9088 C   0  0  2  0  0  0  0  0  0  0  0  0
    8.1390  -15.2397   24.7230 N   0  0  0  0  0  0  0  0  0  0  0  0
    8.9531  -15.4951   26.9309 C   0  0  0  0  0  0  0  0  0  0  0  0
    9.8552  -15.1293   27.9067 O   0  0  0  0  0  0  0  0  0  0  0  0
    8.5020  -16.6644   26.9415 O   0  0  0  0  0  0  0  0  0  0  0  0
  2  3  1  0
  2  1  1  1
  4  2  1  0
  5  4  2  0
  7  6  1  6
  7  8  1  0
  8  4  1  0
  9  7  1  0
  9 16  1  0
 10  9  2  0
 12 11  1  0
 12 13  1  0
 13 14  1  1
 15 13  1  0
 15 16  1  6
 15 17  1  0
 17 18  1  0
 19 17  2  0
M  END
$$$$
