AAI.pdb
     RDKit          3D

 19 18  0  0  1  0  0  0  0  0999 V2000
    6.4269  -18.6731   24.1518 C   0  0  0  0  0  0  0  0  0  0  0  0
    6.5376  -18.6408   22.6433 C   0  0  2  0  0  0  0  0  0  0  0  0
    7.0524  -19.9220   22.2057 N   0  0  0  0  0  0  0  0  0  0  0  0
    7.4952  -17.5763   22.2316 C   0  0  0  0  0  0  0  0  0  0  0  0
    8.7415  -17.7422   22.2725 O   0  0  0  0  0  0  0  0  0  0  0  0
    7.1762  -14.1928   20.7029 C   0  0  0  0  0  0  0  0  0  0  0  0
    7.9868  -15.2588   21.4542 C   0  0  2  0  0  0  0  0  0  0  0  0
    7.0307  -16.3142   21.7699 N   0  0  0  0  0  0  0  0  0  0  0  0
    8.4787  -14.5933   22.6862 C   0  0  0  0  0  0  0  0  0  0  0  0
    9.3794  -13.7302   22.5563 O   0  0  0  0  0  0  0  0  0  0  0  0
    6.6528  -11.4575   27.2983 C   0  0  0  0  0  0  0  0  0  0  0  0
    7.6387  -12.5024   26.8948 C   0  0  0  0  0  0  0  0  0  0  0  0
    7.2184  -13.2519   25.6460 C   0  0  2  0  0  0  0  0  0  0  0  0
    6.0535  -14.1399   26.0132 C   0  0  0  0  0  0  0  0  0  0  0  0
    8.3572  -14.1231   25.1669 C   0  0  2  0  0  0  0  0  0  0  0  0
    7.9993  -14.8704   23.9801 N   0  0  0  0  0  0  0  0  0  0  0  0
    8.6960  -15.0838   26.2322 C   0  0  0  0  0  0  0  0  0  0  0  0
    8.5534  -16.4358   26.0047 O   0  0  0  0  0  0  0  0  0  0  0  0
    9.1147  -14.7066   27.3517 O   0  0  0  0  0  0  0  0  0  0  0  0
  2  3  1  0
  2  1  1  1
  4  2  1  0
  5  4  2  0
  7  6  1  6
  7  8  1  0
  8  4  1  0
  9  7  1  0
  9 16  1  0
 10  9  2  0
 12 11  1  0
 12 13  1  0
 13 14  1  1
 15 13  1  0
 15 16  1  6
 15 17  1  0
 17 18  1  0
 19 17  2  0
M  END
$$$$
