AAI.pdb
     RDKit          3D

 19 18  0  0  1  0  0  0  0  0999 V2000
    8.6022  -12.3412   19.1213 C   0  0  0  0  0  0  0  0  0  0  0  0
    8.3710  -13.8270   18.9549 C   0  0  2  0  0  0  0  0  0  0  0  0
    7.3485  -14.0096   17.9454 N   0  0  0  0  0  0  0  0  0  0  0  0
    7.8837  -14.4074   20.2376 C   0  0  0  0  0  0  0  0  0  0  0  0
    6.7262  -14.1861   20.6777 O   0  0  0  0  0  0  0  0  0  0  0  0
    8.7450  -17.3186   22.1921 C   0  0  0  0  0  0  0  0  0  0  0  0
    8.1863  -15.8885   22.2204 C   0  0  2  0  0  0  0  0  0  0  0  0
    8.7201  -15.2457   21.0247 N   0  0  0  0  0  0  0  0  0  0  0  0
    8.7334  -15.2692   23.4531 C   0  0  0  0  0  0  0  0  0  0  0  0
    9.9341  -14.9069   23.4339 O   0  0  0  0  0  0  0  0  0  0  0  0
    5.8154  -11.8004   26.3254 C   0  0  0  0  0  0  0  0  0  0  0  0
    6.9522  -12.5428   25.7065 C   0  0  0  0  0  0  0  0  0  0  0  0
    7.4534  -13.6773   26.5779 C   0  0  2  0  0  0  0  0  0  0  0  0
    8.0756  -13.0686   27.8119 C   0  0  0  0  0  0  0  0  0  0  0  0
    8.5149  -14.4583   25.8373 C   0  0  2  0  0  0  0  0  0  0  0  0
    7.9921  -15.0658   24.6321 N   0  0  0  0  0  0  0  0  0  0  0  0
    9.0103  -15.5319   26.7175 C   0  0  0  0  0  0  0  0  0  0  0  0
   10.1857  -15.3563   27.4157 O   0  0  0  0  0  0  0  0  0  0  0  0
    8.3897  -16.6124   26.8532 O   0  0  0  0  0  0  0  0  0  0  0  0
  2  3  1  0
  2  1  1  1
  4  2  1  0
  5  4  2  0
  7  6  1  6
  7  8  1  0
  8  4  1  0
  9  7  1  0
  9 16  1  0
 10  9  2  0
 12 11  1  0
 12 13  1  0
 13 14  1  1
 15 13  1  0
 15 16  1  6
 15 17  1  0
 17 18  1  0
 19 17  2  0
M  END
$$$$
