AAI.pdb
     RDKit          3D

 19 18  0  0  1  0  0  0  0  0999 V2000
    6.1294  -18.6290   24.7438 C   0  0  0  0  0  0  0  0  0  0  0  0
    6.0490  -18.5954   23.2334 C   0  0  2  0  0  0  0  0  0  0  0  0
    6.3238  -19.9299   22.7417 N   0  0  0  0  0  0  0  0  0  0  0  0
    7.0821  -17.6668   22.6949 C   0  0  0  0  0  0  0  0  0  0  0  0
    8.2891  -18.0009   22.5769 O   0  0  0  0  0  0  0  0  0  0  0  0
    7.0545  -14.3100   21.1022 C   0  0  0  0  0  0  0  0  0  0  0  0
    7.7843  -15.4203   21.8720 C   0  0  2  0  0  0  0  0  0  0  0  0
    6.7386  -16.3484   22.2878 N   0  0  0  0  0  0  0  0  0  0  0  0
    8.4071  -14.7532   23.0424 C   0  0  0  0  0  0  0  0  0  0  0  0
    9.4318  -14.0603   22.8348 O   0  0  0  0  0  0  0  0  0  0  0  0
    5.3917  -12.7435   27.0648 C   0  0  0  0  0  0  0  0  0  0  0  0
    6.2796  -13.7142   26.3606 C   0  0  0  0  0  0  0  0  0  0  0  0
    7.6723  -13.1658   26.1213 C   0  0  2  0  0  0  0  0  0  0  0  0
    7.5547  -12.0262   25.1375 C   0  0  0  0  0  0  0  0  0  0  0  0
    8.5456  -14.2398   25.5136 C   0  0  2  0  0  0  0  0  0  0  0  0
    7.9211  -14.8508   24.3596 N   0  0  0  0  0  0  0  0  0  0  0  0
    8.7743  -15.2887   26.5236 C   0  0  0  0  0  0  0  0  0  0  0  0
    9.4532  -14.9846   27.6840 O   0  0  0  0  0  0  0  0  0  0  0  0
    8.3664  -16.4625   26.3594 O   0  0  0  0  0  0  0  0  0  0  0  0
  2  3  1  0
  2  1  1  1
  4  2  1  0
  5  4  2  0
  7  6  1  6
  7  8  1  0
  8  4  1  0
  9  7  1  0
  9 16  1  0
 10  9  2  0
 12 11  1  0
 12 13  1  0
 13 14  1  6
 15 13  1  0
 15 16  1  6
 15 17  1  0
 17 18  1  0
 19 17  2  0
M  END
$$$$
