AAI.pdb
     RDKit          3D

 19 18  0  0  1  0  0  0  0  0999 V2000
    8.6541  -12.3578   19.3725 C   0  0  0  0  0  0  0  0  0  0  0  0
    8.3573  -13.8178   19.1093 C   0  0  2  0  0  0  0  0  0  0  0  0
    7.2488  -13.8876   18.1796 N   0  0  0  0  0  0  0  0  0  0  0  0
    7.9575  -14.4871   20.3789 C   0  0  0  0  0  0  0  0  0  0  0  0
    6.8030  -14.3703   20.8647 O   0  0  0  0  0  0  0  0  0  0  0  0
    9.1452  -17.3665   22.2398 C   0  0  0  0  0  0  0  0  0  0  0  0
    8.4412  -16.0031   22.2985 C   0  0  2  0  0  0  0  0  0  0  0  0
    8.8786  -15.2949   21.1006 N   0  0  0  0  0  0  0  0  0  0  0  0
    8.9476  -15.3434   23.5277 C   0  0  0  0  0  0  0  0  0  0  0  0
   10.1399  -14.9539   23.5249 O   0  0  0  0  0  0  0  0  0  0  0  0
    5.8085  -11.9158   26.1172 C   0  0  0  0  0  0  0  0  0  0  0  0
    6.9977  -12.6366   25.5759 C   0  0  0  0  0  0  0  0  0  0  0  0
    7.5510  -13.6623   26.5451 C   0  0  2  0  0  0  0  0  0  0  0  0
    8.1410  -12.9154   27.7174 C   0  0  0  0  0  0  0  0  0  0  0  0
    8.6501  -14.4554   25.8756 C   0  0  2  0  0  0  0  0  0  0  0  0
    8.1771  -15.1308   24.6860 N   0  0  0  0  0  0  0  0  0  0  0  0
    9.1388  -15.4749   26.8213 C   0  0  0  0  0  0  0  0  0  0  0  0
   10.2740  -15.2308   27.5641 O   0  0  0  0  0  0  0  0  0  0  0  0
    8.5483  -16.5700   26.9737 O   0  0  0  0  0  0  0  0  0  0  0  0
  2  3  1  0
  2  1  1  1
  4  2  1  0
  5  4  2  0
  7  6  1  6
  7  8  1  0
  8  4  1  0
  9  7  1  0
  9 16  1  0
 10  9  2  0
 12 11  1  0
 12 13  1  0
 13 14  1  1
 15 13  1  0
 15 16  1  6
 15 17  1  0
 17 18  1  0
 19 17  2  0
M  END
$$$$
