AAI.pdb
     RDKit          3D

 19 18  0  0  1  0  0  0  0  0999 V2000
    8.4528  -12.4871   19.5235 C   0  0  0  0  0  0  0  0  0  0  0  0
    8.1233  -13.9564   19.3766 C   0  0  2  0  0  0  0  0  0  0  0  0
    6.8929  -14.0648   18.6201 N   0  0  0  0  0  0  0  0  0  0  0  0
    7.9112  -14.5617   20.7213 C   0  0  0  0  0  0  0  0  0  0  0  0
    6.8924  -14.3131   21.4162 O   0  0  0  0  0  0  0  0  0  0  0  0
    9.4368  -17.4147   22.5028 C   0  0  0  0  0  0  0  0  0  0  0  0
    8.5706  -16.1470   22.5292 C   0  0  2  0  0  0  0  0  0  0  0  0
    8.8656  -15.4562   21.2789 N   0  0  0  0  0  0  0  0  0  0  0  0
    9.0412  -15.3647   23.6994 C   0  0  0  0  0  0  0  0  0  0  0  0
   10.1254  -14.7451   23.5818 O   0  0  0  0  0  0  0  0  0  0  0  0
    5.9303  -12.0488   26.2173 C   0  0  0  0  0  0  0  0  0  0  0  0
    7.1587  -12.7380   25.7246 C   0  0  0  0  0  0  0  0  0  0  0  0
    7.7049  -13.7423   26.7199 C   0  0  2  0  0  0  0  0  0  0  0  0
    8.2771  -12.9702   27.8847 C   0  0  0  0  0  0  0  0  0  0  0  0
    8.8157  -14.5427   26.0791 C   0  0  2  0  0  0  0  0  0  0  0  0
    8.3500  -15.2773   24.9222 N   0  0  0  0  0  0  0  0  0  0  0  0
    9.3279  -15.5114   27.0650 C   0  0  0  0  0  0  0  0  0  0  0  0
    8.9777  -16.8407   26.9636 O   0  0  0  0  0  0  0  0  0  0  0  0
   10.0807  -15.1612   28.0040 O   0  0  0  0  0  0  0  0  0  0  0  0
  2  3  1  0
  2  1  1  1
  4  2  1  0
  5  4  2  0
  7  6  1  6
  7  8  1  0
  8  4  1  0
  9  7  1  0
  9 16  1  0
 10  9  2  0
 12 11  1  0
 12 13  1  0
 13 14  1  1
 15 13  1  0
 15 16  1  6
 15 17  1  0
 17 18  1  0
 19 17  2  0
M  END
$$$$
