AAI.pdb
     RDKit          3D

 19 18  0  0  1  0  0  0  0  0999 V2000
    6.1846  -20.0933   21.9436 C   0  0  0  0  0  0  0  0  0  0  0  0
    6.3743  -19.0331   23.0062 C   0  0  2  0  0  0  0  0  0  0  0  0
    5.0881  -18.4155   23.2554 N   0  0  0  0  0  0  0  0  0  0  0  0
    7.3168  -17.9897   22.5136 C   0  0  0  0  0  0  0  0  0  0  0  0
    8.5263  -18.2376   22.2725 O   0  0  0  0  0  0  0  0  0  0  0  0
    6.9822  -14.5466   21.1963 C   0  0  0  0  0  0  0  0  0  0  0  0
    7.8325  -15.6395   21.8602 C   0  0  2  0  0  0  0  0  0  0  0  0
    6.8793  -16.6548   22.2941 N   0  0  0  0  0  0  0  0  0  0  0  0
    8.4882  -14.9870   23.0208 C   0  0  0  0  0  0  0  0  0  0  0  0
    9.4160  -14.1779   22.7805 O   0  0  0  0  0  0  0  0  0  0  0  0
    5.7322  -12.2197   26.0879 C   0  0  0  0  0  0  0  0  0  0  0  0
    6.9353  -12.8040   25.4264 C   0  0  0  0  0  0  0  0  0  0  0  0
    7.6582  -13.8048   26.3060 C   0  0  2  0  0  0  0  0  0  0  0  0
    8.3438  -13.0355   27.4098 C   0  0  0  0  0  0  0  0  0  0  0  0
    8.7102  -14.5283   25.4966 C   0  0  2  0  0  0  0  0  0  0  0  0
    8.1344  -15.2198   24.3629 N   0  0  0  0  0  0  0  0  0  0  0  0
    9.3661  -15.5261   26.3609 C   0  0  0  0  0  0  0  0  0  0  0  0
   10.3412  -15.1263   27.2493 O   0  0  0  0  0  0  0  0  0  0  0  0
    9.0621  -16.7412   26.3135 O   0  0  0  0  0  0  0  0  0  0  0  0
  2  3  1  0
  2  1  1  6
  4  2  1  0
  5  4  2  0
  7  6  1  1
  7  8  1  0
  8  4  1  0
  9  7  1  0
  9 16  1  0
 10  9  2  0
 12 11  1  0
 12 13  1  0
 13 14  1  1
 15 13  1  0
 15 16  1  6
 15 17  1  0
 17 18  1  0
 19 17  2  0
M  END
$$$$
