AAI.pdb
     RDKit          3D

 19 18  0  0  1  0  0  0  0  0999 V2000
    8.0633  -18.5555   20.9684 C   0  0  0  0  0  0  0  0  0  0  0  0
    8.9732  -17.4705   20.4356 C   0  0  2  0  0  0  0  0  0  0  0  0
   10.3041  -18.0274   20.3063 N   0  0  0  0  0  0  0  0  0  0  0  0
    9.0226  -16.3363   21.4003 C   0  0  0  0  0  0  0  0  0  0  0  0
    9.7001  -16.3846   22.4591 O   0  0  0  0  0  0  0  0  0  0  0  0
    7.5892  -12.8867   21.4585 C   0  0  0  0  0  0  0  0  0  0  0  0
    8.3749  -14.0350   22.1083 C   0  0  2  0  0  0  0  0  0  0  0  0
    8.2956  -15.1386   21.1578 N   0  0  0  0  0  0  0  0  0  0  0  0
    7.6518  -14.3546   23.3643 C   0  0  0  0  0  0  0  0  0  0  0  0
    6.6712  -15.1324   23.2845 O   0  0  0  0  0  0  0  0  0  0  0  0
    9.8822  -13.3510   28.4874 C   0  0  0  0  0  0  0  0  0  0  0  0
    9.0002  -13.1395   27.3025 C   0  0  0  0  0  0  0  0  0  0  0  0
    8.0943  -14.3237   27.0290 C   0  0  2  0  0  0  0  0  0  0  0  0
    8.9723  -15.5083   26.7032 C   0  0  0  0  0  0  0  0  0  0  0  0
    7.2176  -14.0293   25.8332 C   0  0  2  0  0  0  0  0  0  0  0  0
    7.9975  -13.8415   24.6285 N   0  0  0  0  0  0  0  0  0  0  0  0
    6.4659  -12.7885   26.0940 C   0  0  0  0  0  0  0  0  0  0  0  0
    6.7552  -11.6492   25.3740 O   0  0  0  0  0  0  0  0  0  0  0  0
    5.5611  -12.7352   26.9597 O   0  0  0  0  0  0  0  0  0  0  0  0
  2  3  1  0
  2  1  1  1
  4  2  1  0
  5  4  2  0
  7  6  1  6
  7  8  1  0
  8  4  1  0
  9  7  1  0
  9 16  1  0
 10  9  2  0
 12 11  1  0
 12 13  1  0
 13 14  1  6
 15 13  1  0
 15 16  1  6
 15 17  1  0
 17 18  1  0
 19 17  2  0
M  END
$$$$
