AAI.pdb
     RDKit          3D

 19 18  0  0  1  0  0  0  0  0999 V2000
    8.8353  -12.2818   19.2444 C   0  0  0  0  0  0  0  0  0  0  0  0
    8.5837  -13.7490   18.9745 C   0  0  2  0  0  0  0  0  0  0  0  0
    7.4382  -13.8511   18.0938 N   0  0  0  0  0  0  0  0  0  0  0  0
    8.2674  -14.4487   20.2512 C   0  0  0  0  0  0  0  0  0  0  0  0
    7.1604  -14.3150   20.8336 O   0  0  0  0  0  0  0  0  0  0  0  0
    9.8277  -17.2415   22.1122 C   0  0  0  0  0  0  0  0  0  0  0  0
    8.8504  -16.0579   22.0642 C   0  0  2  0  0  0  0  0  0  0  0  0
    9.2181  -15.3067   20.8692 N   0  0  0  0  0  0  0  0  0  0  0  0
    9.1130  -15.2716   23.2952 C   0  0  0  0  0  0  0  0  0  0  0  0
   10.1787  -14.6119   23.3430 O   0  0  0  0  0  0  0  0  0  0  0  0
    6.4214  -11.4706   27.0508 C   0  0  0  0  0  0  0  0  0  0  0  0
    7.4422  -12.5538   26.9451 C   0  0  0  0  0  0  0  0  0  0  0  0
    7.2040  -13.4683   25.7600 C   0  0  2  0  0  0  0  0  0  0  0  0
    6.0233  -14.3501   26.0901 C   0  0  0  0  0  0  0  0  0  0  0  0
    8.4155  -14.3457   25.5415 C   0  0  2  0  0  0  0  0  0  0  0  0
    8.2455  -15.2223   24.4024 N   0  0  0  0  0  0  0  0  0  0  0  0
    8.6152  -15.1803   26.7399 C   0  0  0  0  0  0  0  0  0  0  0  0
    8.4157  -16.5422   26.6661 O   0  0  0  0  0  0  0  0  0  0  0  0
    8.9649  -14.6857   27.8373 O   0  0  0  0  0  0  0  0  0  0  0  0
  2  3  1  0
  2  1  1  1
  4  2  1  0
  5  4  2  0
  7  6  1  1
  7  8  1  0
  8  4  1  0
  9  7  1  0
  9 16  1  0
 10  9  2  0
 12 11  1  0
 12 13  1  0
 13 14  1  1
 15 13  1  0
 15 16  1  6
 15 17  1  0
 17 18  1  0
 19 17  2  0
M  END
$$$$
