AAI.pdb
     RDKit          3D

 19 18  0  0  1  0  0  0  0  0999 V2000
    7.4173  -12.6893   18.6347 C   0  0  0  0  0  0  0  0  0  0  0  0
    8.5277  -13.3976   19.3792 C   0  0  2  0  0  0  0  0  0  0  0  0
    9.0520  -14.4363   18.5166 N   0  0  0  0  0  0  0  0  0  0  0  0
    7.9823  -14.0319   20.6120 C   0  0  0  0  0  0  0  0  0  0  0  0
    7.3379  -13.3800   21.4736 O   0  0  0  0  0  0  0  0  0  0  0  0
    8.0416  -17.4935   22.0215 C   0  0  0  0  0  0  0  0  0  0  0  0
    7.6792  -16.0038   22.1075 C   0  0  2  0  0  0  0  0  0  0  0  0
    8.1719  -15.4180   20.8658 N   0  0  0  0  0  0  0  0  0  0  0  0
    8.4208  -15.4784   23.2808 C   0  0  0  0  0  0  0  0  0  0  0  0
    9.6581  -15.3150   23.1564 O   0  0  0  0  0  0  0  0  0  0  0  0
    5.8664  -11.8623   26.2955 C   0  0  0  0  0  0  0  0  0  0  0  0
    6.9569  -12.6016   25.5949 C   0  0  0  0  0  0  0  0  0  0  0  0
    7.5780  -13.6828   26.4569 C   0  0  2  0  0  0  0  0  0  0  0  0
    8.3812  -13.0024   27.5396 C   0  0  0  0  0  0  0  0  0  0  0  0
    8.5128  -14.5270   25.6209 C   0  0  2  0  0  0  0  0  0  0  0  0
    7.8240  -15.1553   24.5137 N   0  0  0  0  0  0  0  0  0  0  0  0
    9.0794  -15.5876   26.4733 C   0  0  0  0  0  0  0  0  0  0  0  0
   10.3511  -15.4468   26.9861 O   0  0  0  0  0  0  0  0  0  0  0  0
    8.4345  -16.6261   26.7502 O   0  0  0  0  0  0  0  0  0  0  0  0
  2  3  1  0
  2  1  1  6
  4  2  1  0
  5  4  2  0
  7  6  1  6
  7  8  1  0
  8  4  1  0
  9  7  1  0
  9 16  1  0
 10  9  2  0
 12 11  1  0
 12 13  1  0
 13 14  1  1
 15 13  1  0
 15 16  1  6
 15 17  1  0
 17 18  1  0
 19 17  2  0
M  END
$$$$
