MWR.pdb
     RDKit          3D

 34 35  0  0  1  0  0  0  0  0999 V2000
    8.2183  -11.3654   19.8194 C   0  0  0  0  0  0  0  0  0  0  0  0
    6.9113  -12.5727   19.4937 S   0  0  0  0  0  0  0  0  0  0  0  0
    7.6239  -14.2308   19.7357 C   0  0  0  0  0  0  0  0  0  0  0  0
    8.3556  -14.2067   21.0485 C   0  0  0  0  0  0  0  0  0  0  0  0
    9.0202  -15.5178   21.3755 C   0  0  2  0  0  0  0  0  0  0  0  0
    7.9909  -16.5824   21.2682 N   0  0  0  0  0  0  0  0  0  0  0  0
    9.5074  -15.6108   22.7739 C   0  0  0  0  0  0  0  0  0  0  0  0
   10.4115  -14.8437   23.2154 O   0  0  0  0  0  0  0  0  0  0  0  0
    9.0116  -16.5432   23.7144 N   0  0  0  0  0  0  0  0  0  0  0  0
    9.3350  -16.6817   25.0692 C   0  0  1  0  0  0  0  0  0  0  0  0
    8.2598  -16.6765   26.1072 C   0  0  0  0  0  0  0  0  0  0  0  0
    7.2005  -15.6534   25.8702 C   0  0  0  0  0  0  0  0  0  0  0  0
    5.9067  -15.7831   25.4300 C   0  0  0  0  0  0  0  0  0  0  0  0
    5.2841  -14.5769   25.3669 N   0  0  0  0  0  0  0  0  0  0  0  0
    6.1625  -13.6445   25.7657 C   0  0  0  0  0  0  0  0  0  0  0  0
    6.0669  -12.2612   25.9015 C   0  0  0  0  0  0  0  0  0  0  0  0
    7.1519  -11.5395   26.3488 C   0  0  0  0  0  0  0  0  0  0  0  0
    8.3478  -12.1472   26.6722 C   0  0  0  0  0  0  0  0  0  0  0  0
    8.4254  -13.5379   26.5292 C   0  0  0  0  0  0  0  0  0  0  0  0
    7.3473  -14.2665   26.0826 C   0  0  0  0  0  0  0  0  0  0  0  0
   10.2869  -17.7668   25.3265 C   0  0  0  0  0  0  0  0  0  0  0  0
    9.9354  -18.6193   26.2166 O   0  0  0  0  0  0  0  0  0  0  0  0
   15.9058  -19.7138   19.6162 N   0  0  0  0  0  0  0  0  0  0  0  0
   14.5403  -19.8746   19.9601 C   0  0  0  0  0  0  0  0  0  0  0  0
   13.8813  -20.8653   19.4879 N   0  0  0  0  0  0  0  0  0  0  0  0
   13.8712  -18.9652   20.8199 N   0  0  0  0  0  0  0  0  0  0  0  0
   14.5439  -18.4845   21.9919 C   0  0  0  0  0  0  0  0  0  0  0  0
   13.4836  -18.2212   23.0583 C   0  0  0  0  0  0  0  0  0  0  0  0
   13.3824  -19.3653   24.0209 C   0  0  0  0  0  0  0  0  0  0  0  0
   12.3156  -19.1157   25.0284 C   0  0  2  0  0  0  0  0  0  0  0  0
   11.5340  -17.9215   24.6675 N   0  0  0  0  0  0  0  0  0  0  0  0
   12.9169  -18.7946   26.3448 C   0  0  0  0  0  0  0  0  0  0  0  0
   13.6699  -19.5730   26.9908 O   0  0  0  0  0  0  0  0  0  0  0  0
   12.6617  -17.5541   26.9544 O   0  0  0  0  0  0  0  0  0  0  0  0
  2  3  1  0
  2  1  1  0
  3  4  1  0
  4  5  1  0
  5  7  1  0
  5  6  1  1
  7  8  2  0
  9 10  1  0
  9  7  1  0
 10 21  1  0
 10 11  1  1
 12 11  1  0
 12 13  2  0
 14 13  1  0
 15 14  1  0
 16 15  2  0
 17 16  1  0
 18 17  2  0
 18 19  1  0
 19 20  2  0
 20 15  1  0
 20 12  1  0
 21 31  1  0
 22 21  2  0
 23 24  1  0
 24 25  2  0
 24 26  1  0
 26 27  1  0
 27 28  1  0
 29 28  1  0
 30 29  1  6
 31 30  1  0
 32 30  1  0
 33 32  2  0
 34 32  1  0
M  END
$$$$
