MWR.pdb
     RDKit          3D

 34 35  0  0  1  0  0  0  0  0999 V2000
    8.1506  -11.8253   19.5399 C   0  0  0  0  0  0  0  0  0  0  0  0
    6.7118  -12.9014   19.3308 S   0  0  0  0  0  0  0  0  0  0  0  0
    7.2461  -14.6058   19.6841 C   0  0  0  0  0  0  0  0  0  0  0  0
    8.0575  -14.5582   20.9485 C   0  0  0  0  0  0  0  0  0  0  0  0
    8.6845  -15.8828   21.2952 C   0  0  2  0  0  0  0  0  0  0  0  0
    7.6033  -16.9002   21.3149 N   0  0  0  0  0  0  0  0  0  0  0  0
    9.2666  -15.9320   22.6591 C   0  0  0  0  0  0  0  0  0  0  0  0
   10.2776  -15.2403   22.9758 O   0  0  0  0  0  0  0  0  0  0  0  0
    8.7509  -16.7371   23.7010 N   0  0  0  0  0  0  0  0  0  0  0  0
    9.2153  -16.8797   25.0137 C   0  0  1  0  0  0  0  0  0  0  0  0
    8.2855  -16.6925   26.1688 C   0  0  0  0  0  0  0  0  0  0  0  0
    7.3315  -15.5592   25.9949 C   0  0  0  0  0  0  0  0  0  0  0  0
    6.0397  -15.5336   25.5310 C   0  0  0  0  0  0  0  0  0  0  0  0
    5.5342  -14.2723   25.5492 N   0  0  0  0  0  0  0  0  0  0  0  0
    6.4884  -13.4587   26.0258 C   0  0  0  0  0  0  0  0  0  0  0  0
    6.5204  -12.0859   26.2618 C   0  0  0  0  0  0  0  0  0  0  0  0
    7.6596  -11.5044   26.7738 C   0  0  0  0  0  0  0  0  0  0  0  0
    8.7870  -12.2445   27.0659 C   0  0  0  0  0  0  0  0  0  0  0  0
    8.7366  -13.6224   26.8222 C   0  0  0  0  0  0  0  0  0  0  0  0
    7.6036  -14.2114   26.3104 C   0  0  0  0  0  0  0  0  0  0  0  0
   10.0348  -18.0798   25.2080 C   0  0  0  0  0  0  0  0  0  0  0  0
    9.3923  -19.1827   25.3238 O   0  0  0  0  0  0  0  0  0  0  0  0
   12.1693  -19.6491   20.8962 N   0  0  0  0  0  0  0  0  0  0  0  0
   13.4717  -19.2818   20.4749 C   0  0  0  0  0  0  0  0  0  0  0  0
   13.8808  -19.6252   19.3116 N   0  0  0  0  0  0  0  0  0  0  0  0
   14.3473  -18.5376   21.3077 N   0  0  0  0  0  0  0  0  0  0  0  0
   14.5812  -18.9802   22.6518 C   0  0  0  0  0  0  0  0  0  0  0  0
   13.2364  -18.9947   23.3744 C   0  0  0  0  0  0  0  0  0  0  0  0
   13.3787  -19.4913   24.7812 C   0  0  0  0  0  0  0  0  0  0  0  0
   12.0832  -19.3981   25.5081 C   0  0  2  0  0  0  0  0  0  0  0  0
   11.4523  -18.0890   25.2729 N   0  0  0  0  0  0  0  0  0  0  0  0
   12.3101  -19.4546   26.9720 C   0  0  0  0  0  0  0  0  0  0  0  0
   12.0771  -18.5017   27.7644 O   0  0  0  0  0  0  0  0  0  0  0  0
   12.8165  -20.6246   27.5638 O   0  0  0  0  0  0  0  0  0  0  0  0
  2  3  1  0
  2  1  1  0
  3  4  1  0
  4  5  1  0
  5  7  1  0
  5  6  1  1
  7  8  2  0
  9 10  1  0
  9  7  1  0
 10 21  1  0
 10 11  1  1
 12 11  1  0
 12 13  2  0
 14 13  1  0
 15 14  1  0
 16 15  2  0
 17 16  1  0
 18 17  2  0
 18 19  1  0
 19 20  2  0
 20 15  1  0
 20 12  1  0
 21 31  1  0
 22 21  2  0
 23 24  1  0
 24 25  2  0
 24 26  1  0
 26 27  1  0
 27 28  1  0
 29 28  1  0
 30 29  1  6
 31 30  1  0
 32 30  1  0
 33 32  2  0
 34 32  1  0
M  END
$$$$
