MWR.pdb
     RDKit          3D

 34 35  0  0  1  0  0  0  0  0999 V2000
    8.6834  -14.8492   28.7026 C   0  0  0  0  0  0  0  0  0  0  0  0
    9.3597  -15.7991   30.0854 S   0  0  0  0  0  0  0  0  0  0  0  0
    9.8980  -17.4111   29.4319 C   0  0  0  0  0  0  0  0  0  0  0  0
    8.7407  -17.9803   28.6598 C   0  0  0  0  0  0  0  0  0  0  0  0
    9.1675  -18.7146   27.4163 C   0  0  2  0  0  0  0  0  0  0  0  0
   10.6389  -18.5631   27.2877 N   0  0  0  0  0  0  0  0  0  0  0  0
    8.6230  -18.1376   26.1625 C   0  0  0  0  0  0  0  0  0  0  0  0
    7.4071  -18.2752   25.8405 O   0  0  0  0  0  0  0  0  0  0  0  0
    9.3989  -17.3977   25.2405 N   0  0  0  0  0  0  0  0  0  0  0  0
    8.9719  -16.6096   24.1655 C   0  0  1  0  0  0  0  0  0  0  0  0
    8.7718  -15.1387   24.3392 C   0  0  0  0  0  0  0  0  0  0  0  0
    7.8150  -14.7867   25.4279 C   0  0  0  0  0  0  0  0  0  0  0  0
    7.0988  -15.5814   26.2882 C   0  0  0  0  0  0  0  0  0  0  0  0
    6.3466  -14.8348   27.1386 N   0  0  0  0  0  0  0  0  0  0  0  0
    6.5624  -13.5435   26.8456 C   0  0  0  0  0  0  0  0  0  0  0  0
    6.0664  -12.3612   27.3907 C   0  0  0  0  0  0  0  0  0  0  0  0
    6.4754  -11.1474   26.8830 C   0  0  0  0  0  0  0  0  0  0  0  0
    7.3727  -11.0599   25.8383 C   0  0  0  0  0  0  0  0  0  0  0  0
    7.8603  -12.2584   25.3032 C   0  0  0  0  0  0  0  0  0  0  0  0
    7.4568  -13.4748   25.8032 C   0  0  0  0  0  0  0  0  0  0  0  0
    9.7042  -16.8816   22.9248 C   0  0  0  0  0  0  0  0  0  0  0  0
   10.7273  -17.6455   23.0356 O   0  0  0  0  0  0  0  0  0  0  0  0
    7.2191  -14.1184   15.5145 N   0  0  0  0  0  0  0  0  0  0  0  0
    7.8803  -13.6718   16.6859 C   0  0  0  0  0  0  0  0  0  0  0  0
    8.1193  -12.4238   16.8408 N   0  0  0  0  0  0  0  0  0  0  0  0
    8.2906  -14.5707   17.7045 N   0  0  0  0  0  0  0  0  0  0  0  0
    7.9013  -15.9487   17.6218 C   0  0  0  0  0  0  0  0  0  0  0  0
    8.4390  -16.6563   18.8632 C   0  0  0  0  0  0  0  0  0  0  0  0
    9.7745  -16.1092   19.2672 C   0  0  0  0  0  0  0  0  0  0  0  0
   10.2410  -16.7356   20.5342 C   0  0  2  0  0  0  0  0  0  0  0  0
    9.3557  -16.3642   21.6502 N   0  0  0  0  0  0  0  0  0  0  0  0
   11.5727  -16.2041   20.9105 C   0  0  0  0  0  0  0  0  0  0  0  0
   11.7791  -15.4280   21.8828 O   0  0  0  0  0  0  0  0  0  0  0  0
   12.7111  -16.5589   20.1663 O   0  0  0  0  0  0  0  0  0  0  0  0
  2  3  1  0
  2  1  1  0
  3  4  1  0
  4  5  1  0
  5  7  1  0
  5  6  1  6
  7  8  2  0
  9 10  1  0
  9  7  1  0
 10 21  1  0
 10 11  1  1
 12 11  1  0
 12 13  2  0
 14 13  1  0
 15 14  1  0
 16 15  2  0
 17 16  1  0
 18 17  2  0
 18 19  1  0
 19 20  2  0
 20 15  1  0
 20 12  1  0
 21 31  1  0
 22 21  2  0
 23 24  1  0
 24 25  2  0
 24 26  1  0
 26 27  1  0
 27 28  1  0
 29 28  1  0
 30 29  1  6
 31 30  1  0
 32 30  1  0
 33 32  2  0
 34 32  1  0
M  END
$$$$
