MWR.pdb
     RDKit          3D

 34 35  0  0  1  0  0  0  0  0999 V2000
    6.1328  -12.3962   17.1502 C   0  0  0  0  0  0  0  0  0  0  0  0
    7.1570  -12.4285   18.6409 S   0  0  0  0  0  0  0  0  0  0  0  0
    7.3800  -14.1723   19.1151 C   0  0  0  0  0  0  0  0  0  0  0  0
    8.2550  -14.1863   20.3372 C   0  0  0  0  0  0  0  0  0  0  0  0
    8.5877  -15.5781   20.8064 C   0  0  2  0  0  0  0  0  0  0  0  0
    7.3071  -16.2806   21.0727 N   0  0  0  0  0  0  0  0  0  0  0  0
    9.3102  -15.6175   22.1017 C   0  0  0  0  0  0  0  0  0  0  0  0
   10.4247  -15.0397   22.2592 O   0  0  0  0  0  0  0  0  0  0  0  0
    8.8243  -16.2878   23.2481 N   0  0  0  0  0  0  0  0  0  0  0  0
    9.4134  -16.4074   24.5121 C   0  0  1  0  0  0  0  0  0  0  0  0
    8.5621  -16.5071   25.7364 C   0  0  0  0  0  0  0  0  0  0  0  0
    7.4100  -15.5598   25.7461 C   0  0  0  0  0  0  0  0  0  0  0  0
    6.0897  -15.7453   25.4186 C   0  0  0  0  0  0  0  0  0  0  0  0
    5.3755  -14.6010   25.5830 N   0  0  0  0  0  0  0  0  0  0  0  0
    6.2193  -13.6543   26.0206 C   0  0  0  0  0  0  0  0  0  0  0  0
    6.0355  -12.3143   26.3549 C   0  0  0  0  0  0  0  0  0  0  0  0
    7.1051  -11.5635   26.7913 C   0  0  0  0  0  0  0  0  0  0  0  0
    8.3710  -12.0998   26.9111 C   0  0  0  0  0  0  0  0  0  0  0  0
    8.5366  -13.4477   26.5705 C   0  0  0  0  0  0  0  0  0  0  0  0
    7.4745  -14.2047   26.1331 C   0  0  0  0  0  0  0  0  0  0  0  0
   10.4875  -17.4044   24.5554 C   0  0  0  0  0  0  0  0  0  0  0  0
   10.1215  -18.6262   24.4291 O   0  0  0  0  0  0  0  0  0  0  0  0
   17.2108  -17.3998   19.2250 N   0  0  0  0  0  0  0  0  0  0  0  0
   17.0351  -18.7150   19.7230 C   0  0  0  0  0  0  0  0  0  0  0  0
   17.6715  -19.6860   19.1837 N   0  0  0  0  0  0  0  0  0  0  0  0
   16.1687  -18.9955   20.8114 N   0  0  0  0  0  0  0  0  0  0  0  0
   15.4014  -17.9302   21.3891 C   0  0  0  0  0  0  0  0  0  0  0  0
   14.5543  -18.5261   22.5107 C   0  0  0  0  0  0  0  0  0  0  0  0
   13.6199  -17.5068   23.0887 C   0  0  0  0  0  0  0  0  0  0  0  0
   12.8152  -18.0944   24.1943 C   0  0  2  0  0  0  0  0  0  0  0  0
   11.8640  -17.1033   24.7236 N   0  0  0  0  0  0  0  0  0  0  0  0
   13.6897  -18.4345   25.3420 C   0  0  0  0  0  0  0  0  0  0  0  0
   13.7359  -17.7795   26.4186 O   0  0  0  0  0  0  0  0  0  0  0  0
   14.5412  -19.5508   25.2749 O   0  0  0  0  0  0  0  0  0  0  0  0
  2  3  1  0
  2  1  1  0
  3  4  1  0
  4  5  1  0
  5  7  1  0
  5  6  1  1
  7  8  2  0
  9 10  1  0
  9  7  1  0
 10 21  1  0
 10 11  1  1
 12 11  1  0
 12 13  2  0
 14 13  1  0
 15 14  1  0
 16 15  2  0
 17 16  1  0
 18 17  2  0
 18 19  1  0
 19 20  2  0
 20 15  1  0
 20 12  1  0
 21 31  1  0
 22 21  2  0
 23 24  1  0
 24 25  2  0
 24 26  1  0
 26 27  1  0
 27 28  1  0
 29 28  1  0
 30 29  1  6
 31 30  1  0
 32 30  1  0
 33 32  2  0
 34 32  1  0
M  END
$$$$
