MWR.pdb
     RDKit          3D

 34 35  0  0  1  0  0  0  0  0999 V2000
    8.2330  -11.8662   19.1643 C   0  0  0  0  0  0  0  0  0  0  0  0
    7.4966  -13.1621   18.1395 S   0  0  0  0  0  0  0  0  0  0  0  0
    8.0644  -14.7649   18.7908 C   0  0  0  0  0  0  0  0  0  0  0  0
    9.5652  -14.7666   18.7052 C   0  0  0  0  0  0  0  0  0  0  0  0
   10.2022  -15.8239   19.5677 C   0  0  2  0  0  0  0  0  0  0  0  0
    9.4828  -17.0990   19.3205 N   0  0  0  0  0  0  0  0  0  0  0  0
   10.0459  -15.5847   21.0236 C   0  0  0  0  0  0  0  0  0  0  0  0
   10.6907  -14.6745   21.6208 O   0  0  0  0  0  0  0  0  0  0  0  0
    9.1790  -16.3354   21.8510 N   0  0  0  0  0  0  0  0  0  0  0  0
    8.7792  -16.0787   23.1675 C   0  0  1  0  0  0  0  0  0  0  0  0
    7.4373  -15.4833   23.4475 C   0  0  0  0  0  0  0  0  0  0  0  0
    7.1808  -15.2333   24.8954 C   0  0  0  0  0  0  0  0  0  0  0  0
    6.8435  -16.0932   25.9110 C   0  0  0  0  0  0  0  0  0  0  0  0
    6.7133  -15.4341   27.0922 N   0  0  0  0  0  0  0  0  0  0  0  0
    6.9646  -14.1363   26.8636 C   0  0  0  0  0  0  0  0  0  0  0  0
    6.9800  -13.0213   27.6989 C   0  0  0  0  0  0  0  0  0  0  0  0
    7.2845  -11.7811   27.1817 C   0  0  0  0  0  0  0  0  0  0  0  0
    7.5796  -11.6015   25.8457 C   0  0  0  0  0  0  0  0  0  0  0  0
    7.5591  -12.7331   25.0216 C   0  0  0  0  0  0  0  0  0  0  0  0
    7.2554  -13.9751   25.5292 C   0  0  0  0  0  0  0  0  0  0  0  0
    9.0405  -17.1979   24.0779 C   0  0  0  0  0  0  0  0  0  0  0  0
    8.5105  -18.3185   23.7525 O   0  0  0  0  0  0  0  0  0  0  0  0
   12.0706  -20.1165   31.8863 N   0  0  0  0  0  0  0  0  0  0  0  0
   12.9354  -19.5905   30.8943 C   0  0  0  0  0  0  0  0  0  0  0  0
   14.2003  -19.7508   31.0079 N   0  0  0  0  0  0  0  0  0  0  0  0
   12.4415  -18.8847   29.7665 N   0  0  0  0  0  0  0  0  0  0  0  0
   12.8714  -19.2718   28.4540 C   0  0  0  0  0  0  0  0  0  0  0  0
   11.6235  -19.4517   27.5931 C   0  0  0  0  0  0  0  0  0  0  0  0
   11.1941  -18.1545   26.9775 C   0  0  0  0  0  0  0  0  0  0  0  0
   10.2741  -18.3920   25.8319 C   0  0  2  0  0  0  0  0  0  0  0  0
    9.8213  -17.1134   25.2598 N   0  0  0  0  0  0  0  0  0  0  0  0
    9.0360  -19.0615   26.2972 C   0  0  0  0  0  0  0  0  0  0  0  0
    8.7903  -20.2885   26.1415 O   0  0  0  0  0  0  0  0  0  0  0  0
    8.0407  -18.3238   26.9610 O   0  0  0  0  0  0  0  0  0  0  0  0
  2  3  1  0
  2  1  1  0
  3  4  1  0
  4  5  1  0
  5  7  1  0
  5  6  1  6
  7  8  2  0
  9 10  1  0
  9  7  1  0
 10 21  1  0
 10 11  1  6
 12 11  1  0
 12 13  2  0
 14 13  1  0
 15 14  1  0
 16 15  2  0
 17 16  1  0
 18 17  2  0
 18 19  1  0
 19 20  2  0
 20 15  1  0
 20 12  1  0
 21 31  1  0
 22 21  2  0
 23 24  1  0
 24 25  2  0
 24 26  1  0
 26 27  1  0
 27 28  1  0
 29 28  1  0
 30 29  1  1
 31 30  1  0
 32 30  1  0
 33 32  2  0
 34 32  1  0
M  END
$$$$
