MWR.pdb
     RDKit          3D

 34 35  0  0  1  0  0  0  0  0999 V2000
    8.1862  -11.5923   20.8614 C   0  0  0  0  0  0  0  0  0  0  0  0
    6.8722  -12.5701   20.0936 S   0  0  0  0  0  0  0  0  0  0  0  0
    6.9477  -14.2444   20.8052 C   0  0  0  0  0  0  0  0  0  0  0  0
    8.3947  -14.6513   20.8176 C   0  0  0  0  0  0  0  0  0  0  0  0
    8.6167  -16.0165   21.4130 C   0  0  2  0  0  0  0  0  0  0  0  0
    7.2833  -16.6195   21.6641 N   0  0  0  0  0  0  0  0  0  0  0  0
    9.2702  -15.9909   22.7448 C   0  0  0  0  0  0  0  0  0  0  0  0
   10.1880  -15.1643   23.0192 O   0  0  0  0  0  0  0  0  0  0  0  0
    8.9290  -16.8677   23.8005 N   0  0  0  0  0  0  0  0  0  0  0  0
    9.4320  -16.9093   25.1060 C   0  0  1  0  0  0  0  0  0  0  0  0
    8.5706  -16.5123   26.2610 C   0  0  0  0  0  0  0  0  0  0  0  0
    7.5327  -15.4981   25.9159 C   0  0  0  0  0  0  0  0  0  0  0  0
    6.2898  -15.6392   25.3503 C   0  0  0  0  0  0  0  0  0  0  0  0
    5.6678  -14.4379   25.2207 N   0  0  0  0  0  0  0  0  0  0  0  0
    6.4955  -13.4976   25.7007 C   0  0  0  0  0  0  0  0  0  0  0  0
    6.3769  -12.1146   25.8207 C   0  0  0  0  0  0  0  0  0  0  0  0
    7.4070  -11.3830   26.3702 C   0  0  0  0  0  0  0  0  0  0  0  0
    8.5694  -11.9806   26.8130 C   0  0  0  0  0  0  0  0  0  0  0  0
    8.6708  -13.3711   26.6843 C   0  0  0  0  0  0  0  0  0  0  0  0
    7.6476  -14.1094   26.1361 C   0  0  0  0  0  0  0  0  0  0  0  0
   10.1489  -18.1521   25.4081 C   0  0  0  0  0  0  0  0  0  0  0  0
    9.6606  -19.2187   24.8919 O   0  0  0  0  0  0  0  0  0  0  0  0
   14.9049  -21.3542   21.4884 N   0  0  0  0  0  0  0  0  0  0  0  0
   14.1373  -20.4299   20.7368 C   0  0  0  0  0  0  0  0  0  0  0  0
   13.8061  -20.7134   19.5333 N   0  0  0  0  0  0  0  0  0  0  0  0
   13.7181  -19.1871   21.2789 N   0  0  0  0  0  0  0  0  0  0  0  0
   14.1218  -18.8304   22.6082 C   0  0  0  0  0  0  0  0  0  0  0  0
   13.0256  -19.2939   23.5644 C   0  0  0  0  0  0  0  0  0  0  0  0
   13.3111  -18.8631   24.9711 C   0  0  0  0  0  0  0  0  0  0  0  0
   12.2438  -19.3346   25.8952 C   0  0  2  0  0  0  0  0  0  0  0  0
   11.3145  -18.2379   26.2129 N   0  0  0  0  0  0  0  0  0  0  0  0
   12.8297  -19.7278   27.1989 C   0  0  0  0  0  0  0  0  0  0  0  0
   12.6063  -19.1311   28.2872 O   0  0  0  0  0  0  0  0  0  0  0  0
   13.6967  -20.8312   27.2799 O   0  0  0  0  0  0  0  0  0  0  0  0
  2  3  1  0
  2  1  1  0
  3  4  1  0
  4  5  1  0
  5  7  1  0
  5  6  1  1
  7  8  2  0
  9 10  1  0
  9  7  1  0
 10 21  1  0
 10 11  1  1
 12 11  1  0
 12 13  2  0
 14 13  1  0
 15 14  1  0
 16 15  2  0
 17 16  1  0
 18 17  2  0
 18 19  1  0
 19 20  2  0
 20 15  1  0
 20 12  1  0
 21 31  1  0
 22 21  2  0
 23 24  1  0
 24 25  2  0
 24 26  1  0
 26 27  1  0
 27 28  1  0
 29 28  1  0
 30 29  1  6
 31 30  1  0
 32 30  1  0
 33 32  2  0
 34 32  1  0
M  END
$$$$
