MWR.pdb
     RDKit          3D

 34 35  0  0  1  0  0  0  0  0999 V2000
    8.0045  -11.4688   19.7710 C   0  0  0  0  0  0  0  0  0  0  0  0
    6.8215  -12.8112   19.5054 S   0  0  0  0  0  0  0  0  0  0  0  0
    7.7205  -14.3818   19.7059 C   0  0  0  0  0  0  0  0  0  0  0  0
    8.4974  -14.2821   20.9889 C   0  0  0  0  0  0  0  0  0  0  0  0
    9.2641  -15.5375   21.3113 C   0  0  2  0  0  0  0  0  0  0  0  0
    8.2881  -16.6541   21.3832 N   0  0  0  0  0  0  0  0  0  0  0  0
    9.9087  -15.5201   22.6475 C   0  0  0  0  0  0  0  0  0  0  0  0
   10.9577  -14.8488   22.8709 O   0  0  0  0  0  0  0  0  0  0  0  0
    9.4150  -16.2347   23.7634 N   0  0  0  0  0  0  0  0  0  0  0  0
    9.9278  -16.2971   25.0643 C   0  0  1  0  0  0  0  0  0  0  0  0
    9.0064  -16.2915   26.2410 C   0  0  0  0  0  0  0  0  0  0  0  0
    7.7572  -15.5064   26.0225 C   0  0  0  0  0  0  0  0  0  0  0  0
    6.5241  -15.8889   25.5556 C   0  0  0  0  0  0  0  0  0  0  0  0
    5.6613  -14.8395   25.5249 N   0  0  0  0  0  0  0  0  0  0  0  0
    6.3190  -13.7591   25.9720 C   0  0  0  0  0  0  0  0  0  0  0  0
    5.9319  -12.4333   26.1556 C   0  0  0  0  0  0  0  0  0  0  0  0
    6.8356  -11.5169   26.6471 C   0  0  0  0  0  0  0  0  0  0  0  0
    8.1299  -11.8708   26.9692 C   0  0  0  0  0  0  0  0  0  0  0  0
    8.5010  -13.2073   26.7779 C   0  0  0  0  0  0  0  0  0  0  0  0
    7.6055  -14.1290   26.2869 C   0  0  0  0  0  0  0  0  0  0  0  0
   10.9588  -17.3266   25.2287 C   0  0  0  0  0  0  0  0  0  0  0  0
   11.4219  -17.4693   26.4152 O   0  0  0  0  0  0  0  0  0  0  0  0
    9.6573  -20.4349   19.7947 N   0  0  0  0  0  0  0  0  0  0  0  0
   11.0173  -20.1156   19.5560 C   0  0  0  0  0  0  0  0  0  0  0  0
   11.3288  -19.3843   18.5526 N   0  0  0  0  0  0  0  0  0  0  0  0
   12.0571  -20.5835   20.4008 N   0  0  0  0  0  0  0  0  0  0  0  0
   11.7221  -21.3488   21.5668 C   0  0  0  0  0  0  0  0  0  0  0  0
   11.4838  -20.3670   22.7114 C   0  0  0  0  0  0  0  0  0  0  0  0
   12.7550  -20.0678   23.4466 C   0  0  0  0  0  0  0  0  0  0  0  0
   12.5106  -19.1047   24.5548 C   0  0  2  0  0  0  0  0  0  0  0  0
   11.4563  -18.1469   24.1832 N   0  0  0  0  0  0  0  0  0  0  0  0
   13.7157  -18.2738   24.7888 C   0  0  0  0  0  0  0  0  0  0  0  0
   14.7200  -18.6497   25.4523 O   0  0  0  0  0  0  0  0  0  0  0  0
   13.7924  -16.9749   24.2572 O   0  0  0  0  0  0  0  0  0  0  0  0
  2  3  1  0
  2  1  1  0
  3  4  1  0
  4  5  1  0
  5  7  1  0
  5  6  1  1
  7  8  2  0
  9 10  1  0
  9  7  1  0
 10 21  1  0
 10 11  1  1
 12 11  1  0
 12 13  2  0
 14 13  1  0
 15 14  1  0
 16 15  2  0
 17 16  1  0
 18 17  2  0
 18 19  1  0
 19 20  2  0
 20 15  1  0
 20 12  1  0
 21 31  1  0
 22 21  2  0
 23 24  1  0
 24 25  2  0
 24 26  1  0
 26 27  1  0
 27 28  1  0
 29 28  1  0
 30 29  1  6
 31 30  1  0
 32 30  1  0
 33 32  2  0
 34 32  1  0
M  END
$$$$
