MWR.pdb
     RDKit          3D

 34 35  0  0  1  0  0  0  0  0999 V2000
    8.1491  -11.6366   19.7362 C   0  0  0  0  0  0  0  0  0  0  0  0
    6.6616  -12.6574   19.8679 S   0  0  0  0  0  0  0  0  0  0  0  0
    7.1988  -14.3847   20.0759 C   0  0  0  0  0  0  0  0  0  0  0  0
    8.3072  -14.3805   21.0912 C   0  0  0  0  0  0  0  0  0  0  0  0
    8.8821  -15.7499   21.3401 C   0  0  2  0  0  0  0  0  0  0  0  0
    7.7467  -16.6794   21.5667 N   0  0  0  0  0  0  0  0  0  0  0  0
    9.6929  -15.8437   22.5791 C   0  0  0  0  0  0  0  0  0  0  0  0
   10.8673  -15.3774   22.6421 O   0  0  0  0  0  0  0  0  0  0  0  0
    9.2315  -16.4472   23.7719 N   0  0  0  0  0  0  0  0  0  0  0  0
    9.8786  -16.5585   25.0080 C   0  0  1  0  0  0  0  0  0  0  0  0
    9.1529  -16.2320   26.2731 C   0  0  0  0  0  0  0  0  0  0  0  0
    7.9027  -15.4460   26.0632 C   0  0  0  0  0  0  0  0  0  0  0  0
    6.6379  -15.8450   25.7086 C   0  0  0  0  0  0  0  0  0  0  0  0
    5.7886  -14.7866   25.6383 N   0  0  0  0  0  0  0  0  0  0  0  0
    6.4870  -13.6835   25.9467 C   0  0  0  0  0  0  0  0  0  0  0  0
    6.1296  -12.3398   26.0357 C   0  0  0  0  0  0  0  0  0  0  0  0
    7.0742  -11.4008   26.3878 C   0  0  0  0  0  0  0  0  0  0  0  0
    8.3815  -11.7491   26.6598 C   0  0  0  0  0  0  0  0  0  0  0  0
    8.7224  -13.1038   26.5651 C   0  0  0  0  0  0  0  0  0  0  0  0
    7.7859  -14.0482   26.2135 C   0  0  0  0  0  0  0  0  0  0  0  0
   10.6248  -17.8117   25.1571 C   0  0  0  0  0  0  0  0  0  0  0  0
    9.9480  -18.8199   25.5671 O   0  0  0  0  0  0  0  0  0  0  0  0
   10.1243  -18.6726   19.3553 N   0  0  0  0  0  0  0  0  0  0  0  0
   11.2201  -19.5689   19.2866 C   0  0  0  0  0  0  0  0  0  0  0  0
   11.8683  -19.6929   18.1898 N   0  0  0  0  0  0  0  0  0  0  0  0
   11.6282  -20.3417   20.4047 N   0  0  0  0  0  0  0  0  0  0  0  0
   11.0000  -20.1223   21.6754 C   0  0  0  0  0  0  0  0  0  0  0  0
   12.0564  -19.5580   22.6221 C   0  0  0  0  0  0  0  0  0  0  0  0
   11.9944  -20.2200   23.9652 C   0  0  0  0  0  0  0  0  0  0  0  0
   12.5495  -19.3286   25.0200 C   0  0  2  0  0  0  0  0  0  0  0  0
   12.0083  -17.9665   24.8822 N   0  0  0  0  0  0  0  0  0  0  0  0
   14.0138  -19.1767   24.8461 C   0  0  0  0  0  0  0  0  0  0  0  0
   14.8419  -20.1235   24.9358 O   0  0  0  0  0  0  0  0  0  0  0  0
   14.5643  -17.9152   24.5613 O   0  0  0  0  0  0  0  0  0  0  0  0
  2  3  1  0
  2  1  1  0
  3  4  1  0
  4  5  1  0
  5  7  1  0
  5  6  1  1
  7  8  2  0
  9 10  1  0
  9  7  1  0
 10 21  1  0
 10 11  1  1
 12 11  1  0
 12 13  2  0
 14 13  1  0
 15 14  1  0
 16 15  2  0
 17 16  1  0
 18 17  2  0
 18 19  1  0
 19 20  2  0
 20 15  1  0
 20 12  1  0
 21 31  1  0
 22 21  2  0
 23 24  1  0
 24 25  2  0
 24 26  1  0
 26 27  1  0
 27 28  1  0
 29 28  1  0
 30 29  1  6
 31 30  1  0
 32 30  1  0
 33 32  2  0
 34 32  1  0
M  END
$$$$
