MWR.pdb
     RDKit          3D

 34 35  0  0  1  0  0  0  0  0999 V2000
    6.3603  -13.3008   16.9391 C   0  0  0  0  0  0  0  0  0  0  0  0
    7.2761  -13.1399   18.4908 S   0  0  0  0  0  0  0  0  0  0  0  0
    6.5976  -14.3627   19.6570 C   0  0  0  0  0  0  0  0  0  0  0  0
    7.3352  -14.1877   20.9549 C   0  0  0  0  0  0  0  0  0  0  0  0
    8.2598  -15.3351   21.2653 C   0  0  2  0  0  0  0  0  0  0  0  0
    7.4214  -16.5396   21.4903 N   0  0  0  0  0  0  0  0  0  0  0  0
    9.0188  -15.1686   22.5293 C   0  0  0  0  0  0  0  0  0  0  0  0
    9.7015  -14.1293   22.7629 O   0  0  0  0  0  0  0  0  0  0  0  0
    9.0416  -16.1353   23.5610 N   0  0  0  0  0  0  0  0  0  0  0  0
    9.7893  -16.1407   24.7443 C   0  0  1  0  0  0  0  0  0  0  0  0
    9.1035  -16.1107   26.0718 C   0  0  0  0  0  0  0  0  0  0  0  0
    7.8186  -15.3532   26.0676 C   0  0  0  0  0  0  0  0  0  0  0  0
    6.5236  -15.7789   25.9054 C   0  0  0  0  0  0  0  0  0  0  0  0
    5.6501  -14.7408   25.9816 N   0  0  0  0  0  0  0  0  0  0  0  0
    6.3628  -13.6245   26.1954 C   0  0  0  0  0  0  0  0  0  0  0  0
    5.9933  -12.2910   26.3578 C   0  0  0  0  0  0  0  0  0  0  0  0
    6.9596  -11.3331   26.5744 C   0  0  0  0  0  0  0  0  0  0  0  0
    8.3006  -11.6525   26.6376 C   0  0  0  0  0  0  0  0  0  0  0  0
    8.6531  -12.9973   26.4720 C   0  0  0  0  0  0  0  0  0  0  0  0
    7.6951  -13.9603   26.2545 C   0  0  0  0  0  0  0  0  0  0  0  0
   10.8591  -17.1433   24.7455 C   0  0  0  0  0  0  0  0  0  0  0  0
   10.4842  -18.3609   24.6061 O   0  0  0  0  0  0  0  0  0  0  0  0
   12.3196  -15.1837   18.9939 N   0  0  0  0  0  0  0  0  0  0  0  0
   13.6353  -14.8335   19.3873 C   0  0  0  0  0  0  0  0  0  0  0  0
   14.1722  -13.7684   18.9226 N   0  0  0  0  0  0  0  0  0  0  0  0
   14.3861  -15.6316   20.2891 N   0  0  0  0  0  0  0  0  0  0  0  0
   13.8157  -16.8486   20.7899 C   0  0  0  0  0  0  0  0  0  0  0  0
   13.7423  -16.7333   22.3105 C   0  0  0  0  0  0  0  0  0  0  0  0
   13.1458  -17.9643   22.9225 C   0  0  0  0  0  0  0  0  0  0  0  0
   13.1750  -17.8832   24.4084 C   0  0  2  0  0  0  0  0  0  0  0  0
   12.2405  -16.8515   24.8875 N   0  0  0  0  0  0  0  0  0  0  0  0
   14.5094  -17.4344   24.8725 C   0  0  0  0  0  0  0  0  0  0  0  0
   14.7194  -16.3609   25.5001 O   0  0  0  0  0  0  0  0  0  0  0  0
   15.6464  -18.2217   24.6215 O   0  0  0  0  0  0  0  0  0  0  0  0
  2  3  1  0
  2  1  1  0
  3  4  1  0
  4  5  1  0
  5  7  1  0
  5  6  1  1
  7  8  2  0
  9 10  1  0
  9  7  1  0
 10 21  1  0
 10 11  1  1
 12 11  1  0
 12 13  2  0
 14 13  1  0
 15 14  1  0
 16 15  2  0
 17 16  1  0
 18 17  2  0
 18 19  1  0
 19 20  2  0
 20 15  1  0
 20 12  1  0
 21 31  1  0
 22 21  2  0
 23 24  1  0
 24 25  2  0
 24 26  1  0
 26 27  1  0
 27 28  1  0
 29 28  1  0
 30 29  1  6
 31 30  1  0
 32 30  1  0
 33 32  2  0
 34 32  1  0
M  END
$$$$
