MWR.pdb
     RDKit          3D

 34 35  0  0  1  0  0  0  0  0999 V2000
    7.3071  -12.6261   17.6870 C   0  0  0  0  0  0  0  0  0  0  0  0
    7.7938  -12.7612   19.4239 S   0  0  0  0  0  0  0  0  0  0  0  0
    7.6352  -14.5107   19.9031 C   0  0  0  0  0  0  0  0  0  0  0  0
    7.8196  -14.5760   21.3935 C   0  0  0  0  0  0  0  0  0  0  0  0
    7.7545  -15.9804   21.9332 C   0  0  2  0  0  0  0  0  0  0  0  0
    6.4238  -16.5362   21.5801 N   0  0  0  0  0  0  0  0  0  0  0  0
    7.8088  -16.0568   23.4139 C   0  0  0  0  0  0  0  0  0  0  0  0
    7.2302  -15.2019   24.1455 O   0  0  0  0  0  0  0  0  0  0  0  0
    8.4949  -17.0719   24.1200 N   0  0  0  0  0  0  0  0  0  0  0  0
    9.0880  -17.0145   25.3865 C   0  0  1  0  0  0  0  0  0  0  0  0
    8.3169  -16.5019   26.5597 C   0  0  0  0  0  0  0  0  0  0  0  0
    7.3849  -15.3864   26.2254 C   0  0  0  0  0  0  0  0  0  0  0  0
    6.1015  -15.4016   25.7382 C   0  0  0  0  0  0  0  0  0  0  0  0
    5.6168  -14.1412   25.5863 N   0  0  0  0  0  0  0  0  0  0  0  0
    6.5764  -13.2872   25.9730 C   0  0  0  0  0  0  0  0  0  0  0  0
    6.6273  -11.8961   26.0327 C   0  0  0  0  0  0  0  0  0  0  0  0
    7.7675  -11.2705   26.4874 C   0  0  0  0  0  0  0  0  0  0  0  0
    8.8774  -11.9834   26.8922 C   0  0  0  0  0  0  0  0  0  0  0  0
    8.8081  -13.3802   26.8250 C   0  0  0  0  0  0  0  0  0  0  0  0
    7.6741  -14.0134   26.3716 C   0  0  0  0  0  0  0  0  0  0  0  0
    9.8035  -18.2433   25.7441 C   0  0  0  0  0  0  0  0  0  0  0  0
    9.9946  -18.4343   26.9970 O   0  0  0  0  0  0  0  0  0  0  0  0
   13.6592  -16.1458   19.7838 N   0  0  0  0  0  0  0  0  0  0  0  0
   13.2577  -17.3883   19.2328 C   0  0  0  0  0  0  0  0  0  0  0  0
   13.8639  -17.8497   18.2041 N   0  0  0  0  0  0  0  0  0  0  0  0
   12.1952  -18.1472   19.7889 N   0  0  0  0  0  0  0  0  0  0  0  0
   11.5678  -17.6944   20.9966 C   0  0  0  0  0  0  0  0  0  0  0  0
   12.4137  -18.1851   22.1691 C   0  0  0  0  0  0  0  0  0  0  0  0
   11.7850  -17.8285   23.4819 C   0  0  0  0  0  0  0  0  0  0  0  0
   11.6690  -19.0279   24.3555 C   0  0  2  0  0  0  0  0  0  0  0  0
   10.2804  -19.2015   24.8124 N   0  0  0  0  0  0  0  0  0  0  0  0
   12.4580  -18.8383   25.5962 C   0  0  0  0  0  0  0  0  0  0  0  0
   12.2019  -17.9713   26.4754 O   0  0  0  0  0  0  0  0  0  0  0  0
   13.5734  -19.6532   25.8557 O   0  0  0  0  0  0  0  0  0  0  0  0
  2  3  1  0
  2  1  1  0
  3  4  1  0
  4  5  1  0
  5  7  1  0
  5  6  1  1
  7  8  2  0
  9 10  1  0
  9  7  1  0
 10 21  1  0
 10 11  1  1
 12 11  1  0
 12 13  2  0
 14 13  1  0
 15 14  1  0
 16 15  2  0
 17 16  1  0
 18 17  2  0
 18 19  1  0
 19 20  2  0
 20 15  1  0
 20 12  1  0
 21 31  1  0
 22 21  2  0
 23 24  1  0
 24 25  2  0
 24 26  1  0
 26 27  1  0
 27 28  1  0
 29 28  1  0
 30 29  1  6
 31 30  1  0
 32 30  1  0
 33 32  2  0
 34 32  1  0
M  END
$$$$
