MWR.pdb
     RDKit          3D

 34 35  0  0  1  0  0  0  0  0999 V2000
    2.7166  -18.2920   19.4988 C   0  0  0  0  0  0  0  0  0  0  0  0
    4.1438  -17.8785   20.5303 S   0  0  0  0  0  0  0  0  0  0  0  0
    5.5471  -18.8852   19.9535 C   0  0  0  0  0  0  0  0  0  0  0  0
    6.7203  -18.5457   20.8297 C   0  0  0  0  0  0  0  0  0  0  0  0
    7.2724  -17.1696   20.5662 C   0  0  2  0  0  0  0  0  0  0  0  0
    7.7903  -17.1521   19.1748 N   0  0  0  0  0  0  0  0  0  0  0  0
    8.4467  -16.8239   21.4047 C   0  0  0  0  0  0  0  0  0  0  0  0
    9.6027  -17.2680   21.1453 O   0  0  0  0  0  0  0  0  0  0  0  0
    8.3769  -15.9840   22.5401 N   0  0  0  0  0  0  0  0  0  0  0  0
    9.3022  -15.8318   23.5793 C   0  0  1  0  0  0  0  0  0  0  0  0
    9.2370  -14.6418   24.4811 C   0  0  0  0  0  0  0  0  0  0  0  0
    7.8675  -14.3524   24.9963 C   0  0  0  0  0  0  0  0  0  0  0  0
    6.7812  -15.1726   25.1746 C   0  0  0  0  0  0  0  0  0  0  0  0
    5.7241  -14.4872   25.6839 N   0  0  0  0  0  0  0  0  0  0  0  0
    6.1065  -13.2115   25.8455 C   0  0  0  0  0  0  0  0  0  0  0  0
    5.4421  -12.0859   26.3281 C   0  0  0  0  0  0  0  0  0  0  0  0
    6.0980  -10.8759   26.3886 C   0  0  0  0  0  0  0  0  0  0  0  0
    7.4095  -10.7371   25.9824 C   0  0  0  0  0  0  0  0  0  0  0  0
    8.0609  -11.8788   25.5003 C   0  0  0  0  0  0  0  0  0  0  0  0
    7.4136  -13.0909   25.4356 C   0  0  0  0  0  0  0  0  0  0  0  0
    9.4951  -17.0557   24.3631 C   0  0  0  0  0  0  0  0  0  0  0  0
    8.9695  -18.1191   23.8776 O   0  0  0  0  0  0  0  0  0  0  0  0
   16.6113  -19.8129   23.4116 N   0  0  0  0  0  0  0  0  0  0  0  0
   15.6738  -20.7082   22.8387 C   0  0  0  0  0  0  0  0  0  0  0  0
   16.0481  -21.8841   22.4986 N   0  0  0  0  0  0  0  0  0  0  0  0
   14.3191  -20.3419   22.6274 N   0  0  0  0  0  0  0  0  0  0  0  0
   13.8680  -19.0488   23.0538 C   0  0  0  0  0  0  0  0  0  0  0  0
   12.8015  -19.2614   24.1252 C   0  0  0  0  0  0  0  0  0  0  0  0
   12.2990  -17.9551   24.6611 C   0  0  0  0  0  0  0  0  0  0  0  0
   11.2371  -18.1754   25.6806 C   0  0  2  0  0  0  0  0  0  0  0  0
   10.2075  -17.1274   25.5882 N   0  0  0  0  0  0  0  0  0  0  0  0
   11.7990  -18.0390   27.0456 C   0  0  0  0  0  0  0  0  0  0  0  0
   12.1961  -16.9512   27.5450 O   0  0  0  0  0  0  0  0  0  0  0  0
   11.9174  -19.1662   27.8769 O   0  0  0  0  0  0  0  0  0  0  0  0
  2  3  1  0
  2  1  1  0
  3  4  1  0
  4  5  1  0
  5  7  1  0
  5  6  1  6
  7  8  2  0
  9 10  1  0
  9  7  1  0
 10 21  1  0
 10 11  1  1
 12 11  1  0
 12 13  2  0
 14 13  1  0
 15 14  1  0
 16 15  2  0
 17 16  1  0
 18 17  2  0
 18 19  1  0
 19 20  2  0
 20 15  1  0
 20 12  1  0
 21 31  1  0
 22 21  2  0
 23 24  1  0
 24 25  2  0
 24 26  1  0
 26 27  1  0
 27 28  1  0
 29 28  1  0
 30 29  1  6
 31 30  1  0
 32 30  1  0
 33 32  2  0
 34 32  1  0
M  END
$$$$
