MWR.pdb
     RDKit          3D

 34 35  0  0  1  0  0  0  0  0999 V2000
    8.6638  -12.5354   18.3690 C   0  0  0  0  0  0  0  0  0  0  0  0
    7.0363  -13.2219   17.9794 S   0  0  0  0  0  0  0  0  0  0  0  0
    6.8077  -14.7075   19.0071 C   0  0  0  0  0  0  0  0  0  0  0  0
    7.7538  -14.5873   20.1689 C   0  0  0  0  0  0  0  0  0  0  0  0
    7.7557  -15.8054   21.0544 C   0  0  2  0  0  0  0  0  0  0  0  0
    6.3558  -16.2899   21.1550 N   0  0  0  0  0  0  0  0  0  0  0  0
    8.1548  -15.5272   22.4561 C   0  0  0  0  0  0  0  0  0  0  0  0
    8.0467  -14.3723   22.9614 O   0  0  0  0  0  0  0  0  0  0  0  0
    8.6767  -16.5086   23.3301 N   0  0  0  0  0  0  0  0  0  0  0  0
    9.5582  -16.3487   24.4055 C   0  0  1  0  0  0  0  0  0  0  0  0
    9.0358  -16.2442   25.8019 C   0  0  0  0  0  0  0  0  0  0  0  0
    7.8453  -15.3554   25.9333 C   0  0  0  0  0  0  0  0  0  0  0  0
    6.5025  -15.6361   25.8801 C   0  0  0  0  0  0  0  0  0  0  0  0
    5.7567  -14.5146   26.0607 N   0  0  0  0  0  0  0  0  0  0  0  0
    6.6023  -13.4878   26.2350 C   0  0  0  0  0  0  0  0  0  0  0  0
    6.3951  -12.1289   26.4624 C   0  0  0  0  0  0  0  0  0  0  0  0
    7.4748  -11.2864   26.6127 C   0  0  0  0  0  0  0  0  0  0  0  0
    8.7736  -11.7476   26.5454 C   0  0  0  0  0  0  0  0  0  0  0  0
    8.9624  -13.1159   26.3161 C   0  0  0  0  0  0  0  0  0  0  0  0
    7.8903  -13.9643   26.1640 C   0  0  0  0  0  0  0  0  0  0  0  0
   10.7006  -17.2664   24.3558 C   0  0  0  0  0  0  0  0  0  0  0  0
   10.4168  -18.5153   24.4036 O   0  0  0  0  0  0  0  0  0  0  0  0
   15.9524  -14.5136   19.6705 N   0  0  0  0  0  0  0  0  0  0  0  0
   14.5709  -14.4092   19.9694 C   0  0  0  0  0  0  0  0  0  0  0  0
   13.8931  -13.4320   19.4958 N   0  0  0  0  0  0  0  0  0  0  0  0
   13.9058  -15.3618   20.7844 N   0  0  0  0  0  0  0  0  0  0  0  0
   14.2897  -16.7415   20.7057 C   0  0  0  0  0  0  0  0  0  0  0  0
   13.4218  -17.5199   21.6913 C   0  0  0  0  0  0  0  0  0  0  0  0
   14.0488  -17.5659   23.0518 C   0  0  0  0  0  0  0  0  0  0  0  0
   13.0447  -17.9414   24.0842 C   0  0  2  0  0  0  0  0  0  0  0  0
   12.0579  -16.8634   24.2607 N   0  0  0  0  0  0  0  0  0  0  0  0
   13.6967  -18.0822   25.4081 C   0  0  0  0  0  0  0  0  0  0  0  0
   13.5154  -17.2952   26.3766 O   0  0  0  0  0  0  0  0  0  0  0  0
   14.5830  -19.1460   25.6495 O   0  0  0  0  0  0  0  0  0  0  0  0
  2  3  1  0
  2  1  1  0
  3  4  1  0
  4  5  1  0
  5  7  1  0
  5  6  1  1
  7  8  2  0
  9 10  1  0
  9  7  1  0
 10 21  1  0
 10 11  1  1
 12 11  1  0
 12 13  2  0
 14 13  1  0
 15 14  1  0
 16 15  2  0
 17 16  1  0
 18 17  2  0
 18 19  1  0
 19 20  2  0
 20 15  1  0
 20 12  1  0
 21 31  1  0
 22 21  2  0
 23 24  1  0
 24 25  2  0
 24 26  1  0
 26 27  1  0
 27 28  1  0
 29 28  1  0
 30 29  1  6
 31 30  1  0
 32 30  1  0
 33 32  2  0
 34 32  1  0
M  END
$$$$
