LYV.pdb
     RDKit          3D

 28 28  0  0  1  0  0  0  0  0999 V2000
    8.1819  -20.6660   19.0469 C   0  0  0  0  0  0  0  0  0  0  0  0
    7.6561  -19.2528   19.1604 C   0  0  1  0  0  0  0  0  0  0  0  0
    6.1661  -19.2153   19.2482 C   0  0  0  0  0  0  0  0  0  0  0  0
    8.2948  -18.4780   20.2613 C   0  0  0  0  0  0  0  0  0  0  0  0
    7.7357  -17.0969   20.4427 C   0  0  2  0  0  0  0  0  0  0  0  0
    8.0403  -16.2586   19.3005 N   0  0  0  0  0  0  0  0  0  0  0  0
    8.2937  -16.4561   21.6559 C   0  0  0  0  0  0  0  0  0  0  0  0
    9.3989  -15.8684   21.5532 O   0  0  0  0  0  0  0  0  0  0  0  0
    6.4784  -10.3094   26.8506 O   0  0  0  0  0  0  0  0  0  0  0  0
    6.6653  -11.6019   26.3765 C   0  0  0  0  0  0  0  0  0  0  0  0
    7.7848  -11.9641   25.6290 C   0  0  0  0  0  0  0  0  0  0  0  0
    7.9172  -13.2660   25.1835 C   0  0  0  0  0  0  0  0  0  0  0  0
    6.9740  -14.2296   25.4537 C   0  0  0  0  0  0  0  0  0  0  0  0
    7.0800  -15.6064   25.0025 C   0  0  0  0  0  0  0  0  0  0  0  0
    8.2228  -15.9681   24.1239 C   0  0  2  0  0  0  0  0  0  0  0  0
    7.5964  -16.5092   22.8896 N   0  0  0  0  0  0  0  0  0  0  0  0
    9.1019  -17.0349   24.6340 C   0  0  0  0  0  0  0  0  0  0  0  0
    8.6553  -18.2341   24.7177 O   0  0  0  0  0  0  0  0  0  0  0  0
    5.8768  -13.8314   26.1986 C   0  0  0  0  0  0  0  0  0  0  0  0
    5.7080  -12.5443   26.6608 C   0  0  0  0  0  0  0  0  0  0  0  0
   13.4622  -19.0590   25.3856 C   0  0  0  0  0  0  0  0  0  0  0  0
   12.6992  -17.8148   25.0278 C   0  0  1  0  0  0  0  0  0  0  0  0
   12.6582  -17.7532   23.4954 C   0  0  0  0  0  0  0  0  0  0  0  0
   11.2523  -18.0183   25.4629 C   0  0  2  0  0  0  0  0  0  0  0  0
   10.4454  -16.8722   25.0550 N   0  0  0  0  0  0  0  0  0  0  0  0
   11.1439  -18.3417   26.8839 C   0  0  0  0  0  0  0  0  0  0  0  0
   11.3376  -19.6094   27.4028 O   0  0  0  0  0  0  0  0  0  0  0  0
   10.8595  -17.4392   27.7059 O   0  0  0  0  0  0  0  0  0  0  0  0
  2  1  1  1
  2  4  1  0
  3  2  1  0
  5  4  1  0
  5  6  1  6
  7  8  2  0
  7  5  1  0
  9 10  1  0
 10 11  2  0
 11 12  1  0
 13 12  2  0
 13 14  1  0
 15 14  1  1
 15 16  1  0
 16  7  1  0
 17 18  2  0
 17 15  1  0
 19 13  1  0
 20 10  1  0
 20 19  2  0
 22 21  1  6
 23 22  1  0
 24 25  1  1
 24 22  1  0
 25 17  1  0
 26 24  1  0
 27 26  1  0
 28 26  2  0
M  END
$$$$
