LYV.pdb
     RDKit          3D

 28 28  0  0  1  0  0  0  0  0999 V2000
    7.7832  -12.2738   18.8911 C   0  0  0  0  0  0  0  0  0  0  0  0
    8.2375  -13.7054   19.0667 C   0  0  1  0  0  0  0  0  0  0  0  0
    9.5385  -13.7945   19.7937 C   0  0  0  0  0  0  0  0  0  0  0  0
    7.1983  -14.5771   19.6834 C   0  0  0  0  0  0  0  0  0  0  0  0
    7.7000  -15.9303   20.0961 C   0  0  2  0  0  0  0  0  0  0  0  0
    7.1702  -16.9667   19.2327 N   0  0  0  0  0  0  0  0  0  0  0  0
    7.3072  -16.2366   21.4909 C   0  0  0  0  0  0  0  0  0  0  0  0
    6.0861  -16.4024   21.7335 O   0  0  0  0  0  0  0  0  0  0  0  0
    8.3599  -19.6963   29.5895 O   0  0  0  0  0  0  0  0  0  0  0  0
    8.4805  -19.2329   28.2853 C   0  0  0  0  0  0  0  0  0  0  0  0
    9.6576  -18.6596   27.8068 C   0  0  0  0  0  0  0  0  0  0  0  0
    9.7193  -18.2160   26.4989 C   0  0  0  0  0  0  0  0  0  0  0  0
    8.6494  -18.3203   25.6413 C   0  0  0  0  0  0  0  0  0  0  0  0
    8.6781  -17.8655   24.2619 C   0  0  0  0  0  0  0  0  0  0  0  0
    7.8768  -16.6659   23.9046 C   0  0  2  0  0  0  0  0  0  0  0  0
    8.2845  -16.3377   22.5135 N   0  0  0  0  0  0  0  0  0  0  0  0
    8.1516  -15.4587   24.7035 C   0  0  0  0  0  0  0  0  0  0  0  0
    9.2901  -14.8782   24.5980 O   0  0  0  0  0  0  0  0  0  0  0  0
    7.4983  -18.8950   26.1533 C   0  0  0  0  0  0  0  0  0  0  0  0
    7.3967  -19.3493   27.4503 C   0  0  0  0  0  0  0  0  0  0  0  0
    6.9069  -11.7186   27.6336 C   0  0  0  0  0  0  0  0  0  0  0  0
    6.4366  -12.9773   26.9608 C   0  0  1  0  0  0  0  0  0  0  0  0
    5.6446  -12.5402   25.7217 C   0  0  0  0  0  0  0  0  0  0  0  0
    7.6656  -13.6999   26.4206 C   0  0  2  0  0  0  0  0  0  0  0  0
    7.2536  -14.8420   25.6101 N   0  0  0  0  0  0  0  0  0  0  0  0
    8.6160  -14.0377   27.4780 C   0  0  0  0  0  0  0  0  0  0  0  0
    9.7118  -13.2599   27.8069 O   0  0  0  0  0  0  0  0  0  0  0  0
    8.4565  -15.0877   28.1437 O   0  0  0  0  0  0  0  0  0  0  0  0
  2  1  1  1
  2  4  1  0
  3  2  1  0
  5  4  1  0
  5  6  1  6
  7  8  2  0
  7  5  1  0
  9 10  1  0
 10 11  2  0
 11 12  1  0
 13 12  2  0
 13 14  1  0
 15 14  1  1
 15 16  1  0
 16  7  1  0
 17 18  2  0
 17 15  1  0
 19 13  1  0
 20 10  1  0
 20 19  2  0
 22 21  1  6
 23 22  1  0
 24 25  1  1
 24 22  1  0
 25 17  1  0
 26 24  1  0
 27 26  1  0
 28 26  2  0
M  END
$$$$
