LYV.pdb
     RDKit          3D

 28 28  0  0  1  0  0  0  0  0999 V2000
    7.5371  -12.2348   19.1405 C   0  0  0  0  0  0  0  0  0  0  0  0
    7.9813  -13.6762   19.2484 C   0  0  1  0  0  0  0  0  0  0  0  0
    9.2894  -13.8073   19.9561 C   0  0  0  0  0  0  0  0  0  0  0  0
    6.9417  -14.5658   19.8381 C   0  0  0  0  0  0  0  0  0  0  0  0
    7.4560  -15.9098   20.2650 C   0  0  2  0  0  0  0  0  0  0  0  0
    6.8834  -16.9666   19.4552 N   0  0  0  0  0  0  0  0  0  0  0  0
    7.1254  -16.1758   21.6840 C   0  0  0  0  0  0  0  0  0  0  0  0
    5.9120  -16.2513   21.9994 O   0  0  0  0  0  0  0  0  0  0  0  0
    8.3242  -19.5860   29.7998 O   0  0  0  0  0  0  0  0  0  0  0  0
    8.3107  -19.1601   28.4774 C   0  0  0  0  0  0  0  0  0  0  0  0
    7.1263  -19.0097   27.7578 C   0  0  0  0  0  0  0  0  0  0  0  0
    7.1744  -18.5824   26.4439 C   0  0  0  0  0  0  0  0  0  0  0  0
    8.3619  -18.2965   25.8121 C   0  0  0  0  0  0  0  0  0  0  0  0
    8.4505  -17.8455   24.4340 C   0  0  0  0  0  0  0  0  0  0  0  0
    7.8040  -16.5557   24.0777 C   0  0  2  0  0  0  0  0  0  0  0  0
    8.1516  -16.3387   22.6490 N   0  0  0  0  0  0  0  0  0  0  0  0
    8.3050  -15.3739   24.8012 C   0  0  0  0  0  0  0  0  0  0  0  0
    9.4999  -14.9617   24.5850 O   0  0  0  0  0  0  0  0  0  0  0  0
    9.5163  -18.4580   26.5597 C   0  0  0  0  0  0  0  0  0  0  0  0
    9.5106  -18.8815   27.8709 C   0  0  0  0  0  0  0  0  0  0  0  0
    6.9653  -11.9317   25.0536 C   0  0  0  0  0  0  0  0  0  0  0  0
    7.2607  -12.3004   26.4800 C   0  0  1  0  0  0  0  0  0  0  0  0
    5.9471  -12.8213   27.0775 C   0  0  0  0  0  0  0  0  0  0  0  0
    8.2005  -13.5008   26.4622 C   0  0  2  0  0  0  0  0  0  0  0  0
    7.5762  -14.6093   25.7462 N   0  0  0  0  0  0  0  0  0  0  0  0
    8.6720  -13.8522   27.8000 C   0  0  0  0  0  0  0  0  0  0  0  0
    9.5625  -13.0850   28.5296 O   0  0  0  0  0  0  0  0  0  0  0  0
    8.2641  -14.9044   28.3454 O   0  0  0  0  0  0  0  0  0  0  0  0
  2  1  1  1
  2  4  1  0
  3  2  1  0
  5  4  1  0
  5  6  1  6
  7  8  2  0
  7  5  1  0
  9 10  1  0
 10 11  2  0
 11 12  1  0
 13 12  2  0
 13 14  1  0
 15 14  1  1
 15 16  1  0
 16  7  1  0
 17 18  2  0
 17 15  1  0
 19 13  1  0
 20 10  1  0
 20 19  2  0
 22 21  1  6
 23 22  1  0
 24 25  1  1
 24 22  1  0
 25 17  1  0
 26 24  1  0
 27 26  1  0
 28 26  2  0
M  END
$$$$
