LYV.pdb
     RDKit          3D

 28 28  0  0  1  0  0  0  0  0999 V2000
    7.6818  -13.6914   17.6549 C   0  0  0  0  0  0  0  0  0  0  0  0
    8.4585  -14.8893   18.1529 C   0  0  1  0  0  0  0  0  0  0  0  0
    9.0688  -15.6657   17.0331 C   0  0  0  0  0  0  0  0  0  0  0  0
    9.4631  -14.5419   19.1971 C   0  0  0  0  0  0  0  0  0  0  0  0
    9.7442  -15.6502   20.1695 C   0  0  2  0  0  0  0  0  0  0  0  0
    8.7249  -16.6778   20.0954 N   0  0  0  0  0  0  0  0  0  0  0  0
    9.7906  -15.1360   21.5577 C   0  0  0  0  0  0  0  0  0  0  0  0
   10.7132  -14.3382   21.8572 O   0  0  0  0  0  0  0  0  0  0  0  0
    5.0959  -11.3492   28.0125 O   0  0  0  0  0  0  0  0  0  0  0  0
    5.6147  -12.1071   26.9701 C   0  0  0  0  0  0  0  0  0  0  0  0
    6.2329  -11.5248   25.8646 C   0  0  0  0  0  0  0  0  0  0  0  0
    6.7308  -12.3298   24.8571 C   0  0  0  0  0  0  0  0  0  0  0  0
    6.6380  -13.7010   24.9050 C   0  0  0  0  0  0  0  0  0  0  0  0
    7.1496  -14.5777   23.8657 C   0  0  0  0  0  0  0  0  0  0  0  0
    8.6223  -14.7417   23.7518 C   0  0  2  0  0  0  0  0  0  0  0  0
    8.8210  -15.5366   22.5118 N   0  0  0  0  0  0  0  0  0  0  0  0
    9.2602  -15.5117   24.8340 C   0  0  0  0  0  0  0  0  0  0  0  0
    9.8055  -16.6414   24.5676 O   0  0  0  0  0  0  0  0  0  0  0  0
    6.0176  -14.2418   26.0186 C   0  0  0  0  0  0  0  0  0  0  0  0
    5.5085  -13.4741   27.0435 C   0  0  0  0  0  0  0  0  0  0  0  0
   11.2740  -15.8086   29.3184 C   0  0  0  0  0  0  0  0  0  0  0  0
   10.2871  -15.0846   28.4467 C   0  0  1  0  0  0  0  0  0  0  0  0
   10.9450  -13.7558   28.0527 C   0  0  0  0  0  0  0  0  0  0  0  0
   10.1542  -15.8706   27.1471 C   0  0  2  0  0  0  0  0  0  0  0  0
    9.3434  -15.1194   26.1934 N   0  0  0  0  0  0  0  0  0  0  0  0
    9.6863  -17.2363   27.3738 C   0  0  0  0  0  0  0  0  0  0  0  0
   10.5228  -18.2996   27.6630 O   0  0  0  0  0  0  0  0  0  0  0  0
    8.4609  -17.4915   27.3090 O   0  0  0  0  0  0  0  0  0  0  0  0
  2  1  1  6
  2  4  1  0
  3  2  1  0
  5  4  1  0
  5  6  1  1
  7  8  2  0
  7  5  1  0
  9 10  1  0
 10 11  2  0
 11 12  1  0
 13 12  2  0
 13 14  1  0
 15 14  1  1
 15 16  1  0
 16  7  1  0
 17 18  2  0
 17 15  1  0
 19 13  1  0
 20 10  1  0
 20 19  2  0
 22 21  1  1
 23 22  1  0
 24 25  1  6
 24 22  1  0
 25 17  1  0
 26 24  1  0
 27 26  1  0
 28 26  2  0
M  END
$$$$
