LYV.pdb
     RDKit          3D

 28 28  0  0  1  0  0  0  0  0999 V2000
    7.7332  -12.4120   18.8646 C   0  0  0  0  0  0  0  0  0  0  0  0
    7.9237  -13.8977   19.0710 C   0  0  1  0  0  0  0  0  0  0  0  0
    9.3672  -14.2773   19.1064 C   0  0  0  0  0  0  0  0  0  0  0  0
    7.1843  -14.4234   20.2529 C   0  0  0  0  0  0  0  0  0  0  0  0
    7.4288  -15.8781   20.5312 C   0  0  2  0  0  0  0  0  0  0  0  0
    6.5572  -16.7142   19.7302 N   0  0  0  0  0  0  0  0  0  0  0  0
    7.1934  -16.1896   21.9599 C   0  0  0  0  0  0  0  0  0  0  0  0
    6.0105  -16.1555   22.3805 O   0  0  0  0  0  0  0  0  0  0  0  0
    9.0001  -19.4023   30.0671 O   0  0  0  0  0  0  0  0  0  0  0  0
    9.0349  -18.9989   28.7381 C   0  0  0  0  0  0  0  0  0  0  0  0
   10.1692  -18.4255   28.1655 C   0  0  0  0  0  0  0  0  0  0  0  0
   10.1454  -18.0432   26.8372 C   0  0  0  0  0  0  0  0  0  0  0  0
    9.0305  -18.2094   26.0494 C   0  0  0  0  0  0  0  0  0  0  0  0
    8.9694  -17.8200   24.6512 C   0  0  0  0  0  0  0  0  0  0  0  0
    8.0352  -16.7290   24.2696 C   0  0  2  0  0  0  0  0  0  0  0  0
    8.2742  -16.5148   22.8184 N   0  0  0  0  0  0  0  0  0  0  0  0
    8.2806  -15.4285   24.9175 C   0  0  0  0  0  0  0  0  0  0  0  0
    9.2939  -14.7277   24.5617 O   0  0  0  0  0  0  0  0  0  0  0  0
    7.9242  -18.7821   26.6540 C   0  0  0  0  0  0  0  0  0  0  0  0
    7.9078  -19.1764   27.9742 C   0  0  0  0  0  0  0  0  0  0  0  0
    7.0235  -11.4741   27.4942 C   0  0  0  0  0  0  0  0  0  0  0  0
    6.5904  -12.7705   26.8700 C   0  0  1  0  0  0  0  0  0  0  0  0
    5.9636  -12.4150   25.5155 C   0  0  0  0  0  0  0  0  0  0  0  0
    7.8476  -13.5663   26.5370 C   0  0  2  0  0  0  0  0  0  0  0  0
    7.4810  -14.8425   25.9304 N   0  0  0  0  0  0  0  0  0  0  0  0
    8.7407  -13.6932   27.6867 C   0  0  0  0  0  0  0  0  0  0  0  0
    9.6116  -12.7008   28.0994 O   0  0  0  0  0  0  0  0  0  0  0  0
    8.7413  -14.7515   28.3583 O   0  0  0  0  0  0  0  0  0  0  0  0
  2  1  1  1
  2  4  1  0
  3  2  1  0
  5  4  1  0
  5  6  1  6
  7  8  2  0
  7  5  1  0
  9 10  1  0
 10 11  2  0
 11 12  1  0
 13 12  2  0
 13 14  1  0
 15 14  1  1
 15 16  1  0
 16  7  1  0
 17 18  2  0
 17 15  1  0
 19 13  1  0
 20 10  1  0
 20 19  2  0
 22 21  1  6
 23 22  1  0
 24 25  1  1
 24 22  1  0
 25 17  1  0
 26 24  1  0
 27 26  1  0
 28 26  2  0
M  END
$$$$
