LYV.pdb
     RDKit          3D

 28 28  0  0  1  0  0  0  0  0999 V2000
    7.4108  -12.1335   19.3429 C   0  0  0  0  0  0  0  0  0  0  0  0
    8.0780  -13.4773   19.5315 C   0  0  1  0  0  0  0  0  0  0  0  0
    9.5484  -13.4121   19.2814 C   0  0  0  0  0  0  0  0  0  0  0  0
    7.7679  -14.1046   20.8470 C   0  0  0  0  0  0  0  0  0  0  0  0
    8.4081  -15.4467   21.0517 C   0  0  2  0  0  0  0  0  0  0  0  0
    7.7714  -16.4571   20.2308 N   0  0  0  0  0  0  0  0  0  0  0  0
    8.3132  -15.8667   22.4689 C   0  0  0  0  0  0  0  0  0  0  0  0
    7.2463  -16.4090   22.8498 O   0  0  0  0  0  0  0  0  0  0  0  0
   11.4435  -16.9539   30.8394 O   0  0  0  0  0  0  0  0  0  0  0  0
   11.2243  -16.7453   29.4835 C   0  0  0  0  0  0  0  0  0  0  0  0
   10.6409  -17.7136   28.6679 C   0  0  0  0  0  0  0  0  0  0  0  0
   10.4474  -17.4498   27.3248 C   0  0  0  0  0  0  0  0  0  0  0  0
   10.8136  -16.2527   26.7557 C   0  0  0  0  0  0  0  0  0  0  0  0
   10.6256  -15.9408   25.3493 C   0  0  0  0  0  0  0  0  0  0  0  0
    9.2429  -15.9711   24.8054 C   0  0  2  0  0  0  0  0  0  0  0  0
    9.3965  -15.6595   23.3603 N   0  0  0  0  0  0  0  0  0  0  0  0
    8.3265  -14.9512   25.3452 C   0  0  0  0  0  0  0  0  0  0  0  0
    7.2639  -15.3205   25.9608 O   0  0  0  0  0  0  0  0  0  0  0  0
   11.3898  -15.3166   27.5978 C   0  0  0  0  0  0  0  0  0  0  0  0
   11.5995  -15.5409   28.9411 C   0  0  0  0  0  0  0  0  0  0  0  0
    5.5068  -11.4557   26.0260 C   0  0  0  0  0  0  0  0  0  0  0  0
    6.2645  -12.5763   25.3715 C   0  0  1  0  0  0  0  0  0  0  0  0
    6.5020  -12.1514   23.9165 C   0  0  0  0  0  0  0  0  0  0  0  0
    7.6491  -12.6316   26.0074 C   0  0  2  0  0  0  0  0  0  0  0  0
    8.5033  -13.5478   25.2577 N   0  0  0  0  0  0  0  0  0  0  0  0
    7.5875  -12.9186   27.4389 C   0  0  0  0  0  0  0  0  0  0  0  0
    7.3203  -11.9656   28.4054 O   0  0  0  0  0  0  0  0  0  0  0  0
    7.7844  -14.0874   27.8466 O   0  0  0  0  0  0  0  0  0  0  0  0
  2  1  1  1
  2  4  1  0
  3  2  1  0
  5  4  1  0
  5  6  1  6
  7  8  2  0
  7  5  1  0
  9 10  1  0
 10 11  2  0
 11 12  1  0
 13 12  2  0
 13 14  1  0
 15 14  1  1
 15 16  1  0
 16  7  1  0
 17 18  2  0
 17 15  1  0
 19 13  1  0
 20 10  1  0
 20 19  2  0
 22 21  1  1
 23 22  1  0
 24 25  1  6
 24 22  1  0
 25 17  1  0
 26 24  1  0
 27 26  1  0
 28 26  2  0
M  END
$$$$
