LYV.pdb
     RDKit          3D

 28 28  0  0  1  0  0  0  0  0999 V2000
   12.5246  -21.5796   21.8898 C   0  0  0  0  0  0  0  0  0  0  0  0
   11.9387  -20.4042   21.1403 C   0  0  1  0  0  0  0  0  0  0  0  0
   10.5832  -20.7086   20.5934 C   0  0  0  0  0  0  0  0  0  0  0  0
   11.9446  -19.1431   21.9338 C   0  0  0  0  0  0  0  0  0  0  0  0
   11.2211  -18.0032   21.2777 C   0  0  2  0  0  0  0  0  0  0  0  0
   11.9868  -17.4712   20.1683 N   0  0  0  0  0  0  0  0  0  0  0  0
   10.9739  -16.9082   22.2439 C   0  0  0  0  0  0  0  0  0  0  0  0
   11.8448  -16.0092   22.3470 O   0  0  0  0  0  0  0  0  0  0  0  0
    6.9085  -13.0718   18.5517 O   0  0  0  0  0  0  0  0  0  0  0  0
    7.1652  -13.6787   19.7748 C   0  0  0  0  0  0  0  0  0  0  0  0
    6.6553  -14.9341   20.1025 C   0  0  0  0  0  0  0  0  0  0  0  0
    6.9442  -15.4886   21.3354 C   0  0  0  0  0  0  0  0  0  0  0  0
    7.7256  -14.8401   22.2626 C   0  0  0  0  0  0  0  0  0  0  0  0
    8.0499  -15.3919   23.5668 C   0  0  0  0  0  0  0  0  0  0  0  0
    9.4740  -15.6974   23.8621 C   0  0  2  0  0  0  0  0  0  0  0  0
    9.7897  -16.8832   23.0237 N   0  0  0  0  0  0  0  0  0  0  0  0
    9.7625  -16.0944   25.2515 C   0  0  0  0  0  0  0  0  0  0  0  0
    9.9220  -17.3353   25.5327 O   0  0  0  0  0  0  0  0  0  0  0  0
    8.2134  -13.5957   21.9005 C   0  0  0  0  0  0  0  0  0  0  0  0
    7.9484  -13.0090   20.6822 C   0  0  0  0  0  0  0  0  0  0  0  0
   10.9120  -13.3677   28.0591 C   0  0  0  0  0  0  0  0  0  0  0  0
   10.2640  -14.5716   28.6828 C   0  0  1  0  0  0  0  0  0  0  0  0
    8.7757  -14.2339   28.8401 C   0  0  0  0  0  0  0  0  0  0  0  0
   10.3158  -15.7046   27.6640 C   0  0  2  0  0  0  0  0  0  0  0  0
    9.8926  -15.2151   26.3554 N   0  0  0  0  0  0  0  0  0  0  0  0
    9.5867  -16.8873   28.1167 C   0  0  0  0  0  0  0  0  0  0  0  0
   10.0388  -17.7385   29.1092 O   0  0  0  0  0  0  0  0  0  0  0  0
    8.4841  -17.1744   27.5944 O   0  0  0  0  0  0  0  0  0  0  0  0
  2  1  1  1
  2  4  1  0
  3  2  1  0
  5  4  1  0
  5  6  1  6
  7  8  2  0
  7  5  1  0
  9 10  1  0
 10 11  2  0
 11 12  1  0
 13 12  2  0
 13 14  1  0
 15 14  1  1
 15 16  1  0
 16  7  1  0
 17 18  2  0
 17 15  1  0
 19 13  1  0
 20 10  1  0
 20 19  2  0
 22 21  1  6
 23 22  1  0
 24 25  1  6
 24 22  1  0
 25 17  1  0
 26 24  1  0
 27 26  1  0
 28 26  2  0
M  END
$$$$
