LYV.pdb
     RDKit          3D

 28 28  0  0  1  0  0  0  0  0999 V2000
    7.9413  -13.0469   16.2106 C   0  0  0  0  0  0  0  0  0  0  0  0
    8.1719  -14.3739   16.8979 C   0  0  1  0  0  0  0  0  0  0  0  0
    8.7137  -15.4026   15.9613 C   0  0  0  0  0  0  0  0  0  0  0  0
    9.0003  -14.2575   18.1309 C   0  0  0  0  0  0  0  0  0  0  0  0
    8.9872  -15.4843   18.9957 C   0  0  2  0  0  0  0  0  0  0  0  0
    7.7059  -16.1576   18.9233 N   0  0  0  0  0  0  0  0  0  0  0  0
    9.2540  -15.1363   20.4104 C   0  0  0  0  0  0  0  0  0  0  0  0
   10.3880  -14.6796   20.6984 O   0  0  0  0  0  0  0  0  0  0  0  0
    6.8762  -12.6112   28.6345 O   0  0  0  0  0  0  0  0  0  0  0  0
    6.9400  -13.0812   27.3287 C   0  0  0  0  0  0  0  0  0  0  0  0
    6.5189  -14.3634   26.9795 C   0  0  0  0  0  0  0  0  0  0  0  0
    6.6062  -14.7767   25.6632 C   0  0  0  0  0  0  0  0  0  0  0  0
    7.0991  -13.9601   24.6727 C   0  0  0  0  0  0  0  0  0  0  0  0
    7.2053  -14.3602   23.2802 C   0  0  0  0  0  0  0  0  0  0  0  0
    8.5100  -14.8873   22.8019 C   0  0  2  0  0  0  0  0  0  0  0  0
    8.2559  -15.3161   21.4017 N   0  0  0  0  0  0  0  0  0  0  0  0
    9.0089  -16.0808   23.5075 C   0  0  0  0  0  0  0  0  0  0  0  0
    8.4818  -17.2242   23.2634 O   0  0  0  0  0  0  0  0  0  0  0  0
    7.5072  -12.6944   25.0587 C   0  0  0  0  0  0  0  0  0  0  0  0
    7.4365  -12.2450   26.3594 C   0  0  0  0  0  0  0  0  0  0  0  0
   12.3644  -18.8978   25.3881 C   0  0  0  0  0  0  0  0  0  0  0  0
   11.9634  -17.6031   24.7391 C   0  0  1  0  0  0  0  0  0  0  0  0
   12.0028  -17.8434   23.2244 C   0  0  0  0  0  0  0  0  0  0  0  0
   10.4962  -17.3545   25.0708 C   0  0  2  0  0  0  0  0  0  0  0  0
   10.0553  -16.1025   24.4631 N   0  0  0  0  0  0  0  0  0  0  0  0
   10.2329  -17.4400   26.5056 C   0  0  0  0  0  0  0  0  0  0  0  0
    9.9338  -16.3482   27.3008 O   0  0  0  0  0  0  0  0  0  0  0  0
   10.2732  -18.5540   27.0788 O   0  0  0  0  0  0  0  0  0  0  0  0
  2  1  1  6
  2  4  1  0
  3  2  1  0
  5  4  1  0
  5  6  1  1
  7  8  2  0
  7  5  1  0
  9 10  1  0
 10 11  2  0
 11 12  1  0
 13 12  2  0
 13 14  1  0
 15 14  1  1
 15 16  1  0
 16  7  1  0
 17 18  2  0
 17 15  1  0
 19 13  1  0
 20 10  1  0
 20 19  2  0
 22 21  1  1
 23 22  1  0
 24 25  1  1
 24 22  1  0
 25 17  1  0
 26 24  1  0
 27 26  1  0
 28 26  2  0
M  END
$$$$
