LYV.pdb
     RDKit          3D

 28 28  0  0  1  0  0  0  0  0999 V2000
    7.1328  -12.2481   19.1258 C   0  0  0  0  0  0  0  0  0  0  0  0
    7.8832  -13.5608   19.1256 C   0  0  1  0  0  0  0  0  0  0  0  0
    9.3245  -13.3816   18.7797 C   0  0  0  0  0  0  0  0  0  0  0  0
    7.7092  -14.3339   20.3874 C   0  0  0  0  0  0  0  0  0  0  0  0
    8.4350  -15.6477   20.4059 C   0  0  2  0  0  0  0  0  0  0  0  0
    7.7979  -16.6059   19.5249 N   0  0  0  0  0  0  0  0  0  0  0  0
    8.4640  -16.2160   21.7733 C   0  0  0  0  0  0  0  0  0  0  0  0
    7.4297  -16.7934   22.1907 O   0  0  0  0  0  0  0  0  0  0  0  0
   11.1117  -22.5597   21.7624 O   0  0  0  0  0  0  0  0  0  0  0  0
   11.0439  -21.3112   22.3681 C   0  0  0  0  0  0  0  0  0  0  0  0
   10.6064  -21.1457   23.6813 C   0  0  0  0  0  0  0  0  0  0  0  0
   10.5599  -19.8783   24.2316 C   0  0  0  0  0  0  0  0  0  0  0  0
   10.9338  -18.7606   23.5232 C   0  0  0  0  0  0  0  0  0  0  0  0
   10.8981  -17.4146   24.0686 C   0  0  0  0  0  0  0  0  0  0  0  0
    9.6278  -16.6507   23.9623 C   0  0  2  0  0  0  0  0  0  0  0  0
    9.6261  -16.1074   22.5789 N   0  0  0  0  0  0  0  0  0  0  0  0
    9.5120  -15.4850   24.8561 C   0  0  0  0  0  0  0  0  0  0  0  0
   10.4408  -14.6007   24.8629 O   0  0  0  0  0  0  0  0  0  0  0  0
   11.3623  -18.9657   22.2225 C   0  0  0  0  0  0  0  0  0  0  0  0
   11.4232  -20.2120   21.6379 C   0  0  0  0  0  0  0  0  0  0  0  0
    7.2335  -12.1799   27.5525 C   0  0  0  0  0  0  0  0  0  0  0  0
    7.1073  -13.4116   26.7008 C   0  0  1  0  0  0  0  0  0  0  0  0
    6.8463  -12.9273   25.2687 C   0  0  0  0  0  0  0  0  0  0  0  0
    8.4743  -14.0853   26.6567 C   0  0  2  0  0  0  0  0  0  0  0  0
    8.4376  -15.2229   25.7424 N   0  0  0  0  0  0  0  0  0  0  0  0
    8.9699  -14.4154   27.9912 C   0  0  0  0  0  0  0  0  0  0  0  0
    9.0237  -15.7019   28.4971 O   0  0  0  0  0  0  0  0  0  0  0  0
    9.3768  -13.5011   28.7459 O   0  0  0  0  0  0  0  0  0  0  0  0
  2  1  1  1
  2  4  1  0
  3  2  1  0
  5  4  1  0
  5  6  1  6
  7  8  2  0
  7  5  1  0
  9 10  1  0
 10 11  2  0
 11 12  1  0
 13 12  2  0
 13 14  1  0
 15 14  1  1
 15 16  1  0
 16  7  1  0
 17 18  2  0
 17 15  1  0
 19 13  1  0
 20 10  1  0
 20 19  2  0
 22 21  1  1
 23 22  1  0
 24 25  1  6
 24 22  1  0
 25 17  1  0
 26 24  1  0
 27 26  1  0
 28 26  2  0
M  END
$$$$
