LYV.pdb
     RDKit          3D

 28 28  0  0  1  0  0  0  0  0999 V2000
    7.6888  -12.5749   18.4623 C   0  0  0  0  0  0  0  0  0  0  0  0
    8.0244  -14.0156   18.7761 C   0  0  1  0  0  0  0  0  0  0  0  0
    9.4853  -14.2109   19.0141 C   0  0  0  0  0  0  0  0  0  0  0  0
    7.2031  -14.5792   19.8842 C   0  0  0  0  0  0  0  0  0  0  0  0
    7.5095  -16.0131   20.2055 C   0  0  2  0  0  0  0  0  0  0  0  0
    6.7666  -16.9095   19.3425 N   0  0  0  0  0  0  0  0  0  0  0  0
    7.1651  -16.3247   21.6119 C   0  0  0  0  0  0  0  0  0  0  0  0
    5.9500  -16.4492   21.9045 O   0  0  0  0  0  0  0  0  0  0  0  0
    8.0698  -19.8663   29.6559 O   0  0  0  0  0  0  0  0  0  0  0  0
    8.2426  -19.3855   28.3639 C   0  0  0  0  0  0  0  0  0  0  0  0
    9.4544  -18.8542   27.9251 C   0  0  0  0  0  0  0  0  0  0  0  0
    9.5676  -18.3906   26.6277 C   0  0  0  0  0  0  0  0  0  0  0  0
    8.5163  -18.4344   25.7423 C   0  0  0  0  0  0  0  0  0  0  0  0
    8.5988  -17.9570   24.3728 C   0  0  0  0  0  0  0  0  0  0  0  0
    7.8172  -16.7475   24.0058 C   0  0  2  0  0  0  0  0  0  0  0  0
    8.1803  -16.4758   22.5904 N   0  0  0  0  0  0  0  0  0  0  0  0
    8.1546  -15.5234   24.7534 C   0  0  0  0  0  0  0  0  0  0  0  0
    9.3081  -14.9858   24.5957 O   0  0  0  0  0  0  0  0  0  0  0  0
    7.3296  -18.9689   26.2152 C   0  0  0  0  0  0  0  0  0  0  0  0
    7.1764  -19.4413   27.5005 C   0  0  0  0  0  0  0  0  0  0  0  0
    7.0929  -11.4849   27.2887 C   0  0  0  0  0  0  0  0  0  0  0  0
    6.5622  -12.7529   26.6816 C   0  0  1  0  0  0  0  0  0  0  0  0
    5.9721  -12.3706   25.3180 C   0  0  0  0  0  0  0  0  0  0  0  0
    7.7545  -13.6501   26.3687 C   0  0  2  0  0  0  0  0  0  0  0  0
    7.3041  -14.8457   25.6623 N   0  0  0  0  0  0  0  0  0  0  0  0
    8.5588  -13.9327   27.5556 C   0  0  0  0  0  0  0  0  0  0  0  0
    8.6046  -15.1664   28.1798 O   0  0  0  0  0  0  0  0  0  0  0  0
    9.2588  -13.0244   28.0616 O   0  0  0  0  0  0  0  0  0  0  0  0
  2  1  1  1
  2  4  1  0
  3  2  1  0
  5  4  1  0
  5  6  1  6
  7  8  2  0
  7  5  1  0
  9 10  1  0
 10 11  2  0
 11 12  1  0
 13 12  2  0
 13 14  1  0
 15 14  1  1
 15 16  1  0
 16  7  1  0
 17 18  2  0
 17 15  1  0
 19 13  1  0
 20 10  1  0
 20 19  2  0
 22 21  1  6
 23 22  1  0
 24 25  1  1
 24 22  1  0
 25 17  1  0
 26 24  1  0
 27 26  1  0
 28 26  2  0
M  END
$$$$
