LYV.pdb
     RDKit          3D

 28 28  0  0  1  0  0  0  0  0999 V2000
    7.3760  -12.4026   19.0138 C   0  0  0  0  0  0  0  0  0  0  0  0
    7.8650  -13.8223   19.1921 C   0  0  1  0  0  0  0  0  0  0  0  0
    9.3422  -13.8836   19.3999 C   0  0  0  0  0  0  0  0  0  0  0  0
    7.1262  -14.5666   20.2506 C   0  0  0  0  0  0  0  0  0  0  0  0
    7.6233  -15.9648   20.4767 C   0  0  2  0  0  0  0  0  0  0  0  0
    6.8930  -16.9143   19.6610 N   0  0  0  0  0  0  0  0  0  0  0  0
    7.4736  -16.3555   21.8974 C   0  0  0  0  0  0  0  0  0  0  0  0
    6.3257  -16.6638   22.3032 O   0  0  0  0  0  0  0  0  0  0  0  0
    9.8265  -19.1925   29.9766 O   0  0  0  0  0  0  0  0  0  0  0  0
    9.7695  -18.7886   28.6485 C   0  0  0  0  0  0  0  0  0  0  0  0
   10.7657  -18.0059   28.0670 C   0  0  0  0  0  0  0  0  0  0  0  0
   10.6554  -17.6340   26.7401 C   0  0  0  0  0  0  0  0  0  0  0  0
    9.5862  -18.0121   25.9623 C   0  0  0  0  0  0  0  0  0  0  0  0
    9.4372  -17.6404   24.5659 C   0  0  0  0  0  0  0  0  0  0  0  0
    8.4086  -16.6255   24.2185 C   0  0  2  0  0  0  0  0  0  0  0  0
    8.5952  -16.3780   22.7649 N   0  0  0  0  0  0  0  0  0  0  0  0
    8.5624  -15.3159   24.8762 C   0  0  0  0  0  0  0  0  0  0  0  0
    9.5490  -14.5616   24.5566 O   0  0  0  0  0  0  0  0  0  0  0  0
    8.6176  -18.7888   26.5755 C   0  0  0  0  0  0  0  0  0  0  0  0
    8.6907  -19.1802   27.8947 C   0  0  0  0  0  0  0  0  0  0  0  0
    6.9910  -11.4011   27.3129 C   0  0  0  0  0  0  0  0  0  0  0  0
    6.6552  -12.7530   26.7490 C   0  0  1  0  0  0  0  0  0  0  0  0
    6.0263  -12.5075   25.3713 C   0  0  0  0  0  0  0  0  0  0  0  0
    7.9677  -13.4770   26.4709 C   0  0  2  0  0  0  0  0  0  0  0  0
    7.6985  -14.7760   25.8614 N   0  0  0  0  0  0  0  0  0  0  0  0
    8.8217  -13.5453   27.6547 C   0  0  0  0  0  0  0  0  0  0  0  0
    9.6347  -12.5096   28.0794 O   0  0  0  0  0  0  0  0  0  0  0  0
    8.8411  -14.5902   28.3467 O   0  0  0  0  0  0  0  0  0  0  0  0
  2  1  1  1
  2  4  1  0
  3  2  1  0
  5  4  1  0
  5  6  1  6
  7  8  2  0
  7  5  1  0
  9 10  1  0
 10 11  2  0
 11 12  1  0
 13 12  2  0
 13 14  1  0
 15 14  1  1
 15 16  1  0
 16  7  1  0
 17 18  2  0
 17 15  1  0
 19 13  1  0
 20 10  1  0
 20 19  2  0
 22 21  1  6
 23 22  1  0
 24 25  1  1
 24 22  1  0
 25 17  1  0
 26 24  1  0
 27 26  1  0
 28 26  2  0
M  END
$$$$
