LYV.pdb
     RDKit          3D

 28 28  0  0  1  0  0  0  0  0999 V2000
    8.2992  -13.4328   16.9709 C   0  0  0  0  0  0  0  0  0  0  0  0
    8.7692  -14.6172   17.7850 C   0  0  1  0  0  0  0  0  0  0  0  0
   10.0367  -15.1969   17.2496 C   0  0  0  0  0  0  0  0  0  0  0  0
    8.8679  -14.3229   19.2423 C   0  0  0  0  0  0  0  0  0  0  0  0
    9.4210  -15.4539   20.0596 C   0  0  2  0  0  0  0  0  0  0  0  0
    8.5439  -16.6067   20.0124 N   0  0  0  0  0  0  0  0  0  0  0  0
    9.5884  -15.0506   21.4749 C   0  0  0  0  0  0  0  0  0  0  0  0
   10.6051  -14.3779   21.7768 O   0  0  0  0  0  0  0  0  0  0  0  0
    5.7186  -11.2421   28.4339 O   0  0  0  0  0  0  0  0  0  0  0  0
    6.0920  -11.9806   27.3179 C   0  0  0  0  0  0  0  0  0  0  0  0
    6.7981  -11.4166   26.2565 C   0  0  0  0  0  0  0  0  0  0  0  0
    7.1428  -12.2008   25.1714 C   0  0  0  0  0  0  0  0  0  0  0  0
    6.8109  -13.5333   25.0988 C   0  0  0  0  0  0  0  0  0  0  0  0
    7.1562  -14.3872   23.9755 C   0  0  0  0  0  0  0  0  0  0  0  0
    8.5900  -14.7140   23.7606 C   0  0  2  0  0  0  0  0  0  0  0  0
    8.6272  -15.4164   22.4513 N   0  0  0  0  0  0  0  0  0  0  0  0
    9.1815  -15.6451   24.7375 C   0  0  0  0  0  0  0  0  0  0  0  0
    9.1560  -16.9056   24.5030 O   0  0  0  0  0  0  0  0  0  0  0  0
    6.1098  -14.0569   26.1721 C   0  0  0  0  0  0  0  0  0  0  0  0
    5.7477  -13.3090   27.2713 C   0  0  0  0  0  0  0  0  0  0  0  0
   12.5418  -14.9128   26.3396 C   0  0  0  0  0  0  0  0  0  0  0  0
   11.7416  -15.5927   27.4146 C   0  0  1  0  0  0  0  0  0  0  0  0
   11.1499  -14.4793   28.2887 C   0  0  0  0  0  0  0  0  0  0  0  0
   10.5450  -16.2615   26.7473 C   0  0  2  0  0  0  0  0  0  0  0  0
    9.8058  -15.2817   25.9569 N   0  0  0  0  0  0  0  0  0  0  0  0
    9.7182  -16.9941   27.7039 C   0  0  0  0  0  0  0  0  0  0  0  0
   10.1477  -18.1121   28.3963 O   0  0  0  0  0  0  0  0  0  0  0  0
    8.5463  -16.6122   27.9318 O   0  0  0  0  0  0  0  0  0  0  0  0
  2  1  1  6
  2  4  1  0
  3  2  1  0
  5  4  1  0
  5  6  1  1
  7  8  2  0
  7  5  1  0
  9 10  1  0
 10 11  2  0
 11 12  1  0
 13 12  2  0
 13 14  1  0
 15 14  1  1
 15 16  1  0
 16  7  1  0
 17 18  2  0
 17 15  1  0
 19 13  1  0
 20 10  1  0
 20 19  2  0
 22 21  1  6
 23 22  1  0
 24 25  1  1
 24 22  1  0
 25 17  1  0
 26 24  1  0
 27 26  1  0
 28 26  2  0
M  END
$$$$
