LYV.pdb
     RDKit          3D

 28 28  0  0  1  0  0  0  0  0999 V2000
    6.8598  -12.0815   18.5955 C   0  0  0  0  0  0  0  0  0  0  0  0
    7.1214  -13.5285   18.9483 C   0  0  1  0  0  0  0  0  0  0  0  0
    7.2251  -14.3908   17.7339 C   0  0  0  0  0  0  0  0  0  0  0  0
    8.2902  -13.7071   19.8550 C   0  0  0  0  0  0  0  0  0  0  0  0
    8.3916  -15.0766   20.4611 C   0  0  2  0  0  0  0  0  0  0  0  0
    7.0771  -15.6254   20.7282 N   0  0  0  0  0  0  0  0  0  0  0  0
    9.1496  -15.0367   21.7329 C   0  0  0  0  0  0  0  0  0  0  0  0
   10.3563  -14.6916   21.6860 O   0  0  0  0  0  0  0  0  0  0  0  0
    9.9202  -14.4090   30.6076 O   0  0  0  0  0  0  0  0  0  0  0  0
    9.5147  -14.4535   29.2795 C   0  0  0  0  0  0  0  0  0  0  0  0
    9.2685  -13.2983   28.5391 C   0  0  0  0  0  0  0  0  0  0  0  0
    8.8669  -13.4041   27.2206 C   0  0  0  0  0  0  0  0  0  0  0  0
    8.6991  -14.6218   26.6039 C   0  0  0  0  0  0  0  0  0  0  0  0
    8.2788  -14.7711   25.2214 C   0  0  0  0  0  0  0  0  0  0  0  0
    9.2775  -15.2622   24.2364 C   0  0  2  0  0  0  0  0  0  0  0  0
    8.5257  -15.3788   22.9596 N   0  0  0  0  0  0  0  0  0  0  0  0
    9.8288  -16.6017   24.5064 C   0  0  0  0  0  0  0  0  0  0  0  0
    9.0625  -17.6269   24.4273 O   0  0  0  0  0  0  0  0  0  0  0  0
    8.9532  -15.7457   27.3719 C   0  0  0  0  0  0  0  0  0  0  0  0
    9.3549  -15.6825   28.6884 C   0  0  0  0  0  0  0  0  0  0  0  0
   12.4556  -18.3482   22.8297 C   0  0  0  0  0  0  0  0  0  0  0  0
   12.8236  -18.5926   24.2660 C   0  0  1  0  0  0  0  0  0  0  0  0
   13.8761  -17.5382   24.6326 C   0  0  0  0  0  0  0  0  0  0  0  0
   11.6044  -18.2601   25.1188 C   0  0  2  0  0  0  0  0  0  0  0  0
   11.1719  -16.8911   24.8540 N   0  0  0  0  0  0  0  0  0  0  0  0
   11.8268  -18.5463   26.5345 C   0  0  0  0  0  0  0  0  0  0  0  0
   11.8202  -17.5817   27.5262 O   0  0  0  0  0  0  0  0  0  0  0  0
   12.0392  -19.7251   26.9035 O   0  0  0  0  0  0  0  0  0  0  0  0
  2  1  1  6
  2  4  1  0
  3  2  1  0
  5  4  1  0
  5  6  1  1
  7  8  2  0
  7  5  1  0
  9 10  1  0
 10 11  2  0
 11 12  1  0
 13 12  2  0
 13 14  1  0
 15 14  1  1
 15 16  1  0
 16  7  1  0
 17 18  2  0
 17 15  1  0
 19 13  1  0
 20 10  1  0
 20 19  2  0
 22 21  1  6
 23 22  1  0
 24 25  1  1
 24 22  1  0
 25 17  1  0
 26 24  1  0
 27 26  1  0
 28 26  2  0
M  END
$$$$
