LYV.pdb
     RDKit          3D

 28 28  0  0  1  0  0  0  0  0999 V2000
    7.5107  -12.2790   18.7620 C   0  0  0  0  0  0  0  0  0  0  0  0
    7.9497  -13.7115   18.9661 C   0  0  1  0  0  0  0  0  0  0  0  0
    9.3133  -13.7987   19.5677 C   0  0  0  0  0  0  0  0  0  0  0  0
    6.9576  -14.5246   19.7242 C   0  0  0  0  0  0  0  0  0  0  0  0
    7.4587  -15.8802   20.1298 C   0  0  2  0  0  0  0  0  0  0  0  0
    6.8942  -16.9162   19.2883 N   0  0  0  0  0  0  0  0  0  0  0  0
    7.1040  -16.1752   21.5373 C   0  0  0  0  0  0  0  0  0  0  0  0
    5.8938  -16.3738   21.8080 O   0  0  0  0  0  0  0  0  0  0  0  0
    8.2407  -19.7400   29.5599 O   0  0  0  0  0  0  0  0  0  0  0  0
    8.2163  -19.2739   28.2513 C   0  0  0  0  0  0  0  0  0  0  0  0
    7.0264  -19.1067   27.5447 C   0  0  0  0  0  0  0  0  0  0  0  0
    7.0637  -18.6392   26.2442 C   0  0  0  0  0  0  0  0  0  0  0  0
    8.2456  -18.3289   25.6135 C   0  0  0  0  0  0  0  0  0  0  0  0
    8.3228  -17.8356   24.2493 C   0  0  0  0  0  0  0  0  0  0  0  0
    7.7306  -16.5053   23.9524 C   0  0  2  0  0  0  0  0  0  0  0  0
    8.1046  -16.2296   22.5407 N   0  0  0  0  0  0  0  0  0  0  0  0
    8.2669  -15.3821   24.7411 C   0  0  0  0  0  0  0  0  0  0  0  0
    9.4803  -15.0080   24.5615 O   0  0  0  0  0  0  0  0  0  0  0  0
    9.4058  -18.5082   26.3479 C   0  0  0  0  0  0  0  0  0  0  0  0
    9.4109  -18.9717   27.6456 C   0  0  0  0  0  0  0  0  0  0  0  0
    6.8607  -11.9238   25.3500 C   0  0  0  0  0  0  0  0  0  0  0  0
    7.2677  -12.4235   26.7075 C   0  0  1  0  0  0  0  0  0  0  0  0
    6.0086  -13.0216   27.3481 C   0  0  0  0  0  0  0  0  0  0  0  0
    8.2148  -13.6005   26.5022 C   0  0  2  0  0  0  0  0  0  0  0  0
    7.5548  -14.6368   25.7137 N   0  0  0  0  0  0  0  0  0  0  0  0
    8.7755  -14.0836   27.7622 C   0  0  0  0  0  0  0  0  0  0  0  0
    9.7393  -13.4058   28.4871 O   0  0  0  0  0  0  0  0  0  0  0  0
    8.3807  -15.1731   28.2399 O   0  0  0  0  0  0  0  0  0  0  0  0
  2  1  1  1
  2  4  1  0
  3  2  1  0
  5  4  1  0
  5  6  1  6
  7  8  2  0
  7  5  1  0
  9 10  1  0
 10 11  2  0
 11 12  1  0
 13 12  2  0
 13 14  1  0
 15 14  1  1
 15 16  1  0
 16  7  1  0
 17 18  2  0
 17 15  1  0
 19 13  1  0
 20 10  1  0
 20 19  2  0
 22 21  1  6
 23 22  1  0
 24 25  1  1
 24 22  1  0
 25 17  1  0
 26 24  1  0
 27 26  1  0
 28 26  2  0
M  END
$$$$
