LYV.pdb
     RDKit          3D

 28 28  0  0  1  0  0  0  0  0999 V2000
    6.0543  -18.1894   19.8638 C   0  0  0  0  0  0  0  0  0  0  0  0
    7.5509  -18.3722   19.7482 C   0  0  1  0  0  0  0  0  0  0  0  0
    7.9300  -19.8095   19.6082 C   0  0  0  0  0  0  0  0  0  0  0  0
    8.1616  -17.5324   18.6797 C   0  0  0  0  0  0  0  0  0  0  0  0
    7.8857  -16.0638   18.8221 C   0  0  2  0  0  0  0  0  0  0  0  0
    8.5237  -15.3098   17.7615 N   0  0  0  0  0  0  0  0  0  0  0  0
    8.3828  -15.5563   20.1217 C   0  0  0  0  0  0  0  0  0  0  0  0
    9.6188  -15.3708   20.2450 O   0  0  0  0  0  0  0  0  0  0  0  0
    7.2057  -11.8096   28.1965 O   0  0  0  0  0  0  0  0  0  0  0  0
    7.0977  -12.3525   26.9222 C   0  0  0  0  0  0  0  0  0  0  0  0
    6.4753  -13.5775   26.6873 C   0  0  0  0  0  0  0  0  0  0  0  0
    6.3974  -14.0683   25.3972 C   0  0  0  0  0  0  0  0  0  0  0  0
    6.9175  -13.3847   24.3233 C   0  0  0  0  0  0  0  0  0  0  0  0
    6.8540  -13.8693   22.9553 C   0  0  0  0  0  0  0  0  0  0  0  0
    7.9858  -14.6901   22.4512 C   0  0  2  0  0  0  0  0  0  0  0  0
    7.4855  -15.2912   21.1873 N   0  0  0  0  0  0  0  0  0  0  0  0
    8.3810  -15.8206   23.3096 C   0  0  0  0  0  0  0  0  0  0  0  0
    7.6229  -16.8523   23.3826 O   0  0  0  0  0  0  0  0  0  0  0  0
    7.5277  -12.1722   24.5970 C   0  0  0  0  0  0  0  0  0  0  0  0
    7.6257  -11.6489   25.8679 C   0  0  0  0  0  0  0  0  0  0  0  0
   10.8329  -18.1140   22.9083 C   0  0  0  0  0  0  0  0  0  0  0  0
   11.0986  -17.7761   24.3482 C   0  0  1  0  0  0  0  0  0  0  0  0
   12.2013  -16.7094   24.3501 C   0  0  0  0  0  0  0  0  0  0  0  0
    9.8591  -17.0769   24.8955 C   0  0  2  0  0  0  0  0  0  0  0  0
    9.5604  -15.8953   24.0919 N   0  0  0  0  0  0  0  0  0  0  0  0
    9.9655  -16.8064   26.3276 C   0  0  0  0  0  0  0  0  0  0  0  0
    9.9775  -17.7911   27.2992 O   0  0  0  0  0  0  0  0  0  0  0  0
   10.0521  -15.6228   26.7309 O   0  0  0  0  0  0  0  0  0  0  0  0
  2  1  1  6
  2  4  1  0
  3  2  1  0
  5  4  1  0
  5  6  1  6
  7  8  2  0
  7  5  1  0
  9 10  1  0
 10 11  2  0
 11 12  1  0
 13 12  2  0
 13 14  1  0
 15 14  1  1
 15 16  1  0
 16  7  1  0
 17 18  2  0
 17 15  1  0
 19 13  1  0
 20 10  1  0
 20 19  2  0
 22 21  1  6
 23 22  1  0
 24 25  1  6
 24 22  1  0
 25 17  1  0
 26 24  1  0
 27 26  1  0
 28 26  2  0
M  END
$$$$
