LYV.pdb
     RDKit          3D

 28 28  0  0  1  0  0  0  0  0999 V2000
   12.4483  -21.0726   21.4346 C   0  0  0  0  0  0  0  0  0  0  0  0
   11.6551  -19.9952   20.7300 C   0  0  1  0  0  0  0  0  0  0  0  0
   10.2510  -20.4225   20.4561 C   0  0  0  0  0  0  0  0  0  0  0  0
   11.7069  -18.6799   21.4282 C   0  0  0  0  0  0  0  0  0  0  0  0
   10.7556  -17.6570   20.8789 C   0  0  2  0  0  0  0  0  0  0  0  0
   11.2762  -17.0624   19.6641 N   0  0  0  0  0  0  0  0  0  0  0  0
   10.5151  -16.5767   21.8632 C   0  0  0  0  0  0  0  0  0  0  0  0
   11.3399  -15.6307   21.9090 O   0  0  0  0  0  0  0  0  0  0  0  0
    5.2262  -11.5005   26.9880 O   0  0  0  0  0  0  0  0  0  0  0  0
    5.8466  -12.3904   26.1201 C   0  0  0  0  0  0  0  0  0  0  0  0
    6.7735  -11.9731   25.1661 C   0  0  0  0  0  0  0  0  0  0  0  0
    7.3591  -12.9044   24.3289 C   0  0  0  0  0  0  0  0  0  0  0  0
    7.0578  -14.2441   24.4028 C   0  0  0  0  0  0  0  0  0  0  0  0
    7.6531  -15.2503   23.5404 C   0  0  0  0  0  0  0  0  0  0  0  0
    9.1161  -15.4874   23.6494 C   0  0  2  0  0  0  0  0  0  0  0  0
    9.3877  -16.6170   22.7225 N   0  0  0  0  0  0  0  0  0  0  0  0
    9.5906  -15.9261   24.9737 C   0  0  0  0  0  0  0  0  0  0  0  0
    9.5877  -17.1755   25.2626 O   0  0  0  0  0  0  0  0  0  0  0  0
    6.1330  -14.6195   25.3628 C   0  0  0  0  0  0  0  0  0  0  0  0
    5.5274  -13.7224   26.2156 C   0  0  0  0  0  0  0  0  0  0  0  0
   10.8863  -15.0691   29.6440 C   0  0  0  0  0  0  0  0  0  0  0  0
   10.1982  -14.5959   28.3946 C   0  0  1  0  0  0  0  0  0  0  0  0
   10.9294  -13.3228   27.9490 C   0  0  0  0  0  0  0  0  0  0  0  0
   10.4698  -15.6220   27.3002 C   0  0  2  0  0  0  0  0  0  0  0  0
   10.0742  -15.0808   26.0033 N   0  0  0  0  0  0  0  0  0  0  0  0
    9.8765  -16.9224   27.6038 C   0  0  0  0  0  0  0  0  0  0  0  0
   10.6006  -18.0162   28.0433 O   0  0  0  0  0  0  0  0  0  0  0  0
    8.6417  -17.0884   27.4674 O   0  0  0  0  0  0  0  0  0  0  0  0
  2  1  1  1
  2  4  1  0
  3  2  1  0
  5  4  1  0
  5  6  1  6
  7  8  2  0
  7  5  1  0
  9 10  1  0
 10 11  2  0
 11 12  1  0
 13 12  2  0
 13 14  1  0
 15 14  1  1
 15 16  1  0
 16  7  1  0
 17 18  2  0
 17 15  1  0
 19 13  1  0
 20 10  1  0
 20 19  2  0
 22 21  1  1
 23 22  1  0
 24 25  1  6
 24 22  1  0
 25 17  1  0
 26 24  1  0
 27 26  1  0
 28 26  2  0
M  END
$$$$
