ESD.pdb
     RDKit          3D

 24 23  0  0  1  0  0  0  0  0999 V2000
    8.4111  -14.5399   13.6053 N   0  0  0  0  0  0  0  0  0  0  0  0
    7.9431  -15.2279   14.8023 C   0  0  1  0  0  0  0  0  0  0  0  0
    8.1567  -16.6993   14.7232 C   0  0  0  0  0  0  0  0  0  0  0  0
    9.4998  -17.1412   14.2495 C   0  0  0  0  0  0  0  0  0  0  0  0
    9.6279  -18.6141   14.1713 C   0  0  0  0  0  0  0  0  0  0  0  0
   10.7612  -19.1023   13.8314 O   0  0  0  0  0  0  0  0  0  0  0  0
    8.6040  -14.5855   15.9659 C   0  0  0  0  0  0  0  0  0  0  0  0
    9.8064  -14.2118   15.9067 O   0  0  0  0  0  0  0  0  0  0  0  0
    8.6228  -19.5033   14.4348 O   0  0  0  0  0  0  0  0  0  0  0  0
    8.1504  -13.0126   20.5461 O   0  0  0  0  0  0  0  0  0  0  0  0
    7.5477  -13.7324   19.4982 C   0  0  0  0  0  0  0  0  0  0  0  0
    8.5411  -13.7782   18.3493 C   0  0  2  0  0  0  0  0  0  0  0  0
    7.9148  -14.3687   17.1800 N   0  0  0  0  0  0  0  0  0  0  0  0
    9.6728  -14.6443   18.7465 C   0  0  0  0  0  0  0  0  0  0  0  0
    9.5574  -15.8882   18.6713 O   0  0  0  0  0  0  0  0  0  0  0  0
   10.9160  -14.1325   19.2196 N   0  0  0  0  0  0  0  0  0  0  0  0
   11.9973  -14.9749   19.6612 C   0  0  1  0  0  0  0  0  0  0  0  0
   13.2840  -14.1837   19.4404 C   0  0  0  0  0  0  0  0  0  0  0  0
   14.4520  -15.0939   19.5703 C   0  0  0  0  0  0  0  0  0  0  0  0
   14.2607  -16.2897   19.9258 O   0  0  0  0  0  0  0  0  0  0  0  0
   11.8615  -15.3396   21.1010 C   0  0  0  0  0  0  0  0  0  0  0  0
   12.8815  -15.4126   21.8300 O   0  0  0  0  0  0  0  0  0  0  0  0
   15.7609  -14.7087   19.3228 O   0  0  0  0  0  0  0  0  0  0  0  0
   10.6291  -15.6061   21.6771 O   0  0  0  0  0  0  0  0  0  0  0  0
  2  1  1  6
  3  2  1  0
  3  4  1  0
  5  4  1  0
  5  9  1  0
  6  5  2  0
  7  8  2  0
  7  2  1  0
 10 11  1  0
 12 11  1  1
 12 14  1  0
 12 13  1  0
 13  7  1  0
 14 16  1  0
 15 14  2  0
 16 17  1  0
 17 21  1  0
 17 18  1  1
 19 18  1  0
 20 19  2  0
 21 22  2  0
 21 24  1  0
 23 19  1  0
M  END
$$$$
