ESD.pdb
     RDKit          3D

 24 23  0  0  1  0  0  0  0  0999 V2000
    9.4248  -17.0034   18.3662 N   0  0  0  0  0  0  0  0  0  0  0  0
    9.6894  -17.7387   19.5969 C   0  0  1  0  0  0  0  0  0  0  0  0
   10.3550  -19.0451   19.3377 C   0  0  0  0  0  0  0  0  0  0  0  0
   11.6345  -18.9877   18.5741 C   0  0  0  0  0  0  0  0  0  0  0  0
   12.2312  -20.3235   18.3472 C   0  0  0  0  0  0  0  0  0  0  0  0
   11.6452  -21.3392   18.8603 O   0  0  0  0  0  0  0  0  0  0  0  0
   10.4592  -16.8379   20.4909 C   0  0  0  0  0  0  0  0  0  0  0  0
   11.3913  -16.1175   20.0427 O   0  0  0  0  0  0  0  0  0  0  0  0
   13.3693  -20.5615   17.6274 O   0  0  0  0  0  0  0  0  0  0  0  0
    9.8136  -16.9277   24.5739 O   0  0  0  0  0  0  0  0  0  0  0  0
   10.0736  -15.6526   24.0391 C   0  0  0  0  0  0  0  0  0  0  0  0
   10.8815  -15.8503   22.7674 C   0  0  2  0  0  0  0  0  0  0  0  0
   10.1790  -16.7530   21.8730 N   0  0  0  0  0  0  0  0  0  0  0  0
   12.1714  -16.4784   23.1281 C   0  0  0  0  0  0  0  0  0  0  0  0
   12.2810  -17.7248   23.1077 O   0  0  0  0  0  0  0  0  0  0  0  0
   13.3236  -15.7289   23.5051 N   0  0  0  0  0  0  0  0  0  0  0  0
   14.5640  -16.3406   23.9064 C   0  0  1  0  0  0  0  0  0  0  0  0
   15.6458  -15.2749   23.7502 C   0  0  0  0  0  0  0  0  0  0  0  0
   16.9826  -15.8962   23.9415 C   0  0  0  0  0  0  0  0  0  0  0  0
   17.2192  -17.0168   23.4112 O   0  0  0  0  0  0  0  0  0  0  0  0
   14.5143  -16.8161   25.3192 C   0  0  0  0  0  0  0  0  0  0  0  0
   13.7549  -16.2529   26.1457 O   0  0  0  0  0  0  0  0  0  0  0  0
   18.0044  -15.3156   24.6775 O   0  0  0  0  0  0  0  0  0  0  0  0
   15.2889  -17.8762   25.7640 O   0  0  0  0  0  0  0  0  0  0  0  0
  2  1  1  6
  3  2  1  0
  3  4  1  0
  5  4  1  0
  5  9  1  0
  6  5  2  0
  7  8  2  0
  7  2  1  0
 10 11  1  0
 12 11  1  1
 12 14  1  0
 12 13  1  0
 13  7  1  0
 14 16  1  0
 15 14  2  0
 16 17  1  0
 17 21  1  0
 17 18  1  1
 19 18  1  0
 20 19  2  0
 21 22  2  0
 21 24  1  0
 23 19  1  0
M  END
$$$$
