ESD.pdb
     RDKit          3D

 24 23  0  0  1  0  0  0  0  0999 V2000
    7.7656  -13.0463   18.3283 N   0  0  0  0  0  0  0  0  0  0  0  0
    7.3028  -14.0235   19.3061 C   0  0  1  0  0  0  0  0  0  0  0  0
    7.2584  -15.4016   18.7441 C   0  0  0  0  0  0  0  0  0  0  0  0
    8.5761  -16.0163   18.4131 C   0  0  0  0  0  0  0  0  0  0  0  0
    8.4477  -17.3366   17.7557 C   0  0  0  0  0  0  0  0  0  0  0  0
    9.5209  -17.9546   17.4322 O   0  0  0  0  0  0  0  0  0  0  0  0
    8.1678  -13.8900   20.5050 C   0  0  0  0  0  0  0  0  0  0  0  0
    9.3239  -13.3948   20.4213 O   0  0  0  0  0  0  0  0  0  0  0  0
    7.2633  -17.9545   17.4630 O   0  0  0  0  0  0  0  0  0  0  0  0
    6.5728  -14.6257   24.2105 O   0  0  0  0  0  0  0  0  0  0  0  0
    7.6387  -13.7105   24.1358 C   0  0  0  0  0  0  0  0  0  0  0  0
    8.5289  -14.1440   22.9832 C   0  0  2  0  0  0  0  0  0  0  0  0
    7.7317  -14.3110   21.7811 N   0  0  0  0  0  0  0  0  0  0  0  0
    9.1234  -15.4557   23.3217 C   0  0  0  0  0  0  0  0  0  0  0  0
    8.5428  -16.5079   22.9727 O   0  0  0  0  0  0  0  0  0  0  0  0
   10.3478  -15.5937   24.0379 N   0  0  0  0  0  0  0  0  0  0  0  0
   10.8928  -16.8687   24.4271 C   0  0  1  0  0  0  0  0  0  0  0  0
   12.4113  -16.7130   24.4227 C   0  0  0  0  0  0  0  0  0  0  0  0
   12.9820  -17.4686   23.2767 C   0  0  0  0  0  0  0  0  0  0  0  0
   12.2010  -18.0765   22.4936 O   0  0  0  0  0  0  0  0  0  0  0  0
   10.4245  -17.2796   25.7823 C   0  0  0  0  0  0  0  0  0  0  0  0
    9.8937  -16.4362   26.5465 O   0  0  0  0  0  0  0  0  0  0  0  0
   14.3397  -17.5511   23.0072 O   0  0  0  0  0  0  0  0  0  0  0  0
   10.5548  -18.5816   26.2398 O   0  0  0  0  0  0  0  0  0  0  0  0
  2  1  1  6
  3  2  1  0
  3  4  1  0
  5  4  1  0
  5  9  1  0
  6  5  2  0
  7  8  2  0
  7  2  1  0
 10 11  1  0
 12 11  1  1
 12 14  1  0
 12 13  1  0
 13  7  1  0
 14 16  1  0
 15 14  2  0
 16 17  1  0
 17 21  1  0
 17 18  1  1
 19 18  1  0
 20 19  2  0
 21 22  2  0
 21 24  1  0
 23 19  1  0
M  END
$$$$
