ESD.pdb
     RDKit          3D

 24 23  0  0  1  0  0  0  0  0999 V2000
   10.0907  -15.0617   14.0214 N   0  0  0  0  0  0  0  0  0  0  0  0
    9.2492  -15.4458   15.1482 C   0  0  1  0  0  0  0  0  0  0  0  0
    9.1410  -16.9241   15.2892 C   0  0  0  0  0  0  0  0  0  0  0  0
   10.4264  -17.6796   15.2673 C   0  0  0  0  0  0  0  0  0  0  0  0
   10.2345  -19.1462   15.3309 C   0  0  0  0  0  0  0  0  0  0  0  0
   11.2751  -19.8910   15.3024 O   0  0  0  0  0  0  0  0  0  0  0  0
    9.7876  -14.7642   16.3519 C   0  0  0  0  0  0  0  0  0  0  0  0
   11.0166  -14.5049   16.4578 O   0  0  0  0  0  0  0  0  0  0  0  0
    9.0233  -19.7751   15.4177 O   0  0  0  0  0  0  0  0  0  0  0  0
    7.3022  -14.0602   19.5198 O   0  0  0  0  0  0  0  0  0  0  0  0
    8.2583  -13.0452   19.3330 C   0  0  0  0  0  0  0  0  0  0  0  0
    9.4302  -13.6581   18.5847 C   0  0  2  0  0  0  0  0  0  0  0  0
    8.9479  -14.3812   17.4216 N   0  0  0  0  0  0  0  0  0  0  0  0
   10.0982  -14.6282   19.4797 C   0  0  0  0  0  0  0  0  0  0  0  0
    9.8754  -15.8521   19.3439 O   0  0  0  0  0  0  0  0  0  0  0  0
   11.0026  -14.2409   20.5110 N   0  0  0  0  0  0  0  0  0  0  0  0
   11.6145  -15.1801   21.4151 C   0  0  1  0  0  0  0  0  0  0  0  0
   12.7868  -14.4539   22.0698 C   0  0  0  0  0  0  0  0  0  0  0  0
   13.9467  -14.4498   21.1401 C   0  0  0  0  0  0  0  0  0  0  0  0
   13.7585  -14.1586   19.9266 O   0  0  0  0  0  0  0  0  0  0  0  0
   10.6562  -15.6486   22.4575 C   0  0  0  0  0  0  0  0  0  0  0  0
    9.5746  -15.0365   22.6379 O   0  0  0  0  0  0  0  0  0  0  0  0
   15.2444  -14.7505   21.5252 O   0  0  0  0  0  0  0  0  0  0  0  0
   10.9182  -16.7551   23.2505 O   0  0  0  0  0  0  0  0  0  0  0  0
  2  1  1  6
  3  2  1  0
  3  4  1  0
  5  4  1  0
  5  9  1  0
  6  5  2  0
  7  8  2  0
  7  2  1  0
 10 11  1  0
 12 11  1  1
 12 14  1  0
 12 13  1  0
 13  7  1  0
 14 16  1  0
 15 14  2  0
 16 17  1  0
 17 21  1  0
 17 18  1  1
 19 18  1  0
 20 19  2  0
 21 22  2  0
 21 24  1  0
 23 19  1  0
M  END
$$$$
