ESD.pdb
     RDKit          3D

 24 23  0  0  1  0  0  0  0  0999 V2000
    7.9628  -13.0607   17.8339 N   0  0  0  0  0  0  0  0  0  0  0  0
    7.4495  -14.0865   18.7335 C   0  0  1  0  0  0  0  0  0  0  0  0
    7.3777  -15.4219   18.0788 C   0  0  0  0  0  0  0  0  0  0  0  0
    8.6703  -15.9811   17.5890 C   0  0  0  0  0  0  0  0  0  0  0  0
    8.5071  -17.2627   16.8658 C   0  0  0  0  0  0  0  0  0  0  0  0
    8.8268  -17.2994   15.6270 O   0  0  0  0  0  0  0  0  0  0  0  0
    8.2904  -14.0602   19.9564 C   0  0  0  0  0  0  0  0  0  0  0  0
    9.5262  -13.8203   19.8912 O   0  0  0  0  0  0  0  0  0  0  0  0
    8.0372  -18.4211   17.4202 O   0  0  0  0  0  0  0  0  0  0  0  0
    6.5519  -14.9239   23.5394 O   0  0  0  0  0  0  0  0  0  0  0  0
    7.5480  -13.9348   23.6317 C   0  0  0  0  0  0  0  0  0  0  0  0
    8.4986  -14.1379   22.4638 C   0  0  2  0  0  0  0  0  0  0  0  0
    7.7418  -14.3022   21.2356 N   0  0  0  0  0  0  0  0  0  0  0  0
    9.2641  -15.3820   22.6974 C   0  0  0  0  0  0  0  0  0  0  0  0
    8.8808  -16.4528   22.1753 O   0  0  0  0  0  0  0  0  0  0  0  0
   10.4407  -15.4329   23.5001 N   0  0  0  0  0  0  0  0  0  0  0  0
   11.0893  -16.6646   23.8692 C   0  0  1  0  0  0  0  0  0  0  0  0
   12.5753  -16.3475   24.0156 C   0  0  0  0  0  0  0  0  0  0  0  0
   13.2606  -16.5815   22.7174 C   0  0  0  0  0  0  0  0  0  0  0  0
   12.6536  -16.3068   21.6456 O   0  0  0  0  0  0  0  0  0  0  0  0
   10.5536  -17.2092   25.1502 C   0  0  0  0  0  0  0  0  0  0  0  0
   10.8197  -18.3878   25.4924 O   0  0  0  0  0  0  0  0  0  0  0  0
   14.5453  -17.0911   22.6047 O   0  0  0  0  0  0  0  0  0  0  0  0
    9.7581  -16.4500   25.9943 O   0  0  0  0  0  0  0  0  0  0  0  0
  2  1  1  6
  3  2  1  0
  3  4  1  0
  5  4  1  0
  5  9  1  0
  6  5  2  0
  7  8  2  0
  7  2  1  0
 10 11  1  0
 12 11  1  1
 12 14  1  0
 12 13  1  0
 13  7  1  0
 14 16  1  0
 15 14  2  0
 16 17  1  0
 17 21  1  0
 17 18  1  1
 19 18  1  0
 20 19  2  0
 21 22  2  0
 21 24  1  0
 23 19  1  0
M  END
$$$$
