ESD.pdb
     RDKit          3D

 24 23  0  0  1  0  0  0  0  0999 V2000
    7.2651  -17.6352   21.6320 N   0  0  0  0  0  0  0  0  0  0  0  0
    8.6702  -17.3351   21.3851 C   0  0  1  0  0  0  0  0  0  0  0  0
    8.9903  -17.3053   19.9313 C   0  0  0  0  0  0  0  0  0  0  0  0
    7.8635  -16.9543   19.0200 C   0  0  0  0  0  0  0  0  0  0  0  0
    8.1173  -17.3411   17.6136 C   0  0  0  0  0  0  0  0  0  0  0  0
    8.0194  -16.4362   16.7136 O   0  0  0  0  0  0  0  0  0  0  0  0
    8.9813  -16.0697   22.0960 C   0  0  0  0  0  0  0  0  0  0  0  0
   10.0895  -15.4901   21.9378 O   0  0  0  0  0  0  0  0  0  0  0  0
    8.4504  -18.5996   17.1947 O   0  0  0  0  0  0  0  0  0  0  0  0
    7.5077  -12.7857   23.4409 O   0  0  0  0  0  0  0  0  0  0  0  0
    7.4724  -13.6847   24.5224 C   0  0  0  0  0  0  0  0  0  0  0  0
    8.4432  -14.8107   24.2082 C   0  0  2  0  0  0  0  0  0  0  0  0
    8.0523  -15.4678   22.9739 N   0  0  0  0  0  0  0  0  0  0  0  0
    8.3687  -15.8076   25.2987 C   0  0  0  0  0  0  0  0  0  0  0  0
    7.5076  -16.7145   25.2517 O   0  0  0  0  0  0  0  0  0  0  0  0
    9.2417  -15.7956   26.4252 N   0  0  0  0  0  0  0  0  0  0  0  0
    9.6938  -16.9940   27.0836 C   0  0  1  0  0  0  0  0  0  0  0  0
   10.4926  -17.7839   26.0501 C   0  0  0  0  0  0  0  0  0  0  0  0
   11.0123  -19.0291   26.6739 C   0  0  0  0  0  0  0  0  0  0  0  0
   10.2480  -19.7099   27.4122 O   0  0  0  0  0  0  0  0  0  0  0  0
   10.5498  -16.6860   28.2656 C   0  0  0  0  0  0  0  0  0  0  0  0
   10.9610  -17.6153   29.0033 O   0  0  0  0  0  0  0  0  0  0  0  0
   12.3043  -19.4997   26.4951 O   0  0  0  0  0  0  0  0  0  0  0  0
   10.9163  -15.3884   28.5876 O   0  0  0  0  0  0  0  0  0  0  0  0
  2  1  1  6
  3  2  1  0
  3  4  1  0
  5  4  1  0
  5  9  1  0
  6  5  2  0
  7  8  2  0
  7  2  1  0
 10 11  1  0
 12 11  1  1
 12 14  1  0
 12 13  1  0
 13  7  1  0
 14 16  1  0
 15 14  2  0
 16 17  1  0
 17 21  1  0
 17 18  1  6
 19 18  1  0
 20 19  2  0
 21 22  2  0
 21 24  1  0
 23 19  1  0
M  END
$$$$
