ESD.pdb
     RDKit          3D

 24 23  0  0  1  0  0  0  0  0999 V2000
    8.1613  -13.0048   17.0507 N   0  0  0  0  0  0  0  0  0  0  0  0
    7.7282  -14.1564   17.8328 C   0  0  1  0  0  0  0  0  0  0  0  0
    7.9722  -15.4414   17.1213 C   0  0  0  0  0  0  0  0  0  0  0  0
    9.3225  -15.6051   16.5102 C   0  0  0  0  0  0  0  0  0  0  0  0
    9.4600  -16.8645   15.7441 C   0  0  0  0  0  0  0  0  0  0  0  0
   10.3731  -17.6882   16.0992 O   0  0  0  0  0  0  0  0  0  0  0  0
    8.3943  -14.0652   19.1561 C   0  0  0  0  0  0  0  0  0  0  0  0
    9.6225  -13.7972   19.2492 O   0  0  0  0  0  0  0  0  0  0  0  0
    8.6829  -17.2215   14.6770 O   0  0  0  0  0  0  0  0  0  0  0  0
    6.5611  -15.5577   22.4988 O   0  0  0  0  0  0  0  0  0  0  0  0
    7.2468  -14.3550   22.7492 C   0  0  0  0  0  0  0  0  0  0  0  0
    8.3034  -14.2017   21.6680 C   0  0  2  0  0  0  0  0  0  0  0  0
    7.6816  -14.2744   20.3579 N   0  0  0  0  0  0  0  0  0  0  0  0
    9.2552  -15.3283   21.7839 C   0  0  0  0  0  0  0  0  0  0  0  0
    9.6899  -15.8814   20.7489 O   0  0  0  0  0  0  0  0  0  0  0  0
    9.7173  -15.8313   23.0348 N   0  0  0  0  0  0  0  0  0  0  0  0
   10.9546  -16.5528   23.1845 C   0  0  1  0  0  0  0  0  0  0  0  0
   12.0605  -15.6312   22.6767 C   0  0  0  0  0  0  0  0  0  0  0  0
   13.2072  -16.4500   22.2031 C   0  0  0  0  0  0  0  0  0  0  0  0
   12.9788  -17.4966   21.5358 O   0  0  0  0  0  0  0  0  0  0  0  0
   11.2100  -16.9232   24.6065 C   0  0  0  0  0  0  0  0  0  0  0  0
   12.2041  -17.6309   24.9031 O   0  0  0  0  0  0  0  0  0  0  0  0
   14.5345  -16.1341   22.4509 O   0  0  0  0  0  0  0  0  0  0  0  0
   10.3764  -16.5085   25.6336 O   0  0  0  0  0  0  0  0  0  0  0  0
  2  1  1  6
  3  2  1  0
  3  4  1  0
  5  4  1  0
  5  9  1  0
  6  5  2  0
  7  8  2  0
  7  2  1  0
 10 11  1  0
 12 11  1  1
 12 14  1  0
 12 13  1  0
 13  7  1  0
 14 16  1  0
 15 14  2  0
 16 17  1  0
 17 21  1  0
 17 18  1  1
 19 18  1  0
 20 19  2  0
 21 22  2  0
 21 24  1  0
 23 19  1  0
M  END
$$$$
