ESD.pdb
     RDKit          3D

 24 23  0  0  1  0  0  0  0  0999 V2000
    7.5402  -12.8024   17.3492 N   0  0  0  0  0  0  0  0  0  0  0  0
    7.4960  -14.0197   18.1500 C   0  0  1  0  0  0  0  0  0  0  0  0
    7.6439  -15.2449   17.3170 C   0  0  0  0  0  0  0  0  0  0  0  0
    8.9584  -15.4177   16.6346 C   0  0  0  0  0  0  0  0  0  0  0  0
    8.9875  -16.5866   15.7264 C   0  0  0  0  0  0  0  0  0  0  0  0
    8.2133  -16.5761   14.7072 O   0  0  0  0  0  0  0  0  0  0  0  0
    8.5250  -13.8858   19.2114 C   0  0  0  0  0  0  0  0  0  0  0  0
    9.6688  -13.4227   18.9541 O   0  0  0  0  0  0  0  0  0  0  0  0
    9.7822  -17.6873   15.8909 O   0  0  0  0  0  0  0  0  0  0  0  0
    7.8172  -15.5534   22.8454 O   0  0  0  0  0  0  0  0  0  0  0  0
    8.5710  -14.3707   22.9560 C   0  0  0  0  0  0  0  0  0  0  0  0
    9.2395  -14.1316   21.6125 C   0  0  2  0  0  0  0  0  0  0  0  0
    8.2645  -14.2704   20.5457 N   0  0  0  0  0  0  0  0  0  0  0  0
   10.2780  -15.1671   21.4183 C   0  0  0  0  0  0  0  0  0  0  0  0
    9.9731  -16.2592   20.8888 O   0  0  0  0  0  0  0  0  0  0  0  0
   11.6375  -14.9886   21.8074 N   0  0  0  0  0  0  0  0  0  0  0  0
   12.6175  -16.0424   21.7506 C   0  0  1  0  0  0  0  0  0  0  0  0
   13.9164  -15.4036   21.2657 C   0  0  0  0  0  0  0  0  0  0  0  0
   13.7819  -15.0387   19.8310 C   0  0  0  0  0  0  0  0  0  0  0  0
   13.2375  -15.8567   19.0390 O   0  0  0  0  0  0  0  0  0  0  0  0
   12.8257  -16.6761   23.0846 C   0  0  0  0  0  0  0  0  0  0  0  0
   12.2028  -16.2488   24.0878 O   0  0  0  0  0  0  0  0  0  0  0  0
   14.2235  -13.8380   19.2962 O   0  0  0  0  0  0  0  0  0  0  0  0
   13.6972  -17.7392   23.2636 O   0  0  0  0  0  0  0  0  0  0  0  0
  2  1  1  6
  3  2  1  0
  3  4  1  0
  5  4  1  0
  5  9  1  0
  6  5  2  0
  7  8  2  0
  7  2  1  0
 10 11  1  0
 12 11  1  1
 12 14  1  0
 12 13  1  0
 13  7  1  0
 14 16  1  0
 15 14  2  0
 16 17  1  0
 17 21  1  0
 17 18  1  1
 19 18  1  0
 20 19  2  0
 21 22  2  0
 21 24  1  0
 23 19  1  0
M  END
$$$$
