ESD.pdb
     RDKit          3D

 24 23  0  0  1  0  0  0  0  0999 V2000
    6.9415  -19.6543   20.7268 N   0  0  0  0  0  0  0  0  0  0  0  0
    6.3793  -18.6475   21.6187 C   0  0  1  0  0  0  0  0  0  0  0  0
    5.8949  -19.2381   22.8969 C   0  0  0  0  0  0  0  0  0  0  0  0
    6.2814  -20.6557   23.1508 C   0  0  0  0  0  0  0  0  0  0  0  0
    5.7116  -21.1926   24.4074 C   0  0  0  0  0  0  0  0  0  0  0  0
    4.4951  -21.5903   24.3948 O   0  0  0  0  0  0  0  0  0  0  0  0
    7.4080  -17.5921   21.7951 C   0  0  0  0  0  0  0  0  0  0  0  0
    8.6204  -17.8147   21.5314 O   0  0  0  0  0  0  0  0  0  0  0  0
    6.3869  -21.2980   25.5920 O   0  0  0  0  0  0  0  0  0  0  0  0
    6.4954  -14.0503   23.7602 O   0  0  0  0  0  0  0  0  0  0  0  0
    7.3483  -13.9177   22.6493 C   0  0  0  0  0  0  0  0  0  0  0  0
    8.0524  -15.2503   22.4563 C   0  0  2  0  0  0  0  0  0  0  0  0
    7.0707  -16.3026   22.2634 N   0  0  0  0  0  0  0  0  0  0  0  0
    8.8137  -15.5573   23.6870 C   0  0  0  0  0  0  0  0  0  0  0  0
    8.2011  -15.8559   24.7366 O   0  0  0  0  0  0  0  0  0  0  0  0
   10.2375  -15.5332   23.7479 N   0  0  0  0  0  0  0  0  0  0  0  0
   10.9895  -16.1252   24.8240 C   0  0  1  0  0  0  0  0  0  0  0  0
   10.3101  -17.4522   25.1518 C   0  0  0  0  0  0  0  0  0  0  0  0
   11.0745  -18.1480   26.2200 C   0  0  0  0  0  0  0  0  0  0  0  0
   11.2751  -17.5548   27.3157 O   0  0  0  0  0  0  0  0  0  0  0  0
   12.4118  -16.3594   24.4409 C   0  0  0  0  0  0  0  0  0  0  0  0
   13.1900  -16.9399   25.2374 O   0  0  0  0  0  0  0  0  0  0  0  0
   11.5912  -19.4282   26.0893 O   0  0  0  0  0  0  0  0  0  0  0  0
   12.9180  -15.9534   23.2159 O   0  0  0  0  0  0  0  0  0  0  0  0
  2  1  1  6
  3  2  1  0
  3  4  1  0
  5  4  1  0
  5  9  1  0
  6  5  2  0
  7  8  2  0
  7  2  1  0
 10 11  1  0
 12 11  1  1
 12 14  1  0
 12 13  1  0
 13  7  1  0
 14 16  1  0
 15 14  2  0
 16 17  1  0
 17 21  1  0
 17 18  1  6
 19 18  1  0
 20 19  2  0
 21 22  2  0
 21 24  1  0
 23 19  1  0
M  END
$$$$
