ESD.pdb
     RDKit          3D

 24 23  0  0  1  0  0  0  0  0999 V2000
   13.9295  -16.5714   17.5166 N   0  0  0  0  0  0  0  0  0  0  0  0
   13.5933  -17.6854   18.3948 C   0  0  1  0  0  0  0  0  0  0  0  0
   14.6845  -18.6963   18.4612 C   0  0  0  0  0  0  0  0  0  0  0  0
   15.8233  -18.4930   17.5203 C   0  0  0  0  0  0  0  0  0  0  0  0
   16.7890  -19.6151   17.5327 C   0  0  0  0  0  0  0  0  0  0  0  0
   17.1286  -20.1042   18.6657 O   0  0  0  0  0  0  0  0  0  0  0  0
   13.2239  -17.1110   19.7127 C   0  0  0  0  0  0  0  0  0  0  0  0
   13.9854  -16.2999   20.3054 O   0  0  0  0  0  0  0  0  0  0  0  0
   17.3532  -20.1760   16.4203 O   0  0  0  0  0  0  0  0  0  0  0  0
    9.4189  -17.7033   21.2249 O   0  0  0  0  0  0  0  0  0  0  0  0
   10.1066  -16.5184   21.5450 C   0  0  0  0  0  0  0  0  0  0  0  0
   11.5868  -16.8558   21.6077 C   0  0  2  0  0  0  0  0  0  0  0  0
   12.0103  -17.4491   20.3520 N   0  0  0  0  0  0  0  0  0  0  0  0
   11.7912  -17.8575   22.6769 C   0  0  0  0  0  0  0  0  0  0  0  0
   12.0593  -19.0417   22.3738 O   0  0  0  0  0  0  0  0  0  0  0  0
   11.6996  -17.5447   24.0644 N   0  0  0  0  0  0  0  0  0  0  0  0
   11.9493  -18.5067   25.1065 C   0  0  1  0  0  0  0  0  0  0  0  0
   13.3717  -19.0188   24.8949 C   0  0  0  0  0  0  0  0  0  0  0  0
   13.7194  -19.9739   25.9796 C   0  0  0  0  0  0  0  0  0  0  0  0
   12.8620  -20.8248   26.3451 O   0  0  0  0  0  0  0  0  0  0  0  0
   11.8207  -17.8989   26.4624 C   0  0  0  0  0  0  0  0  0  0  0  0
   11.7385  -16.6521   26.5873 O   0  0  0  0  0  0  0  0  0  0  0  0
   14.9450  -19.9913   26.6278 O   0  0  0  0  0  0  0  0  0  0  0  0
   11.7876  -18.6720   27.6126 O   0  0  0  0  0  0  0  0  0  0  0  0
  2  1  1  6
  3  2  1  0
  3  4  1  0
  5  4  1  0
  5  9  1  0
  6  5  2  0
  7  8  2  0
  7  2  1  0
 10 11  1  0
 12 11  1  6
 12 14  1  0
 12 13  1  0
 13  7  1  0
 14 16  1  0
 15 14  2  0
 16 17  1  0
 17 21  1  0
 17 18  1  6
 19 18  1  0
 20 19  2  0
 21 22  2  0
 21 24  1  0
 23 19  1  0
M  END
$$$$
