ESD.pdb
     RDKit          3D

 24 23  0  0  1  0  0  0  0  0999 V2000
    9.3654  -16.4894   17.4263 N   0  0  0  0  0  0  0  0  0  0  0  0
    8.3633  -16.4667   18.4848 C   0  0  1  0  0  0  0  0  0  0  0  0
    7.6892  -17.7843   18.6473 C   0  0  0  0  0  0  0  0  0  0  0  0
    8.5534  -18.9096   19.1058 C   0  0  0  0  0  0  0  0  0  0  0  0
    7.8403  -20.2065   19.1426 C   0  0  0  0  0  0  0  0  0  0  0  0
    8.4455  -21.2391   18.6889 O   0  0  0  0  0  0  0  0  0  0  0  0
    9.0341  -15.9780   19.7155 C   0  0  0  0  0  0  0  0  0  0  0  0
   10.2829  -16.0743   19.8578 O   0  0  0  0  0  0  0  0  0  0  0  0
    6.5746  -20.3916   19.6264 O   0  0  0  0  0  0  0  0  0  0  0  0
    6.8894  -15.0060   23.0610 O   0  0  0  0  0  0  0  0  0  0  0  0
    7.8882  -14.0604   22.7653 C   0  0  0  0  0  0  0  0  0  0  0  0
    8.9366  -14.7587   21.9155 C   0  0  2  0  0  0  0  0  0  0  0  0
    8.3030  -15.3886   20.7710 N   0  0  0  0  0  0  0  0  0  0  0  0
    9.5647  -15.8213   22.7308 C   0  0  0  0  0  0  0  0  0  0  0  0
    9.1681  -17.0031   22.6208 O   0  0  0  0  0  0  0  0  0  0  0  0
   10.6206  -15.5715   23.6550 N   0  0  0  0  0  0  0  0  0  0  0  0
   11.2361  -16.6061   24.4454 C   0  0  1  0  0  0  0  0  0  0  0  0
   12.6693  -16.1545   24.7142 C   0  0  0  0  0  0  0  0  0  0  0  0
   13.5116  -16.4503   23.5256 C   0  0  0  0  0  0  0  0  0  0  0  0
   12.9768  -16.9778   22.5114 O   0  0  0  0  0  0  0  0  0  0  0  0
   10.5165  -16.8191   25.7343 C   0  0  0  0  0  0  0  0  0  0  0  0
    9.7245  -15.9445   26.1642 O   0  0  0  0  0  0  0  0  0  0  0  0
   14.8700  -16.1805   23.4569 O   0  0  0  0  0  0  0  0  0  0  0  0
   10.6913  -17.9675   26.4909 O   0  0  0  0  0  0  0  0  0  0  0  0
  2  1  1  6
  3  2  1  0
  3  4  1  0
  5  4  1  0
  5  9  1  0
  6  5  2  0
  7  8  2  0
  7  2  1  0
 10 11  1  0
 12 11  1  1
 12 14  1  0
 12 13  1  0
 13  7  1  0
 14 16  1  0
 15 14  2  0
 16 17  1  0
 17 21  1  0
 17 18  1  1
 19 18  1  0
 20 19  2  0
 21 22  2  0
 21 24  1  0
 23 19  1  0
M  END
$$$$
