ESD.pdb
     RDKit          3D

 24 23  0  0  1  0  0  0  0  0999 V2000
    9.1061  -18.0647   17.6883 N   0  0  0  0  0  0  0  0  0  0  0  0
    9.9524  -18.7396   18.6648 C   0  0  1  0  0  0  0  0  0  0  0  0
   11.0981  -19.4421   18.0237 C   0  0  0  0  0  0  0  0  0  0  0  0
   11.7898  -18.7025   16.9291 C   0  0  0  0  0  0  0  0  0  0  0  0
   13.2036  -19.1089   16.7624 C   0  0  0  0  0  0  0  0  0  0  0  0
   13.4443  -20.3062   16.3792 O   0  0  0  0  0  0  0  0  0  0  0  0
   10.3550  -17.7270   19.6726 C   0  0  0  0  0  0  0  0  0  0  0  0
   10.8690  -16.6302   19.3236 O   0  0  0  0  0  0  0  0  0  0  0  0
   14.2834  -18.3004   16.9875 O   0  0  0  0  0  0  0  0  0  0  0  0
    8.4875  -16.4369   23.0195 O   0  0  0  0  0  0  0  0  0  0  0  0
    9.6815  -17.1299   23.2905 C   0  0  0  0  0  0  0  0  0  0  0  0
   10.5747  -16.9892   22.0693 C   0  0  2  0  0  0  0  0  0  0  0  0
   10.1792  -17.9514   21.0564 N   0  0  0  0  0  0  0  0  0  0  0  0
   11.9649  -17.2961   22.4713 C   0  0  0  0  0  0  0  0  0  0  0  0
   12.3959  -18.4664   22.3683 O   0  0  0  0  0  0  0  0  0  0  0  0
   12.8630  -16.3132   22.9800 N   0  0  0  0  0  0  0  0  0  0  0  0
   14.2283  -16.6029   23.3350 C   0  0  1  0  0  0  0  0  0  0  0  0
   15.0541  -15.3892   22.9163 C   0  0  0  0  0  0  0  0  0  0  0  0
   16.4965  -15.7485   22.9189 C   0  0  0  0  0  0  0  0  0  0  0  0
   16.8253  -16.9638   23.0064 O   0  0  0  0  0  0  0  0  0  0  0  0
   14.3795  -16.8444   24.7990 C   0  0  0  0  0  0  0  0  0  0  0  0
   13.6083  -16.2784   25.6125 O   0  0  0  0  0  0  0  0  0  0  0  0
   17.5225  -14.8198   22.8303 O   0  0  0  0  0  0  0  0  0  0  0  0
   15.3574  -17.6858   25.3064 O   0  0  0  0  0  0  0  0  0  0  0  0
  2  1  1  6
  3  2  1  0
  3  4  1  0
  5  4  1  0
  5  9  1  0
  6  5  2  0
  7  8  2  0
  7  2  1  0
 10 11  1  0
 12 11  1  1
 12 14  1  0
 12 13  1  0
 13  7  1  0
 14 16  1  0
 15 14  2  0
 16 17  1  0
 17 21  1  0
 17 18  1  1
 19 18  1  0
 20 19  2  0
 21 22  2  0
 21 24  1  0
 23 19  1  0
M  END
$$$$
