ESD.pdb
     RDKit          3D

 24 23  0  0  1  0  0  0  0  0999 V2000
    8.1404  -16.5793   16.6018 N   0  0  0  0  0  0  0  0  0  0  0  0
    7.7669  -17.0752   17.9209 C   0  0  1  0  0  0  0  0  0  0  0  0
    7.9714  -18.5447   18.0462 C   0  0  0  0  0  0  0  0  0  0  0  0
    9.3855  -19.0003   18.1741 C   0  0  0  0  0  0  0  0  0  0  0  0
    9.5120  -20.4733   18.2525 C   0  0  0  0  0  0  0  0  0  0  0  0
   10.6817  -20.9693   18.4077 O   0  0  0  0  0  0  0  0  0  0  0  0
    8.5182  -16.2756   18.9206 C   0  0  0  0  0  0  0  0  0  0  0  0
    9.7277  -15.9726   18.7354 O   0  0  0  0  0  0  0  0  0  0  0  0
    8.4697  -21.3549   18.1710 O   0  0  0  0  0  0  0  0  0  0  0  0
    6.9324  -15.6329   22.6585 O   0  0  0  0  0  0  0  0  0  0  0  0
    7.6348  -14.5249   22.1503 C   0  0  0  0  0  0  0  0  0  0  0  0
    8.6172  -15.0466   21.1151 C   0  0  2  0  0  0  0  0  0  0  0  0
    7.9104  -15.8249   20.1137 N   0  0  0  0  0  0  0  0  0  0  0  0
    9.5776  -15.9433   21.7950 C   0  0  0  0  0  0  0  0  0  0  0  0
    9.4756  -17.1825   21.6534 O   0  0  0  0  0  0  0  0  0  0  0  0
   10.6375  -15.4667   22.6201 N   0  0  0  0  0  0  0  0  0  0  0  0
   11.6422  -16.3286   23.1872 C   0  0  1  0  0  0  0  0  0  0  0  0
   12.9660  -15.5741   23.0948 C   0  0  0  0  0  0  0  0  0  0  0  0
   14.0635  -16.4381   23.6034 C   0  0  0  0  0  0  0  0  0  0  0  0
   13.7721  -17.5065   24.2086 O   0  0  0  0  0  0  0  0  0  0  0  0
   11.3432  -16.6651   24.6092 C   0  0  0  0  0  0  0  0  0  0  0  0
   10.5820  -15.9279   25.2830 O   0  0  0  0  0  0  0  0  0  0  0  0
   15.4099  -16.1418   23.4543 O   0  0  0  0  0  0  0  0  0  0  0  0
   11.8834  -17.7818   25.2278 O   0  0  0  0  0  0  0  0  0  0  0  0
  2  1  1  6
  3  2  1  0
  3  4  1  0
  5  4  1  0
  5  9  1  0
  6  5  2  0
  7  8  2  0
  7  2  1  0
 10 11  1  0
 12 11  1  1
 12 14  1  0
 12 13  1  0
 13  7  1  0
 14 16  1  0
 15 14  2  0
 16 17  1  0
 17 21  1  0
 17 18  1  1
 19 18  1  0
 20 19  2  0
 21 22  2  0
 21 24  1  0
 23 19  1  0
M  END
$$$$
