ESD.pdb
     RDKit          3D

 24 23  0  0  1  0  0  0  0  0999 V2000
    7.6391  -15.1835   18.6597 N   0  0  0  0  0  0  0  0  0  0  0  0
    7.8541  -16.2923   19.5813 C   0  0  1  0  0  0  0  0  0  0  0  0
    8.4928  -17.4603   18.9144 C   0  0  0  0  0  0  0  0  0  0  0  0
    9.9137  -17.2805   18.4990 C   0  0  0  0  0  0  0  0  0  0  0  0
   10.5006  -18.5039   17.9068 C   0  0  0  0  0  0  0  0  0  0  0  0
   11.1810  -18.3840   16.8293 O   0  0  0  0  0  0  0  0  0  0  0  0
    8.6237  -15.7629   20.7349 C   0  0  0  0  0  0  0  0  0  0  0  0
    9.8751  -15.6246   20.6737 O   0  0  0  0  0  0  0  0  0  0  0  0
   10.3724  -19.7638   18.4230 O   0  0  0  0  0  0  0  0  0  0  0  0
    6.7874  -15.3339   24.4067 O   0  0  0  0  0  0  0  0  0  0  0  0
    7.7447  -14.3434   24.1205 C   0  0  0  0  0  0  0  0  0  0  0  0
    8.7148  -14.9292   23.1082 C   0  0  2  0  0  0  0  0  0  0  0  0
    7.9872  -15.3950   21.9413 N   0  0  0  0  0  0  0  0  0  0  0  0
    9.3827  -16.0963   23.7248 C   0  0  0  0  0  0  0  0  0  0  0  0
    9.6493  -17.0990   23.0250 O   0  0  0  0  0  0  0  0  0  0  0  0
    9.7498  -16.1458   25.1010 N   0  0  0  0  0  0  0  0  0  0  0  0
   10.8286  -16.9593   25.5993 C   0  0  1  0  0  0  0  0  0  0  0  0
   12.0945  -16.4866   24.8891 C   0  0  0  0  0  0  0  0  0  0  0  0
   13.2218  -17.3922   25.2337 C   0  0  0  0  0  0  0  0  0  0  0  0
   12.9684  -18.5674   25.6178 O   0  0  0  0  0  0  0  0  0  0  0  0
   10.9885  -16.8216   27.0758 C   0  0  0  0  0  0  0  0  0  0  0  0
   10.8512  -15.6987   27.6210 O   0  0  0  0  0  0  0  0  0  0  0  0
   14.5566  -17.0241   25.1601 O   0  0  0  0  0  0  0  0  0  0  0  0
   11.2885  -17.9062   27.8854 O   0  0  0  0  0  0  0  0  0  0  0  0
  2  1  1  6
  3  2  1  0
  3  4  1  0
  5  4  1  0
  5  9  1  0
  6  5  2  0
  7  8  2  0
  7  2  1  0
 10 11  1  0
 12 11  1  1
 12 14  1  0
 12 13  1  0
 13  7  1  0
 14 16  1  0
 15 14  2  0
 16 17  1  0
 17 21  1  0
 17 18  1  6
 19 18  1  0
 20 19  2  0
 21 22  2  0
 21 24  1  0
 23 19  1  0
M  END
$$$$
