ESD.pdb
     RDKit          3D

 24 23  0  0  1  0  0  0  0  0999 V2000
    8.6996  -18.3152   19.3275 N   0  0  0  0  0  0  0  0  0  0  0  0
   10.1172  -18.6406   19.4261 C   0  0  1  0  0  0  0  0  0  0  0  0
   10.7073  -18.9838   18.1029 C   0  0  0  0  0  0  0  0  0  0  0  0
   10.5013  -17.9846   17.0153 C   0  0  0  0  0  0  0  0  0  0  0  0
   11.1539  -18.3728   15.7444 C   0  0  0  0  0  0  0  0  0  0  0  0
   12.2261  -17.7605   15.4070 O   0  0  0  0  0  0  0  0  0  0  0  0
   10.7840  -17.5015   20.1052 C   0  0  0  0  0  0  0  0  0  0  0  0
   11.6865  -16.8376   19.5277 O   0  0  0  0  0  0  0  0  0  0  0  0
   10.6985  -19.3417   14.8934 O   0  0  0  0  0  0  0  0  0  0  0  0
    9.6888  -16.6047   23.9369 O   0  0  0  0  0  0  0  0  0  0  0  0
   10.2123  -15.5080   23.2281 C   0  0  0  0  0  0  0  0  0  0  0  0
   11.1198  -16.0612   22.1422 C   0  0  2  0  0  0  0  0  0  0  0  0
   10.4353  -17.1184   21.4196 N   0  0  0  0  0  0  0  0  0  0  0  0
   12.3137  -16.6496   22.7879 C   0  0  0  0  0  0  0  0  0  0  0  0
   12.3639  -17.8834   22.9908 O   0  0  0  0  0  0  0  0  0  0  0  0
   13.4365  -15.8750   23.2010 N   0  0  0  0  0  0  0  0  0  0  0  0
   14.5913  -16.4444   23.8461 C   0  0  1  0  0  0  0  0  0  0  0  0
   15.6882  -15.3843   23.7906 C   0  0  0  0  0  0  0  0  0  0  0  0
   17.0174  -16.0436   23.8811 C   0  0  0  0  0  0  0  0  0  0  0  0
   17.1407  -17.2325   23.4762 O   0  0  0  0  0  0  0  0  0  0  0  0
   14.3073  -16.8131   25.2631 C   0  0  0  0  0  0  0  0  0  0  0  0
   13.5589  -16.0878   25.9636 O   0  0  0  0  0  0  0  0  0  0  0  0
   18.1505  -15.4275   24.3904 O   0  0  0  0  0  0  0  0  0  0  0  0
   14.8479  -17.9476   25.8483 O   0  0  0  0  0  0  0  0  0  0  0  0
  2  1  1  6
  3  2  1  0
  3  4  1  0
  5  4  1  0
  5  9  1  0
  6  5  2  0
  7  8  2  0
  7  2  1  0
 10 11  1  0
 12 11  1  1
 12 14  1  0
 12 13  1  0
 13  7  1  0
 14 16  1  0
 15 14  2  0
 16 17  1  0
 17 21  1  0
 17 18  1  1
 19 18  1  0
 20 19  2  0
 21 22  2  0
 21 24  1  0
 23 19  1  0
M  END
$$$$
