ESD.pdb
     RDKit          3D

 24 23  0  0  1  0  0  0  0  0999 V2000
    7.9456  -16.5661   17.1547 N   0  0  0  0  0  0  0  0  0  0  0  0
    7.2344  -16.5546   18.4272 C   0  0  1  0  0  0  0  0  0  0  0  0
    6.6821  -17.8933   18.7732 C   0  0  0  0  0  0  0  0  0  0  0  0
    7.1383  -19.0295   17.9220 C   0  0  0  0  0  0  0  0  0  0  0  0
    6.5213  -20.3201   18.3036 C   0  0  0  0  0  0  0  0  0  0  0  0
    7.2848  -21.2406   18.7595 O   0  0  0  0  0  0  0  0  0  0  0  0
    8.1638  -16.0053   19.4459 C   0  0  0  0  0  0  0  0  0  0  0  0
    9.4130  -16.0898   19.2998 O   0  0  0  0  0  0  0  0  0  0  0  0
    5.1884  -20.6106   18.2066 O   0  0  0  0  0  0  0  0  0  0  0  0
    6.7466  -14.8384   23.1041 O   0  0  0  0  0  0  0  0  0  0  0  0
    7.7495  -13.9835   22.6114 C   0  0  0  0  0  0  0  0  0  0  0  0
    8.5671  -14.7760   21.6052 C   0  0  2  0  0  0  0  0  0  0  0  0
    7.6874  -15.3694   20.6141 N   0  0  0  0  0  0  0  0  0  0  0  0
    9.2514  -15.8739   22.3228 C   0  0  0  0  0  0  0  0  0  0  0  0
    8.7528  -17.0217   22.3199 O   0  0  0  0  0  0  0  0  0  0  0  0
   10.4744  -15.6964   23.0327 N   0  0  0  0  0  0  0  0  0  0  0  0
   11.1425  -16.7651   23.7295 C   0  0  1  0  0  0  0  0  0  0  0  0
   12.6389  -16.5621   23.5065 C   0  0  0  0  0  0  0  0  0  0  0  0
   13.3949  -17.6044   24.2493 C   0  0  0  0  0  0  0  0  0  0  0  0
   12.9347  -18.7785   24.2967 O   0  0  0  0  0  0  0  0  0  0  0  0
   10.8360  -16.7499   25.1891 C   0  0  0  0  0  0  0  0  0  0  0  0
   11.1885  -17.7116   25.9156 O   0  0  0  0  0  0  0  0  0  0  0  0
   14.5933  -17.3671   24.9054 O   0  0  0  0  0  0  0  0  0  0  0  0
   10.1641  -15.6948   25.7866 O   0  0  0  0  0  0  0  0  0  0  0  0
  2  1  1  6
  3  2  1  0
  3  4  1  0
  5  4  1  0
  5  9  1  0
  6  5  2  0
  7  8  2  0
  7  2  1  0
 10 11  1  0
 12 11  1  1
 12 14  1  0
 12 13  1  0
 13  7  1  0
 14 16  1  0
 15 14  2  0
 16 17  1  0
 17 21  1  0
 17 18  1  1
 19 18  1  0
 20 19  2  0
 21 22  2  0
 21 24  1  0
 23 19  1  0
M  END
$$$$
