ESD.pdb
     RDKit          3D

 24 23  0  0  1  0  0  0  0  0999 V2000
    8.5357  -18.1815   19.2872 N   0  0  0  0  0  0  0  0  0  0  0  0
    9.7981  -17.7358   18.7101 C   0  0  1  0  0  0  0  0  0  0  0  0
    9.6113  -17.0959   17.3787 C   0  0  0  0  0  0  0  0  0  0  0  0
    9.0978  -17.9804   16.2936 C   0  0  0  0  0  0  0  0  0  0  0  0
    9.9594  -17.9757   15.0896 C   0  0  0  0  0  0  0  0  0  0  0  0
   10.1997  -16.8519   14.5260 O   0  0  0  0  0  0  0  0  0  0  0  0
   10.4550  -16.8597   19.7121 C   0  0  0  0  0  0  0  0  0  0  0  0
   11.5330  -16.2625   19.4471 O   0  0  0  0  0  0  0  0  0  0  0  0
   10.5239  -19.0863   14.5255 O   0  0  0  0  0  0  0  0  0  0  0  0
    8.7298  -16.3156   23.4554 O   0  0  0  0  0  0  0  0  0  0  0  0
    9.4523  -15.2361   22.9151 C   0  0  0  0  0  0  0  0  0  0  0  0
   10.5194  -15.8162   22.0020 C   0  0  2  0  0  0  0  0  0  0  0  0
    9.9008  -16.6614   20.9965 N   0  0  0  0  0  0  0  0  0  0  0  0
   11.4200  -16.6613   22.8164 C   0  0  0  0  0  0  0  0  0  0  0  0
   11.1627  -17.8769   22.9654 O   0  0  0  0  0  0  0  0  0  0  0  0
   12.5914  -16.1600   23.4551 N   0  0  0  0  0  0  0  0  0  0  0  0
   13.4350  -16.9672   24.2982 C   0  0  1  0  0  0  0  0  0  0  0  0
   14.7780  -16.2472   24.3877 C   0  0  0  0  0  0  0  0  0  0  0  0
   15.4115  -16.2144   23.0434 C   0  0  0  0  0  0  0  0  0  0  0  0
   15.2536  -17.1970   22.2673 O   0  0  0  0  0  0  0  0  0  0  0  0
   12.8538  -17.1373   25.6612 C   0  0  0  0  0  0  0  0  0  0  0  0
   11.8322  -16.4875   25.9947 O   0  0  0  0  0  0  0  0  0  0  0  0
   16.1782  -15.1569   22.5780 O   0  0  0  0  0  0  0  0  0  0  0  0
   13.4081  -18.0018   26.5924 O   0  0  0  0  0  0  0  0  0  0  0  0
  2  1  1  1
  3  2  1  0
  3  4  1  0
  5  4  1  0
  5  9  1  0
  6  5  2  0
  7  8  2  0
  7  2  1  0
 10 11  1  0
 12 11  1  1
 12 14  1  0
 12 13  1  0
 13  7  1  0
 14 16  1  0
 15 14  2  0
 16 17  1  0
 17 21  1  0
 17 18  1  1
 19 18  1  0
 20 19  2  0
 21 22  2  0
 21 24  1  0
 23 19  1  0
M  END
$$$$
