SQP.pdb
     RDKit          3D

 23 23  0  0  1  0  0  0  0  0999 V2000
   29.6581  -19.8065  -18.0639 O   0  0  0  0  0  0  0  0  0  0  0  0
   28.9018  -19.0871  -17.1707 C   0  0  0  0  0  0  0  0  0  0  0  0
   27.4883  -18.9845  -17.6888 C   0  0  2  0  0  0  0  0  0  0  0  0
   27.4700  -17.9902  -18.7400 N   0  0  0  0  0  0  0  0  0  0  0  0
   26.5519  -18.6467  -16.5844 C   0  0  0  0  0  0  0  0  0  0  0  0
   26.2653  -17.4298  -16.4427 O   0  0  0  0  0  0  0  0  0  0  0  0
   21.3364  -19.2410  -17.4383 N   0  0  0  0  0  0  0  0  0  0  0  0
   21.2020  -18.9247  -16.0667 C   0  0  0  0  0  0  0  0  0  0  0  0
   20.0795  -18.6432  -15.6077 O   0  0  0  0  0  0  0  0  0  0  0  0
   22.3948  -18.9322  -15.1967 C   0  0  0  0  0  0  0  0  0  0  0  0
   23.6494  -19.2551  -16.0073 C   0  0  0  0  0  0  0  0  0  0  0  0
   24.7773  -19.3551  -14.9642 C   0  0  2  0  0  0  0  0  0  0  0  0
   26.0091  -19.6324  -15.7357 N   0  0  0  0  0  0  0  0  0  0  0  0
   24.4917  -20.4632  -14.0428 C   0  0  0  0  0  0  0  0  0  0  0  0
   24.1432  -21.5779  -14.5810 O   0  0  0  0  0  0  0  0  0  0  0  0
   24.5681  -20.4095  -12.6292 N   0  0  0  0  0  0  0  0  0  0  0  0
   25.1501  -19.2253  -11.9589 C   0  0  0  0  0  0  0  0  0  0  0  0
   25.7558  -19.8468  -10.6959 C   0  0  0  0  0  0  0  0  0  0  0  0
   24.6397  -20.7794  -10.3189 C   0  0  0  0  0  0  0  0  0  0  0  0
   24.1809  -21.3494  -11.6344 C   0  0  1  0  0  0  0  0  0  0  0  0
   22.6982  -21.5705  -11.6108 C   0  0  0  0  0  0  0  0  0  0  0  0
   22.2598  -22.4858  -10.8719 O   0  0  0  0  0  0  0  0  0  0  0  0
   21.8147  -20.8294  -12.3463 O   0  0  0  0  0  0  0  0  0  0  0  0
  1  2  1  0
  2  3  1  0
  3  5  1  0
  3  4  1  6
  5  6  2  0
  8  7  1  0
  8 10  1  0
  9  8  2  0
 10 11  1  0
 12 11  1  6
 12 14  1  0
 13 12  1  0
 13  5  1  0
 14 15  2  0
 14 16  1  0
 16 20  1  0
 17 16  1  0
 18 19  1  0
 18 17  1  0
 19 20  1  0
 20 21  1  1
 21 22  2  0
 21 23  1  0
M  END
$$$$
