SQP.pdb
     RDKit          3D

 23 23  0  0  1  0  0  0  0  0999 V2000
   15.6084  -10.4969  -14.8664 O   0  0  0  0  0  0  0  0  0  0  0  0
   14.9949   -9.2858  -14.6562 C   0  0  0  0  0  0  0  0  0  0  0  0
   15.6534   -8.2403  -15.5222 C   0  0  2  0  0  0  0  0  0  0  0  0
   15.6838   -8.7406  -16.8797 N   0  0  0  0  0  0  0  0  0  0  0  0
   17.0141   -7.9238  -15.0133 C   0  0  0  0  0  0  0  0  0  0  0  0
   17.0880   -7.5048  -13.8291 O   0  0  0  0  0  0  0  0  0  0  0  0
   22.1487  -11.0758  -16.0179 N   0  0  0  0  0  0  0  0  0  0  0  0
   22.6162   -9.9799  -15.2565 C   0  0  0  0  0  0  0  0  0  0  0  0
   23.7919   -9.9725  -14.8471 O   0  0  0  0  0  0  0  0  0  0  0  0
   21.7039   -8.8585  -14.9568 C   0  0  0  0  0  0  0  0  0  0  0  0
   20.3125   -9.1302  -15.5272 C   0  0  0  0  0  0  0  0  0  0  0  0
   19.5088   -7.8510  -15.2311 C   0  0  2  0  0  0  0  0  0  0  0  0
   18.1664   -8.0819  -15.8093 N   0  0  0  0  0  0  0  0  0  0  0  0
   20.1565   -6.7064  -15.8858 C   0  0  0  0  0  0  0  0  0  0  0  0
   19.9813   -6.6004  -17.1553 O   0  0  0  0  0  0  0  0  0  0  0  0
   20.9469   -5.7204  -15.2453 N   0  0  0  0  0  0  0  0  0  0  0  0
   21.1205   -5.7436  -13.7757 C   0  0  0  0  0  0  0  0  0  0  0  0
   21.2770   -4.2533  -13.4555 C   0  0  0  0  0  0  0  0  0  0  0  0
   22.1912   -3.8531  -14.5787 C   0  0  0  0  0  0  0  0  0  0  0  0
   21.6575   -4.6049  -15.7686 C   0  0  1  0  0  0  0  0  0  0  0  0
   22.7861   -5.0217  -16.6631 C   0  0  0  0  0  0  0  0  0  0  0  0
   23.2605   -6.1726  -16.5007 O   0  0  0  0  0  0  0  0  0  0  0  0
   23.3133   -4.2165  -17.6349 O   0  0  0  0  0  0  0  0  0  0  0  0
  1  2  1  0
  2  3  1  0
  3  5  1  0
  3  4  1  6
  5  6  2  0
  8  7  1  0
  8 10  1  0
  9  8  2  0
 10 11  1  0
 12 11  1  6
 12 14  1  0
 13 12  1  0
 13  5  1  0
 14 15  2  0
 14 16  1  0
 16 20  1  0
 17 16  1  0
 18 19  1  0
 18 17  1  0
 19 20  1  0
 20 21  1  6
 21 22  2  0
 21 23  1  0
M  END
$$$$
