SQP.pdb
     RDKit          3D

 23 23  0  0  1  0  0  0  0  0999 V2000
   21.7901  -20.8023  -17.4818 O   0  0  0  0  0  0  0  0  0  0  0  0
   21.2012  -19.5620  -17.4347 C   0  0  0  0  0  0  0  0  0  0  0  0
   21.0057  -19.1612  -15.9933 C   0  0  2  0  0  0  0  0  0  0  0  0
   20.3151  -17.8897  -15.9739 N   0  0  0  0  0  0  0  0  0  0  0  0
   22.3132  -19.0971  -15.2884 C   0  0  0  0  0  0  0  0  0  0  0  0
   23.0097  -18.0684  -15.4879 O   0  0  0  0  0  0  0  0  0  0  0  0
   26.3434  -22.1551  -11.7996 N   0  0  0  0  0  0  0  0  0  0  0  0
   26.0222  -20.9490  -11.1351 C   0  0  0  0  0  0  0  0  0  0  0  0
   26.7992  -20.4952  -10.2746 O   0  0  0  0  0  0  0  0  0  0  0  0
   24.7694  -20.2434  -11.4703 C   0  0  0  0  0  0  0  0  0  0  0  0
   24.0151  -20.9826  -12.5747 C   0  0  0  0  0  0  0  0  0  0  0  0
   24.0865  -20.0465  -13.7949 C   0  0  2  0  0  0  0  0  0  0  0  0
   22.7571  -20.1307  -14.4392 N   0  0  0  0  0  0  0  0  0  0  0  0
   25.1299  -20.5221  -14.7132 C   0  0  0  0  0  0  0  0  0  0  0  0
   24.8872  -21.6228  -15.3323 O   0  0  0  0  0  0  0  0  0  0  0  0
   26.3650  -19.8787  -14.9731 N   0  0  0  0  0  0  0  0  0  0  0  0
   26.7110  -18.6205  -14.2747 C   0  0  0  0  0  0  0  0  0  0  0  0
   27.5768  -17.9100  -15.3206 C   0  0  0  0  0  0  0  0  0  0  0  0
   28.4066  -19.0727  -15.7867 C   0  0  0  0  0  0  0  0  0  0  0  0
   27.4277  -20.2142  -15.8568 C   0  0  1  0  0  0  0  0  0  0  0  0
   28.1025  -21.4959  -15.4700 C   0  0  0  0  0  0  0  0  0  0  0  0
   28.9100  -21.9969  -16.2902 O   0  0  0  0  0  0  0  0  0  0  0  0
   27.8821  -22.1335  -14.2802 O   0  0  0  0  0  0  0  0  0  0  0  0
  1  2  1  0
  2  3  1  0
  3  5  1  0
  3  4  1  6
  5  6  2  0
  8  7  1  0
  8 10  1  0
  9  8  2  0
 10 11  1  0
 12 11  1  1
 12 14  1  0
 13 12  1  0
 13  5  1  0
 14 15  2  0
 14 16  1  0
 16 20  1  0
 17 16  1  0
 18 19  1  0
 18 17  1  0
 19 20  1  0
 20 21  1  1
 21 22  2  0
 21 23  1  0
M  END
$$$$
