SQP.pdb
     RDKit          3D

 23 23  0  0  1  0  0  0  0  0999 V2000
   27.3705  -20.4230  -18.2750 O   0  0  0  0  0  0  0  0  0  0  0  0
   27.9732  -19.8310  -17.1916 C   0  0  0  0  0  0  0  0  0  0  0  0
   28.4311  -20.9026  -16.2330 C   0  0  2  0  0  0  0  0  0  0  0  0
   28.9077  -22.0243  -17.0131 N   0  0  0  0  0  0  0  0  0  0  0  0
   27.3258  -21.2890  -15.3168 C   0  0  0  0  0  0  0  0  0  0  0  0
   26.8060  -22.4188  -15.5081 O   0  0  0  0  0  0  0  0  0  0  0  0
   26.4576  -21.1033   -9.8055 N   0  0  0  0  0  0  0  0  0  0  0  0
   25.0724  -20.9845  -10.0628 C   0  0  0  0  0  0  0  0  0  0  0  0
   24.2529  -21.3889   -9.2172 O   0  0  0  0  0  0  0  0  0  0  0  0
   24.6156  -20.3825  -11.3312 C   0  0  0  0  0  0  0  0  0  0  0  0
   25.8094  -19.9571  -12.1850 C   0  0  0  0  0  0  0  0  0  0  0  0
   25.7189  -20.8288  -13.4507 C   0  0  2  0  0  0  0  0  0  0  0  0
   26.8773  -20.4398  -14.2852 N   0  0  0  0  0  0  0  0  0  0  0  0
   24.4623  -20.5373  -14.1539 C   0  0  0  0  0  0  0  0  0  0  0  0
   24.3663  -19.3736  -14.6927 O   0  0  0  0  0  0  0  0  0  0  0  0
   23.3614  -21.4187  -14.2888 N   0  0  0  0  0  0  0  0  0  0  0  0
   23.4326  -22.7897  -13.7360 C   0  0  0  0  0  0  0  0  0  0  0  0
   22.5404  -23.5665  -14.7100 C   0  0  0  0  0  0  0  0  0  0  0  0
   21.4107  -22.5856  -14.8475 C   0  0  0  0  0  0  0  0  0  0  0  0
   22.0962  -21.2472  -14.9155 C   0  0  1  0  0  0  0  0  0  0  0  0
   21.2621  -20.2059  -14.2317 C   0  0  0  0  0  0  0  0  0  0  0  0
   20.2414  -19.7925  -14.8343 O   0  0  0  0  0  0  0  0  0  0  0  0
   21.5583  -19.6948  -12.9981 O   0  0  0  0  0  0  0  0  0  0  0  0
  1  2  1  0
  2  3  1  0
  3  5  1  0
  3  4  1  6
  5  6  2  0
  8  7  1  0
  8 10  1  0
  9  8  2  0
 10 11  1  0
 12 11  1  1
 12 14  1  0
 13 12  1  0
 13  5  1  0
 14 15  2  0
 14 16  1  0
 16 20  1  0
 17 16  1  0
 18 19  1  0
 18 17  1  0
 19 20  1  0
 20 21  1  1
 21 22  2  0
 21 23  1  0
M  END
$$$$
