SQP.pdb
     RDKit          3D

 23 23  0  0  1  0  0  0  0  0999 V2000
   24.0070  -12.7873  -19.0010 O   0  0  0  0  0  0  0  0  0  0  0  0
   23.3161  -13.6177  -18.1522 C   0  0  0  0  0  0  0  0  0  0  0  0
   21.8936  -13.7497  -18.6378 C   0  0  2  0  0  0  0  0  0  0  0  0
   21.9320  -14.0587  -20.0510 N   0  0  0  0  0  0  0  0  0  0  0  0
   21.1302  -12.5047  -18.3590 C   0  0  0  0  0  0  0  0  0  0  0  0
   21.1808  -11.6055  -19.2376 O   0  0  0  0  0  0  0  0  0  0  0  0
   16.7972  -13.6582  -14.6010 N   0  0  0  0  0  0  0  0  0  0  0  0
   16.5271  -12.9595  -15.8003 C   0  0  0  0  0  0  0  0  0  0  0  0
   15.3483  -12.7152  -16.1175 O   0  0  0  0  0  0  0  0  0  0  0  0
   17.6467  -12.5287  -16.6608 C   0  0  0  0  0  0  0  0  0  0  0  0
   18.5007  -11.4812  -15.9477 C   0  0  0  0  0  0  0  0  0  0  0  0
   19.5910  -11.1020  -16.9663 C   0  0  2  0  0  0  0  0  0  0  0  0
   20.3861  -12.3325  -17.1745 N   0  0  0  0  0  0  0  0  0  0  0  0
   20.4342  -10.0385  -16.4039 C   0  0  0  0  0  0  0  0  0  0  0  0
   21.4294  -10.4194  -15.6840 O   0  0  0  0  0  0  0  0  0  0  0  0
   20.2477   -8.6460  -16.5862 N   0  0  0  0  0  0  0  0  0  0  0  0
   19.2148   -8.1488  -17.5223 C   0  0  0  0  0  0  0  0  0  0  0  0
   19.8399   -6.8376  -18.0104 C   0  0  0  0  0  0  0  0  0  0  0  0
   20.3628   -6.3110  -16.7039 C   0  0  0  0  0  0  0  0  0  0  0  0
   20.9190   -7.5291  -16.0163 C   0  0  1  0  0  0  0  0  0  0  0  0
   20.6989   -7.4308  -14.5366 C   0  0  0  0  0  0  0  0  0  0  0  0
   19.7607   -8.1036  -14.0437 O   0  0  0  0  0  0  0  0  0  0  0  0
   21.4643   -6.6535  -13.7115 O   0  0  0  0  0  0  0  0  0  0  0  0
  1  2  1  0
  2  3  1  0
  3  5  1  0
  3  4  1  6
  5  6  2  0
  8  7  1  0
  8 10  1  0
  9  8  2  0
 10 11  1  0
 12 11  1  1
 12 14  1  0
 13 12  1  0
 13  5  1  0
 14 15  2  0
 14 16  1  0
 16 20  1  0
 17 16  1  0
 18 19  1  0
 18 17  1  0
 19 20  1  0
 20 21  1  1
 21 22  2  0
 21 23  1  0
M  END
$$$$
