SQP.pdb
     RDKit          3D

 23 23  0  0  1  0  0  0  0  0999 V2000
   21.1502  -10.7067  -13.3415 O   0  0  0  0  0  0  0  0  0  0  0  0
   21.4148   -9.4201  -13.7439 C   0  0  0  0  0  0  0  0  0  0  0  0
   21.9170   -9.4396  -15.1666 C   0  0  2  0  0  0  0  0  0  0  0  0
   23.2467  -10.0105  -15.1620 N   0  0  0  0  0  0  0  0  0  0  0  0
   21.8995   -8.0697  -15.7441 C   0  0  0  0  0  0  0  0  0  0  0  0
   22.9699   -7.4130  -15.6662 O   0  0  0  0  0  0  0  0  0  0  0  0
   18.8732   -8.9077  -19.1517 N   0  0  0  0  0  0  0  0  0  0  0  0
   20.2325   -8.5184  -19.1627 C   0  0  0  0  0  0  0  0  0  0  0  0
   21.1215   -9.3874  -19.0955 O   0  0  0  0  0  0  0  0  0  0  0  0
   20.5799   -7.0864  -19.2538 C   0  0  0  0  0  0  0  0  0  0  0  0
   19.8308   -6.2828  -18.1916 C   0  0  0  0  0  0  0  0  0  0  0  0
   20.8038   -6.2002  -17.0014 C   0  0  2  0  0  0  0  0  0  0  0  0
   20.7479   -7.5273  -16.3491 N   0  0  0  0  0  0  0  0  0  0  0  0
   20.3503   -5.1557  -16.0732 C   0  0  0  0  0  0  0  0  0  0  0  0
   19.4854   -5.5122  -15.1908 O   0  0  0  0  0  0  0  0  0  0  0  0
   20.7803   -3.8058  -16.0664 N   0  0  0  0  0  0  0  0  0  0  0  0
   21.8371   -3.3559  -16.9997 C   0  0  0  0  0  0  0  0  0  0  0  0
   22.5148   -2.2437  -16.1923 C   0  0  0  0  0  0  0  0  0  0  0  0
   21.2961   -1.5635  -15.6359 C   0  0  0  0  0  0  0  0  0  0  0  0
   20.3814   -2.7003  -15.2655 C   0  0  1  0  0  0  0  0  0  0  0  0
   18.9536   -2.3121  -15.5069 C   0  0  0  0  0  0  0  0  0  0  0  0
   18.4254   -2.6840  -16.5833 O   0  0  0  0  0  0  0  0  0  0  0  0
   18.2112   -1.5831  -14.6193 O   0  0  0  0  0  0  0  0  0  0  0  0
  1  2  1  0
  2  3  1  0
  3  5  1  0
  3  4  1  1
  5  6  2  0
  8  7  1  0
  8 10  1  0
  9  8  2  0
 10 11  1  0
 12 11  1  6
 12 14  1  0
 13 12  1  0
 13  5  1  0
 14 15  2  0
 14 16  1  0
 16 20  1  0
 17 16  1  0
 18 19  1  0
 18 17  1  0
 19 20  1  0
 20 21  1  6
 21 22  2  0
 21 23  1  0
M  END
$$$$
