SQP.pdb
     RDKit          3D

 23 23  0  0  1  0  0  0  0  0999 V2000
   28.4403  -18.5889  -16.8888 O   0  0  0  0  0  0  0  0  0  0  0  0
   27.3285  -19.3237  -16.5553 C   0  0  0  0  0  0  0  0  0  0  0  0
   27.7478  -20.4987  -15.7066 C   0  0  2  0  0  0  0  0  0  0  0  0
   28.4758  -21.4212  -16.5510 N   0  0  0  0  0  0  0  0  0  0  0  0
   26.5615  -21.1359  -15.0763 C   0  0  0  0  0  0  0  0  0  0  0  0
   26.2931  -22.3096  -15.4418 O   0  0  0  0  0  0  0  0  0  0  0  0
   24.6466  -20.3902   -9.3486 N   0  0  0  0  0  0  0  0  0  0  0  0
   25.6595  -21.2035   -9.9070 C   0  0  0  0  0  0  0  0  0  0  0  0
   26.5279  -21.7000   -9.1658 O   0  0  0  0  0  0  0  0  0  0  0  0
   25.6743  -21.4533  -11.3620 C   0  0  0  0  0  0  0  0  0  0  0  0
   24.5580  -20.6714  -12.0531 C   0  0  0  0  0  0  0  0  0  0  0  0
   24.5989  -21.1390  -13.5193 C   0  0  2  0  0  0  0  0  0  0  0  0
   25.7731  -20.4669  -14.1185 N   0  0  0  0  0  0  0  0  0  0  0  0
   23.3670  -20.7173  -14.1996 C   0  0  0  0  0  0  0  0  0  0  0  0
   23.2849  -19.4726  -14.5124 O   0  0  0  0  0  0  0  0  0  0  0  0
   22.2756  -21.5549  -14.5377 N   0  0  0  0  0  0  0  0  0  0  0  0
   22.2796  -22.9806  -14.1406 C   0  0  0  0  0  0  0  0  0  0  0  0
   21.4779  -23.6242  -15.2770 C   0  0  0  0  0  0  0  0  0  0  0  0
   20.3764  -22.6108  -15.4079 C   0  0  0  0  0  0  0  0  0  0  0  0
   21.0784  -21.2878  -15.2577 C   0  0  1  0  0  0  0  0  0  0  0  0
   20.1926  -20.3130  -14.5416 C   0  0  0  0  0  0  0  0  0  0  0  0
   19.2802  -19.7623  -15.2052 O   0  0  0  0  0  0  0  0  0  0  0  0
   20.3309  -20.0026  -13.2167 O   0  0  0  0  0  0  0  0  0  0  0  0
  1  2  1  0
  2  3  1  0
  3  5  1  0
  3  4  1  6
  5  6  2  0
  8  7  1  0
  8 10  1  0
  9  8  2  0
 10 11  1  0
 12 11  1  1
 12 14  1  0
 13 12  1  0
 13  5  1  0
 14 15  2  0
 14 16  1  0
 16 20  1  0
 17 16  1  0
 18 19  1  0
 18 17  1  0
 19 20  1  0
 20 21  1  1
 21 22  2  0
 21 23  1  0
M  END
$$$$
