SQP.pdb
     RDKit          3D

 23 23  0  0  1  0  0  0  0  0999 V2000
   38.9669  -27.1333  -18.2212 O   0  0  0  0  0  0  0  0  0  0  0  0
   37.7487  -27.7659  -18.1677 C   0  0  0  0  0  0  0  0  0  0  0  0
   37.6003  -28.4418  -16.8269 C   0  0  2  0  0  0  0  0  0  0  0  0
   38.3088  -27.6476  -15.8465 N   0  0  0  0  0  0  0  0  0  0  0  0
   38.1089  -29.8376  -16.8878 C   0  0  0  0  0  0  0  0  0  0  0  0
   39.3076  -30.0144  -16.5488 O   0  0  0  0  0  0  0  0  0  0  0  0
   33.9636  -32.4802  -16.7313 N   0  0  0  0  0  0  0  0  0  0  0  0
   34.7133  -32.7601  -15.5655 C   0  0  0  0  0  0  0  0  0  0  0  0
   34.1702  -32.6698  -14.4489 O   0  0  0  0  0  0  0  0  0  0  0  0
   36.1304  -33.1557  -15.6877 C   0  0  0  0  0  0  0  0  0  0  0  0
   36.5530  -33.1948  -17.1557 C   0  0  0  0  0  0  0  0  0  0  0  0
   37.8041  -32.3007  -17.2292 C   0  0  2  0  0  0  0  0  0  0  0  0
   37.2972  -30.9124  -17.3029 N   0  0  0  0  0  0  0  0  0  0  0  0
   38.5677  -32.6302  -18.4404 C   0  0  0  0  0  0  0  0  0  0  0  0
   38.1730  -32.0772  -19.5322 O   0  0  0  0  0  0  0  0  0  0  0  0
   39.6891  -33.4934  -18.5069 N   0  0  0  0  0  0  0  0  0  0  0  0
   40.2747  -34.0510  -17.2674 C   0  0  0  0  0  0  0  0  0  0  0  0
   41.7518  -34.1856  -17.6522 C   0  0  0  0  0  0  0  0  0  0  0  0
   41.5969  -34.7407  -19.0398 C   0  0  0  0  0  0  0  0  0  0  0  0
   40.4443  -33.9631  -19.6168 C   0  0  1  0  0  0  0  0  0  0  0  0
   39.6335  -34.8402  -20.5229 C   0  0  0  0  0  0  0  0  0  0  0  0
   40.1597  -35.2014  -21.6040 O   0  0  0  0  0  0  0  0  0  0  0  0
   38.3655  -35.2595  -20.2281 O   0  0  0  0  0  0  0  0  0  0  0  0
  1  2  1  0
  2  3  1  0
  3  5  1  0
  3  4  1  1
  5  6  2  0
  8  7  1  0
  8 10  1  0
  9  8  2  0
 10 11  1  0
 12 11  1  6
 12 14  1  0
 13 12  1  0
 13  5  1  0
 14 15  2  0
 14 16  1  0
 16 20  1  0
 17 16  1  0
 18 19  1  0
 18 17  1  0
 19 20  1  0
 20 21  1  6
 21 22  2  0
 21 23  1  0
M  END
$$$$
