SQP.pdb
     RDKit          3D

 23 23  0  0  1  0  0  0  0  0999 V2000
   29.0211  -19.2136  -17.9918 O   0  0  0  0  0  0  0  0  0  0  0  0
   28.0109  -20.0267  -17.5382 C   0  0  0  0  0  0  0  0  0  0  0  0
   28.5453  -20.9157  -16.4424 C   0  0  2  0  0  0  0  0  0  0  0  0
   29.1213  -22.0897  -17.0620 N   0  0  0  0  0  0  0  0  0  0  0  0
   27.4658  -21.2644  -15.4814 C   0  0  0  0  0  0  0  0  0  0  0  0
   26.9215  -22.3889  -15.6310 O   0  0  0  0  0  0  0  0  0  0  0  0
   26.8747  -21.1767   -9.9660 N   0  0  0  0  0  0  0  0  0  0  0  0
   25.4857  -20.9946  -10.1578 C   0  0  0  0  0  0  0  0  0  0  0  0
   24.6853  -21.4340   -9.3115 O   0  0  0  0  0  0  0  0  0  0  0  0
   25.0026  -20.2856  -11.3594 C   0  0  0  0  0  0  0  0  0  0  0  0
   26.1714  -19.9154  -12.2715 C   0  0  0  0  0  0  0  0  0  0  0  0
   25.9629  -20.7602  -13.5414 C   0  0  2  0  0  0  0  0  0  0  0  0
   27.0666  -20.3866  -14.4534 N   0  0  0  0  0  0  0  0  0  0  0  0
   24.6663  -20.4220  -14.1439 C   0  0  0  0  0  0  0  0  0  0  0  0
   24.5571  -19.2396  -14.6376 O   0  0  0  0  0  0  0  0  0  0  0  0
   23.5401  -21.2775  -14.2276 N   0  0  0  0  0  0  0  0  0  0  0  0
   23.6147  -22.6605  -13.7061 C   0  0  0  0  0  0  0  0  0  0  0  0
   22.6481  -23.3989  -14.6381 C   0  0  0  0  0  0  0  0  0  0  0  0
   21.5339  -22.3922  -14.6877 C   0  0  0  0  0  0  0  0  0  0  0  0
   22.2432  -21.0672  -14.7724 C   0  0  1  0  0  0  0  0  0  0  0  0
   21.4753  -20.0228  -14.0193 C   0  0  0  0  0  0  0  0  0  0  0  0
   20.5210  -19.4636  -14.6130 O   0  0  0  0  0  0  0  0  0  0  0  0
   21.7628  -19.6584  -12.7327 O   0  0  0  0  0  0  0  0  0  0  0  0
  1  2  1  0
  2  3  1  0
  3  5  1  0
  3  4  1  6
  5  6  2  0
  8  7  1  0
  8 10  1  0
  9  8  2  0
 10 11  1  0
 12 11  1  1
 12 14  1  0
 13 12  1  0
 13  5  1  0
 14 15  2  0
 14 16  1  0
 16 20  1  0
 17 16  1  0
 18 19  1  0
 18 17  1  0
 19 20  1  0
 20 21  1  1
 21 22  2  0
 21 23  1  0
M  END
$$$$
