SQP.pdb
     RDKit          3D

 23 23  0  0  1  0  0  0  0  0999 V2000
   27.1638  -14.7854  -15.2041 O   0  0  0  0  0  0  0  0  0  0  0  0
   26.4111  -13.7954  -15.7879 C   0  0  0  0  0  0  0  0  0  0  0  0
   25.2248  -14.4190  -16.4810 C   0  0  2  0  0  0  0  0  0  0  0  0
   25.7053  -15.0919  -17.6685 N   0  0  0  0  0  0  0  0  0  0  0  0
   24.2046  -13.3853  -16.7992 C   0  0  0  0  0  0  0  0  0  0  0  0
   24.3130  -12.8129  -17.9144 O   0  0  0  0  0  0  0  0  0  0  0  0
   18.2168  -13.6329  -15.5760 N   0  0  0  0  0  0  0  0  0  0  0  0
   18.3540  -12.4367  -16.3173 C   0  0  0  0  0  0  0  0  0  0  0  0
   17.3376  -11.8555  -16.7406 O   0  0  0  0  0  0  0  0  0  0  0  0
   19.7011  -11.8923  -16.5797 C   0  0  0  0  0  0  0  0  0  0  0  0
   20.7760  -12.8296  -16.0311 C   0  0  0  0  0  0  0  0  0  0  0  0
   22.1070  -12.1069  -16.3072 C   0  0  2  0  0  0  0  0  0  0  0  0
   23.1669  -13.0573  -15.9036 N   0  0  0  0  0  0  0  0  0  0  0  0
   22.1773  -10.8872  -15.4912 C   0  0  0  0  0  0  0  0  0  0  0  0
   22.3504  -11.0546  -14.2280 O   0  0  0  0  0  0  0  0  0  0  0  0
   22.0736   -9.5585  -15.9716 N   0  0  0  0  0  0  0  0  0  0  0  0
   21.7886   -9.3033  -17.4013 C   0  0  0  0  0  0  0  0  0  0  0  0
   22.5201   -7.9771  -17.6343 C   0  0  0  0  0  0  0  0  0  0  0  0
   22.1282   -7.2537  -16.3770 C   0  0  0  0  0  0  0  0  0  0  0  0
   22.2154   -8.3090  -15.3071 C   0  0  1  0  0  0  0  0  0  0  0  0
   21.1462   -8.0899  -14.2792 C   0  0  0  0  0  0  0  0  0  0  0  0
   21.3502   -7.2086  -13.4088 O   0  0  0  0  0  0  0  0  0  0  0  0
   19.9751   -8.7957  -14.2488 O   0  0  0  0  0  0  0  0  0  0  0  0
  1  2  1  0
  2  3  1  0
  3  5  1  0
  3  4  1  6
  5  6  2  0
  8  7  1  0
  8 10  1  0
  9  8  2  0
 10 11  1  0
 12 11  1  1
 12 14  1  0
 13 12  1  0
 13  5  1  0
 14 15  2  0
 14 16  1  0
 16 20  1  0
 17 16  1  0
 18 19  1  0
 18 17  1  0
 19 20  1  0
 20 21  1  1
 21 22  2  0
 21 23  1  0
M  END
$$$$
