SQP.pdb
     RDKit          3D

 23 23  0  0  1  0  0  0  0  0999 V2000
   27.6972  -19.8657  -17.2591 O   0  0  0  0  0  0  0  0  0  0  0  0
   27.6943  -19.0438  -16.1584 C   0  0  0  0  0  0  0  0  0  0  0  0
   27.9174  -19.8751  -14.9191 C   0  0  2  0  0  0  0  0  0  0  0  0
   27.9694  -21.2651  -15.3183 N   0  0  0  0  0  0  0  0  0  0  0  0
   26.8454  -19.6205  -13.9209 C   0  0  0  0  0  0  0  0  0  0  0  0
   26.6950  -18.4279  -13.5492 O   0  0  0  0  0  0  0  0  0  0  0  0
   21.3990  -19.8267  -14.0055 N   0  0  0  0  0  0  0  0  0  0  0  0
   21.4171  -19.9928  -12.6014 C   0  0  0  0  0  0  0  0  0  0  0  0
   20.4223  -19.6613  -11.9302 O   0  0  0  0  0  0  0  0  0  0  0  0
   22.6155  -20.5572  -11.9496 C   0  0  0  0  0  0  0  0  0  0  0  0
   23.6806  -20.9029  -12.9894 C   0  0  0  0  0  0  0  0  0  0  0  0
   24.9957  -20.3599  -12.4016 C   0  0  2  0  0  0  0  0  0  0  0  0
   26.0352  -20.6556  -13.4123 N   0  0  0  0  0  0  0  0  0  0  0  0
   25.2926  -21.0594  -11.1442 C   0  0  0  0  0  0  0  0  0  0  0  0
   25.3843  -22.3403  -11.2113 O   0  0  0  0  0  0  0  0  0  0  0  0
   25.4858  -20.4504   -9.8797 N   0  0  0  0  0  0  0  0  0  0  0  0
   25.6052  -18.9792   -9.7718 C   0  0  0  0  0  0  0  0  0  0  0  0
   26.5368  -18.8287   -8.5645 C   0  0  0  0  0  0  0  0  0  0  0  0
   25.9381  -19.8670   -7.6584 C   0  0  0  0  0  0  0  0  0  0  0  0
   25.6161  -21.0129   -8.5799 C   0  0  1  0  0  0  0  0  0  0  0  0
   24.3602  -21.6977   -8.1309 C   0  0  0  0  0  0  0  0  0  0  0  0
   23.3040  -21.4432   -8.7597 O   0  0  0  0  0  0  0  0  0  0  0  0
   24.3149  -22.5757   -7.0831 O   0  0  0  0  0  0  0  0  0  0  0  0
  1  2  1  0
  2  3  1  0
  3  5  1  0
  3  4  1  6
  5  6  2  0
  8  7  1  0
  8 10  1  0
  9  8  2  0
 10 11  1  0
 12 11  1  6
 12 14  1  0
 13 12  1  0
 13  5  1  0
 14 15  2  0
 14 16  1  0
 16 20  1  0
 17 16  1  0
 18 19  1  0
 18 17  1  0
 19 20  1  0
 20 21  1  1
 21 22  2  0
 21 23  1  0
M  END
$$$$
