SQP.pdb
     RDKit          3D

 23 23  0  0  1  0  0  0  0  0999 V2000
   28.6043  -23.0158  -18.7768 O   0  0  0  0  0  0  0  0  0  0  0  0
   28.2056  -22.3780  -17.6272 C   0  0  0  0  0  0  0  0  0  0  0  0
   27.5443  -21.0712  -17.9899 C   0  0  2  0  0  0  0  0  0  0  0  0
   28.5746  -20.1599  -18.4393 N   0  0  0  0  0  0  0  0  0  0  0  0
   26.7878  -20.5305  -16.8298 C   0  0  0  0  0  0  0  0  0  0  0  0
   27.4337  -19.8137  -16.0222 O   0  0  0  0  0  0  0  0  0  0  0  0
   22.1895  -17.2554  -16.9059 N   0  0  0  0  0  0  0  0  0  0  0  0
   22.1104  -17.5786  -15.5316 C   0  0  0  0  0  0  0  0  0  0  0  0
   21.5662  -16.7835  -14.7432 O   0  0  0  0  0  0  0  0  0  0  0  0
   22.6743  -18.8550  -15.0494 C   0  0  0  0  0  0  0  0  0  0  0  0
   23.3930  -19.5872  -16.1819 C   0  0  0  0  0  0  0  0  0  0  0  0
   24.6757  -20.1449  -15.5387 C   0  0  2  0  0  0  0  0  0  0  0  0
   25.4182  -20.8019  -16.6372 N   0  0  0  0  0  0  0  0  0  0  0  0
   24.3159  -21.1268  -14.5069 C   0  0  0  0  0  0  0  0  0  0  0  0
   23.6813  -22.1707  -14.9086 O   0  0  0  0  0  0  0  0  0  0  0  0
   24.6063  -21.0240  -13.1241 N   0  0  0  0  0  0  0  0  0  0  0  0
   25.4541  -19.9201  -12.6210 C   0  0  0  0  0  0  0  0  0  0  0  0
   26.1369  -20.5745  -11.4152 C   0  0  0  0  0  0  0  0  0  0  0  0
   24.9593  -21.2985  -10.8264 C   0  0  0  0  0  0  0  0  0  0  0  0
   24.2307  -21.8448  -12.0250 C   0  0  1  0  0  0  0  0  0  0  0  0
   22.7514  -21.8239  -11.7823 C   0  0  0  0  0  0  0  0  0  0  0  0
   22.0853  -20.9158  -12.3368 O   0  0  0  0  0  0  0  0  0  0  0  0
   22.1044  -22.7375  -10.9965 O   0  0  0  0  0  0  0  0  0  0  0  0
  1  2  1  0
  2  3  1  0
  3  5  1  0
  3  4  1  1
  5  6  2  0
  8  7  1  0
  8 10  1  0
  9  8  2  0
 10 11  1  0
 12 11  1  6
 12 14  1  0
 13 12  1  0
 13  5  1  0
 14 15  2  0
 14 16  1  0
 16 20  1  0
 17 16  1  0
 18 19  1  0
 18 17  1  0
 19 20  1  0
 20 21  1  1
 21 22  2  0
 21 23  1  0
M  END
$$$$
