SQP.pdb
     RDKit          3D

 23 23  0  0  1  0  0  0  0  0999 V2000
   45.1098   -9.4295   -4.9387 O   0  0  0  0  0  0  0  0  0  0  0  0
   44.6046   -9.3352   -6.2128 C   0  0  0  0  0  0  0  0  0  0  0  0
   43.6756  -10.4973   -6.4643 C   0  0  2  0  0  0  0  0  0  0  0  0
   44.4515  -11.5695   -7.0493 N   0  0  0  0  0  0  0  0  0  0  0  0
   42.5476  -10.0826   -7.3396 C   0  0  0  0  0  0  0  0  0  0  0  0
   42.7536  -10.1245   -8.5801 O   0  0  0  0  0  0  0  0  0  0  0  0
   36.0453   -7.1352   -7.0348 N   0  0  0  0  0  0  0  0  0  0  0  0
   36.6021   -8.4347   -7.0591 C   0  0  0  0  0  0  0  0  0  0  0  0
   36.0263   -9.3617   -6.4599 O   0  0  0  0  0  0  0  0  0  0  0  0
   37.8592   -8.6754   -7.7949 C   0  0  0  0  0  0  0  0  0  0  0  0
   38.9896   -9.0251   -6.8278 C   0  0  0  0  0  0  0  0  0  0  0  0
   40.2276   -9.2180   -7.7224 C   0  0  2  0  0  0  0  0  0  0  0  0
   41.3085   -9.6628   -6.8150 N   0  0  0  0  0  0  0  0  0  0  0  0
   40.5811   -7.9364   -8.3476 C   0  0  0  0  0  0  0  0  0  0  0  0
   41.2333   -7.1045   -7.6153 O   0  0  0  0  0  0  0  0  0  0  0  0
   40.2699   -7.5442   -9.6729 N   0  0  0  0  0  0  0  0  0  0  0  0
   39.6796   -8.5175  -10.6188 C   0  0  0  0  0  0  0  0  0  0  0  0
   40.2336   -8.0257  -11.9602 C   0  0  0  0  0  0  0  0  0  0  0  0
   40.0459   -6.5461  -11.7784 C   0  0  0  0  0  0  0  0  0  0  0  0
   40.4378   -6.3023  -10.3456 C   0  0  1  0  0  0  0  0  0  0  0  0
   39.5854   -5.2192   -9.7557 C   0  0  0  0  0  0  0  0  0  0  0  0
   40.1063   -4.0866   -9.6080 O   0  0  0  0  0  0  0  0  0  0  0  0
   38.2842   -5.4067   -9.3782 O   0  0  0  0  0  0  0  0  0  0  0  0
  1  2  1  0
  2  3  1  0
  3  5  1  0
  3  4  1  6
  5  6  2  0
  8  7  1  0
  8 10  1  0
  9  8  2  0
 10 11  1  0
 12 11  1  1
 12 14  1  0
 13 12  1  0
 13  5  1  0
 14 15  2  0
 14 16  1  0
 16 20  1  0
 17 16  1  0
 18 19  1  0
 18 17  1  0
 19 20  1  0
 20 21  1  1
 21 22  2  0
 21 23  1  0
M  END
$$$$
