TEC.pdb
     RDKit          3D

 23 22  0  0  1  0  0  0  0  0999 V2000
    7.8025  -12.0553   18.9557 C   0  0  0  0  0  0  0  0  0  0  0  0
    8.5663  -13.1106   19.6797 C   0  0  1  0  0  0  0  0  0  0  0  0
    7.9708  -13.3213   20.9247 O   0  0  0  0  0  0  0  0  0  0  0  0
    8.6113  -14.4201   18.9247 C   0  0  2  0  0  0  0  0  0  0  0  0
    7.1987  -14.8140   18.7338 N   0  0  0  0  0  0  0  0  0  0  0  0
    9.2438  -15.5159   19.6925 C   0  0  0  0  0  0  0  0  0  0  0  0
    8.5223  -16.2803   20.3847 O   0  0  0  0  0  0  0  0  0  0  0  0
   10.6408  -15.7642   19.6962 N   0  0  0  0  0  0  0  0  0  0  0  0
   11.3049  -16.6843   20.6189 C   0  0  1  0  0  0  0  0  0  0  0  0
   12.5553  -17.1895   20.0282 C   0  0  0  0  0  0  0  0  0  0  0  0
   13.3833  -18.1361   20.8098 C   0  0  0  0  0  0  0  0  0  0  0  0
   14.6206  -18.6313   20.2376 C   0  0  0  0  0  0  0  0  0  0  0  0
   14.8111  -19.4377   19.3262 O   0  0  0  0  0  0  0  0  0  0  0  0
   11.2909  -16.2144   21.9898 C   0  0  0  0  0  0  0  0  0  0  0  0
   11.4804  -14.9940   22.2277 O   0  0  0  0  0  0  0  0  0  0  0  0
   15.8090  -18.1072   20.8150 O   0  0  0  0  0  0  0  0  0  0  0  0
   11.0660  -17.0704   23.1112 N   0  0  0  0  0  0  0  0  0  0  0  0
   10.5380  -16.6437   24.3654 C   0  0  1  0  0  0  0  0  0  0  0  0
    9.1534  -16.0377   24.2432 C   0  0  0  0  0  0  0  0  0  0  0  0
    8.5859  -15.4455   25.8610 S   0  0  0  0  0  0  0  0  0  0  0  0
   10.4773  -17.7237   25.3785 C   0  0  0  0  0  0  0  0  0  0  0  0
   10.7245  -19.0306   24.9901 O   0  0  0  0  0  0  0  0  0  0  0  0
   10.2088  -17.5082   26.5878 O   0  0  0  0  0  0  0  0  0  0  0  0
  2  3  1  0
  2  1  1  6
  4  2  1  0
  4  5  1  1
  6  8  1  0
  6  4  1  0
  7  6  2  0
  9  8  1  0
  9 14  1  0
  9 10  1  6
 11 10  1  0
 12 11  1  0
 13 12  2  0
 14 17  1  0
 15 14  2  0
 16 12  1  0
 17 18  1  0
 18 19  1  6
 18 21  1  0
 20 19  1  0
 21 22  1  0
 23 21  2  0
M  END
$$$$
