TEC.pdb
     RDKit          3D

 23 22  0  0  1  0  0  0  0  0999 V2000
    6.8761  -14.0549   19.7751 C   0  0  0  0  0  0  0  0  0  0  0  0
    7.7868  -14.4654   20.8812 C   0  0  1  0  0  0  0  0  0  0  0  0
    7.1561  -14.2095   22.1002 O   0  0  0  0  0  0  0  0  0  0  0  0
    8.1617  -15.9289   20.8156 C   0  0  2  0  0  0  0  0  0  0  0  0
    6.8791  -16.6652   20.8204 N   0  0  0  0  0  0  0  0  0  0  0  0
    8.9079  -16.3949   22.0058 C   0  0  0  0  0  0  0  0  0  0  0  0
    8.2857  -16.9639   22.9401 O   0  0  0  0  0  0  0  0  0  0  0  0
   10.3094  -16.2380   22.1618 N   0  0  0  0  0  0  0  0  0  0  0  0
   11.0306  -16.5219   23.4022 C   0  0  1  0  0  0  0  0  0  0  0  0
   12.4352  -16.8559   23.1140 C   0  0  0  0  0  0  0  0  0  0  0  0
   13.3287  -17.2172   24.2381 C   0  0  0  0  0  0  0  0  0  0  0  0
   14.7400  -17.4284   23.9787 C   0  0  0  0  0  0  0  0  0  0  0  0
   15.7191  -16.7513   24.2952 O   0  0  0  0  0  0  0  0  0  0  0  0
   10.7125  -15.5888   24.4644 C   0  0  0  0  0  0  0  0  0  0  0  0
   10.5725  -14.3682   24.1947 O   0  0  0  0  0  0  0  0  0  0  0  0
   15.0527  -18.6029   23.2416 O   0  0  0  0  0  0  0  0  0  0  0  0
   10.5403  -15.9795   25.8277 N   0  0  0  0  0  0  0  0  0  0  0  0
   10.2261  -15.0869   26.8947 C   0  0  1  0  0  0  0  0  0  0  0  0
    8.8017  -14.5713   26.8278 C   0  0  0  0  0  0  0  0  0  0  0  0
    8.4825  -13.4379   28.2076 S   0  0  0  0  0  0  0  0  0  0  0  0
   10.4373  -15.6757   28.2383 C   0  0  0  0  0  0  0  0  0  0  0  0
   10.5711  -14.8355   29.3319 O   0  0  0  0  0  0  0  0  0  0  0  0
   10.5020  -16.9158   28.4354 O   0  0  0  0  0  0  0  0  0  0  0  0
  2  3  1  0
  2  1  1  6
  4  2  1  0
  4  5  1  1
  6  8  1  0
  6  4  1  0
  7  6  2  0
  9  8  1  0
  9 14  1  0
  9 10  1  6
 11 10  1  0
 12 11  1  0
 13 12  2  0
 14 17  1  0
 15 14  2  0
 16 12  1  0
 17 18  1  0
 18 19  1  1
 18 21  1  0
 20 19  1  0
 21 22  1  0
 23 21  2  0
M  END
$$$$
