TEC.pdb
     RDKit          3D

 23 22  0  0  1  0  0  0  0  0999 V2000
    8.6863  -12.6903   19.5140 C   0  0  0  0  0  0  0  0  0  0  0  0
    7.9537  -13.5130   18.5102 C   0  0  1  0  0  0  0  0  0  0  0  0
    7.4933  -12.6750   17.4930 O   0  0  0  0  0  0  0  0  0  0  0  0
    8.8151  -14.5986   17.9051 C   0  0  2  0  0  0  0  0  0  0  0  0
    7.9076  -15.3890   17.0456 N   0  0  0  0  0  0  0  0  0  0  0  0
    9.3568  -15.5421   18.9085 C   0  0  0  0  0  0  0  0  0  0  0  0
    8.6126  -16.4462   19.3698 O   0  0  0  0  0  0  0  0  0  0  0  0
   10.6898  -15.4906   19.3919 N   0  0  0  0  0  0  0  0  0  0  0  0
   11.1932  -16.3144   20.4905 C   0  0  1  0  0  0  0  0  0  0  0  0
   12.5149  -16.8683   20.1525 C   0  0  0  0  0  0  0  0  0  0  0  0
   12.5983  -18.2541   19.6377 C   0  0  0  0  0  0  0  0  0  0  0  0
   13.8960  -18.8028   19.2934 C   0  0  0  0  0  0  0  0  0  0  0  0
   14.5636  -18.6865   18.2648 O   0  0  0  0  0  0  0  0  0  0  0  0
   10.9716  -15.7147   21.7911 C   0  0  0  0  0  0  0  0  0  0  0  0
   11.5026  -14.6068   22.0604 O   0  0  0  0  0  0  0  0  0  0  0  0
   14.5021  -19.6045   20.2986 O   0  0  0  0  0  0  0  0  0  0  0  0
   10.1661  -16.3160   22.8062 N   0  0  0  0  0  0  0  0  0  0  0  0
    9.9796  -15.7838   24.1162 C   0  0  1  0  0  0  0  0  0  0  0  0
    8.7296  -14.9331   24.2310 C   0  0  0  0  0  0  0  0  0  0  0  0
    7.2728  -15.8941   23.7368 S   0  0  0  0  0  0  0  0  0  0  0  0
    9.9259  -16.8215   25.1728 C   0  0  0  0  0  0  0  0  0  0  0  0
    9.8698  -18.1570   24.8076 O   0  0  0  0  0  0  0  0  0  0  0  0
    9.9285  -16.5448   26.3993 O   0  0  0  0  0  0  0  0  0  0  0  0
  2  3  1  0
  2  1  1  1
  4  2  1  0
  4  5  1  6
  6  8  1  0
  6  4  1  0
  7  6  2  0
  9  8  1  0
  9 14  1  0
  9 10  1  6
 11 10  1  0
 12 11  1  0
 13 12  2  0
 14 17  1  0
 15 14  2  0
 16 12  1  0
 17 18  1  0
 18 19  1  6
 18 21  1  0
 20 19  1  0
 21 22  1  0
 23 21  2  0
M  END
$$$$
