TEC.pdb
     RDKit          3D

 23 22  0  0  1  0  0  0  0  0999 V2000
    8.4871  -12.5213   19.5781 C   0  0  0  0  0  0  0  0  0  0  0  0
    7.8254  -13.5366   18.7105 C   0  0  1  0  0  0  0  0  0  0  0  0
    7.6530  -12.9938   17.4359 O   0  0  0  0  0  0  0  0  0  0  0  0
    8.6217  -14.8173   18.5995 C   0  0  2  0  0  0  0  0  0  0  0  0
    7.7923  -15.7277   17.7808 N   0  0  0  0  0  0  0  0  0  0  0  0
    8.8188  -15.4974   19.8991 C   0  0  0  0  0  0  0  0  0  0  0  0
    7.8516  -16.1009   20.4324 O   0  0  0  0  0  0  0  0  0  0  0  0
   10.0553  -15.5129   20.5949 N   0  0  0  0  0  0  0  0  0  0  0  0
   10.2529  -16.1504   21.8963 C   0  0  1  0  0  0  0  0  0  0  0  0
   11.5142  -16.9098   21.9093 C   0  0  0  0  0  0  0  0  0  0  0  0
   11.7097  -17.9870   20.9123 C   0  0  0  0  0  0  0  0  0  0  0  0
   12.9463  -18.7448   20.9247 C   0  0  0  0  0  0  0  0  0  0  0  0
   14.1096  -18.3757   20.7578 O   0  0  0  0  0  0  0  0  0  0  0  0
    9.9219  -15.2791   23.0060 C   0  0  0  0  0  0  0  0  0  0  0  0
    9.9492  -14.0321   22.8434 O   0  0  0  0  0  0  0  0  0  0  0  0
   12.8022  -20.1379   21.1678 O   0  0  0  0  0  0  0  0  0  0  0  0
    9.5548  -15.7602   24.3001 N   0  0  0  0  0  0  0  0  0  0  0  0
    9.1380  -14.9342   25.3854 C   0  0  1  0  0  0  0  0  0  0  0  0
    7.8447  -14.1967   25.0980 C   0  0  0  0  0  0  0  0  0  0  0  0
    7.4585  -13.0602   26.4579 S   0  0  0  0  0  0  0  0  0  0  0  0
    8.9704  -15.6732   26.6591 C   0  0  0  0  0  0  0  0  0  0  0  0
    8.9369  -14.9679   27.8513 O   0  0  0  0  0  0  0  0  0  0  0  0
    8.8562  -16.9243   26.7101 O   0  0  0  0  0  0  0  0  0  0  0  0
  2  3  1  0
  2  1  1  1
  4  2  1  0
  4  5  1  6
  6  8  1  0
  6  4  1  0
  7  6  2  0
  9  8  1  0
  9 14  1  0
  9 10  1  1
 11 10  1  0
 12 11  1  0
 13 12  2  0
 14 17  1  0
 15 14  2  0
 16 12  1  0
 17 18  1  0
 18 19  1  6
 18 21  1  0
 20 19  1  0
 21 22  1  0
 23 21  2  0
M  END
$$$$
