TEC.pdb
     RDKit          3D

 23 22  0  0  1  0  0  0  0  0999 V2000
    8.9784  -12.8440   20.4342 C   0  0  0  0  0  0  0  0  0  0  0  0
    7.8512  -13.7327   20.0333 C   0  0  1  0  0  0  0  0  0  0  0  0
    7.4510  -13.3941   18.7393 O   0  0  0  0  0  0  0  0  0  0  0  0
    8.2224  -15.1982   20.0689 C   0  0  2  0  0  0  0  0  0  0  0  0
    6.9934  -15.9258   19.6856 N   0  0  0  0  0  0  0  0  0  0  0  0
    8.5791  -15.6779   21.4228 C   0  0  0  0  0  0  0  0  0  0  0  0
    7.6638  -15.9256   22.2504 O   0  0  0  0  0  0  0  0  0  0  0  0
    9.9154  -15.8811   21.8544 N   0  0  0  0  0  0  0  0  0  0  0  0
   10.2776  -16.4410   23.1561 C   0  0  1  0  0  0  0  0  0  0  0  0
   11.3931  -17.3913   23.0133 C   0  0  0  0  0  0  0  0  0  0  0  0
   11.2189  -18.5704   22.1346 C   0  0  0  0  0  0  0  0  0  0  0  0
   12.3187  -19.5028   21.9776 C   0  0  0  0  0  0  0  0  0  0  0  0
   12.3415  -20.7313   22.0654 O   0  0  0  0  0  0  0  0  0  0  0  0
   10.3061  -15.4455   24.2089 C   0  0  0  0  0  0  0  0  0  0  0  0
   10.9400  -14.3738   24.0304 O   0  0  0  0  0  0  0  0  0  0  0  0
   13.5758  -18.9131   21.6734 O   0  0  0  0  0  0  0  0  0  0  0  0
    9.6405  -15.6086   25.4623 N   0  0  0  0  0  0  0  0  0  0  0  0
    9.7132  -14.6850   26.5466 C   0  0  1  0  0  0  0  0  0  0  0  0
    8.4127  -13.9375   26.7685 C   0  0  0  0  0  0  0  0  0  0  0  0
    8.5802  -12.7944   28.1668 S   0  0  0  0  0  0  0  0  0  0  0  0
   10.1058  -15.3120   27.8308 C   0  0  0  0  0  0  0  0  0  0  0  0
    9.9830  -16.6841   27.9794 O   0  0  0  0  0  0  0  0  0  0  0  0
   10.5499  -14.6505   28.8035 O   0  0  0  0  0  0  0  0  0  0  0  0
  2  3  1  0
  2  1  1  6
  4  2  1  0
  4  5  1  1
  6  8  1  0
  6  4  1  0
  7  6  2  0
  9  8  1  0
  9 14  1  0
  9 10  1  6
 11 10  1  0
 12 11  1  0
 13 12  2  0
 14 17  1  0
 15 14  2  0
 16 12  1  0
 17 18  1  0
 18 19  1  1
 18 21  1  0
 20 19  1  0
 21 22  1  0
 23 21  2  0
M  END
$$$$
