TEC.pdb
     RDKit          3D

 23 22  0  0  1  0  0  0  0  0999 V2000
    7.6168  -11.8797   18.9632 C   0  0  0  0  0  0  0  0  0  0  0  0
    8.6603  -12.8567   19.3847 C   0  0  1  0  0  0  0  0  0  0  0  0
    8.0604  -13.8440   20.1687 O   0  0  0  0  0  0  0  0  0  0  0  0
    9.3551  -13.5108   18.2115 C   0  0  2  0  0  0  0  0  0  0  0  0
    8.3037  -14.2759   17.5071 N   0  0  0  0  0  0  0  0  0  0  0  0
   10.3809  -14.4980   18.6162 C   0  0  0  0  0  0  0  0  0  0  0  0
   10.0526  -15.7041   18.7620 O   0  0  0  0  0  0  0  0  0  0  0  0
   11.7391  -14.1628   18.8537 N   0  0  0  0  0  0  0  0  0  0  0  0
   12.7180  -15.0812   19.4347 C   0  0  1  0  0  0  0  0  0  0  0  0
   14.0333  -14.8981   18.7991 C   0  0  0  0  0  0  0  0  0  0  0  0
   14.1797  -15.2070   17.3583 C   0  0  0  0  0  0  0  0  0  0  0  0
   15.4794  -15.0568   16.7323 C   0  0  0  0  0  0  0  0  0  0  0  0
   16.0092  -15.7052   15.8289 O   0  0  0  0  0  0  0  0  0  0  0  0
   12.6183  -15.1710   20.8776 C   0  0  0  0  0  0  0  0  0  0  0  0
   12.6852  -14.1224   21.5692 O   0  0  0  0  0  0  0  0  0  0  0  0
   16.2765  -13.9930   17.2359 O   0  0  0  0  0  0  0  0  0  0  0  0
   12.4408  -16.4037   21.5775 N   0  0  0  0  0  0  0  0  0  0  0  0
   12.3153  -16.5229   22.9931 C   0  0  1  0  0  0  0  0  0  0  0  0
   10.9010  -16.8508   23.4309 C   0  0  0  0  0  0  0  0  0  0  0  0
   10.8266  -17.0065   25.2365 S   0  0  0  0  0  0  0  0  0  0  0  0
   13.2233  -17.5348   23.5830 C   0  0  0  0  0  0  0  0  0  0  0  0
   13.5224  -17.4697   24.9344 O   0  0  0  0  0  0  0  0  0  0  0  0
   13.7417  -18.4601   22.9078 O   0  0  0  0  0  0  0  0  0  0  0  0
  2  3  1  0
  2  1  1  6
  4  2  1  0
  4  5  1  6
  6  8  1  0
  6  4  1  0
  7  6  2  0
  9  8  1  0
  9 14  1  0
  9 10  1  1
 11 10  1  0
 12 11  1  0
 13 12  2  0
 14 17  1  0
 15 14  2  0
 16 12  1  0
 17 18  1  0
 18 19  1  6
 18 21  1  0
 20 19  1  0
 21 22  1  0
 23 21  2  0
M  END
$$$$
