TEC.pdb
     RDKit          3D

 23 22  0  0  1  0  0  0  0  0999 V2000
    7.4247  -12.6309   19.1835 C   0  0  0  0  0  0  0  0  0  0  0  0
    8.1104  -13.5806   20.1049 C   0  0  1  0  0  0  0  0  0  0  0  0
    7.3462  -13.7100   21.2661 O   0  0  0  0  0  0  0  0  0  0  0  0
    8.3118  -14.9474   19.4901 C   0  0  2  0  0  0  0  0  0  0  0  0
    6.9564  -15.4285   19.1458 N   0  0  0  0  0  0  0  0  0  0  0  0
    8.8714  -15.9375   20.4372 C   0  0  0  0  0  0  0  0  0  0  0  0
    8.0910  -16.6975   21.0676 O   0  0  0  0  0  0  0  0  0  0  0  0
   10.2608  -16.0871   20.6830 N   0  0  0  0  0  0  0  0  0  0  0  0
   10.8189  -16.9610   21.7145 C   0  0  1  0  0  0  0  0  0  0  0  0
   12.1260  -17.4878   21.2883 C   0  0  0  0  0  0  0  0  0  0  0  0
   12.1885  -18.3663   20.0980 C   0  0  0  0  0  0  0  0  0  0  0  0
   13.4091  -19.1007   19.8254 C   0  0  0  0  0  0  0  0  0  0  0  0
   13.8297  -20.1546   20.3046 O   0  0  0  0  0  0  0  0  0  0  0  0
   10.6552  -16.4284   23.0524 C   0  0  0  0  0  0  0  0  0  0  0  0
   11.2510  -15.3684   23.3738 O   0  0  0  0  0  0  0  0  0  0  0  0
   14.2632  -18.5179   18.8501 O   0  0  0  0  0  0  0  0  0  0  0  0
    9.8376  -17.0449   24.0485 N   0  0  0  0  0  0  0  0  0  0  0  0
    9.6868  -16.5683   25.3842 C   0  0  1  0  0  0  0  0  0  0  0  0
    8.2703  -16.1232   25.6917 C   0  0  0  0  0  0  0  0  0  0  0  0
    7.7391  -14.8632   24.4999 S   0  0  0  0  0  0  0  0  0  0  0  0
   10.0897  -17.5566   26.4125 C   0  0  0  0  0  0  0  0  0  0  0  0
   10.0824  -17.1854   27.7475 O   0  0  0  0  0  0  0  0  0  0  0  0
   10.4422  -18.7295   26.1280 O   0  0  0  0  0  0  0  0  0  0  0  0
  2  3  1  0
  2  1  1  6
  4  2  1  0
  4  5  1  1
  6  8  1  0
  6  4  1  0
  7  6  2  0
  9  8  1  0
  9 14  1  0
  9 10  1  6
 11 10  1  0
 12 11  1  0
 13 12  2  0
 14 17  1  0
 15 14  2  0
 16 12  1  0
 17 18  1  0
 18 19  1  1
 18 21  1  0
 20 19  1  0
 21 22  1  0
 23 21  2  0
M  END
$$$$
