TEC.pdb
     RDKit          3D

 23 22  0  0  1  0  0  0  0  0999 V2000
    8.4915  -12.6194   19.7215 C   0  0  0  0  0  0  0  0  0  0  0  0
    7.7614  -13.7082   19.0124 C   0  0  1  0  0  0  0  0  0  0  0  0
    7.9175  -13.5310   17.6364 O   0  0  0  0  0  0  0  0  0  0  0  0
    8.2552  -15.0859   19.3931 C   0  0  2  0  0  0  0  0  0  0  0  0
    7.3624  -16.0328   18.6907 N   0  0  0  0  0  0  0  0  0  0  0  0
    8.1124  -15.3796   20.8366 C   0  0  0  0  0  0  0  0  0  0  0  0
    6.9669  -15.5933   21.3121 O   0  0  0  0  0  0  0  0  0  0  0  0
    9.2085  -15.4376   21.7358 N   0  0  0  0  0  0  0  0  0  0  0  0
    9.0845  -15.7670   23.1554 C   0  0  1  0  0  0  0  0  0  0  0  0
   10.1379  -16.7145   23.5560 C   0  0  0  0  0  0  0  0  0  0  0  0
   10.2098  -17.1466   24.9704 C   0  0  0  0  0  0  0  0  0  0  0  0
   11.2598  -18.0607   25.3771 C   0  0  0  0  0  0  0  0  0  0  0  0
   12.1848  -18.5520   24.7289 O   0  0  0  0  0  0  0  0  0  0  0  0
    8.8021  -14.6088   23.9794 C   0  0  0  0  0  0  0  0  0  0  0  0
    9.3903  -13.5225   23.7427 O   0  0  0  0  0  0  0  0  0  0  0  0
   11.2233  -18.4589   26.7412 O   0  0  0  0  0  0  0  0  0  0  0  0
    7.8735  -14.6248   25.0648 N   0  0  0  0  0  0  0  0  0  0  0  0
    7.5981  -13.5127   25.9143 C   0  0  1  0  0  0  0  0  0  0  0  0
    6.1531  -13.0598   25.8375 C   0  0  0  0  0  0  0  0  0  0  0  0
    5.8593  -11.7078   27.0105 S   0  0  0  0  0  0  0  0  0  0  0  0
    7.9246  -13.7625   27.3382 C   0  0  0  0  0  0  0  0  0  0  0  0
    8.0444  -12.6872   28.2038 O   0  0  0  0  0  0  0  0  0  0  0  0
    8.1006  -14.9172   27.8036 O   0  0  0  0  0  0  0  0  0  0  0  0
  2  3  1  0
  2  1  1  1
  4  2  1  0
  4  5  1  6
  6  8  1  0
  6  4  1  0
  7  6  2  0
  9  8  1  0
  9 14  1  0
  9 10  1  1
 11 10  1  0
 12 11  1  0
 13 12  2  0
 14 17  1  0
 15 14  2  0
 16 12  1  0
 17 18  1  0
 18 19  1  1
 18 21  1  0
 20 19  1  0
 21 22  1  0
 23 21  2  0
M  END
$$$$
