TEC.pdb
     RDKit          3D

 23 22  0  0  1  0  0  0  0  0999 V2000
    9.1043  -19.7748   20.1222 C   0  0  0  0  0  0  0  0  0  0  0  0
    9.6350  -18.7348   19.1959 C   0  0  1  0  0  0  0  0  0  0  0  0
    9.4786  -17.4817   19.7910 O   0  0  0  0  0  0  0  0  0  0  0  0
   11.0943  -18.9438   18.8586 C   0  0  2  0  0  0  0  0  0  0  0  0
   11.1489  -20.2239   18.1200 N   0  0  0  0  0  0  0  0  0  0  0  0
   11.9505  -19.1210   20.0527 C   0  0  0  0  0  0  0  0  0  0  0  0
   11.8058  -20.1459   20.7688 O   0  0  0  0  0  0  0  0  0  0  0  0
   12.9450  -18.1894   20.4480 N   0  0  0  0  0  0  0  0  0  0  0  0
   13.7836  -18.3440   21.6363 C   0  0  1  0  0  0  0  0  0  0  0  0
   15.0439  -17.6002   21.4750 C   0  0  0  0  0  0  0  0  0  0  0  0
   16.1189  -18.1879   20.6434 C   0  0  0  0  0  0  0  0  0  0  0  0
   17.3628  -17.4602   20.4795 C   0  0  0  0  0  0  0  0  0  0  0  0
   18.3254  -17.3450   21.2393 O   0  0  0  0  0  0  0  0  0  0  0  0
   13.0340  -18.2374   22.8720 C   0  0  0  0  0  0  0  0  0  0  0  0
   12.2064  -17.3011   23.0150 O   0  0  0  0  0  0  0  0  0  0  0  0
   17.5019  -16.7656   19.2472 O   0  0  0  0  0  0  0  0  0  0  0  0
   13.1777  -19.1528   23.9593 N   0  0  0  0  0  0  0  0  0  0  0  0
   12.5166  -19.0299   25.2170 C   0  0  1  0  0  0  0  0  0  0  0  0
   11.1200  -19.6203   25.2056 C   0  0  0  0  0  0  0  0  0  0  0  0
   10.7158  -20.2996   26.8382 S   0  0  0  0  0  0  0  0  0  0  0  0
   13.2643  -19.6444   26.3394 C   0  0  0  0  0  0  0  0  0  0  0  0
   12.8581  -19.3947   27.6403 O   0  0  0  0  0  0  0  0  0  0  0  0
   14.2617  -20.3900   26.1654 O   0  0  0  0  0  0  0  0  0  0  0  0
  2  3  1  0
  2  1  1  1
  4  2  1  0
  4  5  1  6
  6  8  1  0
  6  4  1  0
  7  6  2  0
  9  8  1  0
  9 14  1  0
  9 10  1  1
 11 10  1  0
 12 11  1  0
 13 12  2  0
 14 17  1  0
 15 14  2  0
 16 12  1  0
 17 18  1  0
 18 19  1  6
 18 21  1  0
 20 19  1  0
 21 22  1  0
 23 21  2  0
M  END
$$$$
