TEC.pdb
     RDKit          3D

 23 22  0  0  1  0  0  0  0  0999 V2000
    8.4526  -12.4628   19.9607 C   0  0  0  0  0  0  0  0  0  0  0  0
    7.9068  -13.4905   19.0295 C   0  0  1  0  0  0  0  0  0  0  0  0
    8.1585  -13.0859   17.7172 O   0  0  0  0  0  0  0  0  0  0  0  0
    8.5124  -14.8584   19.2504 C   0  0  2  0  0  0  0  0  0  0  0  0
    7.7803  -15.7655   18.3403 N   0  0  0  0  0  0  0  0  0  0  0  0
    8.2917  -15.3813   20.6173 C   0  0  0  0  0  0  0  0  0  0  0  0
    7.1622  -15.8423   20.9265 O   0  0  0  0  0  0  0  0  0  0  0  0
    9.2947  -15.3965   21.6209 N   0  0  0  0  0  0  0  0  0  0  0  0
    9.0742  -15.8622   22.9897 C   0  0  1  0  0  0  0  0  0  0  0  0
    9.9641  -16.9945   23.2959 C   0  0  0  0  0  0  0  0  0  0  0  0
    9.9777  -17.5405   24.6722 C   0  0  0  0  0  0  0  0  0  0  0  0
   10.8554  -18.6528   24.9822 C   0  0  0  0  0  0  0  0  0  0  0  0
   11.8987  -18.6872   25.6361 O   0  0  0  0  0  0  0  0  0  0  0  0
    8.9341  -14.7755   23.9383 C   0  0  0  0  0  0  0  0  0  0  0  0
    9.8812  -13.9623   24.0922 O   0  0  0  0  0  0  0  0  0  0  0  0
   10.4551  -19.9086   24.4499 O   0  0  0  0  0  0  0  0  0  0  0  0
    7.7592  -14.5646   24.7230 N   0  0  0  0  0  0  0  0  0  0  0  0
    7.6320  -13.5787   25.7457 C   0  0  1  0  0  0  0  0  0  0  0  0
    6.2037  -13.1028   25.9271 C   0  0  0  0  0  0  0  0  0  0  0  0
    6.1150  -11.8935   27.2761 S   0  0  0  0  0  0  0  0  0  0  0  0
    8.1359  -14.0282   27.0649 C   0  0  0  0  0  0  0  0  0  0  0  0
    8.5577  -13.0831   27.9862 O   0  0  0  0  0  0  0  0  0  0  0  0
    8.2000  -15.2406   27.3918 O   0  0  0  0  0  0  0  0  0  0  0  0
  2  3  1  0
  2  1  1  1
  4  2  1  0
  4  5  1  6
  6  8  1  0
  6  4  1  0
  7  6  2  0
  9  8  1  0
  9 14  1  0
  9 10  1  1
 11 10  1  0
 12 11  1  0
 13 12  2  0
 14 17  1  0
 15 14  2  0
 16 12  1  0
 17 18  1  0
 18 19  1  1
 18 21  1  0
 20 19  1  0
 21 22  1  0
 23 21  2  0
M  END
$$$$
