TEC.pdb
     RDKit          3D

 23 22  0  0  1  0  0  0  0  0999 V2000
    8.1479  -12.3914   17.6978 C   0  0  0  0  0  0  0  0  0  0  0  0
    8.1591  -13.5581   18.6252 C   0  0  1  0  0  0  0  0  0  0  0  0
    8.4553  -14.7099   17.8939 O   0  0  0  0  0  0  0  0  0  0  0  0
    9.1688  -13.4070   19.7408 C   0  0  2  0  0  0  0  0  0  0  0  0
   10.4924  -13.4402   19.0819 N   0  0  0  0  0  0  0  0  0  0  0  0
    9.1568  -14.5368   20.6967 C   0  0  0  0  0  0  0  0  0  0  0  0
    8.1245  -14.7528   21.3834 O   0  0  0  0  0  0  0  0  0  0  0  0
   10.2584  -15.4099   20.8905 N   0  0  0  0  0  0  0  0  0  0  0  0
   10.2502  -16.5433   21.8149 C   0  0  1  0  0  0  0  0  0  0  0  0
   11.1643  -17.5966   21.3432 C   0  0  0  0  0  0  0  0  0  0  0  0
   11.3170  -18.8259   22.1544 C   0  0  0  0  0  0  0  0  0  0  0  0
   12.1439  -19.9061   21.6512 C   0  0  0  0  0  0  0  0  0  0  0  0
   11.8413  -21.0517   21.3148 O   0  0  0  0  0  0  0  0  0  0  0  0
   10.2730  -16.1356   23.2054 C   0  0  0  0  0  0  0  0  0  0  0  0
   11.2543  -15.4814   23.6427 O   0  0  0  0  0  0  0  0  0  0  0  0
   13.5266  -19.6027   21.5222 O   0  0  0  0  0  0  0  0  0  0  0  0
    9.2245  -16.4341   24.1287 N   0  0  0  0  0  0  0  0  0  0  0  0
    9.2465  -16.1056   25.5163 C   0  0  1  0  0  0  0  0  0  0  0  0
    7.8897  -15.6748   26.0386 C   0  0  0  0  0  0  0  0  0  0  0  0
    7.3112  -14.2094   25.1397 S   0  0  0  0  0  0  0  0  0  0  0  0
    9.7392  -17.2076   26.3760 C   0  0  0  0  0  0  0  0  0  0  0  0
    9.8477  -17.0035   27.7422 O   0  0  0  0  0  0  0  0  0  0  0  0
   10.0677  -18.3322   25.9195 O   0  0  0  0  0  0  0  0  0  0  0  0
  2  3  1  0
  2  1  1  6
  4  2  1  0
  4  5  1  6
  6  8  1  0
  6  4  1  0
  7  6  2  0
  9  8  1  0
  9 14  1  0
  9 10  1  6
 11 10  1  0
 12 11  1  0
 13 12  2  0
 14 17  1  0
 15 14  2  0
 16 12  1  0
 17 18  1  0
 18 19  1  1
 18 21  1  0
 20 19  1  0
 21 22  1  0
 23 21  2  0
M  END
$$$$
