TEC.pdb
     RDKit          3D

 23 22  0  0  1  0  0  0  0  0999 V2000
    7.5852  -12.5878   20.8092 C   0  0  0  0  0  0  0  0  0  0  0  0
    8.2962  -13.5262   19.8954 C   0  0  1  0  0  0  0  0  0  0  0  0
    9.6720  -13.3417   20.0442 O   0  0  0  0  0  0  0  0  0  0  0  0
    7.9588  -14.9748   20.1688 C   0  0  2  0  0  0  0  0  0  0  0  0
    6.5289  -15.1193   19.8199 N   0  0  0  0  0  0  0  0  0  0  0  0
    8.0725  -15.3415   21.5981 C   0  0  0  0  0  0  0  0  0  0  0  0
    7.1192  -15.0847   22.3785 O   0  0  0  0  0  0  0  0  0  0  0  0
    9.2119  -15.9785   22.1545 N   0  0  0  0  0  0  0  0  0  0  0  0
    9.2993  -16.4301   23.5428 C   0  0  1  0  0  0  0  0  0  0  0  0
   10.1365  -17.6375   23.6377 C   0  0  0  0  0  0  0  0  0  0  0  0
   10.3740  -18.2392   24.9697 C   0  0  0  0  0  0  0  0  0  0  0  0
   11.1734  -19.4455   25.0673 C   0  0  0  0  0  0  0  0  0  0  0  0
   11.5152  -20.0979   26.0547 O   0  0  0  0  0  0  0  0  0  0  0  0
    9.4933  -15.3402   24.4781 C   0  0  0  0  0  0  0  0  0  0  0  0
   10.4318  -14.5239   24.2912 O   0  0  0  0  0  0  0  0  0  0  0  0
   11.6417  -19.9652   23.8300 O   0  0  0  0  0  0  0  0  0  0  0  0
    8.6634  -15.1294   25.6216 N   0  0  0  0  0  0  0  0  0  0  0  0
    8.9167  -14.1660   26.6422 C   0  0  1  0  0  0  0  0  0  0  0  0
    7.6500  -13.5114   27.1581 C   0  0  0  0  0  0  0  0  0  0  0  0
    6.7224  -12.7766   25.7835 S   0  0  0  0  0  0  0  0  0  0  0  0
    9.6533  -14.7169   27.8042 C   0  0  0  0  0  0  0  0  0  0  0  0
   10.0799  -13.8579   28.8043 O   0  0  0  0  0  0  0  0  0  0  0  0
    9.9132  -15.9410   27.9272 O   0  0  0  0  0  0  0  0  0  0  0  0
  2  3  1  0
  2  1  1  1
  4  2  1  0
  4  5  1  1
  6  8  1  0
  6  4  1  0
  7  6  2  0
  9  8  1  0
  9 14  1  0
  9 10  1  6
 11 10  1  0
 12 11  1  0
 13 12  2  0
 14 17  1  0
 15 14  2  0
 16 12  1  0
 17 18  1  0
 18 19  1  1
 18 21  1  0
 20 19  1  0
 21 22  1  0
 23 21  2  0
M  END
$$$$
