TEC.pdb
     RDKit          3D

 23 22  0  0  1  0  0  0  0  0999 V2000
    8.4743  -12.5701   20.2882 C   0  0  0  0  0  0  0  0  0  0  0  0
    7.5700  -13.5464   19.6169 C   0  0  1  0  0  0  0  0  0  0  0  0
    7.5680  -13.2865   18.2452 O   0  0  0  0  0  0  0  0  0  0  0  0
    7.9863  -14.9817   19.8480 C   0  0  2  0  0  0  0  0  0  0  0  0
    6.9651  -15.8036   19.1635 N   0  0  0  0  0  0  0  0  0  0  0  0
    7.9468  -15.3793   21.2731 C   0  0  0  0  0  0  0  0  0  0  0  0
    6.8341  -15.5648   21.8310 O   0  0  0  0  0  0  0  0  0  0  0  0
    9.1086  -15.5694   22.0652 N   0  0  0  0  0  0  0  0  0  0  0  0
    9.0821  -15.9618   23.4739 C   0  0  1  0  0  0  0  0  0  0  0  0
    9.9065  -17.1628   23.6874 C   0  0  0  0  0  0  0  0  0  0  0  0
   11.3758  -17.0567   23.5379 C   0  0  0  0  0  0  0  0  0  0  0  0
   12.1922  -18.2408   23.7250 C   0  0  0  0  0  0  0  0  0  0  0  0
   12.3812  -18.9286   24.7292 O   0  0  0  0  0  0  0  0  0  0  0  0
    9.2018  -14.8330   24.3749 C   0  0  0  0  0  0  0  0  0  0  0  0
   10.1257  -13.9974   24.2010 O   0  0  0  0  0  0  0  0  0  0  0  0
   12.8897  -18.6861   22.5693 O   0  0  0  0  0  0  0  0  0  0  0  0
    8.3128  -14.6042   25.4695 N   0  0  0  0  0  0  0  0  0  0  0  0
    8.5494  -13.6777   26.5277 C   0  0  1  0  0  0  0  0  0  0  0  0
    7.5214  -12.5639   26.5727 C   0  0  0  0  0  0  0  0  0  0  0  0
    5.8555  -13.2418   26.3371 S   0  0  0  0  0  0  0  0  0  0  0  0
    8.5976  -14.3107   27.8668 C   0  0  0  0  0  0  0  0  0  0  0  0
    8.4843  -15.6880   27.9688 O   0  0  0  0  0  0  0  0  0  0  0  0
    8.7376  -13.6500   28.9273 O   0  0  0  0  0  0  0  0  0  0  0  0
  2  3  1  0
  2  1  1  1
  4  2  1  0
  4  5  1  6
  6  8  1  0
  6  4  1  0
  7  6  2  0
  9  8  1  0
  9 14  1  0
  9 10  1  6
 11 10  1  0
 12 11  1  0
 13 12  2  0
 14 17  1  0
 15 14  2  0
 16 12  1  0
 17 18  1  0
 18 19  1  1
 18 21  1  0
 20 19  1  0
 21 22  1  0
 23 21  2  0
M  END
$$$$
