EFK.pdb
     RDKit          3D

 30 30  0  0  1  0  0  0  0  0999 V2000
   10.0281  -16.7682   19.0728 N   0  0  0  0  0  0  0  0  0  0  0  0
    8.8431  -16.8007   19.9254 C   0  0  1  0  0  0  0  0  0  0  0  0
    8.5067  -18.2558   20.1097 C   0  0  0  0  0  0  0  0  0  0  0  0
    9.4453  -19.0278   20.9672 C   0  0  0  0  0  0  0  0  0  0  0  0
    9.7601  -20.3589   20.4291 C   0  0  0  0  0  0  0  0  0  0  0  0
   10.4479  -20.5354   19.4049 O   0  0  0  0  0  0  0  0  0  0  0  0
    9.1501  -16.1057   21.2135 C   0  0  0  0  0  0  0  0  0  0  0  0
   10.3482  -16.0379   21.6040 O   0  0  0  0  0  0  0  0  0  0  0  0
    9.2520  -21.4649   21.1176 O   0  0  0  0  0  0  0  0  0  0  0  0
    8.0883  -15.5378   21.9682 N   0  0  0  0  0  0  0  0  0  0  0  0
    8.3455  -14.8363   23.2272 C   0  0  1  0  0  0  0  0  0  0  0  0
    7.0745  -14.1663   23.5975 C   0  0  0  0  0  0  0  0  0  0  0  0
    7.0128  -13.4209   24.8306 C   0  0  0  0  0  0  0  0  0  0  0  0
    6.1421  -13.7070   25.8720 C   0  0  0  0  0  0  0  0  0  0  0  0
    6.1521  -12.9555   27.0183 C   0  0  0  0  0  0  0  0  0  0  0  0
    7.0161  -11.8905   27.1941 C   0  0  0  0  0  0  0  0  0  0  0  0
    7.8837  -11.5947   26.1731 C   0  0  0  0  0  0  0  0  0  0  0  0
    7.8717  -12.3573   25.0130 C   0  0  0  0  0  0  0  0  0  0  0  0
    8.7206  -15.7775   24.3038 C   0  0  0  0  0  0  0  0  0  0  0  0
    7.9273  -16.7241   24.5430 O   0  0  0  0  0  0  0  0  0  0  0  0
    9.8878  -15.7004   25.0785 N   0  0  0  0  0  0  0  0  0  0  0  0
   10.2973  -16.7188   26.0375 C   0  0  1  0  0  0  0  0  0  0  0  0
   11.7504  -16.9682   26.0376 C   0  0  0  0  0  0  0  0  0  0  0  0
   12.0313  -18.4354   26.1973 C   0  0  0  0  0  0  0  0  0  0  0  0
   13.3337  -18.8233   25.4899 C   0  0  0  0  0  0  0  0  0  0  0  0
   13.5554  -20.2913   25.7864 C   0  0  0  0  0  0  0  0  0  0  0  0
   14.6428  -20.8362   24.9962 N   0  0  0  0  0  0  0  0  0  0  0  0
    9.7714  -16.4344   27.3844 C   0  0  0  0  0  0  0  0  0  0  0  0
    9.3792  -17.2482   28.2299 O   0  0  0  0  0  0  0  0  0  0  0  0
    9.7178  -15.0592   27.7305 O   0  0  0  0  0  0  0  0  0  0  0  0
  2  1  1  6
  3  2  1  0
  3  4  1  0
  4  5  1  0
  5  6  2  0
  5  9  1  0
  7  2  1  0
  7  8  2  0
 10  7  1  0
 11 10  1  0
 11 12  1  1
 13 12  1  0
 13 18  2  0
 14 13  1  0
 15 14  2  0
 15 16  1  0
 16 17  2  0
 17 18  1  0
 19 11  1  0
 20 19  2  0
 21 19  1  0
 22 21  1  0
 22 28  1  0
 22 23  1  1
 24 23  1  0
 25 24  1  0
 26 27  1  0
 26 25  1  0
 28 29  2  0
 28 30  1  0
M  END
$$$$
