EFK.pdb
     RDKit          3D

 30 30  0  0  1  0  0  0  0  0999 V2000
   10.3418  -16.3248   19.3172 N   0  0  0  0  0  0  0  0  0  0  0  0
    9.0782  -16.4171   20.0433 C   0  0  1  0  0  0  0  0  0  0  0  0
    8.6925  -17.8715   20.0178 C   0  0  0  0  0  0  0  0  0  0  0  0
    9.6517  -18.8012   20.6718 C   0  0  0  0  0  0  0  0  0  0  0  0
    9.2351  -20.2089   20.5991 C   0  0  0  0  0  0  0  0  0  0  0  0
    8.4573  -20.7334   21.4195 O   0  0  0  0  0  0  0  0  0  0  0  0
    9.2726  -15.8899   21.4291 C   0  0  0  0  0  0  0  0  0  0  0  0
   10.3951  -16.0318   21.9881 O   0  0  0  0  0  0  0  0  0  0  0  0
    9.7499  -20.9760   19.5493 O   0  0  0  0  0  0  0  0  0  0  0  0
    8.1914  -15.2416   22.0852 N   0  0  0  0  0  0  0  0  0  0  0  0
    8.3308  -14.7319   23.4506 C   0  0  1  0  0  0  0  0  0  0  0  0
    7.1577  -13.8555   23.6895 C   0  0  0  0  0  0  0  0  0  0  0  0
    7.0268  -13.1984   24.9666 C   0  0  0  0  0  0  0  0  0  0  0  0
    7.7875  -12.1086   25.3644 C   0  0  0  0  0  0  0  0  0  0  0  0
    7.5952  -11.5330   26.5934 C   0  0  0  0  0  0  0  0  0  0  0  0
    6.6487  -12.0002   27.4864 C   0  0  0  0  0  0  0  0  0  0  0  0
    5.8881  -13.0776   27.1077 C   0  0  0  0  0  0  0  0  0  0  0  0
    6.0847  -13.6590   25.8624 C   0  0  0  0  0  0  0  0  0  0  0  0
    8.3169  -15.8291   24.4414 C   0  0  0  0  0  0  0  0  0  0  0  0
    7.7031  -16.8812   24.1266 O   0  0  0  0  0  0  0  0  0  0  0  0
    8.9320  -15.7918   25.7017 N   0  0  0  0  0  0  0  0  0  0  0  0
    9.7448  -16.8737   26.2434 C   0  0  1  0  0  0  0  0  0  0  0  0
   10.8093  -17.3185   25.3254 C   0  0  0  0  0  0  0  0  0  0  0  0
   11.5117  -18.5247   25.8811 C   0  0  0  0  0  0  0  0  0  0  0  0
   12.6236  -18.9936   24.9373 C   0  0  0  0  0  0  0  0  0  0  0  0
   13.2475  -20.2093   25.5891 C   0  0  0  0  0  0  0  0  0  0  0  0
   14.2587  -20.8092   24.7398 N   0  0  0  0  0  0  0  0  0  0  0  0
   10.2556  -16.5449   27.5860 C   0  0  0  0  0  0  0  0  0  0  0  0
   10.3711  -15.4239   28.0970 O   0  0  0  0  0  0  0  0  0  0  0  0
   10.6560  -17.6604   28.3665 O   0  0  0  0  0  0  0  0  0  0  0  0
  2  1  1  6
  3  2  1  0
  3  4  1  0
  4  5  1  0
  5  6  2  0
  5  9  1  0
  7  2  1  0
  7  8  2  0
 10  7  1  0
 11 10  1  0
 11 12  1  1
 13 12  1  0
 13 18  2  0
 14 13  1  0
 15 14  2  0
 15 16  1  0
 16 17  2  0
 17 18  1  0
 19 11  1  0
 20 19  2  0
 21 19  1  0
 22 21  1  0
 22 28  1  0
 22 23  1  6
 24 23  1  0
 25 24  1  0
 26 27  1  0
 26 25  1  0
 28 29  2  0
 28 30  1  0
M  END
$$$$
