EFK.pdb
     RDKit          3D

 30 30  0  0  1  0  0  0  0  0999 V2000
    8.9958  -15.7406   19.0167 N   0  0  0  0  0  0  0  0  0  0  0  0
    9.0744  -16.6686   20.1414 C   0  0  1  0  0  0  0  0  0  0  0  0
   10.1793  -17.6332   19.8045 C   0  0  0  0  0  0  0  0  0  0  0  0
    9.9303  -18.5085   18.6281 C   0  0  0  0  0  0  0  0  0  0  0  0
   10.9560  -19.5463   18.4508 C   0  0  0  0  0  0  0  0  0  0  0  0
   11.9540  -19.6524   19.1897 O   0  0  0  0  0  0  0  0  0  0  0  0
    9.3376  -15.8953   21.3940 C   0  0  0  0  0  0  0  0  0  0  0  0
   10.5293  -15.6269   21.7108 O   0  0  0  0  0  0  0  0  0  0  0  0
   10.7811  -20.4464   17.3949 O   0  0  0  0  0  0  0  0  0  0  0  0
    8.2423  -15.4801   22.1987 N   0  0  0  0  0  0  0  0  0  0  0  0
    8.4559  -14.7425   23.4453 C   0  0  1  0  0  0  0  0  0  0  0  0
    7.1982  -14.0015   23.7111 C   0  0  0  0  0  0  0  0  0  0  0  0
    7.0779  -13.2488   24.9353 C   0  0  0  0  0  0  0  0  0  0  0  0
    6.1931  -13.5591   25.9578 C   0  0  0  0  0  0  0  0  0  0  0  0
    6.1463  -12.7982   27.0969 C   0  0  0  0  0  0  0  0  0  0  0  0
    6.9649  -11.6998   27.2840 C   0  0  0  0  0  0  0  0  0  0  0  0
    7.8457  -11.3797   26.2817 C   0  0  0  0  0  0  0  0  0  0  0  0
    7.8912  -12.1519   25.1288 C   0  0  0  0  0  0  0  0  0  0  0  0
    8.7193  -15.6573   24.5764 C   0  0  0  0  0  0  0  0  0  0  0  0
    7.9366  -16.6311   24.7235 O   0  0  0  0  0  0  0  0  0  0  0  0
    9.7701  -15.5273   25.4969 N   0  0  0  0  0  0  0  0  0  0  0  0
   10.0663  -16.5039   26.5376 C   0  0  1  0  0  0  0  0  0  0  0  0
   11.4690  -16.9579   26.5283 C   0  0  0  0  0  0  0  0  0  0  0  0
   11.6135  -18.1993   25.6946 C   0  0  0  0  0  0  0  0  0  0  0  0
   13.0826  -18.6210   25.5911 C   0  0  0  0  0  0  0  0  0  0  0  0
   13.1203  -19.7927   24.6330 C   0  0  0  0  0  0  0  0  0  0  0  0
   14.4821  -20.1734   24.3102 N   0  0  0  0  0  0  0  0  0  0  0  0
    9.6340  -16.0276   27.8635 C   0  0  0  0  0  0  0  0  0  0  0  0
    9.3305  -14.8733   28.1898 O   0  0  0  0  0  0  0  0  0  0  0  0
    9.5651  -17.0274   28.8681 O   0  0  0  0  0  0  0  0  0  0  0  0
  2  1  1  6
  3  2  1  0
  3  4  1  0
  4  5  1  0
  5  6  2  0
  5  9  1  0
  7  2  1  0
  7  8  2  0
 10  7  1  0
 11 10  1  0
 11 12  1  1
 13 12  1  0
 13 18  2  0
 14 13  1  0
 15 14  2  0
 15 16  1  0
 16 17  2  0
 17 18  1  0
 19 11  1  0
 20 19  2  0
 21 19  1  0
 22 21  1  0
 22 28  1  0
 22 23  1  1
 24 23  1  0
 25 24  1  0
 26 27  1  0
 26 25  1  0
 28 29  2  0
 28 30  1  0
M  END
$$$$
