EFK.pdb
     RDKit          3D

 30 30  0  0  1  0  0  0  0  0999 V2000
    8.0125  -17.4112   19.8169 N   0  0  0  0  0  0  0  0  0  0  0  0
    9.4331  -17.3229   20.1434 C   0  0  1  0  0  0  0  0  0  0  0  0
   10.1260  -16.9248   18.8683 C   0  0  0  0  0  0  0  0  0  0  0  0
    9.6337  -17.5940   17.6346 C   0  0  0  0  0  0  0  0  0  0  0  0
   10.3291  -17.1504   16.4180 C   0  0  0  0  0  0  0  0  0  0  0  0
   11.4746  -16.6594   16.4276 O   0  0  0  0  0  0  0  0  0  0  0  0
    9.6193  -16.3270   21.2434 C   0  0  0  0  0  0  0  0  0  0  0  0
   10.7755  -15.8775   21.4752 O   0  0  0  0  0  0  0  0  0  0  0  0
    9.6518  -17.2968   15.2033 O   0  0  0  0  0  0  0  0  0  0  0  0
    8.4927  -15.9093   22.0022 N   0  0  0  0  0  0  0  0  0  0  0  0
    8.6552  -15.1413   23.2380 C   0  0  1  0  0  0  0  0  0  0  0  0
    7.3851  -14.4009   23.4379 C   0  0  0  0  0  0  0  0  0  0  0  0
    7.1924  -13.6650   24.6632 C   0  0  0  0  0  0  0  0  0  0  0  0
    6.4806  -14.1407   25.7548 C   0  0  0  0  0  0  0  0  0  0  0  0
    6.3511  -13.3824   26.8893 C   0  0  0  0  0  0  0  0  0  0  0  0
    6.9137  -12.1246   27.0036 C   0  0  0  0  0  0  0  0  0  0  0  0
    7.6209  -11.6399   25.9323 C   0  0  0  0  0  0  0  0  0  0  0  0
    7.7507  -12.4097   24.7844 C   0  0  0  0  0  0  0  0  0  0  0  0
    8.8794  -16.0275   24.3999 C   0  0  0  0  0  0  0  0  0  0  0  0
    8.0906  -16.9967   24.5452 O   0  0  0  0  0  0  0  0  0  0  0  0
    9.8991  -15.8753   25.3514 N   0  0  0  0  0  0  0  0  0  0  0  0
   10.3364  -16.9341   26.2527 C   0  0  1  0  0  0  0  0  0  0  0  0
   11.6730  -17.4630   25.9248 C   0  0  0  0  0  0  0  0  0  0  0  0
   11.5552  -18.7037   25.0858 C   0  0  0  0  0  0  0  0  0  0  0  0
   12.9384  -19.2691   24.7480 C   0  0  0  0  0  0  0  0  0  0  0  0
   12.7016  -20.4384   23.8159 C   0  0  0  0  0  0  0  0  0  0  0  0
   13.9481  -21.0670   23.4224 N   0  0  0  0  0  0  0  0  0  0  0  0
   10.2200  -16.5242   27.6634 C   0  0  0  0  0  0  0  0  0  0  0  0
   10.2780  -17.2454   28.6672 O   0  0  0  0  0  0  0  0  0  0  0  0
   10.0180  -15.1350   27.8709 O   0  0  0  0  0  0  0  0  0  0  0  0
  2  1  1  6
  3  2  1  0
  3  4  1  0
  4  5  1  0
  5  6  2  0
  5  9  1  0
  7  2  1  0
  7  8  2  0
 10  7  1  0
 11 10  1  0
 11 12  1  1
 13 12  1  0
 13 18  2  0
 14 13  1  0
 15 14  2  0
 15 16  1  0
 16 17  2  0
 17 18  1  0
 19 11  1  0
 20 19  2  0
 21 19  1  0
 22 21  1  0
 22 28  1  0
 22 23  1  6
 24 23  1  0
 25 24  1  0
 26 27  1  0
 26 25  1  0
 28 29  2  0
 28 30  1  0
M  END
$$$$
