EFK.pdb
     RDKit          3D

 30 30  0  0  1  0  0  0  0  0999 V2000
    9.4670  -18.0372   21.1234 N   0  0  0  0  0  0  0  0  0  0  0  0
   10.7890  -17.5904   21.5535 C   0  0  1  0  0  0  0  0  0  0  0  0
   11.5376  -17.2437   20.2950 C   0  0  0  0  0  0  0  0  0  0  0  0
   10.9533  -17.7740   19.0342 C   0  0  0  0  0  0  0  0  0  0  0  0
   11.6982  -17.3667   17.8343 C   0  0  0  0  0  0  0  0  0  0  0  0
   11.3268  -16.4463   17.0805 O   0  0  0  0  0  0  0  0  0  0  0  0
   10.6329  -16.4258   22.4785 C   0  0  0  0  0  0  0  0  0  0  0  0
   11.6628  -15.8110   22.8707 O   0  0  0  0  0  0  0  0  0  0  0  0
   12.8775  -18.0606   17.5460 O   0  0  0  0  0  0  0  0  0  0  0  0
    9.3309  -16.0373   22.8949 N   0  0  0  0  0  0  0  0  0  0  0  0
    9.1362  -15.1603   24.0509 C   0  0  1  0  0  0  0  0  0  0  0  0
    7.8005  -14.5371   23.8802 C   0  0  0  0  0  0  0  0  0  0  0  0
    7.3501  -13.5752   24.8559 C   0  0  0  0  0  0  0  0  0  0  0  0
    6.2618  -13.7665   25.6947 C   0  0  0  0  0  0  0  0  0  0  0  0
    5.9028  -12.8061   26.6043 C   0  0  0  0  0  0  0  0  0  0  0  0
    6.5948  -11.6159   26.7317 C   0  0  0  0  0  0  0  0  0  0  0  0
    7.6739  -11.4115   25.9090 C   0  0  0  0  0  0  0  0  0  0  0  0
    8.0356  -12.3858   24.9885 C   0  0  0  0  0  0  0  0  0  0  0  0
    9.1487  -15.9236   25.3168 C   0  0  0  0  0  0  0  0  0  0  0  0
    8.4308  -15.4929   26.2559 O   0  0  0  0  0  0  0  0  0  0  0  0
    9.8950  -17.0876   25.5549 N   0  0  0  0  0  0  0  0  0  0  0  0
    9.8783  -17.8224   26.8136 C   0  0  1  0  0  0  0  0  0  0  0  0
    9.8017  -19.2837   26.6341 C   0  0  0  0  0  0  0  0  0  0  0  0
    9.8237  -19.9782   27.9661 C   0  0  0  0  0  0  0  0  0  0  0  0
   10.3170  -21.4215   27.8226 C   0  0  0  0  0  0  0  0  0  0  0  0
    9.8486  -22.1541   29.0620 C   0  0  0  0  0  0  0  0  0  0  0  0
   10.3058  -23.5306   29.0719 N   0  0  0  0  0  0  0  0  0  0  0  0
   10.9915  -17.4170   27.6900 C   0  0  0  0  0  0  0  0  0  0  0  0
   11.0171  -17.4146   28.9271 O   0  0  0  0  0  0  0  0  0  0  0  0
   12.1609  -16.9823   27.0139 O   0  0  0  0  0  0  0  0  0  0  0  0
  2  1  1  6
  3  2  1  0
  3  4  1  0
  4  5  1  0
  5  6  2  0
  5  9  1  0
  7  2  1  0
  7  8  2  0
 10  7  1  0
 11 10  1  0
 11 12  1  6
 13 12  1  0
 13 18  2  0
 14 13  1  0
 15 14  2  0
 15 16  1  0
 16 17  2  0
 17 18  1  0
 19 11  1  0
 20 19  2  0
 21 19  1  0
 22 21  1  0
 22 28  1  0
 22 23  1  6
 24 23  1  0
 25 24  1  0
 26 27  1  0
 26 25  1  0
 28 29  2  0
 28 30  1  0
M  END
$$$$
