EFK.pdb
     RDKit          3D

 30 30  0  0  1  0  0  0  0  0999 V2000
    8.9523  -17.8091   20.8314 N   0  0  0  0  0  0  0  0  0  0  0  0
   10.2796  -17.7293   21.4350 C   0  0  1  0  0  0  0  0  0  0  0  0
   11.2282  -17.4233   20.3076 C   0  0  0  0  0  0  0  0  0  0  0  0
   10.9380  -18.1098   19.0205 C   0  0  0  0  0  0  0  0  0  0  0  0
   11.8201  -17.6835   17.9248 C   0  0  0  0  0  0  0  0  0  0  0  0
   11.4040  -17.4015   16.7844 O   0  0  0  0  0  0  0  0  0  0  0  0
   10.2713  -16.6724   22.4929 C   0  0  0  0  0  0  0  0  0  0  0  0
   11.3384  -16.4210   23.1179 O   0  0  0  0  0  0  0  0  0  0  0  0
   13.1884  -17.5978   18.2002 O   0  0  0  0  0  0  0  0  0  0  0  0
    9.0644  -15.9754   22.7709 N   0  0  0  0  0  0  0  0  0  0  0  0
    8.9387  -15.1217   23.9536 C   0  0  1  0  0  0  0  0  0  0  0  0
    7.7340  -14.2835   23.7357 C   0  0  0  0  0  0  0  0  0  0  0  0
    7.3440  -13.3440   24.7581 C   0  0  0  0  0  0  0  0  0  0  0  0
    7.9856  -12.1367   24.9935 C   0  0  0  0  0  0  0  0  0  0  0  0
    7.5467  -11.2924   25.9800 C   0  0  0  0  0  0  0  0  0  0  0  0
    6.4596  -11.5944   26.7792 C   0  0  0  0  0  0  0  0  0  0  0  0
    5.8141  -12.7850   26.5588 C   0  0  0  0  0  0  0  0  0  0  0  0
    6.2605  -13.6385   25.5590 C   0  0  0  0  0  0  0  0  0  0  0  0
    8.7471  -15.9232   25.1810 C   0  0  0  0  0  0  0  0  0  0  0  0
    9.0288  -15.3738   26.2771 O   0  0  0  0  0  0  0  0  0  0  0  0
    8.2772  -17.2446   25.2219 N   0  0  0  0  0  0  0  0  0  0  0  0
    8.1491  -18.0257   26.4458 C   0  0  1  0  0  0  0  0  0  0  0  0
    7.4348  -19.3007   26.2511 C   0  0  0  0  0  0  0  0  0  0  0  0
    7.2893  -20.0260   27.5587 C   0  0  0  0  0  0  0  0  0  0  0  0
    6.6741  -21.4133   27.3494 C   0  0  0  0  0  0  0  0  0  0  0  0
    6.6474  -22.0744   28.7111 C   0  0  0  0  0  0  0  0  0  0  0  0
    6.0880  -23.4109   28.6437 N   0  0  0  0  0  0  0  0  0  0  0  0
    9.4516  -18.2023   27.1122 C   0  0  0  0  0  0  0  0  0  0  0  0
   10.4337  -18.8304   26.6974 O   0  0  0  0  0  0  0  0  0  0  0  0
    9.5705  -17.5688   28.3764 O   0  0  0  0  0  0  0  0  0  0  0  0
  2  1  1  6
  3  2  1  0
  3  4  1  0
  4  5  1  0
  5  6  2  0
  5  9  1  0
  7  2  1  0
  7  8  2  0
 10  7  1  0
 11 10  1  0
 11 12  1  6
 13 12  1  0
 13 18  2  0
 14 13  1  0
 15 14  2  0
 15 16  1  0
 16 17  2  0
 17 18  1  0
 19 11  1  0
 20 19  2  0
 21 19  1  0
 22 21  1  0
 22 28  1  0
 22 23  1  6
 24 23  1  0
 25 24  1  0
 26 27  1  0
 26 25  1  0
 28 29  2  0
 28 30  1  0
M  END
$$$$
