EFK.pdb
     RDKit          3D

 30 30  0  0  1  0  0  0  0  0999 V2000
   10.0419  -16.4498   19.1820 N   0  0  0  0  0  0  0  0  0  0  0  0
    8.7748  -16.2678   19.8847 C   0  0  1  0  0  0  0  0  0  0  0  0
    8.0999  -17.6128   19.8743 C   0  0  0  0  0  0  0  0  0  0  0  0
    8.9060  -18.7393   20.4159 C   0  0  0  0  0  0  0  0  0  0  0  0
    8.1739  -20.0136   20.4460 C   0  0  0  0  0  0  0  0  0  0  0  0
    7.4410  -20.4013   19.5156 O   0  0  0  0  0  0  0  0  0  0  0  0
    9.0511  -15.7650   21.2657 C   0  0  0  0  0  0  0  0  0  0  0  0
   10.1991  -15.9335   21.7621 O   0  0  0  0  0  0  0  0  0  0  0  0
    8.3234  -20.8117   21.5845 O   0  0  0  0  0  0  0  0  0  0  0  0
    8.0173  -15.1097   21.9877 N   0  0  0  0  0  0  0  0  0  0  0  0
    8.2446  -14.6017   23.3418 C   0  0  1  0  0  0  0  0  0  0  0  0
    7.1759  -13.6046   23.5971 C   0  0  0  0  0  0  0  0  0  0  0  0
    7.0867  -12.9968   24.9020 C   0  0  0  0  0  0  0  0  0  0  0  0
    8.0835  -12.2156   25.4681 C   0  0  0  0  0  0  0  0  0  0  0  0
    7.9179  -11.6640   26.7119 C   0  0  0  0  0  0  0  0  0  0  0  0
    6.7677  -11.8538   27.4554 C   0  0  0  0  0  0  0  0  0  0  0  0
    5.7722  -12.6241   26.9092 C   0  0  0  0  0  0  0  0  0  0  0  0
    5.9423  -13.1818   25.6492 C   0  0  0  0  0  0  0  0  0  0  0  0
    8.1421  -15.6798   24.3481 C   0  0  0  0  0  0  0  0  0  0  0  0
    7.2096  -16.5124   24.2067 O   0  0  0  0  0  0  0  0  0  0  0  0
    8.9995  -15.8493   25.4456 N   0  0  0  0  0  0  0  0  0  0  0  0
    9.5129  -17.1404   25.8861 C   0  0  1  0  0  0  0  0  0  0  0  0
   10.3507  -17.8100   24.8745 C   0  0  0  0  0  0  0  0  0  0  0  0
   10.8339  -19.1367   25.3877 C   0  0  0  0  0  0  0  0  0  0  0  0
   11.6874  -19.8524   24.3359 C   0  0  0  0  0  0  0  0  0  0  0  0
   11.8267  -21.2845   24.8068 C   0  0  0  0  0  0  0  0  0  0  0  0
   12.5879  -22.0833   23.8654 N   0  0  0  0  0  0  0  0  0  0  0  0
   10.1802  -17.0374   27.1960 C   0  0  0  0  0  0  0  0  0  0  0  0
   10.5510  -17.9619   27.9300 O   0  0  0  0  0  0  0  0  0  0  0  0
   10.4149  -15.7130   27.6483 O   0  0  0  0  0  0  0  0  0  0  0  0
  2  1  1  6
  3  2  1  0
  3  4  1  0
  4  5  1  0
  5  6  2  0
  5  9  1  0
  7  2  1  0
  7  8  2  0
 10  7  1  0
 11 10  1  0
 11 12  1  1
 13 12  1  0
 13 18  2  0
 14 13  1  0
 15 14  2  0
 15 16  1  0
 16 17  2  0
 17 18  1  0
 19 11  1  0
 20 19  2  0
 21 19  1  0
 22 21  1  0
 22 28  1  0
 22 23  1  6
 24 23  1  0
 25 24  1  0
 26 27  1  0
 26 25  1  0
 28 29  2  0
 28 30  1  0
M  END
$$$$
