EFK.pdb
     RDKit          3D

 30 30  0  0  1  0  0  0  0  0999 V2000
    8.0455  -17.7272   20.4465 N   0  0  0  0  0  0  0  0  0  0  0  0
    9.4706  -17.4490   20.6019 C   0  0  1  0  0  0  0  0  0  0  0  0
    9.9735  -17.0904   19.2296 C   0  0  0  0  0  0  0  0  0  0  0  0
   11.1302  -17.8878   18.7415 C   0  0  0  0  0  0  0  0  0  0  0  0
   11.5786  -17.4953   17.3978 C   0  0  0  0  0  0  0  0  0  0  0  0
   10.8057  -17.0676   16.5186 O   0  0  0  0  0  0  0  0  0  0  0  0
    9.6462  -16.3441   21.5942 C   0  0  0  0  0  0  0  0  0  0  0  0
   10.8014  -15.8777   21.7955 O   0  0  0  0  0  0  0  0  0  0  0  0
   12.9431  -17.6168   17.1167 O   0  0  0  0  0  0  0  0  0  0  0  0
    8.5108  -15.8443   22.2875 N   0  0  0  0  0  0  0  0  0  0  0  0
    8.6563  -15.0937   23.5360 C   0  0  1  0  0  0  0  0  0  0  0  0
    7.4577  -14.2255   23.6418 C   0  0  0  0  0  0  0  0  0  0  0  0
    7.2549  -13.4608   24.8476 C   0  0  0  0  0  0  0  0  0  0  0  0
    7.9813  -12.3279   25.1840 C   0  0  0  0  0  0  0  0  0  0  0  0
    7.7205  -11.6496   26.3462 C   0  0  0  0  0  0  0  0  0  0  0  0
    6.7362  -12.0521   27.2298 C   0  0  0  0  0  0  0  0  0  0  0  0
    6.0087  -13.1711   26.9113 C   0  0  0  0  0  0  0  0  0  0  0  0
    6.2746  -13.8564   25.7336 C   0  0  0  0  0  0  0  0  0  0  0  0
    8.6979  -15.9950   24.7070 C   0  0  0  0  0  0  0  0  0  0  0  0
    7.8247  -16.8985   24.7694 O   0  0  0  0  0  0  0  0  0  0  0  0
    9.6312  -15.9245   25.7522 N   0  0  0  0  0  0  0  0  0  0  0  0
   10.1218  -17.0848   26.4855 C   0  0  1  0  0  0  0  0  0  0  0  0
   11.2554  -17.7558   25.8232 C   0  0  0  0  0  0  0  0  0  0  0  0
   11.6962  -18.9508   26.6198 C   0  0  0  0  0  0  0  0  0  0  0  0
   12.8614  -19.6681   25.9308 C   0  0  0  0  0  0  0  0  0  0  0  0
   13.1569  -20.8953   26.7668 C   0  0  0  0  0  0  0  0  0  0  0  0
   14.2622  -21.6589   26.2202 N   0  0  0  0  0  0  0  0  0  0  0  0
   10.4038  -16.7537   27.8935 C   0  0  0  0  0  0  0  0  0  0  0  0
   10.3235  -17.5011   28.8763 O   0  0  0  0  0  0  0  0  0  0  0  0
   10.8141  -15.4152   28.1255 O   0  0  0  0  0  0  0  0  0  0  0  0
  2  1  1  6
  3  2  1  0
  3  4  1  0
  4  5  1  0
  5  6  2  0
  5  9  1  0
  7  2  1  0
  7  8  2  0
 10  7  1  0
 11 10  1  0
 11 12  1  1
 13 12  1  0
 13 18  2  0
 14 13  1  0
 15 14  2  0
 15 16  1  0
 16 17  2  0
 17 18  1  0
 19 11  1  0
 20 19  2  0
 21 19  1  0
 22 21  1  0
 22 28  1  0
 22 23  1  6
 24 23  1  0
 25 24  1  0
 26 27  1  0
 26 25  1  0
 28 29  2  0
 28 30  1  0
M  END
$$$$
