EFK.pdb
     RDKit          3D

 30 30  0  0  1  0  0  0  0  0999 V2000
    7.8546  -17.4852   20.2097 N   0  0  0  0  0  0  0  0  0  0  0  0
    9.2998  -17.3536   20.3728 C   0  0  1  0  0  0  0  0  0  0  0  0
    9.8030  -16.7223   19.1028 C   0  0  0  0  0  0  0  0  0  0  0  0
   11.2819  -16.6277   18.9755 C   0  0  0  0  0  0  0  0  0  0  0  0
   11.8442  -17.5946   18.0218 C   0  0  0  0  0  0  0  0  0  0  0  0
   12.6317  -18.5015   18.3543 O   0  0  0  0  0  0  0  0  0  0  0  0
    9.5799  -16.5254   21.5861 C   0  0  0  0  0  0  0  0  0  0  0  0
   10.7779  -16.3162   21.9233 O   0  0  0  0  0  0  0  0  0  0  0  0
   11.4617  -17.4701   16.6825 O   0  0  0  0  0  0  0  0  0  0  0  0
    8.4934  -15.9930   22.3315 N   0  0  0  0  0  0  0  0  0  0  0  0
    8.7130  -15.3153   23.6104 C   0  0  1  0  0  0  0  0  0  0  0  0
    7.5108  -14.4794   23.8503 C   0  0  0  0  0  0  0  0  0  0  0  0
    7.4270  -13.7118   25.0684 C   0  0  0  0  0  0  0  0  0  0  0  0
    8.4130  -12.8424   25.5116 C   0  0  0  0  0  0  0  0  0  0  0  0
    8.2533  -12.1400   26.6778 C   0  0  0  0  0  0  0  0  0  0  0  0
    7.1199  -12.2590   27.4607 C   0  0  0  0  0  0  0  0  0  0  0  0
    6.1353  -13.1150   27.0358 C   0  0  0  0  0  0  0  0  0  0  0  0
    6.2994  -13.8253   25.8543 C   0  0  0  0  0  0  0  0  0  0  0  0
    8.8502  -16.2837   24.7190 C   0  0  0  0  0  0  0  0  0  0  0  0
    7.9315  -17.1315   24.8598 O   0  0  0  0  0  0  0  0  0  0  0  0
    9.9206  -16.3335   25.6247 N   0  0  0  0  0  0  0  0  0  0  0  0
   10.0848  -17.3716   26.6347 C   0  0  1  0  0  0  0  0  0  0  0  0
   11.4860  -17.7940   26.8133 C   0  0  0  0  0  0  0  0  0  0  0  0
   11.5858  -18.8425   27.8847 C   0  0  0  0  0  0  0  0  0  0  0  0
   13.0376  -19.2922   28.0768 C   0  0  0  0  0  0  0  0  0  0  0  0
   13.0127  -20.3538   29.1559 C   0  0  0  0  0  0  0  0  0  0  0  0
   14.3273  -20.9286   29.3683 N   0  0  0  0  0  0  0  0  0  0  0  0
    9.4405  -16.9949   27.9054 C   0  0  0  0  0  0  0  0  0  0  0  0
    8.8447  -17.7341   28.6988 O   0  0  0  0  0  0  0  0  0  0  0  0
    9.5262  -15.6179   28.2376 O   0  0  0  0  0  0  0  0  0  0  0  0
  2  1  1  6
  3  2  1  0
  3  4  1  0
  4  5  1  0
  5  6  2  0
  5  9  1  0
  7  2  1  0
  7  8  2  0
 10  7  1  0
 11 10  1  0
 11 12  1  1
 13 12  1  0
 13 18  2  0
 14 13  1  0
 15 14  2  0
 15 16  1  0
 16 17  2  0
 17 18  1  0
 19 11  1  0
 20 19  2  0
 21 19  1  0
 22 21  1  0
 22 28  1  0
 22 23  1  1
 24 23  1  0
 25 24  1  0
 26 27  1  0
 26 25  1  0
 28 29  2  0
 28 30  1  0
M  END
$$$$
