EFK.pdb
     RDKit          3D

 30 30  0  0  1  0  0  0  0  0999 V2000
    8.8220  -17.2750   20.4555 N   0  0  0  0  0  0  0  0  0  0  0  0
   10.1398  -17.3556   21.0794 C   0  0  1  0  0  0  0  0  0  0  0  0
   11.1275  -16.9787   20.0085 C   0  0  0  0  0  0  0  0  0  0  0  0
   11.1651  -17.8786   18.8248 C   0  0  0  0  0  0  0  0  0  0  0  0
   12.2065  -17.5148   17.8534 C   0  0  0  0  0  0  0  0  0  0  0  0
   12.0167  -17.5039   16.6218 O   0  0  0  0  0  0  0  0  0  0  0  0
   10.1783  -16.4356   22.2578 C   0  0  0  0  0  0  0  0  0  0  0  0
   11.2858  -16.1950   22.8128 O   0  0  0  0  0  0  0  0  0  0  0  0
   13.4627  -17.1679   18.3606 O   0  0  0  0  0  0  0  0  0  0  0  0
    8.9695  -15.8533   22.7260 N   0  0  0  0  0  0  0  0  0  0  0  0
    8.9108  -15.1666   24.0177 C   0  0  1  0  0  0  0  0  0  0  0  0
    7.7942  -14.1943   23.9217 C   0  0  0  0  0  0  0  0  0  0  0  0
    7.4396  -13.4226   25.0874 C   0  0  0  0  0  0  0  0  0  0  0  0
    8.2005  -12.3783   25.5923 C   0  0  0  0  0  0  0  0  0  0  0  0
    7.7889  -11.6858   26.7012 C   0  0  0  0  0  0  0  0  0  0  0  0
    6.6133  -11.9865   27.3640 C   0  0  0  0  0  0  0  0  0  0  0  0
    5.8493  -13.0170   26.8768 C   0  0  0  0  0  0  0  0  0  0  0  0
    6.2683  -13.7169   25.7534 C   0  0  0  0  0  0  0  0  0  0  0  0
    8.6286  -16.1108   25.1197 C   0  0  0  0  0  0  0  0  0  0  0  0
    7.6866  -16.9274   24.9510 O   0  0  0  0  0  0  0  0  0  0  0  0
    9.3255  -16.1696   26.3359 N   0  0  0  0  0  0  0  0  0  0  0  0
    9.8422  -17.4013   26.9195 C   0  0  1  0  0  0  0  0  0  0  0  0
   10.6785  -18.1809   25.9886 C   0  0  0  0  0  0  0  0  0  0  0  0
   11.0735  -19.4909   26.6090 C   0  0  0  0  0  0  0  0  0  0  0  0
   11.9454  -20.3091   25.6513 C   0  0  0  0  0  0  0  0  0  0  0  0
   12.2802  -21.5947   26.3774 C   0  0  0  0  0  0  0  0  0  0  0  0
   13.2318  -22.3957   25.6312 N   0  0  0  0  0  0  0  0  0  0  0  0
   10.5129  -17.1484   28.2072 C   0  0  0  0  0  0  0  0  0  0  0  0
   10.4506  -17.8296   29.2382 O   0  0  0  0  0  0  0  0  0  0  0  0
   11.3194  -15.9815   28.2456 O   0  0  0  0  0  0  0  0  0  0  0  0
  2  1  1  6
  3  2  1  0
  3  4  1  0
  4  5  1  0
  5  6  2  0
  5  9  1  0
  7  2  1  0
  7  8  2  0
 10  7  1  0
 11 10  1  0
 11 12  1  6
 13 12  1  0
 13 18  2  0
 14 13  1  0
 15 14  2  0
 15 16  1  0
 16 17  2  0
 17 18  1  0
 19 11  1  0
 20 19  2  0
 21 19  1  0
 22 21  1  0
 22 28  1  0
 22 23  1  6
 24 23  1  0
 25 24  1  0
 26 27  1  0
 26 25  1  0
 28 29  2  0
 28 30  1  0
M  END
$$$$
