EFK.pdb
     RDKit          3D

 30 30  0  0  1  0  0  0  0  0999 V2000
    8.7006  -17.4040   20.3995 N   0  0  0  0  0  0  0  0  0  0  0  0
   10.0102  -17.4190   21.0452 C   0  0  1  0  0  0  0  0  0  0  0  0
   11.0192  -17.2942   19.9358 C   0  0  0  0  0  0  0  0  0  0  0  0
   10.4947  -17.5222   18.5628 C   0  0  0  0  0  0  0  0  0  0  0  0
   11.5165  -17.3623   17.5184 C   0  0  0  0  0  0  0  0  0  0  0  0
   12.0206  -16.2623   17.2199 O   0  0  0  0  0  0  0  0  0  0  0  0
   10.0821  -16.2938   22.0277 C   0  0  0  0  0  0  0  0  0  0  0  0
   11.2128  -15.8825   22.4084 O   0  0  0  0  0  0  0  0  0  0  0  0
   11.9265  -18.5151   16.8412 O   0  0  0  0  0  0  0  0  0  0  0  0
    8.8781  -15.7132   22.5103 N   0  0  0  0  0  0  0  0  0  0  0  0
    8.8390  -15.0077   23.7926 C   0  0  1  0  0  0  0  0  0  0  0  0
    7.6110  -14.1752   23.7722 C   0  0  0  0  0  0  0  0  0  0  0  0
    7.2702  -13.4065   24.9440 C   0  0  0  0  0  0  0  0  0  0  0  0
    6.3020  -13.7775   25.8656 C   0  0  0  0  0  0  0  0  0  0  0  0
    6.0435  -12.9956   26.9613 C   0  0  0  0  0  0  0  0  0  0  0  0
    6.7228  -11.8156   27.2017 C   0  0  0  0  0  0  0  0  0  0  0  0
    7.6837  -11.4348   26.2992 C   0  0  0  0  0  0  0  0  0  0  0  0
    7.9438  -12.2284   25.1902 C   0  0  0  0  0  0  0  0  0  0  0  0
    8.7571  -15.9520   24.9270 C   0  0  0  0  0  0  0  0  0  0  0  0
    7.8538  -16.8266   24.8839 O   0  0  0  0  0  0  0  0  0  0  0  0
    9.6041  -15.9517   26.0455 N   0  0  0  0  0  0  0  0  0  0  0  0
    9.7957  -17.1003   26.9221 C   0  0  1  0  0  0  0  0  0  0  0  0
   10.3138  -18.2888   26.2201 C   0  0  0  0  0  0  0  0  0  0  0  0
   11.7800  -18.1314   25.9330 C   0  0  0  0  0  0  0  0  0  0  0  0
   12.2967  -19.2893   25.0732 C   0  0  0  0  0  0  0  0  0  0  0  0
   13.7899  -19.0806   24.9351 C   0  0  0  0  0  0  0  0  0  0  0  0
   14.4139  -20.1655   24.2021 N   0  0  0  0  0  0  0  0  0  0  0  0
   10.5985  -16.7474   28.1064 C   0  0  0  0  0  0  0  0  0  0  0  0
   10.9627  -17.4950   29.0227 O   0  0  0  0  0  0  0  0  0  0  0  0
   10.9884  -15.3852   28.1839 O   0  0  0  0  0  0  0  0  0  0  0  0
  2  1  1  6
  3  2  1  0
  3  4  1  0
  4  5  1  0
  5  6  2  0
  5  9  1  0
  7  2  1  0
  7  8  2  0
 10  7  1  0
 11 10  1  0
 11 12  1  6
 13 12  1  0
 13 18  2  0
 14 13  1  0
 15 14  2  0
 15 16  1  0
 16 17  2  0
 17 18  1  0
 19 11  1  0
 20 19  2  0
 21 19  1  0
 22 21  1  0
 22 28  1  0
 22 23  1  6
 24 23  1  0
 25 24  1  0
 26 27  1  0
 26 25  1  0
 28 29  2  0
 28 30  1  0
M  END
$$$$
