EFK.pdb
     RDKit          3D

 30 30  0  0  1  0  0  0  0  0999 V2000
    9.1648  -16.8994   18.3313 N   0  0  0  0  0  0  0  0  0  0  0  0
    8.6809  -17.2966   19.6506 C   0  0  1  0  0  0  0  0  0  0  0  0
    9.3671  -18.5978   19.9677 C   0  0  0  0  0  0  0  0  0  0  0  0
   10.8027  -18.6756   19.5866 C   0  0  0  0  0  0  0  0  0  0  0  0
   11.4015  -19.9918   19.8500 C   0  0  0  0  0  0  0  0  0  0  0  0
   11.9404  -20.6854   18.9659 O   0  0  0  0  0  0  0  0  0  0  0  0
    8.9998  -16.2149   20.6328 C   0  0  0  0  0  0  0  0  0  0  0  0
   10.0086  -15.4832   20.4340 O   0  0  0  0  0  0  0  0  0  0  0  0
   11.3515  -20.4671   21.1643 O   0  0  0  0  0  0  0  0  0  0  0  0
    8.1618  -16.0348   21.7663 N   0  0  0  0  0  0  0  0  0  0  0  0
    8.3920  -14.9407   22.7115 C   0  0  1  0  0  0  0  0  0  0  0  0
    7.1642  -14.8398   23.5384 C   0  0  0  0  0  0  0  0  0  0  0  0
    7.0928  -13.8239   24.5595 C   0  0  0  0  0  0  0  0  0  0  0  0
    7.6976  -12.5790   24.4645 C   0  0  0  0  0  0  0  0  0  0  0  0
    7.5741  -11.6627   25.4764 C   0  0  0  0  0  0  0  0  0  0  0  0
    6.8524  -11.9264   26.6259 C   0  0  0  0  0  0  0  0  0  0  0  0
    6.2481  -13.1535   26.7350 C   0  0  0  0  0  0  0  0  0  0  0  0
    6.3746  -14.0799   25.7087 C   0  0  0  0  0  0  0  0  0  0  0  0
    9.5419  -15.2237   23.5965 C   0  0  0  0  0  0  0  0  0  0  0  0
   10.4550  -14.3600   23.6479 O   0  0  0  0  0  0  0  0  0  0  0  0
    9.6963  -16.3756   24.3825 N   0  0  0  0  0  0  0  0  0  0  0  0
   10.4216  -16.4077   25.6464 C   0  0  1  0  0  0  0  0  0  0  0  0
    9.9345  -15.4163   26.6230 C   0  0  0  0  0  0  0  0  0  0  0  0
   10.7764  -15.4470   27.8668 C   0  0  0  0  0  0  0  0  0  0  0  0
    9.9410  -15.0956   29.1019 C   0  0  0  0  0  0  0  0  0  0  0  0
   10.8787  -15.1863   30.2871 C   0  0  0  0  0  0  0  0  0  0  0  0
   10.2248  -14.7792   31.5161 N   0  0  0  0  0  0  0  0  0  0  0  0
   10.4763  -17.7711   26.2028 C   0  0  0  0  0  0  0  0  0  0  0  0
    9.5486  -18.4230   26.6983 O   0  0  0  0  0  0  0  0  0  0  0  0
   11.7527  -18.3893   26.1539 O   0  0  0  0  0  0  0  0  0  0  0  0
  2  1  1  6
  3  2  1  0
  3  4  1  0
  4  5  1  0
  5  6  2  0
  5  9  1  0
  7  2  1  0
  7  8  2  0
 10  7  1  0
 11 10  1  0
 11 12  1  1
 13 12  1  0
 13 18  2  0
 14 13  1  0
 15 14  2  0
 15 16  1  0
 16 17  2  0
 17 18  1  0
 19 11  1  0
 20 19  2  0
 21 19  1  0
 22 21  1  0
 22 28  1  0
 22 23  1  1
 24 23  1  0
 25 24  1  0
 26 27  1  0
 26 25  1  0
 28 29  2  0
 28 30  1  0
M  END
$$$$
