EFK.pdb
     RDKit          3D

 30 30  0  0  1  0  0  0  0  0999 V2000
   10.4496  -16.1398   19.1913 N   0  0  0  0  0  0  0  0  0  0  0  0
    9.1944  -16.3115   19.9177 C   0  0  1  0  0  0  0  0  0  0  0  0
    8.8901  -17.7846   19.8739 C   0  0  0  0  0  0  0  0  0  0  0  0
    7.5283  -18.1723   20.3295 C   0  0  0  0  0  0  0  0  0  0  0  0
    7.2900  -19.6217   20.2751 C   0  0  0  0  0  0  0  0  0  0  0  0
    7.6948  -20.3451   19.3446 O   0  0  0  0  0  0  0  0  0  0  0  0
    9.3620  -15.7921   21.3100 C   0  0  0  0  0  0  0  0  0  0  0  0
   10.4758  -15.9307   21.8870 O   0  0  0  0  0  0  0  0  0  0  0  0
    6.5720  -20.1930   21.3304 O   0  0  0  0  0  0  0  0  0  0  0  0
    8.2658  -15.1550   21.9518 N   0  0  0  0  0  0  0  0  0  0  0  0
    8.3722  -14.6720   23.3298 C   0  0  1  0  0  0  0  0  0  0  0  0
    7.2886  -13.6739   23.5058 C   0  0  0  0  0  0  0  0  0  0  0  0
    7.0490  -13.1293   24.8196 C   0  0  0  0  0  0  0  0  0  0  0  0
    6.1099  -13.6275   25.7109 C   0  0  0  0  0  0  0  0  0  0  0  0
    5.9492  -13.0588   26.9476 C   0  0  0  0  0  0  0  0  0  0  0  0
    6.7020  -11.9769   27.3651 C   0  0  0  0  0  0  0  0  0  0  0  0
    7.6353  -11.4724   26.4949 C   0  0  0  0  0  0  0  0  0  0  0  0
    7.7962  -12.0500   25.2427 C   0  0  0  0  0  0  0  0  0  0  0  0
    8.1755  -15.7671   24.3032 C   0  0  0  0  0  0  0  0  0  0  0  0
    7.3102  -16.6367   24.0243 O   0  0  0  0  0  0  0  0  0  0  0  0
    8.8749  -15.9147   25.5105 N   0  0  0  0  0  0  0  0  0  0  0  0
    9.5289  -17.1490   25.9270 C   0  0  1  0  0  0  0  0  0  0  0  0
   10.4390  -17.6993   24.9058 C   0  0  0  0  0  0  0  0  0  0  0  0
   11.0728  -18.9697   25.3972 C   0  0  0  0  0  0  0  0  0  0  0  0
   12.0291  -19.5455   24.3481 C   0  0  0  0  0  0  0  0  0  0  0  0
   12.6315  -20.7911   24.9627 C   0  0  0  0  0  0  0  0  0  0  0  0
   13.5339  -21.4563   24.0424 N   0  0  0  0  0  0  0  0  0  0  0  0
   10.1774  -16.9990   27.2418 C   0  0  0  0  0  0  0  0  0  0  0  0
   11.1455  -16.2844   27.5298 O   0  0  0  0  0  0  0  0  0  0  0  0
    9.6077  -17.7747   28.2847 O   0  0  0  0  0  0  0  0  0  0  0  0
  2  1  1  6
  3  2  1  0
  3  4  1  0
  4  5  1  0
  5  6  2  0
  5  9  1  0
  7  2  1  0
  7  8  2  0
 10  7  1  0
 11 10  1  0
 11 12  1  1
 13 12  1  0
 13 18  2  0
 14 13  1  0
 15 14  2  0
 15 16  1  0
 16 17  2  0
 17 18  1  0
 19 11  1  0
 20 19  2  0
 21 19  1  0
 22 21  1  0
 22 28  1  0
 22 23  1  6
 24 23  1  0
 25 24  1  0
 26 27  1  0
 26 25  1  0
 28 29  2  0
 28 30  1  0
M  END
$$$$
