EFK.pdb
     RDKit          3D

 30 30  0  0  1  0  0  0  0  0999 V2000
    7.8696  -19.3028   19.4307 N   0  0  0  0  0  0  0  0  0  0  0  0
    9.1461  -18.7325   19.0090 C   0  0  1  0  0  0  0  0  0  0  0  0
    8.8947  -18.1070   17.6636 C   0  0  0  0  0  0  0  0  0  0  0  0
   10.0945  -17.5584   16.9767 C   0  0  0  0  0  0  0  0  0  0  0  0
    9.7940  -16.9802   15.6592 C   0  0  0  0  0  0  0  0  0  0  0  0
   10.1167  -15.8215   15.3330 O   0  0  0  0  0  0  0  0  0  0  0  0
    9.6015  -17.7446   20.0352 C   0  0  0  0  0  0  0  0  0  0  0  0
   10.7078  -17.1591   19.8751 O   0  0  0  0  0  0  0  0  0  0  0  0
    9.1122  -17.7894   14.7448 O   0  0  0  0  0  0  0  0  0  0  0  0
    8.7801  -17.4871   21.1659 N   0  0  0  0  0  0  0  0  0  0  0  0
    9.2237  -16.5907   22.2351 C   0  0  1  0  0  0  0  0  0  0  0  0
    8.0648  -15.7222   22.5577 C   0  0  0  0  0  0  0  0  0  0  0  0
    7.8163  -14.5595   21.7413 C   0  0  0  0  0  0  0  0  0  0  0  0
    8.3352  -13.2994   22.0004 C   0  0  0  0  0  0  0  0  0  0  0  0
    8.0596  -12.2452   21.1688 C   0  0  0  0  0  0  0  0  0  0  0  0
    7.2632  -12.3800   20.0466 C   0  0  0  0  0  0  0  0  0  0  0  0
    6.7423  -13.6204   19.7766 C   0  0  0  0  0  0  0  0  0  0  0  0
    7.0229  -14.6866   20.6203 C   0  0  0  0  0  0  0  0  0  0  0  0
    9.6080  -17.3441   23.4477 C   0  0  0  0  0  0  0  0  0  0  0  0
    8.8077  -18.2246   23.8561 O   0  0  0  0  0  0  0  0  0  0  0  0
   10.7912  -17.1569   24.1780 N   0  0  0  0  0  0  0  0  0  0  0  0
   11.2875  -18.0938   25.1782 C   0  0  1  0  0  0  0  0  0  0  0  0
   12.7510  -18.2682   25.1377 C   0  0  0  0  0  0  0  0  0  0  0  0
   13.1796  -19.3349   26.1048 C   0  0  0  0  0  0  0  0  0  0  0  0
   14.6964  -19.5432   26.0529 C   0  0  0  0  0  0  0  0  0  0  0  0
   15.0050  -20.6547   27.0334 C   0  0  0  0  0  0  0  0  0  0  0  0
   15.7363  -21.7357   26.4006 N   0  0  0  0  0  0  0  0  0  0  0  0
   10.7946  -17.7562   26.5254 C   0  0  0  0  0  0  0  0  0  0  0  0
   10.9180  -18.4185   27.5632 O   0  0  0  0  0  0  0  0  0  0  0  0
   10.0999  -16.5224   26.6193 O   0  0  0  0  0  0  0  0  0  0  0  0
  2  1  1  1
  3  2  1  0
  3  4  1  0
  4  5  1  0
  5  6  2  0
  5  9  1  0
  7  2  1  0
  7  8  2  0
 10  7  1  0
 11 10  1  0
 11 12  1  1
 13 12  1  0
 13 18  2  0
 14 13  1  0
 15 14  2  0
 15 16  1  0
 16 17  2  0
 17 18  1  0
 19 11  1  0
 20 19  2  0
 21 19  1  0
 22 21  1  0
 22 28  1  0
 22 23  1  1
 24 23  1  0
 25 24  1  0
 26 27  1  0
 26 25  1  0
 28 29  2  0
 28 30  1  0
M  END
$$$$
