HPW.pdb
     RDKit          3D

 32 35  0  0  1  0  0  0  0  0999 V2000
    7.5447  -19.4829   19.2598 N   0  0  0  0  0  0  0  0  0  0  0  0
    7.1379  -18.5669   20.3424 C   0  0  1  0  0  0  0  0  0  0  0  0
    7.0675  -19.4839   21.5701 C   0  0  0  0  0  0  0  0  0  0  0  0
    6.2005  -20.6600   21.3057 C   0  0  0  0  0  0  0  0  0  0  0  0
    4.8523  -20.6572   20.9573 C   0  0  0  0  0  0  0  0  0  0  0  0
    4.4254  -21.8975   20.8032 N   0  0  0  0  0  0  0  0  0  0  0  0
    5.4632  -22.7273   21.0426 C   0  0  0  0  0  0  0  0  0  0  0  0
    6.5273  -21.9628   21.3445 N   0  0  0  0  0  0  0  0  0  0  0  0
    8.1972  -17.5298   20.5490 C   0  0  0  0  0  0  0  0  0  0  0  0
    9.2816  -17.7516   19.8909 O   0  0  0  0  0  0  0  0  0  0  0  0
    8.0675  -16.4023   21.3756 N   0  0  0  0  0  0  0  0  0  0  0  0
    6.9091  -16.0647   22.1527 C   0  0  0  0  0  0  0  0  0  0  0  0
    6.8648  -14.5343   22.0235 C   0  0  0  0  0  0  0  0  0  0  0  0
    8.1764  -14.1344   21.4000 C   0  0  0  0  0  0  0  0  0  0  0  0
    9.0193  -15.3717   21.5947 C   0  0  1  0  0  0  0  0  0  0  0  0
    9.6066  -15.3317   22.9601 C   0  0  0  0  0  0  0  0  0  0  0  0
   10.3468  -14.3503   23.2212 O   0  0  0  0  0  0  0  0  0  0  0  0
    9.3986  -16.2980   23.9671 N   0  0  0  0  0  0  0  0  0  0  0  0
   10.1421  -16.1832   25.2263 C   0  0  1  0  0  0  0  0  0  0  0  0
    9.9116  -14.8634   25.8628 C   0  0  0  0  0  0  0  0  0  0  0  0
    8.4943  -14.5345   26.0818 C   0  0  0  0  0  0  0  0  0  0  0  0
    7.4255  -15.4387   26.0996 C   0  0  0  0  0  0  0  0  0  0  0  0
    6.2905  -14.7543   26.2825 N   0  0  0  0  0  0  0  0  0  0  0  0
    6.5456  -13.4459   26.3878 C   0  0  0  0  0  0  0  0  0  0  0  0
    5.7140  -12.3534   26.6004 C   0  0  0  0  0  0  0  0  0  0  0  0
    6.2395  -11.0879   26.6954 C   0  0  0  0  0  0  0  0  0  0  0  0
    7.5954  -10.9473   26.5744 C   0  0  0  0  0  0  0  0  0  0  0  0
    8.4418  -12.0066   26.3636 C   0  0  0  0  0  0  0  0  0  0  0  0
    7.9070  -13.2894   26.2665 C   0  0  0  0  0  0  0  0  0  0  0  0
    9.9512  -17.3166   26.1258 C   0  0  0  0  0  0  0  0  0  0  0  0
   10.7317  -17.4886   27.2624 O   0  0  0  0  0  0  0  0  0  0  0  0
    9.0779  -18.2189   25.9378 O   0  0  0  0  0  0  0  0  0  0  0  0
  2  1  1  6
  3  2  1  0
  4  3  1  0
  4  5  2  0
  6  5  1  0
  7  6  1  0
  8  7  2  0
  8  4  1  0
  9 11  1  0
  9  2  1  0
 10  9  2  0
 11 15  1  0
 12 11  1  0
 12 13  1  0
 13 14  1  0
 15 14  1  0
 15 16  1  1
 16 18  1  0
 17 16  2  0
 18 19  1  0
 19 20  1  1
 21 20  1  0
 22 21  2  0
 23 22  1  0
 24 23  1  0
 24 29  2  0
 25 24  1  0
 26 25  2  0
 26 27  1  0
 27 28  2  0
 28 29  1  0
 29 21  1  0
 30 31  1  0
 30 19  1  0
 32 30  2  0
M  END
$$$$
