HPW.pdb
     RDKit          3D

 32 35  0  0  1  0  0  0  0  0999 V2000
    7.3493  -15.4756   16.8101 N   0  0  0  0  0  0  0  0  0  0  0  0
    8.4491  -16.0850   17.5819 C   0  0  1  0  0  0  0  0  0  0  0  0
    9.5890  -15.0698   17.4302 C   0  0  0  0  0  0  0  0  0  0  0  0
   10.1659  -15.1188   16.0629 C   0  0  0  0  0  0  0  0  0  0  0  0
   10.9807  -16.1103   15.5225 C   0  0  0  0  0  0  0  0  0  0  0  0
   11.2936  -15.8050   14.2763 N   0  0  0  0  0  0  0  0  0  0  0  0
   10.7032  -14.6286   13.9755 C   0  0  0  0  0  0  0  0  0  0  0  0
   10.0260  -14.2287   15.0661 N   0  0  0  0  0  0  0  0  0  0  0  0
    8.0560  -16.1888   19.0224 C   0  0  0  0  0  0  0  0  0  0  0  0
    7.3129  -15.2206   19.4327 O   0  0  0  0  0  0  0  0  0  0  0  0
    8.4389  -17.2267   19.8870 N   0  0  0  0  0  0  0  0  0  0  0  0
    9.3838  -18.2629   19.5817 C   0  0  0  0  0  0  0  0  0  0  0  0
    8.7583  -19.4868   20.2684 C   0  0  0  0  0  0  0  0  0  0  0  0
    7.6455  -18.9523   21.1315 C   0  0  0  0  0  0  0  0  0  0  0  0
    7.9687  -17.4793   21.2027 C   0  0  1  0  0  0  0  0  0  0  0  0
    8.9673  -17.2677   22.2838 C   0  0  0  0  0  0  0  0  0  0  0  0
   10.1369  -17.6631   22.0491 O   0  0  0  0  0  0  0  0  0  0  0  0
    8.7034  -16.6668   23.5330 N   0  0  0  0  0  0  0  0  0  0  0  0
    9.8301  -16.2135   24.3555 C   0  0  1  0  0  0  0  0  0  0  0  0
    9.6643  -14.7934   24.7503 C   0  0  0  0  0  0  0  0  0  0  0  0
    8.3039  -14.4390   25.1844 C   0  0  0  0  0  0  0  0  0  0  0  0
    7.2132  -15.3103   25.2908 C   0  0  0  0  0  0  0  0  0  0  0  0
    6.1410  -14.6073   25.6733 N   0  0  0  0  0  0  0  0  0  0  0  0
    6.4587  -13.3176   25.8278 C   0  0  0  0  0  0  0  0  0  0  0  0
    5.7068  -12.2187   26.2245 C   0  0  0  0  0  0  0  0  0  0  0  0
    6.2891  -10.9790   26.3285 C   0  0  0  0  0  0  0  0  0  0  0  0
    7.6204  -10.8703   26.0305 C   0  0  0  0  0  0  0  0  0  0  0  0
    8.3885  -11.9367   25.6357 C   0  0  0  0  0  0  0  0  0  0  0  0
    7.7960  -13.1932   25.5298 C   0  0  0  0  0  0  0  0  0  0  0  0
   10.1408  -17.1057   25.4679 C   0  0  0  0  0  0  0  0  0  0  0  0
   11.3524  -17.0377   26.1446 O   0  0  0  0  0  0  0  0  0  0  0  0
    9.3445  -18.0002   25.8899 O   0  0  0  0  0  0  0  0  0  0  0  0
  2  1  1  6
  3  2  1  0
  4  3  1  0
  4  5  2  0
  6  5  1  0
  7  6  1  0
  8  7  2  0
  8  4  1  0
  9 11  1  0
  9  2  1  0
 10  9  2  0
 11 15  1  0
 12 11  1  0
 12 13  1  0
 13 14  1  0
 15 14  1  0
 15 16  1  1
 16 18  1  0
 17 16  2  0
 18 19  1  0
 19 20  1  1
 21 20  1  0
 22 21  2  0
 23 22  1  0
 24 23  1  0
 24 29  2  0
 25 24  1  0
 26 25  2  0
 26 27  1  0
 27 28  2  0
 28 29  1  0
 29 21  1  0
 30 31  1  0
 30 19  1  0
 32 30  2  0
M  END
$$$$
