HPW.pdb
     RDKit          3D

 32 35  0  0  1  0  0  0  0  0999 V2000
    6.3165  -18.9102   19.4070 N   0  0  0  0  0  0  0  0  0  0  0  0
    6.1162  -17.5692   19.9884 C   0  0  1  0  0  0  0  0  0  0  0  0
    5.2777  -17.8516   21.2414 C   0  0  0  0  0  0  0  0  0  0  0  0
    3.9534  -18.4169   20.8784 C   0  0  0  0  0  0  0  0  0  0  0  0
    2.9336  -17.7937   20.1638 C   0  0  0  0  0  0  0  0  0  0  0  0
    1.9067  -18.6146   20.0380 N   0  0  0  0  0  0  0  0  0  0  0  0
    2.2222  -19.7732   20.6553 C   0  0  0  0  0  0  0  0  0  0  0  0
    3.4621  -19.6361   21.1572 N   0  0  0  0  0  0  0  0  0  0  0  0
    7.4379  -16.9908   20.3871 C   0  0  0  0  0  0  0  0  0  0  0  0
    8.4446  -17.7407   20.1004 O   0  0  0  0  0  0  0  0  0  0  0  0
    7.6139  -15.7496   21.0193 N   0  0  0  0  0  0  0  0  0  0  0  0
    6.5735  -14.8046   21.3095 C   0  0  0  0  0  0  0  0  0  0  0  0
    7.2711  -13.4611   21.0468 C   0  0  0  0  0  0  0  0  0  0  0  0
    8.7353  -13.7792   20.8927 C   0  0  0  0  0  0  0  0  0  0  0  0
    8.8283  -15.1701   21.4725 C   0  0  1  0  0  0  0  0  0  0  0  0
    8.9639  -15.0570   22.9488 C   0  0  0  0  0  0  0  0  0  0  0  0
    9.0493  -13.8928   23.4144 O   0  0  0  0  0  0  0  0  0  0  0  0
    9.0040  -16.1415   23.8507 N   0  0  0  0  0  0  0  0  0  0  0  0
   10.0168  -16.1463   24.9115 C   0  0  1  0  0  0  0  0  0  0  0  0
    9.7990  -15.0280   25.8613 C   0  0  0  0  0  0  0  0  0  0  0  0
    8.4010  -14.5804   25.9614 C   0  0  0  0  0  0  0  0  0  0  0  0
    7.2621  -15.3479   25.6891 C   0  0  0  0  0  0  0  0  0  0  0  0
    6.1799  -14.5781   25.8510 N   0  0  0  0  0  0  0  0  0  0  0  0
    6.5361  -13.3421   26.2164 C   0  0  0  0  0  0  0  0  0  0  0  0
    5.7861  -12.2117   26.5164 C   0  0  0  0  0  0  0  0  0  0  0  0
    6.4064  -11.0468   26.8970 C   0  0  0  0  0  0  0  0  0  0  0  0
    7.7731  -11.0433   26.9683 C   0  0  0  0  0  0  0  0  0  0  0  0
    8.5405  -12.1431   26.6777 C   0  0  0  0  0  0  0  0  0  0  0  0
    7.9097  -13.3236   26.2909 C   0  0  0  0  0  0  0  0  0  0  0  0
   10.1870  -17.4454   25.5545 C   0  0  0  0  0  0  0  0  0  0  0  0
   11.2238  -17.6907   26.4463 O   0  0  0  0  0  0  0  0  0  0  0  0
    9.4184  -18.4345   25.3462 O   0  0  0  0  0  0  0  0  0  0  0  0
  2  1  1  1
  3  2  1  0
  4  3  1  0
  4  5  2  0
  6  5  1  0
  7  6  1  0
  8  7  2  0
  8  4  1  0
  9 11  1  0
  9  2  1  0
 10  9  2  0
 11 15  1  0
 12 11  1  0
 12 13  1  0
 13 14  1  0
 15 14  1  0
 15 16  1  1
 16 18  1  0
 17 16  2  0
 18 19  1  0
 19 20  1  1
 21 20  1  0
 22 21  2  0
 23 22  1  0
 24 23  1  0
 24 29  2  0
 25 24  1  0
 26 25  2  0
 26 27  1  0
 27 28  2  0
 28 29  1  0
 29 21  1  0
 30 31  1  0
 30 19  1  0
 32 30  2  0
M  END
$$$$
