HPW.pdb
     RDKit          3D

 32 35  0  0  1  0  0  0  0  0999 V2000
    6.4175  -18.7769   19.3185 N   0  0  0  0  0  0  0  0  0  0  0  0
    6.1939  -17.5288   20.0728 C   0  0  1  0  0  0  0  0  0  0  0  0
    5.3695  -17.9917   21.2807 C   0  0  0  0  0  0  0  0  0  0  0  0
    4.0589  -18.5413   20.8504 C   0  0  0  0  0  0  0  0  0  0  0  0
    3.0473  -17.8776   20.1610 C   0  0  0  0  0  0  0  0  0  0  0  0
    2.0318  -18.6966   19.9552 N   0  0  0  0  0  0  0  0  0  0  0  0
    2.3468  -19.8935   20.4945 C   0  0  0  0  0  0  0  0  0  0  0  0
    3.5748  -19.7817   21.0308 N   0  0  0  0  0  0  0  0  0  0  0  0
    7.5062  -16.9806   20.5394 C   0  0  0  0  0  0  0  0  0  0  0  0
    8.5082  -17.7559   20.3094 O   0  0  0  0  0  0  0  0  0  0  0  0
    7.6785  -15.7410   21.1757 N   0  0  0  0  0  0  0  0  0  0  0  0
    6.6284  -14.8255   21.5205 C   0  0  0  0  0  0  0  0  0  0  0  0
    7.2799  -13.4623   21.2412 C   0  0  0  0  0  0  0  0  0  0  0  0
    8.7434  -13.7415   21.0202 C   0  0  0  0  0  0  0  0  0  0  0  0
    8.8966  -15.1347   21.5814 C   0  0  1  0  0  0  0  0  0  0  0  0
    9.0939  -15.0314   23.0515 C   0  0  0  0  0  0  0  0  0  0  0  0
    9.3301  -13.8830   23.5040 O   0  0  0  0  0  0  0  0  0  0  0  0
    9.0374  -16.1090   23.9608 N   0  0  0  0  0  0  0  0  0  0  0  0
   10.0785  -16.2279   24.9870 C   0  0  1  0  0  0  0  0  0  0  0  0
    9.8591  -15.2540   26.0841 C   0  0  0  0  0  0  0  0  0  0  0  0
    8.4751  -14.7674   26.1958 C   0  0  0  0  0  0  0  0  0  0  0  0
    7.3117  -15.5269   26.0230 C   0  0  0  0  0  0  0  0  0  0  0  0
    6.2520  -14.7218   26.1604 N   0  0  0  0  0  0  0  0  0  0  0  0
    6.6464  -13.4699   26.4157 C   0  0  0  0  0  0  0  0  0  0  0  0
    5.9310  -12.3024   26.6514 C   0  0  0  0  0  0  0  0  0  0  0  0
    6.5883  -11.1263   26.9184 C   0  0  0  0  0  0  0  0  0  0  0  0
    7.9565  -11.1492   26.9431 C   0  0  0  0  0  0  0  0  0  0  0  0
    8.6902  -12.2859   26.7139 C   0  0  0  0  0  0  0  0  0  0  0  0
    8.0218  -13.4778   26.4422 C   0  0  0  0  0  0  0  0  0  0  0  0
   10.2980  -17.5964   25.4444 C   0  0  0  0  0  0  0  0  0  0  0  0
   11.3347  -17.9214   26.3104 O   0  0  0  0  0  0  0  0  0  0  0  0
    9.5755  -18.5773   25.0866 O   0  0  0  0  0  0  0  0  0  0  0  0
  2  1  1  6
  3  2  1  0
  4  3  1  0
  4  5  2  0
  6  5  1  0
  7  6  1  0
  8  7  2  0
  8  4  1  0
  9 11  1  0
  9  2  1  0
 10  9  2  0
 11 15  1  0
 12 11  1  0
 12 13  1  0
 13 14  1  0
 15 14  1  0
 15 16  1  1
 16 18  1  0
 17 16  2  0
 18 19  1  0
 19 20  1  1
 21 20  1  0
 22 21  2  0
 23 22  1  0
 24 23  1  0
 24 29  2  0
 25 24  1  0
 26 25  2  0
 26 27  1  0
 27 28  2  0
 28 29  1  0
 29 21  1  0
 30 31  1  0
 30 19  1  0
 32 30  2  0
M  END
$$$$
