HPW.pdb
     RDKit          3D

 32 35  0  0  1  0  0  0  0  0999 V2000
   10.7535  -15.8036   17.5190 N   0  0  0  0  0  0  0  0  0  0  0  0
    9.6853  -15.0881   18.2425 C   0  0  1  0  0  0  0  0  0  0  0  0
    8.4045  -15.5913   17.5649 C   0  0  0  0  0  0  0  0  0  0  0  0
    8.3927  -15.2388   16.1225 C   0  0  0  0  0  0  0  0  0  0  0  0
    8.4253  -13.9647   15.5617 C   0  0  0  0  0  0  0  0  0  0  0  0
    8.4024  -14.0529   14.2442 N   0  0  0  0  0  0  0  0  0  0  0  0
    8.3548  -15.3616   13.9157 C   0  0  0  0  0  0  0  0  0  0  0  0
    8.3498  -16.0636   15.0626 N   0  0  0  0  0  0  0  0  0  0  0  0
    9.6886  -15.5001   19.6815 C   0  0  0  0  0  0  0  0  0  0  0  0
   10.6916  -16.2369   20.0120 O   0  0  0  0  0  0  0  0  0  0  0  0
    8.7094  -15.1424   20.6219 N   0  0  0  0  0  0  0  0  0  0  0  0
    7.3107  -14.9731   20.3488 C   0  0  0  0  0  0  0  0  0  0  0  0
    6.9467  -13.7773   21.2422 C   0  0  0  0  0  0  0  0  0  0  0  0
    8.1327  -13.5601   22.1450 C   0  0  0  0  0  0  0  0  0  0  0  0
    8.8924  -14.8568   22.0007 C   0  0  1  0  0  0  0  0  0  0  0  0
    8.3072  -15.8525   22.9370 C   0  0  0  0  0  0  0  0  0  0  0  0
    7.0931  -15.7023   23.2249 O   0  0  0  0  0  0  0  0  0  0  0  0
    9.0022  -16.9349   23.5172 N   0  0  0  0  0  0  0  0  0  0  0  0
    9.6099  -16.7614   24.8408 C   0  0  1  0  0  0  0  0  0  0  0  0
    9.5494  -15.3437   25.2732 C   0  0  0  0  0  0  0  0  0  0  0  0
    8.2196  -14.9025   25.7223 C   0  0  0  0  0  0  0  0  0  0  0  0
    7.0556  -15.6796   25.7585 C   0  0  0  0  0  0  0  0  0  0  0  0
    6.0441  -14.9137   26.1831 N   0  0  0  0  0  0  0  0  0  0  0  0
    6.4712  -13.6712   26.4317 C   0  0  0  0  0  0  0  0  0  0  0  0
    5.8131  -12.5411   26.9009 C   0  0  0  0  0  0  0  0  0  0  0  0
    6.5001  -11.3681   27.0974 C   0  0  0  0  0  0  0  0  0  0  0  0
    7.8396  -11.3563   26.8170 C   0  0  0  0  0  0  0  0  0  0  0  0
    8.5166  -12.4555   26.3521 C   0  0  0  0  0  0  0  0  0  0  0  0
    7.8180  -13.6443   26.1525 C   0  0  0  0  0  0  0  0  0  0  0  0
    9.1214  -17.7071   25.8393 C   0  0  0  0  0  0  0  0  0  0  0  0
    9.6969  -17.8028   27.1003 O   0  0  0  0  0  0  0  0  0  0  0  0
    8.1551  -18.5046   25.6329 O   0  0  0  0  0  0  0  0  0  0  0  0
  2  1  1  6
  3  2  1  0
  4  3  1  0
  4  5  2  0
  6  5  1  0
  7  6  1  0
  8  7  2  0
  8  4  1  0
  9 11  1  0
  9  2  1  0
 10  9  2  0
 11 15  1  0
 12 11  1  0
 12 13  1  0
 13 14  1  0
 15 14  1  0
 15 16  1  1
 16 18  1  0
 17 16  2  0
 18 19  1  0
 19 20  1  1
 21 20  1  0
 22 21  2  0
 23 22  1  0
 24 23  1  0
 24 29  2  0
 25 24  1  0
 26 25  2  0
 26 27  1  0
 27 28  2  0
 28 29  1  0
 29 21  1  0
 30 31  1  0
 30 19  1  0
 32 30  2  0
M  END
$$$$
