HPW.pdb
     RDKit          3D

 32 35  0  0  1  0  0  0  0  0999 V2000
    5.3697  -17.4414   19.5269 N   0  0  0  0  0  0  0  0  0  0  0  0
    6.5593  -16.6043   19.7735 C   0  0  1  0  0  0  0  0  0  0  0  0
    5.9612  -15.2233   20.0705 C   0  0  0  0  0  0  0  0  0  0  0  0
    7.0216  -14.1851   20.1225 C   0  0  0  0  0  0  0  0  0  0  0  0
    7.3170  -13.3285   21.1799 C   0  0  0  0  0  0  0  0  0  0  0  0
    8.3285  -12.5444   20.8537 N   0  0  0  0  0  0  0  0  0  0  0  0
    8.7128  -12.8615   19.5989 C   0  0  0  0  0  0  0  0  0  0  0  0
    7.9127  -13.8545   19.1727 N   0  0  0  0  0  0  0  0  0  0  0  0
    7.2876  -17.1075   20.9805 C   0  0  0  0  0  0  0  0  0  0  0  0
    6.5566  -17.8044   21.7794 O   0  0  0  0  0  0  0  0  0  0  0  0
    8.6422  -16.8664   21.2601 N   0  0  0  0  0  0  0  0  0  0  0  0
    9.4962  -15.9644   20.5413 C   0  0  0  0  0  0  0  0  0  0  0  0
   10.8328  -16.7219   20.5281 C   0  0  0  0  0  0  0  0  0  0  0  0
   10.6659  -17.8707   21.4880 C   0  0  0  0  0  0  0  0  0  0  0  0
    9.4404  -17.4645   22.2706 C   0  0  1  0  0  0  0  0  0  0  0  0
    9.8621  -16.5531   23.3670 C   0  0  0  0  0  0  0  0  0  0  0  0
   10.4708  -15.5090   23.0224 O   0  0  0  0  0  0  0  0  0  0  0  0
    9.6342  -16.7702   24.7426 N   0  0  0  0  0  0  0  0  0  0  0  0
   10.4000  -15.9910   25.7212 C   0  0  1  0  0  0  0  0  0  0  0  0
    9.5434  -15.5742   26.8583 C   0  0  0  0  0  0  0  0  0  0  0  0
    8.2192  -15.0667   26.4663 C   0  0  0  0  0  0  0  0  0  0  0  0
    7.1378  -15.8319   26.0132 C   0  0  0  0  0  0  0  0  0  0  0  0
    6.1270  -15.0077   25.7148 N   0  0  0  0  0  0  0  0  0  0  0  0
    6.4762  -13.7376   25.9451 C   0  0  0  0  0  0  0  0  0  0  0  0
    5.7768  -12.5448   25.8100 C   0  0  0  0  0  0  0  0  0  0  0  0
    6.3679  -11.3507   26.1440 C   0  0  0  0  0  0  0  0  0  0  0  0
    7.6548  -11.3816   26.6087 C   0  0  0  0  0  0  0  0  0  0  0  0
    8.3709  -12.5433   26.7523 C   0  0  0  0  0  0  0  0  0  0  0  0
    7.7701  -13.7534   26.4121 C   0  0  0  0  0  0  0  0  0  0  0  0
   11.6527  -16.6227   26.1232 C   0  0  0  0  0  0  0  0  0  0  0  0
   11.9941  -17.9030   25.7053 O   0  0  0  0  0  0  0  0  0  0  0  0
   12.5074  -16.0630   26.8773 O   0  0  0  0  0  0  0  0  0  0  0  0
  2  1  1  1
  3  2  1  0
  4  3  1  0
  4  5  2  0
  6  5  1  0
  7  6  1  0
  8  7  2  0
  8  4  1  0
  9 11  1  0
  9  2  1  0
 10  9  2  0
 11 15  1  0
 12 11  1  0
 12 13  1  0
 13 14  1  0
 15 14  1  0
 15 16  1  1
 16 18  1  0
 17 16  2  0
 18 19  1  0
 19 20  1  1
 21 20  1  0
 22 21  2  0
 23 22  1  0
 24 23  1  0
 24 29  2  0
 25 24  1  0
 26 25  2  0
 26 27  1  0
 27 28  2  0
 28 29  1  0
 29 21  1  0
 30 31  1  0
 30 19  1  0
 32 30  2  0
M  END
$$$$
