HPW.pdb
     RDKit          3D

 32 35  0  0  1  0  0  0  0  0999 V2000
    9.6865  -17.4441   17.3621 N   0  0  0  0  0  0  0  0  0  0  0  0
    8.6266  -16.7677   18.1339 C   0  0  1  0  0  0  0  0  0  0  0  0
    7.7691  -17.9314   18.6472 C   0  0  0  0  0  0  0  0  0  0  0  0
    7.0983  -18.6332   17.5235 C   0  0  0  0  0  0  0  0  0  0  0  0
    6.5071  -18.0612   16.4000 C   0  0  0  0  0  0  0  0  0  0  0  0
    6.0147  -19.0070   15.6208 N   0  0  0  0  0  0  0  0  0  0  0  0
    6.2661  -20.1987   16.2034 C   0  0  0  0  0  0  0  0  0  0  0  0
    6.9214  -19.9540   17.3518 N   0  0  0  0  0  0  0  0  0  0  0  0
    9.2337  -16.0406   19.2929 C   0  0  0  0  0  0  0  0  0  0  0  0
   10.4686  -16.3363   19.5067 O   0  0  0  0  0  0  0  0  0  0  0  0
    8.5585  -15.1135   20.1027 N   0  0  0  0  0  0  0  0  0  0  0  0
    7.1951  -14.6968   19.9378 C   0  0  0  0  0  0  0  0  0  0  0  0
    7.2655  -13.2037   20.2929 C   0  0  0  0  0  0  0  0  0  0  0  0
    8.6304  -12.9853   20.8913 C   0  0  0  0  0  0  0  0  0  0  0  0
    9.0731  -14.3926   21.2125 C   0  0  1  0  0  0  0  0  0  0  0  0
    8.5075  -14.7746   22.5334 C   0  0  0  0  0  0  0  0  0  0  0  0
    7.6777  -13.9767   23.0376 O   0  0  0  0  0  0  0  0  0  0  0  0
    8.8283  -15.9464   23.2511 N   0  0  0  0  0  0  0  0  0  0  0  0
    9.6691  -15.8386   24.4481 C   0  0  1  0  0  0  0  0  0  0  0  0
    8.8747  -16.0684   25.6796 C   0  0  0  0  0  0  0  0  0  0  0  0
    7.6734  -15.2267   25.7928 C   0  0  0  0  0  0  0  0  0  0  0  0
    6.3684  -15.5908   25.4398 C   0  0  0  0  0  0  0  0  0  0  0  0
    5.5623  -14.5431   25.6462 N   0  0  0  0  0  0  0  0  0  0  0  0
    6.2587  -13.5034   26.1173 C   0  0  0  0  0  0  0  0  0  0  0  0
    5.8721  -12.2239   26.4964 C   0  0  0  0  0  0  0  0  0  0  0  0
    6.7982  -11.3328   26.9812 C   0  0  0  0  0  0  0  0  0  0  0  0
    8.0986  -11.7491   27.0751 C   0  0  0  0  0  0  0  0  0  0  0  0
    8.5106  -13.0055   26.7082 C   0  0  0  0  0  0  0  0  0  0  0  0
    7.5700  -13.9077   26.2158 C   0  0  0  0  0  0  0  0  0  0  0  0
   10.8947  -16.6277   24.3773 C   0  0  0  0  0  0  0  0  0  0  0  0
   11.1024  -17.5693   23.3769 O   0  0  0  0  0  0  0  0  0  0  0  0
   11.8443  -16.5206   25.2134 O   0  0  0  0  0  0  0  0  0  0  0  0
  2  1  1  6
  3  2  1  0
  4  3  1  0
  4  5  2  0
  6  5  1  0
  7  6  1  0
  8  7  2  0
  8  4  1  0
  9 11  1  0
  9  2  1  0
 10  9  2  0
 11 15  1  0
 12 11  1  0
 12 13  1  0
 13 14  1  0
 15 14  1  0
 15 16  1  1
 16 18  1  0
 17 16  2  0
 18 19  1  0
 19 20  1  1
 21 20  1  0
 22 21  2  0
 23 22  1  0
 24 23  1  0
 24 29  2  0
 25 24  1  0
 26 25  2  0
 26 27  1  0
 27 28  2  0
 28 29  1  0
 29 21  1  0
 30 31  1  0
 30 19  1  0
 32 30  2  0
M  END
$$$$
