HPW.pdb
     RDKit          3D

 32 35  0  0  1  0  0  0  0  0999 V2000
    7.3350  -18.7852   18.4062 N   0  0  0  0  0  0  0  0  0  0  0  0
    7.2007  -18.3538   19.8107 C   0  0  1  0  0  0  0  0  0  0  0  0
    7.4576  -19.6437   20.6001 C   0  0  0  0  0  0  0  0  0  0  0  0
    7.3171  -19.4102   22.0598 C   0  0  0  0  0  0  0  0  0  0  0  0
    8.3372  -19.2723   22.9975 C   0  0  0  0  0  0  0  0  0  0  0  0
    7.8212  -19.0748   24.1971 N   0  0  0  0  0  0  0  0  0  0  0  0
    6.4763  -19.0786   24.0771 C   0  0  0  0  0  0  0  0  0  0  0  0
    6.1895  -19.2823   22.7794 N   0  0  0  0  0  0  0  0  0  0  0  0
    8.2612  -17.3475   20.1319 C   0  0  0  0  0  0  0  0  0  0  0  0
    9.4034  -17.6021   19.5947 O   0  0  0  0  0  0  0  0  0  0  0  0
    8.0757  -16.2151   20.9408 N   0  0  0  0  0  0  0  0  0  0  0  0
    6.8802  -15.8935   21.6669 C   0  0  0  0  0  0  0  0  0  0  0  0
    6.8109  -14.3657   21.5202 C   0  0  0  0  0  0  0  0  0  0  0  0
    8.1385  -13.9453   20.9461 C   0  0  0  0  0  0  0  0  0  0  0  0
    8.9972  -15.1634   21.1876 C   0  0  1  0  0  0  0  0  0  0  0  0
    9.5276  -15.0985   22.5750 C   0  0  0  0  0  0  0  0  0  0  0  0
   10.2358  -14.0990   22.8561 O   0  0  0  0  0  0  0  0  0  0  0  0
    9.2995  -16.0600   23.5823 N   0  0  0  0  0  0  0  0  0  0  0  0
   10.0672  -15.9783   24.8294 C   0  0  1  0  0  0  0  0  0  0  0  0
    9.1876  -16.1619   26.0096 C   0  0  0  0  0  0  0  0  0  0  0  0
    7.9052  -15.4454   25.9281 C   0  0  0  0  0  0  0  0  0  0  0  0
    6.6609  -16.0040   25.6121 C   0  0  0  0  0  0  0  0  0  0  0  0
    5.7466  -15.0274   25.5948 N   0  0  0  0  0  0  0  0  0  0  0  0
    6.3139  -13.8511   25.8823 C   0  0  0  0  0  0  0  0  0  0  0  0
    5.7854  -12.5719   26.0031 C   0  0  0  0  0  0  0  0  0  0  0  0
    6.5949  -11.5142   26.3386 C   0  0  0  0  0  0  0  0  0  0  0  0
    7.9239  -11.7663   26.5465 C   0  0  0  0  0  0  0  0  0  0  0  0
    8.4747  -13.0180   26.4341 C   0  0  0  0  0  0  0  0  0  0  0  0
    7.6523  -14.0896   26.0928 C   0  0  0  0  0  0  0  0  0  0  0  0
   11.2587  -16.8211   24.8412 C   0  0  0  0  0  0  0  0  0  0  0  0
   11.4579  -17.8204   23.8966 O   0  0  0  0  0  0  0  0  0  0  0  0
   12.1837  -16.7118   25.7041 O   0  0  0  0  0  0  0  0  0  0  0  0
  2  1  1  6
  3  2  1  0
  4  3  1  0
  4  5  2  0
  6  5  1  0
  7  6  1  0
  8  7  2  0
  8  4  1  0
  9 11  1  0
  9  2  1  0
 10  9  2  0
 11 15  1  0
 12 11  1  0
 12 13  1  0
 13 14  1  0
 15 14  1  0
 15 16  1  1
 16 18  1  0
 17 16  2  0
 18 19  1  0
 19 20  1  1
 21 20  1  0
 22 21  2  0
 23 22  1  0
 24 23  1  0
 24 29  2  0
 25 24  1  0
 26 25  2  0
 26 27  1  0
 27 28  2  0
 28 29  1  0
 29 21  1  0
 30 31  1  0
 30 19  1  0
 32 30  2  0
M  END
$$$$
