HPW.pdb
     RDKit          3D

 32 35  0  0  1  0  0  0  0  0999 V2000
   10.4250  -16.5339   16.9006 N   0  0  0  0  0  0  0  0  0  0  0  0
    9.3940  -16.7933   17.9236 C   0  0  1  0  0  0  0  0  0  0  0  0
    9.5045  -18.3053   18.1575 C   0  0  0  0  0  0  0  0  0  0  0  0
    8.4628  -18.7736   19.1065 C   0  0  0  0  0  0  0  0  0  0  0  0
    8.6204  -19.0717   20.4576 C   0  0  0  0  0  0  0  0  0  0  0  0
    7.4658  -19.4565   20.9704 N   0  0  0  0  0  0  0  0  0  0  0  0
    6.5414  -19.4209   19.9870 C   0  0  0  0  0  0  0  0  0  0  0  0
    7.1611  -19.0061   18.8682 N   0  0  0  0  0  0  0  0  0  0  0  0
    9.7396  -16.0626   19.1833 C   0  0  0  0  0  0  0  0  0  0  0  0
   11.0053  -15.9355   19.3836 O   0  0  0  0  0  0  0  0  0  0  0  0
    8.8049  -15.5462   20.0949 N   0  0  0  0  0  0  0  0  0  0  0  0
    7.3865  -15.7593   20.0483 C   0  0  0  0  0  0  0  0  0  0  0  0
    6.8372  -14.3956   20.4944 C   0  0  0  0  0  0  0  0  0  0  0  0
    8.0215  -13.6233   21.0140 C   0  0  0  0  0  0  0  0  0  0  0  0
    9.0539  -14.7068   21.2126 C   0  0  1  0  0  0  0  0  0  0  0  0
    8.8270  -15.3361   22.5404 C   0  0  0  0  0  0  0  0  0  0  0  0
    8.2378  -16.4462   22.5391 O   0  0  0  0  0  0  0  0  0  0  0  0
    9.2168  -14.7884   23.7811 N   0  0  0  0  0  0  0  0  0  0  0  0
    9.8771  -15.6541   24.7639 C   0  0  1  0  0  0  0  0  0  0  0  0
    9.4044  -15.3574   26.1382 C   0  0  0  0  0  0  0  0  0  0  0  0
    7.9918  -14.9543   26.2202 C   0  0  0  0  0  0  0  0  0  0  0  0
    6.8796  -15.7835   26.0313 C   0  0  0  0  0  0  0  0  0  0  0  0
    5.7711  -15.0427   26.1428 N   0  0  0  0  0  0  0  0  0  0  0  0
    6.0846  -13.7677   26.3959 C   0  0  0  0  0  0  0  0  0  0  0  0
    5.2960  -12.6439   26.6092 C   0  0  0  0  0  0  0  0  0  0  0  0
    5.8763  -11.4286   26.8796 C   0  0  0  0  0  0  0  0  0  0  0  0
    7.2427  -11.3691   26.9301 C   0  0  0  0  0  0  0  0  0  0  0  0
    8.0475  -12.4610   26.7234 C   0  0  0  0  0  0  0  0  0  0  0  0
    7.4572  -13.6926   26.4482 C   0  0  0  0  0  0  0  0  0  0  0  0
    9.8390  -17.0712   24.4169 C   0  0  0  0  0  0  0  0  0  0  0  0
   10.6310  -18.0067   25.0712 O   0  0  0  0  0  0  0  0  0  0  0  0
    9.0976  -17.5473   23.5026 O   0  0  0  0  0  0  0  0  0  0  0  0
  2  1  1  6
  3  2  1  0
  4  3  1  0
  4  5  2  0
  6  5  1  0
  7  6  1  0
  8  7  2  0
  8  4  1  0
  9 11  1  0
  9  2  1  0
 10  9  2  0
 11 15  1  0
 12 11  1  0
 12 13  1  0
 13 14  1  0
 15 14  1  0
 15 16  1  1
 16 18  1  0
 17 16  2  0
 18 19  1  0
 19 20  1  1
 21 20  1  0
 22 21  2  0
 23 22  1  0
 24 23  1  0
 24 29  2  0
 25 24  1  0
 26 25  2  0
 26 27  1  0
 27 28  2  0
 28 29  1  0
 29 21  1  0
 30 31  1  0
 30 19  1  0
 32 30  2  0
M  END
$$$$
