HPW.pdb
     RDKit          3D

 32 35  0  0  1  0  0  0  0  0999 V2000
    8.9366  -18.1128   17.9249 N   0  0  0  0  0  0  0  0  0  0  0  0
    8.0371  -17.3118   18.7768 C   0  0  1  0  0  0  0  0  0  0  0  0
    7.2847  -18.3739   19.5886 C   0  0  0  0  0  0  0  0  0  0  0  0
    6.4377  -19.2159   18.7061 C   0  0  0  0  0  0  0  0  0  0  0  0
    5.6797  -18.8021   17.6138 C   0  0  0  0  0  0  0  0  0  0  0  0
    5.0617  -19.8386   17.0772 N   0  0  0  0  0  0  0  0  0  0  0  0
    5.3930  -20.9356   17.7912 C   0  0  0  0  0  0  0  0  0  0  0  0
    6.2249  -20.5410   18.7711 N   0  0  0  0  0  0  0  0  0  0  0  0
    8.8473  -16.4547   19.6984 C   0  0  0  0  0  0  0  0  0  0  0  0
   10.0901  -16.7856   19.7627 O   0  0  0  0  0  0  0  0  0  0  0  0
    8.3430  -15.3787   20.4461 N   0  0  0  0  0  0  0  0  0  0  0  0
    6.9713  -14.9586   20.4854 C   0  0  0  0  0  0  0  0  0  0  0  0
    7.1006  -13.4287   20.5435 C   0  0  0  0  0  0  0  0  0  0  0  0
    8.5567  -13.1471   20.8067 C   0  0  0  0  0  0  0  0  0  0  0  0
    9.0660  -14.4867   21.2813 C   0  0  1  0  0  0  0  0  0  0  0  0
    8.7825  -14.6103   22.7356 C   0  0  0  0  0  0  0  0  0  0  0  0
    8.4665  -13.5519   23.3350 O   0  0  0  0  0  0  0  0  0  0  0  0
    8.8416  -15.8074   23.4803 N   0  0  0  0  0  0  0  0  0  0  0  0
    9.8035  -15.9116   24.5827 C   0  0  1  0  0  0  0  0  0  0  0  0
    9.1090  -15.9730   25.8919 C   0  0  0  0  0  0  0  0  0  0  0  0
    7.8439  -15.2237   25.9435 C   0  0  0  0  0  0  0  0  0  0  0  0
    6.5755  -15.7120   25.6072 C   0  0  0  0  0  0  0  0  0  0  0  0
    5.6872  -14.7205   25.7407 N   0  0  0  0  0  0  0  0  0  0  0  0
    6.2945  -13.6008   26.1476 C   0  0  0  0  0  0  0  0  0  0  0  0
    5.8041  -12.3343   26.4409 C   0  0  0  0  0  0  0  0  0  0  0  0
    6.6518  -11.3434   26.8724 C   0  0  0  0  0  0  0  0  0  0  0  0
    7.9799  -11.6484   27.0006 C   0  0  0  0  0  0  0  0  0  0  0  0
    8.4935  -12.8890   26.7182 C   0  0  0  0  0  0  0  0  0  0  0  0
    7.6323  -13.8926   26.2796 C   0  0  0  0  0  0  0  0  0  0  0  0
   10.8031  -16.9578   24.3922 C   0  0  0  0  0  0  0  0  0  0  0  0
   11.9462  -17.0300   25.1787 O   0  0  0  0  0  0  0  0  0  0  0  0
   10.7091  -17.8613   23.5049 O   0  0  0  0  0  0  0  0  0  0  0  0
  2  1  1  6
  3  2  1  0
  4  3  1  0
  4  5  2  0
  6  5  1  0
  7  6  1  0
  8  7  2  0
  8  4  1  0
  9 11  1  0
  9  2  1  0
 10  9  2  0
 11 15  1  0
 12 11  1  0
 12 13  1  0
 13 14  1  0
 15 14  1  0
 15 16  1  1
 16 18  1  0
 17 16  2  0
 18 19  1  0
 19 20  1  1
 21 20  1  0
 22 21  2  0
 23 22  1  0
 24 23  1  0
 24 29  2  0
 25 24  1  0
 26 25  2  0
 26 27  1  0
 27 28  2  0
 28 29  1  0
 29 21  1  0
 30 31  1  0
 30 19  1  0
 32 30  2  0
M  END
$$$$
