HPW.pdb
     RDKit          3D

 32 35  0  0  1  0  0  0  0  0999 V2000
   10.2638  -17.2199   17.4231 N   0  0  0  0  0  0  0  0  0  0  0  0
    9.1457  -16.5128   18.0759 C   0  0  1  0  0  0  0  0  0  0  0  0
    8.0978  -17.6162   18.2695 C   0  0  0  0  0  0  0  0  0  0  0  0
    7.6360  -18.1458   16.9614 C   0  0  0  0  0  0  0  0  0  0  0  0
    6.8321  -17.5031   16.0235 C   0  0  0  0  0  0  0  0  0  0  0  0
    6.6366  -18.2925   14.9829 N   0  0  0  0  0  0  0  0  0  0  0  0
    7.2946  -19.4496   15.2092 C   0  0  0  0  0  0  0  0  0  0  0  0
    7.8927  -19.3434   16.4088 N   0  0  0  0  0  0  0  0  0  0  0  0
    9.5863  -15.9976   19.4104 C   0  0  0  0  0  0  0  0  0  0  0  0
   10.7980  -16.3079   19.7165 O   0  0  0  0  0  0  0  0  0  0  0  0
    8.7875  -15.2426   20.2840 N   0  0  0  0  0  0  0  0  0  0  0  0
    7.3655  -15.0766   20.1833 C   0  0  0  0  0  0  0  0  0  0  0  0
    7.1780  -13.6110   20.6046 C   0  0  0  0  0  0  0  0  0  0  0  0
    8.5038  -13.1702   21.1674 C   0  0  0  0  0  0  0  0  0  0  0  0
    9.2073  -14.4841   21.4085 C   0  0  1  0  0  0  0  0  0  0  0  0
    8.7746  -15.0152   22.7281 C   0  0  0  0  0  0  0  0  0  0  0  0
    7.7588  -15.7552   22.7265 O   0  0  0  0  0  0  0  0  0  0  0  0
    9.4086  -14.7537   23.9613 N   0  0  0  0  0  0  0  0  0  0  0  0
    9.5873  -15.8533   24.9155 C   0  0  1  0  0  0  0  0  0  0  0  0
    8.2932  -16.2449   25.5256 C   0  0  0  0  0  0  0  0  0  0  0  0
    7.3195  -15.1478   25.6400 C   0  0  0  0  0  0  0  0  0  0  0  0
    6.0157  -15.1386   25.1298 C   0  0  0  0  0  0  0  0  0  0  0  0
    5.4611  -13.9508   25.3975 N   0  0  0  0  0  0  0  0  0  0  0  0
    6.3234  -13.1706   26.0576 C   0  0  0  0  0  0  0  0  0  0  0  0
    6.2080  -11.8813   26.5623 C   0  0  0  0  0  0  0  0  0  0  0  0
    7.2553  -11.3027   27.2370 C   0  0  0  0  0  0  0  0  0  0  0  0
    8.4007  -12.0358   27.3906 C   0  0  0  0  0  0  0  0  0  0  0  0
    8.5446  -13.3103   26.9030 C   0  0  0  0  0  0  0  0  0  0  0  0
    7.4817  -13.8953   26.2181 C   0  0  0  0  0  0  0  0  0  0  0  0
   10.3545  -16.9743   24.3819 C   0  0  0  0  0  0  0  0  0  0  0  0
   10.7100  -18.0602   25.1724 O   0  0  0  0  0  0  0  0  0  0  0  0
   10.7541  -17.0381   23.1784 O   0  0  0  0  0  0  0  0  0  0  0  0
  2  1  1  1
  3  2  1  0
  4  3  1  0
  4  5  2  0
  6  5  1  0
  7  6  1  0
  8  7  2  0
  8  4  1  0
  9 11  1  0
  9  2  1  0
 10  9  2  0
 11 15  1  0
 12 11  1  0
 12 13  1  0
 13 14  1  0
 15 14  1  0
 15 16  1  1
 16 18  1  0
 17 16  2  0
 18 19  1  0
 19 20  1  6
 21 20  1  0
 22 21  2  0
 23 22  1  0
 24 23  1  0
 24 29  2  0
 25 24  1  0
 26 25  2  0
 26 27  1  0
 27 28  2  0
 28 29  1  0
 29 21  1  0
 30 31  1  0
 30 19  1  0
 32 30  2  0
M  END
$$$$
