HPW.pdb
     RDKit          3D

 32 35  0  0  1  0  0  0  0  0999 V2000
    6.1234  -18.7879   19.4425 N   0  0  0  0  0  0  0  0  0  0  0  0
    6.0977  -17.5023   20.1657 C   0  0  1  0  0  0  0  0  0  0  0  0
    5.4454  -17.8663   21.5055 C   0  0  0  0  0  0  0  0  0  0  0  0
    4.0404  -18.3056   21.3105 C   0  0  0  0  0  0  0  0  0  0  0  0
    3.1103  -17.7936   20.4095 C   0  0  0  0  0  0  0  0  0  0  0  0
    1.9658  -18.4420   20.5281 N   0  0  0  0  0  0  0  0  0  0  0  0
    2.1150  -19.3764   21.4913 C   0  0  0  0  0  0  0  0  0  0  0  0
    3.3743  -19.2799   21.9528 N   0  0  0  0  0  0  0  0  0  0  0  0
    7.4980  -17.0285   20.4001 C   0  0  0  0  0  0  0  0  0  0  0  0
    8.4028  -17.8542   20.0030 O   0  0  0  0  0  0  0  0  0  0  0  0
    7.8431  -15.8048   20.9959 N   0  0  0  0  0  0  0  0  0  0  0  0
    6.9212  -14.8609   21.5605 C   0  0  0  0  0  0  0  0  0  0  0  0
    7.5471  -13.5156   21.1615 C   0  0  0  0  0  0  0  0  0  0  0  0
    8.9212  -13.8391   20.6361 C   0  0  0  0  0  0  0  0  0  0  0  0
    9.1397  -15.2448   21.1418 C   0  0  1  0  0  0  0  0  0  0  0  0
    9.6439  -15.1701   22.5385 C   0  0  0  0  0  0  0  0  0  0  0  0
   10.6437  -14.4338   22.7328 O   0  0  0  0  0  0  0  0  0  0  0  0
    9.0931  -15.8537   23.6432 N   0  0  0  0  0  0  0  0  0  0  0  0
    9.9293  -16.0818   24.8265 C   0  0  1  0  0  0  0  0  0  0  0  0
    9.6266  -15.0943   25.8911 C   0  0  0  0  0  0  0  0  0  0  0  0
    8.2100  -14.7055   25.9734 C   0  0  0  0  0  0  0  0  0  0  0  0
    7.1066  -15.5359   25.7427 C   0  0  0  0  0  0  0  0  0  0  0  0
    5.9910  -14.8085   25.8699 N   0  0  0  0  0  0  0  0  0  0  0  0
    6.2915  -13.5412   26.1729 C   0  0  0  0  0  0  0  0  0  0  0  0
    5.4916  -12.4323   26.4193 C   0  0  0  0  0  0  0  0  0  0  0  0
    6.0591  -11.2233   26.7401 C   0  0  0  0  0  0  0  0  0  0  0  0
    7.4244  -11.1549   26.8069 C   0  0  0  0  0  0  0  0  0  0  0  0
    8.2402  -12.2321   26.5684 C   0  0  0  0  0  0  0  0  0  0  0  0
    7.6629  -13.4574   26.2421 C   0  0  0  0  0  0  0  0  0  0  0  0
    9.9307  -17.4670   25.2858 C   0  0  0  0  0  0  0  0  0  0  0  0
   10.8802  -17.9397   26.1834 O   0  0  0  0  0  0  0  0  0  0  0  0
    9.0838  -18.3317   24.9019 O   0  0  0  0  0  0  0  0  0  0  0  0
  2  1  1  6
  3  2  1  0
  4  3  1  0
  4  5  2  0
  6  5  1  0
  7  6  1  0
  8  7  2  0
  8  4  1  0
  9 11  1  0
  9  2  1  0
 10  9  2  0
 11 15  1  0
 12 11  1  0
 12 13  1  0
 13 14  1  0
 15 14  1  0
 15 16  1  1
 16 18  1  0
 17 16  2  0
 18 19  1  0
 19 20  1  1
 21 20  1  0
 22 21  2  0
 23 22  1  0
 24 23  1  0
 24 29  2  0
 25 24  1  0
 26 25  2  0
 26 27  1  0
 27 28  2  0
 28 29  1  0
 29 21  1  0
 30 31  1  0
 30 19  1  0
 32 30  2  0
M  END
$$$$
