HPW.pdb
     RDKit          3D

 32 35  0  0  1  0  0  0  0  0999 V2000
    9.3523  -17.2683   16.3859 N   0  0  0  0  0  0  0  0  0  0  0  0
    8.3974  -16.7647   17.3914 C   0  0  1  0  0  0  0  0  0  0  0  0
    7.8565  -18.0477   18.0352 C   0  0  0  0  0  0  0  0  0  0  0  0
    7.0508  -18.8306   17.0642 C   0  0  0  0  0  0  0  0  0  0  0  0
    5.6813  -18.7375   16.8302 C   0  0  0  0  0  0  0  0  0  0  0  0
    5.3266  -19.5951   15.8906 N   0  0  0  0  0  0  0  0  0  0  0  0
    6.4335  -20.2586   15.4938 C   0  0  0  0  0  0  0  0  0  0  0  0
    7.4657  -19.7840   16.2131 N   0  0  0  0  0  0  0  0  0  0  0  0
    9.1269  -15.9556   18.4178 C   0  0  0  0  0  0  0  0  0  0  0  0
   10.4019  -16.1360   18.4162 O   0  0  0  0  0  0  0  0  0  0  0  0
    8.5203  -15.0693   19.3221 N   0  0  0  0  0  0  0  0  0  0  0  0
    7.1217  -14.7507   19.3691 C   0  0  0  0  0  0  0  0  0  0  0  0
    7.1400  -13.2526   19.7093 C   0  0  0  0  0  0  0  0  0  0  0  0
    8.5618  -12.9330   20.0905 C   0  0  0  0  0  0  0  0  0  0  0  0
    9.1469  -14.3023   20.3395 C   0  0  1  0  0  0  0  0  0  0  0  0
    8.8192  -14.7087   21.7316 C   0  0  0  0  0  0  0  0  0  0  0  0
    7.6496  -15.1223   21.9322 O   0  0  0  0  0  0  0  0  0  0  0  0
    9.7089  -14.6645   22.8261 N   0  0  0  0  0  0  0  0  0  0  0  0
    9.4429  -15.5130   23.9926 C   0  0  1  0  0  0  0  0  0  0  0  0
    7.9899  -15.7694   24.1448 C   0  0  0  0  0  0  0  0  0  0  0  0
    7.4122  -15.2616   25.3991 C   0  0  0  0  0  0  0  0  0  0  0  0
    6.9274  -16.0333   26.4620 C   0  0  0  0  0  0  0  0  0  0  0  0
    6.4434  -15.2114   27.4001 N   0  0  0  0  0  0  0  0  0  0  0  0
    6.5801  -13.9366   27.0203 C   0  0  0  0  0  0  0  0  0  0  0  0
    6.2532  -12.7417   27.6492 C   0  0  0  0  0  0  0  0  0  0  0  0
    6.5256  -11.5397   27.0428 C   0  0  0  0  0  0  0  0  0  0  0  0
    7.1234  -11.5650   25.8119 C   0  0  0  0  0  0  0  0  0  0  0  0
    7.4574  -12.7286   25.1658 C   0  0  0  0  0  0  0  0  0  0  0  0
    7.1795  -13.9468   25.7820 C   0  0  0  0  0  0  0  0  0  0  0  0
   10.2657  -16.7174   24.0418 C   0  0  0  0  0  0  0  0  0  0  0  0
   11.1334  -17.0539   23.0101 O   0  0  0  0  0  0  0  0  0  0  0  0
   10.2465  -17.5380   25.0106 O   0  0  0  0  0  0  0  0  0  0  0  0
  2  1  1  6
  3  2  1  0
  4  3  1  0
  4  5  2  0
  6  5  1  0
  7  6  1  0
  8  7  2  0
  8  4  1  0
  9 11  1  0
  9  2  1  0
 10  9  2  0
 11 15  1  0
 12 11  1  0
 12 13  1  0
 13 14  1  0
 15 14  1  0
 15 16  1  1
 16 18  1  0
 17 16  2  0
 18 19  1  0
 19 20  1  6
 21 20  1  0
 22 21  2  0
 23 22  1  0
 24 23  1  0
 24 29  2  0
 25 24  1  0
 26 25  2  0
 26 27  1  0
 27 28  2  0
 28 29  1  0
 29 21  1  0
 30 31  1  0
 30 19  1  0
 32 30  2  0
M  END
$$$$
