NRK.pdb
     RDKit          3D

 29 28  0  0  1  0  0  0  0  0999 V2000
   16.0948  -13.4899   17.6134 N   0  0  0  0  0  0  0  0  0  0  0  0
   14.8435  -14.2184   17.4986 C   0  0  0  0  0  0  0  0  0  0  0  0
   14.6708  -14.7931   16.4040 O   0  0  0  0  0  0  0  0  0  0  0  0
   13.9148  -14.2193   18.6413 C   0  0  0  0  0  0  0  0  0  0  0  0
   13.6059  -15.5930   19.1747 C   0  0  2  0  0  0  0  0  0  0  0  0
   12.7041  -16.2535   18.2096 N   0  0  0  0  0  0  0  0  0  0  0  0
   12.8208  -15.4363   20.4406 C   0  0  0  0  0  0  0  0  0  0  0  0
   13.4267  -15.0729   21.4711 O   0  0  0  0  0  0  0  0  0  0  0  0
    8.5721  -11.8592   18.5426 N   0  0  0  0  0  0  0  0  0  0  0  0
    8.0508  -13.1433   18.2431 C   0  0  0  0  0  0  0  0  0  0  0  0
    8.2226  -13.6768   17.0805 N   0  0  0  0  0  0  0  0  0  0  0  0
    7.3179  -13.8826   19.2284 N   0  0  0  0  0  0  0  0  0  0  0  0
    7.4770  -13.5971   20.6405 C   0  0  0  0  0  0  0  0  0  0  0  0
    8.9076  -13.7950   21.0882 C   0  0  0  0  0  0  0  0  0  0  0  0
    9.1680  -15.2645   21.3303 C   0  0  0  0  0  0  0  0  0  0  0  0
   10.6269  -15.5314   21.6295 C   0  0  2  0  0  0  0  0  0  0  0  0
   11.4141  -15.6998   20.4538 N   0  0  0  0  0  0  0  0  0  0  0  0
   10.6516  -16.7648   22.4984 C   0  0  0  0  0  0  0  0  0  0  0  0
   10.5121  -17.9055   21.9909 O   0  0  0  0  0  0  0  0  0  0  0  0
    8.7415  -13.1311   16.3668 N   0  0  0  0  0  0  0  0  0  0  0  0
   10.8303  -16.6836   23.8988 C   0  0  1  0  0  0  0  0  0  0  0  0
   10.7047  -17.8937   24.7317 C   0  0  0  0  0  0  0  0  0  0  0  0
   11.7198  -17.8778   25.8334 C   0  0  0  0  0  0  0  0  0  0  0  0
   11.6489  -19.0994   26.6747 C   0  0  0  0  0  0  0  0  0  0  0  0
   12.6610  -19.0239   27.8057 C   0  0  0  0  0  0  0  0  0  0  0  0
   12.6204  -20.4046   28.4783 N   0  0  0  0  0  0  0  0  0  0  0  0
   13.5957  -20.3789   29.5434 C   0  0  0  0  0  0  0  0  0  0  0  0
    9.3058  -17.9719   25.1727 O   0  0  0  0  0  0  0  0  0  0  0  0
    8.7974  -19.1516   25.6781 O   0  0  0  0  0  0  0  0  0  0  0  0
  2  1  1  0
  3  2  2  0
  4  5  1  0
  4  2  1  0
  5  6  1  6
  7  5  1  0
  7  8  2  0
 10  9  1  0
 11 10  2  0
 12 10  1  0
 13 12  1  0
 14 13  1  0
 15 14  1  0
 16 15  1  6
 16 17  1  0
 17  7  1  0
 18 16  1  0
 19 18  2  0
 20 18  1  0
 21 20  1  0
 21 27  1  0
 21 22  1  6
 23 24  1  0
 23 22  1  0
 24 25  1  0
 25 26  1  0
 27 28  1  0
 29 27  2  0
M  END
$$$$
