NRK.pdb
     RDKit          3D

 29 28  0  0  1  0  0  0  0  0999 V2000
   15.8224  -17.3143   13.0566 N   0  0  0  0  0  0  0  0  0  0  0  0
   16.4360  -17.1407   14.3616 C   0  0  0  0  0  0  0  0  0  0  0  0
   17.6007  -16.6922   14.3371 O   0  0  0  0  0  0  0  0  0  0  0  0
   15.6621  -17.4952   15.5632 C   0  0  0  0  0  0  0  0  0  0  0  0
   16.4124  -17.2939   16.8529 C   0  0  2  0  0  0  0  0  0  0  0  0
   17.2719  -18.4772   17.0579 N   0  0  0  0  0  0  0  0  0  0  0  0
   15.4206  -17.2983   17.9753 C   0  0  0  0  0  0  0  0  0  0  0  0
   14.5677  -16.3861   18.0144 O   0  0  0  0  0  0  0  0  0  0  0  0
   11.6993  -23.5921   23.6723 N   0  0  0  0  0  0  0  0  0  0  0  0
   10.9272  -22.6674   22.9247 C   0  0  0  0  0  0  0  0  0  0  0  0
    9.7190  -22.9458   22.5661 N   0  0  0  0  0  0  0  0  0  0  0  0
   11.4719  -21.3963   22.5480 N   0  0  0  0  0  0  0  0  0  0  0  0
   12.5745  -21.3097   21.6110 C   0  0  0  0  0  0  0  0  0  0  0  0
   12.9496  -19.8724   21.3281 C   0  0  0  0  0  0  0  0  0  0  0  0
   14.0883  -19.8283   20.3344 C   0  0  0  0  0  0  0  0  0  0  0  0
   14.4932  -18.4067   20.0118 C   0  0  2  0  0  0  0  0  0  0  0  0
   15.4615  -18.3270   18.9696 N   0  0  0  0  0  0  0  0  0  0  0  0
   15.0133  -17.8222   21.3020 C   0  0  0  0  0  0  0  0  0  0  0  0
   16.1004  -18.2202   21.7901 O   0  0  0  0  0  0  0  0  0  0  0  0
    9.1978  -22.2348   22.0192 N   0  0  0  0  0  0  0  0  0  0  0  0
   14.3053  -16.8175   22.0012 C   0  0  2  0  0  0  0  0  0  0  0  0
   14.7335  -16.4162   23.3537 C   0  0  0  0  0  0  0  0  0  0  0  0
   14.3865  -17.4805   24.3493 C   0  0  0  0  0  0  0  0  0  0  0  0
   12.9236  -17.5630   24.5904 C   0  0  0  0  0  0  0  0  0  0  0  0
   12.6154  -18.6380   25.6194 C   0  0  0  0  0  0  0  0  0  0  0  0
   11.0930  -18.5834   25.8186 N   0  0  0  0  0  0  0  0  0  0  0  0
   10.7632  -19.5958   26.7946 C   0  0  0  0  0  0  0  0  0  0  0  0
   16.1605  -16.0779   23.2731 O   0  0  0  0  0  0  0  0  0  0  0  0
   17.1191  -16.9990   23.6451 O   0  0  0  0  0  0  0  0  0  0  0  0
  2  1  1  0
  3  2  2  0
  4  5  1  0
  4  2  1  0
  5  6  1  1
  7  5  1  0
  7  8  2  0
 10  9  1  0
 11 10  2  0
 12 10  1  0
 13 12  1  0
 14 13  1  0
 15 14  1  0
 16 15  1  1
 16 17  1  0
 17  7  1  0
 18 16  1  0
 19 18  2  0
 20 18  1  0
 21 20  1  0
 21 27  1  0
 21 22  1  6
 23 24  1  0
 23 22  1  0
 24 25  1  0
 25 26  1  0
 27 28  1  0
 29 27  2  0
M  END
$$$$
