NRK.pdb
     RDKit          3D

 29 28  0  0  1  0  0  0  0  0999 V2000
   15.1820  -20.1619   18.2606 N   0  0  0  0  0  0  0  0  0  0  0  0
   14.3301  -20.3148   19.4269 C   0  0  0  0  0  0  0  0  0  0  0  0
   14.1860  -21.4910   19.8194 O   0  0  0  0  0  0  0  0  0  0  0  0
   13.7279  -19.1135   20.0291 C   0  0  0  0  0  0  0  0  0  0  0  0
   12.9620  -19.3855   21.2965 C   0  0  2  0  0  0  0  0  0  0  0  0
   11.9504  -20.4178   20.9932 N   0  0  0  0  0  0  0  0  0  0  0  0
   12.2004  -18.1470   21.6564 C   0  0  0  0  0  0  0  0  0  0  0  0
   12.8449  -17.1000   21.8783 O   0  0  0  0  0  0  0  0  0  0  0  0
    8.3023  -12.7855   18.2078 N   0  0  0  0  0  0  0  0  0  0  0  0
    7.9572  -12.4869   19.5502 C   0  0  0  0  0  0  0  0  0  0  0  0
    7.9048  -11.2669   19.9682 N   0  0  0  0  0  0  0  0  0  0  0  0
    7.6570  -13.5368   20.4786 N   0  0  0  0  0  0  0  0  0  0  0  0
    8.3495  -14.8083   20.4104 C   0  0  0  0  0  0  0  0  0  0  0  0
    7.8909  -15.7484   21.5023 C   0  0  0  0  0  0  0  0  0  0  0  0
    8.6176  -17.0683   21.3780 C   0  0  0  0  0  0  0  0  0  0  0  0
   10.0053  -17.0004   21.9772 C   0  0  2  0  0  0  0  0  0  0  0  0
   10.7718  -18.1779   21.7400 N   0  0  0  0  0  0  0  0  0  0  0  0
    9.8067  -16.7521   23.4522 C   0  0  0  0  0  0  0  0  0  0  0  0
    9.1162  -17.5409   24.1446 O   0  0  0  0  0  0  0  0  0  0  0  0
    7.7282  -11.1058   20.9778 N   0  0  0  0  0  0  0  0  0  0  0  0
   10.3830  -15.6363   24.1021 C   0  0  1  0  0  0  0  0  0  0  0  0
    9.7618  -15.0885   25.3217 C   0  0  0  0  0  0  0  0  0  0  0  0
    8.5976  -14.2143   24.9682 C   0  0  0  0  0  0  0  0  0  0  0  0
    7.8758  -13.7326   26.1731 C   0  0  0  0  0  0  0  0  0  0  0  0
    6.7073  -12.8473   25.7729 C   0  0  0  0  0  0  0  0  0  0  0  0
    6.0858  -12.3742   27.0959 N   0  0  0  0  0  0  0  0  0  0  0  0
    4.9436  -11.5594   26.7526 C   0  0  0  0  0  0  0  0  0  0  0  0
    9.4456  -16.2267   26.1947 O   0  0  0  0  0  0  0  0  0  0  0  0
   10.0364  -16.3396   27.4372 O   0  0  0  0  0  0  0  0  0  0  0  0
  2  1  1  0
  3  2  2  0
  4  5  1  0
  4  2  1  0
  5  6  1  6
  7  5  1  0
  7  8  2  0
 10  9  1  0
 11 10  2  0
 12 10  1  0
 13 12  1  0
 14 13  1  0
 15 14  1  0
 16 15  1  6
 16 17  1  0
 17  7  1  0
 18 16  1  0
 19 18  2  0
 20 18  1  0
 21 20  1  0
 21 27  1  0
 21 22  1  1
 23 24  1  0
 23 22  1  0
 24 25  1  0
 25 26  1  0
 27 28  1  0
 29 27  2  0
M  END
$$$$
