NRK.pdb
     RDKit          3D

 29 28  0  0  1  0  0  0  0  0999 V2000
    9.7843  -18.2780   16.3275 N   0  0  0  0  0  0  0  0  0  0  0  0
    8.9369  -17.1242   16.5730 C   0  0  0  0  0  0  0  0  0  0  0  0
    8.9690  -16.2518   15.6808 O   0  0  0  0  0  0  0  0  0  0  0  0
    8.1383  -17.0797   17.8094 C   0  0  0  0  0  0  0  0  0  0  0  0
    8.2962  -18.2969   18.6813 C   0  0  2  0  0  0  0  0  0  0  0  0
    7.6811  -19.4365   17.9714 N   0  0  0  0  0  0  0  0  0  0  0  0
    7.4839  -18.0902   19.9226 C   0  0  0  0  0  0  0  0  0  0  0  0
    7.8974  -17.2707   20.7703 O   0  0  0  0  0  0  0  0  0  0  0  0
   -0.3873  -20.1125   23.7754 N   0  0  0  0  0  0  0  0  0  0  0  0
    0.6088  -20.8644   23.1028 C   0  0  0  0  0  0  0  0  0  0  0  0
    0.9411  -22.0433   23.5100 N   0  0  0  0  0  0  0  0  0  0  0  0
    1.2732  -20.3315   21.9500 N   0  0  0  0  0  0  0  0  0  0  0  0
    1.6854  -18.9425   21.9070 C   0  0  0  0  0  0  0  0  0  0  0  0
    3.1495  -18.7881   22.2523 C   0  0  0  0  0  0  0  0  0  0  0  0
    3.9880  -18.9530   21.0051 C   0  0  0  0  0  0  0  0  0  0  0  0
    5.4400  -18.6118   21.2592 C   0  0  2  0  0  0  0  0  0  0  0  0
    6.2682  -18.8198   20.1185 N   0  0  0  0  0  0  0  0  0  0  0  0
    5.8686  -19.4706   22.4235 C   0  0  0  0  0  0  0  0  0  0  0  0
    6.0116  -20.7108   22.2827 O   0  0  0  0  0  0  0  0  0  0  0  0
    1.6362  -22.5731   22.9510 N   0  0  0  0  0  0  0  0  0  0  0  0
    6.1221  -18.9185   23.7004 C   0  0  1  0  0  0  0  0  0  0  0  0
    7.0777  -19.5729   24.6126 C   0  0  0  0  0  0  0  0  0  0  0  0
    8.4309  -19.6623   23.9760 C   0  0  0  0  0  0  0  0  0  0  0  0
    9.4219  -20.3227   24.8630 C   0  0  0  0  0  0  0  0  0  0  0  0
   10.7763  -20.4021   24.1785 C   0  0  0  0  0  0  0  0  0  0  0  0
   11.7032  -21.0894   25.1928 N   0  0  0  0  0  0  0  0  0  0  0  0
   12.9826  -21.2557   24.5434 C   0  0  0  0  0  0  0  0  0  0  0  0
    7.0332  -18.8394   25.8844 O   0  0  0  0  0  0  0  0  0  0  0  0
    6.3566  -17.6396   25.9758 O   0  0  0  0  0  0  0  0  0  0  0  0
  2  1  1  0
  3  2  2  0
  4  5  1  0
  4  2  1  0
  5  6  1  6
  7  5  1  0
  7  8  2  0
 10  9  1  0
 11 10  2  0
 12 10  1  0
 13 12  1  0
 14 13  1  0
 15 14  1  0
 16 15  1  6
 16 17  1  0
 17  7  1  0
 18 16  1  0
 19 18  2  0
 20 18  1  0
 21 20  1  0
 21 27  1  0
 21 22  1  1
 23 24  1  0
 23 22  1  0
 24 25  1  0
 25 26  1  0
 27 28  1  0
 29 27  2  0
M  END
$$$$
