NRK.pdb
     RDKit          3D

 29 28  0  0  1  0  0  0  0  0999 V2000
   11.5065  -16.3084   16.0573 N   0  0  0  0  0  0  0  0  0  0  0  0
   10.0631  -16.2341   15.9140 C   0  0  0  0  0  0  0  0  0  0  0  0
    9.6610  -16.0684   14.7439 O   0  0  0  0  0  0  0  0  0  0  0  0
    9.2226  -16.3558   17.1169 C   0  0  0  0  0  0  0  0  0  0  0  0
   10.0036  -16.4148   18.4028 C   0  0  2  0  0  0  0  0  0  0  0  0
   10.7846  -17.6681   18.3929 N   0  0  0  0  0  0  0  0  0  0  0  0
    9.0303  -16.5379   19.5346 C   0  0  0  0  0  0  0  0  0  0  0  0
    8.2395  -15.5927   19.7400 O   0  0  0  0  0  0  0  0  0  0  0  0
    7.0873  -22.8281   23.8451 N   0  0  0  0  0  0  0  0  0  0  0  0
    5.9081  -22.2403   24.3686 C   0  0  0  0  0  0  0  0  0  0  0  0
    5.0285  -22.9524   24.9892 N   0  0  0  0  0  0  0  0  0  0  0  0
    5.6638  -20.8357   24.2209 N   0  0  0  0  0  0  0  0  0  0  0  0
    6.1270  -20.1212   23.0478 C   0  0  0  0  0  0  0  0  0  0  0  0
    7.3482  -19.2842   23.3551 C   0  0  0  0  0  0  0  0  0  0  0  0
    8.2316  -19.2018   22.1310 C   0  0  0  0  0  0  0  0  0  0  0  0
    8.1644  -17.8354   21.4847 C   0  0  2  0  0  0  0  0  0  0  0  0
    9.0185  -17.7137   20.3507 N   0  0  0  0  0  0  0  0  0  0  0  0
    8.5294  -16.8484   22.5661 C   0  0  0  0  0  0  0  0  0  0  0  0
    9.7298  -16.6775   22.8951 O   0  0  0  0  0  0  0  0  0  0  0  0
    4.1851  -22.4724   25.3562 N   0  0  0  0  0  0  0  0  0  0  0  0
    7.5462  -16.0887   23.2413 C   0  0  2  0  0  0  0  0  0  0  0  0
    7.9405  -15.1478   24.3057 C   0  0  0  0  0  0  0  0  0  0  0  0
    6.7757  -14.2963   24.7088 C   0  0  0  0  0  0  0  0  0  0  0  0
    7.1278  -13.3483   25.7961 C   0  0  0  0  0  0  0  0  0  0  0  0
    5.9171  -12.5178   26.1884 C   0  0  0  0  0  0  0  0  0  0  0  0
    6.4187  -11.5617   27.2814 N   0  0  0  0  0  0  0  0  0  0  0  0
    5.2830  -10.7733   27.6996 C   0  0  0  0  0  0  0  0  0  0  0  0
    8.5364  -15.9433   25.3872 O   0  0  0  0  0  0  0  0  0  0  0  0
    9.7436  -15.5719   25.9443 O   0  0  0  0  0  0  0  0  0  0  0  0
  2  1  1  0
  3  2  2  0
  4  5  1  0
  4  2  1  0
  5  6  1  6
  7  5  1  0
  7  8  2  0
 10  9  1  0
 11 10  2  0
 12 10  1  0
 13 12  1  0
 14 13  1  0
 15 14  1  0
 16 15  1  1
 16 17  1  0
 17  7  1  0
 18 16  1  0
 19 18  2  0
 20 18  1  0
 21 20  1  0
 21 27  1  0
 21 22  1  6
 23 24  1  0
 23 22  1  0
 24 25  1  0
 25 26  1  0
 27 28  1  0
 29 27  2  0
M  END
$$$$
