NRK.pdb
     RDKit          3D

 29 28  0  0  1  0  0  0  0  0999 V2000
    9.5481  -19.8748   15.7121 N   0  0  0  0  0  0  0  0  0  0  0  0
   10.3197  -20.1392   16.9138 C   0  0  0  0  0  0  0  0  0  0  0  0
   10.3961  -21.3436   17.2327 O   0  0  0  0  0  0  0  0  0  0  0  0
   10.9269  -19.0058   17.6317 C   0  0  0  0  0  0  0  0  0  0  0  0
   10.8137  -19.1022   19.1300 C   0  0  2  0  0  0  0  0  0  0  0  0
    9.3893  -19.3146   19.4566 N   0  0  0  0  0  0  0  0  0  0  0  0
   11.1822  -17.7723   19.7123 C   0  0  0  0  0  0  0  0  0  0  0  0
   12.3367  -17.3386   19.5123 O   0  0  0  0  0  0  0  0  0  0  0  0
    8.0518  -14.4515   16.9678 N   0  0  0  0  0  0  0  0  0  0  0  0
    7.7868  -13.2353   17.6466 C   0  0  0  0  0  0  0  0  0  0  0  0
    8.2422  -12.1123   17.2023 N   0  0  0  0  0  0  0  0  0  0  0  0
    7.0035  -13.2237   18.8470 N   0  0  0  0  0  0  0  0  0  0  0  0
    7.5853  -13.6125   20.1164 C   0  0  0  0  0  0  0  0  0  0  0  0
    8.8553  -14.4100   19.9229 C   0  0  0  0  0  0  0  0  0  0  0  0
    9.3781  -14.8706   21.2647 C   0  0  0  0  0  0  0  0  0  0  0  0
   10.5619  -15.8006   21.1135 C   0  0  2  0  0  0  0  0  0  0  0  0
   10.2260  -17.0296   20.4755 N   0  0  0  0  0  0  0  0  0  0  0  0
   11.0931  -16.0233   22.5082 C   0  0  0  0  0  0  0  0  0  0  0  0
   10.3112  -16.2981   23.4523 O   0  0  0  0  0  0  0  0  0  0  0  0
    8.0712  -11.2599   17.7685 N   0  0  0  0  0  0  0  0  0  0  0  0
   12.4736  -15.9321   22.8008 C   0  0  1  0  0  0  0  0  0  0  0  0
   12.9727  -16.3068   24.1366 C   0  0  0  0  0  0  0  0  0  0  0  0
   12.6688  -17.7454   24.4237 C   0  0  0  0  0  0  0  0  0  0  0  0
   13.5435  -18.6648   23.6527 C   0  0  0  0  0  0  0  0  0  0  0  0
   13.3162  -20.1029   24.0881 C   0  0  0  0  0  0  0  0  0  0  0  0
   14.3145  -20.9364   23.2701 N   0  0  0  0  0  0  0  0  0  0  0  0
   14.1634  -22.3074   23.6987 C   0  0  0  0  0  0  0  0  0  0  0  0
   14.3963  -15.9480   24.1826 O   0  0  0  0  0  0  0  0  0  0  0  0
   15.0224  -15.4283   23.0675 O   0  0  0  0  0  0  0  0  0  0  0  0
  2  1  1  0
  3  2  2  0
  4  5  1  0
  4  2  1  0
  5  6  1  6
  7  5  1  0
  7  8  2  0
 10  9  1  0
 11 10  2  0
 12 10  1  0
 13 12  1  0
 14 13  1  0
 15 14  1  0
 16 15  1  1
 16 17  1  0
 17  7  1  0
 18 16  1  0
 19 18  2  0
 20 18  1  0
 21 20  1  0
 21 27  1  0
 21 22  1  1
 23 24  1  0
 23 22  1  0
 24 25  1  0
 25 26  1  0
 27 28  1  0
 29 27  2  0
M  END
$$$$
