VWV.pdb
     RDKit          3D

 29 30  0  0  1  0  0  0  0  0999 V2000
   27.2391  -18.6228  -15.1017 C   0  0  0  0  0  0  0  0  0  0  0  0
   27.7994  -19.8980  -15.6413 C   0  0  1  0  0  0  0  0  0  0  0  0
   28.8718  -19.4691  -16.6728 C   0  0  0  0  0  0  0  0  0  0  0  0
   28.5136  -20.7733  -14.6710 C   0  0  2  0  0  0  0  0  0  0  0  0
   28.8112  -22.0189  -15.4154 N   0  0  0  0  0  0  0  0  0  0  0  0
   27.7888  -21.1649  -13.4661 C   0  0  0  0  0  0  0  0  0  0  0  0
   26.7756  -21.9573  -13.5698 O   0  0  0  0  0  0  0  0  0  0  0  0
   28.0513  -20.7829  -12.1307 N   0  0  0  0  0  0  0  0  0  0  0  0
   27.2327  -20.9916  -10.9787 C   0  0  1  0  0  0  0  0  0  0  0  0
   27.9407  -20.4660   -9.7600 C   0  0  0  0  0  0  0  0  0  0  0  0
   27.1976  -20.5946   -8.5068 C   0  0  0  0  0  0  0  0  0  0  0  0
   25.9212  -21.0732   -8.3594 C   0  0  0  0  0  0  0  0  0  0  0  0
   25.6147  -21.0398   -7.0414 N   0  0  0  0  0  0  0  0  0  0  0  0
   26.6645  -20.5512   -6.3387 C   0  0  0  0  0  0  0  0  0  0  0  0
   26.9040  -20.3058   -5.0087 C   0  0  0  0  0  0  0  0  0  0  0  0
   28.1187  -19.7822   -4.5497 C   0  0  0  0  0  0  0  0  0  0  0  0
   29.1099  -19.5022   -5.4539 C   0  0  0  0  0  0  0  0  0  0  0  0
   28.8695  -19.7481   -6.7833 C   0  0  0  0  0  0  0  0  0  0  0  0
   27.6821  -20.2624   -7.2596 C   0  0  0  0  0  0  0  0  0  0  0  0
   25.9110  -20.2877  -11.0399 C   0  0  0  0  0  0  0  0  0  0  0  0
   25.9459  -19.0150  -11.0676 O   0  0  0  0  0  0  0  0  0  0  0  0
   24.2084  -20.1313  -13.8818 C   0  0  0  0  0  0  0  0  0  0  0  0
   23.1166  -20.5597  -12.9300 C   0  0  2  0  0  0  0  0  0  0  0  0
   21.8031  -19.9010  -13.2975 C   0  0  0  0  0  0  0  0  0  0  0  0
   23.4686  -20.2819  -11.5073 C   0  0  2  0  0  0  0  0  0  0  0  0
   24.6663  -20.9261  -11.0667 N   0  0  0  0  0  0  0  0  0  0  0  0
   22.2882  -20.6328  -10.6584 C   0  0  0  0  0  0  0  0  0  0  0  0
   21.4274  -19.7541  -10.3642 O   0  0  0  0  0  0  0  0  0  0  0  0
   22.1307  -21.9279  -10.1879 O   0  0  0  0  0  0  0  0  0  0  0  0
  2  1  1  1
  2  4  1  0
  3  2  1  0
  4  5  1  6
  6  4  1  0
  6  7  2  0
  8  6  1  0
  9  8  1  0
  9 10  1  1
 11 10  1  0
 11 19  1  0
 12 13  1  0
 12 11  2  0
 13 14  1  0
 14 15  1  0
 14 19  2  0
 15 16  2  0
 16 17  1  0
 18 17  2  0
 19 18  1  0
 20  9  1  0
 21 20  2  0
 23 22  1  6
 23 25  1  0
 24 23  1  0
 25 27  1  0
 25 26  1  1
 26 20  1  0
 27 29  1  0
 28 27  2  0
M  END
$$$$
