VWV.pdb
     RDKit          3D

 29 30  0  0  1  0  0  0  0  0999 V2000
   30.4299  -20.3355  -14.0565 C   0  0  0  0  0  0  0  0  0  0  0  0
   29.6103  -20.8605  -12.9234 C   0  0  1  0  0  0  0  0  0  0  0  0
   29.6736  -19.7646  -11.8311 C   0  0  0  0  0  0  0  0  0  0  0  0
   28.1599  -21.0663  -13.1916 C   0  0  2  0  0  0  0  0  0  0  0  0
   27.7001  -19.8121  -13.8318 N   0  0  0  0  0  0  0  0  0  0  0  0
   27.2937  -21.2938  -12.0392 C   0  0  0  0  0  0  0  0  0  0  0  0
   27.1391  -22.4952  -11.5944 O   0  0  0  0  0  0  0  0  0  0  0  0
   26.5621  -20.3371  -11.2990 N   0  0  0  0  0  0  0  0  0  0  0  0
   25.4697  -20.5629  -10.4066 C   0  0  1  0  0  0  0  0  0  0  0  0
   25.5522  -19.5934   -9.2594 C   0  0  0  0  0  0  0  0  0  0  0  0
   26.7972  -19.6430   -8.4933 C   0  0  0  0  0  0  0  0  0  0  0  0
   28.0324  -19.2218   -8.9138 C   0  0  0  0  0  0  0  0  0  0  0  0
   28.9081  -19.4282   -7.9024 N   0  0  0  0  0  0  0  0  0  0  0  0
   28.2641  -19.9718   -6.8420 C   0  0  0  0  0  0  0  0  0  0  0  0
   28.6454  -20.3748   -5.5856 C   0  0  0  0  0  0  0  0  0  0  0  0
   27.7405  -20.9182   -4.6656 C   0  0  0  0  0  0  0  0  0  0  0  0
   26.4248  -21.0555   -5.0239 C   0  0  0  0  0  0  0  0  0  0  0  0
   26.0446  -20.6521   -6.2802 C   0  0  0  0  0  0  0  0  0  0  0  0
   26.9166  -20.1151   -7.2036 C   0  0  0  0  0  0  0  0  0  0  0  0
   24.1237  -20.3648  -11.0352 C   0  0  0  0  0  0  0  0  0  0  0  0
   23.9560  -19.2859  -11.6906 O   0  0  0  0  0  0  0  0  0  0  0  0
   22.6248  -22.7238  -13.4867 C   0  0  0  0  0  0  0  0  0  0  0  0
   21.5236  -22.3528  -12.5219 C   0  0  2  0  0  0  0  0  0  0  0  0
   20.2145  -22.1596  -13.2590 C   0  0  0  0  0  0  0  0  0  0  0  0
   21.8626  -21.1424  -11.7186 C   0  0  2  0  0  0  0  0  0  0  0  0
   23.0605  -21.2703  -10.9491 N   0  0  0  0  0  0  0  0  0  0  0  0
   20.6776  -20.7971  -10.8738 C   0  0  0  0  0  0  0  0  0  0  0  0
   19.6028  -20.4010  -11.4100 O   0  0  0  0  0  0  0  0  0  0  0  0
   20.7513  -20.9099   -9.4935 O   0  0  0  0  0  0  0  0  0  0  0  0
  2  1  1  6
  2  4  1  0
  3  2  1  0
  4  5  1  1
  6  4  1  0
  6  7  2  0
  8  6  1  0
  9  8  1  0
  9 10  1  1
 11 10  1  0
 11 19  1  0
 12 13  1  0
 12 11  2  0
 13 14  1  0
 14 15  1  0
 14 19  2  0
 15 16  2  0
 16 17  1  0
 18 17  2  0
 19 18  1  0
 20  9  1  0
 21 20  2  0
 23 22  1  6
 23 25  1  0
 24 23  1  0
 25 27  1  0
 25 26  1  1
 26 20  1  0
 27 29  1  0
 28 27  2  0
M  END
$$$$
