VWV.pdb
     RDKit          3D

 29 30  0  0  1  0  0  0  0  0999 V2000
   27.1135  -18.3395  -14.8313 C   0  0  0  0  0  0  0  0  0  0  0  0
   27.4879  -19.6357  -15.4724 C   0  0  1  0  0  0  0  0  0  0  0  0
   28.5303  -19.2690  -16.5572 C   0  0  0  0  0  0  0  0  0  0  0  0
   28.1617  -20.6380  -14.6010 C   0  0  2  0  0  0  0  0  0  0  0  0
   28.2677  -21.8634  -15.4264 N   0  0  0  0  0  0  0  0  0  0  0  0
   27.4786  -21.0174  -13.3683 C   0  0  0  0  0  0  0  0  0  0  0  0
   26.4155  -21.7459  -13.4355 O   0  0  0  0  0  0  0  0  0  0  0  0
   27.8329  -20.6863  -12.0405 N   0  0  0  0  0  0  0  0  0  0  0  0
   27.0733  -20.8959  -10.8489 C   0  0  1  0  0  0  0  0  0  0  0  0
   27.8328  -20.3526   -9.6695 C   0  0  0  0  0  0  0  0  0  0  0  0
   27.2165  -20.6012   -8.3666 C   0  0  0  0  0  0  0  0  0  0  0  0
   26.0615  -21.3009   -8.1294 C   0  0  0  0  0  0  0  0  0  0  0  0
   25.8488  -21.3106   -6.7926 N   0  0  0  0  0  0  0  0  0  0  0  0
   26.8405  -20.6337   -6.1656 C   0  0  0  0  0  0  0  0  0  0  0  0
   27.1259  -20.3363   -4.8554 C   0  0  0  0  0  0  0  0  0  0  0  0
   28.2556  -19.5975   -4.4832 C   0  0  0  0  0  0  0  0  0  0  0  0
   29.1127  -19.1520   -5.4554 C   0  0  0  0  0  0  0  0  0  0  0  0
   28.8266  -19.4500   -6.7649 C   0  0  0  0  0  0  0  0  0  0  0  0
   27.7207  -20.1749   -7.1563 C   0  0  0  0  0  0  0  0  0  0  0  0
   25.7418  -20.2081  -10.8511 C   0  0  0  0  0  0  0  0  0  0  0  0
   25.7578  -18.9388  -10.7480 O   0  0  0  0  0  0  0  0  0  0  0  0
   22.5125  -21.7360  -12.9825 C   0  0  0  0  0  0  0  0  0  0  0  0
   22.7833  -20.2986  -12.6061 C   0  0  2  0  0  0  0  0  0  0  0  0
   23.7537  -19.6676  -13.5831 C   0  0  0  0  0  0  0  0  0  0  0  0
   23.2808  -20.1669  -11.2060 C   0  0  2  0  0  0  0  0  0  0  0  0
   24.5071  -20.8578  -10.9558 N   0  0  0  0  0  0  0  0  0  0  0  0
   22.1868  -20.5960  -10.2806 C   0  0  0  0  0  0  0  0  0  0  0  0
   22.3390  -21.6057   -9.5343 O   0  0  0  0  0  0  0  0  0  0  0  0
   20.9961  -19.8865  -10.2357 O   0  0  0  0  0  0  0  0  0  0  0  0
  2  1  1  1
  2  4  1  0
  3  2  1  0
  4  5  1  6
  6  4  1  0
  6  7  2  0
  8  6  1  0
  9  8  1  0
  9 10  1  1
 11 10  1  0
 11 19  1  0
 12 13  1  0
 12 11  2  0
 13 14  1  0
 14 15  1  0
 14 19  2  0
 15 16  2  0
 16 17  1  0
 18 17  2  0
 19 18  1  0
 20  9  1  0
 21 20  2  0
 23 22  1  6
 23 25  1  0
 24 23  1  0
 25 27  1  0
 25 26  1  6
 26 20  1  0
 27 29  1  0
 28 27  2  0
M  END
$$$$
