VWV.pdb
     RDKit          3D

 29 30  0  0  1  0  0  0  0  0999 V2000
   28.7699  -21.1584  -17.2389 C   0  0  0  0  0  0  0  0  0  0  0  0
   28.2218  -21.7146  -15.9655 C   0  0  1  0  0  0  0  0  0  0  0  0
   29.3645  -21.5688  -14.9306 C   0  0  0  0  0  0  0  0  0  0  0  0
   27.0593  -20.9969  -15.3727 C   0  0  2  0  0  0  0  0  0  0  0  0
   27.3968  -19.5581  -15.4737 N   0  0  0  0  0  0  0  0  0  0  0  0
   26.7561  -21.2616  -13.9698 C   0  0  0  0  0  0  0  0  0  0  0  0
   26.3840  -22.4461  -13.6181 O   0  0  0  0  0  0  0  0  0  0  0  0
   26.8163  -20.3606  -12.8822 N   0  0  0  0  0  0  0  0  0  0  0  0
   26.4046  -20.5821  -11.5323 C   0  0  1  0  0  0  0  0  0  0  0  0
   27.2295  -19.7260  -10.6108 C   0  0  0  0  0  0  0  0  0  0  0  0
   27.7548  -20.4120   -9.4306 C   0  0  0  0  0  0  0  0  0  0  0  0
   28.4596  -21.5880   -9.4155 C   0  0  0  0  0  0  0  0  0  0  0  0
   28.7709  -21.8691   -8.1285 N   0  0  0  0  0  0  0  0  0  0  0  0
   28.2829  -20.9010   -7.3166 C   0  0  0  0  0  0  0  0  0  0  0  0
   28.3025  -20.6787   -5.9614 C   0  0  0  0  0  0  0  0  0  0  0  0
   27.6993  -19.5586   -5.3765 C   0  0  0  0  0  0  0  0  0  0  0  0
   27.0649  -18.6461   -6.1784 C   0  0  0  0  0  0  0  0  0  0  0  0
   27.0460  -18.8692   -7.5332 C   0  0  0  0  0  0  0  0  0  0  0  0
   27.6319  -19.9642   -8.1325 C   0  0  0  0  0  0  0  0  0  0  0  0
   24.9714  -20.2301  -11.2711 C   0  0  0  0  0  0  0  0  0  0  0  0
   24.6423  -19.0139  -11.4561 O   0  0  0  0  0  0  0  0  0  0  0  0
   22.5337  -21.7396  -13.3158 C   0  0  0  0  0  0  0  0  0  0  0  0
   21.9008  -21.7848  -11.9452 C   0  0  2  0  0  0  0  0  0  0  0  0
   20.4251  -21.4539  -12.0305 C   0  0  0  0  0  0  0  0  0  0  0  0
   22.5903  -20.8840  -10.9764 C   0  0  2  0  0  0  0  0  0  0  0  0
   23.9917  -21.1334  -10.8446 N   0  0  0  0  0  0  0  0  0  0  0  0
   21.8714  -20.9698   -9.6677 C   0  0  0  0  0  0  0  0  0  0  0  0
   22.2089  -21.8333   -8.8073 O   0  0  0  0  0  0  0  0  0  0  0  0
   20.8276  -20.1000   -9.3895 O   0  0  0  0  0  0  0  0  0  0  0  0
  2  1  1  6
  2  4  1  0
  3  2  1  0
  4  5  1  1
  6  4  1  0
  6  7  2  0
  8  6  1  0
  9  8  1  0
  9 10  1  1
 11 10  1  0
 11 19  1  0
 12 13  1  0
 12 11  2  0
 13 14  1  0
 14 15  1  0
 14 19  2  0
 15 16  2  0
 16 17  1  0
 18 17  2  0
 19 18  1  0
 20  9  1  0
 21 20  2  0
 23 22  1  6
 23 25  1  0
 24 23  1  0
 25 27  1  0
 25 26  1  1
 26 20  1  0
 27 29  1  0
 28 27  2  0
M  END
$$$$
