VWV.pdb
     RDKit          3D

 29 30  0  0  1  0  0  0  0  0999 V2000
   28.9077  -18.5438  -15.9090 C   0  0  0  0  0  0  0  0  0  0  0  0
   28.1307  -19.0056  -14.7198 C   0  0  1  0  0  0  0  0  0  0  0  0
   26.6507  -19.0109  -15.1754 C   0  0  0  0  0  0  0  0  0  0  0  0
   28.4021  -20.3910  -14.2455 C   0  0  2  0  0  0  0  0  0  0  0  0
   28.0238  -21.2708  -15.3755 N   0  0  0  0  0  0  0  0  0  0  0  0
   27.6557  -20.8559  -13.0806 C   0  0  0  0  0  0  0  0  0  0  0  0
   26.5690  -21.5293  -13.2561 O   0  0  0  0  0  0  0  0  0  0  0  0
   27.9688  -20.6668  -11.7151 N   0  0  0  0  0  0  0  0  0  0  0  0
   27.1652  -20.9809  -10.5766 C   0  0  1  0  0  0  0  0  0  0  0  0
   27.8934  -20.5777   -9.3236 C   0  0  0  0  0  0  0  0  0  0  0  0
   27.1214  -20.7071   -8.0881 C   0  0  0  0  0  0  0  0  0  0  0  0
   25.8734  -21.2600   -7.9588 C   0  0  0  0  0  0  0  0  0  0  0  0
   25.5249  -21.1978   -6.6523 N   0  0  0  0  0  0  0  0  0  0  0  0
   26.5200  -20.6182   -5.9393 C   0  0  0  0  0  0  0  0  0  0  0  0
   26.7026  -20.3095   -4.6135 C   0  0  0  0  0  0  0  0  0  0  0  0
   27.8676  -19.6934   -4.1406 C   0  0  0  0  0  0  0  0  0  0  0  0
   28.8668  -19.3845   -5.0262 C   0  0  0  0  0  0  0  0  0  0  0  0
   28.6834  -19.6937   -6.3515 C   0  0  0  0  0  0  0  0  0  0  0  0
   27.5456  -20.2994   -6.8413 C   0  0  0  0  0  0  0  0  0  0  0  0
   25.8471  -20.2681  -10.5508 C   0  0  0  0  0  0  0  0  0  0  0  0
   25.8898  -18.9961  -10.5051 O   0  0  0  0  0  0  0  0  0  0  0  0
   22.2451  -19.3231  -13.0694 C   0  0  0  0  0  0  0  0  0  0  0  0
   23.3750  -20.1964  -12.5774 C   0  0  2  0  0  0  0  0  0  0  0  0
   23.2805  -21.5801  -13.1861 C   0  0  0  0  0  0  0  0  0  0  0  0
   23.4191  -20.2748  -11.0884 C   0  0  2  0  0  0  0  0  0  0  0  0
   24.5977  -20.8976  -10.5722 N   0  0  0  0  0  0  0  0  0  0  0  0
   22.1681  -20.9477  -10.6201 C   0  0  0  0  0  0  0  0  0  0  0  0
   22.2167  -22.1012  -10.1035 O   0  0  0  0  0  0  0  0  0  0  0  0
   20.9444  -20.3083  -10.7500 O   0  0  0  0  0  0  0  0  0  0  0  0
  2  1  1  6
  2  4  1  0
  3  2  1  0
  4  5  1  6
  6  4  1  0
  6  7  2  0
  8  6  1  0
  9  8  1  0
  9 10  1  1
 11 10  1  0
 11 19  1  0
 12 13  1  0
 12 11  2  0
 13 14  1  0
 14 15  1  0
 14 19  2  0
 15 16  2  0
 16 17  1  0
 18 17  2  0
 19 18  1  0
 20  9  1  0
 21 20  2  0
 23 22  1  1
 23 25  1  0
 24 23  1  0
 25 27  1  0
 25 26  1  6
 26 20  1  0
 27 29  1  0
 28 27  2  0
M  END
$$$$
