VWV.pdb
     RDKit          3D

 29 30  0  0  1  0  0  0  0  0999 V2000
   28.6813  -21.1892  -18.9901 C   0  0  0  0  0  0  0  0  0  0  0  0
   27.8915  -21.2216  -17.7226 C   0  0  1  0  0  0  0  0  0  0  0  0
   26.5834  -21.9717  -18.0752 C   0  0  0  0  0  0  0  0  0  0  0  0
   28.4870  -21.9798  -16.5876 C   0  0  2  0  0  0  0  0  0  0  0  0
   28.6357  -23.3683  -17.0817 N   0  0  0  0  0  0  0  0  0  0  0  0
   27.7115  -22.0521  -15.3532 C   0  0  0  0  0  0  0  0  0  0  0  0
   26.8191  -22.9750  -15.2228 O   0  0  0  0  0  0  0  0  0  0  0  0
   27.8028  -21.2139  -14.2186 N   0  0  0  0  0  0  0  0  0  0  0  0
   26.9653  -21.2053  -13.0613 C   0  0  1  0  0  0  0  0  0  0  0  0
   27.5523  -20.2856  -12.0258 C   0  0  0  0  0  0  0  0  0  0  0  0
   26.8599  -20.2791  -10.7375 C   0  0  0  0  0  0  0  0  0  0  0  0
   25.5098  -20.1497  -10.5364 C   0  0  0  0  0  0  0  0  0  0  0  0
   25.2809  -20.2088   -9.2035 N   0  0  0  0  0  0  0  0  0  0  0  0
   26.4524  -20.3733   -8.5439 C   0  0  0  0  0  0  0  0  0  0  0  0
   26.8059  -20.4943   -7.2222 C   0  0  0  0  0  0  0  0  0  0  0  0
   28.1347  -20.6606   -6.8136 C   0  0  0  0  0  0  0  0  0  0  0  0
   29.1243  -20.7059   -7.7607 C   0  0  0  0  0  0  0  0  0  0  0  0
   28.7698  -20.5851   -9.0818 C   0  0  0  0  0  0  0  0  0  0  0  0
   27.4691  -20.4200   -9.5088 C   0  0  0  0  0  0  0  0  0  0  0  0
   25.5734  -20.7161  -13.3250 C   0  0  0  0  0  0  0  0  0  0  0  0
   25.4618  -19.5183  -13.7429 O   0  0  0  0  0  0  0  0  0  0  0  0
   22.3164  -23.1850  -14.2998 C   0  0  0  0  0  0  0  0  0  0  0  0
   22.4223  -21.7005  -14.5576 C   0  0  2  0  0  0  0  0  0  0  0  0
   23.1248  -21.4390  -15.8738 C   0  0  0  0  0  0  0  0  0  0  0  0
   23.1037  -20.9822  -13.4418 C   0  0  2  0  0  0  0  0  0  0  0  0
   24.4121  -21.4752  -13.1443 N   0  0  0  0  0  0  0  0  0  0  0  0
   22.2005  -21.0094  -12.2500 C   0  0  0  0  0  0  0  0  0  0  0  0
   22.5109  -21.6853  -11.2270 O   0  0  0  0  0  0  0  0  0  0  0  0
   21.0142  -20.2911  -12.2601 O   0  0  0  0  0  0  0  0  0  0  0  0
  2  1  1  6
  2  4  1  0
  3  2  1  0
  4  5  1  6
  6  4  1  0
  6  7  2  0
  8  6  1  0
  9  8  1  0
  9 10  1  1
 11 10  1  0
 11 19  1  0
 12 13  1  0
 12 11  2  0
 13 14  1  0
 14 15  1  0
 14 19  2  0
 15 16  2  0
 16 17  1  0
 18 17  2  0
 19 18  1  0
 20  9  1  0
 21 20  2  0
 23 22  1  1
 23 25  1  0
 24 23  1  0
 25 27  1  0
 25 26  1  1
 26 20  1  0
 27 29  1  0
 28 27  2  0
M  END
$$$$
