VWV.pdb
     RDKit          3D

 29 30  0  0  1  0  0  0  0  0999 V2000
   29.7483  -21.3337  -16.5475 C   0  0  0  0  0  0  0  0  0  0  0  0
   28.8031  -21.8723  -15.5239 C   0  0  1  0  0  0  0  0  0  0  0  0
   29.6732  -22.1604  -14.2757 C   0  0  0  0  0  0  0  0  0  0  0  0
   27.7343  -20.9476  -15.0543 C   0  0  2  0  0  0  0  0  0  0  0  0
   28.4046  -19.6399  -14.8677 N   0  0  0  0  0  0  0  0  0  0  0  0
   27.0802  -21.2706  -13.7902 C   0  0  0  0  0  0  0  0  0  0  0  0
   26.2049  -22.2182  -13.7577 O   0  0  0  0  0  0  0  0  0  0  0  0
   27.2788  -20.6646  -12.5287 N   0  0  0  0  0  0  0  0  0  0  0  0
   26.5653  -20.9054  -11.3147 C   0  0  1  0  0  0  0  0  0  0  0  0
   27.3414  -20.3387  -10.1574 C   0  0  0  0  0  0  0  0  0  0  0  0
   26.7153  -20.5104   -8.8468 C   0  0  0  0  0  0  0  0  0  0  0  0
   25.4794  -21.0487   -8.5961 C   0  0  0  0  0  0  0  0  0  0  0  0
   25.2860  -21.0387   -7.2564 N   0  0  0  0  0  0  0  0  0  0  0  0
   26.3690  -20.5069   -6.6407 C   0  0  0  0  0  0  0  0  0  0  0  0
   26.7104  -20.2601   -5.3334 C   0  0  0  0  0  0  0  0  0  0  0  0
   27.9349  -19.6840   -4.9742 C   0  0  0  0  0  0  0  0  0  0  0  0
   28.8310  -19.3521   -5.9567 C   0  0  0  0  0  0  0  0  0  0  0  0
   28.4888  -19.5995   -7.2633 C   0  0  0  0  0  0  0  0  0  0  0  0
   27.2895  -20.1649   -7.6420 C   0  0  0  0  0  0  0  0  0  0  0  0
   25.2103  -20.2665  -11.2721 C   0  0  0  0  0  0  0  0  0  0  0  0
   25.1789  -18.9955  -11.3449 O   0  0  0  0  0  0  0  0  0  0  0  0
   23.1372  -20.9333  -13.9642 C   0  0  0  0  0  0  0  0  0  0  0  0
   22.1812  -21.0237  -12.7984 C   0  0  2  0  0  0  0  0  0  0  0  0
   20.8509  -20.3918  -13.1523 C   0  0  0  0  0  0  0  0  0  0  0  0
   22.7445  -20.4131  -11.5593 C   0  0  2  0  0  0  0  0  0  0  0  0
   24.0019  -20.9626  -11.1586 N   0  0  0  0  0  0  0  0  0  0  0  0
   21.7119  -20.5094  -10.4816 C   0  0  0  0  0  0  0  0  0  0  0  0
   21.5933  -21.5693   -9.8017 O   0  0  0  0  0  0  0  0  0  0  0  0
   20.8765  -19.4335  -10.2211 O   0  0  0  0  0  0  0  0  0  0  0  0
  2  1  1  6
  2  4  1  0
  3  2  1  0
  4  5  1  1
  6  4  1  0
  6  7  2  0
  8  6  1  0
  9  8  1  0
  9 10  1  1
 11 10  1  0
 11 19  1  0
 12 13  1  0
 12 11  2  0
 13 14  1  0
 14 15  1  0
 14 19  2  0
 15 16  2  0
 16 17  1  0
 18 17  2  0
 19 18  1  0
 20  9  1  0
 21 20  2  0
 23 22  1  6
 23 25  1  0
 24 23  1  0
 25 27  1  0
 25 26  1  1
 26 20  1  0
 27 29  1  0
 28 27  2  0
M  END
$$$$
