VWV.pdb
     RDKit          3D

 29 30  0  0  1  0  0  0  0  0999 V2000
   28.7578  -20.0630  -16.7548 C   0  0  0  0  0  0  0  0  0  0  0  0
   27.9062  -20.2161  -15.5371 C   0  0  1  0  0  0  0  0  0  0  0  0
   26.4737  -20.4667  -16.0691 C   0  0  0  0  0  0  0  0  0  0  0  0
   28.2085  -21.3784  -14.6564 C   0  0  2  0  0  0  0  0  0  0  0  0
   27.9214  -22.5760  -15.4794 N   0  0  0  0  0  0  0  0  0  0  0  0
   27.4247  -21.5099  -13.4323 C   0  0  0  0  0  0  0  0  0  0  0  0
   26.2848  -22.1130  -13.4756 O   0  0  0  0  0  0  0  0  0  0  0  0
   27.7520  -21.0493  -12.1365 N   0  0  0  0  0  0  0  0  0  0  0  0
   26.9371  -21.0700  -10.9634 C   0  0  1  0  0  0  0  0  0  0  0  0
   27.6988  -20.4681   -9.8144 C   0  0  0  0  0  0  0  0  0  0  0  0
   27.0405  -20.5696   -8.5123 C   0  0  0  0  0  0  0  0  0  0  0  0
   25.7612  -21.0023   -8.2753 C   0  0  0  0  0  0  0  0  0  0  0  0
   25.5484  -20.9574   -6.9392 N   0  0  0  0  0  0  0  0  0  0  0  0
   26.6612  -20.5063   -6.3125 C   0  0  0  0  0  0  0  0  0  0  0  0
   27.0012  -20.2691   -5.0031 C   0  0  0  0  0  0  0  0  0  0  0  0
   28.2627  -19.7891   -4.6310 C   0  0  0  0  0  0  0  0  0  0  0  0
   29.1980  -19.5451   -5.6026 C   0  0  0  0  0  0  0  0  0  0  0  0
   28.8573  -19.7827   -6.9114 C   0  0  0  0  0  0  0  0  0  0  0  0
   27.6220  -20.2544   -7.3027 C   0  0  0  0  0  0  0  0  0  0  0  0
   25.6692  -20.2815  -11.0932 C   0  0  0  0  0  0  0  0  0  0  0  0
   25.7909  -19.0150  -11.1474 O   0  0  0  0  0  0  0  0  0  0  0  0
   22.5755  -21.3566  -13.4753 C   0  0  0  0  0  0  0  0  0  0  0  0
   22.8750  -19.9955  -12.8931 C   0  0  2  0  0  0  0  0  0  0  0  0
   23.9810  -19.3158  -13.6736 C   0  0  0  0  0  0  0  0  0  0  0  0
   23.2166  -20.0659  -11.4427 C   0  0  2  0  0  0  0  0  0  0  0  0
   24.3863  -20.8362  -11.1562 N   0  0  0  0  0  0  0  0  0  0  0  0
   22.0139  -20.5612  -10.7044 C   0  0  0  0  0  0  0  0  0  0  0  0
   20.9622  -19.8607  -10.6510 O   0  0  0  0  0  0  0  0  0  0  0  0
   22.0455  -21.7954  -10.0727 O   0  0  0  0  0  0  0  0  0  0  0  0
  2  1  1  6
  2  4  1  0
  3  2  1  0
  4  5  1  6
  6  4  1  0
  6  7  2  0
  8  6  1  0
  9  8  1  0
  9 10  1  1
 11 10  1  0
 11 19  1  0
 12 13  1  0
 12 11  2  0
 13 14  1  0
 14 15  1  0
 14 19  2  0
 15 16  2  0
 16 17  1  0
 18 17  2  0
 19 18  1  0
 20  9  1  0
 21 20  2  0
 23 22  1  6
 23 25  1  0
 24 23  1  0
 25 27  1  0
 25 26  1  6
 26 20  1  0
 27 29  1  0
 28 27  2  0
M  END
$$$$
