VWV.pdb
     RDKit          3D

 29 30  0  0  1  0  0  0  0  0999 V2000
   28.7202  -19.5219  -16.7409 C   0  0  0  0  0  0  0  0  0  0  0  0
   27.9209  -19.7664  -15.5030 C   0  0  1  0  0  0  0  0  0  0  0  0
   26.4907  -20.0938  -15.9981 C   0  0  0  0  0  0  0  0  0  0  0  0
   28.3261  -20.9322  -14.6696 C   0  0  2  0  0  0  0  0  0  0  0  0
   28.1317  -22.1174  -15.5366 N   0  0  0  0  0  0  0  0  0  0  0  0
   27.5668  -21.1748  -13.4470 C   0  0  0  0  0  0  0  0  0  0  0  0
   26.5221  -21.9307  -13.4935 O   0  0  0  0  0  0  0  0  0  0  0  0
   27.8253  -20.6764  -12.1496 N   0  0  0  0  0  0  0  0  0  0  0  0
   27.0260  -20.8243  -10.9749 C   0  0  1  0  0  0  0  0  0  0  0  0
   27.7190  -20.1678   -9.8123 C   0  0  0  0  0  0  0  0  0  0  0  0
   27.1328  -20.4475   -8.5018 C   0  0  0  0  0  0  0  0  0  0  0  0
   25.9461  -21.0897   -8.2581 C   0  0  0  0  0  0  0  0  0  0  0  0
   25.7782  -21.1568   -6.9165 N   0  0  0  0  0  0  0  0  0  0  0  0
   26.8294  -20.5730   -6.2930 C   0  0  0  0  0  0  0  0  0  0  0  0
   27.1761  -20.3619   -4.9809 C   0  0  0  0  0  0  0  0  0  0  0  0
   28.3602  -19.7112   -4.6136 C   0  0  0  0  0  0  0  0  0  0  0  0
   29.2097  -19.2666   -5.5928 C   0  0  0  0  0  0  0  0  0  0  0  0
   28.8624  -19.4784   -6.9043 C   0  0  0  0  0  0  0  0  0  0  0  0
   27.7022  -20.1155   -7.2910 C   0  0  0  0  0  0  0  0  0  0  0  0
   25.6734  -20.1873  -11.0790 C   0  0  0  0  0  0  0  0  0  0  0  0
   25.6497  -18.9188  -11.1891 O   0  0  0  0  0  0  0  0  0  0  0  0
   22.4817  -22.0876  -12.9541 C   0  0  0  0  0  0  0  0  0  0  0  0
   22.7293  -20.6083  -12.7765 C   0  0  2  0  0  0  0  0  0  0  0  0
   23.7021  -20.1034  -13.8220 C   0  0  0  0  0  0  0  0  0  0  0  0
   23.2095  -20.2784  -11.4032 C   0  0  2  0  0  0  0  0  0  0  0  0
   24.4594  -20.8826  -11.0621 N   0  0  0  0  0  0  0  0  0  0  0  0
   22.1252  -20.6276  -10.4341 C   0  0  0  0  0  0  0  0  0  0  0  0
   22.2786  -21.5822   -9.6186 O   0  0  0  0  0  0  0  0  0  0  0  0
   20.9420  -19.9042  -10.4243 O   0  0  0  0  0  0  0  0  0  0  0  0
  2  1  1  6
  2  4  1  0
  3  2  1  0
  4  5  1  6
  6  4  1  0
  6  7  2  0
  8  6  1  0
  9  8  1  0
  9 10  1  1
 11 10  1  0
 11 19  1  0
 12 13  1  0
 12 11  2  0
 13 14  1  0
 14 15  1  0
 14 19  2  0
 15 16  2  0
 16 17  1  0
 18 17  2  0
 19 18  1  0
 20  9  1  0
 21 20  2  0
 23 22  1  1
 23 25  1  0
 24 23  1  0
 25 27  1  0
 25 26  1  1
 26 20  1  0
 27 29  1  0
 28 27  2  0
M  END
$$$$
