VWV.pdb
     RDKit          3D

 29 30  0  0  1  0  0  0  0  0999 V2000
   26.5545  -35.8612  -12.7902 C   0  0  0  0  0  0  0  0  0  0  0  0
   25.2678  -35.3480  -13.3490 C   0  0  1  0  0  0  0  0  0  0  0  0
   24.1573  -36.0540  -12.5326 C   0  0  0  0  0  0  0  0  0  0  0  0
   25.0082  -33.8903  -13.1892 C   0  0  2  0  0  0  0  0  0  0  0  0
   25.9872  -33.2205  -14.0763 N   0  0  0  0  0  0  0  0  0  0  0  0
   25.1885  -33.3223  -11.8569 C   0  0  0  0  0  0  0  0  0  0  0  0
   26.3169  -32.7751  -11.5526 O   0  0  0  0  0  0  0  0  0  0  0  0
   24.2556  -33.2809  -10.7957 N   0  0  0  0  0  0  0  0  0  0  0  0
   24.4615  -32.8160   -9.4607 C   0  0  1  0  0  0  0  0  0  0  0  0
   23.1403  -32.4237   -8.8581 C   0  0  0  0  0  0  0  0  0  0  0  0
   22.6906  -31.0689   -9.1768 C   0  0  0  0  0  0  0  0  0  0  0  0
   23.4823  -29.9596   -9.3273 C   0  0  0  0  0  0  0  0  0  0  0  0
   22.6786  -28.9140   -9.6323 N   0  0  0  0  0  0  0  0  0  0  0  0
   21.3892  -29.3258   -9.6816 C   0  0  0  0  0  0  0  0  0  0  0  0
   20.1893  -28.7092   -9.9393 C   0  0  0  0  0  0  0  0  0  0  0  0
   18.9720  -29.4008   -9.9228 C   0  0  0  0  0  0  0  0  0  0  0  0
   18.9692  -30.7419   -9.6408 C   0  0  0  0  0  0  0  0  0  0  0  0
   20.1693  -31.3576   -9.3834 C   0  0  0  0  0  0  0  0  0  0  0  0
   21.3804  -30.6983   -9.3931 C   0  0  0  0  0  0  0  0  0  0  0  0
   25.0576  -33.8437   -8.5471 C   0  0  0  0  0  0  0  0  0  0  0  0
   24.5808  -35.0218   -8.6293 O   0  0  0  0  0  0  0  0  0  0  0  0
   28.3121  -33.1934   -5.6059 C   0  0  0  0  0  0  0  0  0  0  0  0
   28.0969  -34.4018   -6.4861 C   0  0  2  0  0  0  0  0  0  0  0  0
   28.9176  -34.2879   -7.7541 C   0  0  0  0  0  0  0  0  0  0  0  0
   26.6557  -34.6165   -6.8056 C   0  0  2  0  0  0  0  0  0  0  0  0
   26.0827  -33.5968   -7.6275 N   0  0  0  0  0  0  0  0  0  0  0  0
   25.9146  -34.7935   -5.5186 C   0  0  0  0  0  0  0  0  0  0  0  0
   25.1286  -33.8937   -5.1036 O   0  0  0  0  0  0  0  0  0  0  0  0
   26.0856  -35.9491   -4.7711 O   0  0  0  0  0  0  0  0  0  0  0  0
  2  1  1  1
  2  4  1  0
  3  2  1  0
  4  5  1  6
  6  4  1  0
  6  7  2  0
  8  6  1  0
  9  8  1  0
  9 10  1  1
 11 10  1  0
 11 19  1  0
 12 13  1  0
 12 11  2  0
 13 14  1  0
 14 15  1  0
 14 19  2  0
 15 16  2  0
 16 17  1  0
 18 17  2  0
 19 18  1  0
 20  9  1  0
 21 20  2  0
 23 22  1  6
 23 25  1  0
 24 23  1  0
 25 27  1  0
 25 26  1  1
 26 20  1  0
 27 29  1  0
 28 27  2  0
M  END
$$$$
