VWV.pdb
     RDKit          3D

 29 30  0  0  1  0  0  0  0  0999 V2000
   29.6667  -18.9445  -18.8509 C   0  0  0  0  0  0  0  0  0  0  0  0
   28.6976  -19.1590  -17.7346 C   0  0  1  0  0  0  0  0  0  0  0  0
   28.9492  -17.9943  -16.7456 C   0  0  0  0  0  0  0  0  0  0  0  0
   27.2523  -19.0745  -18.0837 C   0  0  2  0  0  0  0  0  0  0  0  0
   27.1018  -17.7943  -18.8134 N   0  0  0  0  0  0  0  0  0  0  0  0
   26.2994  -19.0447  -16.9785 C   0  0  0  0  0  0  0  0  0  0  0  0
   25.9778  -17.9104  -16.4541 O   0  0  0  0  0  0  0  0  0  0  0  0
   25.6413  -20.1368  -16.3682 N   0  0  0  0  0  0  0  0  0  0  0  0
   24.7548  -20.1155  -15.2482 C   0  0  1  0  0  0  0  0  0  0  0  0
   23.5026  -20.8773  -15.5867 C   0  0  0  0  0  0  0  0  0  0  0  0
   22.2563  -20.2479  -15.1509 C   0  0  0  0  0  0  0  0  0  0  0  0
   21.9314  -18.9200  -15.2563 C   0  0  0  0  0  0  0  0  0  0  0  0
   20.6866  -18.7557  -14.7505 N   0  0  0  0  0  0  0  0  0  0  0  0
   20.2043  -19.9471  -14.3231 C   0  0  0  0  0  0  0  0  0  0  0  0
   19.0298  -20.3594  -13.7426 C   0  0  0  0  0  0  0  0  0  0  0  0
   18.7936  -21.6951  -13.3954 C   0  0  0  0  0  0  0  0  0  0  0  0
   19.7641  -22.6311  -13.6408 C   0  0  0  0  0  0  0  0  0  0  0  0
   20.9379  -22.2178  -14.2214 C   0  0  0  0  0  0  0  0  0  0  0  0
   21.1943  -20.9089  -14.5716 C   0  0  0  0  0  0  0  0  0  0  0  0
   25.3210  -20.7535  -14.0159 C   0  0  0  0  0  0  0  0  0  0  0  0
   25.6670  -21.9750  -14.1163 O   0  0  0  0  0  0  0  0  0  0  0  0
   28.3008  -19.8015  -11.9332 C   0  0  0  0  0  0  0  0  0  0  0  0
   27.1477  -20.0247  -10.9836 C   0  0  2  0  0  0  0  0  0  0  0  0
   27.6171  -20.7497   -9.7393 C   0  0  0  0  0  0  0  0  0  0  0  0
   26.0198  -20.7569  -11.6293 C   0  0  2  0  0  0  0  0  0  0  0  0
   25.4895  -20.1067  -12.7868 N   0  0  0  0  0  0  0  0  0  0  0  0
   24.9743  -21.0117  -10.5905 C   0  0  0  0  0  0  0  0  0  0  0  0
   23.9729  -20.2457  -10.4889 O   0  0  0  0  0  0  0  0  0  0  0  0
   25.0976  -22.0927   -9.7306 O   0  0  0  0  0  0  0  0  0  0  0  0
  2  1  1  6
  2  4  1  0
  3  2  1  0
  4  5  1  1
  6  4  1  0
  6  7  2  0
  8  6  1  0
  9  8  1  0
  9 10  1  6
 11 10  1  0
 11 19  1  0
 12 13  1  0
 12 11  2  0
 13 14  1  0
 14 15  1  0
 14 19  2  0
 15 16  2  0
 16 17  1  0
 18 17  2  0
 19 18  1  0
 20  9  1  0
 21 20  2  0
 23 22  1  6
 23 25  1  0
 24 23  1  0
 25 27  1  0
 25 26  1  6
 26 20  1  0
 27 29  1  0
 28 27  2  0
M  END
$$$$
