VWV.pdb
     RDKit          3D

 29 30  0  0  1  0  0  0  0  0999 V2000
   29.4854  -20.5884  -13.1667 C   0  0  0  0  0  0  0  0  0  0  0  0
   28.8199  -21.2137  -11.9846 C   0  0  1  0  0  0  0  0  0  0  0  0
   29.0352  -20.2166  -10.8195 C   0  0  0  0  0  0  0  0  0  0  0  0
   27.3453  -21.4022  -12.0746 C   0  0  2  0  0  0  0  0  0  0  0  0
   26.8317  -20.1632  -12.7031 N   0  0  0  0  0  0  0  0  0  0  0  0
   26.6166  -21.5730  -10.8216 C   0  0  0  0  0  0  0  0  0  0  0  0
   26.7587  -22.6682  -10.1542 O   0  0  0  0  0  0  0  0  0  0  0  0
   25.7319  -20.6629  -10.1992 N   0  0  0  0  0  0  0  0  0  0  0  0
   24.9739  -20.8511   -9.0031 C   0  0  1  0  0  0  0  0  0  0  0  0
   25.0277  -19.5971   -8.1741 C   0  0  0  0  0  0  0  0  0  0  0  0
   26.2872  -19.3761   -7.4641 C   0  0  0  0  0  0  0  0  0  0  0  0
   27.2567  -18.4614   -7.7858 C   0  0  0  0  0  0  0  0  0  0  0  0
   28.2491  -18.5691   -6.8715 N   0  0  0  0  0  0  0  0  0  0  0  0
   27.9395  -19.5313   -5.9699 C   0  0  0  0  0  0  0  0  0  0  0  0
   28.5612  -20.0480   -4.8595 C   0  0  0  0  0  0  0  0  0  0  0  0
   27.9931  -21.0704   -4.0897 C   0  0  0  0  0  0  0  0  0  0  0  0
   26.7726  -21.5788   -4.4502 C   0  0  0  0  0  0  0  0  0  0  0  0
   26.1517  -21.0614   -5.5603 C   0  0  0  0  0  0  0  0  0  0  0  0
   26.6908  -20.0556   -6.3345 C   0  0  0  0  0  0  0  0  0  0  0  0
   23.5232  -21.1394   -9.2450 C   0  0  0  0  0  0  0  0  0  0  0  0
   23.0435  -20.7457  -10.3571 O   0  0  0  0  0  0  0  0  0  0  0  0
   21.5364  -24.4458   -7.8940 C   0  0  0  0  0  0  0  0  0  0  0  0
   20.7252  -23.1752   -7.8002 C   0  0  2  0  0  0  0  0  0  0  0  0
   19.2840  -23.4356   -8.1869 C   0  0  0  0  0  0  0  0  0  0  0  0
   21.3042  -22.0750   -8.6245 C   0  0  2  0  0  0  0  0  0  0  0  0
   22.6788  -21.7990   -8.3453 N   0  0  0  0  0  0  0  0  0  0  0  0
   20.4371  -20.8669   -8.4642 C   0  0  0  0  0  0  0  0  0  0  0  0
   20.8019  -19.9115   -7.7201 O   0  0  0  0  0  0  0  0  0  0  0  0
   19.2248  -20.7876   -9.1330 O   0  0  0  0  0  0  0  0  0  0  0  0
  2  1  1  6
  2  4  1  0
  3  2  1  0
  4  5  1  1
  6  4  1  0
  6  7  2  0
  8  6  1  0
  9  8  1  0
  9 10  1  1
 11 10  1  0
 11 19  1  0
 12 13  1  0
 12 11  2  0
 13 14  1  0
 14 15  1  0
 14 19  2  0
 15 16  2  0
 16 17  1  0
 18 17  2  0
 19 18  1  0
 20  9  1  0
 21 20  2  0
 23 22  1  6
 23 25  1  0
 24 23  1  0
 25 27  1  0
 25 26  1  1
 26 20  1  0
 27 29  1  0
 28 27  2  0
M  END
$$$$
