VWV.pdb
     RDKit          3D

 29 30  0  0  1  0  0  0  0  0999 V2000
   28.6499  -18.8404  -16.2686 C   0  0  0  0  0  0  0  0  0  0  0  0
   27.9120  -19.2553  -15.0380 C   0  0  1  0  0  0  0  0  0  0  0  0
   26.4410  -19.4387  -15.4859 C   0  0  0  0  0  0  0  0  0  0  0  0
   28.3057  -20.5586  -14.4345 C   0  0  2  0  0  0  0  0  0  0  0  0
   28.0238  -21.5720  -15.4774 N   0  0  0  0  0  0  0  0  0  0  0  0
   27.5926  -20.9803  -13.2328 C   0  0  0  0  0  0  0  0  0  0  0  0
   26.5377  -21.7140  -13.3509 O   0  0  0  0  0  0  0  0  0  0  0  0
   27.9083  -20.6872  -11.8865 N   0  0  0  0  0  0  0  0  0  0  0  0
   27.1138  -20.9281  -10.7240 C   0  0  1  0  0  0  0  0  0  0  0  0
   27.8361  -20.4135   -9.5090 C   0  0  0  0  0  0  0  0  0  0  0  0
   27.1056  -20.5486   -8.2490 C   0  0  0  0  0  0  0  0  0  0  0  0
   25.8749  -21.1278   -8.0765 C   0  0  0  0  0  0  0  0  0  0  0  0
   25.5654  -21.0612   -6.7604 N   0  0  0  0  0  0  0  0  0  0  0  0
   26.5687  -20.4530   -6.0835 C   0  0  0  0  0  0  0  0  0  0  0  0
   26.7850  -20.1282   -4.7667 C   0  0  0  0  0  0  0  0  0  0  0  0
   27.9499  -19.4820   -4.3354 C   0  0  0  0  0  0  0  0  0  0  0  0
   28.9142  -19.1592   -5.2542 C   0  0  0  0  0  0  0  0  0  0  0  0
   28.6971  -19.4846   -6.5704 C   0  0  0  0  0  0  0  0  0  0  0  0
   27.5586  -20.1200   -7.0196 C   0  0  0  0  0  0  0  0  0  0  0  0
   25.7812  -20.2427  -10.7489 C   0  0  0  0  0  0  0  0  0  0  0  0
   25.7953  -18.9708  -10.6878 O   0  0  0  0  0  0  0  0  0  0  0  0
   22.5249  -21.7937  -12.8416 C   0  0  0  0  0  0  0  0  0  0  0  0
   22.8192  -20.3561  -12.4839 C   0  0  2  0  0  0  0  0  0  0  0  0
   23.8011  -19.7544  -13.4678 C   0  0  0  0  0  0  0  0  0  0  0  0
   23.3174  -20.2143  -11.0849 C   0  0  2  0  0  0  0  0  0  0  0  0
   24.5475  -20.8974  -10.8323 N   0  0  0  0  0  0  0  0  0  0  0  0
   22.2266  -20.6440  -10.1562 C   0  0  0  0  0  0  0  0  0  0  0  0
   22.3619  -21.6825   -9.4469 O   0  0  0  0  0  0  0  0  0  0  0  0
   21.0573  -19.9036  -10.0673 O   0  0  0  0  0  0  0  0  0  0  0  0
  2  1  1  6
  2  4  1  0
  3  2  1  0
  4  5  1  6
  6  4  1  0
  6  7  2  0
  8  6  1  0
  9  8  1  0
  9 10  1  1
 11 10  1  0
 11 19  1  0
 12 13  1  0
 12 11  2  0
 13 14  1  0
 14 15  1  0
 14 19  2  0
 15 16  2  0
 16 17  1  0
 18 17  2  0
 19 18  1  0
 20  9  1  0
 21 20  2  0
 23 22  1  6
 23 25  1  0
 24 23  1  0
 25 27  1  0
 25 26  1  6
 26 20  1  0
 27 29  1  0
 28 27  2  0
M  END
$$$$
