VWV.pdb
     RDKit          3D

 29 30  0  0  1  0  0  0  0  0999 V2000
   29.1257  -16.9372  -17.9063 C   0  0  0  0  0  0  0  0  0  0  0  0
   28.5712  -18.2144  -17.3655 C   0  0  1  0  0  0  0  0  0  0  0  0
   29.3211  -18.4532  -16.0318 C   0  0  0  0  0  0  0  0  0  0  0  0
   27.1251  -18.2134  -17.0098 C   0  0  2  0  0  0  0  0  0  0  0  0
   26.8466  -16.8455  -16.5142 N   0  0  0  0  0  0  0  0  0  0  0  0
   26.6941  -19.1366  -15.9647 C   0  0  0  0  0  0  0  0  0  0  0  0
   26.4649  -20.3696  -16.2683 O   0  0  0  0  0  0  0  0  0  0  0  0
   26.4819  -18.8611  -14.5945 N   0  0  0  0  0  0  0  0  0  0  0  0
   25.9862  -19.7433  -13.5862 C   0  0  1  0  0  0  0  0  0  0  0  0
   26.7003  -19.4732  -12.2901 C   0  0  0  0  0  0  0  0  0  0  0  0
   26.3699  -20.3874  -11.1972 C   0  0  0  0  0  0  0  0  0  0  0  0
   26.0392  -21.7130  -11.3128 C   0  0  0  0  0  0  0  0  0  0  0  0
   25.8218  -22.1970  -10.0675 N   0  0  0  0  0  0  0  0  0  0  0  0
   26.0054  -21.2132   -9.1547 C   0  0  0  0  0  0  0  0  0  0  0  0
   25.9226  -21.1407   -7.7857 C   0  0  0  0  0  0  0  0  0  0  0  0
   26.1738  -19.9571   -7.0810 C   0  0  0  0  0  0  0  0  0  0  0  0
   26.5159  -18.8260   -7.7751 C   0  0  0  0  0  0  0  0  0  0  0  0
   26.5986  -18.8996   -9.1437 C   0  0  0  0  0  0  0  0  0  0  0  0
   26.3554  -20.0526   -9.8600 C   0  0  0  0  0  0  0  0  0  0  0  0
   24.5225  -19.5821  -13.3072 C   0  0  0  0  0  0  0  0  0  0  0  0
   24.0985  -18.3892  -13.1691 O   0  0  0  0  0  0  0  0  0  0  0  0
   21.4582  -22.4110  -14.2766 C   0  0  0  0  0  0  0  0  0  0  0  0
   21.3375  -20.9209  -14.0617 C   0  0  2  0  0  0  0  0  0  0  0  0
   21.6315  -20.1736  -15.3460 C   0  0  0  0  0  0  0  0  0  0  0  0
   22.2144  -20.4383  -12.9557 C   0  0  2  0  0  0  0  0  0  0  0  0
   23.6106  -20.6367  -13.1901 N   0  0  0  0  0  0  0  0  0  0  0  0
   21.7544  -21.0772  -11.6840 C   0  0  0  0  0  0  0  0  0  0  0  0
   22.4754  -21.9392  -11.1034 O   0  0  0  0  0  0  0  0  0  0  0  0
   20.5312  -20.7266  -11.1326 O   0  0  0  0  0  0  0  0  0  0  0  0
  2  1  1  1
  2  4  1  0
  3  2  1  0
  4  5  1  1
  6  4  1  0
  6  7  2  0
  8  6  1  0
  9  8  1  0
  9 10  1  1
 11 10  1  0
 11 19  1  0
 12 13  1  0
 12 11  2  0
 13 14  1  0
 14 15  1  0
 14 19  2  0
 15 16  2  0
 16 17  1  0
 18 17  2  0
 19 18  1  0
 20  9  1  0
 21 20  2  0
 23 22  1  6
 23 25  1  0
 24 23  1  0
 25 27  1  0
 25 26  1  6
 26 20  1  0
 27 29  1  0
 28 27  2  0
M  END
$$$$
