VWV.pdb
     RDKit          3D

 29 30  0  0  1  0  0  0  0  0999 V2000
   29.4984  -20.0672  -16.0156 C   0  0  0  0  0  0  0  0  0  0  0  0
   28.7510  -20.7758  -14.9337 C   0  0  1  0  0  0  0  0  0  0  0  0
   29.7150  -20.8042  -13.7221 C   0  0  0  0  0  0  0  0  0  0  0  0
   27.5132  -20.1131  -14.4371 C   0  0  2  0  0  0  0  0  0  0  0  0
   27.8906  -18.6978  -14.2164 N   0  0  0  0  0  0  0  0  0  0  0  0
   26.9529  -20.6011  -13.1809 C   0  0  0  0  0  0  0  0  0  0  0  0
   26.2969  -21.7123  -13.1730 O   0  0  0  0  0  0  0  0  0  0  0  0
   27.0306  -20.0016  -11.9031 N   0  0  0  0  0  0  0  0  0  0  0  0
   26.3775  -20.4081  -10.6993 C   0  0  1  0  0  0  0  0  0  0  0  0
   26.9409  -19.6345   -9.5388 C   0  0  0  0  0  0  0  0  0  0  0  0
   26.5426  -20.1196   -8.2176 C   0  0  0  0  0  0  0  0  0  0  0  0
   25.4384  -20.8777   -7.9245 C   0  0  0  0  0  0  0  0  0  0  0  0
   25.4449  -21.1237   -6.5934 N   0  0  0  0  0  0  0  0  0  0  0  0
   26.5277  -20.5415   -6.0248 C   0  0  0  0  0  0  0  0  0  0  0  0
   27.0227  -20.4684   -4.7457 C   0  0  0  0  0  0  0  0  0  0  0  0
   28.2007  -19.7780   -4.4360 C   0  0  0  0  0  0  0  0  0  0  0  0
   28.8910  -19.1503   -5.4398 C   0  0  0  0  0  0  0  0  0  0  0  0
   28.3954  -19.2241   -6.7183 C   0  0  0  0  0  0  0  0  0  0  0  0
   27.2378  -19.8970   -7.0482 C   0  0  0  0  0  0  0  0  0  0  0  0
   24.8995  -20.1598  -10.6990 C   0  0  0  0  0  0  0  0  0  0  0  0
   24.5278  -18.9434  -10.7633 O   0  0  0  0  0  0  0  0  0  0  0  0
   23.0313  -21.7876  -13.3870 C   0  0  0  0  0  0  0  0  0  0  0  0
   22.1553  -21.9002  -12.1617 C   0  0  2  0  0  0  0  0  0  0  0  0
   20.7017  -21.6801  -12.5261 C   0  0  0  0  0  0  0  0  0  0  0  0
   22.5775  -20.9644  -11.0794 C   0  0  2  0  0  0  0  0  0  0  0  0
   23.9216  -21.1582  -10.6329 N   0  0  0  0  0  0  0  0  0  0  0  0
   21.5868  -21.0657   -9.9634 C   0  0  0  0  0  0  0  0  0  0  0  0
   21.8290  -21.7918   -8.9565 O   0  0  0  0  0  0  0  0  0  0  0  0
   20.3938  -20.3614  -10.0268 O   0  0  0  0  0  0  0  0  0  0  0  0
  2  1  1  6
  2  4  1  0
  3  2  1  0
  4  5  1  1
  6  4  1  0
  6  7  2  0
  8  6  1  0
  9  8  1  0
  9 10  1  1
 11 10  1  0
 11 19  1  0
 12 13  1  0
 12 11  2  0
 13 14  1  0
 14 15  1  0
 14 19  2  0
 15 16  2  0
 16 17  1  0
 18 17  2  0
 19 18  1  0
 20  9  1  0
 21 20  2  0
 23 22  1  6
 23 25  1  0
 24 23  1  0
 25 27  1  0
 25 26  1  1
 26 20  1  0
 27 29  1  0
 28 27  2  0
M  END
$$$$
