MDL.pdb
     RDKit          3D

 25 24  0  0  1  0  0  0  0  0999 V2000
    8.3227  -11.7292   20.2282 C   0  0  0  0  0  0  0  0  0  0  0  0
    7.7548  -12.9554   19.0588 S   0  0  0  0  0  0  0  0  0  0  0  0
    6.6516  -14.1987   19.6652 C   0  0  0  0  0  0  0  0  0  0  0  0
    7.0225  -14.9398   20.8926 C   0  0  0  0  0  0  0  0  0  0  0  0
    7.6787  -16.2719   20.7532 C   0  0  2  0  0  0  0  0  0  0  0  0
    6.7629  -17.2388   20.2527 N   0  0  0  0  0  0  0  0  0  0  0  0
    8.4452  -16.6928   21.9419 C   0  0  0  0  0  0  0  0  0  0  0  0
    7.8418  -17.2910   22.9031 O   0  0  0  0  0  0  0  0  0  0  0  0
    9.8246  -16.5079   22.1643 N   0  0  0  0  0  0  0  0  0  0  0  0
   10.5389  -16.9574   23.3056 C   0  0  1  0  0  0  0  0  0  0  0  0
   11.9780  -17.3119   23.1142 C   0  0  0  0  0  0  0  0  0  0  0  0
   12.5003  -18.0467   24.2814 C   0  0  0  0  0  0  0  0  0  0  0  0
   11.8136  -18.7506   25.0559 O   0  0  0  0  0  0  0  0  0  0  0  0
   10.2931  -16.0492   24.4318 C   0  0  0  0  0  0  0  0  0  0  0  0
   11.0777  -15.0928   24.6474 O   0  0  0  0  0  0  0  0  0  0  0  0
   13.8557  -17.9679   24.5652 O   0  0  0  0  0  0  0  0  0  0  0  0
    6.4313  -12.6231   26.5358 C   0  0  0  0  0  0  0  0  0  0  0  0
    7.7616  -13.2806   26.9124 C   0  0  2  0  0  0  0  0  0  0  0  0
    8.8344  -12.5393   26.1649 C   0  0  0  0  0  0  0  0  0  0  0  0
    7.7382  -14.7417   26.6381 C   0  0  0  0  0  0  0  0  0  0  0  0
    9.0725  -15.4083   26.5537 C   0  0  2  0  0  0  0  0  0  0  0  0
    9.1905  -16.1743   25.3339 N   0  0  0  0  0  0  0  0  0  0  0  0
    9.4656  -16.1648   27.7596 C   0  0  0  0  0  0  0  0  0  0  0  0
    9.6060  -15.6225   28.8813 O   0  0  0  0  0  0  0  0  0  0  0  0
    9.7096  -17.5463   27.7272 O   0  0  0  0  0  0  0  0  0  0  0  0
  2  1  1  0
  2  3  1  0
  4  3  1  0
  4  5  1  0
  5  7  1  0
  5  6  1  1
  7  8  2  0
  9 10  1  0
  9  7  1  0
 10 11  1  6
 12 11  1  0
 13 12  2  0
 14 15  2  0
 14 10  1  0
 16 12  1  0
 18 17  1  6
 18 19  1  0
 20 18  1  0
 21 22  1  0
 21 20  1  1
 22 14  1  0
 23 21  1  0
 24 23  2  0
 25 23  1  0
M  END
$$$$
