MDL.pdb
     RDKit          3D

 25 24  0  0  1  0  0  0  0  0999 V2000
    6.9830  -12.0972   19.8521 C   0  0  0  0  0  0  0  0  0  0  0  0
    7.3774  -13.2516   21.1581 S   0  0  0  0  0  0  0  0  0  0  0  0
    7.2457  -14.9748   20.7788 C   0  0  0  0  0  0  0  0  0  0  0  0
    7.4863  -15.9600   21.8581 C   0  0  0  0  0  0  0  0  0  0  0  0
    8.3347  -15.5582   23.0172 C   0  0  2  0  0  0  0  0  0  0  0  0
    8.8628  -14.2504   22.8303 N   0  0  0  0  0  0  0  0  0  0  0  0
    9.3201  -16.5784   23.4243 C   0  0  0  0  0  0  0  0  0  0  0  0
    8.9223  -17.7673   23.6971 O   0  0  0  0  0  0  0  0  0  0  0  0
   10.7115  -16.3996   23.5597 N   0  0  0  0  0  0  0  0  0  0  0  0
   11.6248  -17.3863   24.0146 C   0  0  1  0  0  0  0  0  0  0  0  0
   12.9944  -17.3763   23.4165 C   0  0  0  0  0  0  0  0  0  0  0  0
   12.9288  -17.4677   21.9461 C   0  0  0  0  0  0  0  0  0  0  0  0
   13.5634  -16.7394   21.1499 O   0  0  0  0  0  0  0  0  0  0  0  0
   11.6151  -17.4300   25.4815 C   0  0  0  0  0  0  0  0  0  0  0  0
   12.3760  -18.2229   26.0892 O   0  0  0  0  0  0  0  0  0  0  0  0
   12.1066  -18.4279   21.3751 O   0  0  0  0  0  0  0  0  0  0  0  0
    9.3062  -13.2305   28.6039 C   0  0  0  0  0  0  0  0  0  0  0  0
   10.0712  -14.2724   27.7834 C   0  0  2  0  0  0  0  0  0  0  0  0
    9.6252  -14.1085   26.3574 C   0  0  0  0  0  0  0  0  0  0  0  0
    9.8653  -15.6421   28.3237 C   0  0  0  0  0  0  0  0  0  0  0  0
   10.7356  -16.7077   27.7416 C   0  0  2  0  0  0  0  0  0  0  0  0
   10.7763  -16.6107   26.3002 N   0  0  0  0  0  0  0  0  0  0  0  0
   10.4540  -18.0734   28.2280 C   0  0  0  0  0  0  0  0  0  0  0  0
    9.7565  -18.8904   27.5813 O   0  0  0  0  0  0  0  0  0  0  0  0
   10.9505  -18.5466   29.4521 O   0  0  0  0  0  0  0  0  0  0  0  0
  2  1  1  0
  2  3  1  0
  4  3  1  0
  4  5  1  0
  5  7  1  0
  5  6  1  6
  7  8  2  0
  9 10  1  0
  9  7  1  0
 10 11  1  1
 12 11  1  0
 13 12  2  0
 14 15  2  0
 14 10  1  0
 16 12  1  0
 18 17  1  1
 18 19  1  0
 20 18  1  0
 21 22  1  0
 21 20  1  6
 22 14  1  0
 23 21  1  0
 24 23  2  0
 25 23  1  0
M  END
$$$$
