MDL.pdb
     RDKit          3D

 25 24  0  0  1  0  0  0  0  0999 V2000
    8.1326  -11.4869   20.5773 C   0  0  0  0  0  0  0  0  0  0  0  0
    7.7174  -12.6693   19.3031 S   0  0  0  0  0  0  0  0  0  0  0  0
    6.8402  -14.1216   19.8050 C   0  0  0  0  0  0  0  0  0  0  0  0
    7.2385  -14.7925   21.0637 C   0  0  0  0  0  0  0  0  0  0  0  0
    7.6046  -16.2377   21.0193 C   0  0  2  0  0  0  0  0  0  0  0  0
    6.4569  -17.0448   20.7835 N   0  0  0  0  0  0  0  0  0  0  0  0
    8.4589  -16.6771   22.1395 C   0  0  0  0  0  0  0  0  0  0  0  0
    7.9157  -17.1682   23.1930 O   0  0  0  0  0  0  0  0  0  0  0  0
    9.8657  -16.6191   22.1997 N   0  0  0  0  0  0  0  0  0  0  0  0
   10.6578  -17.0411   23.2994 C   0  0  1  0  0  0  0  0  0  0  0  0
   12.0315  -17.5460   22.9973 C   0  0  0  0  0  0  0  0  0  0  0  0
   12.6867  -18.0552   24.2165 C   0  0  0  0  0  0  0  0  0  0  0  0
   13.8734  -17.8293   24.5448 O   0  0  0  0  0  0  0  0  0  0  0  0
   10.6151  -16.0254   24.3578 C   0  0  0  0  0  0  0  0  0  0  0  0
   11.4069  -15.0514   24.3229 O   0  0  0  0  0  0  0  0  0  0  0  0
   11.9520  -18.8494   25.0845 O   0  0  0  0  0  0  0  0  0  0  0  0
    7.2869  -13.6174   24.7539 C   0  0  0  0  0  0  0  0  0  0  0  0
    7.6460  -14.0430   26.1800 C   0  0  2  0  0  0  0  0  0  0  0  0
    6.8032  -13.2082   27.1029 C   0  0  0  0  0  0  0  0  0  0  0  0
    9.1072  -13.9229   26.4273 C   0  0  0  0  0  0  0  0  0  0  0  0
    9.8406  -15.2094   26.6244 C   0  0  2  0  0  0  0  0  0  0  0  0
    9.7098  -16.0612   25.4643 N   0  0  0  0  0  0  0  0  0  0  0  0
    9.5470  -15.9028   27.8949 C   0  0  0  0  0  0  0  0  0  0  0  0
    9.6446  -15.3387   29.0105 O   0  0  0  0  0  0  0  0  0  0  0  0
    9.1390  -17.2447   27.9356 O   0  0  0  0  0  0  0  0  0  0  0  0
  2  1  1  0
  2  3  1  0
  4  3  1  0
  4  5  1  0
  5  7  1  0
  5  6  1  1
  7  8  2  0
  9 10  1  0
  9  7  1  0
 10 11  1  6
 12 11  1  0
 13 12  2  0
 14 15  2  0
 14 10  1  0
 16 12  1  0
 18 17  1  6
 18 19  1  0
 20 18  1  0
 21 22  1  0
 21 20  1  6
 22 14  1  0
 23 21  1  0
 24 23  2  0
 25 23  1  0
M  END
$$$$
