MDL.pdb
     RDKit          3D

 25 24  0  0  1  0  0  0  0  0999 V2000
    9.0065  -11.5028   20.3147 C   0  0  0  0  0  0  0  0  0  0  0  0
    7.7263  -12.0414   19.1900 S   0  0  0  0  0  0  0  0  0  0  0  0
    7.1080  -13.6860   19.3991 C   0  0  0  0  0  0  0  0  0  0  0  0
    7.4423  -14.4176   20.6425 C   0  0  0  0  0  0  0  0  0  0  0  0
    7.9137  -15.8287   20.5374 C   0  0  2  0  0  0  0  0  0  0  0  0
    6.9676  -16.6290   19.8384 N   0  0  0  0  0  0  0  0  0  0  0  0
    8.3961  -16.3987   21.8102 C   0  0  0  0  0  0  0  0  0  0  0  0
    7.5504  -16.8725   22.6507 O   0  0  0  0  0  0  0  0  0  0  0  0
    9.7355  -16.4893   22.2392 N   0  0  0  0  0  0  0  0  0  0  0  0
   10.1640  -17.0210   23.4837 C   0  0  1  0  0  0  0  0  0  0  0  0
   11.4368  -17.8041   23.4894 C   0  0  0  0  0  0  0  0  0  0  0  0
   11.2116  -19.1810   23.0116 C   0  0  0  0  0  0  0  0  0  0  0  0
   10.3085  -19.9463   23.4188 O   0  0  0  0  0  0  0  0  0  0  0  0
   10.1006  -15.9785   24.5146 C   0  0  0  0  0  0  0  0  0  0  0  0
   11.0224  -15.1306   24.6049 O   0  0  0  0  0  0  0  0  0  0  0  0
   12.0529  -19.6922   22.0345 O   0  0  0  0  0  0  0  0  0  0  0  0
    8.8426  -12.0088   25.8781 C   0  0  0  0  0  0  0  0  0  0  0  0
    7.7257  -13.0409   25.7019 C   0  0  2  0  0  0  0  0  0  0  0  0
    6.4275  -12.2877   25.7837 C   0  0  0  0  0  0  0  0  0  0  0  0
    7.8457  -14.1408   26.6951 C   0  0  0  0  0  0  0  0  0  0  0  0
    9.0859  -14.9685   26.6011 C   0  0  2  0  0  0  0  0  0  0  0  0
    9.0327  -15.8500   25.4571 N   0  0  0  0  0  0  0  0  0  0  0  0
    9.4699  -15.6551   27.8509 C   0  0  0  0  0  0  0  0  0  0  0  0
    9.7014  -15.0376   28.9173 O   0  0  0  0  0  0  0  0  0  0  0  0
    9.6022  -17.0501   27.9256 O   0  0  0  0  0  0  0  0  0  0  0  0
  2  1  1  0
  2  3  1  0
  4  3  1  0
  4  5  1  0
  5  7  1  0
  5  6  1  1
  7  8  2  0
  9 10  1  0
  9  7  1  0
 10 11  1  6
 12 11  1  0
 13 12  2  0
 14 15  2  0
 14 10  1  0
 16 12  1  0
 18 17  1  1
 18 19  1  0
 20 18  1  0
 21 22  1  0
 21 20  1  1
 22 14  1  0
 23 21  1  0
 24 23  2  0
 25 23  1  0
M  END
$$$$
