MDL.pdb
     RDKit          3D

 25 24  0  0  1  0  0  0  0  0999 V2000
    7.8514  -11.4194   18.7553 C   0  0  0  0  0  0  0  0  0  0  0  0
    8.1109  -12.9160   19.6969 S   0  0  0  0  0  0  0  0  0  0  0  0
    6.6982  -13.6229   20.4940 C   0  0  0  0  0  0  0  0  0  0  0  0
    6.8997  -14.7665   21.4132 C   0  0  0  0  0  0  0  0  0  0  0  0
    7.8408  -15.8511   21.0101 C   0  0  2  0  0  0  0  0  0  0  0  0
    7.2039  -16.7773   20.1380 N   0  0  0  0  0  0  0  0  0  0  0  0
    8.5784  -16.4572   22.1354 C   0  0  0  0  0  0  0  0  0  0  0  0
    7.9319  -17.0797   23.0522 O   0  0  0  0  0  0  0  0  0  0  0  0
    9.9727  -16.4337   22.3393 N   0  0  0  0  0  0  0  0  0  0  0  0
   10.6386  -16.8881   23.5076 C   0  0  1  0  0  0  0  0  0  0  0  0
   12.0665  -17.3042   23.3613 C   0  0  0  0  0  0  0  0  0  0  0  0
   12.2273  -18.2562   22.2466 C   0  0  0  0  0  0  0  0  0  0  0  0
   12.9799  -18.0902   21.2601 O   0  0  0  0  0  0  0  0  0  0  0  0
   10.4014  -15.9478   24.6090 C   0  0  0  0  0  0  0  0  0  0  0  0
   11.1558  -14.9551   24.7580 O   0  0  0  0  0  0  0  0  0  0  0  0
   11.4984  -19.4361   22.2688 O   0  0  0  0  0  0  0  0  0  0  0  0
    6.2097  -12.9230   26.9647 C   0  0  0  0  0  0  0  0  0  0  0  0
    7.6554  -13.3414   26.6842 C   0  0  2  0  0  0  0  0  0  0  0  0
    7.9441  -12.9617   25.2589 C   0  0  0  0  0  0  0  0  0  0  0  0
    7.8659  -14.7840   26.9761 C   0  0  0  0  0  0  0  0  0  0  0  0
    9.2549  -15.2930   26.7678 C   0  0  2  0  0  0  0  0  0  0  0  0
    9.3403  -16.0801   25.5587 N   0  0  0  0  0  0  0  0  0  0  0  0
    9.8548  -15.9582   27.9420 C   0  0  0  0  0  0  0  0  0  0  0  0
   10.1025  -15.3495   29.0099 O   0  0  0  0  0  0  0  0  0  0  0  0
   10.1887  -17.3211   27.9378 O   0  0  0  0  0  0  0  0  0  0  0  0
  2  1  1  0
  2  3  1  0
  4  3  1  0
  4  5  1  0
  5  7  1  0
  5  6  1  1
  7  8  2  0
  9 10  1  0
  9  7  1  0
 10 11  1  6
 12 11  1  0
 13 12  2  0
 14 15  2  0
 14 10  1  0
 16 12  1  0
 18 17  1  6
 18 19  1  0
 20 18  1  0
 21 22  1  0
 21 20  1  1
 22 14  1  0
 23 21  1  0
 24 23  2  0
 25 23  1  0
M  END
$$$$
