MDL.pdb
     RDKit          3D

 25 24  0  0  1  0  0  0  0  0999 V2000
    7.7028  -12.4271   18.0340 C   0  0  0  0  0  0  0  0  0  0  0  0
    8.0170  -12.2765   19.7868 S   0  0  0  0  0  0  0  0  0  0  0  0
    7.9141  -13.7540   20.7549 C   0  0  0  0  0  0  0  0  0  0  0  0
    7.2025  -14.9241   20.1914 C   0  0  0  0  0  0  0  0  0  0  0  0
    7.1677  -16.1887   20.9815 C   0  0  2  0  0  0  0  0  0  0  0  0
    6.1796  -16.1218   22.0029 N   0  0  0  0  0  0  0  0  0  0  0  0
    8.4946  -16.6585   21.4247 C   0  0  0  0  0  0  0  0  0  0  0  0
    9.3130  -17.1429   20.5635 O   0  0  0  0  0  0  0  0  0  0  0  0
    8.9979  -16.6426   22.7409 N   0  0  0  0  0  0  0  0  0  0  0  0
   10.3589  -16.8245   23.1009 C   0  0  1  0  0  0  0  0  0  0  0  0
   11.3911  -16.3302   22.1398 C   0  0  0  0  0  0  0  0  0  0  0  0
   12.7514  -16.5773   22.6530 C   0  0  0  0  0  0  0  0  0  0  0  0
   13.8100  -16.2131   22.0929 O   0  0  0  0  0  0  0  0  0  0  0  0
   10.5685  -16.3777   24.4830 C   0  0  0  0  0  0  0  0  0  0  0  0
   10.9202  -17.2035   25.3612 O   0  0  0  0  0  0  0  0  0  0  0  0
   12.8968  -17.2655   23.8485 O   0  0  0  0  0  0  0  0  0  0  0  0
    5.9561  -13.2621   25.9590 C   0  0  0  0  0  0  0  0  0  0  0  0
    7.3390  -13.5268   26.5603 C   0  0  2  0  0  0  0  0  0  0  0  0
    7.7430  -12.2700   27.2789 C   0  0  0  0  0  0  0  0  0  0  0  0
    8.3066  -13.9605   25.5181 C   0  0  0  0  0  0  0  0  0  0  0  0
    9.5325  -14.6530   26.0176 C   0  0  2  0  0  0  0  0  0  0  0  0
   10.3967  -15.0274   24.9215 N   0  0  0  0  0  0  0  0  0  0  0  0
    9.2789  -15.7567   26.9656 C   0  0  0  0  0  0  0  0  0  0  0  0
    8.5359  -16.7280   26.6885 O   0  0  0  0  0  0  0  0  0  0  0  0
    9.8554  -15.7891   28.2445 O   0  0  0  0  0  0  0  0  0  0  0  0
  2  1  1  0
  2  3  1  0
  4  3  1  0
  4  5  1  0
  5  7  1  0
  5  6  1  1
  7  8  2  0
  9 10  1  0
  9  7  1  0
 10 11  1  6
 12 11  1  0
 13 12  2  0
 14 15  2  0
 14 10  1  0
 16 12  1  0
 18 17  1  6
 18 19  1  0
 20 18  1  0
 21 22  1  0
 21 20  1  6
 22 14  1  0
 23 21  1  0
 24 23  2  0
 25 23  1  0
M  END
$$$$
