MDL.pdb
     RDKit          3D

 25 24  0  0  1  0  0  0  0  0999 V2000
    7.9372  -11.8177   20.5007 C   0  0  0  0  0  0  0  0  0  0  0  0
    7.8785  -13.5902   20.7207 S   0  0  0  0  0  0  0  0  0  0  0  0
    6.2832  -14.3237   20.9390 C   0  0  0  0  0  0  0  0  0  0  0  0
    6.1994  -15.7822   21.1820 C   0  0  0  0  0  0  0  0  0  0  0  0
    7.3649  -16.6369   20.8137 C   0  0  2  0  0  0  0  0  0  0  0  0
    6.9326  -17.8619   20.2336 N   0  0  0  0  0  0  0  0  0  0  0  0
    8.3735  -16.7725   21.8824 C   0  0  0  0  0  0  0  0  0  0  0  0
    8.0596  -17.3664   22.9754 O   0  0  0  0  0  0  0  0  0  0  0  0
    9.7029  -16.3056   21.8508 N   0  0  0  0  0  0  0  0  0  0  0  0
   10.6292  -16.3946   22.9227 C   0  0  1  0  0  0  0  0  0  0  0  0
   12.0738  -16.1971   22.5947 C   0  0  0  0  0  0  0  0  0  0  0  0
   12.9195  -16.4162   23.7828 C   0  0  0  0  0  0  0  0  0  0  0  0
   13.9669  -15.7842   24.0482 O   0  0  0  0  0  0  0  0  0  0  0  0
   10.1579  -15.5841   24.0517 C   0  0  0  0  0  0  0  0  0  0  0  0
    9.9223  -14.3614   23.8893 O   0  0  0  0  0  0  0  0  0  0  0  0
   12.5472  -17.3940   24.6935 O   0  0  0  0  0  0  0  0  0  0  0  0
    9.0302  -12.7192   27.2432 C   0  0  0  0  0  0  0  0  0  0  0  0
    8.0254  -13.1896   26.1883 C   0  0  2  0  0  0  0  0  0  0  0  0
    6.6761  -12.6957   26.6294 C   0  0  0  0  0  0  0  0  0  0  0  0
    8.0932  -14.6625   25.9973 C   0  0  0  0  0  0  0  0  0  0  0  0
    9.3615  -15.3171   26.4387 C   0  0  2  0  0  0  0  0  0  0  0  0
    9.9390  -16.0977   25.3683 N   0  0  0  0  0  0  0  0  0  0  0  0
    9.2679  -16.0540   27.7151 C   0  0  0  0  0  0  0  0  0  0  0  0
    9.5507  -15.5313   28.8192 O   0  0  0  0  0  0  0  0  0  0  0  0
    8.8555  -17.3939   27.7746 O   0  0  0  0  0  0  0  0  0  0  0  0
  2  1  1  0
  2  3  1  0
  4  3  1  0
  4  5  1  0
  5  7  1  0
  5  6  1  1
  7  8  2  0
  9 10  1  0
  9  7  1  0
 10 11  1  6
 12 11  1  0
 13 12  2  0
 14 15  2  0
 14 10  1  0
 16 12  1  0
 18 17  1  1
 18 19  1  0
 20 18  1  0
 21 22  1  0
 21 20  1  6
 22 14  1  0
 23 21  1  0
 24 23  2  0
 25 23  1  0
M  END
$$$$
