MDL.pdb
     RDKit          3D

 25 24  0  0  1  0  0  0  0  0999 V2000
    8.3215  -11.7291   20.0866 C   0  0  0  0  0  0  0  0  0  0  0  0
    7.8451  -13.4432   19.9171 S   0  0  0  0  0  0  0  0  0  0  0  0
    6.7825  -14.1124   21.1636 C   0  0  0  0  0  0  0  0  0  0  0  0
    6.2973  -15.5033   21.0113 C   0  0  0  0  0  0  0  0  0  0  0  0
    7.2968  -16.5908   20.8040 C   0  0  2  0  0  0  0  0  0  0  0  0
    6.6674  -17.7740   20.3262 N   0  0  0  0  0  0  0  0  0  0  0  0
    8.2173  -16.7873   21.9405 C   0  0  0  0  0  0  0  0  0  0  0  0
    7.7674  -17.2679   23.0418 O   0  0  0  0  0  0  0  0  0  0  0  0
    9.5959  -16.4960   21.9687 N   0  0  0  0  0  0  0  0  0  0  0  0
   10.4830  -16.8281   23.0258 C   0  0  1  0  0  0  0  0  0  0  0  0
   11.9319  -16.9609   22.6848 C   0  0  0  0  0  0  0  0  0  0  0  0
   12.6936  -17.5102   23.8219 C   0  0  0  0  0  0  0  0  0  0  0  0
   13.2722  -16.8287   24.6981 O   0  0  0  0  0  0  0  0  0  0  0  0
   10.2193  -15.9638   24.1822 C   0  0  0  0  0  0  0  0  0  0  0  0
   10.2379  -14.7155   24.0478 O   0  0  0  0  0  0  0  0  0  0  0  0
   12.7920  -18.8875   23.9535 O   0  0  0  0  0  0  0  0  0  0  0  0
    6.7031  -13.3341   27.4741 C   0  0  0  0  0  0  0  0  0  0  0  0
    8.1056  -13.9268   27.6344 C   0  0  2  0  0  0  0  0  0  0  0  0
    9.0486  -12.7657   27.7816 C   0  0  0  0  0  0  0  0  0  0  0  0
    8.4406  -14.8335   26.5047 C   0  0  0  0  0  0  0  0  0  0  0  0
    9.7243  -15.5866   26.6349 C   0  0  2  0  0  0  0  0  0  0  0  0
    9.9332  -16.4512   25.4959 N   0  0  0  0  0  0  0  0  0  0  0  0
    9.9142  -16.2699   27.9303 C   0  0  0  0  0  0  0  0  0  0  0  0
   10.0052  -15.6479   29.0152 O   0  0  0  0  0  0  0  0  0  0  0  0
   10.0066  -17.6665   28.0307 O   0  0  0  0  0  0  0  0  0  0  0  0
  2  1  1  0
  2  3  1  0
  4  3  1  0
  4  5  1  0
  5  7  1  0
  5  6  1  1
  7  8  2  0
  9 10  1  0
  9  7  1  0
 10 11  1  6
 12 11  1  0
 13 12  2  0
 14 15  2  0
 14 10  1  0
 16 12  1  0
 18 17  1  6
 18 19  1  0
 20 18  1  0
 21 22  1  0
 21 20  1  1
 22 14  1  0
 23 21  1  0
 24 23  2  0
 25 23  1  0
M  END
$$$$
