MDL.pdb
     RDKit          3D

 25 24  0  0  1  0  0  0  0  0999 V2000
    7.8675  -11.3027   21.0298 C   0  0  0  0  0  0  0  0  0  0  0  0
    6.9205  -12.2613   19.8559 S   0  0  0  0  0  0  0  0  0  0  0  0
    7.0818  -14.0216   19.9349 C   0  0  0  0  0  0  0  0  0  0  0  0
    7.8219  -14.6166   21.0713 C   0  0  0  0  0  0  0  0  0  0  0  0
    7.8954  -16.1025   21.1776 C   0  0  2  0  0  0  0  0  0  0  0  0
    6.6023  -16.6842   21.0597 N   0  0  0  0  0  0  0  0  0  0  0  0
    8.6968  -16.5856   22.3187 C   0  0  0  0  0  0  0  0  0  0  0  0
    8.1136  -17.1867   23.2906 O   0  0  0  0  0  0  0  0  0  0  0  0
   10.0910  -16.4602   22.4826 N   0  0  0  0  0  0  0  0  0  0  0  0
   10.8291  -16.9164   23.6060 C   0  0  1  0  0  0  0  0  0  0  0  0
   12.2822  -17.1980   23.3994 C   0  0  0  0  0  0  0  0  0  0  0  0
   12.5063  -17.9092   22.1271 C   0  0  0  0  0  0  0  0  0  0  0  0
   11.9600  -18.9863   21.7978 O   0  0  0  0  0  0  0  0  0  0  0  0
   10.5463  -16.0603   24.7639 C   0  0  0  0  0  0  0  0  0  0  0  0
   11.4411  -15.3048   25.2171 O   0  0  0  0  0  0  0  0  0  0  0  0
   13.3874  -17.3629   21.2056 O   0  0  0  0  0  0  0  0  0  0  0  0
    8.6813  -12.3909   26.2402 C   0  0  0  0  0  0  0  0  0  0  0  0
    7.6607  -13.4690   25.8658 C   0  0  2  0  0  0  0  0  0  0  0  0
    6.3088  -12.8131   25.9045 C   0  0  0  0  0  0  0  0  0  0  0  0
    7.7785  -14.6554   26.7541 C   0  0  0  0  0  0  0  0  0  0  0  0
    9.0906  -15.3687   26.7147 C   0  0  2  0  0  0  0  0  0  0  0  0
    9.2864  -16.0192   25.4391 N   0  0  0  0  0  0  0  0  0  0  0  0
    9.3509  -16.2533   27.8683 C   0  0  0  0  0  0  0  0  0  0  0  0
    9.3054  -17.5036   27.7846 O   0  0  0  0  0  0  0  0  0  0  0  0
    9.6664  -15.7489   29.1391 O   0  0  0  0  0  0  0  0  0  0  0  0
  2  1  1  0
  2  3  1  0
  4  3  1  0
  4  5  1  0
  5  7  1  0
  5  6  1  1
  7  8  2  0
  9 10  1  0
  9  7  1  0
 10 11  1  6
 12 11  1  0
 13 12  2  0
 14 15  2  0
 14 10  1  0
 16 12  1  0
 18 17  1  1
 18 19  1  0
 20 18  1  0
 21 22  1  0
 21 20  1  6
 22 14  1  0
 23 21  1  0
 24 23  2  0
 25 23  1  0
M  END
$$$$
