MDL.pdb
     RDKit          3D

 25 24  0  0  1  0  0  0  0  0999 V2000
    8.4728  -11.6140   21.1004 C   0  0  0  0  0  0  0  0  0  0  0  0
    7.9613  -13.2706   20.6670 S   0  0  0  0  0  0  0  0  0  0  0  0
    6.7743  -14.0506   21.7221 C   0  0  0  0  0  0  0  0  0  0  0  0
    6.3343  -15.4275   21.4002 C   0  0  0  0  0  0  0  0  0  0  0  0
    7.3677  -16.4465   21.0560 C   0  0  2  0  0  0  0  0  0  0  0  0
    6.7811  -17.5597   20.3919 N   0  0  0  0  0  0  0  0  0  0  0  0
    8.2710  -16.7886   22.1717 C   0  0  0  0  0  0  0  0  0  0  0  0
    7.8385  -17.5201   23.1329 O   0  0  0  0  0  0  0  0  0  0  0  0
    9.6145  -16.3900   22.3209 N   0  0  0  0  0  0  0  0  0  0  0  0
   10.4647  -16.7583   23.3963 C   0  0  1  0  0  0  0  0  0  0  0  0
   11.9041  -17.0010   23.0762 C   0  0  0  0  0  0  0  0  0  0  0  0
   12.3382  -18.3225   23.5659 C   0  0  0  0  0  0  0  0  0  0  0  0
   11.6252  -19.1198   24.2163 O   0  0  0  0  0  0  0  0  0  0  0  0
   10.2507  -15.8500   24.5289 C   0  0  0  0  0  0  0  0  0  0  0  0
   11.1033  -14.9668   24.7928 O   0  0  0  0  0  0  0  0  0  0  0  0
   13.6340  -18.7386   23.2983 O   0  0  0  0  0  0  0  0  0  0  0  0
    8.3136  -12.2067   25.9821 C   0  0  0  0  0  0  0  0  0  0  0  0
    7.4162  -13.4277   25.7637 C   0  0  2  0  0  0  0  0  0  0  0  0
    5.9984  -12.9292   25.7890 C   0  0  0  0  0  0  0  0  0  0  0  0
    7.6974  -14.4902   26.7649 C   0  0  0  0  0  0  0  0  0  0  0  0
    9.0198  -15.1729   26.6336 C   0  0  2  0  0  0  0  0  0  0  0  0
    9.1059  -15.8954   25.3849 N   0  0  0  0  0  0  0  0  0  0  0  0
    9.4210  -15.9788   27.8043 C   0  0  0  0  0  0  0  0  0  0  0  0
    9.5629  -15.4847   28.9480 O   0  0  0  0  0  0  0  0  0  0  0  0
    9.6717  -17.3563   27.7114 O   0  0  0  0  0  0  0  0  0  0  0  0
  2  1  1  0
  2  3  1  0
  4  3  1  0
  4  5  1  0
  5  7  1  0
  5  6  1  1
  7  8  2  0
  9 10  1  0
  9  7  1  0
 10 11  1  6
 12 11  1  0
 13 12  2  0
 14 15  2  0
 14 10  1  0
 16 12  1  0
 18 17  1  1
 18 19  1  0
 20 18  1  0
 21 22  1  0
 21 20  1  1
 22 14  1  0
 23 21  1  0
 24 23  2  0
 25 23  1  0
M  END
$$$$
