MDL.pdb
     RDKit          3D

 25 24  0  0  1  0  0  0  0  0999 V2000
    6.2585  -12.0163   26.5753 C   0  0  0  0  0  0  0  0  0  0  0  0
    6.6461  -12.4339   24.8814 S   0  0  0  0  0  0  0  0  0  0  0  0
    5.9729  -13.9426   24.2480 C   0  0  0  0  0  0  0  0  0  0  0  0
    6.8418  -15.1407   24.1941 C   0  0  0  0  0  0  0  0  0  0  0  0
    8.2091  -15.0071   23.6134 C   0  0  2  0  0  0  0  0  0  0  0  0
    8.1452  -14.8030   22.2068 N   0  0  0  0  0  0  0  0  0  0  0  0
    9.1540  -16.0525   24.0515 C   0  0  0  0  0  0  0  0  0  0  0  0
    8.7829  -16.9117   24.9290 O   0  0  0  0  0  0  0  0  0  0  0  0
   10.4789  -16.2314   23.6057 N   0  0  0  0  0  0  0  0  0  0  0  0
   11.3616  -17.2522   24.0458 C   0  0  1  0  0  0  0  0  0  0  0  0
   12.5379  -17.5591   23.1766 C   0  0  0  0  0  0  0  0  0  0  0  0
   12.2152  -17.3385   21.7546 C   0  0  0  0  0  0  0  0  0  0  0  0
   12.7786  -16.5059   21.0086 O   0  0  0  0  0  0  0  0  0  0  0  0
   11.7030  -17.0360   25.4566 C   0  0  0  0  0  0  0  0  0  0  0  0
   12.9032  -17.0771   25.8236 O   0  0  0  0  0  0  0  0  0  0  0  0
   11.2122  -18.1006   21.1739 O   0  0  0  0  0  0  0  0  0  0  0  0
   11.5289  -13.7275   28.0679 C   0  0  0  0  0  0  0  0  0  0  0  0
   10.2126  -14.5065   27.9998 C   0  0  2  0  0  0  0  0  0  0  0  0
    9.1555  -13.6169   28.5916 C   0  0  0  0  0  0  0  0  0  0  0  0
   10.3318  -15.8272   28.6721 C   0  0  0  0  0  0  0  0  0  0  0  0
   11.0301  -16.8928   27.8917 C   0  0  2  0  0  0  0  0  0  0  0  0
   10.7403  -16.7732   26.4810 N   0  0  0  0  0  0  0  0  0  0  0  0
   10.8483  -18.2629   28.4119 C   0  0  0  0  0  0  0  0  0  0  0  0
   10.1844  -19.1345   27.8021 O   0  0  0  0  0  0  0  0  0  0  0  0
   11.4089  -18.6794   29.6290 O   0  0  0  0  0  0  0  0  0  0  0  0
  2  1  1  0
  2  3  1  0
  4  3  1  0
  4  5  1  0
  5  7  1  0
  5  6  1  6
  7  8  2  0
  9 10  1  0
  9  7  1  0
 10 11  1  6
 12 11  1  0
 13 12  2  0
 14 15  2  0
 14 10  1  0
 16 12  1  0
 18 17  1  1
 18 19  1  0
 20 18  1  0
 21 22  1  0
 21 20  1  1
 22 14  1  0
 23 21  1  0
 24 23  2  0
 25 23  1  0
M  END
$$$$
