MDL.pdb
     RDKit          3D

 25 24  0  0  1  0  0  0  0  0999 V2000
    8.4906  -11.5073   18.8814 C   0  0  0  0  0  0  0  0  0  0  0  0
    8.3340  -13.1405   19.5897 S   0  0  0  0  0  0  0  0  0  0  0  0
    6.8402  -13.4995   20.4675 C   0  0  0  0  0  0  0  0  0  0  0  0
    6.7200  -14.8021   21.1618 C   0  0  0  0  0  0  0  0  0  0  0  0
    7.8811  -15.7378   21.1331 C   0  0  2  0  0  0  0  0  0  0  0  0
    7.6530  -16.8014   20.2161 N   0  0  0  0  0  0  0  0  0  0  0  0
    8.3526  -16.1533   22.4683 C   0  0  0  0  0  0  0  0  0  0  0  0
    7.5373  -16.1383   23.4589 O   0  0  0  0  0  0  0  0  0  0  0  0
    9.6512  -16.5831   22.8075 N   0  0  0  0  0  0  0  0  0  0  0  0
   10.0295  -17.1453   24.0548 C   0  0  1  0  0  0  0  0  0  0  0  0
   11.1584  -18.1245   24.0479 C   0  0  0  0  0  0  0  0  0  0  0  0
   11.0079  -19.0958   22.9484 C   0  0  0  0  0  0  0  0  0  0  0  0
   10.0558  -19.8986   22.8214 O   0  0  0  0  0  0  0  0  0  0  0  0
   10.1701  -16.0802   25.0546 C   0  0  0  0  0  0  0  0  0  0  0  0
   11.0973  -15.2401   24.9480 O   0  0  0  0  0  0  0  0  0  0  0  0
   11.9846  -19.1438   21.9647 O   0  0  0  0  0  0  0  0  0  0  0  0
    8.4688  -12.2244   26.2937 C   0  0  0  0  0  0  0  0  0  0  0  0
    7.6803  -13.4948   26.6228 C   0  0  2  0  0  0  0  0  0  0  0  0
    6.2866  -13.0563   26.9757 C   0  0  0  0  0  0  0  0  0  0  0  0
    8.3500  -14.2844   27.6897 C   0  0  0  0  0  0  0  0  0  0  0  0
    9.5821  -15.0213   27.2763 C   0  0  2  0  0  0  0  0  0  0  0  0
    9.3024  -15.9205   26.1800 N   0  0  0  0  0  0  0  0  0  0  0  0
   10.3234  -15.6605   28.3822 C   0  0  0  0  0  0  0  0  0  0  0  0
   10.4212  -16.9050   28.4994 O   0  0  0  0  0  0  0  0  0  0  0  0
   10.9684  -14.9122   29.3787 O   0  0  0  0  0  0  0  0  0  0  0  0
  2  1  1  0
  2  3  1  0
  4  3  1  0
  4  5  1  0
  5  7  1  0
  5  6  1  6
  7  8  2  0
  9 10  1  0
  9  7  1  0
 10 11  1  6
 12 11  1  0
 13 12  2  0
 14 15  2  0
 14 10  1  0
 16 12  1  0
 18 17  1  1
 18 19  1  0
 20 18  1  0
 21 22  1  0
 21 20  1  1
 22 14  1  0
 23 21  1  0
 24 23  2  0
 25 23  1  0
M  END
$$$$
