MDL.pdb
     RDKit          3D

 25 24  0  0  1  0  0  0  0  0999 V2000
    8.6368  -11.1454   20.0678 C   0  0  0  0  0  0  0  0  0  0  0  0
    7.3980  -12.1140   19.2187 S   0  0  0  0  0  0  0  0  0  0  0  0
    7.5935  -13.8724   19.2410 C   0  0  0  0  0  0  0  0  0  0  0  0
    8.0431  -14.5211   20.4941 C   0  0  0  0  0  0  0  0  0  0  0  0
    8.1705  -16.0068   20.5247 C   0  0  2  0  0  0  0  0  0  0  0  0
    7.0059  -16.6269   19.9923 N   0  0  0  0  0  0  0  0  0  0  0  0
    8.6293  -16.5453   21.8198 C   0  0  0  0  0  0  0  0  0  0  0  0
    7.7941  -17.1486   22.5844 O   0  0  0  0  0  0  0  0  0  0  0  0
    9.9339  -16.4733   22.3479 N   0  0  0  0  0  0  0  0  0  0  0  0
   10.3623  -17.0743   23.5603 C   0  0  1  0  0  0  0  0  0  0  0  0
   11.6572  -17.8199   23.5324 C   0  0  0  0  0  0  0  0  0  0  0  0
   11.5460  -19.0983   24.2592 C   0  0  0  0  0  0  0  0  0  0  0  0
   11.2245  -19.2169   25.4633 O   0  0  0  0  0  0  0  0  0  0  0  0
   10.2559  -16.1050   24.6570 C   0  0  0  0  0  0  0  0  0  0  0  0
   11.2275  -15.3570   24.9278 O   0  0  0  0  0  0  0  0  0  0  0  0
   11.8137  -20.2765   23.5781 O   0  0  0  0  0  0  0  0  0  0  0  0
    8.2728  -12.2714   25.9279 C   0  0  0  0  0  0  0  0  0  0  0  0
    7.3108  -13.4612   25.8737 C   0  0  2  0  0  0  0  0  0  0  0  0
    5.9309  -12.9088   26.0970 C   0  0  0  0  0  0  0  0  0  0  0  0
    7.7009  -14.5153   26.8469 C   0  0  0  0  0  0  0  0  0  0  0  0
    9.0571  -15.1105   26.6512 C   0  0  2  0  0  0  0  0  0  0  0  0
    9.0904  -15.9416   25.4694 N   0  0  0  0  0  0  0  0  0  0  0  0
    9.6239  -15.7691   27.8454 C   0  0  0  0  0  0  0  0  0  0  0  0
    9.5810  -17.0105   28.0165 O   0  0  0  0  0  0  0  0  0  0  0  0
   10.2493  -15.0441   28.8711 O   0  0  0  0  0  0  0  0  0  0  0  0
  2  1  1  0
  2  3  1  0
  4  3  1  0
  4  5  1  0
  5  7  1  0
  5  6  1  1
  7  8  2  0
  9 10  1  0
  9  7  1  0
 10 11  1  6
 12 11  1  0
 13 12  2  0
 14 15  2  0
 14 10  1  0
 16 12  1  0
 18 17  1  1
 18 19  1  0
 20 18  1  0
 21 22  1  0
 21 20  1  1
 22 14  1  0
 23 21  1  0
 24 23  2  0
 25 23  1  0
M  END
$$$$
