MDL.pdb
     RDKit          3D

 25 24  0  0  1  0  0  0  0  0999 V2000
    7.1371  -10.9282   18.7775 C   0  0  0  0  0  0  0  0  0  0  0  0
    7.3396  -11.8640   20.2864 S   0  0  0  0  0  0  0  0  0  0  0  0
    7.5998  -13.6068   20.1264 C   0  0  0  0  0  0  0  0  0  0  0  0
    7.7242  -14.4222   21.3563 C   0  0  0  0  0  0  0  0  0  0  0  0
    7.7998  -15.9061   21.2262 C   0  0  2  0  0  0  0  0  0  0  0  0
    6.5202  -16.4557   20.9351 N   0  0  0  0  0  0  0  0  0  0  0  0
    8.5310  -16.5702   22.3225 C   0  0  0  0  0  0  0  0  0  0  0  0
    7.8751  -17.1876   23.2361 O   0  0  0  0  0  0  0  0  0  0  0  0
    9.9285  -16.6101   22.5007 N   0  0  0  0  0  0  0  0  0  0  0  0
   10.5977  -17.1902   23.6100 C   0  0  1  0  0  0  0  0  0  0  0  0
   11.9737  -17.7237   23.3744 C   0  0  0  0  0  0  0  0  0  0  0  0
   12.4242  -18.5436   24.5144 C   0  0  0  0  0  0  0  0  0  0  0  0
   13.5314  -18.4335   25.0881 O   0  0  0  0  0  0  0  0  0  0  0  0
   10.4945  -16.2985   24.7710 C   0  0  0  0  0  0  0  0  0  0  0  0
   11.3229  -15.3666   24.9200 O   0  0  0  0  0  0  0  0  0  0  0  0
   11.5730  -19.5208   25.0089 O   0  0  0  0  0  0  0  0  0  0  0  0
    9.0607  -12.5511   26.3947 C   0  0  0  0  0  0  0  0  0  0  0  0
    8.1000  -13.6999   26.0770 C   0  0  2  0  0  0  0  0  0  0  0  0
    6.7231  -13.1014   26.0048 C   0  0  0  0  0  0  0  0  0  0  0  0
    8.2260  -14.7991   27.0701 C   0  0  0  0  0  0  0  0  0  0  0  0
    9.4760  -15.6127   26.9835 C   0  0  2  0  0  0  0  0  0  0  0  0
    9.4883  -16.4137   25.7807 N   0  0  0  0  0  0  0  0  0  0  0  0
    9.8014  -16.3819   28.2015 C   0  0  0  0  0  0  0  0  0  0  0  0
    9.7468  -17.6339   28.2446 O   0  0  0  0  0  0  0  0  0  0  0  0
   10.1935  -15.7579   29.3956 O   0  0  0  0  0  0  0  0  0  0  0  0
  2  1  1  0
  2  3  1  0
  4  3  1  0
  4  5  1  0
  5  7  1  0
  5  6  1  1
  7  8  2  0
  9 10  1  0
  9  7  1  0
 10 11  1  6
 12 11  1  0
 13 12  2  0
 14 15  2  0
 14 10  1  0
 16 12  1  0
 18 17  1  1
 18 19  1  0
 20 18  1  0
 21 22  1  0
 21 20  1  1
 22 14  1  0
 23 21  1  0
 24 23  2  0
 25 23  1  0
M  END
$$$$
