WKM.pdb
     RDKit          3D

 32 33  0  0  1  0  0  0  0  0999 V2000
    8.0491  -20.0102   26.9164 N   0  0  0  0  0  0  0  0  0  0  0  0
    7.7526  -18.7629   26.2693 C   0  0  1  0  0  0  0  0  0  0  0  0
    8.9562  -17.8591   26.1627 C   0  0  0  0  0  0  0  0  0  0  0  0
    9.4540  -17.3635   27.4431 C   0  0  0  0  0  0  0  0  0  0  0  0
   10.0250  -18.1079   28.4520 C   0  0  0  0  0  0  0  0  0  0  0  0
   10.3342  -17.2510   29.4400 N   0  0  0  0  0  0  0  0  0  0  0  0
    9.9778  -15.9939   29.0882 C   0  0  0  0  0  0  0  0  0  0  0  0
   10.0744  -14.7754   29.7293 C   0  0  0  0  0  0  0  0  0  0  0  0
    9.6352  -13.5964   29.1649 C   0  0  0  0  0  0  0  0  0  0  0  0
    9.0788  -13.6623   27.9049 C   0  0  0  0  0  0  0  0  0  0  0  0
    8.9679  -14.8635   27.2382 C   0  0  0  0  0  0  0  0  0  0  0  0
    9.4191  -16.0385   27.8302 C   0  0  0  0  0  0  0  0  0  0  0  0
    7.2111  -18.9437   24.9123 C   0  0  0  0  0  0  0  0  0  0  0  0
    7.6178  -19.9162   24.2264 O   0  0  0  0  0  0  0  0  0  0  0  0
    6.2460  -18.0934   24.2968 N   0  0  0  0  0  0  0  0  0  0  0  0
    6.0854  -17.9870   22.8756 C   0  0  1  0  0  0  0  0  0  0  0  0
    4.7593  -17.6586   22.3368 C   0  0  0  0  0  0  0  0  0  0  0  0
    3.8572  -18.8039   22.1241 C   0  0  0  0  0  0  0  0  0  0  0  0
    3.4621  -19.0411   20.7046 C   0  0  0  0  0  0  0  0  0  0  0  0
    2.4662  -20.2196   20.6928 C   0  0  0  0  0  0  0  0  0  0  0  0
    2.0924  -20.4428   19.2944 N   0  0  0  0  0  0  0  0  0  0  0  0
    7.1088  -16.9319   22.4575 C   0  0  0  0  0  0  0  0  0  0  0  0
    7.2232  -16.6022   21.2592 O   0  0  0  0  0  0  0  0  0  0  0  0
    5.9897  -12.0701   26.3025 C   0  0  0  0  0  0  0  0  0  0  0  0
    7.6752  -12.5719   25.8313 S   0  0  0  0  0  0  0  0  0  0  0  0
    7.5550  -13.7116   24.4601 C   0  0  0  0  0  0  0  0  0  0  0  0
    8.8616  -14.2365   24.0099 C   0  0  0  0  0  0  0  0  0  0  0  0
    8.8872  -15.2923   22.9563 C   0  0  2  0  0  0  0  0  0  0  0  0
    7.9348  -16.3190   23.4203 N   0  0  0  0  0  0  0  0  0  0  0  0
   10.1750  -15.9098   22.6387 C   0  0  0  0  0  0  0  0  0  0  0  0
   10.4729  -17.0961   22.9171 O   0  0  0  0  0  0  0  0  0  0  0  0
   11.1934  -15.1977   21.9824 O   0  0  0  0  0  0  0  0  0  0  0  0
  2  1  1  6
  2  3  1  0
  4  5  2  0
  4  3  1  0
  6  5  1  0
  7 12  2  0
  7  6  1  0
  8  7  1  0
  9  8  2  0
  9 10  1  0
 10 11  2  0
 11 12  1  0
 12  4  1  0
 13  2  1  0
 13 14  2  0
 15 13  1  0
 16 15  1  0
 16 17  1  1
 18 17  1  0
 19 18  1  0
 20 19  1  0
 21 20  1  0
 22 29  1  0
 22 16  1  0
 23 22  2  0
 24 25  1  0
 25 26  1  0
 26 27  1  0
 28 29  1  0
 28 27  1  1
 30 32  1  0
 30 28  1  0
 31 30  2  0
M  END
$$$$
