WKM.pdb
     RDKit          3D

 32 33  0  0  1  0  0  0  0  0999 V2000
    6.7807  -18.2055   24.9571 N   0  0  0  0  0  0  0  0  0  0  0  0
    7.3531  -16.9932   24.4421 C   0  0  1  0  0  0  0  0  0  0  0  0
    7.7610  -16.0310   25.5305 C   0  0  0  0  0  0  0  0  0  0  0  0
    6.7577  -15.0184   25.8479 C   0  0  0  0  0  0  0  0  0  0  0  0
    5.5591  -15.2176   26.4974 C   0  0  0  0  0  0  0  0  0  0  0  0
    4.9555  -14.0193   26.5752 N   0  0  0  0  0  0  0  0  0  0  0  0
    5.7321  -13.0736   25.9976 C   0  0  0  0  0  0  0  0  0  0  0  0
    5.5786  -11.7141   25.8154 C   0  0  0  0  0  0  0  0  0  0  0  0
    6.5233  -10.9328   25.1840 C   0  0  0  0  0  0  0  0  0  0  0  0
    7.6623  -11.5587   24.7232 C   0  0  0  0  0  0  0  0  0  0  0  0
    7.8456  -12.9146   24.8895 C   0  0  0  0  0  0  0  0  0  0  0  0
    6.8768  -13.6799   25.5302 C   0  0  0  0  0  0  0  0  0  0  0  0
    8.5354  -17.2386   23.5998 C   0  0  0  0  0  0  0  0  0  0  0  0
    9.3368  -18.1472   23.9371 O   0  0  0  0  0  0  0  0  0  0  0  0
    8.8560  -16.5196   22.4109 N   0  0  0  0  0  0  0  0  0  0  0  0
   10.1965  -16.3613   21.9260 C   0  0  1  0  0  0  0  0  0  0  0  0
   10.4435  -15.4206   20.8257 C   0  0  0  0  0  0  0  0  0  0  0  0
   11.8219  -15.3968   20.3059 C   0  0  0  0  0  0  0  0  0  0  0  0
   11.9363  -15.4289   18.8182 C   0  0  0  0  0  0  0  0  0  0  0  0
   13.4203  -15.1999   18.4636 C   0  0  0  0  0  0  0  0  0  0  0  0
   13.7397  -16.1185   17.3686 N   0  0  0  0  0  0  0  0  0  0  0  0
   11.0010  -15.9614   23.1622 C   0  0  0  0  0  0  0  0  0  0  0  0
   10.8662  -14.8268   23.6643 O   0  0  0  0  0  0  0  0  0  0  0  0
    9.5766  -16.0244   28.1780 C   0  0  0  0  0  0  0  0  0  0  0  0
   11.2602  -15.3600   28.3751 S   0  0  0  0  0  0  0  0  0  0  0  0
   11.9616  -15.1263   26.7482 C   0  0  0  0  0  0  0  0  0  0  0  0
   12.2301  -16.3912   26.0316 C   0  0  0  0  0  0  0  0  0  0  0  0
   12.8981  -16.3341   24.6990 C   0  0  2  0  0  0  0  0  0  0  0  0
   11.9041  -16.8695   23.7495 N   0  0  0  0  0  0  0  0  0  0  0  0
   14.1713  -17.0376   24.5421 C   0  0  0  0  0  0  0  0  0  0  0  0
   14.2981  -18.1376   23.9526 O   0  0  0  0  0  0  0  0  0  0  0  0
   15.3714  -16.5154   25.0541 O   0  0  0  0  0  0  0  0  0  0  0  0
  2  1  1  1
  2  3  1  0
  4  5  2  0
  4  3  1  0
  6  5  1  0
  7 12  2  0
  7  6  1  0
  8  7  1  0
  9  8  2  0
  9 10  1  0
 10 11  2  0
 11 12  1  0
 12  4  1  0
 13  2  1  0
 13 14  2  0
 15 13  1  0
 16 15  1  0
 16 17  1  6
 18 17  1  0
 19 18  1  0
 20 19  1  0
 21 20  1  0
 22 29  1  0
 22 16  1  0
 23 22  2  0
 24 25  1  0
 25 26  1  0
 26 27  1  0
 28 29  1  0
 28 27  1  1
 30 32  1  0
 30 28  1  0
 31 30  2  0
M  END
$$$$
