WKM.pdb
     RDKit          3D

 32 33  0  0  1  0  0  0  0  0999 V2000
    5.9772  -17.7276   24.3073 N   0  0  0  0  0  0  0  0  0  0  0  0
    6.8667  -16.6684   23.9209 C   0  0  1  0  0  0  0  0  0  0  0  0
    7.5623  -16.0305   25.0983 C   0  0  0  0  0  0  0  0  0  0  0  0
    6.7307  -15.1029   25.8603 C   0  0  0  0  0  0  0  0  0  0  0  0
    5.6022  -15.4111   26.5880 C   0  0  0  0  0  0  0  0  0  0  0  0
    5.1583  -14.2607   27.1226 N   0  0  0  0  0  0  0  0  0  0  0  0
    5.9679  -13.2400   26.7570 C   0  0  0  0  0  0  0  0  0  0  0  0
    5.9562  -11.8870   27.0301 C   0  0  0  0  0  0  0  0  0  0  0  0
    6.9057  -11.0165   26.5378 C   0  0  0  0  0  0  0  0  0  0  0  0
    7.8999  -11.5432   25.7406 C   0  0  0  0  0  0  0  0  0  0  0  0
    7.9395  -12.8897   25.4492 C   0  0  0  0  0  0  0  0  0  0  0  0
    6.9693  -13.7464   25.9588 C   0  0  0  0  0  0  0  0  0  0  0  0
    7.9066  -17.1172   22.9803 C   0  0  0  0  0  0  0  0  0  0  0  0
    8.9391  -17.6672   23.4418 O   0  0  0  0  0  0  0  0  0  0  0  0
    7.8420  -16.9785   21.5626 N   0  0  0  0  0  0  0  0  0  0  0  0
    8.3596  -15.8401   20.8602 C   0  0  1  0  0  0  0  0  0  0  0  0
    7.5197  -14.6413   20.7412 C   0  0  0  0  0  0  0  0  0  0  0  0
    7.9626  -13.6503   19.7450 C   0  0  0  0  0  0  0  0  0  0  0  0
    8.0223  -14.1505   18.3402 C   0  0  0  0  0  0  0  0  0  0  0  0
    8.5649  -13.0027   17.4634 C   0  0  0  0  0  0  0  0  0  0  0  0
    8.6302  -13.5130   16.0922 N   0  0  0  0  0  0  0  0  0  0  0  0
    9.6637  -15.5096   21.5850 C   0  0  0  0  0  0  0  0  0  0  0  0
   10.4963  -14.7372   21.0674 O   0  0  0  0  0  0  0  0  0  0  0  0
   10.0106  -13.4337   27.6551 C   0  0  0  0  0  0  0  0  0  0  0  0
   11.0343  -14.9393   27.6567 S   0  0  0  0  0  0  0  0  0  0  0  0
   11.7185  -15.1503   26.0194 C   0  0  0  0  0  0  0  0  0  0  0  0
   10.7136  -15.5219   25.0008 C   0  0  0  0  0  0  0  0  0  0  0  0
   11.1310  -15.5871   23.5701 C   0  0  2  0  0  0  0  0  0  0  0  0
    9.9411  -16.0731   22.8462 N   0  0  0  0  0  0  0  0  0  0  0  0
   12.2932  -16.4098   23.2341 C   0  0  0  0  0  0  0  0  0  0  0  0
   12.2362  -17.4610   22.5520 O   0  0  0  0  0  0  0  0  0  0  0  0
   13.5875  -16.0699   23.6635 O   0  0  0  0  0  0  0  0  0  0  0  0
  2  1  1  1
  2  3  1  0
  4  5  2  0
  4  3  1  0
  6  5  1  0
  7 12  2  0
  7  6  1  0
  8  7  1  0
  9  8  2  0
  9 10  1  0
 10 11  2  0
 11 12  1  0
 12  4  1  0
 13  2  1  0
 13 14  2  0
 15 13  1  0
 16 15  1  0
 16 17  1  1
 18 17  1  0
 19 18  1  0
 20 19  1  0
 21 20  1  0
 22 29  1  0
 22 16  1  0
 23 22  2  0
 24 25  1  0
 25 26  1  0
 26 27  1  0
 28 29  1  0
 28 27  1  1
 30 32  1  0
 30 28  1  0
 31 30  2  0
M  END
$$$$
