WKM.pdb
     RDKit          3D

 32 33  0  0  1  0  0  0  0  0999 V2000
    6.8554  -17.4131   25.2511 N   0  0  0  0  0  0  0  0  0  0  0  0
    7.2527  -16.7347   24.0493 C   0  0  1  0  0  0  0  0  0  0  0  0
    7.5159  -15.2649   24.2675 C   0  0  0  0  0  0  0  0  0  0  0  0
    6.5974  -14.6196   25.2016 C   0  0  0  0  0  0  0  0  0  0  0  0
    5.5669  -15.2174   25.8934 C   0  0  0  0  0  0  0  0  0  0  0  0
    4.9864  -14.2568   26.6326 N   0  0  0  0  0  0  0  0  0  0  0  0
    5.6155  -13.0761   26.4303 C   0  0  0  0  0  0  0  0  0  0  0  0
    5.4180  -11.8071   26.9361 C   0  0  0  0  0  0  0  0  0  0  0  0
    6.2009  -10.7295   26.5792 C   0  0  0  0  0  0  0  0  0  0  0  0
    7.2188  -10.9534   25.6763 C   0  0  0  0  0  0  0  0  0  0  0  0
    7.4419  -12.2086   25.1528 C   0  0  0  0  0  0  0  0  0  0  0  0
    6.6375  -13.2789   25.5297 C   0  0  0  0  0  0  0  0  0  0  0  0
    8.4614  -17.3174   23.4433 C   0  0  0  0  0  0  0  0  0  0  0  0
    9.1182  -18.1626   24.1035 O   0  0  0  0  0  0  0  0  0  0  0  0
    8.9609  -16.9989   22.1464 N   0  0  0  0  0  0  0  0  0  0  0  0
   10.2702  -17.3723   21.6953 C   0  0  1  0  0  0  0  0  0  0  0  0
   10.6396  -17.1053   20.2993 C   0  0  0  0  0  0  0  0  0  0  0  0
   10.0003  -17.9729   19.2947 C   0  0  0  0  0  0  0  0  0  0  0  0
    9.7056  -17.3148   17.9880 C   0  0  0  0  0  0  0  0  0  0  0  0
    9.1324  -18.3939   17.0458 C   0  0  0  0  0  0  0  0  0  0  0  0
    7.7024  -18.1123   16.9014 N   0  0  0  0  0  0  0  0  0  0  0  0
   11.2195  -16.6464   22.6479 C   0  0  0  0  0  0  0  0  0  0  0  0
   11.3165  -15.4025   22.6174 O   0  0  0  0  0  0  0  0  0  0  0  0
   11.1513  -13.4248   28.3579 C   0  0  0  0  0  0  0  0  0  0  0  0
   11.6037  -15.1338   27.9225 S   0  0  0  0  0  0  0  0  0  0  0  0
   12.1655  -15.1470   26.2261 C   0  0  0  0  0  0  0  0  0  0  0  0
   12.4573  -16.5010   25.7094 C   0  0  0  0  0  0  0  0  0  0  0  0
   13.0225  -16.6393   24.3357 C   0  0  2  0  0  0  0  0  0  0  0  0
   11.9960  -17.3734   23.5718 N   0  0  0  0  0  0  0  0  0  0  0  0
   14.3206  -17.2992   24.1941 C   0  0  0  0  0  0  0  0  0  0  0  0
   14.4680  -18.4842   23.8100 O   0  0  0  0  0  0  0  0  0  0  0  0
   15.5232  -16.6331   24.4858 O   0  0  0  0  0  0  0  0  0  0  0  0
  2  1  1  1
  2  3  1  0
  4  5  2  0
  4  3  1  0
  6  5  1  0
  7 12  2  0
  7  6  1  0
  8  7  1  0
  9  8  2  0
  9 10  1  0
 10 11  2  0
 11 12  1  0
 12  4  1  0
 13  2  1  0
 13 14  2  0
 15 13  1  0
 16 15  1  0
 16 17  1  6
 18 17  1  0
 19 18  1  0
 20 19  1  0
 21 20  1  0
 22 29  1  0
 22 16  1  0
 23 22  2  0
 24 25  1  0
 25 26  1  0
 26 27  1  0
 28 29  1  0
 28 27  1  1
 30 32  1  0
 30 28  1  0
 31 30  2  0
M  END
$$$$
