WKM.pdb
     RDKit          3D

 32 33  0  0  1  0  0  0  0  0999 V2000
    6.5205  -18.6408   24.7901 N   0  0  0  0  0  0  0  0  0  0  0  0
    6.5852  -17.2326   24.5155 C   0  0  1  0  0  0  0  0  0  0  0  0
    7.1719  -16.4406   25.6581 C   0  0  0  0  0  0  0  0  0  0  0  0
    6.2931  -15.4002   26.1851 C   0  0  0  0  0  0  0  0  0  0  0  0
    5.1228  -15.5848   26.8882 C   0  0  0  0  0  0  0  0  0  0  0  0
    4.6444  -14.3619   27.1744 N   0  0  0  0  0  0  0  0  0  0  0  0
    5.4725  -13.4148   26.6763 C   0  0  0  0  0  0  0  0  0  0  0  0
    5.4410  -12.0350   26.6944 C   0  0  0  0  0  0  0  0  0  0  0  0
    6.4169  -11.2569   26.1081 C   0  0  0  0  0  0  0  0  0  0  0  0
    7.4593  -11.9075   25.4824 C   0  0  0  0  0  0  0  0  0  0  0  0
    7.5198  -13.2839   25.4468 C   0  0  0  0  0  0  0  0  0  0  0  0
    6.5221  -14.0456   26.0463 C   0  0  0  0  0  0  0  0  0  0  0  0
    7.3743  -16.9263   23.3110 C   0  0  0  0  0  0  0  0  0  0  0  0
    8.4385  -17.5656   23.1098 O   0  0  0  0  0  0  0  0  0  0  0  0
    7.0286  -15.9472   22.3338 N   0  0  0  0  0  0  0  0  0  0  0  0
    7.9800  -15.3704   21.4288 C   0  0  1  0  0  0  0  0  0  0  0  0
    7.5900  -14.1854   20.6540 C   0  0  0  0  0  0  0  0  0  0  0  0
    8.4809  -13.8358   19.5338 C   0  0  0  0  0  0  0  0  0  0  0  0
    7.8622  -13.9384   18.1795 C   0  0  0  0  0  0  0  0  0  0  0  0
    8.9732  -13.6721   17.1424 C   0  0  0  0  0  0  0  0  0  0  0  0
    8.3292  -13.6600   15.8271 N   0  0  0  0  0  0  0  0  0  0  0  0
    9.1946  -15.0615   22.3034 C   0  0  0  0  0  0  0  0  0  0  0  0
    9.1535  -14.1338   23.1373 O   0  0  0  0  0  0  0  0  0  0  0  0
   12.1019  -16.3503   28.5371 C   0  0  0  0  0  0  0  0  0  0  0  0
   10.9145  -16.4636   27.1616 S   0  0  0  0  0  0  0  0  0  0  0  0
   11.7512  -15.9733   25.6607 C   0  0  0  0  0  0  0  0  0  0  0  0
   10.8643  -15.9171   24.4793 C   0  0  0  0  0  0  0  0  0  0  0  0
   11.4556  -15.5777   23.1525 C   0  0  2  0  0  0  0  0  0  0  0  0
   10.3747  -15.8209   22.1784 N   0  0  0  0  0  0  0  0  0  0  0  0
   12.6684  -16.2864   22.7433 C   0  0  0  0  0  0  0  0  0  0  0  0
   13.8010  -16.0879   23.2448 O   0  0  0  0  0  0  0  0  0  0  0  0
   12.6473  -17.2642   21.7342 O   0  0  0  0  0  0  0  0  0  0  0  0
  2  1  1  1
  2  3  1  0
  4  5  2  0
  4  3  1  0
  6  5  1  0
  7 12  2  0
  7  6  1  0
  8  7  1  0
  9  8  2  0
  9 10  1  0
 10 11  2  0
 11 12  1  0
 12  4  1  0
 13  2  1  0
 13 14  2  0
 15 13  1  0
 16 15  1  0
 16 17  1  1
 18 17  1  0
 19 18  1  0
 20 19  1  0
 21 20  1  0
 22 29  1  0
 22 16  1  0
 23 22  2  0
 24 25  1  0
 25 26  1  0
 26 27  1  0
 28 29  1  0
 28 27  1  1
 30 32  1  0
 30 28  1  0
 31 30  2  0
M  END
$$$$
