WKM.pdb
     RDKit          3D

 32 33  0  0  1  0  0  0  0  0999 V2000
    6.5620  -18.2964   24.9180 N   0  0  0  0  0  0  0  0  0  0  0  0
    6.6353  -16.8809   24.6869 C   0  0  1  0  0  0  0  0  0  0  0  0
    7.2277  -16.1281   25.8529 C   0  0  0  0  0  0  0  0  0  0  0  0
    6.3407  -15.1261   26.4375 C   0  0  0  0  0  0  0  0  0  0  0  0
    5.1403  -15.3552   27.0736 C   0  0  0  0  0  0  0  0  0  0  0  0
    4.6655  -14.1560   27.4513 N   0  0  0  0  0  0  0  0  0  0  0  0
    5.5249  -13.1808   27.0753 C   0  0  0  0  0  0  0  0  0  0  0  0
    5.5096  -11.8080   27.2184 C   0  0  0  0  0  0  0  0  0  0  0  0
    6.5182  -10.9955   26.7451 C   0  0  0  0  0  0  0  0  0  0  0  0
    7.5775  -11.6030   26.1045 C   0  0  0  0  0  0  0  0  0  0  0  0
    7.6225  -12.9713   25.9454 C   0  0  0  0  0  0  0  0  0  0  0  0
    6.5918  -13.7683   26.4325 C   0  0  0  0  0  0  0  0  0  0  0  0
    7.4256  -16.5425   23.4917 C   0  0  0  0  0  0  0  0  0  0  0  0
    8.4514  -17.2236   23.2356 O   0  0  0  0  0  0  0  0  0  0  0  0
    7.1217  -15.4876   22.5819 N   0  0  0  0  0  0  0  0  0  0  0  0
    8.0332  -15.0346   21.5715 C   0  0  1  0  0  0  0  0  0  0  0  0
    7.7962  -13.7304   20.9393 C   0  0  0  0  0  0  0  0  0  0  0  0
    8.6406  -13.4267   19.7707 C   0  0  0  0  0  0  0  0  0  0  0  0
    8.1924  -14.0473   18.4896 C   0  0  0  0  0  0  0  0  0  0  0  0
    9.1407  -13.5504   17.3786 C   0  0  0  0  0  0  0  0  0  0  0  0
    8.6673  -14.1397   16.1241 N   0  0  0  0  0  0  0  0  0  0  0  0
    9.3988  -15.0563   22.2570 C   0  0  0  0  0  0  0  0  0  0  0  0
    9.6776  -14.2165   23.1372 O   0  0  0  0  0  0  0  0  0  0  0  0
   11.0414  -13.9901   27.6059 C   0  0  0  0  0  0  0  0  0  0  0  0
   11.5339  -15.4332   26.6113 S   0  0  0  0  0  0  0  0  0  0  0  0
   11.2068  -15.0646   24.8936 C   0  0  0  0  0  0  0  0  0  0  0  0
   11.4377  -16.2098   23.9876 C   0  0  0  0  0  0  0  0  0  0  0  0
   11.6864  -15.9427   22.5411 C   0  0  2  0  0  0  0  0  0  0  0  0
   10.3588  -16.0249   21.9032 N   0  0  0  0  0  0  0  0  0  0  0  0
   12.6345  -16.8084   21.8395 C   0  0  0  0  0  0  0  0  0  0  0  0
   13.8811  -16.6894   21.9126 O   0  0  0  0  0  0  0  0  0  0  0  0
   12.2025  -17.8604   21.0140 O   0  0  0  0  0  0  0  0  0  0  0  0
  2  1  1  1
  2  3  1  0
  4  5  2  0
  4  3  1  0
  6  5  1  0
  7 12  2  0
  7  6  1  0
  8  7  1  0
  9  8  2  0
  9 10  1  0
 10 11  2  0
 11 12  1  0
 12  4  1  0
 13  2  1  0
 13 14  2  0
 15 13  1  0
 16 15  1  0
 16 17  1  1
 18 17  1  0
 19 18  1  0
 20 19  1  0
 21 20  1  0
 22 29  1  0
 22 16  1  0
 23 22  2  0
 24 25  1  0
 25 26  1  0
 26 27  1  0
 28 29  1  0
 28 27  1  1
 30 32  1  0
 30 28  1  0
 31 30  2  0
M  END
$$$$
