WKM.pdb
     RDKit          3D

 32 33  0  0  1  0  0  0  0  0999 V2000
    6.6499  -18.0744   24.4812 N   0  0  0  0  0  0  0  0  0  0  0  0
    7.0959  -16.7908   24.0166 C   0  0  1  0  0  0  0  0  0  0  0  0
    7.7437  -15.9685   25.1035 C   0  0  0  0  0  0  0  0  0  0  0  0
    6.8633  -14.9773   25.7160 C   0  0  0  0  0  0  0  0  0  0  0  0
    5.7417  -15.2257   26.4764 C   0  0  0  0  0  0  0  0  0  0  0  0
    5.2413  -14.0303   26.8328 N   0  0  0  0  0  0  0  0  0  0  0  0
    6.0087  -13.0390   26.3235 C   0  0  0  0  0  0  0  0  0  0  0  0
    5.9340  -11.6625   26.3931 C   0  0  0  0  0  0  0  0  0  0  0  0
    6.8491  -10.8320   25.7814 C   0  0  0  0  0  0  0  0  0  0  0  0
    7.8745  -11.4248   25.0754 C   0  0  0  0  0  0  0  0  0  0  0  0
    7.9771  -12.7964   24.9868 C   0  0  0  0  0  0  0  0  0  0  0  0
    7.0404  -13.6117   25.6135 C   0  0  0  0  0  0  0  0  0  0  0  0
    8.0557  -16.8932   22.9050 C   0  0  0  0  0  0  0  0  0  0  0  0
    8.7656  -17.9276   22.8158 O   0  0  0  0  0  0  0  0  0  0  0  0
    8.2535  -15.9002   21.9011 N   0  0  0  0  0  0  0  0  0  0  0  0
    9.4714  -15.7689   21.1551 C   0  0  1  0  0  0  0  0  0  0  0  0
    9.5461  -14.7531   20.0971 C   0  0  0  0  0  0  0  0  0  0  0  0
    8.6055  -14.9304   18.9770 C   0  0  0  0  0  0  0  0  0  0  0  0
    8.6466  -13.8560   17.9420 C   0  0  0  0  0  0  0  0  0  0  0  0
    7.5495  -14.1717   16.9041 C   0  0  0  0  0  0  0  0  0  0  0  0
    7.5906  -13.1001   15.9066 N   0  0  0  0  0  0  0  0  0  0  0  0
   10.5400  -15.5140   22.2175 C   0  0  0  0  0  0  0  0  0  0  0  0
   11.2076  -14.4597   22.2023 O   0  0  0  0  0  0  0  0  0  0  0  0
   10.6042  -13.8274   27.9131 C   0  0  0  0  0  0  0  0  0  0  0  0
   11.3568  -15.4674   28.1554 S   0  0  0  0  0  0  0  0  0  0  0  0
   12.2054  -15.9197   26.6492 C   0  0  0  0  0  0  0  0  0  0  0  0
   11.3219  -15.9747   25.4651 C   0  0  0  0  0  0  0  0  0  0  0  0
   11.9286  -16.2368   24.1277 C   0  0  2  0  0  0  0  0  0  0  0  0
   10.7834  -16.4666   23.2266 N   0  0  0  0  0  0  0  0  0  0  0  0
   12.8846  -17.3385   24.0149 C   0  0  0  0  0  0  0  0  0  0  0  0
   12.6147  -18.4536   23.5076 O   0  0  0  0  0  0  0  0  0  0  0  0
   14.2057  -17.2202   24.4792 O   0  0  0  0  0  0  0  0  0  0  0  0
  2  1  1  1
  2  3  1  0
  4  5  2  0
  4  3  1  0
  6  5  1  0
  7 12  2  0
  7  6  1  0
  8  7  1  0
  9  8  2  0
  9 10  1  0
 10 11  2  0
 11 12  1  0
 12  4  1  0
 13  2  1  0
 13 14  2  0
 15 13  1  0
 16 15  1  0
 16 17  1  6
 18 17  1  0
 19 18  1  0
 20 19  1  0
 21 20  1  0
 22 29  1  0
 22 16  1  0
 23 22  2  0
 24 25  1  0
 25 26  1  0
 26 27  1  0
 28 29  1  0
 28 27  1  1
 30 32  1  0
 30 28  1  0
 31 30  2  0
M  END
$$$$
