WKM.pdb
     RDKit          3D

 32 33  0  0  1  0  0  0  0  0999 V2000
    5.4608  -17.3094   23.3530 N   0  0  0  0  0  0  0  0  0  0  0  0
    6.6996  -16.6945   22.9662 C   0  0  1  0  0  0  0  0  0  0  0  0
    7.5792  -16.3595   24.1457 C   0  0  0  0  0  0  0  0  0  0  0  0
    6.9507  -15.4949   25.1407 C   0  0  0  0  0  0  0  0  0  0  0  0
    6.0061  -15.8602   26.0747 C   0  0  0  0  0  0  0  0  0  0  0  0
    5.7091  -14.7553   26.7797 N   0  0  0  0  0  0  0  0  0  0  0  0
    6.4335  -13.7080   26.3223 C   0  0  0  0  0  0  0  0  0  0  0  0
    6.5033  -12.3802   26.6927 C   0  0  0  0  0  0  0  0  0  0  0  0
    7.3339  -11.4726   26.0699 C   0  0  0  0  0  0  0  0  0  0  0  0
    8.1193  -11.9345   25.0349 C   0  0  0  0  0  0  0  0  0  0  0  0
    8.0729  -13.2544   24.6409 C   0  0  0  0  0  0  0  0  0  0  0  0
    7.2261  -14.1496   25.2863 C   0  0  0  0  0  0  0  0  0  0  0  0
    7.4870  -17.5351   22.0492 C   0  0  0  0  0  0  0  0  0  0  0  0
    6.8996  -18.4497   21.4167 O   0  0  0  0  0  0  0  0  0  0  0  0
    8.8864  -17.3984   21.8124 N   0  0  0  0  0  0  0  0  0  0  0  0
    9.4803  -16.2064   21.2800 C   0  0  1  0  0  0  0  0  0  0  0  0
    8.6240  -15.0385   21.0359 C   0  0  0  0  0  0  0  0  0  0  0  0
    8.0325  -14.9534   19.6892 C   0  0  0  0  0  0  0  0  0  0  0  0
    8.6372  -13.9200   18.7982 C   0  0  0  0  0  0  0  0  0  0  0  0
    7.9294  -14.0174   17.4306 C   0  0  0  0  0  0  0  0  0  0  0  0
    8.4768  -12.9468   16.5944 N   0  0  0  0  0  0  0  0  0  0  0  0
   10.5876  -15.8591   22.2743 C   0  0  0  0  0  0  0  0  0  0  0  0
   11.3618  -14.9060   22.0508 O   0  0  0  0  0  0  0  0  0  0  0  0
   10.7103  -13.4090   29.1894 C   0  0  0  0  0  0  0  0  0  0  0  0
    9.9205  -14.5370   27.9984 S   0  0  0  0  0  0  0  0  0  0  0  0
   11.1770  -15.1311   26.8752 C   0  0  0  0  0  0  0  0  0  0  0  0
   10.6368  -15.6317   25.5933 C   0  0  0  0  0  0  0  0  0  0  0  0
   11.5913  -16.0434   24.5234 C   0  0  2  0  0  0  0  0  0  0  0  0
   10.7470  -16.6110   23.4552 N   0  0  0  0  0  0  0  0  0  0  0  0
   12.6515  -16.9868   24.8793 C   0  0  0  0  0  0  0  0  0  0  0  0
   12.5934  -18.2217   24.6667 O   0  0  0  0  0  0  0  0  0  0  0  0
   13.8391  -16.5632   25.4999 O   0  0  0  0  0  0  0  0  0  0  0  0
  2  1  1  1
  2  3  1  0
  4  5  2  0
  4  3  1  0
  6  5  1  0
  7 12  2  0
  7  6  1  0
  8  7  1  0
  9  8  2  0
  9 10  1  0
 10 11  2  0
 11 12  1  0
 12  4  1  0
 13  2  1  0
 13 14  2  0
 15 13  1  0
 16 15  1  0
 16 17  1  1
 18 17  1  0
 19 18  1  0
 20 19  1  0
 21 20  1  0
 22 29  1  0
 22 16  1  0
 23 22  2  0
 24 25  1  0
 25 26  1  0
 26 27  1  0
 28 29  1  0
 28 27  1  1
 30 32  1  0
 30 28  1  0
 31 30  2  0
M  END
$$$$
