WKM.pdb
     RDKit          3D

 32 33  0  0  1  0  0  0  0  0999 V2000
    5.9782  -18.3286   24.8891 N   0  0  0  0  0  0  0  0  0  0  0  0
    6.3261  -16.9504   24.6839 C   0  0  1  0  0  0  0  0  0  0  0  0
    6.9553  -16.3188   25.9013 C   0  0  0  0  0  0  0  0  0  0  0  0
    6.3219  -15.0753   26.3314 C   0  0  0  0  0  0  0  0  0  0  0  0
    5.0666  -14.9342   26.8812 C   0  0  0  0  0  0  0  0  0  0  0  0
    4.8940  -13.6239   27.1249 N   0  0  0  0  0  0  0  0  0  0  0  0
    5.9965  -12.9359   26.7479 C   0  0  0  0  0  0  0  0  0  0  0  0
    6.3260  -11.5960   26.7833 C   0  0  0  0  0  0  0  0  0  0  0  0
    7.5365  -11.1113   26.3345 C   0  0  0  0  0  0  0  0  0  0  0  0
    8.4409  -12.0233   25.8328 C   0  0  0  0  0  0  0  0  0  0  0  0
    8.1421  -13.3679   25.7836 C   0  0  0  0  0  0  0  0  0  0  0  0
    6.9135  -13.8308   26.2431 C   0  0  0  0  0  0  0  0  0  0  0  0
    7.2537  -16.7625   23.5561 C   0  0  0  0  0  0  0  0  0  0  0  0
    8.2191  -17.5588   23.4316 O   0  0  0  0  0  0  0  0  0  0  0  0
    7.1492  -15.7343   22.5738 N   0  0  0  0  0  0  0  0  0  0  0  0
    8.1419  -15.5093   21.5633 C   0  0  1  0  0  0  0  0  0  0  0  0
    7.9053  -14.4626   20.5609 C   0  0  0  0  0  0  0  0  0  0  0  0
    8.9054  -14.3764   19.4824 C   0  0  0  0  0  0  0  0  0  0  0  0
    8.3524  -14.0626   18.1322 C   0  0  0  0  0  0  0  0  0  0  0  0
    9.5384  -14.0167   17.1462 C   0  0  0  0  0  0  0  0  0  0  0  0
    9.0114  -13.5166   15.8745 N   0  0  0  0  0  0  0  0  0  0  0  0
    9.4209  -15.2192   22.3478 C   0  0  0  0  0  0  0  0  0  0  0  0
    9.5576  -14.1382   22.9564 O   0  0  0  0  0  0  0  0  0  0  0  0
    9.8767  -15.1655   27.1240 C   0  0  0  0  0  0  0  0  0  0  0  0
   11.6402  -14.7141   27.0912 S   0  0  0  0  0  0  0  0  0  0  0  0
   12.3069  -15.1847   25.5015 C   0  0  0  0  0  0  0  0  0  0  0  0
   11.2730  -15.4156   24.4703 C   0  0  0  0  0  0  0  0  0  0  0  0
   11.7037  -15.7955   23.0935 C   0  0  2  0  0  0  0  0  0  0  0  0
   10.4603  -16.1693   22.3932 N   0  0  0  0  0  0  0  0  0  0  0  0
   12.6959  -16.8621   22.9578 C   0  0  0  0  0  0  0  0  0  0  0  0
   12.4490  -17.9942   22.4772 O   0  0  0  0  0  0  0  0  0  0  0  0
   14.0289  -16.6869   23.3668 O   0  0  0  0  0  0  0  0  0  0  0  0
  2  1  1  1
  2  3  1  0
  4  5  2  0
  4  3  1  0
  6  5  1  0
  7 12  2  0
  7  6  1  0
  8  7  1  0
  9  8  2  0
  9 10  1  0
 10 11  2  0
 11 12  1  0
 12  4  1  0
 13  2  1  0
 13 14  2  0
 15 13  1  0
 16 15  1  0
 16 17  1  6
 18 17  1  0
 19 18  1  0
 20 19  1  0
 21 20  1  0
 22 29  1  0
 22 16  1  0
 23 22  2  0
 24 25  1  0
 25 26  1  0
 26 27  1  0
 28 29  1  0
 28 27  1  1
 30 32  1  0
 30 28  1  0
 31 30  2  0
M  END
$$$$
