WKM.pdb
     RDKit          3D

 32 33  0  0  1  0  0  0  0  0999 V2000
    6.5243  -18.4111   24.7305 N   0  0  0  0  0  0  0  0  0  0  0  0
    6.6695  -17.0060   24.4717 C   0  0  1  0  0  0  0  0  0  0  0  0
    7.3674  -16.2744   25.5918 C   0  0  0  0  0  0  0  0  0  0  0  0
    6.5967  -15.1753   26.1670 C   0  0  0  0  0  0  0  0  0  0  0  0
    5.4060  -15.2712   26.8534 C   0  0  0  0  0  0  0  0  0  0  0  0
    5.0553  -14.0209   27.1996 N   0  0  0  0  0  0  0  0  0  0  0  0
    5.9833  -13.1421   26.7553 C   0  0  0  0  0  0  0  0  0  0  0  0
    6.0963  -11.7693   26.8443 C   0  0  0  0  0  0  0  0  0  0  0  0
    7.1546  -11.0694   26.3041 C   0  0  0  0  0  0  0  0  0  0  0  0
    8.1298  -11.7935   25.6513 C   0  0  0  0  0  0  0  0  0  0  0  0
    8.0462  -13.1651   25.5452 C   0  0  0  0  0  0  0  0  0  0  0  0
    6.9679  -13.8470   26.0994 C   0  0  0  0  0  0  0  0  0  0  0  0
    7.4136  -16.7327   23.2310 C   0  0  0  0  0  0  0  0  0  0  0  0
    8.4319  -17.4249   22.9748 O   0  0  0  0  0  0  0  0  0  0  0  0
    7.0718  -15.7303   22.2763 N   0  0  0  0  0  0  0  0  0  0  0  0
    8.0175  -15.1653   21.3578 C   0  0  1  0  0  0  0  0  0  0  0  0
    7.6442  -13.9548   20.6147 C   0  0  0  0  0  0  0  0  0  0  0  0
    8.5069  -13.6205   19.4681 C   0  0  0  0  0  0  0  0  0  0  0  0
    8.0177  -14.1103   18.1459 C   0  0  0  0  0  0  0  0  0  0  0  0
    9.0529  -13.6854   17.0836 C   0  0  0  0  0  0  0  0  0  0  0  0
    8.5354  -14.1302   15.7878 N   0  0  0  0  0  0  0  0  0  0  0  0
    9.2622  -14.9092   22.2065 C   0  0  0  0  0  0  0  0  0  0  0  0
    9.3790  -13.8482   22.8532 O   0  0  0  0  0  0  0  0  0  0  0  0
    9.1605  -15.6117   27.2284 C   0  0  0  0  0  0  0  0  0  0  0  0
   10.7686  -16.4651   27.2501 S   0  0  0  0  0  0  0  0  0  0  0  0
   11.6441  -16.0433   25.7505 C   0  0  0  0  0  0  0  0  0  0  0  0
   10.7617  -15.8785   24.5758 C   0  0  0  0  0  0  0  0  0  0  0  0
   11.3813  -15.6463   23.2388 C   0  0  2  0  0  0  0  0  0  0  0  0
   10.2924  -15.8684   22.2688 N   0  0  0  0  0  0  0  0  0  0  0  0
   12.5476  -16.4522   22.8768 C   0  0  0  0  0  0  0  0  0  0  0  0
   12.5645  -17.2796   21.9342 O   0  0  0  0  0  0  0  0  0  0  0  0
   13.7611  -16.3517   23.5785 O   0  0  0  0  0  0  0  0  0  0  0  0
  2  1  1  1
  2  3  1  0
  4  5  2  0
  4  3  1  0
  6  5  1  0
  7 12  2  0
  7  6  1  0
  8  7  1  0
  9  8  2  0
  9 10  1  0
 10 11  2  0
 11 12  1  0
 12  4  1  0
 13  2  1  0
 13 14  2  0
 15 13  1  0
 16 15  1  0
 16 17  1  1
 18 17  1  0
 19 18  1  0
 20 19  1  0
 21 20  1  0
 22 29  1  0
 22 16  1  0
 23 22  2  0
 24 25  1  0
 25 26  1  0
 26 27  1  0
 28 29  1  0
 28 27  1  1
 30 32  1  0
 30 28  1  0
 31 30  2  0
M  END
$$$$
