FDS.pdb
     RDKit          3D

 26 26  0  0  1  0  0  0  0  0999 V2000
    7.3897  -15.2799   20.9190 N   0  0  0  0  0  0  0  0  0  0  0  0
    7.7156  -14.7347   22.2102 C   0  0  1  0  0  0  0  0  0  0  0  0
    6.4798  -14.4179   23.0224 C   0  0  0  0  0  0  0  0  0  0  0  0
    6.7701  -13.9749   24.3874 C   0  0  0  0  0  0  0  0  0  0  0  0
    7.4026  -12.7809   24.6178 C   0  0  0  0  0  0  0  0  0  0  0  0
    7.6824  -12.3536   25.9213 C   0  0  0  0  0  0  0  0  0  0  0  0
    7.3133  -13.1498   26.9679 C   0  0  0  0  0  0  0  0  0  0  0  0
    6.6770  -14.3531   26.7596 C   0  0  0  0  0  0  0  0  0  0  0  0
    6.4086  -14.7583   25.4544 C   0  0  0  0  0  0  0  0  0  0  0  0
    8.4944  -15.7296   22.9719 C   0  0  0  0  0  0  0  0  0  0  0  0
    8.0695  -16.8901   23.1073 O   0  0  0  0  0  0  0  0  0  0  0  0
    9.7203  -15.3737   23.5492 N   0  0  0  0  0  0  0  0  0  0  0  0
   10.5880  -16.2827   24.2563 C   0  0  1  0  0  0  0  0  0  0  0  0
   12.0378  -16.0073   24.0623 C   0  0  0  0  0  0  0  0  0  0  0  0
   12.5568  -16.3412   22.7365 C   0  0  0  0  0  0  0  0  0  0  0  0
   11.9474  -17.2390   22.0842 O   0  0  0  0  0  0  0  0  0  0  0  0
   10.1696  -16.3378   25.6658 C   0  0  0  0  0  0  0  0  0  0  0  0
   10.5421  -15.4820   26.5109 O   0  0  0  0  0  0  0  0  0  0  0  0
   13.6517  -15.7690   22.1257 O   0  0  0  0  0  0  0  0  0  0  0  0
    7.3662  -19.1124   26.8425 O   0  0  0  0  0  0  0  0  0  0  0  0
    7.5035  -17.9400   27.6090 C   0  0  0  0  0  0  0  0  0  0  0  0
    8.9464  -17.4462   27.5695 C   0  0  2  0  0  0  0  0  0  0  0  0
    9.3075  -17.3736   26.1691 N   0  0  0  0  0  0  0  0  0  0  0  0
    9.8206  -18.4218   28.2380 C   0  0  0  0  0  0  0  0  0  0  0  0
   10.8083  -19.1140   27.5598 O   0  0  0  0  0  0  0  0  0  0  0  0
    9.6757  -18.6422   29.4626 O   0  0  0  0  0  0  0  0  0  0  0  0
  2  1  1  6
  2 10  1  0
  3  2  1  0
  4  5  2  0
  4  3  1  0
  6  5  1  0
  7  6  2  0
  8  7  1  0
  8  9  2  0
  9  4  1  0
 10 11  2  0
 10 12  1  0
 12 13  1  0
 13 14  1  1
 14 15  1  0
 15 16  2  0
 15 19  1  0
 17 13  1  0
 17 18  2  0
 20 21  1  0
 22 21  1  6
 22 24  1  0
 22 23  1  0
 23 17  1  0
 24 25  1  0
 26 24  2  0
M  END
$$$$
