FDS.pdb
     RDKit          3D

 26 26  0  0  1  0  0  0  0  0999 V2000
    5.5432  -17.3338   23.9570 N   0  0  0  0  0  0  0  0  0  0  0  0
    6.5690  -16.3607   24.2252 C   0  0  1  0  0  0  0  0  0  0  0  0
    6.4702  -15.8015   25.6269 C   0  0  0  0  0  0  0  0  0  0  0  0
    6.5695  -14.3419   25.6865 C   0  0  0  0  0  0  0  0  0  0  0  0
    5.7205  -13.6129   26.4782 C   0  0  0  0  0  0  0  0  0  0  0  0
    5.8116  -12.2172   26.5381 C   0  0  0  0  0  0  0  0  0  0  0  0
    6.7660  -11.5878   25.7906 C   0  0  0  0  0  0  0  0  0  0  0  0
    7.6292  -12.3002   24.9885 C   0  0  0  0  0  0  0  0  0  0  0  0
    7.5204  -13.6880   24.9443 C   0  0  0  0  0  0  0  0  0  0  0  0
    7.8901  -17.0064   24.1057 C   0  0  0  0  0  0  0  0  0  0  0  0
    8.0418  -18.1938   24.4415 O   0  0  0  0  0  0  0  0  0  0  0  0
    8.9853  -16.2854   23.6122 N   0  0  0  0  0  0  0  0  0  0  0  0
   10.3191  -16.8149   23.4715 C   0  0  1  0  0  0  0  0  0  0  0  0
   11.1335  -16.1307   22.4303 C   0  0  0  0  0  0  0  0  0  0  0  0
   12.4550  -16.7130   22.2000 C   0  0  0  0  0  0  0  0  0  0  0  0
   12.5832  -17.9569   22.3970 O   0  0  0  0  0  0  0  0  0  0  0  0
   10.9537  -16.8598   24.7981 C   0  0  0  0  0  0  0  0  0  0  0  0
   11.6057  -15.8886   25.2640 O   0  0  0  0  0  0  0  0  0  0  0  0
   13.5805  -16.0335   21.7866 O   0  0  0  0  0  0  0  0  0  0  0  0
    9.6802  -19.3685   27.6204 O   0  0  0  0  0  0  0  0  0  0  0  0
   10.5392  -18.3144   27.9833 C   0  0  0  0  0  0  0  0  0  0  0  0
   11.5918  -18.0912   26.9017 C   0  0  2  0  0  0  0  0  0  0  0  0
   10.8700  -18.0170   25.6487 N   0  0  0  0  0  0  0  0  0  0  0  0
   12.5065  -19.2419   26.8583 C   0  0  0  0  0  0  0  0  0  0  0  0
   12.6207  -20.0522   25.7425 O   0  0  0  0  0  0  0  0  0  0  0  0
   13.2115  -19.5076   27.8591 O   0  0  0  0  0  0  0  0  0  0  0  0
  2  1  1  1
  2 10  1  0
  3  2  1  0
  4  5  2  0
  4  3  1  0
  6  5  1  0
  7  6  2  0
  8  7  1  0
  8  9  2  0
  9  4  1  0
 10 11  2  0
 10 12  1  0
 12 13  1  0
 13 14  1  6
 14 15  1  0
 15 16  2  0
 15 19  1  0
 17 13  1  0
 17 18  2  0
 20 21  1  0
 22 21  1  1
 22 24  1  0
 22 23  1  0
 23 17  1  0
 24 25  1  0
 26 24  2  0
M  END
$$$$
