FDS.pdb
     RDKit          3D

 26 26  0  0  1  0  0  0  0  0999 V2000
    5.7756  -16.6609   25.1827 N   0  0  0  0  0  0  0  0  0  0  0  0
    6.5908  -16.3215   24.0465 C   0  0  1  0  0  0  0  0  0  0  0  0
    6.6256  -14.8304   23.7963 C   0  0  0  0  0  0  0  0  0  0  0  0
    6.8800  -14.0373   25.0004 C   0  0  0  0  0  0  0  0  0  0  0  0
    5.8801  -13.7977   25.9068 C   0  0  0  0  0  0  0  0  0  0  0  0
    6.1187  -13.0397   27.0593 C   0  0  0  0  0  0  0  0  0  0  0  0
    7.3720  -12.5386   27.2690 C   0  0  0  0  0  0  0  0  0  0  0  0
    8.3913  -12.7668   26.3718 C   0  0  0  0  0  0  0  0  0  0  0  0
    8.1311  -13.5237   25.2319 C   0  0  0  0  0  0  0  0  0  0  0  0
    7.9784  -16.7530   24.3015 C   0  0  0  0  0  0  0  0  0  0  0  0
    8.2596  -17.3865   25.3337 O   0  0  0  0  0  0  0  0  0  0  0  0
    8.9910  -16.4519   23.3814 N   0  0  0  0  0  0  0  0  0  0  0  0
   10.3469  -16.9347   23.4675 C   0  0  1  0  0  0  0  0  0  0  0  0
   11.2013  -16.5438   22.3131 C   0  0  0  0  0  0  0  0  0  0  0  0
   12.5394  -17.1340   22.3086 C   0  0  0  0  0  0  0  0  0  0  0  0
   12.6387  -18.3489   22.6506 O   0  0  0  0  0  0  0  0  0  0  0  0
   10.9005  -16.5621   24.7788 C   0  0  0  0  0  0  0  0  0  0  0  0
   11.2971  -15.3945   25.0332 O   0  0  0  0  0  0  0  0  0  0  0  0
   13.7090  -16.4907   21.9660 O   0  0  0  0  0  0  0  0  0  0  0  0
    9.4075  -17.1350   28.1727 O   0  0  0  0  0  0  0  0  0  0  0  0
   10.5036  -16.3157   27.8437 C   0  0  0  0  0  0  0  0  0  0  0  0
   11.5821  -17.1310   27.1369 C   0  0  2  0  0  0  0  0  0  0  0  0
   11.0243  -17.5085   25.8551 N   0  0  0  0  0  0  0  0  0  0  0  0
   11.8671  -18.3486   27.9107 C   0  0  0  0  0  0  0  0  0  0  0  0
   11.6828  -19.6160   27.3870 O   0  0  0  0  0  0  0  0  0  0  0  0
   12.2917  -18.2478   29.0849 O   0  0  0  0  0  0  0  0  0  0  0  0
  2  1  1  1
  2 10  1  0
  3  2  1  0
  4  5  2  0
  4  3  1  0
  6  5  1  0
  7  6  2  0
  8  7  1  0
  8  9  2  0
  9  4  1  0
 10 11  2  0
 10 12  1  0
 12 13  1  0
 13 14  1  6
 14 15  1  0
 15 16  2  0
 15 19  1  0
 17 13  1  0
 17 18  2  0
 20 21  1  0
 22 21  1  1
 22 24  1  0
 22 23  1  0
 23 17  1  0
 24 25  1  0
 26 24  2  0
M  END
$$$$
