FDS.pdb
     RDKit          3D

 26 26  0  0  1  0  0  0  0  0999 V2000
    6.2947  -16.5290   24.7722 N   0  0  0  0  0  0  0  0  0  0  0  0
    7.4771  -15.7485   24.5201 C   0  0  1  0  0  0  0  0  0  0  0  0
    8.0017  -15.0886   25.7757 C   0  0  0  0  0  0  0  0  0  0  0  0
    7.4936  -13.7313   25.9836 C   0  0  0  0  0  0  0  0  0  0  0  0
    6.3554  -13.5128   26.7156 C   0  0  0  0  0  0  0  0  0  0  0  0
    5.8659  -12.2168   26.9167 C   0  0  0  0  0  0  0  0  0  0  0  0
    6.5440  -11.1653   26.3687 C   0  0  0  0  0  0  0  0  0  0  0  0
    7.6893  -11.3616   25.6300 C   0  0  0  0  0  0  0  0  0  0  0  0
    8.1582  -12.6597   25.4428 C   0  0  0  0  0  0  0  0  0  0  0  0
    8.5429  -16.6355   24.0161 C   0  0  0  0  0  0  0  0  0  0  0  0
    8.6191  -17.8124   24.4096 O   0  0  0  0  0  0  0  0  0  0  0  0
    9.4783  -16.1577   23.0890 N   0  0  0  0  0  0  0  0  0  0  0  0
   10.5905  -16.9208   22.5793 C   0  0  1  0  0  0  0  0  0  0  0  0
   11.1630  -16.3825   21.3151 C   0  0  0  0  0  0  0  0  0  0  0  0
   10.3011  -16.5174   20.1414 C   0  0  0  0  0  0  0  0  0  0  0  0
   10.1746  -15.5027   19.3949 O   0  0  0  0  0  0  0  0  0  0  0  0
   11.5757  -17.1007   23.6570 C   0  0  0  0  0  0  0  0  0  0  0  0
   12.2415  -16.1402   24.1256 O   0  0  0  0  0  0  0  0  0  0  0  0
    9.6094  -17.6494   19.7681 O   0  0  0  0  0  0  0  0  0  0  0  0
   12.1961  -20.8589   25.0116 O   0  0  0  0  0  0  0  0  0  0  0  0
   12.4959  -19.8782   25.9756 C   0  0  0  0  0  0  0  0  0  0  0  0
   12.8217  -18.5506   25.2984 C   0  0  2  0  0  0  0  0  0  0  0  0
   11.8419  -18.3863   24.2450 N   0  0  0  0  0  0  0  0  0  0  0  0
   14.1621  -18.6189   24.6972 C   0  0  0  0  0  0  0  0  0  0  0  0
   15.3114  -18.6999   25.4635 O   0  0  0  0  0  0  0  0  0  0  0  0
   14.2802  -18.6041   23.4503 O   0  0  0  0  0  0  0  0  0  0  0  0
  2  1  1  1
  2 10  1  0
  3  2  1  0
  4  5  2  0
  4  3  1  0
  6  5  1  0
  7  6  2  0
  8  7  1  0
  8  9  2  0
  9  4  1  0
 10 11  2  0
 10 12  1  0
 12 13  1  0
 13 14  1  6
 14 15  1  0
 15 16  2  0
 15 19  1  0
 17 13  1  0
 17 18  2  0
 20 21  1  0
 22 21  1  6
 22 24  1  0
 22 23  1  0
 23 17  1  0
 24 25  1  0
 26 24  2  0
M  END
$$$$
