FDS.pdb
     RDKit          3D

 26 26  0  0  1  0  0  0  0  0999 V2000
    6.4477  -16.2771   24.8659 N   0  0  0  0  0  0  0  0  0  0  0  0
    7.6397  -15.5889   24.4461 C   0  0  1  0  0  0  0  0  0  0  0  0
    8.2572  -14.7843   25.5679 C   0  0  0  0  0  0  0  0  0  0  0  0
    7.4943  -13.5857   25.9216 C   0  0  0  0  0  0  0  0  0  0  0  0
    7.6693  -12.4140   25.2320 C   0  0  0  0  0  0  0  0  0  0  0  0
    6.9423  -11.2655   25.5669 C   0  0  0  0  0  0  0  0  0  0  0  0
    6.0494  -11.3299   26.5985 C   0  0  0  0  0  0  0  0  0  0  0  0
    5.8576  -12.4963   27.3048 C   0  0  0  0  0  0  0  0  0  0  0  0
    6.5918  -13.6268   26.9543 C   0  0  0  0  0  0  0  0  0  0  0  0
    8.6442  -16.5807   24.0171 C   0  0  0  0  0  0  0  0  0  0  0  0
    8.6174  -17.7382   24.4702 O   0  0  0  0  0  0  0  0  0  0  0  0
    9.6370  -16.2253   23.0948 N   0  0  0  0  0  0  0  0  0  0  0  0
   10.8050  -17.0183   22.8014 C   0  0  1  0  0  0  0  0  0  0  0  0
   11.5644  -16.5558   21.6077 C   0  0  0  0  0  0  0  0  0  0  0  0
   10.8365  -16.6426   20.3423 C   0  0  0  0  0  0  0  0  0  0  0  0
   10.2871  -17.7486   20.0638 O   0  0  0  0  0  0  0  0  0  0  0  0
   11.6173  -17.1357   24.0225 C   0  0  0  0  0  0  0  0  0  0  0  0
   12.1924  -16.1448   24.5446 O   0  0  0  0  0  0  0  0  0  0  0  0
   10.6905  -15.6301   19.4188 O   0  0  0  0  0  0  0  0  0  0  0  0
   10.9589  -20.1346   26.5233 O   0  0  0  0  0  0  0  0  0  0  0  0
   11.6731  -19.0146   26.9884 C   0  0  0  0  0  0  0  0  0  0  0  0
   12.6072  -18.4920   25.9013 C   0  0  2  0  0  0  0  0  0  0  0  0
   11.8068  -18.3912   24.6988 N   0  0  0  0  0  0  0  0  0  0  0  0
   13.6905  -19.4602   25.6739 C   0  0  0  0  0  0  0  0  0  0  0  0
   14.6045  -19.7898   26.6590 O   0  0  0  0  0  0  0  0  0  0  0  0
   13.7997  -20.0119   24.5546 O   0  0  0  0  0  0  0  0  0  0  0  0
  2  1  1  1
  2 10  1  0
  3  2  1  0
  4  5  2  0
  4  3  1  0
  6  5  1  0
  7  6  2  0
  8  7  1  0
  8  9  2  0
  9  4  1  0
 10 11  2  0
 10 12  1  0
 12 13  1  0
 13 14  1  6
 14 15  1  0
 15 16  2  0
 15 19  1  0
 17 13  1  0
 17 18  2  0
 20 21  1  0
 22 21  1  1
 22 24  1  0
 22 23  1  0
 23 17  1  0
 24 25  1  0
 26 24  2  0
M  END
$$$$
