FDS.pdb
     RDKit          3D

 26 26  0  0  1  0  0  0  0  0999 V2000
    7.6513  -17.3678   18.7069 N   0  0  0  0  0  0  0  0  0  0  0  0
    8.0003  -16.2900   19.5943 C   0  0  1  0  0  0  0  0  0  0  0  0
    6.7812  -15.5509   20.0988 C   0  0  0  0  0  0  0  0  0  0  0  0
    7.0876  -14.5174   21.0895 C   0  0  0  0  0  0  0  0  0  0  0  0
    6.9224  -14.7584   22.4287 C   0  0  0  0  0  0  0  0  0  0  0  0
    7.2139  -13.7730   23.3795 C   0  0  0  0  0  0  0  0  0  0  0  0
    7.6687  -12.5588   22.9499 C   0  0  0  0  0  0  0  0  0  0  0  0
    7.8419  -12.2949   21.6096 C   0  0  0  0  0  0  0  0  0  0  0  0
    7.5457  -13.2901   20.6813 C   0  0  0  0  0  0  0  0  0  0  0  0
    8.6948  -16.8411   20.7735 C   0  0  0  0  0  0  0  0  0  0  0  0
    8.3122  -17.9070   21.2867 O   0  0  0  0  0  0  0  0  0  0  0  0
    9.7921  -16.1666   21.3247 N   0  0  0  0  0  0  0  0  0  0  0  0
   10.6695  -16.7131   22.3300 C   0  0  1  0  0  0  0  0  0  0  0  0
   12.1002  -16.3452   22.1471 C   0  0  0  0  0  0  0  0  0  0  0  0
   13.0299  -17.0144   23.0562 C   0  0  0  0  0  0  0  0  0  0  0  0
   14.0445  -16.3584   23.4346 O   0  0  0  0  0  0  0  0  0  0  0  0
   10.1297  -16.3861   23.6590 C   0  0  0  0  0  0  0  0  0  0  0  0
   10.2358  -15.2372   24.1631 O   0  0  0  0  0  0  0  0  0  0  0  0
   12.9068  -18.2977   23.5432 O   0  0  0  0  0  0  0  0  0  0  0  0
    7.2247  -18.6108   25.4857 O   0  0  0  0  0  0  0  0  0  0  0  0
    7.5327  -17.2947   25.8778 C   0  0  0  0  0  0  0  0  0  0  0  0
    9.0401  -17.0649   25.8272 C   0  0  2  0  0  0  0  0  0  0  0  0
    9.4453  -17.3588   24.4685 N   0  0  0  0  0  0  0  0  0  0  0  0
    9.7132  -18.0018   26.7393 C   0  0  0  0  0  0  0  0  0  0  0  0
    9.5624  -17.9313   28.1129 O   0  0  0  0  0  0  0  0  0  0  0  0
   10.4506  -18.8983   26.2686 O   0  0  0  0  0  0  0  0  0  0  0  0
  2  1  1  6
  2 10  1  0
  3  2  1  0
  4  5  2  0
  4  3  1  0
  6  5  1  0
  7  6  2  0
  8  7  1  0
  8  9  2  0
  9  4  1  0
 10 11  2  0
 10 12  1  0
 12 13  1  0
 13 14  1  1
 14 15  1  0
 15 16  2  0
 15 19  1  0
 17 13  1  0
 17 18  2  0
 20 21  1  0
 22 21  1  6
 22 24  1  0
 22 23  1  0
 23 17  1  0
 24 25  1  0
 26 24  2  0
M  END
$$$$
