FDS.pdb
     RDKit          3D

 26 26  0  0  1  0  0  0  0  0999 V2000
    5.9641  -16.5678   25.1066 N   0  0  0  0  0  0  0  0  0  0  0  0
    7.0958  -15.7543   24.7483 C   0  0  1  0  0  0  0  0  0  0  0  0
    7.6124  -14.9504   25.9205 C   0  0  0  0  0  0  0  0  0  0  0  0
    7.0269  -13.6122   26.0202 C   0  0  0  0  0  0  0  0  0  0  0  0
    7.4254  -12.6075   25.1771 C   0  0  0  0  0  0  0  0  0  0  0  0
    6.8685  -11.3265   25.2691 C   0  0  0  0  0  0  0  0  0  0  0  0
    5.9151  -11.0904   26.2183 C   0  0  0  0  0  0  0  0  0  0  0  0
    5.4998  -12.0847   27.0755 C   0  0  0  0  0  0  0  0  0  0  0  0
    6.0676  -13.3518   26.9660 C   0  0  0  0  0  0  0  0  0  0  0  0
    8.1965  -16.6286   24.3005 C   0  0  0  0  0  0  0  0  0  0  0  0
    8.3325  -17.7656   24.7849 O   0  0  0  0  0  0  0  0  0  0  0  0
    9.0980  -16.1838   23.3248 N   0  0  0  0  0  0  0  0  0  0  0  0
   10.3052  -16.8763   22.9475 C   0  0  1  0  0  0  0  0  0  0  0  0
   10.9797  -16.3049   21.7500 C   0  0  0  0  0  0  0  0  0  0  0  0
   12.1118  -17.0839   21.2496 C   0  0  0  0  0  0  0  0  0  0  0  0
   12.8155  -16.5630   20.3352 O   0  0  0  0  0  0  0  0  0  0  0  0
   11.1742  -16.9926   24.1290 C   0  0  0  0  0  0  0  0  0  0  0  0
   11.8808  -16.0350   24.5399 O   0  0  0  0  0  0  0  0  0  0  0  0
   12.4879  -18.3378   21.6805 O   0  0  0  0  0  0  0  0  0  0  0  0
   10.4529  -19.7323   26.9098 O   0  0  0  0  0  0  0  0  0  0  0  0
   11.3418  -18.6857   27.2185 C   0  0  0  0  0  0  0  0  0  0  0  0
   12.1929  -18.3360   26.0016 C   0  0  2  0  0  0  0  0  0  0  0  0
   11.2723  -18.2088   24.8912 N   0  0  0  0  0  0  0  0  0  0  0  0
   13.1293  -19.4349   25.7219 C   0  0  0  0  0  0  0  0  0  0  0  0
   13.0690  -20.1770   24.5556 O   0  0  0  0  0  0  0  0  0  0  0  0
   14.0159  -19.7181   26.5602 O   0  0  0  0  0  0  0  0  0  0  0  0
  2  1  1  1
  2 10  1  0
  3  2  1  0
  4  5  2  0
  4  3  1  0
  6  5  1  0
  7  6  2  0
  8  7  1  0
  8  9  2  0
  9  4  1  0
 10 11  2  0
 10 12  1  0
 12 13  1  0
 13 14  1  6
 14 15  1  0
 15 16  2  0
 15 19  1  0
 17 13  1  0
 17 18  2  0
 20 21  1  0
 22 21  1  1
 22 24  1  0
 22 23  1  0
 23 17  1  0
 24 25  1  0
 26 24  2  0
M  END
$$$$
