FDS.pdb
     RDKit          3D

 26 26  0  0  1  0  0  0  0  0999 V2000
    8.0725  -17.4188   20.4905 N   0  0  0  0  0  0  0  0  0  0  0  0
    9.3141  -16.7269   20.7150 C   0  0  1  0  0  0  0  0  0  0  0  0
    9.1226  -15.4615   21.5208 C   0  0  0  0  0  0  0  0  0  0  0  0
    8.4629  -14.3854   20.7788 C   0  0  0  0  0  0  0  0  0  0  0  0
    9.1941  -13.4931   20.0385 C   0  0  0  0  0  0  0  0  0  0  0  0
    8.5675  -12.4625   19.3278 C   0  0  0  0  0  0  0  0  0  0  0  0
    7.2067  -12.3583   19.3833 C   0  0  0  0  0  0  0  0  0  0  0  0
    6.4525  -13.2434   20.1206 C   0  0  0  0  0  0  0  0  0  0  0  0
    7.0970  -14.2611   20.8198 C   0  0  0  0  0  0  0  0  0  0  0  0
   10.2214  -17.6000   21.4838 C   0  0  0  0  0  0  0  0  0  0  0  0
    9.7664  -18.5398   22.1588 O   0  0  0  0  0  0  0  0  0  0  0  0
   11.6041  -17.3765   21.4591 N   0  0  0  0  0  0  0  0  0  0  0  0
   12.5816  -18.2137   22.1094 C   0  0  1  0  0  0  0  0  0  0  0  0
   13.9753  -17.9946   21.6351 C   0  0  0  0  0  0  0  0  0  0  0  0
   14.9801  -18.8584   22.2539 C   0  0  0  0  0  0  0  0  0  0  0  0
   15.7888  -18.3189   23.0649 O   0  0  0  0  0  0  0  0  0  0  0  0
   12.4160  -18.0919   23.5663 C   0  0  0  0  0  0  0  0  0  0  0  0
   12.6096  -17.0074   24.1759 O   0  0  0  0  0  0  0  0  0  0  0  0
   15.1319  -20.2109   22.0375 O   0  0  0  0  0  0  0  0  0  0  0  0
   10.2934  -20.8271   25.6620 O   0  0  0  0  0  0  0  0  0  0  0  0
   10.5682  -19.5703   26.2325 C   0  0  0  0  0  0  0  0  0  0  0  0
   11.9624  -19.0987   25.8311 C   0  0  2  0  0  0  0  0  0  0  0  0
   12.0220  -19.2048   24.3882 N   0  0  0  0  0  0  0  0  0  0  0  0
   12.9733  -19.9914   26.4175 C   0  0  0  0  0  0  0  0  0  0  0  0
   13.1788  -20.0774   27.7832 O   0  0  0  0  0  0  0  0  0  0  0  0
   13.6785  -20.7029   25.6655 O   0  0  0  0  0  0  0  0  0  0  0  0
  2  1  1  1
  2 10  1  0
  3  2  1  0
  4  5  2  0
  4  3  1  0
  6  5  1  0
  7  6  2  0
  8  7  1  0
  8  9  2  0
  9  4  1  0
 10 11  2  0
 10 12  1  0
 12 13  1  0
 13 14  1  1
 14 15  1  0
 15 16  2  0
 15 19  1  0
 17 13  1  0
 17 18  2  0
 20 21  1  0
 22 21  1  1
 22 24  1  0
 22 23  1  0
 23 17  1  0
 24 25  1  0
 26 24  2  0
M  END
$$$$
