FDS.pdb
     RDKit          3D

 26 26  0  0  1  0  0  0  0  0999 V2000
    6.2915  -17.8978   23.9342 N   0  0  0  0  0  0  0  0  0  0  0  0
    6.9591  -16.6629   24.2505 C   0  0  1  0  0  0  0  0  0  0  0  0
    6.4597  -16.0614   25.5451 C   0  0  0  0  0  0  0  0  0  0  0  0
    6.7264  -14.6271   25.6692 C   0  0  0  0  0  0  0  0  0  0  0  0
    6.4755  -13.9660   26.8434 C   0  0  0  0  0  0  0  0  0  0  0  0
    6.7287  -12.5947   26.9665 C   0  0  0  0  0  0  0  0  0  0  0  0
    7.2334  -11.9200   25.8914 C   0  0  0  0  0  0  0  0  0  0  0  0
    7.4930  -12.5640   24.7023 C   0  0  0  0  0  0  0  0  0  0  0  0
    7.2334  -13.9288   24.6024 C   0  0  0  0  0  0  0  0  0  0  0  0
    8.4016  -16.9231   24.4187 C   0  0  0  0  0  0  0  0  0  0  0  0
    8.7906  -17.8879   25.0995 O   0  0  0  0  0  0  0  0  0  0  0  0
    9.3450  -16.0838   23.8119 N   0  0  0  0  0  0  0  0  0  0  0  0
   10.7684  -16.3142   23.8139 C   0  0  1  0  0  0  0  0  0  0  0  0
   11.4731  -15.7481   22.6313 C   0  0  0  0  0  0  0  0  0  0  0  0
   11.1560  -16.3930   21.3576 C   0  0  0  0  0  0  0  0  0  0  0  0
   11.0532  -17.6548   21.3560 O   0  0  0  0  0  0  0  0  0  0  0  0
   11.3176  -15.8777   25.1071 C   0  0  0  0  0  0  0  0  0  0  0  0
   12.3387  -15.1458   25.1905 O   0  0  0  0  0  0  0  0  0  0  0  0
   10.9574  -15.7551   20.1522 O   0  0  0  0  0  0  0  0  0  0  0  0
    9.3042  -15.0453   28.4814 O   0  0  0  0  0  0  0  0  0  0  0  0
   10.6436  -14.7344   28.1813 C   0  0  0  0  0  0  0  0  0  0  0  0
   11.3611  -15.9605   27.6251 C   0  0  2  0  0  0  0  0  0  0  0  0
   10.7229  -16.2594   26.3601 N   0  0  0  0  0  0  0  0  0  0  0  0
   11.1713  -17.0992   28.5362 C   0  0  0  0  0  0  0  0  0  0  0  0
   11.6856  -17.1102   29.8207 O   0  0  0  0  0  0  0  0  0  0  0  0
   10.5240  -18.0988   28.1477 O   0  0  0  0  0  0  0  0  0  0  0  0
  2  1  1  1
  2 10  1  0
  3  2  1  0
  4  5  2  0
  4  3  1  0
  6  5  1  0
  7  6  2  0
  8  7  1  0
  8  9  2  0
  9  4  1  0
 10 11  2  0
 10 12  1  0
 12 13  1  0
 13 14  1  6
 14 15  1  0
 15 16  2  0
 15 19  1  0
 17 13  1  0
 17 18  2  0
 20 21  1  0
 22 21  1  1
 22 24  1  0
 22 23  1  0
 23 17  1  0
 24 25  1  0
 26 24  2  0
M  END
$$$$
