HKI.pdb
     RDKit          3D

 28 28  0  0  1  0  0  0  0  0999 V2000
    8.3314  -16.0924   20.1643 N   0  0  0  0  0  0  0  0  0  0  0  0
    7.7910  -14.9068   20.7891 C   0  0  1  0  0  0  0  0  0  0  0  0
    6.6623  -14.3842   19.9361 C   0  0  0  0  0  0  0  0  0  0  0  0
    7.1932  -14.1147   18.5768 C   0  0  0  0  0  0  0  0  0  0  0  0
    8.0045  -13.0380   18.2219 C   0  0  0  0  0  0  0  0  0  0  0  0
    8.3078  -13.0967   16.9095 N   0  0  0  0  0  0  0  0  0  0  0  0
    7.6969  -14.1935   16.4446 C   0  0  0  0  0  0  0  0  0  0  0  0
    7.0348  -14.7987   17.4338 N   0  0  0  0  0  0  0  0  0  0  0  0
    7.3400  -15.2543   22.1519 C   0  0  0  0  0  0  0  0  0  0  0  0
    6.7411  -14.4297   22.8704 O   0  0  0  0  0  0  0  0  0  0  0  0
    7.5889  -16.5472   22.6594 N   0  0  0  0  0  0  0  0  0  0  0  0
    7.4842  -16.8964   24.0412 C   0  0  1  0  0  0  0  0  0  0  0  0
    7.5131  -18.3791   24.2816 C   0  0  0  0  0  0  0  0  0  0  0  0
    7.3625  -18.7361   25.7223 C   0  0  0  0  0  0  0  0  0  0  0  0
    7.4094  -20.2131   25.9553 C   0  0  0  0  0  0  0  0  0  0  0  0
    7.1303  -20.4296   27.4501 C   0  0  0  0  0  0  0  0  0  0  0  0
    6.9390  -21.8121   27.7696 N   0  0  0  0  0  0  0  0  0  0  0  0
    8.4523  -16.1411   24.8901 C   0  0  0  0  0  0  0  0  0  0  0  0
    9.4076  -15.6192   24.3106 O   0  0  0  0  0  0  0  0  0  0  0  0
    6.9420  -11.8270   25.9016 C   0  0  0  0  0  0  0  0  0  0  0  0
    7.9529  -12.9432   25.9102 C   0  0  0  0  0  0  0  0  0  0  0  0
    7.9872  -13.7492   27.1622 C   0  0  2  0  0  0  0  0  0  0  0  0
    8.3699  -12.8267   28.3230 C   0  0  0  0  0  0  0  0  0  0  0  0
    8.8127  -14.9831   27.1383 C   0  0  2  0  0  0  0  0  0  0  0  0
    8.3085  -16.0119   26.2884 N   0  0  0  0  0  0  0  0  0  0  0  0
    9.3327  -15.4398   28.4551 C   0  0  0  0  0  0  0  0  0  0  0  0
    8.9215  -16.6089   29.0803 O   0  0  0  0  0  0  0  0  0  0  0  0
   10.1915  -14.7903   29.1025 O   0  0  0  0  0  0  0  0  0  0  0  0
  2  1  1  6
  2  3  1  0
  2  9  1  0
  3  4  1  0
  4  5  2  0
  6  5  1  0
  7  6  1  0
  8  4  1  0
  8  7  2  0
  9 11  1  0
  9 10  2  0
 11 12  1  0
 12 13  1  6
 14 13  1  0
 15 14  1  0
 15 16  1  0
 17 16  1  0
 18 12  1  0
 18 19  2  0
 20 21  1  0
 21 22  1  0
 22 23  1  1
 22 24  1  0
 24 25  1  1
 25 18  1  0
 26 24  1  0
 27 26  1  0
 28 26  2  0
M  END
$$$$
