HKI.pdb
     RDKit          3D

 28 28  0  0  1  0  0  0  0  0999 V2000
    8.9747  -18.0754   18.1915 N   0  0  0  0  0  0  0  0  0  0  0  0
    9.4976  -17.5433   19.4290 C   0  0  1  0  0  0  0  0  0  0  0  0
   10.4406  -16.4112   19.1066 C   0  0  0  0  0  0  0  0  0  0  0  0
   11.5664  -16.9570   18.3085 C   0  0  0  0  0  0  0  0  0  0  0  0
   11.7223  -18.2903   17.9325 C   0  0  0  0  0  0  0  0  0  0  0  0
   12.8516  -18.4414   17.2118 N   0  0  0  0  0  0  0  0  0  0  0  0
   13.3991  -17.2222   17.1350 C   0  0  0  0  0  0  0  0  0  0  0  0
   12.6367  -16.3399   17.7860 N   0  0  0  0  0  0  0  0  0  0  0  0
    8.3662  -17.0995   20.2682 C   0  0  0  0  0  0  0  0  0  0  0  0
    7.2026  -17.0532   19.8222 O   0  0  0  0  0  0  0  0  0  0  0  0
    8.5995  -16.7175   21.6064 N   0  0  0  0  0  0  0  0  0  0  0  0
    7.9921  -17.3502   22.7348 C   0  0  1  0  0  0  0  0  0  0  0  0
    7.9998  -18.8500   22.6486 C   0  0  0  0  0  0  0  0  0  0  0  0
    6.7293  -19.4058   22.0985 C   0  0  0  0  0  0  0  0  0  0  0  0
    5.8866  -20.0584   23.1484 C   0  0  0  0  0  0  0  0  0  0  0  0
    4.6234  -20.5701   22.4401 C   0  0  0  0  0  0  0  0  0  0  0  0
    3.7706  -21.3082   23.3222 N   0  0  0  0  0  0  0  0  0  0  0  0
    8.5241  -16.8299   24.0289 C   0  0  0  0  0  0  0  0  0  0  0  0
    9.6449  -17.2201   24.3641 O   0  0  0  0  0  0  0  0  0  0  0  0
    6.9968  -11.4143   26.7405 C   0  0  0  0  0  0  0  0  0  0  0  0
    8.0047  -12.4935   26.4451 C   0  0  0  0  0  0  0  0  0  0  0  0
    7.4712  -13.6607   25.6892 C   0  0  2  0  0  0  0  0  0  0  0  0
    6.0511  -13.9509   26.1834 C   0  0  0  0  0  0  0  0  0  0  0  0
    8.3129  -14.8836   25.6698 C   0  0  2  0  0  0  0  0  0  0  0  0
    7.8050  -15.9344   24.8495 N   0  0  0  0  0  0  0  0  0  0  0  0
    8.8671  -15.3091   26.9830 C   0  0  0  0  0  0  0  0  0  0  0  0
    9.7564  -14.5449   27.7260 O   0  0  0  0  0  0  0  0  0  0  0  0
    8.5656  -16.4049   27.5186 O   0  0  0  0  0  0  0  0  0  0  0  0
  2  1  1  6
  2  3  1  0
  2  9  1  0
  3  4  1  0
  4  5  2  0
  6  5  1  0
  7  6  1  0
  8  4  1  0
  8  7  2  0
  9 11  1  0
  9 10  2  0
 11 12  1  0
 12 13  1  6
 14 13  1  0
 15 14  1  0
 15 16  1  0
 17 16  1  0
 18 12  1  0
 18 19  2  0
 20 21  1  0
 21 22  1  0
 22 23  1  1
 22 24  1  0
 24 25  1  1
 25 18  1  0
 26 24  1  0
 27 26  1  0
 28 26  2  0
M  END
$$$$
