HKI.pdb
     RDKit          3D

 28 28  0  0  1  0  0  0  0  0999 V2000
    6.6685  -18.5808   22.1996 N   0  0  0  0  0  0  0  0  0  0  0  0
    7.9807  -18.7213   22.7880 C   0  0  1  0  0  0  0  0  0  0  0  0
    8.6788  -19.8888   22.1364 C   0  0  0  0  0  0  0  0  0  0  0  0
    7.8528  -21.1028   22.3510 C   0  0  0  0  0  0  0  0  0  0  0  0
    6.6656  -21.1575   23.0797 C   0  0  0  0  0  0  0  0  0  0  0  0
    6.1725  -22.4123   23.0723 N   0  0  0  0  0  0  0  0  0  0  0  0
    7.0358  -23.1372   22.3503 C   0  0  0  0  0  0  0  0  0  0  0  0
    8.0340  -22.3606   21.9215 N   0  0  0  0  0  0  0  0  0  0  0  0
    8.7214  -17.4576   22.5988 C   0  0  0  0  0  0  0  0  0  0  0  0
    9.9531  -17.3903   22.7820 O   0  0  0  0  0  0  0  0  0  0  0  0
    8.0264  -16.2956   22.2017 N   0  0  0  0  0  0  0  0  0  0  0  0
    8.6386  -15.0140   22.0428 C   0  0  1  0  0  0  0  0  0  0  0  0
    7.9365  -14.1420   21.0410 C   0  0  0  0  0  0  0  0  0  0  0  0
    8.3203  -14.4515   19.6330 C   0  0  0  0  0  0  0  0  0  0  0  0
    7.6497  -13.5509   18.6444 C   0  0  0  0  0  0  0  0  0  0  0  0
    8.1019  -14.0155   17.2520 C   0  0  0  0  0  0  0  0  0  0  0  0
    7.5577  -13.2014   16.2074 N   0  0  0  0  0  0  0  0  0  0  0  0
    8.8787  -14.3362   23.3509 C   0  0  0  0  0  0  0  0  0  0  0  0
    9.1984  -13.1459   23.3077 O   0  0  0  0  0  0  0  0  0  0  0  0
    7.2023  -11.2928   27.5153 C   0  0  0  0  0  0  0  0  0  0  0  0
    8.1109  -12.4837   27.3589 C   0  0  0  0  0  0  0  0  0  0  0  0
    7.9340  -13.2460   26.0917 C   0  0  2  0  0  0  0  0  0  0  0  0
    6.4500  -13.5900   25.9353 C   0  0  0  0  0  0  0  0  0  0  0  0
    8.8024  -14.4352   25.9023 C   0  0  2  0  0  0  0  0  0  0  0  0
    8.7532  -14.9970   24.5920 N   0  0  0  0  0  0  0  0  0  0  0  0
    8.8072  -15.4179   27.0190 C   0  0  0  0  0  0  0  0  0  0  0  0
    9.1694  -15.1002   28.3209 O   0  0  0  0  0  0  0  0  0  0  0  0
    8.4799  -16.6205   26.8600 O   0  0  0  0  0  0  0  0  0  0  0  0
  2  1  1  6
  2  3  1  0
  2  9  1  0
  3  4  1  0
  4  5  2  0
  6  5  1  0
  7  6  1  0
  8  4  1  0
  8  7  2  0
  9 11  1  0
  9 10  2  0
 11 12  1  0
 12 13  1  6
 14 13  1  0
 15 14  1  0
 15 16  1  0
 17 16  1  0
 18 12  1  0
 18 19  2  0
 20 21  1  0
 21 22  1  0
 22 23  1  1
 22 24  1  0
 24 25  1  6
 25 18  1  0
 26 24  1  0
 27 26  1  0
 28 26  2  0
M  END
$$$$
