HKI.pdb
     RDKit          3D

 28 28  0  0  1  0  0  0  0  0999 V2000
    7.0941  -20.1378   23.7245 N   0  0  0  0  0  0  0  0  0  0  0  0
    6.2921  -18.9362   23.6952 C   0  0  1  0  0  0  0  0  0  0  0  0
    5.7529  -18.6825   25.0807 C   0  0  0  0  0  0  0  0  0  0  0  0
    6.7975  -19.0648   26.0631 C   0  0  0  0  0  0  0  0  0  0  0  0
    8.0582  -19.5710   25.7506 C   0  0  0  0  0  0  0  0  0  0  0  0
    8.7568  -19.8091   26.8789 N   0  0  0  0  0  0  0  0  0  0  0  0
    7.9486  -19.4586   27.8869 C   0  0  0  0  0  0  0  0  0  0  0  0
    6.7849  -19.0164   27.4036 N   0  0  0  0  0  0  0  0  0  0  0  0
    7.1309  -17.8196   23.2146 C   0  0  0  0  0  0  0  0  0  0  0  0
    8.3757  -17.8675   23.2726 O   0  0  0  0  0  0  0  0  0  0  0  0
    6.5170  -16.6689   22.6761 N   0  0  0  0  0  0  0  0  0  0  0  0
    7.2367  -15.5508   22.1523 C   0  0  1  0  0  0  0  0  0  0  0  0
    6.3686  -14.5931   21.3867 C   0  0  0  0  0  0  0  0  0  0  0  0
    7.1473  -13.5054   20.7264 C   0  0  0  0  0  0  0  0  0  0  0  0
    7.6613  -13.9043   19.3792 C   0  0  0  0  0  0  0  0  0  0  0  0
    8.4160  -12.6886   18.8210 C   0  0  0  0  0  0  0  0  0  0  0  0
    9.0342  -12.9684   17.5602 N   0  0  0  0  0  0  0  0  0  0  0  0
    8.0794  -14.8851   23.1891 C   0  0  0  0  0  0  0  0  0  0  0  0
    8.8544  -14.0104   22.7953 O   0  0  0  0  0  0  0  0  0  0  0  0
    5.8787  -11.8936   26.3776 C   0  0  0  0  0  0  0  0  0  0  0  0
    6.9050  -12.6768   25.6021 C   0  0  0  0  0  0  0  0  0  0  0  0
    7.6948  -13.6479   26.4093 C   0  0  2  0  0  0  0  0  0  0  0  0
    8.4167  -12.8811   27.5210 C   0  0  0  0  0  0  0  0  0  0  0  0
    8.6160  -14.5416   25.6629 C   0  0  2  0  0  0  0  0  0  0  0  0
    8.0148  -15.2172   24.5596 N   0  0  0  0  0  0  0  0  0  0  0  0
    9.5330  -15.3665   26.4944 C   0  0  0  0  0  0  0  0  0  0  0  0
   10.6005  -14.8433   27.2111 O   0  0  0  0  0  0  0  0  0  0  0  0
    9.4043  -16.6111   26.6074 O   0  0  0  0  0  0  0  0  0  0  0  0
  2  1  1  1
  2  3  1  0
  2  9  1  0
  3  4  1  0
  4  5  2  0
  6  5  1  0
  7  6  1  0
  8  4  1  0
  8  7  2  0
  9 11  1  0
  9 10  2  0
 11 12  1  0
 12 13  1  1
 14 13  1  0
 15 14  1  0
 15 16  1  0
 17 16  1  0
 18 12  1  0
 18 19  2  0
 20 21  1  0
 21 22  1  0
 22 23  1  1
 22 24  1  0
 24 25  1  1
 25 18  1  0
 26 24  1  0
 27 26  1  0
 28 26  2  0
M  END
$$$$
