HKI.pdb
     RDKit          3D

 28 28  0  0  1  0  0  0  0  0999 V2000
    8.4389  -16.3501   19.7420 N   0  0  0  0  0  0  0  0  0  0  0  0
    7.9798  -15.1408   20.3859 C   0  0  1  0  0  0  0  0  0  0  0  0
    6.8429  -14.5663   19.5783 C   0  0  0  0  0  0  0  0  0  0  0  0
    7.3197  -14.3556   18.1889 C   0  0  0  0  0  0  0  0  0  0  0  0
    8.0649  -13.2646   17.7440 C   0  0  0  0  0  0  0  0  0  0  0  0
    8.3325  -13.3893   16.4285 N   0  0  0  0  0  0  0  0  0  0  0  0
    7.7643  -14.5409   16.0501 C   0  0  0  0  0  0  0  0  0  0  0  0
    7.1627  -15.1155   17.0947 N   0  0  0  0  0  0  0  0  0  0  0  0
    7.5687  -15.4670   21.7664 C   0  0  0  0  0  0  0  0  0  0  0  0
    7.0079  -14.6252   22.4958 O   0  0  0  0  0  0  0  0  0  0  0  0
    7.8127  -16.7588   22.2789 N   0  0  0  0  0  0  0  0  0  0  0  0
    7.5267  -17.1519   23.6229 C   0  0  1  0  0  0  0  0  0  0  0  0
    7.5607  -18.6402   23.8250 C   0  0  0  0  0  0  0  0  0  0  0  0
    7.3045  -19.0393   25.2395 C   0  0  0  0  0  0  0  0  0  0  0  0
    7.4061  -20.5175   25.4458 C   0  0  0  0  0  0  0  0  0  0  0  0
    7.0741  -20.7772   26.9229 C   0  0  0  0  0  0  0  0  0  0  0  0
    7.1472  -22.1676   27.2570 N   0  0  0  0  0  0  0  0  0  0  0  0
    8.3479  -16.4014   24.6183 C   0  0  0  0  0  0  0  0  0  0  0  0
    9.5597  -16.3353   24.3996 O   0  0  0  0  0  0  0  0  0  0  0  0
    6.3255  -11.7487   26.2234 C   0  0  0  0  0  0  0  0  0  0  0  0
    7.2259  -12.9026   25.8688 C   0  0  0  0  0  0  0  0  0  0  0  0
    7.7168  -13.6955   27.0301 C   0  0  2  0  0  0  0  0  0  0  0  0
    8.5330  -12.7714   27.9385 C   0  0  0  0  0  0  0  0  0  0  0  0
    8.4437  -14.9524   26.7198 C   0  0  2  0  0  0  0  0  0  0  0  0
    7.7942  -15.7864   25.7619 N   0  0  0  0  0  0  0  0  0  0  0  0
    9.0387  -15.6607   27.8847 C   0  0  0  0  0  0  0  0  0  0  0  0
   10.1506  -15.2015   28.5775 O   0  0  0  0  0  0  0  0  0  0  0  0
    8.5708  -16.7388   28.3288 O   0  0  0  0  0  0  0  0  0  0  0  0
  2  1  1  6
  2  3  1  0
  2  9  1  0
  3  4  1  0
  4  5  2  0
  6  5  1  0
  7  6  1  0
  8  4  1  0
  8  7  2  0
  9 11  1  0
  9 10  2  0
 11 12  1  0
 12 13  1  6
 14 13  1  0
 15 14  1  0
 15 16  1  0
 17 16  1  0
 18 12  1  0
 18 19  2  0
 20 21  1  0
 21 22  1  0
 22 23  1  6
 22 24  1  0
 24 25  1  1
 25 18  1  0
 26 24  1  0
 27 26  1  0
 28 26  2  0
M  END
$$$$
