HKI.pdb
     RDKit          3D

 28 28  0  0  1  0  0  0  0  0999 V2000
    9.2649  -15.7817   19.6702 N   0  0  0  0  0  0  0  0  0  0  0  0
    8.4063  -14.8009   20.2936 C   0  0  1  0  0  0  0  0  0  0  0  0
    7.1493  -14.6679   19.4707 C   0  0  0  0  0  0  0  0  0  0  0  0
    7.5405  -14.3922   18.0660 C   0  0  0  0  0  0  0  0  0  0  0  0
    8.0705  -13.1930   17.5923 C   0  0  0  0  0  0  0  0  0  0  0  0
    8.3163  -13.2832   16.2697 N   0  0  0  0  0  0  0  0  0  0  0  0
    7.9466  -14.5201   15.9154 C   0  0  0  0  0  0  0  0  0  0  0  0
    7.4858  -15.1795   16.9813 N   0  0  0  0  0  0  0  0  0  0  0  0
    8.1196  -15.2341   21.6762 C   0  0  0  0  0  0  0  0  0  0  0  0
    7.3244  -14.6073   22.4040 O   0  0  0  0  0  0  0  0  0  0  0  0
    8.7563  -16.3827   22.1923 N   0  0  0  0  0  0  0  0  0  0  0  0
    8.5816  -16.8603   23.5280 C   0  0  1  0  0  0  0  0  0  0  0  0
    9.0172  -18.2867   23.7089 C   0  0  0  0  0  0  0  0  0  0  0  0
   10.4973  -18.4557   23.6290 C   0  0  0  0  0  0  0  0  0  0  0  0
   10.9200  -19.8839   23.7685 C   0  0  0  0  0  0  0  0  0  0  0  0
   12.4513  -19.9009   23.6496 C   0  0  0  0  0  0  0  0  0  0  0  0
   12.9976  -21.2026   23.8887 N   0  0  0  0  0  0  0  0  0  0  0  0
    9.1639  -15.9315   24.5412 C   0  0  0  0  0  0  0  0  0  0  0  0
   10.2605  -15.4355   24.2725 O   0  0  0  0  0  0  0  0  0  0  0  0
    6.6573  -11.7149   26.0359 C   0  0  0  0  0  0  0  0  0  0  0  0
    7.6888  -12.7860   25.7978 C   0  0  0  0  0  0  0  0  0  0  0  0
    8.0803  -13.5604   27.0083 C   0  0  2  0  0  0  0  0  0  0  0  0
    8.6714  -12.5901   28.0351 C   0  0  0  0  0  0  0  0  0  0  0  0
    8.9558  -14.7398   26.7910 C   0  0  2  0  0  0  0  0  0  0  0  0
    8.5158  -15.6161   25.7548 N   0  0  0  0  0  0  0  0  0  0  0  0
    9.4601  -15.4072   28.0210 C   0  0  0  0  0  0  0  0  0  0  0  0
   10.3373  -14.8092   28.9154 O   0  0  0  0  0  0  0  0  0  0  0  0
    9.1235  -16.5747   28.3406 O   0  0  0  0  0  0  0  0  0  0  0  0
  2  1  1  6
  2  3  1  0
  2  9  1  0
  3  4  1  0
  4  5  2  0
  6  5  1  0
  7  6  1  0
  8  4  1  0
  8  7  2  0
  9 11  1  0
  9 10  2  0
 11 12  1  0
 12 13  1  6
 14 13  1  0
 15 14  1  0
 15 16  1  0
 17 16  1  0
 18 12  1  0
 18 19  2  0
 20 21  1  0
 21 22  1  0
 22 23  1  1
 22 24  1  0
 24 25  1  1
 25 18  1  0
 26 24  1  0
 27 26  1  0
 28 26  2  0
M  END
$$$$
