HKI.pdb
     RDKit          3D

 28 28  0  0  1  0  0  0  0  0999 V2000
    6.3404  -16.3722   19.4986 N   0  0  0  0  0  0  0  0  0  0  0  0
    7.3659  -15.7996   20.3401 C   0  0  1  0  0  0  0  0  0  0  0  0
    7.4509  -14.3204   20.0580 C   0  0  0  0  0  0  0  0  0  0  0  0
    7.9752  -14.1391   18.6816 C   0  0  0  0  0  0  0  0  0  0  0  0
    7.4281  -13.3035   17.7090 C   0  0  0  0  0  0  0  0  0  0  0  0
    8.1521  -13.3746   16.5739 N   0  0  0  0  0  0  0  0  0  0  0  0
    9.1399  -14.2419   16.8271 C   0  0  0  0  0  0  0  0  0  0  0  0
    9.0358  -14.6964   18.0785 N   0  0  0  0  0  0  0  0  0  0  0  0
    7.0282  -16.0755   21.7512 C   0  0  0  0  0  0  0  0  0  0  0  0
    5.9565  -15.6831   22.2537 O   0  0  0  0  0  0  0  0  0  0  0  0
    7.9339  -16.7993   22.5555 N   0  0  0  0  0  0  0  0  0  0  0  0
    7.7144  -17.0968   23.9360 C   0  0  1  0  0  0  0  0  0  0  0  0
    7.8933  -18.5519   24.2643 C   0  0  0  0  0  0  0  0  0  0  0  0
    7.7269  -18.8430   25.7181 C   0  0  0  0  0  0  0  0  0  0  0  0
    8.0685  -20.2582   26.0625 C   0  0  0  0  0  0  0  0  0  0  0  0
    7.7599  -20.4317   27.5571 C   0  0  0  0  0  0  0  0  0  0  0  0
    8.1522  -21.7198   28.0440 N   0  0  0  0  0  0  0  0  0  0  0  0
    8.4812  -16.1885   24.8389 C   0  0  0  0  0  0  0  0  0  0  0  0
    9.6667  -15.9987   24.5572 O   0  0  0  0  0  0  0  0  0  0  0  0
    6.1975  -11.6410   26.5389 C   0  0  0  0  0  0  0  0  0  0  0  0
    7.2039  -12.6904   26.1467 C   0  0  0  0  0  0  0  0  0  0  0  0
    7.7358  -13.5031   27.2759 C   0  0  2  0  0  0  0  0  0  0  0  0
    8.4964  -12.5741   28.2264 C   0  0  0  0  0  0  0  0  0  0  0  0
    8.5330  -14.7029   26.9163 C   0  0  2  0  0  0  0  0  0  0  0  0
    7.9062  -15.5625   25.9659 N   0  0  0  0  0  0  0  0  0  0  0  0
    9.2155  -15.3891   28.0459 C   0  0  0  0  0  0  0  0  0  0  0  0
   10.2851  -14.8440   28.7429 O   0  0  0  0  0  0  0  0  0  0  0  0
    8.8675  -16.5255   28.4533 O   0  0  0  0  0  0  0  0  0  0  0  0
  2  1  1  6
  2  3  1  0
  2  9  1  0
  3  4  1  0
  4  5  2  0
  6  5  1  0
  7  6  1  0
  8  4  1  0
  8  7  2  0
  9 11  1  0
  9 10  2  0
 11 12  1  0
 12 13  1  6
 14 13  1  0
 15 14  1  0
 15 16  1  0
 17 16  1  0
 18 12  1  0
 18 19  2  0
 20 21  1  0
 21 22  1  0
 22 23  1  1
 22 24  1  0
 24 25  1  1
 25 18  1  0
 26 24  1  0
 27 26  1  0
 28 26  2  0
M  END
$$$$
