HKI.pdb
     RDKit          3D

 28 28  0  0  1  0  0  0  0  0999 V2000
    8.8539  -16.2316   19.7992 N   0  0  0  0  0  0  0  0  0  0  0  0
    8.1656  -15.0985   20.3738 C   0  0  1  0  0  0  0  0  0  0  0  0
    7.0330  -14.7072   19.4580 C   0  0  0  0  0  0  0  0  0  0  0  0
    7.5931  -14.4580   18.1065 C   0  0  0  0  0  0  0  0  0  0  0  0
    8.2801  -13.3109   17.7123 C   0  0  0  0  0  0  0  0  0  0  0  0
    8.6533  -13.4127   16.4208 N   0  0  0  0  0  0  0  0  0  0  0  0
    8.2079  -14.6056   16.0073 C   0  0  0  0  0  0  0  0  0  0  0  0
    7.5782  -15.2271   17.0076 N   0  0  0  0  0  0  0  0  0  0  0  0
    7.6857  -15.4700   21.7203 C   0  0  0  0  0  0  0  0  0  0  0  0
    6.9080  -14.7352   22.3608 O   0  0  0  0  0  0  0  0  0  0  0  0
    8.1126  -16.6827   22.3019 N   0  0  0  0  0  0  0  0  0  0  0  0
    7.8454  -17.0569   23.6550 C   0  0  1  0  0  0  0  0  0  0  0  0
    8.0190  -18.5275   23.9085 C   0  0  0  0  0  0  0  0  0  0  0  0
    7.8016  -18.8995   25.3368 C   0  0  0  0  0  0  0  0  0  0  0  0
    8.0771  -20.3459   25.6013 C   0  0  0  0  0  0  0  0  0  0  0  0
    7.7544  -20.5892   27.0831 C   0  0  0  0  0  0  0  0  0  0  0  0
    7.7957  -21.9792   27.4242 N   0  0  0  0  0  0  0  0  0  0  0  0
    8.5755  -16.1983   24.6338 C   0  0  0  0  0  0  0  0  0  0  0  0
    9.7957  -16.1015   24.4835 O   0  0  0  0  0  0  0  0  0  0  0  0
    5.8563  -11.8710   26.1175 C   0  0  0  0  0  0  0  0  0  0  0  0
    7.0881  -12.6814   25.8106 C   0  0  0  0  0  0  0  0  0  0  0  0
    7.6371  -13.4494   26.9625 C   0  0  2  0  0  0  0  0  0  0  0  0
    8.3356  -12.4700   27.9102 C   0  0  0  0  0  0  0  0  0  0  0  0
    8.4966  -14.6156   26.6373 C   0  0  2  0  0  0  0  0  0  0  0  0
    7.9299  -15.5176   25.6885 N   0  0  0  0  0  0  0  0  0  0  0  0
    9.1876  -15.2523   27.7906 C   0  0  0  0  0  0  0  0  0  0  0  0
    8.9795  -16.5683   28.1802 O   0  0  0  0  0  0  0  0  0  0  0  0
   10.0186  -14.6351   28.5027 O   0  0  0  0  0  0  0  0  0  0  0  0
  2  1  1  6
  2  3  1  0
  2  9  1  0
  3  4  1  0
  4  5  2  0
  6  5  1  0
  7  6  1  0
  8  4  1  0
  8  7  2  0
  9 11  1  0
  9 10  2  0
 11 12  1  0
 12 13  1  6
 14 13  1  0
 15 14  1  0
 15 16  1  0
 17 16  1  0
 18 12  1  0
 18 19  2  0
 20 21  1  0
 21 22  1  0
 22 23  1  1
 22 24  1  0
 24 25  1  1
 25 18  1  0
 26 24  1  0
 27 26  1  0
 28 26  2  0
M  END
$$$$
