HKI.pdb
     RDKit          3D

 28 28  0  0  1  0  0  0  0  0999 V2000
    8.4825  -16.2604   20.1399 N   0  0  0  0  0  0  0  0  0  0  0  0
    7.8958  -15.0755   20.7226 C   0  0  1  0  0  0  0  0  0  0  0  0
    6.7958  -14.5856   19.8144 C   0  0  0  0  0  0  0  0  0  0  0  0
    7.3824  -14.3137   18.4787 C   0  0  0  0  0  0  0  0  0  0  0  0
    8.0540  -13.1491   18.1098 C   0  0  0  0  0  0  0  0  0  0  0  0
    8.4599  -13.2325   16.8269 N   0  0  0  0  0  0  0  0  0  0  0  0
    8.0501  -14.4312   16.3938 C   0  0  0  0  0  0  0  0  0  0  0  0
    7.4102  -15.0740   17.3740 N   0  0  0  0  0  0  0  0  0  0  0  0
    7.3930  -15.4107   22.0702 C   0  0  0  0  0  0  0  0  0  0  0  0
    6.7999  -14.5683   22.7729 O   0  0  0  0  0  0  0  0  0  0  0  0
    7.5843  -16.7119   22.5813 N   0  0  0  0  0  0  0  0  0  0  0  0
    7.3732  -17.0721   23.9481 C   0  0  1  0  0  0  0  0  0  0  0  0
    7.3738  -18.5570   24.1765 C   0  0  0  0  0  0  0  0  0  0  0  0
    7.3230  -18.9212   25.6224 C   0  0  0  0  0  0  0  0  0  0  0  0
    7.4267  -20.3968   25.8462 C   0  0  0  0  0  0  0  0  0  0  0  0
    7.2344  -20.6256   27.3528 C   0  0  0  0  0  0  0  0  0  0  0  0
    7.2752  -22.0146   27.6981 N   0  0  0  0  0  0  0  0  0  0  0  0
    8.2795  -16.3313   24.8744 C   0  0  0  0  0  0  0  0  0  0  0  0
    9.4887  -16.4062   24.6441 O   0  0  0  0  0  0  0  0  0  0  0  0
    6.4980  -11.4935   26.4683 C   0  0  0  0  0  0  0  0  0  0  0  0
    7.3346  -12.6798   26.0674 C   0  0  0  0  0  0  0  0  0  0  0  0
    7.8974  -13.4631   27.2023 C   0  0  2  0  0  0  0  0  0  0  0  0
    8.8187  -12.5481   28.0140 C   0  0  0  0  0  0  0  0  0  0  0  0
    8.5531  -14.7513   26.8629 C   0  0  2  0  0  0  0  0  0  0  0  0
    7.8066  -15.5735   25.9674 N   0  0  0  0  0  0  0  0  0  0  0  0
    9.2025  -15.4652   27.9949 C   0  0  0  0  0  0  0  0  0  0  0  0
   10.3102  -14.9792   28.6759 O   0  0  0  0  0  0  0  0  0  0  0  0
    8.7889  -16.5731   28.4192 O   0  0  0  0  0  0  0  0  0  0  0  0
  2  1  1  6
  2  3  1  0
  2  9  1  0
  3  4  1  0
  4  5  2  0
  6  5  1  0
  7  6  1  0
  8  4  1  0
  8  7  2  0
  9 11  1  0
  9 10  2  0
 11 12  1  0
 12 13  1  6
 14 13  1  0
 15 14  1  0
 15 16  1  0
 17 16  1  0
 18 12  1  0
 18 19  2  0
 20 21  1  0
 21 22  1  0
 22 23  1  6
 22 24  1  0
 24 25  1  1
 25 18  1  0
 26 24  1  0
 27 26  1  0
 28 26  2  0
M  END
$$$$
