HKI.pdb
     RDKit          3D

 28 28  0  0  1  0  0  0  0  0999 V2000
   12.5537  -16.9045   19.8894 N   0  0  0  0  0  0  0  0  0  0  0  0
   11.8512  -17.4440   21.0310 C   0  0  1  0  0  0  0  0  0  0  0  0
   12.8596  -18.0456   21.9775 C   0  0  0  0  0  0  0  0  0  0  0  0
   13.0940  -19.4541   21.5731 C   0  0  0  0  0  0  0  0  0  0  0  0
   14.1765  -19.9134   20.8244 C   0  0  0  0  0  0  0  0  0  0  0  0
   14.0824  -21.2455   20.6393 N   0  0  0  0  0  0  0  0  0  0  0  0
   12.9577  -21.6199   21.2616 C   0  0  0  0  0  0  0  0  0  0  0  0
   12.3700  -20.5568   21.8165 N   0  0  0  0  0  0  0  0  0  0  0  0
   11.0756  -16.3587   21.6650 C   0  0  0  0  0  0  0  0  0  0  0  0
   11.6033  -15.2690   21.9637 O   0  0  0  0  0  0  0  0  0  0  0  0
    9.7056  -16.5518   21.9421 N   0  0  0  0  0  0  0  0  0  0  0  0
    8.8462  -15.5374   22.4665 C   0  0  1  0  0  0  0  0  0  0  0  0
    7.4536  -15.5925   21.9057 C   0  0  0  0  0  0  0  0  0  0  0  0
    7.4230  -15.4885   20.4178 C   0  0  0  0  0  0  0  0  0  0  0  0
    8.0807  -14.2419   19.9162 C   0  0  0  0  0  0  0  0  0  0  0  0
    7.9438  -14.2598   18.3865 C   0  0  0  0  0  0  0  0  0  0  0  0
    8.6236  -13.1606   17.7701 N   0  0  0  0  0  0  0  0  0  0  0  0
    8.8811  -15.4822   23.9578 C   0  0  0  0  0  0  0  0  0  0  0  0
    9.1951  -16.5211   24.5434 O   0  0  0  0  0  0  0  0  0  0  0  0
    5.6083  -11.6321   26.0712 C   0  0  0  0  0  0  0  0  0  0  0  0
    6.8959  -12.2830   25.6393 C   0  0  0  0  0  0  0  0  0  0  0  0
    7.4477  -13.2799   26.5984 C   0  0  2  0  0  0  0  0  0  0  0  0
    7.8204  -12.5527   27.8935 C   0  0  0  0  0  0  0  0  0  0  0  0
    8.5546  -14.1377   26.1051 C   0  0  2  0  0  0  0  0  0  0  0  0
    8.5761  -14.3144   24.6897 N   0  0  0  0  0  0  0  0  0  0  0  0
    8.8326  -15.3601   26.9059 C   0  0  0  0  0  0  0  0  0  0  0  0
    9.6192  -15.3673   28.0497 O   0  0  0  0  0  0  0  0  0  0  0  0
    8.3692  -16.4868   26.5988 O   0  0  0  0  0  0  0  0  0  0  0  0
  2  1  1  6
  2  3  1  0
  2  9  1  0
  3  4  1  0
  4  5  2  0
  6  5  1  0
  7  6  1  0
  8  4  1  0
  8  7  2  0
  9 11  1  0
  9 10  2  0
 11 12  1  0
 12 13  1  1
 14 13  1  0
 15 14  1  0
 15 16  1  0
 17 16  1  0
 18 12  1  0
 18 19  2  0
 20 21  1  0
 21 22  1  0
 22 23  1  1
 22 24  1  0
 24 25  1  6
 25 18  1  0
 26 24  1  0
 27 26  1  0
 28 26  2  0
M  END
$$$$
