HKI.pdb
     RDKit          3D

 28 28  0  0  1  0  0  0  0  0999 V2000
    8.8594  -16.0865   19.2736 N   0  0  0  0  0  0  0  0  0  0  0  0
    8.2027  -14.9558   19.8883 C   0  0  1  0  0  0  0  0  0  0  0  0
    7.0326  -14.5510   19.0271 C   0  0  0  0  0  0  0  0  0  0  0  0
    7.5152  -14.3898   17.6331 C   0  0  0  0  0  0  0  0  0  0  0  0
    8.1404  -13.2555   17.1175 C   0  0  0  0  0  0  0  0  0  0  0  0
    8.4520  -13.4454   15.8196 N   0  0  0  0  0  0  0  0  0  0  0  0
    8.0295  -14.6802   15.5218 C   0  0  0  0  0  0  0  0  0  0  0  0
    7.4730  -15.2419   16.5980 N   0  0  0  0  0  0  0  0  0  0  0  0
    7.7811  -15.3375   21.2513 C   0  0  0  0  0  0  0  0  0  0  0  0
    7.0647  -14.5893   21.9457 O   0  0  0  0  0  0  0  0  0  0  0  0
    8.1943  -16.5758   21.7870 N   0  0  0  0  0  0  0  0  0  0  0  0
    7.8836  -17.0169   23.1105 C   0  0  1  0  0  0  0  0  0  0  0  0
    8.1162  -18.4869   23.3151 C   0  0  0  0  0  0  0  0  0  0  0  0
    7.8384  -18.9290   24.7126 C   0  0  0  0  0  0  0  0  0  0  0  0
    8.0542  -20.3970   24.9036 C   0  0  0  0  0  0  0  0  0  0  0  0
    7.7127  -20.7026   26.3696 C   0  0  0  0  0  0  0  0  0  0  0  0
    6.5900  -21.5829   26.4908 N   0  0  0  0  0  0  0  0  0  0  0  0
    8.5257  -16.1659   24.1553 C   0  0  0  0  0  0  0  0  0  0  0  0
    9.7471  -16.0159   24.0741 O   0  0  0  0  0  0  0  0  0  0  0  0
    6.9258  -11.0466   27.1098 C   0  0  0  0  0  0  0  0  0  0  0  0
    7.8417  -12.2411   27.0605 C   0  0  0  0  0  0  0  0  0  0  0  0
    7.3630  -13.3641   26.2073 C   0  0  2  0  0  0  0  0  0  0  0  0
    5.9419  -13.7329   26.6425 C   0  0  0  0  0  0  0  0  0  0  0  0
    8.2434  -14.5564   26.1188 C   0  0  2  0  0  0  0  0  0  0  0  0
    7.7984  -15.5492   25.1962 N   0  0  0  0  0  0  0  0  0  0  0  0
    8.7643  -15.0740   27.4125 C   0  0  0  0  0  0  0  0  0  0  0  0
    9.5702  -14.3348   28.2676 O   0  0  0  0  0  0  0  0  0  0  0  0
    8.5085  -16.2321   27.8271 O   0  0  0  0  0  0  0  0  0  0  0  0
  2  1  1  6
  2  3  1  0
  2  9  1  0
  3  4  1  0
  4  5  2  0
  6  5  1  0
  7  6  1  0
  8  4  1  0
  8  7  2  0
  9 11  1  0
  9 10  2  0
 11 12  1  0
 12 13  1  6
 14 13  1  0
 15 14  1  0
 15 16  1  0
 17 16  1  0
 18 12  1  0
 18 19  2  0
 20 21  1  0
 21 22  1  0
 22 23  1  1
 22 24  1  0
 24 25  1  1
 25 18  1  0
 26 24  1  0
 27 26  1  0
 28 26  2  0
M  END
$$$$
