HKI.pdb
     RDKit          3D

 28 28  0  0  1  0  0  0  0  0999 V2000
    7.2643  -18.5363   19.0753 N   0  0  0  0  0  0  0  0  0  0  0  0
    8.2432  -17.7887   19.8307 C   0  0  1  0  0  0  0  0  0  0  0  0
    8.7013  -16.6167   18.9991 C   0  0  0  0  0  0  0  0  0  0  0  0
    9.8780  -17.0439   18.2023 C   0  0  0  0  0  0  0  0  0  0  0  0
   10.4994  -18.2896   18.2776 C   0  0  0  0  0  0  0  0  0  0  0  0
   11.5350  -18.3458   17.4163 N   0  0  0  0  0  0  0  0  0  0  0  0
   11.5661  -17.1538   16.8077 C   0  0  0  0  0  0  0  0  0  0  0  0
   10.5825  -16.3800   17.2737 N   0  0  0  0  0  0  0  0  0  0  0  0
    7.6301  -17.3583   21.1036 C   0  0  0  0  0  0  0  0  0  0  0  0
    6.5784  -16.6888   21.1270 O   0  0  0  0  0  0  0  0  0  0  0  0
    8.2428  -17.7090   22.3253 N   0  0  0  0  0  0  0  0  0  0  0  0
    7.6237  -17.5502   23.6036 C   0  0  1  0  0  0  0  0  0  0  0  0
    7.3673  -18.8543   24.3040 C   0  0  0  0  0  0  0  0  0  0  0  0
    6.3057  -19.6683   23.6437 C   0  0  0  0  0  0  0  0  0  0  0  0
    5.9744  -20.9095   24.4102 C   0  0  0  0  0  0  0  0  0  0  0  0
    4.8963  -21.6479   23.6030 C   0  0  0  0  0  0  0  0  0  0  0  0
    4.4538  -22.8420   24.2577 N   0  0  0  0  0  0  0  0  0  0  0  0
    8.3342  -16.5514   24.4557 C   0  0  0  0  0  0  0  0  0  0  0  0
    9.5663  -16.5558   24.4040 O   0  0  0  0  0  0  0  0  0  0  0  0
    5.5915  -11.9371   26.2043 C   0  0  0  0  0  0  0  0  0  0  0  0
    6.6595  -12.8782   25.7128 C   0  0  0  0  0  0  0  0  0  0  0  0
    7.2876  -13.7209   26.7681 C   0  0  2  0  0  0  0  0  0  0  0  0
    7.9581  -12.7988   27.7904 C   0  0  0  0  0  0  0  0  0  0  0  0
    8.2019  -14.7958   26.3065 C   0  0  2  0  0  0  0  0  0  0  0  0
    7.6579  -15.6340   25.2884 N   0  0  0  0  0  0  0  0  0  0  0  0
    8.9654  -15.4985   27.3724 C   0  0  0  0  0  0  0  0  0  0  0  0
   10.1718  -15.0397   27.8834 O   0  0  0  0  0  0  0  0  0  0  0  0
    8.5668  -16.5710   27.8914 O   0  0  0  0  0  0  0  0  0  0  0  0
  2  1  1  6
  2  3  1  0
  2  9  1  0
  3  4  1  0
  4  5  2  0
  6  5  1  0
  7  6  1  0
  8  4  1  0
  8  7  2  0
  9 11  1  0
  9 10  2  0
 11 12  1  0
 12 13  1  1
 14 13  1  0
 15 14  1  0
 15 16  1  0
 17 16  1  0
 18 12  1  0
 18 19  2  0
 20 21  1  0
 21 22  1  0
 22 23  1  1
 22 24  1  0
 24 25  1  1
 25 18  1  0
 26 24  1  0
 27 26  1  0
 28 26  2  0
M  END
$$$$
