HKI.pdb
     RDKit          3D

 28 28  0  0  1  0  0  0  0  0999 V2000
    8.6587  -16.2228   19.8993 N   0  0  0  0  0  0  0  0  0  0  0  0
    7.9095  -15.1021   20.4194 C   0  0  1  0  0  0  0  0  0  0  0  0
    6.7521  -14.8243   19.4930 C   0  0  0  0  0  0  0  0  0  0  0  0
    7.2985  -14.4819   18.1565 C   0  0  0  0  0  0  0  0  0  0  0  0
    8.3509  -13.6010   17.9120 C   0  0  0  0  0  0  0  0  0  0  0  0
    8.5938  -13.5222   16.5882 N   0  0  0  0  0  0  0  0  0  0  0  0
    7.7079  -14.3407   16.0073 C   0  0  0  0  0  0  0  0  0  0  0  0
    6.9382  -14.9110   16.9377 N   0  0  0  0  0  0  0  0  0  0  0  0
    7.4577  -15.4293   21.7870 C   0  0  0  0  0  0  0  0  0  0  0  0
    6.7468  -14.6433   22.4442 O   0  0  0  0  0  0  0  0  0  0  0  0
    7.8352  -16.6576   22.3700 N   0  0  0  0  0  0  0  0  0  0  0  0
    7.5533  -17.0190   23.7237 C   0  0  1  0  0  0  0  0  0  0  0  0
    7.6642  -18.4955   23.9782 C   0  0  0  0  0  0  0  0  0  0  0  0
    7.4220  -18.8577   25.4050 C   0  0  0  0  0  0  0  0  0  0  0  0
    7.4646  -20.3350   25.6370 C   0  0  0  0  0  0  0  0  0  0  0  0
    7.0575  -20.5603   27.1008 C   0  0  0  0  0  0  0  0  0  0  0  0
    7.0090  -21.9503   27.4406 N   0  0  0  0  0  0  0  0  0  0  0  0
    8.3202  -16.1916   24.7012 C   0  0  0  0  0  0  0  0  0  0  0  0
    9.5260  -16.0526   24.4836 O   0  0  0  0  0  0  0  0  0  0  0  0
    6.0197  -11.6251   26.2310 C   0  0  0  0  0  0  0  0  0  0  0  0
    6.9851  -12.7307   25.8937 C   0  0  0  0  0  0  0  0  0  0  0  0
    7.5093  -13.4854   27.0658 C   0  0  2  0  0  0  0  0  0  0  0  0
    8.2543  -12.5076   27.9790 C   0  0  0  0  0  0  0  0  0  0  0  0
    8.3173  -14.6960   26.7721 C   0  0  2  0  0  0  0  0  0  0  0  0
    7.7234  -15.5847   25.8273 N   0  0  0  0  0  0  0  0  0  0  0  0
    8.9586  -15.3468   27.9459 C   0  0  0  0  0  0  0  0  0  0  0  0
    9.9541  -14.7496   28.7071 O   0  0  0  0  0  0  0  0  0  0  0  0
    8.6405  -16.4981   28.3355 O   0  0  0  0  0  0  0  0  0  0  0  0
  2  1  1  6
  2  3  1  0
  2  9  1  0
  3  4  1  0
  4  5  2  0
  6  5  1  0
  7  6  1  0
  8  4  1  0
  8  7  2  0
  9 11  1  0
  9 10  2  0
 11 12  1  0
 12 13  1  6
 14 13  1  0
 15 14  1  0
 15 16  1  0
 17 16  1  0
 18 12  1  0
 18 19  2  0
 20 21  1  0
 21 22  1  0
 22 23  1  6
 22 24  1  0
 24 25  1  1
 25 18  1  0
 26 24  1  0
 27 26  1  0
 28 26  2  0
M  END
$$$$
