YPP.pdb
     RDKit          3D

 27 29  0  0  1  0  0  0  0  0999 V2000
   10.6760  -15.2553   30.0743 O   0  0  0  0  0  0  0  0  0  0  0  0
    9.9563  -14.9379   28.9191 C   0  0  0  0  0  0  0  0  0  0  0  0
    9.1779  -13.8093   28.8286 C   0  0  0  0  0  0  0  0  0  0  0  0
    8.4721  -13.5177   27.6665 C   0  0  0  0  0  0  0  0  0  0  0  0
    8.5209  -14.3414   26.5615 C   0  0  0  0  0  0  0  0  0  0  0  0
    7.7825  -14.0464   25.3332 C   0  0  0  0  0  0  0  0  0  0  0  0
    6.7631  -15.0855   24.9459 C   0  0  2  0  0  0  0  0  0  0  0  0
    6.4772  -16.0266   25.9680 N   0  0  0  0  0  0  0  0  0  0  0  0
    7.0412  -15.7425   23.6772 C   0  0  0  0  0  0  0  0  0  0  0  0
    6.7834  -16.9900   23.6191 O   0  0  0  0  0  0  0  0  0  0  0  0
    9.3044  -15.4727   26.6595 C   0  0  0  0  0  0  0  0  0  0  0  0
   10.0143  -15.7697   27.8226 C   0  0  0  0  0  0  0  0  0  0  0  0
    7.5633  -15.1262   22.5238 N   0  0  0  0  0  0  0  0  0  0  0  0
    7.9323  -13.7032   22.4610 C   0  0  0  0  0  0  0  0  0  0  0  0
    7.3644  -13.2926   21.1315 C   0  0  0  0  0  0  0  0  0  0  0  0
    7.8121  -14.4457   20.2539 C   0  0  0  0  0  0  0  0  0  0  0  0
    7.8777  -15.6259   21.2042 C   0  0  1  0  0  0  0  0  0  0  0  0
    9.2141  -16.2710   21.1611 C   0  0  0  0  0  0  0  0  0  0  0  0
   10.0635  -15.8618   22.0005 O   0  0  0  0  0  0  0  0  0  0  0  0
    9.5762  -17.2820   20.2650 N   0  0  0  0  0  0  0  0  0  0  0  0
    8.7854  -17.6812   19.1049 C   0  0  0  0  0  0  0  0  0  0  0  0
    9.0318  -19.1541   18.9233 C   0  0  0  0  0  0  0  0  0  0  0  0
   10.1312  -19.5192   19.8794 C   0  0  0  0  0  0  0  0  0  0  0  0
   10.7321  -18.1584   20.2109 C   0  0  1  0  0  0  0  0  0  0  0  0
   11.7017  -17.7631   19.1925 C   0  0  0  0  0  0  0  0  0  0  0  0
   11.3561  -17.1878   18.1331 O   0  0  0  0  0  0  0  0  0  0  0  0
   13.0451  -18.0239   19.3872 O   0  0  0  0  0  0  0  0  0  0  0  0
  2  1  1  0
  3  2  2  0
  4  3  1  0
  5 11  1  0
  5  4  2  0
  6  5  1  0
  7  6  1  0
  7  8  1  1
  9 13  1  0
  9  7  1  0
 10  9  2  0
 11 12  2  0
 12  2  1  0
 13 17  1  0
 14 13  1  0
 14 15  1  0
 15 16  1  0
 17 16  1  0
 18 20  1  0
 17 18  1  1
 19 18  2  0
 20 21  1  0
 22 21  1  0
 23 22  1  0
 24 23  1  0
 24 20  1  0
 24 25  1  6
 26 25  2  0
 27 25  1  0
M  END
$$$$
