YPP.pdb
     RDKit          3D

 27 29  0  0  1  0  0  0  0  0999 V2000
   11.5866  -15.0023   31.7680 O   0  0  0  0  0  0  0  0  0  0  0  0
   10.9614  -15.4594   30.6046 C   0  0  0  0  0  0  0  0  0  0  0  0
   10.6995  -16.7909   30.3892 C   0  0  0  0  0  0  0  0  0  0  0  0
   10.0760  -17.2181   29.2220 C   0  0  0  0  0  0  0  0  0  0  0  0
    9.6955  -16.3321   28.2360 C   0  0  0  0  0  0  0  0  0  0  0  0
    9.0395  -16.7687   27.0031 C   0  0  0  0  0  0  0  0  0  0  0  0
    7.5345  -16.7871   27.0627 C   0  0  2  0  0  0  0  0  0  0  0  0
    6.9820  -18.0552   27.3772 N   0  0  0  0  0  0  0  0  0  0  0  0
    6.8895  -16.1970   25.8990 C   0  0  0  0  0  0  0  0  0  0  0  0
    6.0282  -16.9234   25.3019 O   0  0  0  0  0  0  0  0  0  0  0  0
    9.9616  -14.9969   28.4591 C   0  0  0  0  0  0  0  0  0  0  0  0
   10.5867  -14.5631   29.6280 C   0  0  0  0  0  0  0  0  0  0  0  0
    7.1319  -14.9094   25.3833 N   0  0  0  0  0  0  0  0  0  0  0  0
    7.7371  -13.8219   26.1684 C   0  0  0  0  0  0  0  0  0  0  0  0
    6.8719  -12.6507   25.7968 C   0  0  0  0  0  0  0  0  0  0  0  0
    6.7809  -12.8203   24.2924 C   0  0  0  0  0  0  0  0  0  0  0  0
    6.9075  -14.3172   24.0838 C   0  0  1  0  0  0  0  0  0  0  0  0
    8.0056  -14.6319   23.1355 C   0  0  0  0  0  0  0  0  0  0  0  0
    8.9754  -15.2946   23.5981 O   0  0  0  0  0  0  0  0  0  0  0  0
    8.0256  -14.2456   21.7915 N   0  0  0  0  0  0  0  0  0  0  0  0
    7.3204  -13.0862   21.2537 C   0  0  0  0  0  0  0  0  0  0  0  0
    6.9335  -13.4532   19.8470 C   0  0  0  0  0  0  0  0  0  0  0  0
    7.6152  -14.7580   19.5486 C   0  0  0  0  0  0  0  0  0  0  0  0
    8.6865  -14.8143   20.6311 C   0  0  1  0  0  0  0  0  0  0  0  0
    9.8702  -14.0626   20.2220 C   0  0  0  0  0  0  0  0  0  0  0  0
   10.6968  -14.5209   19.3977 O   0  0  0  0  0  0  0  0  0  0  0  0
   10.1008  -12.8062   20.7502 O   0  0  0  0  0  0  0  0  0  0  0  0
  2  1  1  0
  3  2  2  0
  4  3  1  0
  5 11  1  0
  5  4  2  0
  6  5  1  0
  7  6  1  0
  7  8  1  6
  9 13  1  0
  9  7  1  0
 10  9  2  0
 11 12  2  0
 12  2  1  0
 13 17  1  0
 14 13  1  0
 14 15  1  0
 15 16  1  0
 17 16  1  0
 18 20  1  0
 17 18  1  6
 19 18  2  0
 20 21  1  0
 22 21  1  0
 23 22  1  0
 24 23  1  0
 24 20  1  0
 24 25  1  6
 26 25  2  0
 27 25  1  0
M  END
$$$$
