YPP.pdb
     RDKit          3D

 27 29  0  0  1  0  0  0  0  0999 V2000
    9.9463  -17.3539   27.1768 O   0  0  0  0  0  0  0  0  0  0  0  0
    9.0707  -16.8119   26.2319 C   0  0  0  0  0  0  0  0  0  0  0  0
    9.2731  -15.5736   25.6720 C   0  0  0  0  0  0  0  0  0  0  0  0
    8.3855  -15.0585   24.7336 C   0  0  0  0  0  0  0  0  0  0  0  0
    7.2713  -15.7613   24.3259 C   0  0  0  0  0  0  0  0  0  0  0  0
    6.3293  -15.2304   23.3400 C   0  0  0  0  0  0  0  0  0  0  0  0
    6.0392  -16.1530   22.1853 C   0  0  2  0  0  0  0  0  0  0  0  0
    5.5417  -17.4245   22.5697 N   0  0  0  0  0  0  0  0  0  0  0  0
    7.1349  -16.2731   21.2348 C   0  0  0  0  0  0  0  0  0  0  0  0
    7.3728  -17.4453   20.7926 O   0  0  0  0  0  0  0  0  0  0  0  0
    7.0744  -17.0039   24.8922 C   0  0  0  0  0  0  0  0  0  0  0  0
    7.9615  -17.5251   25.8337 C   0  0  0  0  0  0  0  0  0  0  0  0
    7.9436  -15.2193   20.7676 N   0  0  0  0  0  0  0  0  0  0  0  0
    7.7917  -13.8236   21.2082 C   0  0  0  0  0  0  0  0  0  0  0  0
    7.9072  -13.0733   19.9112 C   0  0  0  0  0  0  0  0  0  0  0  0
    9.1024  -13.7620   19.2807 C   0  0  0  0  0  0  0  0  0  0  0  0
    9.0485  -15.1721   19.8366 C   0  0  1  0  0  0  0  0  0  0  0  0
   10.3332  -15.5390   20.4838 C   0  0  0  0  0  0  0  0  0  0  0  0
   10.3886  -15.4078   21.7382 O   0  0  0  0  0  0  0  0  0  0  0  0
   11.4579  -16.0106   19.7992 N   0  0  0  0  0  0  0  0  0  0  0  0
   11.5416  -16.1591   18.3495 C   0  0  0  0  0  0  0  0  0  0  0  0
   12.4484  -17.3345   18.1058 C   0  0  0  0  0  0  0  0  0  0  0  0
   13.0263  -17.7058   19.4416 C   0  0  0  0  0  0  0  0  0  0  0  0
   12.7598  -16.4517   20.2654 C   0  0  1  0  0  0  0  0  0  0  0  0
   13.8107  -15.4609   20.0474 C   0  0  0  0  0  0  0  0  0  0  0  0
   13.7915  -14.6754   19.0700 O   0  0  0  0  0  0  0  0  0  0  0  0
   14.8656  -15.3735   20.9364 O   0  0  0  0  0  0  0  0  0  0  0  0
  2  1  1  0
  3  2  2  0
  4  3  1  0
  5 11  1  0
  5  4  2  0
  6  5  1  0
  7  6  1  0
  7  8  1  1
  9 13  1  0
  9  7  1  0
 10  9  2  0
 11 12  2  0
 12  2  1  0
 13 17  1  0
 14 13  1  0
 14 15  1  0
 15 16  1  0
 17 16  1  0
 18 20  1  0
 17 18  1  1
 19 18  2  0
 20 21  1  0
 22 21  1  0
 23 22  1  0
 24 23  1  0
 24 20  1  0
 24 25  1  6
 26 25  2  0
 27 25  1  0
M  END
$$$$
