YPP.pdb
     RDKit          3D

 27 29  0  0  1  0  0  0  0  0999 V2000
   11.8394  -15.1877   29.6476 O   0  0  0  0  0  0  0  0  0  0  0  0
   10.6458  -15.1290   28.9230 C   0  0  0  0  0  0  0  0  0  0  0  0
    9.9646  -16.2597   28.5418 C   0  0  0  0  0  0  0  0  0  0  0  0
    8.7786  -16.1720   27.8209 C   0  0  0  0  0  0  0  0  0  0  0  0
    8.2372  -14.9564   27.4590 C   0  0  0  0  0  0  0  0  0  0  0  0
    6.9906  -14.8506   26.7001 C   0  0  0  0  0  0  0  0  0  0  0  0
    6.4845  -16.1520   26.1351 C   0  0  2  0  0  0  0  0  0  0  0  0
    6.9098  -17.2998   26.8519 N   0  0  0  0  0  0  0  0  0  0  0  0
    6.7080  -16.3022   24.7048 C   0  0  0  0  0  0  0  0  0  0  0  0
    6.3136  -17.3971   24.1837 O   0  0  0  0  0  0  0  0  0  0  0  0
    8.9265  -13.8255   27.8451 C   0  0  0  0  0  0  0  0  0  0  0  0
   10.1163  -13.9078   28.5682 C   0  0  0  0  0  0  0  0  0  0  0  0
    7.3142  -15.3540   23.8584 N   0  0  0  0  0  0  0  0  0  0  0  0
    7.8311  -14.0594   24.3296 C   0  0  0  0  0  0  0  0  0  0  0  0
    7.3355  -13.1204   23.2660 C   0  0  0  0  0  0  0  0  0  0  0  0
    7.6772  -13.8966   22.0087 C   0  0  0  0  0  0  0  0  0  0  0  0
    7.6004  -15.3482   22.4415 C   0  0  1  0  0  0  0  0  0  0  0  0
    8.8626  -16.0647   22.1293 C   0  0  0  0  0  0  0  0  0  0  0  0
    9.6907  -16.1830   23.0748 O   0  0  0  0  0  0  0  0  0  0  0  0
    9.1782  -16.6031   20.8776 N   0  0  0  0  0  0  0  0  0  0  0  0
    8.5829  -16.1701   19.6172 C   0  0  0  0  0  0  0  0  0  0  0  0
    8.5374  -17.3915   18.7401 C   0  0  0  0  0  0  0  0  0  0  0  0
    9.3048  -18.4603   19.4648 C   0  0  0  0  0  0  0  0  0  0  0  0
   10.1019  -17.6496   20.4796 C   0  0  1  0  0  0  0  0  0  0  0  0
   11.3266  -17.1315   19.8753 C   0  0  0  0  0  0  0  0  0  0  0  0
   12.3611  -17.8318   19.7644 O   0  0  0  0  0  0  0  0  0  0  0  0
   11.3629  -15.8317   19.4064 O   0  0  0  0  0  0  0  0  0  0  0  0
  2  1  1  0
  3  2  2  0
  4  3  1  0
  5 11  1  0
  5  4  2  0
  6  5  1  0
  7  6  1  0
  7  8  1  1
  9 13  1  0
  9  7  1  0
 10  9  2  0
 11 12  2  0
 12  2  1  0
 13 17  1  0
 14 13  1  0
 14 15  1  0
 15 16  1  0
 17 16  1  0
 18 20  1  0
 17 18  1  1
 19 18  2  0
 20 21  1  0
 22 21  1  0
 23 22  1  0
 24 23  1  0
 24 20  1  0
 24 25  1  6
 26 25  2  0
 27 25  1  0
M  END
$$$$
