YPP.pdb
     RDKit          3D

 27 29  0  0  1  0  0  0  0  0999 V2000
   10.8620  -15.2992   31.3988 O   0  0  0  0  0  0  0  0  0  0  0  0
   10.4163  -15.5136   30.0917 C   0  0  0  0  0  0  0  0  0  0  0  0
    9.9907  -14.4855   29.2856 C   0  0  0  0  0  0  0  0  0  0  0  0
    9.5521  -14.7275   27.9883 C   0  0  0  0  0  0  0  0  0  0  0  0
    9.5247  -15.9997   27.4567 C   0  0  0  0  0  0  0  0  0  0  0  0
    9.0649  -16.2678   26.0937 C   0  0  0  0  0  0  0  0  0  0  0  0
    7.5721  -16.1943   25.9064 C   0  0  2  0  0  0  0  0  0  0  0  0
    6.8813  -17.3739   26.2852 N   0  0  0  0  0  0  0  0  0  0  0  0
    7.1637  -15.7366   24.5865 C   0  0  0  0  0  0  0  0  0  0  0  0
    6.3916  -16.5135   23.9335 O   0  0  0  0  0  0  0  0  0  0  0  0
    9.9534  -17.0270   28.2717 C   0  0  0  0  0  0  0  0  0  0  0  0
   10.3942  -16.7897   29.5734 C   0  0  0  0  0  0  0  0  0  0  0  0
    7.5429  -14.5250   23.9774 N   0  0  0  0  0  0  0  0  0  0  0  0
    8.2799  -13.4611   24.6775 C   0  0  0  0  0  0  0  0  0  0  0  0
    7.5477  -12.2278   24.2286 C   0  0  0  0  0  0  0  0  0  0  0  0
    7.4148  -12.4922   22.7411 C   0  0  0  0  0  0  0  0  0  0  0  0
    7.3672  -14.0047   22.6402 C   0  0  1  0  0  0  0  0  0  0  0  0
    8.4076  -14.5095   21.7092 C   0  0  0  0  0  0  0  0  0  0  0  0
    9.2308  -15.3409   22.1833 O   0  0  0  0  0  0  0  0  0  0  0  0
    8.5241  -14.1257   20.3693 N   0  0  0  0  0  0  0  0  0  0  0  0
    7.9030  -12.9374   19.7925 C   0  0  0  0  0  0  0  0  0  0  0  0
    7.5848  -13.2887   18.3647 C   0  0  0  0  0  0  0  0  0  0  0  0
    8.2258  -14.6221   18.1053 C   0  0  0  0  0  0  0  0  0  0  0  0
    9.2275  -14.7237   19.2493 C   0  0  1  0  0  0  0  0  0  0  0  0
   10.4649  -14.0243   18.9124 C   0  0  0  0  0  0  0  0  0  0  0  0
   10.6005  -12.7903   19.0896 O   0  0  0  0  0  0  0  0  0  0  0  0
   11.5282  -14.7299   18.3812 O   0  0  0  0  0  0  0  0  0  0  0  0
  2  1  1  0
  3  2  2  0
  4  3  1  0
  5 11  1  0
  5  4  2  0
  6  5  1  0
  7  6  1  0
  7  8  1  6
  9 13  1  0
  9  7  1  0
 10  9  2  0
 11 12  2  0
 12  2  1  0
 13 17  1  0
 14 13  1  0
 14 15  1  0
 15 16  1  0
 17 16  1  0
 18 20  1  0
 17 18  1  6
 19 18  2  0
 20 21  1  0
 22 21  1  0
 23 22  1  0
 24 23  1  0
 24 20  1  0
 24 25  1  6
 26 25  2  0
 27 25  1  0
M  END
$$$$
