YPP.pdb
     RDKit          3D

 27 29  0  0  1  0  0  0  0  0999 V2000
    7.8415  -12.7104   16.0940 O   0  0  0  0  0  0  0  0  0  0  0  0
    7.7283  -13.1694   17.4092 C   0  0  0  0  0  0  0  0  0  0  0  0
    8.0881  -12.3975   18.4874 C   0  0  0  0  0  0  0  0  0  0  0  0
    7.9650  -12.8797   19.7859 C   0  0  0  0  0  0  0  0  0  0  0  0
    7.4803  -14.1439   20.0480 C   0  0  0  0  0  0  0  0  0  0  0  0
    7.3465  -14.6633   21.4094 C   0  0  0  0  0  0  0  0  0  0  0  0
    8.5727  -15.3571   21.9423 C   0  0  2  0  0  0  0  0  0  0  0  0
    8.5274  -16.7715   21.8444 N   0  0  0  0  0  0  0  0  0  0  0  0
    8.9627  -14.9262   23.2768 C   0  0  0  0  0  0  0  0  0  0  0  0
   10.2155  -14.8609   23.5053 O   0  0  0  0  0  0  0  0  0  0  0  0
    7.1210  -14.9133   18.9606 C   0  0  0  0  0  0  0  0  0  0  0  0
    7.2425  -14.4345   17.6564 C   0  0  0  0  0  0  0  0  0  0  0  0
    8.0863  -14.5794   24.3229 N   0  0  0  0  0  0  0  0  0  0  0  0
    6.6207  -14.6448   24.2085 C   0  0  0  0  0  0  0  0  0  0  0  0
    6.2002  -13.3537   24.8525 C   0  0  0  0  0  0  0  0  0  0  0  0
    7.0724  -13.3483   26.0932 C   0  0  0  0  0  0  0  0  0  0  0  0
    8.3097  -14.1194   25.6751 C   0  0  1  0  0  0  0  0  0  0  0  0
    8.5754  -15.2454   26.6054 C   0  0  0  0  0  0  0  0  0  0  0  0
    8.0142  -16.3432   26.3344 O   0  0  0  0  0  0  0  0  0  0  0  0
    9.3926  -15.1606   27.7373 N   0  0  0  0  0  0  0  0  0  0  0  0
    9.2210  -14.1859   28.8101 C   0  0  0  0  0  0  0  0  0  0  0  0
   10.6026  -13.8943   29.3290 C   0  0  0  0  0  0  0  0  0  0  0  0
   11.5206  -14.8776   28.6608 C   0  0  0  0  0  0  0  0  0  0  0  0
   10.5455  -15.9356   28.1584 C   0  0  1  0  0  0  0  0  0  0  0  0
   10.2350  -16.8924   29.2175 C   0  0  0  0  0  0  0  0  0  0  0  0
   11.0989  -17.6740   29.6816 O   0  0  0  0  0  0  0  0  0  0  0  0
    8.9544  -16.9507   29.7348 O   0  0  0  0  0  0  0  0  0  0  0  0
  2  1  1  0
  3  2  2  0
  4  3  1  0
  5 11  1  0
  5  4  2  0
  6  5  1  0
  7  6  1  0
  7  8  1  1
  9 13  1  0
  9  7  1  0
 10  9  2  0
 11 12  2  0
 12  2  1  0
 13 17  1  0
 14 13  1  0
 14 15  1  0
 15 16  1  0
 17 16  1  0
 18 20  1  0
 17 18  1  1
 19 18  2  0
 20 21  1  0
 22 21  1  0
 23 22  1  0
 24 23  1  0
 24 20  1  0
 24 25  1  1
 26 25  2  0
 27 25  1  0
M  END
$$$$
