YPP.pdb
     RDKit          3D

 27 29  0  0  1  0  0  0  0  0999 V2000
   11.5376  -14.4210   31.1681 O   0  0  0  0  0  0  0  0  0  0  0  0
   10.9007  -15.0446   30.0917 C   0  0  0  0  0  0  0  0  0  0  0  0
   10.6737  -14.3978   28.9009 C   0  0  0  0  0  0  0  0  0  0  0  0
   10.0375  -15.0427   27.8459 C   0  0  0  0  0  0  0  0  0  0  0  0
    9.6091  -16.3497   27.9463 C   0  0  0  0  0  0  0  0  0  0  0  0
    8.9378  -17.0394   26.8441 C   0  0  0  0  0  0  0  0  0  0  0  0
    7.4332  -16.9851   26.8900 C   0  0  2  0  0  0  0  0  0  0  0  0
    6.8160  -18.2327   27.1634 N   0  0  0  0  0  0  0  0  0  0  0  0
    6.8298  -16.3316   25.7380 C   0  0  0  0  0  0  0  0  0  0  0  0
    6.0544  -17.0491   25.0238 O   0  0  0  0  0  0  0  0  0  0  0  0
    9.8403  -16.9929   29.1447 C   0  0  0  0  0  0  0  0  0  0  0  0
   10.4780  -16.3507   30.2059 C   0  0  0  0  0  0  0  0  0  0  0  0
    7.0261  -14.9923   25.3502 N   0  0  0  0  0  0  0  0  0  0  0  0
    7.5199  -13.9480   26.2617 C   0  0  0  0  0  0  0  0  0  0  0  0
    6.6107  -12.7961   25.9373 C   0  0  0  0  0  0  0  0  0  0  0  0
    6.6177  -12.8364   24.4213 C   0  0  0  0  0  0  0  0  0  0  0  0
    6.8436  -14.3001   24.0943 C   0  0  1  0  0  0  0  0  0  0  0  0
    8.0115  -14.4707   23.1939 C   0  0  0  0  0  0  0  0  0  0  0  0
    9.0510  -14.9681   23.7094 O   0  0  0  0  0  0  0  0  0  0  0  0
    8.0248  -14.1204   21.8399 N   0  0  0  0  0  0  0  0  0  0  0  0
    7.2515  -13.0261   21.2612 C   0  0  0  0  0  0  0  0  0  0  0  0
    6.9101  -13.4562   19.8606 C   0  0  0  0  0  0  0  0  0  0  0  0
    7.6817  -14.7199   19.6074 C   0  0  0  0  0  0  0  0  0  0  0  0
    8.7388  -14.6747   20.7042 C   0  0  1  0  0  0  0  0  0  0  0  0
    9.8753  -13.8564   20.2889 C   0  0  0  0  0  0  0  0  0  0  0  0
   10.7381  -14.2774   19.4820 O   0  0  0  0  0  0  0  0  0  0  0  0
   10.0186  -12.5767   20.7916 O   0  0  0  0  0  0  0  0  0  0  0  0
  2  1  1  0
  3  2  2  0
  4  3  1  0
  5 11  1  0
  5  4  2  0
  6  5  1  0
  7  6  1  0
  7  8  1  6
  9 13  1  0
  9  7  1  0
 10  9  2  0
 11 12  2  0
 12  2  1  0
 13 17  1  0
 14 13  1  0
 14 15  1  0
 15 16  1  0
 17 16  1  0
 18 20  1  0
 17 18  1  6
 19 18  2  0
 20 21  1  0
 22 21  1  0
 23 22  1  0
 24 23  1  0
 24 20  1  0
 24 25  1  6
 26 25  2  0
 27 25  1  0
M  END
$$$$
