YPP.pdb
     RDKit          3D

 27 29  0  0  1  0  0  0  0  0999 V2000
   11.5242  -15.2715   29.8422 O   0  0  0  0  0  0  0  0  0  0  0  0
   10.6500  -14.9919   28.7882 C   0  0  0  0  0  0  0  0  0  0  0  0
   10.9269  -15.3537   27.4920 C   0  0  0  0  0  0  0  0  0  0  0  0
   10.0388  -15.0628   26.4622 C   0  0  0  0  0  0  0  0  0  0  0  0
    8.8499  -14.4034   26.6936 C   0  0  0  0  0  0  0  0  0  0  0  0
    7.9073  -14.0907   25.6189 C   0  0  0  0  0  0  0  0  0  0  0  0
    6.8784  -15.1582   25.3529 C   0  0  2  0  0  0  0  0  0  0  0  0
    6.6584  -16.0365   26.4448 N   0  0  0  0  0  0  0  0  0  0  0  0
    7.0929  -15.8901   24.1132 C   0  0  0  0  0  0  0  0  0  0  0  0
    6.8965  -17.1492   24.1598 O   0  0  0  0  0  0  0  0  0  0  0  0
    8.5784  -14.0432   27.9974 C   0  0  0  0  0  0  0  0  0  0  0  0
    9.4657  -14.3326   29.0338 C   0  0  0  0  0  0  0  0  0  0  0  0
    7.4931  -15.3339   22.8831 N   0  0  0  0  0  0  0  0  0  0  0  0
    7.6405  -13.8875   22.6567 C   0  0  0  0  0  0  0  0  0  0  0  0
    6.9914  -13.7149   21.3123 C   0  0  0  0  0  0  0  0  0  0  0  0
    7.5919  -14.8781   20.5465 C   0  0  0  0  0  0  0  0  0  0  0  0
    7.8542  -15.9235   21.6135 C   0  0  1  0  0  0  0  0  0  0  0  0
    9.2719  -16.3634   21.5913 C   0  0  0  0  0  0  0  0  0  0  0  0
   10.0486  -15.7993   22.4112 O   0  0  0  0  0  0  0  0  0  0  0  0
    9.7830  -17.3436   20.7346 N   0  0  0  0  0  0  0  0  0  0  0  0
    9.0973  -17.8429   19.5467 C   0  0  0  0  0  0  0  0  0  0  0  0
    9.5071  -19.2837   19.4075 C   0  0  0  0  0  0  0  0  0  0  0  0
   10.5904  -19.5143   20.4221 C   0  0  0  0  0  0  0  0  0  0  0  0
   11.0265  -18.0921   20.7535 C   0  0  1  0  0  0  0  0  0  0  0  0
   11.9979  -17.6113   19.7744 C   0  0  0  0  0  0  0  0  0  0  0  0
   11.6476  -17.1417   18.6655 O   0  0  0  0  0  0  0  0  0  0  0  0
   13.3484  -17.6686   20.0635 O   0  0  0  0  0  0  0  0  0  0  0  0
  2  1  1  0
  3  2  2  0
  4  3  1  0
  5 11  1  0
  5  4  2  0
  6  5  1  0
  7  6  1  0
  7  8  1  1
  9 13  1  0
  9  7  1  0
 10  9  2  0
 11 12  2  0
 12  2  1  0
 13 17  1  0
 14 13  1  0
 14 15  1  0
 15 16  1  0
 17 16  1  0
 18 20  1  0
 17 18  1  1
 19 18  2  0
 20 21  1  0
 22 21  1  0
 23 22  1  0
 24 23  1  0
 24 20  1  0
 24 25  1  6
 26 25  2  0
 27 25  1  0
M  END
$$$$
