YPP.pdb
     RDKit          3D

 27 29  0  0  1  0  0  0  0  0999 V2000
    6.5113  -10.2735   26.8568 O   0  0  0  0  0  0  0  0  0  0  0  0
    6.7298  -11.6341   26.6237 C   0  0  0  0  0  0  0  0  0  0  0  0
    5.7032  -12.5470   26.6013 C   0  0  0  0  0  0  0  0  0  0  0  0
    5.9494  -13.8955   26.3670 C   0  0  0  0  0  0  0  0  0  0  0  0
    7.2243  -14.3734   26.1483 C   0  0  0  0  0  0  0  0  0  0  0  0
    7.4968  -15.7897   25.9012 C   0  0  0  0  0  0  0  0  0  0  0  0
    6.5285  -16.4635   24.9645 C   0  0  2  0  0  0  0  0  0  0  0  0
    5.7780  -17.5094   25.5602 N   0  0  0  0  0  0  0  0  0  0  0  0
    7.1210  -16.8826   23.7029 C   0  0  0  0  0  0  0  0  0  0  0  0
    7.0533  -18.1271   23.4332 O   0  0  0  0  0  0  0  0  0  0  0  0
    8.2501  -13.4511   26.1721 C   0  0  0  0  0  0  0  0  0  0  0  0
    8.0087  -12.0977   26.4067 C   0  0  0  0  0  0  0  0  0  0  0  0
    7.7537  -16.0422   22.7669 N   0  0  0  0  0  0  0  0  0  0  0  0
    7.8281  -14.5796   22.9101 C   0  0  0  0  0  0  0  0  0  0  0  0
    7.5051  -14.1135   21.5184 C   0  0  0  0  0  0  0  0  0  0  0  0
    8.3665  -15.0474   20.6902 C   0  0  0  0  0  0  0  0  0  0  0  0
    8.4548  -16.3068   21.5307 C   0  0  1  0  0  0  0  0  0  0  0  0
    9.8691  -16.6907   21.7682 C   0  0  0  0  0  0  0  0  0  0  0  0
   10.3879  -16.2870   22.8460 O   0  0  0  0  0  0  0  0  0  0  0  0
   10.6402  -17.4558   20.8871 N   0  0  0  0  0  0  0  0  0  0  0  0
   10.2719  -17.7472   19.5051 C   0  0  0  0  0  0  0  0  0  0  0  0
   10.8357  -19.1093   19.2052 C   0  0  0  0  0  0  0  0  0  0  0  0
   11.6962  -19.4778   20.3799 C   0  0  0  0  0  0  0  0  0  0  0  0
   11.9163  -18.1277   21.0516 C   0  0  1  0  0  0  0  0  0  0  0  0
   13.0234  -17.4141   20.4202 C   0  0  0  0  0  0  0  0  0  0  0  0
   14.2186  -17.6328   20.7307 O   0  0  0  0  0  0  0  0  0  0  0  0
   12.7626  -16.4656   19.4490 O   0  0  0  0  0  0  0  0  0  0  0  0
  2  1  1  0
  3  2  2  0
  4  3  1  0
  5 11  1  0
  5  4  2  0
  6  5  1  0
  7  6  1  0
  7  8  1  1
  9 13  1  0
  9  7  1  0
 10  9  2  0
 11 12  2  0
 12  2  1  0
 13 17  1  0
 14 13  1  0
 14 15  1  0
 15 16  1  0
 17 16  1  0
 18 20  1  0
 17 18  1  1
 19 18  2  0
 20 21  1  0
 22 21  1  0
 23 22  1  0
 24 23  1  0
 24 20  1  0
 24 25  1  6
 26 25  2  0
 27 25  1  0
M  END
$$$$
