YPP.pdb
     RDKit          3D

 27 29  0  0  1  0  0  0  0  0999 V2000
   10.1970  -19.3515   29.2951 O   0  0  0  0  0  0  0  0  0  0  0  0
    9.2566  -18.7537   28.4515 C   0  0  0  0  0  0  0  0  0  0  0  0
    8.0776  -19.3732   28.1142 C   0  0  0  0  0  0  0  0  0  0  0  0
    7.1594  -18.7551   27.2723 C   0  0  0  0  0  0  0  0  0  0  0  0
    7.3889  -17.5027   26.7424 C   0  0  0  0  0  0  0  0  0  0  0  0
    6.4314  -16.8418   25.8551 C   0  0  0  0  0  0  0  0  0  0  0  0
    6.0384  -17.6443   24.6425 C   0  0  2  0  0  0  0  0  0  0  0  0
    5.7605  -19.0084   24.9149 N   0  0  0  0  0  0  0  0  0  0  0  0
    6.9495  -17.4992   23.5167 C   0  0  0  0  0  0  0  0  0  0  0  0
    7.1291  -18.5373   22.7983 O   0  0  0  0  0  0  0  0  0  0  0  0
    8.5747  -16.8867   27.0855 C   0  0  0  0  0  0  0  0  0  0  0  0
    9.4989  -17.5022   27.9293 C   0  0  0  0  0  0  0  0  0  0  0  0
    7.6400  -16.3257   23.1577 N   0  0  0  0  0  0  0  0  0  0  0  0
    7.4352  -15.0287   23.8219 C   0  0  0  0  0  0  0  0  0  0  0  0
    7.3821  -14.0853   22.6533 C   0  0  0  0  0  0  0  0  0  0  0  0
    8.5587  -14.5733   21.8302 C   0  0  0  0  0  0  0  0  0  0  0  0
    8.6502  -16.0506   22.1610 C   0  0  1  0  0  0  0  0  0  0  0  0
   10.0100  -16.4062   22.6390 C   0  0  0  0  0  0  0  0  0  0  0  0
   10.1833  -16.4103   23.8894 O   0  0  0  0  0  0  0  0  0  0  0  0
   11.0834  -16.7294   21.8026 N   0  0  0  0  0  0  0  0  0  0  0  0
   11.0870  -16.5484   20.3543 C   0  0  0  0  0  0  0  0  0  0  0  0
   11.9457  -17.6531   19.8015 C   0  0  0  0  0  0  0  0  0  0  0  0
   12.5816  -18.3256   20.9846 C   0  0  0  0  0  0  0  0  0  0  0  0
   12.3947  -17.2854   22.0826 C   0  0  1  0  0  0  0  0  0  0  0  0
   13.4608  -16.2882   22.0326 C   0  0  0  0  0  0  0  0  0  0  0  0
   13.3611  -15.2421   21.3481 O   0  0  0  0  0  0  0  0  0  0  0  0
   14.6215  -16.4887   22.7560 O   0  0  0  0  0  0  0  0  0  0  0  0
  2  1  1  0
  3  2  2  0
  4  3  1  0
  5 11  1  0
  5  4  2  0
  6  5  1  0
  7  6  1  0
  7  8  1  1
  9 13  1  0
  9  7  1  0
 10  9  2  0
 11 12  2  0
 12  2  1  0
 13 17  1  0
 14 13  1  0
 14 15  1  0
 15 16  1  0
 17 16  1  0
 18 20  1  0
 17 18  1  1
 19 18  2  0
 20 21  1  0
 22 21  1  0
 23 22  1  0
 24 23  1  0
 24 20  1  0
 24 25  1  6
 26 25  2  0
 27 25  1  0
M  END
$$$$
