YPP.pdb
     RDKit          3D

 27 29  0  0  1  0  0  0  0  0999 V2000
    8.6305  -20.7459   24.9043 O   0  0  0  0  0  0  0  0  0  0  0  0
    8.0858  -19.5920   24.3341 C   0  0  0  0  0  0  0  0  0  0  0  0
    6.7308  -19.3701   24.2836 C   0  0  0  0  0  0  0  0  0  0  0  0
    6.2158  -18.2126   23.7102 C   0  0  0  0  0  0  0  0  0  0  0  0
    7.0351  -17.2431   23.1708 C   0  0  0  0  0  0  0  0  0  0  0  0
    6.5059  -16.0213   22.5640 C   0  0  0  0  0  0  0  0  0  0  0  0
    7.5447  -14.9830   22.2296 C   0  0  2  0  0  0  0  0  0  0  0  0
    8.4250  -15.3595   21.1830 N   0  0  0  0  0  0  0  0  0  0  0  0
    8.2729  -14.4815   23.3858 C   0  0  0  0  0  0  0  0  0  0  0  0
    9.5401  -14.4054   23.2654 O   0  0  0  0  0  0  0  0  0  0  0  0
    8.3944  -17.4726   23.2251 C   0  0  0  0  0  0  0  0  0  0  0  0
    8.9160  -18.6318   23.7991 C   0  0  0  0  0  0  0  0  0  0  0  0
    7.7050  -14.0781   24.6095 N   0  0  0  0  0  0  0  0  0  0  0  0
    6.2547  -13.9766   24.8363 C   0  0  0  0  0  0  0  0  0  0  0  0
    6.1451  -12.6712   25.5727 C   0  0  0  0  0  0  0  0  0  0  0  0
    7.2723  -12.8075   26.5782 C   0  0  0  0  0  0  0  0  0  0  0  0
    8.2832  -13.6951   25.8779 C   0  0  1  0  0  0  0  0  0  0  0  0
    8.6219  -14.8766   26.7105 C   0  0  0  0  0  0  0  0  0  0  0  0
    8.0412  -15.9579   26.4151 O   0  0  0  0  0  0  0  0  0  0  0  0
    9.5262  -14.8599   27.7774 N   0  0  0  0  0  0  0  0  0  0  0  0
    9.5610  -13.8348   28.8159 C   0  0  0  0  0  0  0  0  0  0  0  0
   11.0036  -13.7074   29.2232 C   0  0  0  0  0  0  0  0  0  0  0  0
   11.7364  -14.8240   28.5358 C   0  0  0  0  0  0  0  0  0  0  0  0
   10.5997  -15.7630   28.1500 C   0  0  1  0  0  0  0  0  0  0  0  0
   10.2509  -16.6344   29.2691 C   0  0  0  0  0  0  0  0  0  0  0  0
   11.0337  -17.5176   29.6932 O   0  0  0  0  0  0  0  0  0  0  0  0
    9.0241  -16.4941   29.8907 O   0  0  0  0  0  0  0  0  0  0  0  0
  2  1  1  0
  3  2  2  0
  4  3  1  0
  5 11  1  0
  5  4  2  0
  6  5  1  0
  7  6  1  0
  7  8  1  6
  9 13  1  0
  9  7  1  0
 10  9  2  0
 11 12  2  0
 12  2  1  0
 13 17  1  0
 14 13  1  0
 14 15  1  0
 15 16  1  0
 17 16  1  0
 18 20  1  0
 17 18  1  1
 19 18  2  0
 20 21  1  0
 22 21  1  0
 23 22  1  0
 24 23  1  0
 24 20  1  0
 24 25  1  1
 26 25  2  0
 27 25  1  0
M  END
$$$$
