YPP.pdb
     RDKit          3D

 27 29  0  0  1  0  0  0  0  0999 V2000
    7.9615  -19.8667   27.8919 O   0  0  0  0  0  0  0  0  0  0  0  0
    7.9198  -19.5939   26.5218 C   0  0  0  0  0  0  0  0  0  0  0  0
    8.9330  -19.9639   25.6707 C   0  0  0  0  0  0  0  0  0  0  0  0
    8.8655  -19.6797   24.3111 C   0  0  0  0  0  0  0  0  0  0  0  0
    7.7875  -19.0191   23.7602 C   0  0  0  0  0  0  0  0  0  0  0  0
    7.7046  -18.7134   22.3317 C   0  0  0  0  0  0  0  0  0  0  0  0
    8.8757  -17.9405   21.7837 C   0  0  2  0  0  0  0  0  0  0  0  0
   10.0808  -18.6854   21.7145 N   0  0  0  0  0  0  0  0  0  0  0  0
    9.0819  -16.6487   22.4217 C   0  0  0  0  0  0  0  0  0  0  0  0
   10.0869  -16.5582   23.2014 O   0  0  0  0  0  0  0  0  0  0  0  0
    6.7740  -18.6507   24.6207 C   0  0  0  0  0  0  0  0  0  0  0  0
    6.8368  -18.9333   25.9850 C   0  0  0  0  0  0  0  0  0  0  0  0
    8.2775  -15.5054   22.2533 N   0  0  0  0  0  0  0  0  0  0  0  0
    7.2343  -15.3924   21.2217 C   0  0  0  0  0  0  0  0  0  0  0  0
    7.4657  -14.0039   20.6955 C   0  0  0  0  0  0  0  0  0  0  0  0
    7.6347  -13.2265   21.9867 C   0  0  0  0  0  0  0  0  0  0  0  0
    8.2129  -14.2422   22.9534 C   0  0  1  0  0  0  0  0  0  0  0  0
    7.3894  -14.3341   24.1852 C   0  0  0  0  0  0  0  0  0  0  0  0
    6.6523  -15.3532   24.2942 O   0  0  0  0  0  0  0  0  0  0  0  0
    7.3846  -13.3790   25.2069 N   0  0  0  0  0  0  0  0  0  0  0  0
    8.0807  -12.0975   25.1444 C   0  0  0  0  0  0  0  0  0  0  0  0
    8.4948  -11.7825   26.5559 C   0  0  0  0  0  0  0  0  0  0  0  0
    7.8374  -12.8131   27.4287 C   0  0  0  0  0  0  0  0  0  0  0  0
    6.7503  -13.3621   26.5124 C   0  0  1  0  0  0  0  0  0  0  0  0
    5.5621  -12.5139   26.5595 C   0  0  0  0  0  0  0  0  0  0  0  0
    5.3501  -11.6186   25.7073 O   0  0  0  0  0  0  0  0  0  0  0  0
    4.6332  -12.6906   27.5678 O   0  0  0  0  0  0  0  0  0  0  0  0
  2  1  1  0
  3  2  2  0
  4  3  1  0
  5 11  1  0
  5  4  2  0
  6  5  1  0
  7  6  1  0
  7  8  1  1
  9 13  1  0
  9  7  1  0
 10  9  2  0
 11 12  2  0
 12  2  1  0
 13 17  1  0
 14 13  1  0
 14 15  1  0
 15 16  1  0
 17 16  1  0
 18 20  1  0
 17 18  1  1
 19 18  2  0
 20 21  1  0
 22 21  1  0
 23 22  1  0
 24 23  1  0
 24 20  1  0
 24 25  1  6
 26 25  2  0
 27 25  1  0
M  END
$$$$
