YVP.pdb
     RDKit          3D

 27 28  0  0  1  0  0  0  0  0999 V2000
   20.1951  -18.5585  -14.7908 O   0  0  0  0  0  0  0  0  0  0  0  0
   21.1092  -19.0170  -13.8510 C   0  0  0  0  0  0  0  0  0  0  0  0
   20.7752  -20.0711  -13.0258 C   0  0  0  0  0  0  0  0  0  0  0  0
   21.6780  -20.5381  -12.0841 C   0  0  0  0  0  0  0  0  0  0  0  0
   22.9315  -19.9833  -11.9276 C   0  0  0  0  0  0  0  0  0  0  0  0
   23.8880  -20.4730  -10.9355 C   0  0  0  0  0  0  0  0  0  0  0  0
   25.1947  -20.9447  -11.5321 C   0  0  2  0  0  0  0  0  0  0  0  0
   25.0000  -22.0553  -12.4277 N   0  0  0  0  0  0  0  0  0  0  0  0
   26.0628  -21.3333  -10.3697 C   0  0  0  0  0  0  0  0  0  0  0  0
   25.8360  -22.3740   -9.6965 O   0  0  0  0  0  0  0  0  0  0  0  0
   23.2642  -18.9234  -12.7590 C   0  0  0  0  0  0  0  0  0  0  0  0
   22.3621  -18.4610  -13.6959 C   0  0  0  0  0  0  0  0  0  0  0  0
   30.4657  -21.2294   -8.3786 C   0  0  0  0  0  0  0  0  0  0  0  0
   29.4362  -20.8843   -9.4288 C   0  0  2  0  0  0  0  0  0  0  0  0
   29.6746  -19.4018   -9.7625 C   0  0  0  0  0  0  0  0  0  0  0  0
   28.0195  -20.9389   -8.8178 C   0  0  2  0  0  0  0  0  0  0  0  0
   27.1751  -20.5475   -9.9782 N   0  0  0  0  0  0  0  0  0  0  0  0
   27.9172  -19.9691   -7.7467 C   0  0  0  0  0  0  0  0  0  0  0  0
   27.6753  -18.7592   -8.0885 O   0  0  0  0  0  0  0  0  0  0  0  0
   28.0688  -20.2919   -6.3693 N   0  0  0  0  0  0  0  0  0  0  0  0
   28.3652  -21.6370   -5.9131 C   0  0  0  0  0  0  0  0  0  0  0  0
   29.0863  -21.4295   -4.6141 C   0  0  0  0  0  0  0  0  0  0  0  0
   28.1576  -20.3749   -3.9903 C   0  0  0  0  0  0  0  0  0  0  0  0
   27.9522  -19.4404   -5.2128 C   0  0  1  0  0  0  0  0  0  0  0  0
   29.0054  -18.4032   -5.1626 C   0  0  0  0  0  0  0  0  0  0  0  0
   29.9927  -18.4542   -5.9147 O   0  0  0  0  0  0  0  0  0  0  0  0
   28.8903  -17.3645   -4.2684 O   0  0  0  0  0  0  0  0  0  0  0  0
  1  2  1  0
  2  3  2  0
  3  4  1  0
  5  4  2  0
  5  6  1  0
  6  7  1  0
  7  8  1  6
  7  9  1  0
  9 10  2  0
 11  5  1  0
 12  2  1  0
 12 11  2  0
 14 16  1  0
 14 13  1  1
 15 14  1  0
 16 18  1  0
 17  9  1  0
 16 17  1  6
 18 20  1  0
 19 18  2  0
 20 24  1  0
 20 21  1  0
 21 22  1  0
 23 22  1  0
 24 23  1  0
 24 25  1  6
 26 25  2  0
 27 25  1  0
M  END
$$$$
