YVP.pdb
     RDKit          3D

 27 28  0  0  1  0  0  0  0  0999 V2000
   28.7016  -20.1365   -3.9238 O   0  0  0  0  0  0  0  0  0  0  0  0
   28.2978  -20.0161   -5.2473 C   0  0  0  0  0  0  0  0  0  0  0  0
   27.0102  -20.3579   -5.6060 C   0  0  0  0  0  0  0  0  0  0  0  0
   26.5947  -20.2425   -6.9227 C   0  0  0  0  0  0  0  0  0  0  0  0
   27.4314  -19.7887   -7.9216 C   0  0  0  0  0  0  0  0  0  0  0  0
   26.9975  -19.6646   -9.3126 C   0  0  0  0  0  0  0  0  0  0  0  0
   27.2525  -20.9031  -10.1417 C   0  0  2  0  0  0  0  0  0  0  0  0
   28.6596  -21.1871  -10.2543 N   0  0  0  0  0  0  0  0  0  0  0  0
   26.6465  -20.6303  -11.4885 C   0  0  0  0  0  0  0  0  0  0  0  0
   27.2021  -19.8614  -12.3179 O   0  0  0  0  0  0  0  0  0  0  0  0
   28.7257  -19.4458   -7.5575 C   0  0  0  0  0  0  0  0  0  0  0  0
   29.1358  -19.5622   -6.2446 C   0  0  0  0  0  0  0  0  0  0  0  0
   25.8222  -21.7829  -15.5063 C   0  0  0  0  0  0  0  0  0  0  0  0
   25.7899  -22.1131  -14.0325 C   0  0  2  0  0  0  0  0  0  0  0  0
   25.0224  -23.4420  -13.9286 C   0  0  0  0  0  0  0  0  0  0  0  0
   24.9202  -21.0836  -13.2794 C   0  0  2  0  0  0  0  0  0  0  0  0
   25.4234  -21.2248  -11.8867 N   0  0  0  0  0  0  0  0  0  0  0  0
   23.5266  -21.4675  -13.3728 C   0  0  0  0  0  0  0  0  0  0  0  0
   23.2253  -22.6411  -12.9592 O   0  0  0  0  0  0  0  0  0  0  0  0
   22.5053  -20.6219  -13.8889 N   0  0  0  0  0  0  0  0  0  0  0  0
   22.7863  -19.3099  -14.4410 C   0  0  0  0  0  0  0  0  0  0  0  0
   21.6767  -19.0846  -15.4252 C   0  0  0  0  0  0  0  0  0  0  0  0
   20.4914  -19.5400  -14.5584 C   0  0  0  0  0  0  0  0  0  0  0  0
   21.0831  -20.8431  -13.9566 C   0  0  1  0  0  0  0  0  0  0  0  0
   20.7239  -21.9554  -14.8628 C   0  0  0  0  0  0  0  0  0  0  0  0
   21.5143  -22.3544  -15.7340 O   0  0  0  0  0  0  0  0  0  0  0  0
   19.4939  -22.5586  -14.7393 O   0  0  0  0  0  0  0  0  0  0  0  0
  1  2  1  0
  2  3  2  0
  3  4  1  0
  5  4  2  0
  5  6  1  0
  6  7  1  0
  7  8  1  6
  7  9  1  0
  9 10  2  0
 11  5  1  0
 12  2  1  0
 12 11  2  0
 14 16  1  0
 14 13  1  6
 15 14  1  0
 16 18  1  0
 17  9  1  0
 16 17  1  1
 18 20  1  0
 19 18  2  0
 20 24  1  0
 20 21  1  0
 21 22  1  0
 23 22  1  0
 24 23  1  0
 24 25  1  6
 26 25  2  0
 27 25  1  0
M  END
$$$$
