YVP.pdb
     RDKit          3D

 27 28  0  0  1  0  0  0  0  0999 V2000
   17.1910  -14.6213  -16.3571 O   0  0  0  0  0  0  0  0  0  0  0  0
   18.1462  -15.5828  -16.0532 C   0  0  0  0  0  0  0  0  0  0  0  0
   17.8260  -16.9217  -16.1450 C   0  0  0  0  0  0  0  0  0  0  0  0
   18.7696  -17.8908  -15.8447 C   0  0  0  0  0  0  0  0  0  0  0  0
   20.0515  -17.5717  -15.4466 C   0  0  0  0  0  0  0  0  0  0  0  0
   21.0511  -18.5909  -15.1290 C   0  0  0  0  0  0  0  0  0  0  0  0
   22.0109  -18.8749  -16.2623 C   0  0  2  0  0  0  0  0  0  0  0  0
   21.3957  -19.6698  -17.2934 N   0  0  0  0  0  0  0  0  0  0  0  0
   23.1754  -19.5960  -15.6461 C   0  0  0  0  0  0  0  0  0  0  0  0
   23.0826  -20.7936  -15.2655 O   0  0  0  0  0  0  0  0  0  0  0  0
   20.3703  -16.2243  -15.3552 C   0  0  0  0  0  0  0  0  0  0  0  0
   19.4274  -15.2618  -15.6553 C   0  0  0  0  0  0  0  0  0  0  0  0
   27.3349  -18.1691  -13.8148 C   0  0  0  0  0  0  0  0  0  0  0  0
   26.7385  -18.7403  -15.0798 C   0  0  2  0  0  0  0  0  0  0  0  0
   26.1407  -17.5371  -15.8288 C   0  0  0  0  0  0  0  0  0  0  0  0
   25.5336  -19.6420  -14.7355 C   0  0  2  0  0  0  0  0  0  0  0  0
   24.4298  -18.9623  -15.4651 N   0  0  0  0  0  0  0  0  0  0  0  0
   25.3059  -19.6193  -13.3051 C   0  0  0  0  0  0  0  0  0  0  0  0
   24.8183  -18.5402  -12.8182 O   0  0  0  0  0  0  0  0  0  0  0  0
   25.5914  -20.7127  -12.4405 N   0  0  0  0  0  0  0  0  0  0  0  0
   26.1409  -21.9652  -12.9250 C   0  0  0  0  0  0  0  0  0  0  0  0
   26.8907  -22.5129  -11.7468 C   0  0  0  0  0  0  0  0  0  0  0  0
   25.8328  -22.2733  -10.6571 C   0  0  0  0  0  0  0  0  0  0  0  0
   25.3984  -20.8271  -11.0173 C   0  0  1  0  0  0  0  0  0  0  0  0
   26.2588  -19.8997  -10.2511 C   0  0  0  0  0  0  0  0  0  0  0  0
   25.9401  -19.5221   -9.1114 O   0  0  0  0  0  0  0  0  0  0  0  0
   27.4316  -19.4472  -10.8093 O   0  0  0  0  0  0  0  0  0  0  0  0
  1  2  1  0
  2  3  2  0
  3  4  1  0
  5  4  2  0
  5  6  1  0
  6  7  1  0
  7  8  1  6
  7  9  1  0
  9 10  2  0
 11  5  1  0
 12  2  1  0
 12 11  2  0
 14 16  1  0
 14 13  1  1
 15 14  1  0
 16 18  1  0
 17  9  1  0
 16 17  1  6
 18 20  1  0
 19 18  2  0
 20 24  1  0
 20 21  1  0
 21 22  1  0
 23 22  1  0
 24 23  1  0
 24 25  1  1
 26 25  2  0
 27 25  1  0
M  END
$$$$
