YVP.pdb
     RDKit          3D

 27 28  0  0  1  0  0  0  0  0999 V2000
   18.3910  -14.4432  -17.4921 O   0  0  0  0  0  0  0  0  0  0  0  0
   19.1984  -15.3953  -16.8831 C   0  0  0  0  0  0  0  0  0  0  0  0
   18.7564  -16.6971  -16.7666 C   0  0  0  0  0  0  0  0  0  0  0  0
   19.5519  -17.6565  -16.1613 C   0  0  0  0  0  0  0  0  0  0  0  0
   20.8016  -17.3639  -15.6549 C   0  0  0  0  0  0  0  0  0  0  0  0
   21.6452  -18.3730  -15.0156 C   0  0  0  0  0  0  0  0  0  0  0  0
   22.4787  -19.1743  -15.9900 C   0  0  2  0  0  0  0  0  0  0  0  0
   21.6654  -20.0585  -16.7837 N   0  0  0  0  0  0  0  0  0  0  0  0
   23.4608  -19.9460  -15.1558 C   0  0  0  0  0  0  0  0  0  0  0  0
   23.1082  -20.9530  -14.4855 O   0  0  0  0  0  0  0  0  0  0  0  0
   21.2431  -16.0538  -15.7737 C   0  0  0  0  0  0  0  0  0  0  0  0
   20.4475  -15.1008  -16.3773 C   0  0  0  0  0  0  0  0  0  0  0  0
   28.2518  -20.5991  -14.0487 C   0  0  0  0  0  0  0  0  0  0  0  0
   27.1367  -19.9075  -14.7973 C   0  0  2  0  0  0  0  0  0  0  0  0
   27.3012  -18.4107  -14.4833 C   0  0  0  0  0  0  0  0  0  0  0  0
   25.7716  -20.3003  -14.1929 C   0  0  2  0  0  0  0  0  0  0  0  0
   24.8269  -19.5764  -15.0853 N   0  0  0  0  0  0  0  0  0  0  0  0
   25.6857  -19.8091  -12.8329 C   0  0  0  0  0  0  0  0  0  0  0  0
   25.7356  -18.5393  -12.6766 O   0  0  0  0  0  0  0  0  0  0  0  0
   25.5514  -20.6513  -11.6940 N   0  0  0  0  0  0  0  0  0  0  0  0
   25.4549  -22.0951  -11.8007 C   0  0  0  0  0  0  0  0  0  0  0  0
   26.0033  -22.5933  -10.4962 C   0  0  0  0  0  0  0  0  0  0  0  0
   25.2638  -21.6381   -9.5450 C   0  0  0  0  0  0  0  0  0  0  0  0
   25.4659  -20.2967  -10.3000 C   0  0  1  0  0  0  0  0  0  0  0  0
   26.7124  -19.6833   -9.7926 C   0  0  0  0  0  0  0  0  0  0  0  0
   27.7880  -19.8199  -10.3987 O   0  0  0  0  0  0  0  0  0  0  0  0
   26.6807  -18.9491   -8.6299 O   0  0  0  0  0  0  0  0  0  0  0  0
  1  2  1  0
  2  3  2  0
  3  4  1  0
  5  4  2  0
  5  6  1  0
  6  7  1  0
  7  8  1  1
  7  9  1  0
  9 10  2  0
 11  5  1  0
 12  2  1  0
 12 11  2  0
 14 16  1  0
 14 13  1  1
 15 14  1  0
 16 18  1  0
 17  9  1  0
 16 17  1  6
 18 20  1  0
 19 18  2  0
 20 24  1  0
 20 21  1  0
 21 22  1  0
 23 22  1  0
 24 23  1  0
 24 25  1  1
 26 25  2  0
 27 25  1  0
M  END
$$$$
