YVP.pdb
     RDKit          3D

 27 28  0  0  1  0  0  0  0  0999 V2000
   17.4803  -17.4801  -17.2655 O   0  0  0  0  0  0  0  0  0  0  0  0
   18.5540  -18.1103  -16.6496 C   0  0  0  0  0  0  0  0  0  0  0  0
   18.5139  -19.4707  -16.4234 C   0  0  0  0  0  0  0  0  0  0  0  0
   19.5783  -20.1115  -15.8100 C   0  0  0  0  0  0  0  0  0  0  0  0
   20.7094  -19.4344  -15.4026 C   0  0  0  0  0  0  0  0  0  0  0  0
   21.8355  -20.1063  -14.7552 C   0  0  0  0  0  0  0  0  0  0  0  0
   22.9828  -20.4093  -15.6923 C   0  0  2  0  0  0  0  0  0  0  0  0
   22.6086  -21.3699  -16.6977 N   0  0  0  0  0  0  0  0  0  0  0  0
   24.0932  -20.9354  -14.8287 C   0  0  0  0  0  0  0  0  0  0  0  0
   24.0215  -22.0671  -14.2794 O   0  0  0  0  0  0  0  0  0  0  0  0
   20.7464  -18.0664  -15.6316 C   0  0  0  0  0  0  0  0  0  0  0  0
   19.6840  -17.4316  -16.2430 C   0  0  0  0  0  0  0  0  0  0  0  0
   28.1281  -19.0352  -13.0565 C   0  0  0  0  0  0  0  0  0  0  0  0
   27.5618  -19.9424  -14.1235 C   0  0  2  0  0  0  0  0  0  0  0  0
   27.0832  -19.0046  -15.2448 C   0  0  0  0  0  0  0  0  0  0  0  0
   26.2846  -20.6364  -13.6035 C   0  0  2  0  0  0  0  0  0  0  0  0
   25.2707  -20.1830  -14.5930 N   0  0  0  0  0  0  0  0  0  0  0  0
   25.9745  -20.1465  -12.2760 C   0  0  0  0  0  0  0  0  0  0  0  0
   25.5764  -18.9327  -12.1903 O   0  0  0  0  0  0  0  0  0  0  0  0
   26.0886  -20.9324  -11.0954 N   0  0  0  0  0  0  0  0  0  0  0  0
   26.4609  -22.3345  -11.1267 C   0  0  0  0  0  0  0  0  0  0  0  0
   27.1078  -22.5684   -9.7935 C   0  0  0  0  0  0  0  0  0  0  0  0
   26.0792  -21.8563   -8.8998 C   0  0  0  0  0  0  0  0  0  0  0  0
   25.8606  -20.5582   -9.7228 C   0  0  1  0  0  0  0  0  0  0  0  0
   26.8332  -19.5547   -9.2386 C   0  0  0  0  0  0  0  0  0  0  0  0
   27.9027  -19.3559   -9.8384 O   0  0  0  0  0  0  0  0  0  0  0  0
   26.5493  -18.8289   -8.1053 O   0  0  0  0  0  0  0  0  0  0  0  0
  1  2  1  0
  2  3  2  0
  3  4  1  0
  5  4  2  0
  5  6  1  0
  6  7  1  0
  7  8  1  6
  7  9  1  0
  9 10  2  0
 11  5  1  0
 12  2  1  0
 12 11  2  0
 14 16  1  0
 14 13  1  1
 15 14  1  0
 16 18  1  0
 17  9  1  0
 16 17  1  6
 18 20  1  0
 19 18  2  0
 20 24  1  0
 20 21  1  0
 21 22  1  0
 23 22  1  0
 24 23  1  0
 24 25  1  1
 26 25  2  0
 27 25  1  0
M  END
$$$$
