YVP.pdb
     RDKit          3D

 27 28  0  0  1  0  0  0  0  0999 V2000
   18.9040  -19.6463  -13.7223 O   0  0  0  0  0  0  0  0  0  0  0  0
   20.0442  -19.9893  -13.0071 C   0  0  0  0  0  0  0  0  0  0  0  0
   20.2957  -21.3128  -12.7093 C   0  0  0  0  0  0  0  0  0  0  0  0
   21.4294  -21.6683  -11.9965 C   0  0  0  0  0  0  0  0  0  0  0  0
   22.3457  -20.7349  -11.5574 C   0  0  0  0  0  0  0  0  0  0  0  0
   23.5439  -21.1051  -10.8052 C   0  0  0  0  0  0  0  0  0  0  0  0
   24.8184  -21.0268  -11.6150 C   0  0  2  0  0  0  0  0  0  0  0  0
   24.8108  -21.9618  -12.7101 N   0  0  0  0  0  0  0  0  0  0  0  0
   25.9355  -21.3257  -10.6566 C   0  0  0  0  0  0  0  0  0  0  0  0
   26.0692  -22.4648  -10.1348 O   0  0  0  0  0  0  0  0  0  0  0  0
   22.0898  -19.4047  -11.8585 C   0  0  0  0  0  0  0  0  0  0  0  0
   20.9592  -19.0546  -12.5688 C   0  0  0  0  0  0  0  0  0  0  0  0
   28.6889  -18.2904   -9.7789 C   0  0  0  0  0  0  0  0  0  0  0  0
   29.1029  -19.7432   -9.7800 C   0  0  2  0  0  0  0  0  0  0  0  0
   29.2843  -20.1148  -11.2615 C   0  0  0  0  0  0  0  0  0  0  0  0
   27.9379  -20.6248   -9.2812 C   0  0  2  0  0  0  0  0  0  0  0  0
   26.8884  -20.3407  -10.2965 N   0  0  0  0  0  0  0  0  0  0  0  0
   27.5253  -20.1817   -7.9653 C   0  0  0  0  0  0  0  0  0  0  0  0
   26.5786  -19.3209   -7.9198 O   0  0  0  0  0  0  0  0  0  0  0  0
   28.1083  -20.6478   -6.7540 N   0  0  0  0  0  0  0  0  0  0  0  0
   29.1083  -21.6988   -6.7255 C   0  0  0  0  0  0  0  0  0  0  0  0
   29.9015  -21.4121   -5.4849 C   0  0  0  0  0  0  0  0  0  0  0  0
   28.7396  -21.1504   -4.5127 C   0  0  0  0  0  0  0  0  0  0  0  0
   27.8490  -20.2371   -5.3975 C   0  0  1  0  0  0  0  0  0  0  0  0
   28.2526  -18.8376   -5.1408 C   0  0  0  0  0  0  0  0  0  0  0  0
   28.9820  -18.2236   -5.9370 O   0  0  0  0  0  0  0  0  0  0  0  0
   27.8131  -18.2046   -4.0014 O   0  0  0  0  0  0  0  0  0  0  0  0
  1  2  1  0
  2  3  2  0
  3  4  1  0
  5  4  2  0
  5  6  1  0
  6  7  1  0
  7  8  1  6
  7  9  1  0
  9 10  2  0
 11  5  1  0
 12  2  1  0
 12 11  2  0
 14 16  1  0
 14 13  1  6
 15 14  1  0
 16 18  1  0
 17  9  1  0
 16 17  1  6
 18 20  1  0
 19 18  2  0
 20 24  1  0
 20 21  1  0
 21 22  1  0
 23 22  1  0
 24 23  1  0
 24 25  1  6
 26 25  2  0
 27 25  1  0
M  END
$$$$
