YVP.pdb
     RDKit          3D

 27 28  0  0  1  0  0  0  0  0999 V2000
   20.2985  -18.6989  -15.0090 O   0  0  0  0  0  0  0  0  0  0  0  0
   21.1974  -19.1028  -14.0301 C   0  0  0  0  0  0  0  0  0  0  0  0
   20.8544  -20.1163  -13.1591 C   0  0  0  0  0  0  0  0  0  0  0  0
   21.7418  -20.5287  -12.1782 C   0  0  0  0  0  0  0  0  0  0  0  0
   22.9886  -19.9576  -12.0263 C   0  0  0  0  0  0  0  0  0  0  0  0
   23.9289  -20.3896  -10.9930 C   0  0  0  0  0  0  0  0  0  0  0  0
   25.1818  -21.0337  -11.5421 C   0  0  2  0  0  0  0  0  0  0  0  0
   24.8783  -22.1987  -12.3320 N   0  0  0  0  0  0  0  0  0  0  0  0
   26.0186  -21.3932  -10.3478 C   0  0  0  0  0  0  0  0  0  0  0  0
   25.5916  -22.1720   -9.4540 O   0  0  0  0  0  0  0  0  0  0  0  0
   23.3304  -18.9385  -12.9039 C   0  0  0  0  0  0  0  0  0  0  0  0
   22.4435  -18.5306  -13.8798 C   0  0  0  0  0  0  0  0  0  0  0  0
   30.5595  -21.3294   -8.3886 C   0  0  0  0  0  0  0  0  0  0  0  0
   29.5691  -21.0255   -9.4880 C   0  0  2  0  0  0  0  0  0  0  0  0
   29.7117  -19.5184   -9.7608 C   0  0  0  0  0  0  0  0  0  0  0  0
   28.1278  -21.2076   -8.9659 C   0  0  2  0  0  0  0  0  0  0  0  0
   27.3250  -20.8730  -10.1727 N   0  0  0  0  0  0  0  0  0  0  0  0
   27.8787  -20.2645   -7.8950 C   0  0  0  0  0  0  0  0  0  0  0  0
   27.5000  -19.0910   -8.2396 O   0  0  0  0  0  0  0  0  0  0  0  0
   28.0311  -20.5754   -6.5149 N   0  0  0  0  0  0  0  0  0  0  0  0
   28.4285  -21.8922   -6.0529 C   0  0  0  0  0  0  0  0  0  0  0  0
   29.1065  -21.6278   -4.7411 C   0  0  0  0  0  0  0  0  0  0  0  0
   28.0833  -20.6535   -4.1346 C   0  0  0  0  0  0  0  0  0  0  0  0
   27.8242  -19.7376   -5.3610 C   0  0  1  0  0  0  0  0  0  0  0  0
   28.7878  -18.6177   -5.2921 C   0  0  0  0  0  0  0  0  0  0  0  0
   29.8022  -18.5987   -6.0087 O   0  0  0  0  0  0  0  0  0  0  0  0
   28.5574  -17.5793   -4.4199 O   0  0  0  0  0  0  0  0  0  0  0  0
  1  2  1  0
  2  3  2  0
  3  4  1  0
  5  4  2  0
  5  6  1  0
  6  7  1  0
  7  8  1  1
  7  9  1  0
  9 10  2  0
 11  5  1  0
 12  2  1  0
 12 11  2  0
 14 16  1  0
 14 13  1  1
 15 14  1  0
 16 18  1  0
 17  9  1  0
 16 17  1  6
 18 20  1  0
 19 18  2  0
 20 24  1  0
 20 21  1  0
 21 22  1  0
 23 22  1  0
 24 23  1  0
 24 25  1  6
 26 25  2  0
 27 25  1  0
M  END
$$$$
