YVP.pdb
     RDKit          3D

 27 28  0  0  1  0  0  0  0  0999 V2000
   21.9694  -20.9902  -12.9239 O   0  0  0  0  0  0  0  0  0  0  0  0
   21.7552  -19.9160  -13.7781 C   0  0  0  0  0  0  0  0  0  0  0  0
   21.0799  -18.8019  -13.3241 C   0  0  0  0  0  0  0  0  0  0  0  0
   20.8597  -17.7236  -14.1659 C   0  0  0  0  0  0  0  0  0  0  0  0
   21.2961  -17.7104  -15.4747 C   0  0  0  0  0  0  0  0  0  0  0  0
   21.0665  -16.5746  -16.3670 C   0  0  0  0  0  0  0  0  0  0  0  0
   19.7079  -16.5878  -17.0304 C   0  0  2  0  0  0  0  0  0  0  0  0
   19.5281  -17.7577  -17.8505 N   0  0  0  0  0  0  0  0  0  0  0  0
   19.6388  -15.3341  -17.8545 C   0  0  0  0  0  0  0  0  0  0  0  0
   20.3482  -15.1824  -18.8848 O   0  0  0  0  0  0  0  0  0  0  0  0
   21.9749  -18.8324  -15.9282 C   0  0  0  0  0  0  0  0  0  0  0  0
   22.1923  -19.9046  -15.0864 C   0  0  0  0  0  0  0  0  0  0  0  0
   16.3402  -12.7906  -17.5980 C   0  0  0  0  0  0  0  0  0  0  0  0
   17.2452  -13.0153  -18.7864 C   0  0  2  0  0  0  0  0  0  0  0  0
   16.9556  -14.4518  -19.2542 C   0  0  0  0  0  0  0  0  0  0  0  0
   18.7206  -13.0273  -18.3322 C   0  0  2  0  0  0  0  0  0  0  0  0
   18.7733  -14.2661  -17.5104 N   0  0  0  0  0  0  0  0  0  0  0  0
   18.9877  -11.8539  -17.5259 C   0  0  0  0  0  0  0  0  0  0  0  0
   18.4868  -11.8405  -16.3477 O   0  0  0  0  0  0  0  0  0  0  0  0
   19.7611  -10.7461  -17.9719 N   0  0  0  0  0  0  0  0  0  0  0  0
   20.3442  -10.6880  -19.2994 C   0  0  0  0  0  0  0  0  0  0  0  0
   20.4413   -9.2193  -19.5895 C   0  0  0  0  0  0  0  0  0  0  0  0
   21.0291   -8.7486  -18.2491 C   0  0  0  0  0  0  0  0  0  0  0  0
   20.1292   -9.5450  -17.2662 C   0  0  1  0  0  0  0  0  0  0  0  0
   18.9622   -8.6958  -16.9431 C   0  0  0  0  0  0  0  0  0  0  0  0
   17.8569   -8.8950  -17.4738 O   0  0  0  0  0  0  0  0  0  0  0  0
   19.1024   -7.6681  -16.0397 O   0  0  0  0  0  0  0  0  0  0  0  0
  1  2  1  0
  2  3  2  0
  3  4  1  0
  5  4  2  0
  5  6  1  0
  6  7  1  0
  7  8  1  6
  7  9  1  0
  9 10  2  0
 11  5  1  0
 12  2  1  0
 12 11  2  0
 14 16  1  0
 14 13  1  1
 15 14  1  0
 16 18  1  0
 17  9  1  0
 16 17  1  1
 18 20  1  0
 19 18  2  0
 20 24  1  0
 20 21  1  0
 21 22  1  0
 23 22  1  0
 24 23  1  0
 24 25  1  6
 26 25  2  0
 27 25  1  0
M  END
$$$$
