YVP.pdb
     RDKit          3D

 27 28  0  0  1  0  0  0  0  0999 V2000
   18.9091  -18.7707  -14.7938 O   0  0  0  0  0  0  0  0  0  0  0  0
   19.8770  -19.1985  -13.8942 C   0  0  0  0  0  0  0  0  0  0  0  0
   19.7811  -20.4529  -13.3276 C   0  0  0  0  0  0  0  0  0  0  0  0
   20.7399  -20.8918  -12.4289 C   0  0  0  0  0  0  0  0  0  0  0  0
   21.8175  -20.1118  -12.0627 C   0  0  0  0  0  0  0  0  0  0  0  0
   22.8323  -20.5707  -11.1149 C   0  0  0  0  0  0  0  0  0  0  0  0
   24.1894  -20.7999  -11.7410 C   0  0  2  0  0  0  0  0  0  0  0  0
   24.1364  -21.8031  -12.7726 N   0  0  0  0  0  0  0  0  0  0  0  0
   25.0948  -21.2242  -10.6203 C   0  0  0  0  0  0  0  0  0  0  0  0
   24.7500  -22.1108   -9.7940 O   0  0  0  0  0  0  0  0  0  0  0  0
   21.9110  -18.8509  -12.6343 C   0  0  0  0  0  0  0  0  0  0  0  0
   20.9537  -18.4172  -13.5293 C   0  0  0  0  0  0  0  0  0  0  0  0
   28.9573  -19.5660  -10.3745 C   0  0  0  0  0  0  0  0  0  0  0  0
   28.6531  -20.9877   -9.9641 C   0  0  2  0  0  0  0  0  0  0  0  0
   28.5298  -21.7748  -11.2799 C   0  0  0  0  0  0  0  0  0  0  0  0
   27.2543  -21.0623   -9.3153 C   0  0  2  0  0  0  0  0  0  0  0  0
   26.3764  -20.6466  -10.4419 N   0  0  0  0  0  0  0  0  0  0  0  0
   27.1789  -20.1187   -8.2188 C   0  0  0  0  0  0  0  0  0  0  0  0
   26.7705  -18.9391   -8.5032 O   0  0  0  0  0  0  0  0  0  0  0  0
   27.5283  -20.4354   -6.8763 N   0  0  0  0  0  0  0  0  0  0  0  0
   27.9277  -21.7699   -6.4701 C   0  0  0  0  0  0  0  0  0  0  0  0
   28.8131  -21.5382   -5.2815 C   0  0  0  0  0  0  0  0  0  0  0  0
   27.9453  -20.5138   -4.5323 C   0  0  0  0  0  0  0  0  0  0  0  0
   27.5441  -19.5873   -5.7117 C   0  0  1  0  0  0  0  0  0  0  0  0
   28.5603  -18.5165   -5.8025 C   0  0  0  0  0  0  0  0  0  0  0  0
   29.4553  -18.5524   -6.6632 O   0  0  0  0  0  0  0  0  0  0  0  0
   28.5142  -17.4630   -4.9195 O   0  0  0  0  0  0  0  0  0  0  0  0
  1  2  1  0
  2  3  2  0
  3  4  1  0
  5  4  2  0
  5  6  1  0
  6  7  1  0
  7  8  1  6
  7  9  1  0
  9 10  2  0
 11  5  1  0
 12  2  1  0
 12 11  2  0
 14 16  1  0
 14 13  1  6
 15 14  1  0
 16 18  1  0
 17  9  1  0
 16 17  1  6
 18 20  1  0
 19 18  2  0
 20 24  1  0
 20 21  1  0
 21 22  1  0
 23 22  1  0
 24 23  1  0
 24 25  1  6
 26 25  2  0
 27 25  1  0
M  END
$$$$
