YVP.pdb
     RDKit          3D

 27 28  0  0  1  0  0  0  0  0999 V2000
   27.3814  -17.4316  -16.8584 O   0  0  0  0  0  0  0  0  0  0  0  0
   27.2181  -17.9686  -15.5879 C   0  0  0  0  0  0  0  0  0  0  0  0
   25.9816  -18.4374  -15.1945 C   0  0  0  0  0  0  0  0  0  0  0  0
   25.8052  -18.9755  -13.9299 C   0  0  0  0  0  0  0  0  0  0  0  0
   26.8370  -19.0675  -13.0186 C   0  0  0  0  0  0  0  0  0  0  0  0
   26.6560  -19.6350  -11.6830 C   0  0  0  0  0  0  0  0  0  0  0  0
   27.0493  -21.0915  -11.5829 C   0  0  2  0  0  0  0  0  0  0  0  0
   25.9952  -21.9595  -12.0401 N   0  0  0  0  0  0  0  0  0  0  0  0
   27.3611  -21.3364  -10.1343 C   0  0  0  0  0  0  0  0  0  0  0  0
   26.4709  -21.7024   -9.3211 O   0  0  0  0  0  0  0  0  0  0  0  0
   28.0793  -18.5951  -13.4174 C   0  0  0  0  0  0  0  0  0  0  0  0
   28.2509  -18.0597  -14.6781 C   0  0  0  0  0  0  0  0  0  0  0  0
   31.3748  -20.8039   -8.4440 C   0  0  0  0  0  0  0  0  0  0  0  0
   30.4473  -21.9895   -8.3172 C   0  0  2  0  0  0  0  0  0  0  0  0
   30.5281  -22.7174   -9.6699 C   0  0  0  0  0  0  0  0  0  0  0  0
   28.9853  -21.5068   -8.2041 C   0  0  2  0  0  0  0  0  0  0  0  0
   28.6695  -21.1667   -9.6174 N   0  0  0  0  0  0  0  0  0  0  0  0
   28.9281  -20.3319   -7.3588 C   0  0  0  0  0  0  0  0  0  0  0  0
   29.2869  -19.2238   -7.8904 O   0  0  0  0  0  0  0  0  0  0  0  0
   28.5022  -20.3531   -6.0013 N   0  0  0  0  0  0  0  0  0  0  0  0
   28.0104  -21.5575   -5.3586 C   0  0  0  0  0  0  0  0  0  0  0  0
   28.3264  -21.3496   -3.9069 C   0  0  0  0  0  0  0  0  0  0  0  0
   27.8348  -19.9003   -3.7599 C   0  0  0  0  0  0  0  0  0  0  0  0
   28.4451  -19.2775   -5.0443 C   0  0  1  0  0  0  0  0  0  0  0  0
   29.7846  -18.7573   -4.6940 C   0  0  0  0  0  0  0  0  0  0  0  0
   30.8142  -19.3899   -4.9816 O   0  0  0  0  0  0  0  0  0  0  0  0
   29.8927  -17.5528   -4.0387 O   0  0  0  0  0  0  0  0  0  0  0  0
  1  2  1  0
  2  3  2  0
  3  4  1  0
  5  4  2  0
  5  6  1  0
  6  7  1  0
  7  8  1  1
  7  9  1  0
  9 10  2  0
 11  5  1  0
 12  2  1  0
 12 11  2  0
 14 16  1  0
 14 13  1  6
 15 14  1  0
 16 18  1  0
 17  9  1  0
 16 17  1  6
 18 20  1  0
 19 18  2  0
 20 24  1  0
 20 21  1  0
 21 22  1  0
 23 22  1  0
 24 23  1  0
 24 25  1  1
 26 25  2  0
 27 25  1  0
M  END
$$$$
