YVP.pdb
     RDKit          3D

 27 28  0  0  1  0  0  0  0  0999 V2000
   19.5156  -19.1106  -14.2932 O   0  0  0  0  0  0  0  0  0  0  0  0
   20.5080  -19.5280  -13.4156 C   0  0  0  0  0  0  0  0  0  0  0  0
   21.4765  -18.6373  -13.0006 C   0  0  0  0  0  0  0  0  0  0  0  0
   22.4720  -19.0408  -12.1254 C   0  0  0  0  0  0  0  0  0  0  0  0
   22.5431  -20.3284  -11.6347 C   0  0  0  0  0  0  0  0  0  0  0  0
   23.5915  -20.7591  -10.7105 C   0  0  0  0  0  0  0  0  0  0  0  0
   24.9676  -20.8129  -11.3347 C   0  0  2  0  0  0  0  0  0  0  0  0
   25.0135  -21.7323  -12.4420 N   0  0  0  0  0  0  0  0  0  0  0  0
   25.9017  -21.2396  -10.2387 C   0  0  0  0  0  0  0  0  0  0  0  0
   25.8422  -22.3923   -9.7334 O   0  0  0  0  0  0  0  0  0  0  0  0
   21.5677  -21.2217  -12.0541 C   0  0  0  0  0  0  0  0  0  0  0  0
   20.5776  -20.8158  -12.9261 C   0  0  0  0  0  0  0  0  0  0  0  0
   29.4676  -19.2498   -9.6475 C   0  0  0  0  0  0  0  0  0  0  0  0
   29.1772  -20.6858   -9.2790 C   0  0  2  0  0  0  0  0  0  0  0  0
   29.0421  -21.4315  -10.6175 C   0  0  0  0  0  0  0  0  0  0  0  0
   27.7873  -20.7902   -8.6154 C   0  0  2  0  0  0  0  0  0  0  0  0
   26.8910  -20.3653   -9.7240 N   0  0  0  0  0  0  0  0  0  0  0  0
   27.7131  -19.8677   -7.5010 C   0  0  0  0  0  0  0  0  0  0  0  0
   27.2812  -18.6902   -7.7579 O   0  0  0  0  0  0  0  0  0  0  0  0
   28.0877  -20.2026   -6.1698 N   0  0  0  0  0  0  0  0  0  0  0  0
   28.5897  -21.5153   -5.8093 C   0  0  0  0  0  0  0  0  0  0  0  0
   29.4561  -21.2569   -4.6122 C   0  0  0  0  0  0  0  0  0  0  0  0
   28.5125  -20.3292   -3.8293 C   0  0  0  0  0  0  0  0  0  0  0  0
   28.0393  -19.3965   -4.9765 C   0  0  1  0  0  0  0  0  0  0  0  0
   28.9694  -18.2477   -5.0290 C   0  0  0  0  0  0  0  0  0  0  0  0
   29.8383  -18.1652   -5.9128 O   0  0  0  0  0  0  0  0  0  0  0  0
   28.8711  -17.2536   -4.0835 O   0  0  0  0  0  0  0  0  0  0  0  0
  1  2  1  0
  2  3  2  0
  3  4  1  0
  5  4  2  0
  5  6  1  0
  6  7  1  0
  7  8  1  6
  7  9  1  0
  9 10  2  0
 11  5  1  0
 12  2  1  0
 12 11  2  0
 14 16  1  0
 14 13  1  6
 15 14  1  0
 16 18  1  0
 17  9  1  0
 16 17  1  6
 18 20  1  0
 19 18  2  0
 20 24  1  0
 20 21  1  0
 21 22  1  0
 23 22  1  0
 24 23  1  0
 24 25  1  6
 26 25  2  0
 27 25  1  0
M  END
$$$$
