QNY.pdb
     RDKit          3D

 30 30  0  0  1  0  0  0  0  0999 V2000
    9.6884  -13.0921   20.2207 N   0  0  0  0  0  0  0  0  0  0  0  0
    8.3414  -12.9114   19.8407 C   0  0  0  0  0  0  0  0  0  0  0  0
    8.0970  -12.2099   18.8286 O   0  0  0  0  0  0  0  0  0  0  0  0
    7.2283  -13.5132   20.5887 C   0  0  0  0  0  0  0  0  0  0  0  0
    7.7504  -14.2380   21.8030 C   0  0  0  0  0  0  0  0  0  0  0  0
    8.1994  -15.6524   21.4396 C   0  0  2  0  0  0  0  0  0  0  0  0
    7.1101  -16.3604   20.8144 N   0  0  0  0  0  0  0  0  0  0  0  0
    8.6010  -16.3209   22.7226 C   0  0  0  0  0  0  0  0  0  0  0  0
    7.7396  -16.6259   23.5849 O   0  0  0  0  0  0  0  0  0  0  0  0
   12.0286  -19.1196   21.6360 N   0  0  0  0  0  0  0  0  0  0  0  0
   11.4048  -19.1105   22.9074 C   0  0  0  0  0  0  0  0  0  0  0  0
   10.5697  -20.0110   23.1615 O   0  0  0  0  0  0  0  0  0  0  0  0
   11.7055  -18.0957   23.9102 C   0  0  0  0  0  0  0  0  0  0  0  0
   10.4358  -17.3058   24.1755 C   0  0  2  0  0  0  0  0  0  0  0  0
    9.9464  -16.6357   23.0162 N   0  0  0  0  0  0  0  0  0  0  0  0
   10.7323  -16.3768   25.2962 C   0  0  0  0  0  0  0  0  0  0  0  0
   11.5296  -15.4040   25.1676 O   0  0  0  0  0  0  0  0  0  0  0  0
    5.9452  -12.0307   24.9487 O   0  0  0  0  0  0  0  0  0  0  0  0
    6.7546  -12.8174   25.7903 C   0  0  0  0  0  0  0  0  0  0  0  0
    7.8466  -12.3064   26.4528 C   0  0  0  0  0  0  0  0  0  0  0  0
    8.6119  -13.1148   27.2681 C   0  0  0  0  0  0  0  0  0  0  0  0
    8.3234  -14.4501   27.4524 C   0  0  0  0  0  0  0  0  0  0  0  0
    9.1627  -15.2787   28.3243 C   0  0  0  0  0  0  0  0  0  0  0  0
   10.5063  -15.6596   27.7231 C   0  0  2  0  0  0  0  0  0  0  0  0
   10.1488  -16.5074   26.5860 N   0  0  0  0  0  0  0  0  0  0  0  0
   11.2773  -16.4158   28.7319 C   0  0  0  0  0  0  0  0  0  0  0  0
   11.8083  -15.7042   29.8070 O   0  0  0  0  0  0  0  0  0  0  0  0
    7.2237  -14.9580   26.7821 C   0  0  0  0  0  0  0  0  0  0  0  0
    6.4480  -14.1393   25.9576 C   0  0  0  0  0  0  0  0  0  0  0  0
   11.4858  -17.6322   28.6916 O   0  0  0  0  0  0  0  0  0  0  0  0
  2  1  1  0
  2  3  2  0
  4  5  1  0
  4  2  1  0
  6  5  1  0
  6  7  1  1
  8 15  1  0
  8  6  1  0
  9  8  2  0
 10 11  1  0
 11 13  1  0
 12 11  2  0
 14 13  1  6
 14 16  1  0
 14 15  1  0
 16 17  2  0
 19 18  1  0
 19 20  2  0
 21 20  1  0
 22 21  2  0
 23 22  1  0
 24 23  1  1
 24 26  1  0
 25 24  1  0
 25 16  1  0
 26 27  1  0
 28 29  2  0
 28 22  1  0
 29 19  1  0
 30 26  2  0
M  END
$$$$
