QNY.pdb
     RDKit          3D

 30 30  0  0  1  0  0  0  0  0999 V2000
    7.1514  -12.4636   15.5777 N   0  0  0  0  0  0  0  0  0  0  0  0
    7.4809  -13.8246   15.4030 C   0  0  0  0  0  0  0  0  0  0  0  0
    7.9763  -14.1815   14.3060 O   0  0  0  0  0  0  0  0  0  0  0  0
    7.2614  -14.8259   16.4566 C   0  0  0  0  0  0  0  0  0  0  0  0
    7.2912  -14.1679   17.8126 C   0  0  0  0  0  0  0  0  0  0  0  0
    8.6777  -14.2868   18.4432 C   0  0  2  0  0  0  0  0  0  0  0  0
    9.6050  -14.8200   17.4765 N   0  0  0  0  0  0  0  0  0  0  0  0
    8.5405  -15.2143   19.6158 C   0  0  0  0  0  0  0  0  0  0  0  0
    7.7470  -14.9509   20.5538 O   0  0  0  0  0  0  0  0  0  0  0  0
   10.9325  -20.3568   22.1107 N   0  0  0  0  0  0  0  0  0  0  0  0
    9.9196  -19.4528   21.7076 C   0  0  0  0  0  0  0  0  0  0  0  0
    8.8605  -19.4156   22.3785 O   0  0  0  0  0  0  0  0  0  0  0  0
   10.0766  -18.5799   20.5504 C   0  0  0  0  0  0  0  0  0  0  0  0
    9.3816  -17.2645   20.8557 C   0  0  2  0  0  0  0  0  0  0  0  0
    9.2847  -16.4107   19.7180 N   0  0  0  0  0  0  0  0  0  0  0  0
   10.1181  -16.6395   21.9844 C   0  0  0  0  0  0  0  0  0  0  0  0
   11.3008  -16.2108   21.8577 O   0  0  0  0  0  0  0  0  0  0  0  0
   11.3265  -14.3883   30.6071 O   0  0  0  0  0  0  0  0  0  0  0  0
   10.8130  -14.7626   29.3507 C   0  0  0  0  0  0  0  0  0  0  0  0
   10.5818  -16.0749   29.0089 C   0  0  0  0  0  0  0  0  0  0  0  0
   10.0771  -16.3957   27.7653 C   0  0  0  0  0  0  0  0  0  0  0  0
    9.7875  -15.4322   26.8230 C   0  0  0  0  0  0  0  0  0  0  0  0
    9.2556  -15.8124   25.5101 C   0  0  0  0  0  0  0  0  0  0  0  0
   10.3131  -15.9840   24.4313 C   0  0  2  0  0  0  0  0  0  0  0  0
    9.5567  -16.4762   23.2802 N   0  0  0  0  0  0  0  0  0  0  0  0
   11.2982  -16.9851   24.8910 C   0  0  0  0  0  0  0  0  0  0  0  0
   10.8720  -18.3079   25.0032 O   0  0  0  0  0  0  0  0  0  0  0  0
   10.0234  -14.1138   27.1732 C   0  0  0  0  0  0  0  0  0  0  0  0
   10.5331  -13.7887   28.4327 C   0  0  0  0  0  0  0  0  0  0  0  0
   12.4716  -16.7350   25.1836 O   0  0  0  0  0  0  0  0  0  0  0  0
  2  1  1  0
  2  3  2  0
  4  5  1  0
  4  2  1  0
  6  5  1  0
  6  7  1  6
  8 15  1  0
  8  6  1  0
  9  8  2  0
 10 11  1  0
 11 13  1  0
 12 11  2  0
 14 13  1  6
 14 16  1  0
 14 15  1  0
 16 17  2  0
 19 18  1  0
 19 20  2  0
 21 20  1  0
 22 21  2  0
 23 22  1  0
 24 23  1  1
 24 26  1  0
 25 24  1  0
 25 16  1  0
 26 27  1  0
 28 29  2  0
 28 22  1  0
 29 19  1  0
 30 26  2  0
M  END
$$$$
