QNY.pdb
     RDKit          3D

 30 30  0  0  1  0  0  0  0  0999 V2000
   14.4944  -15.2895   16.2359 N   0  0  0  0  0  0  0  0  0  0  0  0
   13.4583  -14.8966   17.1098 C   0  0  0  0  0  0  0  0  0  0  0  0
   13.7629  -14.2508   18.1425 O   0  0  0  0  0  0  0  0  0  0  0  0
   12.0481  -15.2198   16.8494 C   0  0  0  0  0  0  0  0  0  0  0  0
   11.8709  -16.7122   16.7305 C   0  0  0  0  0  0  0  0  0  0  0  0
   10.4020  -17.0682   16.5067 C   0  0  2  0  0  0  0  0  0  0  0  0
    9.7997  -16.1032   15.6208 N   0  0  0  0  0  0  0  0  0  0  0  0
    9.7405  -17.0382   17.8541 C   0  0  0  0  0  0  0  0  0  0  0  0
    9.1508  -16.0046   18.2573 O   0  0  0  0  0  0  0  0  0  0  0  0
   11.3525  -20.6381   21.3659 N   0  0  0  0  0  0  0  0  0  0  0  0
   10.4975  -20.2122   20.3204 C   0  0  0  0  0  0  0  0  0  0  0  0
   10.9051  -20.3288   19.1400 O   0  0  0  0  0  0  0  0  0  0  0  0
    9.1772  -19.6507   20.5800 C   0  0  0  0  0  0  0  0  0  0  0  0
    9.1431  -18.2445   20.0072 C   0  0  2  0  0  0  0  0  0  0  0  0
    9.7480  -18.1549   18.7194 N   0  0  0  0  0  0  0  0  0  0  0  0
    9.7854  -17.3553   21.0090 C   0  0  0  0  0  0  0  0  0  0  0  0
   11.0116  -17.0527   20.9484 O   0  0  0  0  0  0  0  0  0  0  0  0
    7.9559  -11.9140   18.2367 O   0  0  0  0  0  0  0  0  0  0  0  0
    8.1554  -12.5992   19.4503 C   0  0  0  0  0  0  0  0  0  0  0  0
    9.3617  -12.5940   20.1115 C   0  0  0  0  0  0  0  0  0  0  0  0
    9.5117  -13.2800   21.2993 C   0  0  0  0  0  0  0  0  0  0  0  0
    8.4775  -13.9919   21.8682 C   0  0  0  0  0  0  0  0  0  0  0  0
    8.6763  -14.7119   23.1304 C   0  0  0  0  0  0  0  0  0  0  0  0
    9.6837  -15.8480   23.0518 C   0  0  2  0  0  0  0  0  0  0  0  0
    9.0795  -16.7812   22.1013 N   0  0  0  0  0  0  0  0  0  0  0  0
    9.8123  -16.4583   24.3916 C   0  0  0  0  0  0  0  0  0  0  0  0
   10.5510  -15.7653   25.3498 O   0  0  0  0  0  0  0  0  0  0  0  0
    7.2666  -13.9937   21.1972 C   0  0  0  0  0  0  0  0  0  0  0  0
    7.1141  -13.2980   19.9953 C   0  0  0  0  0  0  0  0  0  0  0  0
    9.3133  -17.5378   24.7239 O   0  0  0  0  0  0  0  0  0  0  0  0
  2  1  1  0
  2  3  2  0
  4  5  1  0
  4  2  1  0
  6  5  1  0
  6  7  1  6
  8 15  1  0
  8  6  1  0
  9  8  2  0
 10 11  1  0
 11 13  1  0
 12 11  2  0
 14 13  1  1
 14 16  1  0
 14 15  1  0
 16 17  2  0
 19 18  1  0
 19 20  2  0
 21 20  1  0
 22 21  2  0
 23 22  1  0
 24 23  1  1
 24 26  1  0
 25 24  1  0
 25 16  1  0
 26 27  1  0
 28 29  2  0
 28 22  1  0
 29 19  1  0
 30 26  2  0
M  END
$$$$
