QNY.pdb
     RDKit          3D

 30 30  0  0  1  0  0  0  0  0999 V2000
    6.3095  -14.7756   16.7943 N   0  0  0  0  0  0  0  0  0  0  0  0
    7.4302  -13.9271   16.6698 C   0  0  0  0  0  0  0  0  0  0  0  0
    7.7479  -13.5241   15.5240 O   0  0  0  0  0  0  0  0  0  0  0  0
    8.2288  -13.5076   17.8305 C   0  0  0  0  0  0  0  0  0  0  0  0
    7.6766  -14.1236   19.0907 C   0  0  0  0  0  0  0  0  0  0  0  0
    8.4698  -13.6632   20.3126 C   0  0  2  0  0  0  0  0  0  0  0  0
    9.8002  -13.2803   19.9099 N   0  0  0  0  0  0  0  0  0  0  0  0
    8.5156  -14.8264   21.2608 C   0  0  0  0  0  0  0  0  0  0  0  0
    7.4560  -15.3431   21.6952 O   0  0  0  0  0  0  0  0  0  0  0  0
    9.5644  -18.0680   20.3615 N   0  0  0  0  0  0  0  0  0  0  0  0
   10.8407  -18.0907   20.9749 C   0  0  0  0  0  0  0  0  0  0  0  0
   11.7423  -18.7763   20.4363 O   0  0  0  0  0  0  0  0  0  0  0  0
   11.1257  -17.3488   22.1973 C   0  0  0  0  0  0  0  0  0  0  0  0
    9.8976  -16.5259   22.5452 C   0  0  2  0  0  0  0  0  0  0  0  0
    9.7345  -15.3881   21.7019 N   0  0  0  0  0  0  0  0  0  0  0  0
   10.0122  -16.1668   23.9821 C   0  0  0  0  0  0  0  0  0  0  0  0
   10.8747  -15.3422   24.4004 O   0  0  0  0  0  0  0  0  0  0  0  0
    6.6208  -10.6361   26.6360 O   0  0  0  0  0  0  0  0  0  0  0  0
    6.9380  -12.0065   26.6956 C   0  0  0  0  0  0  0  0  0  0  0  0
    6.1247  -12.9767   26.1575 C   0  0  0  0  0  0  0  0  0  0  0  0
    6.4758  -14.3086   26.2390 C   0  0  0  0  0  0  0  0  0  0  0  0
    7.6377  -14.7221   26.8547 C   0  0  0  0  0  0  0  0  0  0  0  0
    7.9752  -16.1477   26.9250 C   0  0  0  0  0  0  0  0  0  0  0  0
    9.3681  -16.4875   26.4189 C   0  0  2  0  0  0  0  0  0  0  0  0
    9.1703  -16.7155   24.9876 N   0  0  0  0  0  0  0  0  0  0  0  0
    9.8298  -17.7167   27.0970 C   0  0  0  0  0  0  0  0  0  0  0  0
    9.9570  -18.8717   26.3265 O   0  0  0  0  0  0  0  0  0  0  0  0
    8.4511  -13.7408   27.3949 C   0  0  0  0  0  0  0  0  0  0  0  0
    8.0965  -12.3920   27.3111 C   0  0  0  0  0  0  0  0  0  0  0  0
   10.1108  -17.7951   28.2969 O   0  0  0  0  0  0  0  0  0  0  0  0
  2  1  1  0
  2  3  2  0
  4  5  1  0
  4  2  1  0
  6  5  1  0
  6  7  1  6
  8 15  1  0
  8  6  1  0
  9  8  2  0
 10 11  1  0
 11 13  1  0
 12 11  2  0
 14 13  1  6
 14 16  1  0
 14 15  1  0
 16 17  2  0
 19 18  1  0
 19 20  2  0
 21 20  1  0
 22 21  2  0
 23 22  1  0
 24 23  1  1
 24 26  1  0
 25 24  1  0
 25 16  1  0
 26 27  1  0
 28 29  2  0
 28 22  1  0
 29 19  1  0
 30 26  2  0
M  END
$$$$
