QNY.pdb
     RDKit          3D

 30 30  0  0  1  0  0  0  0  0999 V2000
    7.2570  -12.6048   18.6157 N   0  0  0  0  0  0  0  0  0  0  0  0
    7.3888  -13.7223   17.7640 C   0  0  0  0  0  0  0  0  0  0  0  0
    7.2793  -13.5440   16.5261 O   0  0  0  0  0  0  0  0  0  0  0  0
    7.6462  -15.0747   18.2793 C   0  0  0  0  0  0  0  0  0  0  0  0
    7.5225  -15.0903   19.7816 C   0  0  0  0  0  0  0  0  0  0  0  0
    8.8864  -14.8910   20.4406 C   0  0  2  0  0  0  0  0  0  0  0  0
    9.9304  -15.2058   19.4973 N   0  0  0  0  0  0  0  0  0  0  0  0
    8.9366  -15.8206   21.6186 C   0  0  0  0  0  0  0  0  0  0  0  0
    7.9518  -15.9327   22.3908 O   0  0  0  0  0  0  0  0  0  0  0  0
   10.3642  -18.8320   20.7650 N   0  0  0  0  0  0  0  0  0  0  0  0
   11.4452  -19.0065   21.6631 C   0  0  0  0  0  0  0  0  0  0  0  0
   12.3659  -19.7917   21.3331 O   0  0  0  0  0  0  0  0  0  0  0  0
   11.5112  -18.3069   22.9406 C   0  0  0  0  0  0  0  0  0  0  0  0
   10.2813  -17.4236   23.0573 C   0  0  2  0  0  0  0  0  0  0  0  0
   10.0761  -16.6032   21.9095 N   0  0  0  0  0  0  0  0  0  0  0  0
   10.4326  -16.6371   24.3085 C   0  0  0  0  0  0  0  0  0  0  0  0
   11.5101  -16.0439   24.6014 O   0  0  0  0  0  0  0  0  0  0  0  0
    6.4362  -10.6626   25.6139 O   0  0  0  0  0  0  0  0  0  0  0  0
    6.9016  -11.9297   26.0138 C   0  0  0  0  0  0  0  0  0  0  0  0
    8.1278  -12.1115   26.6103 C   0  0  0  0  0  0  0  0  0  0  0  0
    8.5432  -13.3725   26.9862 C   0  0  0  0  0  0  0  0  0  0  0  0
    7.7624  -14.4903   26.7834 C   0  0  0  0  0  0  0  0  0  0  0  0
    8.2398  -15.8151   27.1932 C   0  0  0  0  0  0  0  0  0  0  0  0
    9.6226  -16.1719   26.6713 C   0  0  2  0  0  0  0  0  0  0  0  0
    9.3892  -16.4913   25.2631 N   0  0  0  0  0  0  0  0  0  0  0  0
   10.1167  -17.3515   27.4119 C   0  0  0  0  0  0  0  0  0  0  0  0
   10.6190  -17.1451   28.6962 O   0  0  0  0  0  0  0  0  0  0  0  0
    6.5301  -14.3004   26.1818 C   0  0  0  0  0  0  0  0  0  0  0  0
    6.1087  -13.0235   25.8025 C   0  0  0  0  0  0  0  0  0  0  0  0
   10.1174  -18.5067   26.9758 O   0  0  0  0  0  0  0  0  0  0  0  0
  2  1  1  0
  2  3  2  0
  4  5  1  0
  4  2  1  0
  6  5  1  0
  6  7  1  6
  8 15  1  0
  8  6  1  0
  9  8  2  0
 10 11  1  0
 11 13  1  0
 12 11  2  0
 14 13  1  6
 14 16  1  0
 14 15  1  0
 16 17  2  0
 19 18  1  0
 19 20  2  0
 21 20  1  0
 22 21  2  0
 23 22  1  0
 24 23  1  1
 24 26  1  0
 25 24  1  0
 25 16  1  0
 26 27  1  0
 28 29  2  0
 28 22  1  0
 29 19  1  0
 30 26  2  0
M  END
$$$$
