QNY.pdb
     RDKit          3D

 30 30  0  0  1  0  0  0  0  0999 V2000
    6.9101  -13.1053   17.2135 N   0  0  0  0  0  0  0  0  0  0  0  0
    8.0602  -13.9211   17.1577 C   0  0  0  0  0  0  0  0  0  0  0  0
    8.2368  -14.6328   16.1386 O   0  0  0  0  0  0  0  0  0  0  0  0
    9.0458  -13.9624   18.2475 C   0  0  0  0  0  0  0  0  0  0  0  0
    8.5787  -13.1137   19.4025 C   0  0  0  0  0  0  0  0  0  0  0  0
    9.5497  -13.2145   20.5778 C   0  0  2  0  0  0  0  0  0  0  0  0
   10.9056  -13.2031   20.0877 N   0  0  0  0  0  0  0  0  0  0  0  0
    9.2482  -14.5085   21.2770 C   0  0  0  0  0  0  0  0  0  0  0  0
    8.0906  -14.7567   21.6978 O   0  0  0  0  0  0  0  0  0  0  0  0
    9.9512  -19.9923   22.1168 N   0  0  0  0  0  0  0  0  0  0  0  0
   10.7749  -18.9646   22.6371 C   0  0  0  0  0  0  0  0  0  0  0  0
   11.2381  -19.1081   23.7938 O   0  0  0  0  0  0  0  0  0  0  0  0
   11.0912  -17.7640   21.8727 C   0  0  0  0  0  0  0  0  0  0  0  0
   10.1115  -16.6766   22.2779 C   0  0  2  0  0  0  0  0  0  0  0  0
   10.2367  -15.4949   21.4902 N   0  0  0  0  0  0  0  0  0  0  0  0
   10.3191  -16.4277   23.7277 C   0  0  0  0  0  0  0  0  0  0  0  0
   11.3723  -15.8862   24.1709 O   0  0  0  0  0  0  0  0  0  0  0  0
    6.6836  -10.8569   26.3992 O   0  0  0  0  0  0  0  0  0  0  0  0
    7.0761  -12.2059   26.4910 C   0  0  0  0  0  0  0  0  0  0  0  0
    8.1370  -12.6150   27.2653 C   0  0  0  0  0  0  0  0  0  0  0  0
    8.4862  -13.9486   27.3256 C   0  0  0  0  0  0  0  0  0  0  0  0
    7.8007  -14.9164   26.6231 C   0  0  0  0  0  0  0  0  0  0  0  0
    8.2041  -16.3239   26.7094 C   0  0  0  0  0  0  0  0  0  0  0  0
    9.5896  -16.6138   26.1543 C   0  0  2  0  0  0  0  0  0  0  0  0
    9.3606  -16.7746   24.7186 N   0  0  0  0  0  0  0  0  0  0  0  0
   10.0878  -17.8666   26.7596 C   0  0  0  0  0  0  0  0  0  0  0  0
   10.2343  -18.9743   25.9256 O   0  0  0  0  0  0  0  0  0  0  0  0
    6.7349  -14.4977   25.8451 C   0  0  0  0  0  0  0  0  0  0  0  0
    6.3802  -13.1477   25.7852 C   0  0  0  0  0  0  0  0  0  0  0  0
   10.3835  -18.0037   27.9506 O   0  0  0  0  0  0  0  0  0  0  0  0
  2  1  1  0
  2  3  2  0
  4  5  1  0
  4  2  1  0
  6  5  1  0
  6  7  1  6
  8 15  1  0
  8  6  1  0
  9  8  2  0
 10 11  1  0
 11 13  1  0
 12 11  2  0
 14 13  1  6
 14 16  1  0
 14 15  1  0
 16 17  2  0
 19 18  1  0
 19 20  2  0
 21 20  1  0
 22 21  2  0
 23 22  1  0
 24 23  1  1
 24 26  1  0
 25 24  1  0
 25 16  1  0
 26 27  1  0
 28 29  2  0
 28 22  1  0
 29 19  1  0
 30 26  2  0
M  END
$$$$
