QNY.pdb
     RDKit          3D

 30 30  0  0  1  0  0  0  0  0999 V2000
    8.4659  -12.4816   17.4689 N   0  0  0  0  0  0  0  0  0  0  0  0
    7.8942  -13.7717   17.4767 C   0  0  0  0  0  0  0  0  0  0  0  0
    8.1389  -14.5376   16.5125 O   0  0  0  0  0  0  0  0  0  0  0  0
    7.0282  -14.2389   18.5688 C   0  0  0  0  0  0  0  0  0  0  0  0
    7.3069  -13.4534   19.8249 C   0  0  0  0  0  0  0  0  0  0  0  0
    8.5687  -13.9663   20.5171 C   0  0  2  0  0  0  0  0  0  0  0  0
    9.4665  -14.5233   19.5361 N   0  0  0  0  0  0  0  0  0  0  0  0
    8.1281  -15.0190   21.4927 C   0  0  0  0  0  0  0  0  0  0  0  0
    7.1877  -14.7972   22.2959 O   0  0  0  0  0  0  0  0  0  0  0  0
    8.6051  -18.1103   20.3105 N   0  0  0  0  0  0  0  0  0  0  0  0
    9.5649  -18.7573   21.1264 C   0  0  0  0  0  0  0  0  0  0  0  0
   10.0945  -19.8089   20.6940 O   0  0  0  0  0  0  0  0  0  0  0  0
    9.9448  -18.2386   22.4350 C   0  0  0  0  0  0  0  0  0  0  0  0
    9.0842  -17.0218   22.7267 C   0  0  2  0  0  0  0  0  0  0  0  0
    8.7397  -16.2910   21.5520 N   0  0  0  0  0  0  0  0  0  0  0  0
    9.8215  -16.2006   23.7211 C   0  0  0  0  0  0  0  0  0  0  0  0
   10.1227  -14.9924   23.5015 O   0  0  0  0  0  0  0  0  0  0  0  0
    6.3255  -10.6939   26.6233 O   0  0  0  0  0  0  0  0  0  0  0  0
    6.8006  -12.0125   26.4904 C   0  0  0  0  0  0  0  0  0  0  0  0
    6.0366  -13.0218   25.9518 C   0  0  0  0  0  0  0  0  0  0  0  0
    6.5437  -14.3003   25.8407 C   0  0  0  0  0  0  0  0  0  0  0  0
    7.8175  -14.6206   26.2588 C   0  0  0  0  0  0  0  0  0  0  0  0
    8.3203  -15.9921   26.1277 C   0  0  0  0  0  0  0  0  0  0  0  0
    9.8294  -16.1216   26.2606 C   0  0  2  0  0  0  0  0  0  0  0  0
   10.2407  -16.7033   24.9830 N   0  0  0  0  0  0  0  0  0  0  0  0
   10.1276  -17.0343   27.3839 C   0  0  0  0  0  0  0  0  0  0  0  0
   10.1406  -18.4032   27.1193 O   0  0  0  0  0  0  0  0  0  0  0  0
    8.5806  -13.6004   26.8006 C   0  0  0  0  0  0  0  0  0  0  0  0
    8.0679  -12.3056   26.9119 C   0  0  0  0  0  0  0  0  0  0  0  0
   10.3658  -16.6726   28.5403 O   0  0  0  0  0  0  0  0  0  0  0  0
  2  1  1  0
  2  3  2  0
  4  5  1  0
  4  2  1  0
  6  5  1  0
  6  7  1  6
  8 15  1  0
  8  6  1  0
  9  8  2  0
 10 11  1  0
 11 13  1  0
 12 11  2  0
 14 13  1  6
 14 16  1  0
 14 15  1  0
 16 17  2  0
 19 18  1  0
 19 20  2  0
 21 20  1  0
 22 21  2  0
 23 22  1  0
 24 23  1  6
 24 26  1  0
 25 24  1  0
 25 16  1  0
 26 27  1  0
 28 29  2  0
 28 22  1  0
 29 19  1  0
 30 26  2  0
M  END
$$$$
