QNY.pdb
     RDKit          3D

 30 30  0  0  1  0  0  0  0  0999 V2000
    7.0180  -15.5640   13.5627 N   0  0  0  0  0  0  0  0  0  0  0  0
    7.4399  -16.9099   13.5174 C   0  0  0  0  0  0  0  0  0  0  0  0
    6.8240  -17.7021   12.7628 O   0  0  0  0  0  0  0  0  0  0  0  0
    8.5664  -17.4059   14.3209 C   0  0  0  0  0  0  0  0  0  0  0  0
    9.0866  -16.3111   15.2173 C   0  0  0  0  0  0  0  0  0  0  0  0
   10.3151  -16.7830   15.9935 C   0  0  2  0  0  0  0  0  0  0  0  0
   10.7762  -18.0378   15.4535 N   0  0  0  0  0  0  0  0  0  0  0  0
    9.8862  -16.9452   17.4232 C   0  0  0  0  0  0  0  0  0  0  0  0
    9.3643  -15.9893   18.0497 O   0  0  0  0  0  0  0  0  0  0  0  0
    9.2377  -21.6296   18.1417 N   0  0  0  0  0  0  0  0  0  0  0  0
    8.8793  -20.7327   19.1774 C   0  0  0  0  0  0  0  0  0  0  0  0
    7.6723  -20.6698   19.5125 O   0  0  0  0  0  0  0  0  0  0  0  0
    9.8640  -19.8948   19.8514 C   0  0  0  0  0  0  0  0  0  0  0  0
    9.6101  -18.4529   19.4476 C   0  0  2  0  0  0  0  0  0  0  0  0
   10.0451  -18.1630   18.1213 N   0  0  0  0  0  0  0  0  0  0  0  0
   10.2660  -17.5971   20.4695 C   0  0  0  0  0  0  0  0  0  0  0  0
   11.5201  -17.4407   20.5082 O   0  0  0  0  0  0  0  0  0  0  0  0
    7.7138  -12.3667   17.6424 O   0  0  0  0  0  0  0  0  0  0  0  0
    8.0856  -12.9731   18.8574 C   0  0  0  0  0  0  0  0  0  0  0  0
    9.3466  -12.8436   19.3917 C   0  0  0  0  0  0  0  0  0  0  0  0
    9.6669  -13.4558   20.5862 C   0  0  0  0  0  0  0  0  0  0  0  0
    8.7538  -14.2143   21.2869 C   0  0  0  0  0  0  0  0  0  0  0  0
    9.1325  -14.8529   22.5518 C   0  0  0  0  0  0  0  0  0  0  0  0
   10.1645  -15.9605   22.4102 C   0  0  2  0  0  0  0  0  0  0  0  0
    9.5430  -16.8948   21.4720 N   0  0  0  0  0  0  0  0  0  0  0  0
   10.3682  -16.5875   23.7328 C   0  0  0  0  0  0  0  0  0  0  0  0
   11.1545  -15.9033   24.6589 O   0  0  0  0  0  0  0  0  0  0  0  0
    7.4870  -14.3412   20.7432 C   0  0  0  0  0  0  0  0  0  0  0  0
    7.1621  -13.7202   19.5346 C   0  0  0  0  0  0  0  0  0  0  0  0
    9.8930  -17.6740   24.0772 O   0  0  0  0  0  0  0  0  0  0  0  0
  2  1  1  0
  2  3  2  0
  4  5  1  0
  4  2  1  0
  6  5  1  0
  6  7  1  6
  8 15  1  0
  8  6  1  0
  9  8  2  0
 10 11  1  0
 11 13  1  0
 12 11  2  0
 14 13  1  1
 14 16  1  0
 14 15  1  0
 16 17  2  0
 19 18  1  0
 19 20  2  0
 21 20  1  0
 22 21  2  0
 23 22  1  0
 24 23  1  1
 24 26  1  0
 25 24  1  0
 25 16  1  0
 26 27  1  0
 28 29  2  0
 28 22  1  0
 29 19  1  0
 30 26  2  0
M  END
$$$$
