QNY.pdb
     RDKit          3D

 30 30  0  0  1  0  0  0  0  0999 V2000
    7.1400  -15.3093   15.4880 N   0  0  0  0  0  0  0  0  0  0  0  0
    7.5554  -13.9950   15.7905 C   0  0  0  0  0  0  0  0  0  0  0  0
    7.8547  -13.2312   14.8401 O   0  0  0  0  0  0  0  0  0  0  0  0
    7.6484  -13.5005   17.1717 C   0  0  0  0  0  0  0  0  0  0  0  0
    8.1715  -14.5858   18.0777 C   0  0  0  0  0  0  0  0  0  0  0  0
    8.2417  -14.0985   19.5241 C   0  0  2  0  0  0  0  0  0  0  0  0
    8.8299  -12.7828   19.5635 N   0  0  0  0  0  0  0  0  0  0  0  0
    9.0935  -15.0840   20.2707 C   0  0  0  0  0  0  0  0  0  0  0  0
    8.7374  -16.2835   20.3854 O   0  0  0  0  0  0  0  0  0  0  0  0
   13.3969  -14.2348   19.3860 N   0  0  0  0  0  0  0  0  0  0  0  0
   12.9842  -15.3419   20.1668 C   0  0  0  0  0  0  0  0  0  0  0  0
   12.9368  -16.4677   19.6161 O   0  0  0  0  0  0  0  0  0  0  0  0
   12.6191  -15.2055   21.5718 C   0  0  0  0  0  0  0  0  0  0  0  0
   11.1406  -15.5253   21.7068 C   0  0  2  0  0  0  0  0  0  0  0  0
   10.3187  -14.7154   20.8695 N   0  0  0  0  0  0  0  0  0  0  0  0
   10.8011  -15.3955   23.1472 C   0  0  0  0  0  0  0  0  0  0  0  0
   11.1919  -14.4142   23.8423 O   0  0  0  0  0  0  0  0  0  0  0  0
    6.6306  -10.9782   27.4365 O   0  0  0  0  0  0  0  0  0  0  0  0
    7.0040  -12.2192   26.8864 C   0  0  0  0  0  0  0  0  0  0  0  0
    6.3928  -12.7471   25.7727 C   0  0  0  0  0  0  0  0  0  0  0  0
    6.7918  -13.9676   25.2677 C   0  0  0  0  0  0  0  0  0  0  0  0
    7.8034  -14.7032   25.8470 C   0  0  0  0  0  0  0  0  0  0  0  0
    8.1973  -15.9987   25.2835 C   0  0  0  0  0  0  0  0  0  0  0  0
    9.6973  -16.2468   25.2714 C   0  0  2  0  0  0  0  0  0  0  0  0
   10.0190  -16.3533   23.8484 N   0  0  0  0  0  0  0  0  0  0  0  0
    9.9715  -17.5156   25.9777 C   0  0  0  0  0  0  0  0  0  0  0  0
   10.1418  -18.6630   25.2040 O   0  0  0  0  0  0  0  0  0  0  0  0
    8.4136  -14.1667   26.9679 C   0  0  0  0  0  0  0  0  0  0  0  0
    8.0107  -12.9302   27.4785 C   0  0  0  0  0  0  0  0  0  0  0  0
   10.0604  -17.6335   27.2037 O   0  0  0  0  0  0  0  0  0  0  0  0
  2  1  1  0
  2  3  2  0
  4  5  1  0
  4  2  1  0
  6  5  1  0
  6  7  1  6
  8 15  1  0
  8  6  1  0
  9  8  2  0
 10 11  1  0
 11 13  1  0
 12 11  2  0
 14 13  1  1
 14 16  1  0
 14 15  1  0
 16 17  2  0
 19 18  1  0
 19 20  2  0
 21 20  1  0
 22 21  2  0
 23 22  1  0
 24 23  1  6
 24 26  1  0
 25 24  1  0
 25 16  1  0
 26 27  1  0
 28 29  2  0
 28 22  1  0
 29 19  1  0
 30 26  2  0
M  END
$$$$
