QNY.pdb
     RDKit          3D

 30 30  0  0  1  0  0  0  0  0999 V2000
    6.6488  -12.5707   18.5076 N   0  0  0  0  0  0  0  0  0  0  0  0
    7.5440  -13.2580   17.6605 C   0  0  0  0  0  0  0  0  0  0  0  0
    7.1597  -13.5548   16.5027 O   0  0  0  0  0  0  0  0  0  0  0  0
    8.8985  -13.6338   18.0907 C   0  0  0  0  0  0  0  0  0  0  0  0
    9.0718  -13.3555   19.5621 C   0  0  0  0  0  0  0  0  0  0  0  0
   10.4678  -13.7630   20.0308 C   0  0  2  0  0  0  0  0  0  0  0  0
   11.2874  -14.0834   18.8888 N   0  0  0  0  0  0  0  0  0  0  0  0
   10.2930  -14.9649   20.9135 C   0  0  0  0  0  0  0  0  0  0  0  0
    9.5275  -14.9249   21.9090 O   0  0  0  0  0  0  0  0  0  0  0  0
   14.0560  -18.6769   20.7578 N   0  0  0  0  0  0  0  0  0  0  0  0
   12.8407  -18.1587   20.2477 C   0  0  0  0  0  0  0  0  0  0  0  0
   12.9008  -17.3248   19.3127 O   0  0  0  0  0  0  0  0  0  0  0  0
   11.5436  -18.5649   20.7755 C   0  0  0  0  0  0  0  0  0  0  0  0
   10.9185  -17.3637   21.4632 C   0  0  2  0  0  0  0  0  0  0  0  0
   10.9696  -16.1807   20.6693 N   0  0  0  0  0  0  0  0  0  0  0  0
   11.6054  -17.2102   22.7715 C   0  0  0  0  0  0  0  0  0  0  0  0
   12.5234  -16.3594   22.9509 O   0  0  0  0  0  0  0  0  0  0  0  0
    9.7019  -13.9243   30.4108 O   0  0  0  0  0  0  0  0  0  0  0  0
    9.8433  -14.5221   29.1440 C   0  0  0  0  0  0  0  0  0  0  0  0
    9.2411  -14.0139   28.0164 C   0  0  0  0  0  0  0  0  0  0  0  0
    9.4075  -14.6331   26.7946 C   0  0  0  0  0  0  0  0  0  0  0  0
   10.1709  -15.7717   26.6498 C   0  0  0  0  0  0  0  0  0  0  0  0
   10.3214  -16.4038   25.3350 C   0  0  0  0  0  0  0  0  0  0  0  0
   11.3712  -17.5025   25.2844 C   0  0  2  0  0  0  0  0  0  0  0  0
   11.2873  -17.9985   23.9109 N   0  0  0  0  0  0  0  0  0  0  0  0
   11.0017  -18.5534   26.2556 C   0  0  0  0  0  0  0  0  0  0  0  0
    9.8057  -19.2381   26.0439 O   0  0  0  0  0  0  0  0  0  0  0  0
   10.7733  -16.2783   27.7887 C   0  0  0  0  0  0  0  0  0  0  0  0
   10.6061  -15.6507   29.0256 C   0  0  0  0  0  0  0  0  0  0  0  0
   11.6752  -18.8688   27.2413 O   0  0  0  0  0  0  0  0  0  0  0  0
  2  1  1  0
  2  3  2  0
  4  5  1  0
  4  2  1  0
  6  5  1  0
  6  7  1  6
  8 15  1  0
  8  6  1  0
  9  8  2  0
 10 11  1  0
 11 13  1  0
 12 11  2  0
 14 13  1  6
 14 16  1  0
 14 15  1  0
 16 17  2  0
 19 18  1  0
 19 20  2  0
 21 20  1  0
 22 21  2  0
 23 22  1  0
 24 23  1  6
 24 26  1  0
 25 24  1  0
 25 16  1  0
 26 27  1  0
 28 29  2  0
 28 22  1  0
 29 19  1  0
 30 26  2  0
M  END
$$$$
