QNY.pdb
     RDKit          3D

 30 30  0  0  1  0  0  0  0  0999 V2000
   10.1254  -13.2812   18.8188 N   0  0  0  0  0  0  0  0  0  0  0  0
    8.8476  -12.8188   18.4382 C   0  0  0  0  0  0  0  0  0  0  0  0
    8.7480  -12.1433   17.3846 O   0  0  0  0  0  0  0  0  0  0  0  0
    7.6431  -13.1008   19.2322 C   0  0  0  0  0  0  0  0  0  0  0  0
    7.9920  -13.9690   20.4142 C   0  0  0  0  0  0  0  0  0  0  0  0
    8.2352  -15.4120   19.9748 C   0  0  2  0  0  0  0  0  0  0  0  0
    7.0411  -15.9393   19.3625 N   0  0  0  0  0  0  0  0  0  0  0  0
    8.5847  -16.1869   21.2123 C   0  0  0  0  0  0  0  0  0  0  0  0
    7.6855  -16.7010   21.9236 O   0  0  0  0  0  0  0  0  0  0  0  0
   12.6630  -18.3213   20.1796 N   0  0  0  0  0  0  0  0  0  0  0  0
   11.7629  -18.5497   21.2489 C   0  0  0  0  0  0  0  0  0  0  0  0
   10.9302  -19.4802   21.1310 O   0  0  0  0  0  0  0  0  0  0  0  0
   11.7813  -17.7418   22.4625 C   0  0  0  0  0  0  0  0  0  0  0  0
   10.3789  -17.2060   22.6922 C   0  0  2  0  0  0  0  0  0  0  0  0
    9.9215  -16.3738   21.6288 N   0  0  0  0  0  0  0  0  0  0  0  0
   10.3931  -16.5093   24.0042 C   0  0  0  0  0  0  0  0  0  0  0  0
   11.2444  -15.6160   24.2798 O   0  0  0  0  0  0  0  0  0  0  0  0
    6.4146  -10.5270   26.2848 O   0  0  0  0  0  0  0  0  0  0  0  0
    6.8441  -11.8633   26.3944 C   0  0  0  0  0  0  0  0  0  0  0  0
    8.1747  -12.2117   26.4159 C   0  0  0  0  0  0  0  0  0  0  0  0
    8.5500  -13.5351   26.5250 C   0  0  0  0  0  0  0  0  0  0  0  0
    7.6244  -14.5526   26.6143 C   0  0  0  0  0  0  0  0  0  0  0  0
    8.0618  -15.9481   26.7253 C   0  0  0  0  0  0  0  0  0  0  0  0
    9.5217  -16.1775   26.3676 C   0  0  2  0  0  0  0  0  0  0  0  0
    9.4609  -16.7892   25.0403 N   0  0  0  0  0  0  0  0  0  0  0  0
   10.1099  -17.1045   27.3568 C   0  0  0  0  0  0  0  0  0  0  0  0
   10.5210  -16.5718   28.5780 O   0  0  0  0  0  0  0  0  0  0  0  0
    6.2871  -14.1951   26.5911 C   0  0  0  0  0  0  0  0  0  0  0  0
    5.9070  -12.8551   26.4822 C   0  0  0  0  0  0  0  0  0  0  0  0
   10.2642  -18.3169   27.1801 O   0  0  0  0  0  0  0  0  0  0  0  0
  2  1  1  0
  2  3  2  0
  4  5  1  0
  4  2  1  0
  6  5  1  0
  6  7  1  1
  8 15  1  0
  8  6  1  0
  9  8  2  0
 10 11  1  0
 11 13  1  0
 12 11  2  0
 14 13  1  6
 14 16  1  0
 14 15  1  0
 16 17  2  0
 19 18  1  0
 19 20  2  0
 21 20  1  0
 22 21  2  0
 23 22  1  0
 24 23  1  1
 24 26  1  0
 25 24  1  0
 25 16  1  0
 26 27  1  0
 28 29  2  0
 28 22  1  0
 29 19  1  0
 30 26  2  0
M  END
$$$$
