QNY.pdb
     RDKit          3D

 30 30  0  0  1  0  0  0  0  0999 V2000
    6.0565  -21.8143   27.2224 N   0  0  0  0  0  0  0  0  0  0  0  0
    5.4715  -22.3523   26.0563 C   0  0  0  0  0  0  0  0  0  0  0  0
    4.7826  -23.3965   26.1628 O   0  0  0  0  0  0  0  0  0  0  0  0
    5.6452  -21.7330   24.7346 C   0  0  0  0  0  0  0  0  0  0  0  0
    6.3691  -20.4175   24.8686 C   0  0  0  0  0  0  0  0  0  0  0  0
    6.4455  -19.7002   23.5218 C   0  0  2  0  0  0  0  0  0  0  0  0
    6.1598  -20.6327   22.4599 N   0  0  0  0  0  0  0  0  0  0  0  0
    7.8424  -19.1642   23.3968 C   0  0  0  0  0  0  0  0  0  0  0  0
    8.8357  -19.9205   23.5385 O   0  0  0  0  0  0  0  0  0  0  0  0
   11.7706  -16.0614   21.4821 N   0  0  0  0  0  0  0  0  0  0  0  0
   10.7589  -15.3989   22.2190 C   0  0  0  0  0  0  0  0  0  0  0  0
   11.0698  -14.3562   22.8428 O   0  0  0  0  0  0  0  0  0  0  0  0
    9.3879  -15.8926   22.2687 C   0  0  0  0  0  0  0  0  0  0  0  0
    9.3745  -17.1604   23.1049 C   0  0  2  0  0  0  0  0  0  0  0  0
    8.1026  -17.8043   23.1164 N   0  0  0  0  0  0  0  0  0  0  0  0
    9.8433  -16.7856   24.4638 C   0  0  0  0  0  0  0  0  0  0  0  0
   11.0179  -16.3687   24.6765 O   0  0  0  0  0  0  0  0  0  0  0  0
    6.3034  -11.1653   25.2388 O   0  0  0  0  0  0  0  0  0  0  0  0
    6.7662  -12.3599   25.8225 C   0  0  0  0  0  0  0  0  0  0  0  0
    6.0777  -13.5465   25.7208 C   0  0  0  0  0  0  0  0  0  0  0  0
    6.5695  -14.6937   26.3092 C   0  0  0  0  0  0  0  0  0  0  0  0
    7.7529  -14.7034   27.0158 C   0  0  0  0  0  0  0  0  0  0  0  0
    8.2417  -15.9421   27.6306 C   0  0  0  0  0  0  0  0  0  0  0  0
    9.4771  -16.5270   26.9646 C   0  0  2  0  0  0  0  0  0  0  0  0
    9.0171  -16.8651   25.6179 N   0  0  0  0  0  0  0  0  0  0  0  0
    9.8864  -17.7364   27.7088 C   0  0  0  0  0  0  0  0  0  0  0  0
    9.7302  -18.9691   27.0761 O   0  0  0  0  0  0  0  0  0  0  0  0
    8.4403  -13.5058   27.1151 C   0  0  0  0  0  0  0  0  0  0  0  0
    7.9433  -12.3445   26.5182 C   0  0  0  0  0  0  0  0  0  0  0  0
   10.3565  -17.7346   28.8507 O   0  0  0  0  0  0  0  0  0  0  0  0
  2  1  1  0
  2  3  2  0
  4  5  1  0
  4  2  1  0
  6  5  1  0
  6  7  1  6
  8 15  1  0
  8  6  1  0
  9  8  2  0
 10 11  1  0
 11 13  1  0
 12 11  2  0
 14 13  1  6
 14 16  1  0
 14 15  1  0
 16 17  2  0
 19 18  1  0
 19 20  2  0
 21 20  1  0
 22 21  2  0
 23 22  1  0
 24 23  1  1
 24 26  1  0
 25 24  1  0
 25 16  1  0
 26 27  1  0
 28 29  2  0
 28 22  1  0
 29 19  1  0
 30 26  2  0
M  END
$$$$
