QNY.pdb
     RDKit          3D

 30 30  0  0  1  0  0  0  0  0999 V2000
    7.1026  -12.3654   16.9709 N   0  0  0  0  0  0  0  0  0  0  0  0
    7.4324  -13.6994   16.6502 C   0  0  0  0  0  0  0  0  0  0  0  0
    6.7228  -14.3025   15.8081 O   0  0  0  0  0  0  0  0  0  0  0  0
    8.5697  -14.3962   17.2682 C   0  0  0  0  0  0  0  0  0  0  0  0
    9.2446  -13.4983   18.2736 C   0  0  0  0  0  0  0  0  0  0  0  0
   10.3744  -14.2372   18.9890 C   0  0  2  0  0  0  0  0  0  0  0  0
   11.0200  -15.1410   18.0696 N   0  0  0  0  0  0  0  0  0  0  0  0
    9.7454  -14.9929   20.1236 C   0  0  0  0  0  0  0  0  0  0  0  0
    9.0745  -14.3937   21.0008 O   0  0  0  0  0  0  0  0  0  0  0  0
    7.2733  -19.3488   20.1584 N   0  0  0  0  0  0  0  0  0  0  0  0
    8.6315  -19.0038   19.9537 C   0  0  0  0  0  0  0  0  0  0  0  0
    9.0625  -18.9762   18.7762 O   0  0  0  0  0  0  0  0  0  0  0  0
    9.5250  -18.6858   21.0612 C   0  0  0  0  0  0  0  0  0  0  0  0
    9.4161  -17.1970   21.3408 C   0  0  2  0  0  0  0  0  0  0  0  0
    9.8746  -16.3934   20.2561 N   0  0  0  0  0  0  0  0  0  0  0  0
   10.1574  -16.9399   22.6023 C   0  0  0  0  0  0  0  0  0  0  0  0
   11.3924  -17.1859   22.7162 O   0  0  0  0  0  0  0  0  0  0  0  0
   10.8100  -14.5576   31.2424 O   0  0  0  0  0  0  0  0  0  0  0  0
   10.4624  -14.7426   29.8907 C   0  0  0  0  0  0  0  0  0  0  0  0
   10.8668  -15.8410   29.1680 C   0  0  0  0  0  0  0  0  0  0  0  0
   10.5020  -15.9812   27.8446 C   0  0  0  0  0  0  0  0  0  0  0  0
    9.7297  -15.0417   27.1957 C   0  0  0  0  0  0  0  0  0  0  0  0
    9.3652  -15.2237   25.7867 C   0  0  0  0  0  0  0  0  0  0  0  0
   10.2477  -16.2059   25.0330 C   0  0  2  0  0  0  0  0  0  0  0  0
    9.5430  -16.4030   23.7665 N   0  0  0  0  0  0  0  0  0  0  0  0
   10.3205  -17.4637   25.8054 C   0  0  0  0  0  0  0  0  0  0  0  0
   11.4844  -17.7097   26.5327 O   0  0  0  0  0  0  0  0  0  0  0  0
    9.3270  -13.9384   27.9285 C   0  0  0  0  0  0  0  0  0  0  0  0
    9.6950  -13.7971   29.2688 C   0  0  0  0  0  0  0  0  0  0  0  0
    9.4254  -18.3131   25.8530 O   0  0  0  0  0  0  0  0  0  0  0  0
  2  1  1  0
  2  3  2  0
  4  5  1  0
  4  2  1  0
  6  5  1  0
  6  7  1  6
  8 15  1  0
  8  6  1  0
  9  8  2  0
 10 11  1  0
 11 13  1  0
 12 11  2  0
 14 13  1  6
 14 16  1  0
 14 15  1  0
 16 17  2  0
 19 18  1  0
 19 20  2  0
 21 20  1  0
 22 21  2  0
 23 22  1  0
 24 23  1  1
 24 26  1  0
 25 24  1  0
 25 16  1  0
 26 27  1  0
 28 29  2  0
 28 22  1  0
 29 19  1  0
 30 26  2  0
M  END
$$$$
