NEA.pdb
     RDKit          3D

 23 22  0  0  1  0  0  0  0  0999 V2000
   17.2027  -14.5645  -15.3296 N   0  0  0  0  0  0  0  0  0  0  0  0
   16.7003  -13.2344  -15.3687 C   0  0  0  0  0  0  0  0  0  0  0  0
   15.5165  -12.9876  -15.0487 O   0  0  0  0  0  0  0  0  0  0  0  0
   17.6199  -12.1531  -15.7994 C   0  0  0  0  0  0  0  0  0  0  0  0
   17.2327  -10.8703  -15.1330 C   0  0  2  0  0  0  0  0  0  0  0  0
   15.9043  -10.4406  -15.4166 N   0  0  0  0  0  0  0  0  0  0  0  0
   18.2538   -9.8264  -15.4791 C   0  0  0  0  0  0  0  0  0  0  0  0
   19.4986  -10.1005  -15.4791 O   0  0  0  0  0  0  0  0  0  0  0  0
   17.8211   -8.5136  -15.8111 N   0  0  0  0  0  0  0  0  0  0  0  0
   18.7281   -7.4509  -16.1497 C   0  0  1  0  0  0  0  0  0  0  0  0
   18.1041   -6.4153  -17.0608 C   0  0  0  0  0  0  0  0  0  0  0  0
   19.1755   -5.4433  -17.4884 C   0  0  0  0  0  0  0  0  0  0  0  0
   18.6647   -4.4105  -18.4006 C   0  0  0  0  0  0  0  0  0  0  0  0
   19.4978   -3.5531  -18.8179 O   0  0  0  0  0  0  0  0  0  0  0  0
   19.3722   -6.8475  -14.9598 C   0  0  0  0  0  0  0  0  0  0  0  0
   18.6443   -6.3607  -14.0650 O   0  0  0  0  0  0  0  0  0  0  0  0
   17.3478   -4.3164  -18.8279 O   0  0  0  0  0  0  0  0  0  0  0  0
   22.8542   -6.8104  -13.5153 C   0  0  0  0  0  0  0  0  0  0  0  0
   21.4695   -6.2815  -13.6816 C   0  0  2  0  0  0  0  0  0  0  0  0
   20.7625   -6.8134  -14.8223 N   0  0  0  0  0  0  0  0  0  0  0  0
   21.5722   -4.7985  -13.8787 C   0  0  0  0  0  0  0  0  0  0  0  0
   22.0928   -4.0549  -13.0043 O   0  0  0  0  0  0  0  0  0  0  0  0
   21.1011   -4.1699  -15.0308 O   0  0  0  0  0  0  0  0  0  0  0  0
  2  1  1  0
  2  3  2  0
  4  2  1  0
  5  4  1  0
  5  6  1  6
  7  9  1  0
  7  5  1  0
  8  7  2  0
 10 15  1  0
 10  9  1  0
 10 11  1  1
 12 11  1  0
 13 12  1  0
 13 14  2  0
 15 16  2  0
 17 13  1  0
 19 18  1  6
 20 19  1  0
 20 15  1  0
 21 23  1  0
 21 19  1  0
 22 21  2  0
M  END
$$$$
