NEA.pdb
     RDKit          3D

 23 22  0  0  1  0  0  0  0  0999 V2000
   18.0474  -11.9110  -18.3864 N   0  0  0  0  0  0  0  0  0  0  0  0
   16.8037  -11.3141  -18.0396 C   0  0  0  0  0  0  0  0  0  0  0  0
   15.8108  -11.4198  -18.7930 O   0  0  0  0  0  0  0  0  0  0  0  0
   16.7211  -10.5649  -16.7620 C   0  0  0  0  0  0  0  0  0  0  0  0
   18.0567  -10.5755  -16.0871 C   0  0  2  0  0  0  0  0  0  0  0  0
   18.3012  -11.7311  -15.2904 N   0  0  0  0  0  0  0  0  0  0  0  0
   18.2051   -9.3037  -15.3043 C   0  0  0  0  0  0  0  0  0  0  0  0
   17.5240   -9.1012  -14.2461 O   0  0  0  0  0  0  0  0  0  0  0  0
   19.1203   -8.3132  -15.7540 N   0  0  0  0  0  0  0  0  0  0  0  0
   19.2765   -7.0385  -15.1079 C   0  0  1  0  0  0  0  0  0  0  0  0
   20.7108   -6.7502  -14.7185 C   0  0  0  0  0  0  0  0  0  0  0  0
   20.7475   -5.4577  -13.9418 C   0  0  0  0  0  0  0  0  0  0  0  0
   22.1076   -5.0948  -13.5198 C   0  0  0  0  0  0  0  0  0  0  0  0
   22.3601   -5.1653  -12.2809 O   0  0  0  0  0  0  0  0  0  0  0  0
   18.6612   -5.9296  -15.8738 C   0  0  0  0  0  0  0  0  0  0  0  0
   18.9930   -5.7696  -17.0703 O   0  0  0  0  0  0  0  0  0  0  0  0
   23.1179   -4.6866  -14.3789 O   0  0  0  0  0  0  0  0  0  0  0  0
   15.7130   -3.6505  -15.3881 C   0  0  0  0  0  0  0  0  0  0  0  0
   17.0370   -4.0049  -15.9764 C   0  0  2  0  0  0  0  0  0  0  0  0
   17.7277   -5.0697  -15.2887 N   0  0  0  0  0  0  0  0  0  0  0  0
   17.9092   -2.7879  -15.8935 C   0  0  0  0  0  0  0  0  0  0  0  0
   18.6898   -2.6051  -14.9211 O   0  0  0  0  0  0  0  0  0  0  0  0
   17.9022   -1.8029  -16.8805 O   0  0  0  0  0  0  0  0  0  0  0  0
  2  1  1  0
  2  3  2  0
  4  2  1  0
  5  4  1  0
  5  6  1  1
  7  9  1  0
  7  5  1  0
  8  7  2  0
 10 15  1  0
 10  9  1  0
 10 11  1  6
 12 11  1  0
 13 12  1  0
 13 14  2  0
 15 16  2  0
 17 13  1  0
 19 18  1  1
 20 19  1  0
 20 15  1  0
 21 23  1  0
 21 19  1  0
 22 21  2  0
M  END
$$$$
