NEA.pdb
     RDKit          3D

 23 22  0  0  1  0  0  0  0  0999 V2000
   15.3828  -12.8376  -15.1995 N   0  0  0  0  0  0  0  0  0  0  0  0
   16.7212  -13.0073  -14.7489 C   0  0  0  0  0  0  0  0  0  0  0  0
   17.0613  -14.0378  -14.1268 O   0  0  0  0  0  0  0  0  0  0  0  0
   17.6973  -11.9283  -15.0379 C   0  0  0  0  0  0  0  0  0  0  0  0
   16.9849  -10.7530  -15.6301 C   0  0  2  0  0  0  0  0  0  0  0  0
   16.3482  -11.0209  -16.8762 N   0  0  0  0  0  0  0  0  0  0  0  0
   17.9494   -9.6067  -15.7195 C   0  0  0  0  0  0  0  0  0  0  0  0
   19.1658   -9.7969  -16.0494 O   0  0  0  0  0  0  0  0  0  0  0  0
   17.4946   -8.2911  -15.4310 N   0  0  0  0  0  0  0  0  0  0  0  0
   18.2903   -7.1170  -15.6658 C   0  0  1  0  0  0  0  0  0  0  0  0
   17.4536   -5.8692  -15.8521 C   0  0  0  0  0  0  0  0  0  0  0  0
   18.3780   -4.7027  -16.0971 C   0  0  0  0  0  0  0  0  0  0  0  0
   17.6495   -3.4447  -16.3121 C   0  0  0  0  0  0  0  0  0  0  0  0
   17.3316   -2.7842  -15.2796 O   0  0  0  0  0  0  0  0  0  0  0  0
   19.3597   -6.9392  -14.6560 C   0  0  0  0  0  0  0  0  0  0  0  0
   19.0480   -6.9473  -13.4435 O   0  0  0  0  0  0  0  0  0  0  0  0
   17.2935   -2.9415  -17.5553 O   0  0  0  0  0  0  0  0  0  0  0  0
   23.1226   -6.9856  -14.6581 C   0  0  0  0  0  0  0  0  0  0  0  0
   21.7947   -6.5764  -14.1157 C   0  0  2  0  0  0  0  0  0  0  0  0
   20.6946   -6.7647  -15.0312 N   0  0  0  0  0  0  0  0  0  0  0  0
   21.8646   -5.1109  -13.8059 C   0  0  0  0  0  0  0  0  0  0  0  0
   21.2542   -4.2617  -14.5093 O   0  0  0  0  0  0  0  0  0  0  0  0
   22.6026   -4.6152  -12.7315 O   0  0  0  0  0  0  0  0  0  0  0  0
  2  1  1  0
  2  3  2  0
  4  2  1  0
  5  4  1  0
  5  6  1  6
  7  9  1  0
  7  5  1  0
  8  7  2  0
 10 15  1  0
 10  9  1  0
 10 11  1  1
 12 11  1  0
 13 12  1  0
 13 14  2  0
 15 16  2  0
 17 13  1  0
 19 18  1  6
 20 19  1  0
 20 15  1  0
 21 23  1  0
 21 19  1  0
 22 21  2  0
M  END
$$$$
