NEA.pdb
     RDKit          3D

 23 22  0  0  1  0  0  0  0  0999 V2000
   18.6434  -13.7918  -15.9920 N   0  0  0  0  0  0  0  0  0  0  0  0
   19.0915  -13.2913  -17.2457 C   0  0  0  0  0  0  0  0  0  0  0  0
   19.4013  -14.0719  -18.1728 O   0  0  0  0  0  0  0  0  0  0  0  0
   19.1801  -11.8208  -17.4191 C   0  0  0  0  0  0  0  0  0  0  0  0
   18.7663  -11.1406  -16.1520 C   0  0  2  0  0  0  0  0  0  0  0  0
   17.4182  -11.3922  -15.7654 N   0  0  0  0  0  0  0  0  0  0  0  0
   19.0559   -9.6738  -16.2821 C   0  0  0  0  0  0  0  0  0  0  0  0
   18.1425   -8.8521  -16.6217 O   0  0  0  0  0  0  0  0  0  0  0  0
   20.3701   -9.1987  -16.0215 N   0  0  0  0  0  0  0  0  0  0  0  0
   20.7328   -7.8100  -16.1033 C   0  0  1  0  0  0  0  0  0  0  0  0
   21.3329   -7.2839  -14.8169 C   0  0  0  0  0  0  0  0  0  0  0  0
   21.5630   -5.8005  -14.9652 C   0  0  0  0  0  0  0  0  0  0  0  0
   22.1620   -5.2024  -13.7639 C   0  0  0  0  0  0  0  0  0  0  0  0
   22.4672   -3.9752  -13.8273 O   0  0  0  0  0  0  0  0  0  0  0  0
   21.5696   -7.5059  -17.2874 C   0  0  0  0  0  0  0  0  0  0  0  0
   22.6140   -8.1714  -17.4715 O   0  0  0  0  0  0  0  0  0  0  0  0
   22.4104   -5.8860  -12.5822 O   0  0  0  0  0  0  0  0  0  0  0  0
   21.1442   -5.3249  -20.3582 C   0  0  0  0  0  0  0  0  0  0  0  0
   21.8891   -6.2342  -19.4399 C   0  0  2  0  0  0  0  0  0  0  0  0
   21.2159   -6.5002  -18.1910 N   0  0  0  0  0  0  0  0  0  0  0  0
   23.1922   -5.5716  -19.1061 C   0  0  0  0  0  0  0  0  0  0  0  0
   23.3775   -5.0126  -17.9918 O   0  0  0  0  0  0  0  0  0  0  0  0
   24.2587   -5.5401  -20.0040 O   0  0  0  0  0  0  0  0  0  0  0  0
  2  1  1  0
  2  3  2  0
  4  2  1  0
  5  4  1  0
  5  6  1  6
  7  9  1  0
  7  5  1  0
  8  7  2  0
 10 15  1  0
 10  9  1  0
 10 11  1  1
 12 11  1  0
 13 12  1  0
 13 14  2  0
 15 16  2  0
 17 13  1  0
 19 18  1  6
 20 19  1  0
 20 15  1  0
 21 23  1  0
 21 19  1  0
 22 21  2  0
M  END
$$$$
