NEA.pdb
     RDKit          3D

 23 22  0  0  1  0  0  0  0  0999 V2000
   27.9576  -10.9196  -15.6227 N   0  0  0  0  0  0  0  0  0  0  0  0
   26.6237  -11.1942  -16.0331 C   0  0  0  0  0  0  0  0  0  0  0  0
   26.1970  -12.3692  -16.0785 O   0  0  0  0  0  0  0  0  0  0  0  0
   25.7576  -10.0487  -16.4045 C   0  0  0  0  0  0  0  0  0  0  0  0
   24.4435  -10.5565  -16.9094 C   0  0  2  0  0  0  0  0  0  0  0  0
   24.5376  -11.3598  -18.0823 N   0  0  0  0  0  0  0  0  0  0  0  0
   23.5200   -9.3879  -17.0934 C   0  0  0  0  0  0  0  0  0  0  0  0
   23.3272   -8.8790  -18.2460 O   0  0  0  0  0  0  0  0  0  0  0  0
   22.8527   -8.8441  -15.9621 N   0  0  0  0  0  0  0  0  0  0  0  0
   21.8849   -7.7853  -16.0563 C   0  0  1  0  0  0  0  0  0  0  0  0
   20.4770   -8.2485  -15.7481 C   0  0  0  0  0  0  0  0  0  0  0  0
   19.5262   -7.1088  -16.0170 C   0  0  0  0  0  0  0  0  0  0  0  0
   18.1352   -7.4481  -15.6858 C   0  0  0  0  0  0  0  0  0  0  0  0
   17.2636   -6.5528  -15.8911 O   0  0  0  0  0  0  0  0  0  0  0  0
   22.2719   -6.5854  -15.2784 C   0  0  0  0  0  0  0  0  0  0  0  0
   22.6043   -6.7282  -14.0799 O   0  0  0  0  0  0  0  0  0  0  0  0
   17.7219   -8.6684  -15.1706 O   0  0  0  0  0  0  0  0  0  0  0  0
   22.5518   -2.8666  -16.0108 C   0  0  0  0  0  0  0  0  0  0  0  0
   22.7273   -4.1075  -15.2021 C   0  0  2  0  0  0  0  0  0  0  0  0
   22.2718   -5.3120  -15.8544 N   0  0  0  0  0  0  0  0  0  0  0  0
   21.9166   -3.9503  -13.9505 C   0  0  0  0  0  0  0  0  0  0  0  0
   22.3422   -3.2777  -12.9733 O   0  0  0  0  0  0  0  0  0  0  0  0
   20.6593   -4.5352  -13.8038 O   0  0  0  0  0  0  0  0  0  0  0  0
  2  1  1  0
  2  3  2  0
  4  2  1  0
  5  4  1  0
  5  6  1  6
  7  9  1  0
  7  5  1  0
  8  7  2  0
 10 15  1  0
 10  9  1  0
 10 11  1  1
 12 11  1  0
 13 12  1  0
 13 14  2  0
 15 16  2  0
 17 13  1  0
 19 18  1  6
 20 19  1  0
 20 15  1  0
 21 23  1  0
 21 19  1  0
 22 21  2  0
M  END
$$$$
