NEA.pdb
     RDKit          3D

 23 22  0  0  1  0  0  0  0  0999 V2000
   16.4271  -14.3898  -15.2013 N   0  0  0  0  0  0  0  0  0  0  0  0
   15.8141  -13.2575  -14.5971 C   0  0  0  0  0  0  0  0  0  0  0  0
   14.6143  -12.9836  -14.8206 O   0  0  0  0  0  0  0  0  0  0  0  0
   16.6388  -12.4142  -13.6974 C   0  0  0  0  0  0  0  0  0  0  0  0
   16.4881  -10.9755  -14.0810 C   0  0  2  0  0  0  0  0  0  0  0  0
   16.9913  -10.6588  -15.3757 N   0  0  0  0  0  0  0  0  0  0  0  0
   17.1075  -10.1289  -13.0077 C   0  0  0  0  0  0  0  0  0  0  0  0
   16.9206  -10.3920  -11.7747 O   0  0  0  0  0  0  0  0  0  0  0  0
   17.9138   -9.0179  -13.3772 N   0  0  0  0  0  0  0  0  0  0  0  0
   18.4379   -8.0777  -12.4242 C   0  0  1  0  0  0  0  0  0  0  0  0
   19.5981   -7.2735  -12.9710 C   0  0  0  0  0  0  0  0  0  0  0  0
   20.1974   -6.4678  -11.8454 C   0  0  0  0  0  0  0  0  0  0  0  0
   21.3042   -5.6121  -12.2949 C   0  0  0  0  0  0  0  0  0  0  0  0
   21.6225   -5.6842  -13.5184 O   0  0  0  0  0  0  0  0  0  0  0  0
   17.3859   -7.2236  -11.8252 C   0  0  0  0  0  0  0  0  0  0  0  0
   16.6440   -6.5621  -12.5863 O   0  0  0  0  0  0  0  0  0  0  0  0
   22.0120   -4.7428  -11.4771 O   0  0  0  0  0  0  0  0  0  0  0  0
   16.0432   -6.6407   -8.3280 C   0  0  0  0  0  0  0  0  0  0  0  0
   16.2254   -6.3278   -9.7750 C   0  0  2  0  0  0  0  0  0  0  0  0
   17.2110   -7.1457  -10.4409 N   0  0  0  0  0  0  0  0  0  0  0  0
   16.6915   -4.9061   -9.8753 C   0  0  0  0  0  0  0  0  0  0  0  0
   17.8217   -4.6184  -10.3530 O   0  0  0  0  0  0  0  0  0  0  0  0
   15.9048   -3.8367   -9.4488 O   0  0  0  0  0  0  0  0  0  0  0  0
  2  1  1  0
  2  3  2  0
  4  2  1  0
  5  4  1  0
  5  6  1  6
  7  9  1  0
  7  5  1  0
  8  7  2  0
 10 15  1  0
 10  9  1  0
 10 11  1  6
 12 11  1  0
 13 12  1  0
 13 14  2  0
 15 16  2  0
 17 13  1  0
 19 18  1  1
 20 19  1  0
 20 15  1  0
 21 23  1  0
 21 19  1  0
 22 21  2  0
M  END
$$$$
