NEA.pdb
     RDKit          3D

 23 22  0  0  1  0  0  0  0  0999 V2000
   15.5332  -11.8122  -15.5071 N   0  0  0  0  0  0  0  0  0  0  0  0
   16.4328  -10.9282  -16.1646 C   0  0  0  0  0  0  0  0  0  0  0  0
   16.6640  -11.0439  -17.3885 O   0  0  0  0  0  0  0  0  0  0  0  0
   17.0863   -9.8692  -15.3572 C   0  0  0  0  0  0  0  0  0  0  0  0
   18.4299   -9.5545  -15.9361 C   0  0  2  0  0  0  0  0  0  0  0  0
   19.3694  -10.6222  -15.8501 N   0  0  0  0  0  0  0  0  0  0  0  0
   18.9405   -8.2955  -15.2985 C   0  0  0  0  0  0  0  0  0  0  0  0
   19.1496   -8.2341  -14.0427 O   0  0  0  0  0  0  0  0  0  0  0  0
   19.1930   -7.1572  -16.1117 N   0  0  0  0  0  0  0  0  0  0  0  0
   19.7469   -5.9339  -15.5985 C   0  0  1  0  0  0  0  0  0  0  0  0
   21.2354   -5.8142  -15.8476 C   0  0  0  0  0  0  0  0  0  0  0  0
   21.5776   -6.5884  -17.0961 C   0  0  0  0  0  0  0  0  0  0  0  0
   22.9687   -6.3807  -17.5218 C   0  0  0  0  0  0  0  0  0  0  0  0
   23.1480   -5.7302  -18.5933 O   0  0  0  0  0  0  0  0  0  0  0  0
   18.9977   -4.7356  -16.0431 C   0  0  0  0  0  0  0  0  0  0  0  0
   18.8204   -4.5593  -17.2699 O   0  0  0  0  0  0  0  0  0  0  0  0
   24.0817   -6.8443  -16.8349 O   0  0  0  0  0  0  0  0  0  0  0  0
   16.9167   -2.0685  -14.3726 C   0  0  0  0  0  0  0  0  0  0  0  0
   17.7641   -2.6130  -15.4727 C   0  0  2  0  0  0  0  0  0  0  0  0
   18.4921   -3.8103  -15.1260 N   0  0  0  0  0  0  0  0  0  0  0  0
   18.7787   -1.5659  -15.8229 C   0  0  0  0  0  0  0  0  0  0  0  0
   18.4304   -0.4239  -16.2266 O   0  0  0  0  0  0  0  0  0  0  0  0
   20.1497   -1.7991  -15.7205 O   0  0  0  0  0  0  0  0  0  0  0  0
  2  1  1  0
  2  3  2  0
  4  2  1  0
  5  4  1  0
  5  6  1  1
  7  9  1  0
  7  5  1  0
  8  7  2  0
 10 15  1  0
 10  9  1  0
 10 11  1  6
 12 11  1  0
 13 12  1  0
 13 14  2  0
 15 16  2  0
 17 13  1  0
 19 18  1  1
 20 19  1  0
 20 15  1  0
 21 23  1  0
 21 19  1  0
 22 21  2  0
M  END
$$$$
