NEA.pdb
     RDKit          3D

 23 22  0  0  1  0  0  0  0  0999 V2000
   12.2832  -12.1887  -12.9573 N   0  0  0  0  0  0  0  0  0  0  0  0
   12.8735  -11.1176  -12.2311 C   0  0  0  0  0  0  0  0  0  0  0  0
   12.1824  -10.3985  -11.4762 O   0  0  0  0  0  0  0  0  0  0  0  0
   14.3284  -10.8802  -12.3964 C   0  0  0  0  0  0  0  0  0  0  0  0
   14.8737  -11.8110  -13.4336 C   0  0  2  0  0  0  0  0  0  0  0  0
   14.7254  -13.1922  -13.1172 N   0  0  0  0  0  0  0  0  0  0  0  0
   16.3028  -11.4399  -13.7027 C   0  0  0  0  0  0  0  0  0  0  0  0
   17.2519  -11.9435  -13.0170 O   0  0  0  0  0  0  0  0  0  0  0  0
   16.5970  -10.5123  -14.7390 N   0  0  0  0  0  0  0  0  0  0  0  0
   17.9368  -10.2063  -15.1607 C   0  0  1  0  0  0  0  0  0  0  0  0
   18.1413  -10.3969  -16.6486 C   0  0  0  0  0  0  0  0  0  0  0  0
   19.6116  -10.2547  -16.9539 C   0  0  0  0  0  0  0  0  0  0  0  0
   20.3163  -11.5441  -16.9343 C   0  0  0  0  0  0  0  0  0  0  0  0
   21.3735  -11.6076  -16.2402 O   0  0  0  0  0  0  0  0  0  0  0  0
   18.3962   -8.8792  -14.6889 C   0  0  0  0  0  0  0  0  0  0  0  0
   17.6066   -7.9103  -14.7600 O   0  0  0  0  0  0  0  0  0  0  0  0
   19.9035  -12.6794  -17.6169 O   0  0  0  0  0  0  0  0  0  0  0  0
   21.6056   -7.5172  -13.1743 C   0  0  0  0  0  0  0  0  0  0  0  0
   20.2031   -7.4428  -13.6766 C   0  0  2  0  0  0  0  0  0  0  0  0
   19.6814   -8.6943  -14.1721 N   0  0  0  0  0  0  0  0  0  0  0  0
   20.1829   -6.4730  -14.8202 C   0  0  0  0  0  0  0  0  0  0  0  0
   20.1512   -6.8694  -16.0161 O   0  0  0  0  0  0  0  0  0  0  0  0
   20.1977   -5.0928  -14.6215 O   0  0  0  0  0  0  0  0  0  0  0  0
  2  1  1  0
  2  3  2  0
  4  2  1  0
  5  4  1  0
  5  6  1  1
  7  9  1  0
  7  5  1  0
  8  7  2  0
 10 15  1  0
 10  9  1  0
 10 11  1  6
 12 11  1  0
 13 12  1  0
 13 14  2  0
 15 16  2  0
 17 13  1  0
 19 18  1  6
 20 19  1  0
 20 15  1  0
 21 23  1  0
 21 19  1  0
 22 21  2  0
M  END
$$$$
