NEA.pdb
     RDKit          3D

 23 22  0  0  1  0  0  0  0  0999 V2000
   19.7948  -14.3646  -15.8130 N   0  0  0  0  0  0  0  0  0  0  0  0
   20.8809  -13.9402  -16.6275 C   0  0  0  0  0  0  0  0  0  0  0  0
   21.7491  -14.7546  -17.0120 O   0  0  0  0  0  0  0  0  0  0  0  0
   20.9523  -12.5075  -17.0051 C   0  0  0  0  0  0  0  0  0  0  0  0
   19.7494  -11.7896  -16.4786 C   0  0  2  0  0  0  0  0  0  0  0  0
   18.5206  -12.1857  -17.0812 N   0  0  0  0  0  0  0  0  0  0  0  0
   19.9882  -10.3123  -16.5929 C   0  0  0  0  0  0  0  0  0  0  0  0
   20.8152   -9.8451  -17.4429 O   0  0  0  0  0  0  0  0  0  0  0  0
   19.2790   -9.4251  -15.7381 N   0  0  0  0  0  0  0  0  0  0  0  0
   19.3786   -7.9943  -15.8361 C   0  0  1  0  0  0  0  0  0  0  0  0
   18.0739   -7.2929  -15.5239 C   0  0  0  0  0  0  0  0  0  0  0  0
   18.2354   -5.8228  -15.8208 C   0  0  0  0  0  0  0  0  0  0  0  0
   17.0055   -5.0601  -15.5653 C   0  0  0  0  0  0  0  0  0  0  0  0
   16.1965   -4.9387  -16.5318 O   0  0  0  0  0  0  0  0  0  0  0  0
   20.5181   -7.4459  -15.0642 C   0  0  0  0  0  0  0  0  0  0  0  0
   20.7128   -7.8657  -13.9010 O   0  0  0  0  0  0  0  0  0  0  0  0
   16.6787   -4.4736  -14.3509 O   0  0  0  0  0  0  0  0  0  0  0  0
   23.3297   -4.9935  -15.7797 C   0  0  0  0  0  0  0  0  0  0  0  0
   22.5022   -5.8974  -14.9294 C   0  0  2  0  0  0  0  0  0  0  0  0
   21.3684   -6.4792  -15.6077 N   0  0  0  0  0  0  0  0  0  0  0  0
   21.9645   -5.0816  -13.7919 C   0  0  0  0  0  0  0  0  0  0  0  0
   20.8771   -4.4524  -13.8922 O   0  0  0  0  0  0  0  0  0  0  0  0
   22.6342   -4.9777  -12.5732 O   0  0  0  0  0  0  0  0  0  0  0  0
  2  1  1  0
  2  3  2  0
  4  2  1  0
  5  4  1  0
  5  6  1  6
  7  9  1  0
  7  5  1  0
  8  7  2  0
 10 15  1  0
 10  9  1  0
 10 11  1  1
 12 11  1  0
 13 12  1  0
 13 14  2  0
 15 16  2  0
 17 13  1  0
 19 18  1  6
 20 19  1  0
 20 15  1  0
 21 23  1  0
 21 19  1  0
 22 21  2  0
M  END
$$$$
