NEA.pdb
     RDKit          3D

 23 22  0  0  1  0  0  0  0  0999 V2000
   21.5650  -14.7297  -15.2615 N   0  0  0  0  0  0  0  0  0  0  0  0
   20.4872  -13.8062  -15.3542 C   0  0  0  0  0  0  0  0  0  0  0  0
   19.3034  -14.1890  -15.2255 O   0  0  0  0  0  0  0  0  0  0  0  0
   20.8092  -12.3806  -15.6078 C   0  0  0  0  0  0  0  0  0  0  0  0
   20.0699  -11.9075  -16.8199 C   0  0  2  0  0  0  0  0  0  0  0  0
   20.3875  -12.6172  -18.0138 N   0  0  0  0  0  0  0  0  0  0  0  0
   20.2859  -10.4292  -16.9630 C   0  0  0  0  0  0  0  0  0  0  0  0
   21.1251   -9.9670  -17.8037 O   0  0  0  0  0  0  0  0  0  0  0  0
   19.5410   -9.5354  -16.1463 N   0  0  0  0  0  0  0  0  0  0  0  0
   19.6256   -8.1055  -16.2687 C   0  0  1  0  0  0  0  0  0  0  0  0
   18.2721   -7.4304  -16.2062 C   0  0  0  0  0  0  0  0  0  0  0  0
   18.4398   -5.9809  -16.5886 C   0  0  0  0  0  0  0  0  0  0  0  0
   17.1693   -5.2427  -16.5618 C   0  0  0  0  0  0  0  0  0  0  0  0
   17.2427   -3.9796  -16.5107 O   0  0  0  0  0  0  0  0  0  0  0  0
   20.6033   -7.5077  -15.3297 C   0  0  0  0  0  0  0  0  0  0  0  0
   20.5149   -7.7871  -14.1125 O   0  0  0  0  0  0  0  0  0  0  0  0
   15.9135   -5.8322  -16.5889 O   0  0  0  0  0  0  0  0  0  0  0  0
   23.6294   -5.2343  -15.6803 C   0  0  0  0  0  0  0  0  0  0  0  0
   22.6852   -6.1362  -14.9592 C   0  0  2  0  0  0  0  0  0  0  0  0
   21.6102   -6.6474  -15.7758 N   0  0  0  0  0  0  0  0  0  0  0  0
   22.0587   -5.3430  -13.8516 C   0  0  0  0  0  0  0  0  0  0  0  0
   20.9505   -4.7629  -14.0056 O   0  0  0  0  0  0  0  0  0  0  0  0
   22.6648   -5.2072  -12.6031 O   0  0  0  0  0  0  0  0  0  0  0  0
  2  1  1  0
  2  3  2  0
  4  2  1  0
  5  4  1  0
  5  6  1  6
  7  9  1  0
  7  5  1  0
  8  7  2  0
 10 15  1  0
 10  9  1  0
 10 11  1  1
 12 11  1  0
 13 12  1  0
 13 14  2  0
 15 16  2  0
 17 13  1  0
 19 18  1  6
 20 19  1  0
 20 15  1  0
 21 23  1  0
 21 19  1  0
 22 21  2  0
M  END
$$$$
