NEA.pdb
     RDKit          3D

 23 22  0  0  1  0  0  0  0  0999 V2000
   16.2006  -13.0951  -15.7016 N   0  0  0  0  0  0  0  0  0  0  0  0
   17.1149  -12.7549  -14.6665 C   0  0  0  0  0  0  0  0  0  0  0  0
   17.1421  -13.4040  -13.5976 O   0  0  0  0  0  0  0  0  0  0  0  0
   18.0314  -11.6107  -14.8928 C   0  0  0  0  0  0  0  0  0  0  0  0
   17.6961  -10.9490  -16.1925 C   0  0  2  0  0  0  0  0  0  0  0  0
   17.9350  -11.7582  -17.3405 N   0  0  0  0  0  0  0  0  0  0  0  0
   18.4222   -9.6373  -16.2607 C   0  0  0  0  0  0  0  0  0  0  0  0
   19.5570   -9.5445  -16.8336 O   0  0  0  0  0  0  0  0  0  0  0  0
   17.8312   -8.4842  -15.6760 N   0  0  0  0  0  0  0  0  0  0  0  0
   18.4366   -7.1812  -15.7267 C   0  0  1  0  0  0  0  0  0  0  0  0
   17.4229   -6.0599  -15.6444 C   0  0  0  0  0  0  0  0  0  0  0  0
   18.1374   -4.7491  -15.8601 C   0  0  0  0  0  0  0  0  0  0  0  0
   17.2359   -3.5937  -15.7507 C   0  0  0  0  0  0  0  0  0  0  0  0
   16.0695   -3.7314  -16.2241 O   0  0  0  0  0  0  0  0  0  0  0  0
   19.5391   -7.0241  -14.7496 C   0  0  0  0  0  0  0  0  0  0  0  0
   19.3200   -7.2985  -13.5479 O   0  0  0  0  0  0  0  0  0  0  0  0
   17.5756   -2.3800  -15.1702 O   0  0  0  0  0  0  0  0  0  0  0  0
   23.2544   -6.3860  -14.9374 C   0  0  0  0  0  0  0  0  0  0  0  0
   21.9269   -6.3848  -14.2572 C   0  0  2  0  0  0  0  0  0  0  0  0
   20.8043   -6.5799  -15.1435 N   0  0  0  0  0  0  0  0  0  0  0  0
   21.7507   -5.0431  -13.6112 C   0  0  0  0  0  0  0  0  0  0  0  0
   20.9840   -4.1729  -14.1046 O   0  0  0  0  0  0  0  0  0  0  0  0
   22.4205   -4.6911  -12.4398 O   0  0  0  0  0  0  0  0  0  0  0  0
  2  1  1  0
  2  3  2  0
  4  2  1  0
  5  4  1  0
  5  6  1  6
  7  9  1  0
  7  5  1  0
  8  7  2  0
 10 15  1  0
 10  9  1  0
 10 11  1  1
 12 11  1  0
 13 12  1  0
 13 14  2  0
 15 16  2  0
 17 13  1  0
 19 18  1  6
 20 19  1  0
 20 15  1  0
 21 23  1  0
 21 19  1  0
 22 21  2  0
M  END
$$$$
