NEA.pdb
     RDKit          3D

 23 22  0  0  1  0  0  0  0  0999 V2000
   18.6372  -13.7921  -15.6370 N   0  0  0  0  0  0  0  0  0  0  0  0
   18.0435  -12.5872  -15.1691 C   0  0  0  0  0  0  0  0  0  0  0  0
   17.0072  -12.6141  -14.4690 O   0  0  0  0  0  0  0  0  0  0  0  0
   18.6884  -11.3027  -15.5358 C   0  0  0  0  0  0  0  0  0  0  0  0
   17.6600  -10.3635  -16.0833 C   0  0  2  0  0  0  0  0  0  0  0  0
   17.0680  -10.7916  -17.3066 N   0  0  0  0  0  0  0  0  0  0  0  0
   18.2732   -8.9984  -16.1958 C   0  0  0  0  0  0  0  0  0  0  0  0
   19.0905   -8.7214  -17.1339 O   0  0  0  0  0  0  0  0  0  0  0  0
   17.9343   -8.0029  -15.2393 N   0  0  0  0  0  0  0  0  0  0  0  0
   18.4474   -6.6609  -15.2884 C   0  0  1  0  0  0  0  0  0  0  0  0
   17.4140   -5.6235  -14.9042 C   0  0  0  0  0  0  0  0  0  0  0  0
   17.9699   -4.2550  -15.2102 C   0  0  0  0  0  0  0  0  0  0  0  0
   17.0621   -3.1753  -14.7980 C   0  0  0  0  0  0  0  0  0  0  0  0
   15.8345   -3.3250  -15.0700 O   0  0  0  0  0  0  0  0  0  0  0  0
   19.7156   -6.5054  -14.5384 C   0  0  0  0  0  0  0  0  0  0  0  0
   19.7560   -6.8771  -13.3436 O   0  0  0  0  0  0  0  0  0  0  0  0
   17.4580   -2.0199  -14.1393 O   0  0  0  0  0  0  0  0  0  0  0  0
   23.2118   -5.2760  -15.3763 C   0  0  0  0  0  0  0  0  0  0  0  0
   22.1274   -5.7756  -14.4823 C   0  0  2  0  0  0  0  0  0  0  0  0
   20.8535   -5.9570  -15.1364 N   0  0  0  0  0  0  0  0  0  0  0  0
   21.9268   -4.7560  -13.4011 C   0  0  0  0  0  0  0  0  0  0  0  0
   21.0537   -3.8531  -13.5047 O   0  0  0  0  0  0  0  0  0  0  0  0
   22.6897   -4.7541  -12.2339 O   0  0  0  0  0  0  0  0  0  0  0  0
  2  1  1  0
  2  3  2  0
  4  2  1  0
  5  4  1  0
  5  6  1  6
  7  9  1  0
  7  5  1  0
  8  7  2  0
 10 15  1  0
 10  9  1  0
 10 11  1  1
 12 11  1  0
 13 12  1  0
 13 14  2  0
 15 16  2  0
 17 13  1  0
 19 18  1  6
 20 19  1  0
 20 15  1  0
 21 23  1  0
 21 19  1  0
 22 21  2  0
M  END
$$$$
