NEA.pdb
     RDKit          3D

 23 22  0  0  1  0  0  0  0  0999 V2000
   24.4964   -9.7101  -17.1580 N   0  0  0  0  0  0  0  0  0  0  0  0
   24.9198  -10.5932  -16.1264 C   0  0  0  0  0  0  0  0  0  0  0  0
   24.0988  -11.0590  -15.3057 O   0  0  0  0  0  0  0  0  0  0  0  0
   26.3595  -10.9428  -16.0539 C   0  0  0  0  0  0  0  0  0  0  0  0
   27.1122  -10.1888  -17.1048 C   0  0  2  0  0  0  0  0  0  0  0  0
   26.7710  -10.5475  -18.4408 N   0  0  0  0  0  0  0  0  0  0  0  0
   28.5814  -10.3338  -16.8351 C   0  0  0  0  0  0  0  0  0  0  0  0
   29.0738  -10.0264  -15.7002 O   0  0  0  0  0  0  0  0  0  0  0  0
   29.4325  -10.8216  -17.8639 N   0  0  0  0  0  0  0  0  0  0  0  0
   30.8494  -10.9945  -17.6937 C   0  0  1  0  0  0  0  0  0  0  0  0
   31.4179  -12.0834  -18.5785 C   0  0  0  0  0  0  0  0  0  0  0  0
   32.8138  -12.4063  -18.1067 C   0  0  0  0  0  0  0  0  0  0  0  0
   33.4152  -13.5199  -18.8536 C   0  0  0  0  0  0  0  0  0  0  0  0
   34.5789  -13.8790  -18.5066 O   0  0  0  0  0  0  0  0  0  0  0  0
   31.5987   -9.7214  -17.8059 C   0  0  0  0  0  0  0  0  0  0  0  0
   31.3685   -8.9732  -18.7830 O   0  0  0  0  0  0  0  0  0  0  0  0
   32.7988  -14.1932  -19.8986 O   0  0  0  0  0  0  0  0  0  0  0  0
   34.1614   -7.9107  -15.6609 C   0  0  0  0  0  0  0  0  0  0  0  0
   33.2345   -8.0781  -16.8175 C   0  0  2  0  0  0  0  0  0  0  0  0
   32.5470   -9.3470  -16.8499 N   0  0  0  0  0  0  0  0  0  0  0  0
   34.0535   -7.9882  -18.0704 C   0  0  0  0  0  0  0  0  0  0  0  0
   34.5783   -9.0114  -18.5860 O   0  0  0  0  0  0  0  0  0  0  0  0
   34.2750   -6.7771  -18.7252 O   0  0  0  0  0  0  0  0  0  0  0  0
  2  1  1  0
  2  3  2  0
  4  2  1  0
  5  4  1  0
  5  6  1  6
  7  9  1  0
  7  5  1  0
  8  7  2  0
 10 15  1  0
 10  9  1  0
 10 11  1  6
 12 11  1  0
 13 12  1  0
 13 14  2  0
 15 16  2  0
 17 13  1  0
 19 18  1  1
 20 19  1  0
 20 15  1  0
 21 23  1  0
 21 19  1  0
 22 21  2  0
M  END
$$$$
