KKA.pdb
     RDKit          3D

 24 23  0  0  1  0  0  0  0  0999 V2000
   21.8953  -14.7279  -17.2659 N   0  0  0  0  0  0  0  0  0  0  0  0
   21.7480  -14.0887  -18.5541 C   0  0  1  0  0  0  0  0  0  0  0  0
   21.3450  -15.1113  -19.6119 C   0  0  0  0  0  0  0  0  0  0  0  0
   22.3062  -16.2387  -19.4958 C   0  0  0  0  0  0  0  0  0  0  0  0
   23.5772  -16.1393  -20.2548 C   0  0  0  0  0  0  0  0  0  0  0  0
   24.4543  -17.3321  -20.1656 C   0  0  0  0  0  0  0  0  0  0  0  0
   25.6643  -17.1543  -20.9003 N   0  0  0  0  0  0  0  0  0  0  0  0
   20.7132  -13.0144  -18.4468 C   0  0  0  0  0  0  0  0  0  0  0  0
   20.3957  -12.3002  -19.4557 O   0  0  0  0  0  0  0  0  0  0  0  0
   20.0415  -12.7420  -17.2256 N   0  0  0  0  0  0  0  0  0  0  0  0
   19.0051  -11.7087  -17.1012 C   0  0  1  0  0  0  0  0  0  0  0  0
   18.0528  -12.0357  -16.0021 C   0  0  0  0  0  0  0  0  0  0  0  0
   16.9820  -13.0109  -16.3271 C   0  0  0  0  0  0  0  0  0  0  0  0
   16.1191  -13.3612  -15.1283 C   0  0  0  0  0  0  0  0  0  0  0  0
   15.1949  -14.5003  -15.4820 C   0  0  0  0  0  0  0  0  0  0  0  0
   14.4253  -14.9219  -14.3488 N   0  0  0  0  0  0  0  0  0  0  0  0
   19.6299  -10.3860  -16.8582 C   0  0  0  0  0  0  0  0  0  0  0  0
   20.4808  -10.1970  -15.9533 O   0  0  0  0  0  0  0  0  0  0  0  0
   19.7732   -7.1138  -18.6856 C   0  0  0  0  0  0  0  0  0  0  0  0
   19.8349   -7.9918  -17.4292 C   0  0  2  0  0  0  0  0  0  0  0  0
   19.2417   -9.2809  -17.6956 N   0  0  0  0  0  0  0  0  0  0  0  0
   19.1400   -7.2719  -16.3624 C   0  0  0  0  0  0  0  0  0  0  0  0
   18.1403   -7.7637  -15.7967 O   0  0  0  0  0  0  0  0  0  0  0  0
   19.5870   -6.0292  -15.9665 O   0  0  0  0  0  0  0  0  0  0  0  0
  2  1  1  1
  3  2  1  0
  4  3  1  0
  5  4  1  0
  5  6  1  0
  7  6  1  0
  8  2  1  0
  8  9  2  0
 10  8  1  0
 11 12  1  1
 11 10  1  0
 13 12  1  0
 13 14  1  0
 14 15  1  0
 15 16  1  0
 17 11  1  0
 18 17  2  0
 20 19  1  6
 20 21  1  0
 21 17  1  0
 22 20  1  0
 22 24  1  0
 23 22  2  0
M  END
$$$$
