KKA.pdb
     RDKit          3D

 24 23  0  0  1  0  0  0  0  0999 V2000
   25.8448  -22.4470  -13.9393 N   0  0  0  0  0  0  0  0  0  0  0  0
   24.8662  -21.7184  -13.1641 C   0  0  1  0  0  0  0  0  0  0  0  0
   25.4992  -20.4795  -12.5383 C   0  0  0  0  0  0  0  0  0  0  0  0
   25.0338  -20.4354  -11.1277 C   0  0  0  0  0  0  0  0  0  0  0  0
   26.0674  -20.3997  -10.0637 C   0  0  0  0  0  0  0  0  0  0  0  0
   25.5407  -20.2621   -8.6840 C   0  0  0  0  0  0  0  0  0  0  0  0
   26.5853  -20.3032   -7.7132 N   0  0  0  0  0  0  0  0  0  0  0  0
   23.7318  -21.3292  -14.0576 C   0  0  0  0  0  0  0  0  0  0  0  0
   23.8683  -21.3062  -15.3263 O   0  0  0  0  0  0  0  0  0  0  0  0
   22.4599  -20.9698  -13.5382 N   0  0  0  0  0  0  0  0  0  0  0  0
   21.3044  -20.6767  -14.3962 C   0  0  1  0  0  0  0  0  0  0  0  0
   20.0315  -21.0869  -13.7380 C   0  0  0  0  0  0  0  0  0  0  0  0
   19.8306  -22.5447  -13.5442 C   0  0  0  0  0  0  0  0  0  0  0  0
   18.4365  -22.8878  -13.0508 C   0  0  0  0  0  0  0  0  0  0  0  0
   18.3319  -24.3745  -12.8146 C   0  0  0  0  0  0  0  0  0  0  0  0
   17.0471  -24.7326  -12.2902 N   0  0  0  0  0  0  0  0  0  0  0  0
   21.2662  -19.2310  -14.7244 C   0  0  0  0  0  0  0  0  0  0  0  0
   21.0351  -18.3483  -13.8606 O   0  0  0  0  0  0  0  0  0  0  0  0
   22.3919  -17.1018  -17.5634 C   0  0  0  0  0  0  0  0  0  0  0  0
   21.4496  -17.4221  -16.3960 C   0  0  2  0  0  0  0  0  0  0  0  0
   21.5043  -18.8314  -16.0870 N   0  0  0  0  0  0  0  0  0  0  0  0
   20.1083  -16.9932  -16.7912 C   0  0  0  0  0  0  0  0  0  0  0  0
   19.2217  -17.8266  -17.0755 O   0  0  0  0  0  0  0  0  0  0  0  0
   19.8061  -15.6496  -16.8543 O   0  0  0  0  0  0  0  0  0  0  0  0
  2  1  1  6
  3  2  1  0
  4  3  1  0
  5  4  1  0
  5  6  1  0
  7  6  1  0
  8  2  1  0
  8  9  2  0
 10  8  1  0
 11 12  1  1
 11 10  1  0
 13 12  1  0
 13 14  1  0
 14 15  1  0
 15 16  1  0
 17 11  1  0
 18 17  2  0
 20 19  1  6
 20 21  1  0
 21 17  1  0
 22 20  1  0
 22 24  1  0
 23 22  2  0
M  END
$$$$
