KKA.pdb
     RDKit          3D

 24 23  0  0  1  0  0  0  0  0999 V2000
   18.2337  -26.6634   -8.9228 N   0  0  0  0  0  0  0  0  0  0  0  0
   18.1899  -25.6837   -7.8608 C   0  0  1  0  0  0  0  0  0  0  0  0
   17.3858  -24.4628   -8.2967 C   0  0  0  0  0  0  0  0  0  0  0  0
   18.0272  -23.9573   -9.5383 C   0  0  0  0  0  0  0  0  0  0  0  0
   19.3133  -23.2303   -9.4006 C   0  0  0  0  0  0  0  0  0  0  0  0
   19.8589  -22.6788  -10.6647 C   0  0  0  0  0  0  0  0  0  0  0  0
   19.6313  -21.2743  -10.7700 N   0  0  0  0  0  0  0  0  0  0  0  0
   17.5736  -26.3084   -6.6498 C   0  0  0  0  0  0  0  0  0  0  0  0
   16.4403  -26.8920   -6.7120 O   0  0  0  0  0  0  0  0  0  0  0  0
   18.2171  -26.2805   -5.3842 N   0  0  0  0  0  0  0  0  0  0  0  0
   17.5187  -26.5907   -4.1299 C   0  0  1  0  0  0  0  0  0  0  0  0
   18.4874  -26.8125   -3.0188 C   0  0  0  0  0  0  0  0  0  0  0  0
   18.0769  -27.7801   -1.9708 C   0  0  0  0  0  0  0  0  0  0  0  0
   19.0850  -27.8894   -0.8410 C   0  0  0  0  0  0  0  0  0  0  0  0
   18.5577  -28.8199    0.2233 C   0  0  0  0  0  0  0  0  0  0  0  0
   19.4547  -28.9030    1.3380 N   0  0  0  0  0  0  0  0  0  0  0  0
   16.5847  -25.4930   -3.7808 C   0  0  0  0  0  0  0  0  0  0  0  0
   16.8723  -24.2819   -3.9509 O   0  0  0  0  0  0  0  0  0  0  0  0
   12.9988  -25.3281   -2.5933 C   0  0  0  0  0  0  0  0  0  0  0  0
   14.3825  -24.7610   -2.9356 C   0  0  2  0  0  0  0  0  0  0  0  0
   15.3009  -25.8363   -3.2266 N   0  0  0  0  0  0  0  0  0  0  0  0
   14.8158  -23.9559   -1.7939 C   0  0  0  0  0  0  0  0  0  0  0  0
   14.5685  -22.7325   -1.7359 O   0  0  0  0  0  0  0  0  0  0  0  0
   15.5092  -24.5466   -0.7590 O   0  0  0  0  0  0  0  0  0  0  0  0
  2  1  1  6
  3  2  1  0
  4  3  1  0
  5  4  1  0
  5  6  1  0
  7  6  1  0
  8  2  1  0
  8  9  2  0
 10  8  1  0
 11 12  1  1
 11 10  1  0
 13 12  1  0
 13 14  1  0
 14 15  1  0
 15 16  1  0
 17 11  1  0
 18 17  2  0
 20 19  1  1
 20 21  1  0
 21 17  1  0
 22 20  1  0
 22 24  1  0
 23 22  2  0
M  END
$$$$
