KKA.pdb
     RDKit          3D

 24 23  0  0  1  0  0  0  0  0999 V2000
   20.6024  -22.5696  -13.0569 N   0  0  0  0  0  0  0  0  0  0  0  0
   20.2920  -21.9295  -14.3153 C   0  0  1  0  0  0  0  0  0  0  0  0
   18.8062  -21.5913  -14.3873 C   0  0  0  0  0  0  0  0  0  0  0  0
   18.0837  -22.8860  -14.4881 C   0  0  0  0  0  0  0  0  0  0  0  0
   16.6009  -22.8449  -14.5214 C   0  0  0  0  0  0  0  0  0  0  0  0
   15.9399  -24.1701  -14.6043 C   0  0  0  0  0  0  0  0  0  0  0  0
   14.5203  -24.0487  -14.6770 N   0  0  0  0  0  0  0  0  0  0  0  0
   21.1159  -20.6881  -14.4442 C   0  0  0  0  0  0  0  0  0  0  0  0
   21.3076  -19.9161  -13.4463 O   0  0  0  0  0  0  0  0  0  0  0  0
   21.7181  -20.3146  -15.6749 N   0  0  0  0  0  0  0  0  0  0  0  0
   22.4874  -19.0742  -15.8397 C   0  0  1  0  0  0  0  0  0  0  0  0
   23.8436  -19.3550  -16.3909 C   0  0  0  0  0  0  0  0  0  0  0  0
   24.7088  -20.2527  -15.5853 C   0  0  0  0  0  0  0  0  0  0  0  0
   25.9779  -20.6582  -16.3129 C   0  0  0  0  0  0  0  0  0  0  0  0
   26.8237  -21.5272  -15.4150 C   0  0  0  0  0  0  0  0  0  0  0  0
   27.9854  -22.0133  -16.0991 N   0  0  0  0  0  0  0  0  0  0  0  0
   21.7595  -18.1366  -16.7286 C   0  0  0  0  0  0  0  0  0  0  0  0
   21.2221  -18.5044  -17.8031 O   0  0  0  0  0  0  0  0  0  0  0  0
   20.8317  -14.4721  -16.5673 C   0  0  0  0  0  0  0  0  0  0  0  0
   21.0026  -15.8414  -17.2375 C   0  0  2  0  0  0  0  0  0  0  0  0
   21.6694  -16.7536  -16.3386 N   0  0  0  0  0  0  0  0  0  0  0  0
   21.7577  -15.6289  -18.4719 C   0  0  0  0  0  0  0  0  0  0  0  0
   22.9982  -15.7761  -18.5032 O   0  0  0  0  0  0  0  0  0  0  0  0
   21.1001  -15.2598  -19.6260 O   0  0  0  0  0  0  0  0  0  0  0  0
  2  1  1  1
  3  2  1  0
  4  3  1  0
  5  4  1  0
  5  6  1  0
  7  6  1  0
  8  2  1  0
  8  9  2  0
 10  8  1  0
 11 12  1  6
 11 10  1  0
 13 12  1  0
 13 14  1  0
 14 15  1  0
 15 16  1  0
 17 11  1  0
 18 17  2  0
 20 19  1  1
 20 21  1  0
 21 17  1  0
 22 20  1  0
 22 24  1  0
 23 22  2  0
M  END
$$$$
