KKA.pdb
     RDKit          3D

 24 23  0  0  1  0  0  0  0  0999 V2000
   20.8496  -19.6413   -9.6661 N   0  0  0  0  0  0  0  0  0  0  0  0
   20.8845  -20.6415  -10.7091 C   0  0  1  0  0  0  0  0  0  0  0  0
   19.6529  -21.5379  -10.6274 C   0  0  0  0  0  0  0  0  0  0  0  0
   19.7237  -22.2327   -9.3157 C   0  0  0  0  0  0  0  0  0  0  0  0
   18.5770  -23.0916   -8.9299 C   0  0  0  0  0  0  0  0  0  0  0  0
   18.6365  -23.6323   -7.5501 C   0  0  0  0  0  0  0  0  0  0  0  0
   17.5443  -24.5092   -7.2788 N   0  0  0  0  0  0  0  0  0  0  0  0
   20.9428  -19.9557  -12.0369 C   0  0  0  0  0  0  0  0  0  0  0  0
   20.4169  -18.8059  -12.2100 O   0  0  0  0  0  0  0  0  0  0  0  0
   21.5816  -20.5491  -13.1578 N   0  0  0  0  0  0  0  0  0  0  0  0
   21.6591  -19.8920  -14.4691 C   0  0  1  0  0  0  0  0  0  0  0  0
   22.7534  -20.4754  -15.2961 C   0  0  0  0  0  0  0  0  0  0  0  0
   24.0978  -20.5249  -14.6688 C   0  0  0  0  0  0  0  0  0  0  0  0
   25.1463  -21.1532  -15.5691 C   0  0  0  0  0  0  0  0  0  0  0  0
   26.4650  -21.2275  -14.8396 C   0  0  0  0  0  0  0  0  0  0  0  0
   27.4451  -21.9449  -15.6003 N   0  0  0  0  0  0  0  0  0  0  0  0
   20.3627  -20.0145  -15.1786 C   0  0  0  0  0  0  0  0  0  0  0  0
   19.6057  -21.0070  -15.0355 O   0  0  0  0  0  0  0  0  0  0  0  0
   18.1873  -20.5038  -16.6929 C   0  0  0  0  0  0  0  0  0  0  0  0
   18.6649  -19.0460  -16.6883 C   0  0  2  0  0  0  0  0  0  0  0  0
   19.9630  -18.9513  -16.0634 N   0  0  0  0  0  0  0  0  0  0  0  0
   17.6522  -18.2601  -15.9840 C   0  0  0  0  0  0  0  0  0  0  0  0
   17.9234  -17.6623  -14.9208 O   0  0  0  0  0  0  0  0  0  0  0  0
   16.3740  -18.1705  -16.4927 O   0  0  0  0  0  0  0  0  0  0  0  0
  2  1  1  1
  3  2  1  0
  4  3  1  0
  5  4  1  0
  5  6  1  0
  7  6  1  0
  8  2  1  0
  8  9  2  0
 10  8  1  0
 11 12  1  6
 11 10  1  0
 13 12  1  0
 13 14  1  0
 14 15  1  0
 15 16  1  0
 17 11  1  0
 18 17  2  0
 20 19  1  1
 20 21  1  0
 21 17  1  0
 22 20  1  0
 22 24  1  0
 23 22  2  0
M  END
$$$$
