KKA.pdb
     RDKit          3D

 24 23  0  0  1  0  0  0  0  0999 V2000
   28.1897  -30.8662  -16.4626 N   0  0  0  0  0  0  0  0  0  0  0  0
   29.2528  -31.8246  -16.2605 C   0  0  1  0  0  0  0  0  0  0  0  0
   28.6816  -33.1640  -15.8055 C   0  0  0  0  0  0  0  0  0  0  0  0
   27.8772  -32.8868  -14.5871 C   0  0  0  0  0  0  0  0  0  0  0  0
   26.4871  -33.4042  -14.5488 C   0  0  0  0  0  0  0  0  0  0  0  0
   26.3534  -34.8049  -14.0798 C   0  0  0  0  0  0  0  0  0  0  0  0
   24.9884  -35.2166  -14.0277 N   0  0  0  0  0  0  0  0  0  0  0  0
   30.0081  -31.9882  -17.5409 C   0  0  0  0  0  0  0  0  0  0  0  0
   29.5989  -31.4487  -18.6226 O   0  0  0  0  0  0  0  0  0  0  0  0
   31.2068  -32.7463  -17.6106 N   0  0  0  0  0  0  0  0  0  0  0  0
   31.9893  -32.8853  -18.8458 C   0  0  1  0  0  0  0  0  0  0  0  0
   33.4409  -33.0410  -18.5449 C   0  0  0  0  0  0  0  0  0  0  0  0
   34.3525  -33.1055  -19.7145 C   0  0  0  0  0  0  0  0  0  0  0  0
   35.8166  -33.1716  -19.3187 C   0  0  0  0  0  0  0  0  0  0  0  0
   36.6738  -33.2801  -20.5557 C   0  0  0  0  0  0  0  0  0  0  0  0
   38.0687  -33.2939  -20.2271 N   0  0  0  0  0  0  0  0  0  0  0  0
   31.5034  -34.0465  -19.6297 C   0  0  0  0  0  0  0  0  0  0  0  0
   31.3513  -35.1866  -19.1242 O   0  0  0  0  0  0  0  0  0  0  0  0
   29.3833  -35.4843  -21.1164 C   0  0  0  0  0  0  0  0  0  0  0  0
   30.6792  -34.9787  -21.7632 C   0  0  2  0  0  0  0  0  0  0  0  0
   31.1961  -33.8521  -21.0228 N   0  0  0  0  0  0  0  0  0  0  0  0
   30.3661  -34.6340  -23.1496 C   0  0  0  0  0  0  0  0  0  0  0  0
   30.4373  -33.4535  -23.5531 O   0  0  0  0  0  0  0  0  0  0  0  0
   29.9851  -35.6200  -24.0346 O   0  0  0  0  0  0  0  0  0  0  0  0
  2  1  1  6
  3  2  1  0
  4  3  1  0
  5  4  1  0
  5  6  1  0
  7  6  1  0
  8  2  1  0
  8  9  2  0
 10  8  1  0
 11 12  1  1
 11 10  1  0
 13 12  1  0
 13 14  1  0
 14 15  1  0
 15 16  1  0
 17 11  1  0
 18 17  2  0
 20 19  1  1
 20 21  1  0
 21 17  1  0
 22 20  1  0
 22 24  1  0
 23 22  2  0
M  END
$$$$
