KKA.pdb
     RDKit          3D

 24 23  0  0  1  0  0  0  0  0999 V2000
   16.8212  -15.4972  -16.7854 N   0  0  0  0  0  0  0  0  0  0  0  0
   18.0325  -14.7124  -16.7060 C   0  0  1  0  0  0  0  0  0  0  0  0
   18.9949  -15.1057  -17.8224 C   0  0  0  0  0  0  0  0  0  0  0  0
   19.4611  -16.4820  -17.5112 C   0  0  0  0  0  0  0  0  0  0  0  0
   18.6042  -17.6127  -17.9457 C   0  0  0  0  0  0  0  0  0  0  0  0
   19.1813  -18.9596  -17.7161 C   0  0  0  0  0  0  0  0  0  0  0  0
   20.5984  -18.9622  -17.8811 N   0  0  0  0  0  0  0  0  0  0  0  0
   17.6789  -13.2629  -16.8094 C   0  0  0  0  0  0  0  0  0  0  0  0
   16.5826  -12.8871  -17.3438 O   0  0  0  0  0  0  0  0  0  0  0  0
   18.5413  -12.2459  -16.3209 N   0  0  0  0  0  0  0  0  0  0  0  0
   18.1951  -10.8193  -16.3678 C   0  0  1  0  0  0  0  0  0  0  0  0
   16.8950  -10.5615  -15.6859 C   0  0  0  0  0  0  0  0  0  0  0  0
   16.4396   -9.1493  -15.6488 C   0  0  0  0  0  0  0  0  0  0  0  0
   15.1452   -8.9667  -14.8770 C   0  0  0  0  0  0  0  0  0  0  0  0
   14.7164   -7.5212  -14.9372 C   0  0  0  0  0  0  0  0  0  0  0  0
   13.5848   -7.2747  -14.0930 N   0  0  0  0  0  0  0  0  0  0  0  0
   19.2694  -10.0126  -15.7398 C   0  0  0  0  0  0  0  0  0  0  0  0
   19.5919  -10.1407  -14.5323 O   0  0  0  0  0  0  0  0  0  0  0  0
   21.9180   -7.6639  -17.0301 C   0  0  0  0  0  0  0  0  0  0  0  0
   21.0494   -8.3128  -15.9447 C   0  0  2  0  0  0  0  0  0  0  0  0
   19.9649   -9.0480  -16.5514 N   0  0  0  0  0  0  0  0  0  0  0  0
   20.5720   -7.2402  -15.0725 C   0  0  0  0  0  0  0  0  0  0  0  0
   21.3647   -6.5825  -14.3651 O   0  0  0  0  0  0  0  0  0  0  0  0
   19.2271   -6.9414  -15.0222 O   0  0  0  0  0  0  0  0  0  0  0  0
  2  1  1  6
  3  2  1  0
  4  3  1  0
  5  4  1  0
  5  6  1  0
  7  6  1  0
  8  2  1  0
  8  9  2  0
 10  8  1  0
 11 12  1  1
 11 10  1  0
 13 12  1  0
 13 14  1  0
 14 15  1  0
 15 16  1  0
 17 11  1  0
 18 17  2  0
 20 19  1  6
 20 21  1  0
 21 17  1  0
 22 20  1  0
 22 24  1  0
 23 22  2  0
M  END
$$$$
