KKA.pdb
     RDKit          3D

 24 23  0  0  1  0  0  0  0  0999 V2000
   18.6384  -26.8592  -10.1658 N   0  0  0  0  0  0  0  0  0  0  0  0
   18.4332  -25.4668   -9.8358 C   0  0  1  0  0  0  0  0  0  0  0  0
   19.0232  -25.1530   -8.4645 C   0  0  0  0  0  0  0  0  0  0  0  0
   18.2625  -25.9681   -7.4820 C   0  0  0  0  0  0  0  0  0  0  0  0
   17.7709  -25.2877   -6.2585 C   0  0  0  0  0  0  0  0  0  0  0  0
   16.9344  -26.1287   -5.3680 C   0  0  0  0  0  0  0  0  0  0  0  0
   16.3991  -25.3764   -4.2804 N   0  0  0  0  0  0  0  0  0  0  0  0
   19.0771  -24.6195  -10.8865 C   0  0  0  0  0  0  0  0  0  0  0  0
   19.0040  -23.3461  -10.8444 O   0  0  0  0  0  0  0  0  0  0  0  0
   19.7942  -25.1896  -11.9715 N   0  0  0  0  0  0  0  0  0  0  0  0
   20.4404  -24.3785  -13.0117 C   0  0  1  0  0  0  0  0  0  0  0  0
   21.6197  -25.0862  -13.5865 C   0  0  0  0  0  0  0  0  0  0  0  0
   22.4166  -24.3325  -14.5866 C   0  0  0  0  0  0  0  0  0  0  0  0
   23.5872  -25.1310  -15.1313 C   0  0  0  0  0  0  0  0  0  0  0  0
   24.2843  -24.3401  -16.2107 C   0  0  0  0  0  0  0  0  0  0  0  0
   25.4630  -25.0111  -16.6738 N   0  0  0  0  0  0  0  0  0  0  0  0
   19.4679  -24.0540  -14.0832 C   0  0  0  0  0  0  0  0  0  0  0  0
   18.8294  -24.9386  -14.7063 O   0  0  0  0  0  0  0  0  0  0  0  0
   17.0740  -21.7691  -15.0499 C   0  0  0  0  0  0  0  0  0  0  0  0
   18.3966  -22.3720  -15.5403 C   0  0  2  0  0  0  0  0  0  0  0  0
   19.2526  -22.6699  -14.4165 N   0  0  0  0  0  0  0  0  0  0  0  0
   19.0010  -21.4049  -16.4561 C   0  0  0  0  0  0  0  0  0  0  0  0
   20.0777  -20.8361  -16.1758 O   0  0  0  0  0  0  0  0  0  0  0  0
   18.3810  -21.1085  -17.6513 O   0  0  0  0  0  0  0  0  0  0  0  0
  2  1  1  6
  3  2  1  0
  4  3  1  0
  5  4  1  0
  5  6  1  0
  7  6  1  0
  8  2  1  0
  8  9  2  0
 10  8  1  0
 11 12  1  6
 11 10  1  0
 13 12  1  0
 13 14  1  0
 14 15  1  0
 15 16  1  0
 17 11  1  0
 18 17  2  0
 20 19  1  1
 20 21  1  0
 21 17  1  0
 22 20  1  0
 22 24  1  0
 23 22  2  0
M  END
$$$$
