KKA.pdb
     RDKit          3D

 24 23  0  0  1  0  0  0  0  0999 V2000
   16.2475  -11.3287  -14.3387 N   0  0  0  0  0  0  0  0  0  0  0  0
   16.4205  -10.1077  -15.0930 C   0  0  1  0  0  0  0  0  0  0  0  0
   15.3771   -9.0748  -14.6789 C   0  0  0  0  0  0  0  0  0  0  0  0
   14.0584   -9.6163  -15.0986 C   0  0  0  0  0  0  0  0  0  0  0  0
   12.8819   -8.7183  -14.9947 C   0  0  0  0  0  0  0  0  0  0  0  0
   11.5947   -9.3218  -15.4175 C   0  0  0  0  0  0  0  0  0  0  0  0
   10.4958   -8.4439  -15.1783 N   0  0  0  0  0  0  0  0  0  0  0  0
   17.7994   -9.5807  -14.8532 C   0  0  0  0  0  0  0  0  0  0  0  0
   18.4088   -9.8015  -13.7538 O   0  0  0  0  0  0  0  0  0  0  0  0
   18.4884   -8.8158  -15.8313 N   0  0  0  0  0  0  0  0  0  0  0  0
   19.9127   -8.4757  -15.7167 C   0  0  1  0  0  0  0  0  0  0  0  0
   20.6184   -8.6836  -17.0131 C   0  0  0  0  0  0  0  0  0  0  0  0
   21.3900   -9.9445  -17.1478 C   0  0  0  0  0  0  0  0  0  0  0  0
   22.0308  -10.1010  -18.5151 C   0  0  0  0  0  0  0  0  0  0  0  0
   22.8116  -11.3912  -18.5664 C   0  0  0  0  0  0  0  0  0  0  0  0
   23.5232  -11.5241  -19.8033 N   0  0  0  0  0  0  0  0  0  0  0  0
   20.0673   -7.0696  -15.2714 C   0  0  0  0  0  0  0  0  0  0  0  0
   19.3233   -6.1450  -15.6838 O   0  0  0  0  0  0  0  0  0  0  0  0
   22.2029   -5.3060  -12.7010 C   0  0  0  0  0  0  0  0  0  0  0  0
   21.2439   -5.3897  -13.8954 C   0  0  2  0  0  0  0  0  0  0  0  0
   21.1120   -6.7601  -14.3303 N   0  0  0  0  0  0  0  0  0  0  0  0
   21.7819   -4.5247  -14.9450 C   0  0  0  0  0  0  0  0  0  0  0  0
   22.3773   -5.0033  -15.9338 O   0  0  0  0  0  0  0  0  0  0  0  0
   21.6352   -3.1570  -14.8518 O   0  0  0  0  0  0  0  0  0  0  0  0
  2  1  1  1
  3  2  1  0
  4  3  1  0
  5  4  1  0
  5  6  1  0
  7  6  1  0
  8  2  1  0
  8  9  2  0
 10  8  1  0
 11 12  1  6
 11 10  1  0
 13 12  1  0
 13 14  1  0
 14 15  1  0
 15 16  1  0
 17 11  1  0
 18 17  2  0
 20 19  1  1
 20 21  1  0
 21 17  1  0
 22 20  1  0
 22 24  1  0
 23 22  2  0
M  END
$$$$
