KKA.pdb
     RDKit          3D

 24 23  0  0  1  0  0  0  0  0999 V2000
   25.8003  -24.1198  -15.5588 N   0  0  0  0  0  0  0  0  0  0  0  0
   25.2467  -25.0207  -16.5444 C   0  0  1  0  0  0  0  0  0  0  0  0
   25.0063  -26.3967  -15.9312 C   0  0  0  0  0  0  0  0  0  0  0  0
   25.9743  -27.3208  -16.5771 C   0  0  0  0  0  0  0  0  0  0  0  0
   27.0286  -26.7233  -17.4333 C   0  0  0  0  0  0  0  0  0  0  0  0
   27.8838  -27.7022  -18.1476 C   0  0  0  0  0  0  0  0  0  0  0  0
   28.8575  -27.0551  -18.9654 N   0  0  0  0  0  0  0  0  0  0  0  0
   23.9645  -24.4481  -17.0589 C   0  0  0  0  0  0  0  0  0  0  0  0
   23.3277  -25.0067  -18.0133 O   0  0  0  0  0  0  0  0  0  0  0  0
   23.4013  -23.2646  -16.5122 N   0  0  0  0  0  0  0  0  0  0  0  0
   22.1066  -22.7251  -16.9482 C   0  0  1  0  0  0  0  0  0  0  0  0
   21.2532  -22.3711  -15.7783 C   0  0  0  0  0  0  0  0  0  0  0  0
   20.3565  -23.4393  -15.2704 C   0  0  0  0  0  0  0  0  0  0  0  0
   19.5995  -23.0292  -14.0200 C   0  0  0  0  0  0  0  0  0  0  0  0
   18.7967  -24.1983  -13.5047 C   0  0  0  0  0  0  0  0  0  0  0  0
   18.1596  -23.8881  -12.2590 N   0  0  0  0  0  0  0  0  0  0  0  0
   22.3132  -21.5345  -17.8078 C   0  0  0  0  0  0  0  0  0  0  0  0
   23.0570  -20.5795  -17.4713 O   0  0  0  0  0  0  0  0  0  0  0  0
   21.8499  -20.7958  -21.4088 C   0  0  0  0  0  0  0  0  0  0  0  0
   21.9090  -20.3560  -19.9403 C   0  0  2  0  0  0  0  0  0  0  0  0
   21.6322  -21.4783  -19.0751 N   0  0  0  0  0  0  0  0  0  0  0  0
   20.9390  -19.2743  -19.7721 C   0  0  0  0  0  0  0  0  0  0  0  0
   20.9714  -18.2593  -20.5002 O   0  0  0  0  0  0  0  0  0  0  0  0
   19.9684  -19.3658  -18.7973 O   0  0  0  0  0  0  0  0  0  0  0  0
  2  1  1  1
  3  2  1  0
  4  3  1  0
  5  4  1  0
  5  6  1  0
  7  6  1  0
  8  2  1  0
  8  9  2  0
 10  8  1  0
 11 12  1  1
 11 10  1  0
 13 12  1  0
 13 14  1  0
 14 15  1  0
 15 16  1  0
 17 11  1  0
 18 17  2  0
 20 19  1  6
 20 21  1  0
 21 17  1  0
 22 20  1  0
 22 24  1  0
 23 22  2  0
M  END
$$$$
