KKA.pdb
     RDKit          3D

 24 23  0  0  1  0  0  0  0  0999 V2000
   18.7056  -24.6360   -8.3954 N   0  0  0  0  0  0  0  0  0  0  0  0
   18.5248  -24.7548   -9.8247 C   0  0  1  0  0  0  0  0  0  0  0  0
   17.1116  -25.2327  -10.1437 C   0  0  0  0  0  0  0  0  0  0  0  0
   17.1319  -26.7142  -10.0294 C   0  0  0  0  0  0  0  0  0  0  0  0
   17.2184  -27.2974   -8.6678 C   0  0  0  0  0  0  0  0  0  0  0  0
   17.1332  -28.7772   -8.6144 C   0  0  0  0  0  0  0  0  0  0  0  0
   17.1711  -29.2604   -7.2725 N   0  0  0  0  0  0  0  0  0  0  0  0
   18.7805  -23.4244  -10.4581 C   0  0  0  0  0  0  0  0  0  0  0  0
   18.5307  -22.3381   -9.8366 O   0  0  0  0  0  0  0  0  0  0  0  0
   19.3092  -23.3104  -11.7711 N   0  0  0  0  0  0  0  0  0  0  0  0
   19.6963  -22.0234  -12.3637 C   0  0  1  0  0  0  0  0  0  0  0  0
   20.8949  -22.1752  -13.2366 C   0  0  0  0  0  0  0  0  0  0  0  0
   21.3917  -20.9402  -13.8935 C   0  0  0  0  0  0  0  0  0  0  0  0
   22.6734  -21.1627  -14.6760 C   0  0  0  0  0  0  0  0  0  0  0  0
   23.1078  -19.8689  -15.3195 C   0  0  0  0  0  0  0  0  0  0  0  0
   24.3970  -19.9955  -15.9325 N   0  0  0  0  0  0  0  0  0  0  0  0
   18.5666  -21.4596  -13.1417 C   0  0  0  0  0  0  0  0  0  0  0  0
   17.8937  -22.1470  -13.9499 O   0  0  0  0  0  0  0  0  0  0  0  0
   16.7035  -18.1753  -13.1100 C   0  0  0  0  0  0  0  0  0  0  0  0
   17.0880  -19.5522  -13.6665 C   0  0  2  0  0  0  0  0  0  0  0  0
   18.2344  -20.0708  -12.9583 N   0  0  0  0  0  0  0  0  0  0  0  0
   17.3489  -19.3849  -15.0958 C   0  0  0  0  0  0  0  0  0  0  0  0
   18.4829  -19.0649  -15.5119 O   0  0  0  0  0  0  0  0  0  0  0  0
   16.3340  -19.5810  -16.0081 O   0  0  0  0  0  0  0  0  0  0  0  0
  2  1  1  1
  3  2  1  0
  4  3  1  0
  5  4  1  0
  5  6  1  0
  7  6  1  0
  8  2  1  0
  8  9  2  0
 10  8  1  0
 11 12  1  6
 11 10  1  0
 13 12  1  0
 13 14  1  0
 14 15  1  0
 15 16  1  0
 17 11  1  0
 18 17  2  0
 20 19  1  1
 20 21  1  0
 21 17  1  0
 22 20  1  0
 22 24  1  0
 23 22  2  0
M  END
$$$$
