KKA.pdb
     RDKit          3D

 24 23  0  0  1  0  0  0  0  0999 V2000
   29.4416  -31.3636  -18.1841 N   0  0  0  0  0  0  0  0  0  0  0  0
   28.7256  -32.5463  -17.7621 C   0  0  1  0  0  0  0  0  0  0  0  0
   29.7046  -33.6460  -17.3626 C   0  0  0  0  0  0  0  0  0  0  0  0
   30.5849  -33.0663  -16.3151 C   0  0  0  0  0  0  0  0  0  0  0  0
   31.9746  -32.7177  -16.7007 C   0  0  0  0  0  0  0  0  0  0  0  0
   33.0276  -33.2750  -15.8174 C   0  0  0  0  0  0  0  0  0  0  0  0
   34.3334  -32.8893  -16.2436 N   0  0  0  0  0  0  0  0  0  0  0  0
   27.8409  -32.1922  -16.6095 C   0  0  0  0  0  0  0  0  0  0  0  0
   27.9330  -31.0588  -16.0302 O   0  0  0  0  0  0  0  0  0  0  0  0
   26.8649  -33.0951  -16.1107 N   0  0  0  0  0  0  0  0  0  0  0  0
   25.8831  -32.7182  -15.0853 C   0  0  1  0  0  0  0  0  0  0  0  0
   24.4907  -32.9077  -15.5826 C   0  0  0  0  0  0  0  0  0  0  0  0
   23.4022  -32.4566  -14.6798 C   0  0  0  0  0  0  0  0  0  0  0  0
   22.0207  -32.6500  -15.2787 C   0  0  0  0  0  0  0  0  0  0  0  0
   20.9747  -32.1304  -14.3234 C   0  0  0  0  0  0  0  0  0  0  0  0
   19.6546  -32.2757  -14.8622 N   0  0  0  0  0  0  0  0  0  0  0  0
   26.0985  -33.5170  -13.8546 C   0  0  0  0  0  0  0  0  0  0  0  0
   26.4163  -34.7322  -13.8852 O   0  0  0  0  0  0  0  0  0  0  0  0
   26.2379  -32.7355  -10.1610 C   0  0  0  0  0  0  0  0  0  0  0  0
   26.1680  -33.6516  -11.3895 C   0  0  2  0  0  0  0  0  0  0  0  0
   25.9355  -32.8681  -12.5797 N   0  0  0  0  0  0  0  0  0  0  0  0
   25.1002  -34.6213  -11.1471 C   0  0  0  0  0  0  0  0  0  0  0  0
   24.0169  -34.5569  -11.7666 O   0  0  0  0  0  0  0  0  0  0  0  0
   25.2812  -35.6273  -10.2220 O   0  0  0  0  0  0  0  0  0  0  0  0
  2  1  1  1
  3  2  1  0
  4  3  1  0
  5  4  1  0
  5  6  1  0
  7  6  1  0
  8  2  1  0
  8  9  2  0
 10  8  1  0
 11 12  1  6
 11 10  1  0
 13 12  1  0
 13 14  1  0
 14 15  1  0
 15 16  1  0
 17 11  1  0
 18 17  2  0
 20 19  1  1
 20 21  1  0
 21 17  1  0
 22 20  1  0
 22 24  1  0
 23 22  2  0
M  END
$$$$
