HAM.pdb
     RDKit          3D

 24 24  0  0  1  0  0  0  0  0999 V2000
    8.2841  -18.4064   18.9033 N   0  0  0  0  0  0  0  0  0  0  0  0
    7.4599  -17.6362   19.8537 C   0  0  1  0  0  0  0  0  0  0  0  0
    7.3959  -18.5010   21.0934 C   0  0  0  0  0  0  0  0  0  0  0  0
    6.5899  -19.7155   20.9241 C   0  0  0  0  0  0  0  0  0  0  0  0
    5.3602  -19.7192   20.2690 C   0  0  0  0  0  0  0  0  0  0  0  0
    4.8525  -20.9413   20.2599 N   0  0  0  0  0  0  0  0  0  0  0  0
    5.7287  -21.7401   20.8983 C   0  0  0  0  0  0  0  0  0  0  0  0
    6.7802  -20.9844   21.2974 N   0  0  0  0  0  0  0  0  0  0  0  0
    8.2522  -16.4158   20.1822 C   0  0  0  0  0  0  0  0  0  0  0  0
    9.5032  -16.4172   20.3215 O   0  0  0  0  0  0  0  0  0  0  0  0
    7.5999  -12.6806   20.3887 C   0  0  0  0  0  0  0  0  0  0  0  0
    8.4115  -13.9348   20.6582 C   0  0  2  0  0  0  0  0  0  0  0  0
    7.6328  -15.1296   20.3661 N   0  0  0  0  0  0  0  0  0  0  0  0
    8.7937  -13.9978   22.0881 C   0  0  0  0  0  0  0  0  0  0  0  0
    9.6263  -13.1639   22.5170 O   0  0  0  0  0  0  0  0  0  0  0  0
    5.7720  -11.1882   26.4290 C   0  0  0  0  0  0  0  0  0  0  0  0
    6.8374  -12.5452   27.0034 S   0  0  0  0  0  0  0  0  0  0  0  0
    7.9833  -13.0373   25.6578 C   0  0  0  0  0  0  0  0  0  0  0  0
    7.6716  -14.4536   25.2212 C   0  0  0  0  0  0  0  0  0  0  0  0
    8.7230  -15.0577   24.3420 C   0  0  2  0  0  0  0  0  0  0  0  0
    8.2571  -14.9573   22.9787 N   0  0  0  0  0  0  0  0  0  0  0  0
    9.0469  -16.4577   24.6616 C   0  0  0  0  0  0  0  0  0  0  0  0
    9.9083  -16.8425   25.6762 O   0  0  0  0  0  0  0  0  0  0  0  0
    8.5265  -17.3724   23.9914 O   0  0  0  0  0  0  0  0  0  0  0  0
  2  1  1  6
  3  2  1  0
  4  3  1  0
  4  5  2  0
  6  5  1  0
  7  6  1  0
  8  7  2  0
  8  4  1  0
  9  2  1  0
 10  9  2  0
 12 11  1  1
 12 13  1  0
 12 14  1  0
 13  9  1  0
 14 21  1  0
 15 14  2  0
 17 16  1  0
 18 17  1  0
 19 18  1  0
 20 19  1  1
 20 22  1  0
 21 20  1  0
 22 24  2  0
 22 23  1  0
M  END
$$$$
