HAM.pdb
     RDKit          3D

 24 24  0  0  1  0  0  0  0  0999 V2000
    9.0845  -15.7845   21.0242 N   0  0  0  0  0  0  0  0  0  0  0  0
    8.2359  -14.7931   21.7119 C   0  0  1  0  0  0  0  0  0  0  0  0
    7.1115  -14.5112   20.7397 C   0  0  0  0  0  0  0  0  0  0  0  0
    7.5694  -14.0183   19.4356 C   0  0  0  0  0  0  0  0  0  0  0  0
    8.0381  -12.7204   19.2422 C   0  0  0  0  0  0  0  0  0  0  0  0
    8.3838  -12.5448   17.9770 N   0  0  0  0  0  0  0  0  0  0  0  0
    8.1498  -13.7058   17.3364 C   0  0  0  0  0  0  0  0  0  0  0  0
    7.6552  -14.5936   18.2325 N   0  0  0  0  0  0  0  0  0  0  0  0
    7.6597  -15.5006   22.8919 C   0  0  0  0  0  0  0  0  0  0  0  0
    6.6617  -15.0805   23.5338 O   0  0  0  0  0  0  0  0  0  0  0  0
    7.9204  -18.8869   24.5180 C   0  0  0  0  0  0  0  0  0  0  0  0
    7.6892  -17.3879   24.5786 C   0  0  2  0  0  0  0  0  0  0  0  0
    8.2125  -16.7334   23.3882 N   0  0  0  0  0  0  0  0  0  0  0  0
    8.3959  -16.8093   25.7450 C   0  0  0  0  0  0  0  0  0  0  0  0
    8.0347  -17.1628   26.8927 O   0  0  0  0  0  0  0  0  0  0  0  0
    6.4114  -12.0982   26.5246 C   0  0  0  0  0  0  0  0  0  0  0  0
    7.4042  -11.8958   28.0346 S   0  0  0  0  0  0  0  0  0  0  0  0
    8.8225  -13.0590   27.9969 C   0  0  0  0  0  0  0  0  0  0  0  0
    8.7023  -13.9637   26.7884 C   0  0  0  0  0  0  0  0  0  0  0  0
    9.8000  -14.9773   26.6834 C   0  0  2  0  0  0  0  0  0  0  0  0
    9.4543  -15.8801   25.6106 N   0  0  0  0  0  0  0  0  0  0  0  0
   10.0426  -15.7360   27.9214 C   0  0  0  0  0  0  0  0  0  0  0  0
    9.8143  -17.0959   28.0552 O   0  0  0  0  0  0  0  0  0  0  0  0
   10.4806  -15.1398   28.9261 O   0  0  0  0  0  0  0  0  0  0  0  0
  2  1  1  6
  3  2  1  0
  4  3  1  0
  4  5  2  0
  6  5  1  0
  7  6  1  0
  8  7  2  0
  8  4  1  0
  9  2  1  0
 10  9  2  0
 12 11  1  6
 12 13  1  0
 12 14  1  0
 13  9  1  0
 14 21  1  0
 15 14  2  0
 17 16  1  0
 18 17  1  0
 19 18  1  0
 20 19  1  1
 20 22  1  0
 21 20  1  0
 22 24  2  0
 22 23  1  0
M  END
$$$$
