HAM.pdb
     RDKit          3D

 24 24  0  0  1  0  0  0  0  0999 V2000
    8.5693  -17.1944   17.5711 N   0  0  0  0  0  0  0  0  0  0  0  0
    8.5308  -15.9924   18.4252 C   0  0  1  0  0  0  0  0  0  0  0  0
    7.3364  -15.2078   17.9287 C   0  0  0  0  0  0  0  0  0  0  0  0
    7.5647  -14.5365   16.6440 C   0  0  0  0  0  0  0  0  0  0  0  0
    8.7412  -14.6873   15.9129 C   0  0  0  0  0  0  0  0  0  0  0  0
    8.6803  -13.9744   14.7996 N   0  0  0  0  0  0  0  0  0  0  0  0
    7.4832  -13.3579   14.7877 C   0  0  0  0  0  0  0  0  0  0  0  0
    6.8142  -13.7068   15.9131 N   0  0  0  0  0  0  0  0  0  0  0  0
    8.2230  -16.4811   19.8005 C   0  0  0  0  0  0  0  0  0  0  0  0
    7.0597  -16.7539   20.1960 O   0  0  0  0  0  0  0  0  0  0  0  0
    9.4072  -18.6566   22.2248 C   0  0  0  0  0  0  0  0  0  0  0  0
    8.9555  -17.2119   22.1107 C   0  0  2  0  0  0  0  0  0  0  0  0
    9.2508  -16.6786   20.7887 N   0  0  0  0  0  0  0  0  0  0  0  0
    9.6776  -16.3724   23.0948 C   0  0  0  0  0  0  0  0  0  0  0  0
   10.8437  -16.0037   22.8177 O   0  0  0  0  0  0  0  0  0  0  0  0
    5.7693  -12.0692   27.2705 C   0  0  0  0  0  0  0  0  0  0  0  0
    7.3254  -12.0888   26.3298 S   0  0  0  0  0  0  0  0  0  0  0  0
    7.9071  -13.8186   26.1421 C   0  0  0  0  0  0  0  0  0  0  0  0
    9.1935  -13.8354   25.3431 C   0  0  0  0  0  0  0  0  0  0  0  0
    9.8442  -15.1829   25.2779 C   0  0  2  0  0  0  0  0  0  0  0  0
    9.1029  -15.9758   24.3253 N   0  0  0  0  0  0  0  0  0  0  0  0
    9.9139  -15.8838   26.5705 C   0  0  0  0  0  0  0  0  0  0  0  0
   10.7313  -15.4964   27.6200 O   0  0  0  0  0  0  0  0  0  0  0  0
    9.2027  -16.8918   26.7568 O   0  0  0  0  0  0  0  0  0  0  0  0
  2  1  1  6
  3  2  1  0
  4  3  1  0
  4  5  2  0
  6  5  1  0
  7  6  1  0
  8  7  2  0
  8  4  1  0
  9  2  1  0
 10  9  2  0
 12 11  1  6
 12 13  1  0
 12 14  1  0
 13  9  1  0
 14 21  1  0
 15 14  2  0
 17 16  1  0
 18 17  1  0
 19 18  1  0
 20 19  1  1
 20 22  1  0
 21 20  1  0
 22 24  2  0
 22 23  1  0
M  END
$$$$
