HAM.pdb
     RDKit          3D

 24 24  0  0  1  0  0  0  0  0999 V2000
    7.2876  -16.8107   19.0264 N   0  0  0  0  0  0  0  0  0  0  0  0
    8.5020  -16.2373   19.6367 C   0  0  1  0  0  0  0  0  0  0  0  0
    8.3163  -14.7400   19.5252 C   0  0  0  0  0  0  0  0  0  0  0  0
    8.4152  -14.2344   18.1512 C   0  0  0  0  0  0  0  0  0  0  0  0
    7.3936  -13.5121   17.5380 C   0  0  0  0  0  0  0  0  0  0  0  0
    7.7457  -13.1809   16.3061 N   0  0  0  0  0  0  0  0  0  0  0  0
    8.9818  -13.6739   16.1003 C   0  0  0  0  0  0  0  0  0  0  0  0
    9.3783  -14.3119   17.2280 N   0  0  0  0  0  0  0  0  0  0  0  0
    8.4422  -16.6038   21.0814 C   0  0  0  0  0  0  0  0  0  0  0  0
    7.3959  -16.5199   21.7760 O   0  0  0  0  0  0  0  0  0  0  0  0
   10.6534  -18.5030   23.4904 C   0  0  0  0  0  0  0  0  0  0  0  0
    9.5073  -17.5612   23.1687 C   0  0  2  0  0  0  0  0  0  0  0  0
    9.5950  -17.0871   21.7951 N   0  0  0  0  0  0  0  0  0  0  0  0
    9.5625  -16.3709   24.0489 C   0  0  0  0  0  0  0  0  0  0  0  0
   10.3846  -15.4655   23.7716 O   0  0  0  0  0  0  0  0  0  0  0  0
    6.3637  -10.4510   27.2772 C   0  0  0  0  0  0  0  0  0  0  0  0
    6.3700  -11.9326   26.2230 S   0  0  0  0  0  0  0  0  0  0  0  0
    7.3604  -13.2523   27.0252 C   0  0  0  0  0  0  0  0  0  0  0  0
    7.4472  -14.4504   26.1031 C   0  0  0  0  0  0  0  0  0  0  0  0
    8.8155  -15.0550   26.0285 C   0  0  2  0  0  0  0  0  0  0  0  0
    8.7278  -16.2214   25.1815 N   0  0  0  0  0  0  0  0  0  0  0  0
    9.3858  -15.4231   27.3348 C   0  0  0  0  0  0  0  0  0  0  0  0
    9.9087  -14.5115   28.2376 O   0  0  0  0  0  0  0  0  0  0  0  0
    9.4113  -16.6238   27.6726 O   0  0  0  0  0  0  0  0  0  0  0  0
  2  1  1  6
  3  2  1  0
  4  3  1  0
  4  5  2  0
  6  5  1  0
  7  6  1  0
  8  7  2  0
  8  4  1  0
  9  2  1  0
 10  9  2  0
 12 11  1  1
 12 13  1  0
 12 14  1  0
 13  9  1  0
 14 21  1  0
 15 14  2  0
 17 16  1  0
 18 17  1  0
 19 18  1  0
 20 19  1  1
 20 22  1  0
 21 20  1  0
 22 24  2  0
 22 23  1  0
M  END
$$$$
