HAM.pdb
     RDKit          3D

 24 24  0  0  1  0  0  0  0  0999 V2000
    7.4733  -17.1774   18.9985 N   0  0  0  0  0  0  0  0  0  0  0  0
    8.6473  -16.4550   19.5237 C   0  0  1  0  0  0  0  0  0  0  0  0
    8.3043  -14.9914   19.3532 C   0  0  0  0  0  0  0  0  0  0  0  0
    8.3978  -14.5217   17.9661 C   0  0  0  0  0  0  0  0  0  0  0  0
    8.7917  -15.3475   16.9152 C   0  0  0  0  0  0  0  0  0  0  0  0
    8.7881  -14.6706   15.7780 N   0  0  0  0  0  0  0  0  0  0  0  0
    8.3984  -13.4141   16.0649 C   0  0  0  0  0  0  0  0  0  0  0  0
    8.1640  -13.3354   17.3971 N   0  0  0  0  0  0  0  0  0  0  0  0
    8.6873  -16.7528   20.9848 C   0  0  0  0  0  0  0  0  0  0  0  0
    7.6801  -16.6788   21.7360 O   0  0  0  0  0  0  0  0  0  0  0  0
   11.0982  -18.4770   23.3256 C   0  0  0  0  0  0  0  0  0  0  0  0
    9.9101  -17.5755   23.0428 C   0  0  2  0  0  0  0  0  0  0  0  0
    9.8996  -17.1524   21.6499 N   0  0  0  0  0  0  0  0  0  0  0  0
    9.9893  -16.3514   23.8735 C   0  0  0  0  0  0  0  0  0  0  0  0
   10.7675  -15.4375   23.5106 O   0  0  0  0  0  0  0  0  0  0  0  0
    5.2099  -12.8104   27.2142 C   0  0  0  0  0  0  0  0  0  0  0  0
    6.5883  -12.0115   26.3377 S   0  0  0  0  0  0  0  0  0  0  0  0
    8.1327  -12.9573   26.6315 C   0  0  0  0  0  0  0  0  0  0  0  0
    8.1759  -14.1549   25.7055 C   0  0  0  0  0  0  0  0  0  0  0  0
    9.3893  -15.0137   25.8881 C   0  0  2  0  0  0  0  0  0  0  0  0
    9.2246  -16.1792   25.0513 N   0  0  0  0  0  0  0  0  0  0  0  0
    9.6355  -15.4242   27.2803 C   0  0  0  0  0  0  0  0  0  0  0  0
    9.6580  -16.7417   27.7082 O   0  0  0  0  0  0  0  0  0  0  0  0
    9.8389  -14.5500   28.1469 O   0  0  0  0  0  0  0  0  0  0  0  0
  2  1  1  6
  3  2  1  0
  4  3  1  0
  4  5  2  0
  6  5  1  0
  7  6  1  0
  8  7  2  0
  8  4  1  0
  9  2  1  0
 10  9  2  0
 12 11  1  6
 12 13  1  0
 12 14  1  0
 13  9  1  0
 14 21  1  0
 15 14  2  0
 17 16  1  0
 18 17  1  0
 19 18  1  0
 20 19  1  1
 20 22  1  0
 21 20  1  0
 22 24  2  0
 22 23  1  0
M  END
$$$$
