HAM.pdb
     RDKit          3D

 24 24  0  0  1  0  0  0  0  0999 V2000
    8.3304  -16.9216   19.7182 N   0  0  0  0  0  0  0  0  0  0  0  0
    8.7222  -15.8304   20.6302 C   0  0  1  0  0  0  0  0  0  0  0  0
    7.6247  -14.7990   20.4870 C   0  0  0  0  0  0  0  0  0  0  0  0
    7.6500  -14.0852   19.2052 C   0  0  0  0  0  0  0  0  0  0  0  0
    8.1830  -12.8055   19.0650 C   0  0  0  0  0  0  0  0  0  0  0  0
    8.0773  -12.4030   17.8088 N   0  0  0  0  0  0  0  0  0  0  0  0
    7.4836  -13.3973   17.1218 C   0  0  0  0  0  0  0  0  0  0  0  0
    7.2286  -14.4140   17.9804 N   0  0  0  0  0  0  0  0  0  0  0  0
    8.6421  -16.4021   22.0056 C   0  0  0  0  0  0  0  0  0  0  0  0
    7.5746  -16.8274   22.5194 O   0  0  0  0  0  0  0  0  0  0  0  0
   10.6311  -18.3274   24.2714 C   0  0  0  0  0  0  0  0  0  0  0  0
    9.7265  -17.1118   24.1800 C   0  0  2  0  0  0  0  0  0  0  0  0
    9.7981  -16.5099   22.8564 N   0  0  0  0  0  0  0  0  0  0  0  0
   10.1555  -16.0822   25.1549 C   0  0  0  0  0  0  0  0  0  0  0  0
   11.1339  -15.3558   24.8589 O   0  0  0  0  0  0  0  0  0  0  0  0
    6.6101  -10.9783   25.5200 C   0  0  0  0  0  0  0  0  0  0  0  0
    7.0583  -12.0382   26.9280 S   0  0  0  0  0  0  0  0  0  0  0  0
    8.4569  -13.1274   26.4553 C   0  0  0  0  0  0  0  0  0  0  0  0
    8.8575  -13.9793   27.6416 C   0  0  0  0  0  0  0  0  0  0  0  0
    9.9858  -14.9210   27.3530 C   0  0  2  0  0  0  0  0  0  0  0  0
    9.5058  -15.8915   26.3972 N   0  0  0  0  0  0  0  0  0  0  0  0
   10.5202  -15.6063   28.5412 C   0  0  0  0  0  0  0  0  0  0  0  0
   11.3023  -14.9911   29.5053 O   0  0  0  0  0  0  0  0  0  0  0  0
   10.2673  -16.8159   28.7130 O   0  0  0  0  0  0  0  0  0  0  0  0
  2  1  1  6
  3  2  1  0
  4  3  1  0
  4  5  2  0
  6  5  1  0
  7  6  1  0
  8  7  2  0
  8  4  1  0
  9  2  1  0
 10  9  2  0
 12 11  1  6
 12 13  1  0
 12 14  1  0
 13  9  1  0
 14 21  1  0
 15 14  2  0
 17 16  1  0
 18 17  1  0
 19 18  1  0
 20 19  1  1
 20 22  1  0
 21 20  1  0
 22 24  2  0
 22 23  1  0
M  END
$$$$
