HAM.pdb
     RDKit          3D

 24 24  0  0  1  0  0  0  0  0999 V2000
    9.7686  -14.5881   20.1838 N   0  0  0  0  0  0  0  0  0  0  0  0
    8.4047  -14.8281   20.6917 C   0  0  1  0  0  0  0  0  0  0  0  0
    7.6624  -15.4375   19.5227 C   0  0  0  0  0  0  0  0  0  0  0  0
    7.8208  -14.6904   18.2697 C   0  0  0  0  0  0  0  0  0  0  0  0
    8.6706  -13.5928   18.1484 C   0  0  0  0  0  0  0  0  0  0  0  0
    8.6205  -13.1118   16.9166 N   0  0  0  0  0  0  0  0  0  0  0  0
    7.7519  -13.8755   16.2270 C   0  0  0  0  0  0  0  0  0  0  0  0
    7.2724  -14.8312   17.0593 N   0  0  0  0  0  0  0  0  0  0  0  0
    8.5424  -15.8735   21.7469 C   0  0  0  0  0  0  0  0  0  0  0  0
    7.5625  -16.3854   22.3488 O   0  0  0  0  0  0  0  0  0  0  0  0
   11.2224  -18.1972   23.0204 C   0  0  0  0  0  0  0  0  0  0  0  0
    9.9590  -17.3773   23.2095 C   0  0  2  0  0  0  0  0  0  0  0  0
    9.8257  -16.3792   22.1582 N   0  0  0  0  0  0  0  0  0  0  0  0
   10.0099  -16.6520   24.5003 C   0  0  0  0  0  0  0  0  0  0  0  0
   10.8242  -17.0443   25.3696 O   0  0  0  0  0  0  0  0  0  0  0  0
    5.3245  -12.4038   26.9423 C   0  0  0  0  0  0  0  0  0  0  0  0
    6.9469  -11.6002   27.1115 S   0  0  0  0  0  0  0  0  0  0  0  0
    8.2530  -12.8800   27.2605 C   0  0  0  0  0  0  0  0  0  0  0  0
    8.3353  -13.6707   25.9715 C   0  0  0  0  0  0  0  0  0  0  0  0
    9.2865  -14.8259   26.0334 C   0  0  2  0  0  0  0  0  0  0  0  0
    9.1794  -15.5423   24.7841 N   0  0  0  0  0  0  0  0  0  0  0  0
    9.0517  -15.7426   27.1612 C   0  0  0  0  0  0  0  0  0  0  0  0
    8.2021  -16.8357   27.1084 O   0  0  0  0  0  0  0  0  0  0  0  0
    9.6424  -15.5437   28.2419 O   0  0  0  0  0  0  0  0  0  0  0  0
  2  1  1  6
  3  2  1  0
  4  3  1  0
  4  5  2  0
  6  5  1  0
  7  6  1  0
  8  7  2  0
  8  4  1  0
  9  2  1  0
 10  9  2  0
 12 11  1  6
 12 13  1  0
 12 14  1  0
 13  9  1  0
 14 21  1  0
 15 14  2  0
 17 16  1  0
 18 17  1  0
 19 18  1  0
 20 19  1  6
 20 22  1  0
 21 20  1  0
 22 24  2  0
 22 23  1  0
M  END
$$$$
