HAM.pdb
     RDKit          3D

 24 24  0  0  1  0  0  0  0  0999 V2000
    9.4164  -15.4428   19.6662 N   0  0  0  0  0  0  0  0  0  0  0  0
    8.4806  -14.5346   20.3556 C   0  0  1  0  0  0  0  0  0  0  0  0
    7.2553  -14.5020   19.4689 C   0  0  0  0  0  0  0  0  0  0  0  0
    7.5486  -14.1695   18.0700 C   0  0  0  0  0  0  0  0  0  0  0  0
    8.1756  -12.9840   17.6921 C   0  0  0  0  0  0  0  0  0  0  0  0
    8.3165  -12.9423   16.3770 N   0  0  0  0  0  0  0  0  0  0  0  0
    7.7923  -14.0808   15.8850 C   0  0  0  0  0  0  0  0  0  0  0  0
    7.3288  -14.8186   16.9228 N   0  0  0  0  0  0  0  0  0  0  0  0
    8.1118  -15.2206   21.6278 C   0  0  0  0  0  0  0  0  0  0  0  0
    7.1868  -14.8274   22.3855 O   0  0  0  0  0  0  0  0  0  0  0  0
    8.9656  -18.4466   23.4213 C   0  0  0  0  0  0  0  0  0  0  0  0
    8.5213  -16.9956   23.3856 C   0  0  2  0  0  0  0  0  0  0  0  0
    8.7983  -16.3997   22.0865 N   0  0  0  0  0  0  0  0  0  0  0  0
    9.2648  -16.2093   24.3974 C   0  0  0  0  0  0  0  0  0  0  0  0
   10.4098  -15.7927   24.1009 O   0  0  0  0  0  0  0  0  0  0  0  0
    6.1682  -10.7618   25.8592 C   0  0  0  0  0  0  0  0  0  0  0  0
    6.7547  -12.0146   27.0395 S   0  0  0  0  0  0  0  0  0  0  0  0
    8.0109  -13.0793   26.2305 C   0  0  0  0  0  0  0  0  0  0  0  0
    8.4955  -14.1250   27.2130 C   0  0  0  0  0  0  0  0  0  0  0  0
    9.4624  -15.1043   26.6218 C   0  0  2  0  0  0  0  0  0  0  0  0
    8.7330  -15.9148   25.6750 N   0  0  0  0  0  0  0  0  0  0  0  0
   10.1318  -15.9649   27.6109 C   0  0  0  0  0  0  0  0  0  0  0  0
   11.1492  -15.5377   28.4487 O   0  0  0  0  0  0  0  0  0  0  0  0
    9.7791  -17.1566   27.7203 O   0  0  0  0  0  0  0  0  0  0  0  0
  2  1  1  6
  3  2  1  0
  4  3  1  0
  4  5  2  0
  6  5  1  0
  7  6  1  0
  8  7  2  0
  8  4  1  0
  9  2  1  0
 10  9  2  0
 12 11  1  6
 12 13  1  0
 12 14  1  0
 13  9  1  0
 14 21  1  0
 15 14  2  0
 17 16  1  0
 18 17  1  0
 19 18  1  0
 20 19  1  1
 20 22  1  0
 21 20  1  0
 22 24  2  0
 22 23  1  0
M  END
$$$$
