HAM.pdb
     RDKit          3D

 24 24  0  0  1  0  0  0  0  0999 V2000
   10.2894  -19.1864   18.3402 N   0  0  0  0  0  0  0  0  0  0  0  0
    9.5402  -17.9519   18.6413 C   0  0  1  0  0  0  0  0  0  0  0  0
    8.4032  -17.9409   17.6434 C   0  0  0  0  0  0  0  0  0  0  0  0
    8.8296  -17.6646   16.2668 C   0  0  0  0  0  0  0  0  0  0  0  0
    8.5019  -18.4927   15.1952 C   0  0  0  0  0  0  0  0  0  0  0  0
    9.0118  -18.0097   14.0736 N   0  0  0  0  0  0  0  0  0  0  0  0
    9.6690  -16.8781   14.3911 C   0  0  0  0  0  0  0  0  0  0  0  0
    9.5514  -16.6785   15.7261 N   0  0  0  0  0  0  0  0  0  0  0  0
    8.9596  -18.1506   20.0009 C   0  0  0  0  0  0  0  0  0  0  0  0
    8.0166  -18.9483   20.2431 O   0  0  0  0  0  0  0  0  0  0  0  0
    9.3303  -19.2113   22.8312 C   0  0  0  0  0  0  0  0  0  0  0  0
    9.0147  -17.7634   22.5019 C   0  0  2  0  0  0  0  0  0  0  0  0
    9.4442  -17.4330   21.1507 N   0  0  0  0  0  0  0  0  0  0  0  0
    9.7387  -16.8604   23.4265 C   0  0  0  0  0  0  0  0  0  0  0  0
   10.7111  -17.3239   24.0684 O   0  0  0  0  0  0  0  0  0  0  0  0
    6.0973  -11.2393   25.9123 C   0  0  0  0  0  0  0  0  0  0  0  0
    7.5612  -12.2010   26.4008 S   0  0  0  0  0  0  0  0  0  0  0  0
    7.1927  -13.9929   26.2616 C   0  0  0  0  0  0  0  0  0  0  0  0
    7.6687  -14.5040   24.9178 C   0  0  0  0  0  0  0  0  0  0  0  0
    9.0901  -14.9763   24.9224 C   0  0  2  0  0  0  0  0  0  0  0  0
    9.3745  -15.5055   23.6091 N   0  0  0  0  0  0  0  0  0  0  0  0
    9.3872  -15.9891   25.9486 C   0  0  0  0  0  0  0  0  0  0  0  0
   10.3338  -15.8271   26.9472 O   0  0  0  0  0  0  0  0  0  0  0  0
    8.7614  -17.0683   25.9395 O   0  0  0  0  0  0  0  0  0  0  0  0
  2  1  1  6
  3  2  1  0
  4  3  1  0
  4  5  2  0
  6  5  1  0
  7  6  1  0
  8  7  2  0
  8  4  1  0
  9  2  1  0
 10  9  2  0
 12 11  1  1
 12 13  1  0
 12 14  1  0
 13  9  1  0
 14 21  1  0
 15 14  2  0
 17 16  1  0
 18 17  1  0
 19 18  1  0
 20 19  1  6
 20 22  1  0
 21 20  1  0
 22 24  2  0
 22 23  1  0
M  END
$$$$
