HAM.pdb
     RDKit          3D

 24 24  0  0  1  0  0  0  0  0999 V2000
    9.1987  -16.9076   20.3940 N   0  0  0  0  0  0  0  0  0  0  0  0
    8.9650  -15.9319   21.4753 C   0  0  1  0  0  0  0  0  0  0  0  0
    7.6979  -15.2099   21.0725 C   0  0  0  0  0  0  0  0  0  0  0  0
    7.8237  -14.4511   19.8229 C   0  0  0  0  0  0  0  0  0  0  0  0
    8.4592  -13.2131   19.7530 C   0  0  0  0  0  0  0  0  0  0  0  0
    8.4292  -12.7550   18.5119 N   0  0  0  0  0  0  0  0  0  0  0  0
    7.7845  -13.6718   17.7656 C   0  0  0  0  0  0  0  0  0  0  0  0
    7.4213  -14.6977   18.5727 N   0  0  0  0  0  0  0  0  0  0  0  0
    8.6688  -16.7395   22.6940 C   0  0  0  0  0  0  0  0  0  0  0  0
    7.9877  -17.7978   22.6767 O   0  0  0  0  0  0  0  0  0  0  0  0
   11.0715  -17.8579   24.2365 C   0  0  0  0  0  0  0  0  0  0  0  0
    9.8111  -17.3088   24.8800 C   0  0  2  0  0  0  0  0  0  0  0  0
    9.1485  -16.3599   23.9970 N   0  0  0  0  0  0  0  0  0  0  0  0
   10.1488  -16.5859   26.1282 C   0  0  0  0  0  0  0  0  0  0  0  0
   10.8225  -17.1871   26.9983 O   0  0  0  0  0  0  0  0  0  0  0  0
    5.8742  -11.4133   26.0198 C   0  0  0  0  0  0  0  0  0  0  0  0
    6.7343  -12.1760   27.4288 S   0  0  0  0  0  0  0  0  0  0  0  0
    8.2407  -13.0382   26.8345 C   0  0  0  0  0  0  0  0  0  0  0  0
    8.9150  -13.7367   27.9967 C   0  0  0  0  0  0  0  0  0  0  0  0
   10.0909  -14.5734   27.5962 C   0  0  2  0  0  0  0  0  0  0  0  0
    9.7413  -15.2529   26.3707 N   0  0  0  0  0  0  0  0  0  0  0  0
   10.5107  -15.5522   28.6125 C   0  0  0  0  0  0  0  0  0  0  0  0
   11.2810  -15.2381   29.7205 O   0  0  0  0  0  0  0  0  0  0  0  0
   10.1642  -16.7445   28.4907 O   0  0  0  0  0  0  0  0  0  0  0  0
  2  1  1  6
  3  2  1  0
  4  3  1  0
  4  5  2  0
  6  5  1  0
  7  6  1  0
  8  7  2  0
  8  4  1  0
  9  2  1  0
 10  9  2  0
 12 11  1  6
 12 13  1  0
 12 14  1  0
 13  9  1  0
 14 21  1  0
 15 14  2  0
 17 16  1  0
 18 17  1  0
 19 18  1  0
 20 19  1  1
 20 22  1  0
 21 20  1  0
 22 24  2  0
 22 23  1  0
M  END
$$$$
