HAM.pdb
     RDKit          3D

 24 24  0  0  1  0  0  0  0  0999 V2000
    6.9270  -17.1690   20.3074 N   0  0  0  0  0  0  0  0  0  0  0  0
    8.0747  -16.3552   20.7507 C   0  0  1  0  0  0  0  0  0  0  0  0
    7.5927  -14.9249   20.6474 C   0  0  0  0  0  0  0  0  0  0  0  0
    7.7884  -14.3312   19.3198 C   0  0  0  0  0  0  0  0  0  0  0  0
    8.4031  -15.0134   18.2718 C   0  0  0  0  0  0  0  0  0  0  0  0
    8.4480  -14.2473   17.1938 N   0  0  0  0  0  0  0  0  0  0  0  0
    7.8730  -13.0733   17.5165 C   0  0  0  0  0  0  0  0  0  0  0  0
    7.4761  -13.1359   18.8106 N   0  0  0  0  0  0  0  0  0  0  0  0
    8.2656  -16.6750   22.1951 C   0  0  0  0  0  0  0  0  0  0  0  0
    7.3590  -16.5504   23.0593 O   0  0  0  0  0  0  0  0  0  0  0  0
   10.9131  -18.3661   24.3226 C   0  0  0  0  0  0  0  0  0  0  0  0
    9.7014  -17.4743   24.1205 C   0  0  2  0  0  0  0  0  0  0  0  0
    9.5199  -17.1566   22.7115 N   0  0  0  0  0  0  0  0  0  0  0  0
    9.8858  -16.1925   24.8400 C   0  0  0  0  0  0  0  0  0  0  0  0
   10.5631  -15.2937   24.2867 O   0  0  0  0  0  0  0  0  0  0  0  0
    7.5494  -10.6132   26.0797 C   0  0  0  0  0  0  0  0  0  0  0  0
    6.7573  -11.8310   27.1735 S   0  0  0  0  0  0  0  0  0  0  0  0
    8.0020  -13.0603   27.7263 C   0  0  0  0  0  0  0  0  0  0  0  0
    8.6357  -13.7166   26.5175 C   0  0  0  0  0  0  0  0  0  0  0  0
    9.6570  -14.7562   26.8631 C   0  0  2  0  0  0  0  0  0  0  0  0
    9.3296  -15.9491   26.1179 N   0  0  0  0  0  0  0  0  0  0  0  0
    9.7411  -15.0670   28.2996 C   0  0  0  0  0  0  0  0  0  0  0  0
    9.4317  -16.3022   28.8454 O   0  0  0  0  0  0  0  0  0  0  0  0
   10.1111  -14.1798   29.0949 O   0  0  0  0  0  0  0  0  0  0  0  0
  2  1  1  1
  3  2  1  0
  4  3  1  0
  4  5  2  0
  6  5  1  0
  7  6  1  0
  8  7  2  0
  8  4  1  0
  9  2  1  0
 10  9  2  0
 12 11  1  6
 12 13  1  0
 12 14  1  0
 13  9  1  0
 14 21  1  0
 15 14  2  0
 17 16  1  0
 18 17  1  0
 19 18  1  0
 20 19  1  1
 20 22  1  0
 21 20  1  0
 22 24  2  0
 22 23  1  0
M  END
$$$$
