WGV.pdb
     RDKit          3D

 26 27  0  0  1  0  0  0  0  0999 V2000
   24.8790  -19.9810   -8.8475 N   0  0  0  0  0  0  0  0  0  0  0  0
   26.2426  -20.2963   -9.2539 C   0  0  1  0  0  0  0  0  0  0  0  0
   26.8640  -21.3273   -8.3210 C   0  0  0  0  0  0  0  0  0  0  0  0
   26.8898  -20.8341   -6.9336 C   0  0  0  0  0  0  0  0  0  0  0  0
   25.8157  -20.7648   -6.0526 C   0  0  0  0  0  0  0  0  0  0  0  0
   26.2444  -20.2546   -4.8757 N   0  0  0  0  0  0  0  0  0  0  0  0
   27.5650  -19.9916   -4.9691 C   0  0  0  0  0  0  0  0  0  0  0  0
   28.4875  -19.4752   -4.0887 C   0  0  0  0  0  0  0  0  0  0  0  0
   29.8123  -19.3004   -4.4344 C   0  0  0  0  0  0  0  0  0  0  0  0
   30.2013  -19.6606   -5.7055 C   0  0  0  0  0  0  0  0  0  0  0  0
   29.2780  -20.1802   -6.5951 C   0  0  0  0  0  0  0  0  0  0  0  0
   27.9654  -20.3482   -6.2375 C   0  0  0  0  0  0  0  0  0  0  0  0
   26.2298  -20.8471  -10.6187 C   0  0  0  0  0  0  0  0  0  0  0  0
   26.9776  -21.7957  -10.9175 O   0  0  0  0  0  0  0  0  0  0  0  0
   25.3695  -20.3007  -11.5911 N   0  0  0  0  0  0  0  0  0  0  0  0
   25.3431  -20.7459  -12.9633 C   0  0  0  0  0  0  0  0  0  0  0  0
   24.2622  -20.0652  -13.7371 C   0  0  0  0  0  0  0  0  0  0  0  0
   23.6826  -19.0697  -13.2202 O   0  0  0  0  0  0  0  0  0  0  0  0
   24.4844  -18.8295  -17.3502 C   0  0  0  0  0  0  0  0  0  0  0  0
   23.2822  -19.6952  -17.2017 C   0  0  1  0  0  0  0  0  0  0  0  0
   23.4562  -21.0623  -17.8097 C   0  0  0  0  0  0  0  0  0  0  0  0
   22.8046  -19.8446  -15.7797 C   0  0  2  0  0  0  0  0  0  0  0  0
   23.8573  -20.4773  -15.0135 N   0  0  0  0  0  0  0  0  0  0  0  0
   21.5168  -20.5295  -15.6583 C   0  0  0  0  0  0  0  0  0  0  0  0
   21.4445  -21.7659  -15.4436 O   0  0  0  0  0  0  0  0  0  0  0  0
   20.2930  -19.8632  -15.7709 O   0  0  0  0  0  0  0  0  0  0  0  0
  2  1  1  1
  3  2  1  0
  4  3  1  0
  5  4  2  0
  6  7  1  0
  6  5  1  0
  7 12  2  0
  8  7  1  0
  8  9  2  0
  9 10  1  0
 10 11  2  0
 12  4  1  0
 12 11  1  0
 13  2  1  0
 13 15  1  0
 14 13  2  0
 16 15  1  0
 17 16  1  0
 18 17  2  0
 20 19  1  1
 20 21  1  0
 22 20  1  0
 22 23  1  1
 23 17  1  0
 24 26  1  0
 24 22  1  0
 25 24  2  0
M  END
$$$$
