WGV.pdb
     RDKit          3D

 26 27  0  0  1  0  0  0  0  0999 V2000
   30.2565  -19.0784    0.6407 N   0  0  0  0  0  0  0  0  0  0  0  0
   31.1756  -20.0273    0.0253 C   0  0  1  0  0  0  0  0  0  0  0  0
   31.7858  -19.4487   -1.2445 C   0  0  0  0  0  0  0  0  0  0  0  0
   30.7374  -19.0648   -2.2049 C   0  0  0  0  0  0  0  0  0  0  0  0
   29.8338  -18.0149   -2.0784 C   0  0  0  0  0  0  0  0  0  0  0  0
   29.0326  -17.9906   -3.1676 N   0  0  0  0  0  0  0  0  0  0  0  0
   29.3911  -18.9942   -3.9959 C   0  0  0  0  0  0  0  0  0  0  0  0
   28.9228  -19.4209   -5.2171 C   0  0  0  0  0  0  0  0  0  0  0  0
   29.4744  -20.5007   -5.8768 C   0  0  0  0  0  0  0  0  0  0  0  0
   30.5253  -21.1571   -5.2756 C   0  0  0  0  0  0  0  0  0  0  0  0
   31.0003  -20.7325   -4.0475 C   0  0  0  0  0  0  0  0  0  0  0  0
   30.4425  -19.6583   -3.4043 C   0  0  0  0  0  0  0  0  0  0  0  0
   32.2623  -20.3357    0.9687 C   0  0  0  0  0  0  0  0  0  0  0  0
   32.6041  -19.4993    1.8242 O   0  0  0  0  0  0  0  0  0  0  0  0
   32.9189  -21.5803    0.9049 N   0  0  0  0  0  0  0  0  0  0  0  0
   34.0571  -21.9167    1.7252 C   0  0  0  0  0  0  0  0  0  0  0  0
   33.6333  -22.4426    3.0573 C   0  0  0  0  0  0  0  0  0  0  0  0
   32.4097  -22.3960    3.3651 O   0  0  0  0  0  0  0  0  0  0  0  0
   34.4004  -25.9000    4.2652 C   0  0  0  0  0  0  0  0  0  0  0  0
   34.8021  -24.9462    5.3355 C   0  0  1  0  0  0  0  0  0  0  0  0
   36.2929  -24.7534    5.4301 C   0  0  0  0  0  0  0  0  0  0  0  0
   34.1351  -23.5978    5.2388 C   0  0  2  0  0  0  0  0  0  0  0  0
   34.5290  -22.9876    3.9866 N   0  0  0  0  0  0  0  0  0  0  0  0
   34.3757  -22.7357    6.3969 C   0  0  0  0  0  0  0  0  0  0  0  0
   35.3848  -21.9894    6.4658 O   0  0  0  0  0  0  0  0  0  0  0  0
   33.5095  -22.6834    7.4929 O   0  0  0  0  0  0  0  0  0  0  0  0
  2  1  1  1
  3  2  1  0
  4  3  1  0
  5  4  2  0
  6  7  1  0
  6  5  1  0
  7 12  2  0
  8  7  1  0
  8  9  2  0
  9 10  1  0
 10 11  2  0
 12  4  1  0
 12 11  1  0
 13  2  1  0
 13 15  1  0
 14 13  2  0
 16 15  1  0
 17 16  1  0
 18 17  2  0
 20 19  1  6
 20 21  1  0
 22 20  1  0
 22 23  1  6
 23 17  1  0
 24 26  1  0
 24 22  1  0
 25 24  2  0
M  END
$$$$
