WGV.pdb
     RDKit          3D

 26 27  0  0  1  0  0  0  0  0999 V2000
   22.6800  -20.1903  -10.7060 N   0  0  0  0  0  0  0  0  0  0  0  0
   23.8729  -20.6234  -11.4225 C   0  0  1  0  0  0  0  0  0  0  0  0
   23.8476  -20.1373  -12.8657 C   0  0  0  0  0  0  0  0  0  0  0  0
   22.5179  -20.3387  -13.4658 C   0  0  0  0  0  0  0  0  0  0  0  0
   21.5264  -19.3786  -13.6388 C   0  0  0  0  0  0  0  0  0  0  0  0
   20.4529  -19.9556  -14.2249 N   0  0  0  0  0  0  0  0  0  0  0  0
   20.7204  -21.2616  -14.4365 C   0  0  0  0  0  0  0  0  0  0  0  0
   19.9984  -22.2937  -14.9898 C   0  0  0  0  0  0  0  0  0  0  0  0
   20.5093  -23.5718  -15.0943 C   0  0  0  0  0  0  0  0  0  0  0  0
   21.7835  -23.7987  -14.6237 C   0  0  0  0  0  0  0  0  0  0  0  0
   22.5142  -22.7646  -14.0662 C   0  0  0  0  0  0  0  0  0  0  0  0
   21.9936  -21.5004  -13.9692 C   0  0  0  0  0  0  0  0  0  0  0  0
   25.0662  -20.0695  -10.7627 C   0  0  0  0  0  0  0  0  0  0  0  0
   25.1492  -18.8475  -10.5432 O   0  0  0  0  0  0  0  0  0  0  0  0
   26.1187  -20.9229  -10.3777 N   0  0  0  0  0  0  0  0  0  0  0  0
   27.3451  -20.4479   -9.7845 C   0  0  0  0  0  0  0  0  0  0  0  0
   27.3622  -20.6778   -8.3089 C   0  0  0  0  0  0  0  0  0  0  0  0
   26.3711  -21.2479   -7.7734 O   0  0  0  0  0  0  0  0  0  0  0  0
   30.4580  -18.9990   -5.8214 C   0  0  0  0  0  0  0  0  0  0  0  0
   29.9251  -20.3745   -5.6194 C   0  0  1  0  0  0  0  0  0  0  0  0
   30.0660  -20.8634   -4.2017 C   0  0  0  0  0  0  0  0  0  0  0  0
   28.4951  -20.5506   -6.0626 C   0  0  2  0  0  0  0  0  0  0  0  0
   28.4276  -20.2913   -7.4851 N   0  0  0  0  0  0  0  0  0  0  0  0
   27.5359  -19.7596   -5.2900 C   0  0  0  0  0  0  0  0  0  0  0  0
   27.1605  -18.6220   -5.6704 O   0  0  0  0  0  0  0  0  0  0  0  0
   26.9778  -20.2103   -4.0901 O   0  0  0  0  0  0  0  0  0  0  0  0
  2  1  1  1
  3  2  1  0
  4  3  1  0
  5  4  2  0
  6  7  1  0
  6  5  1  0
  7 12  2  0
  8  7  1  0
  8  9  2  0
  9 10  1  0
 10 11  2  0
 12  4  1  0
 12 11  1  0
 13  2  1  0
 13 15  1  0
 14 13  2  0
 16 15  1  0
 17 16  1  0
 18 17  2  0
 20 19  1  1
 20 21  1  0
 22 20  1  0
 22 23  1  6
 23 17  1  0
 24 26  1  0
 24 22  1  0
 25 24  2  0
M  END
$$$$
