WGV.pdb
     RDKit          3D

 26 27  0  0  1  0  0  0  0  0999 V2000
   28.1413  -21.4180  -12.0686 N   0  0  0  0  0  0  0  0  0  0  0  0
   26.9347  -21.5072  -11.2560 C   0  0  1  0  0  0  0  0  0  0  0  0
   26.8907  -20.3895  -10.2225 C   0  0  0  0  0  0  0  0  0  0  0  0
   28.0054  -20.5109   -9.2678 C   0  0  0  0  0  0  0  0  0  0  0  0
   29.2858  -20.9837   -9.5358 C   0  0  0  0  0  0  0  0  0  0  0  0
   30.0176  -20.9398   -8.3993 N   0  0  0  0  0  0  0  0  0  0  0  0
   29.2483  -20.4523   -7.4031 C   0  0  0  0  0  0  0  0  0  0  0  0
   29.4799  -20.2012   -6.0705 C   0  0  0  0  0  0  0  0  0  0  0  0
   28.5031  -19.6880   -5.2411 C   0  0  0  0  0  0  0  0  0  0  0  0
   27.2653  -19.4265   -5.7852 C   0  0  0  0  0  0  0  0  0  0  0  0
   27.0267  -19.6771   -7.1247 C   0  0  0  0  0  0  0  0  0  0  0  0
   28.0066  -20.1870   -7.9363 C   0  0  0  0  0  0  0  0  0  0  0  0
   25.7522  -21.3891  -12.1243 C   0  0  0  0  0  0  0  0  0  0  0  0
   25.4848  -20.3048  -12.6729 O   0  0  0  0  0  0  0  0  0  0  0  0
   24.9193  -22.5052  -12.3363 N   0  0  0  0  0  0  0  0  0  0  0  0
   23.7776  -22.4835  -13.2181 C   0  0  0  0  0  0  0  0  0  0  0  0
   24.1810  -22.7072  -14.6386 C   0  0  0  0  0  0  0  0  0  0  0  0
   25.1187  -22.0110  -15.1184 O   0  0  0  0  0  0  0  0  0  0  0  0
   25.6395  -25.7193  -16.0598 C   0  0  0  0  0  0  0  0  0  0  0  0
   24.4172  -25.4142  -16.8533 C   0  0  1  0  0  0  0  0  0  0  0  0
   23.2372  -26.2725  -16.4797 C   0  0  0  0  0  0  0  0  0  0  0  0
   24.0053  -23.9646  -16.8142 C   0  0  2  0  0  0  0  0  0  0  0  0
   23.5688  -23.6550  -15.4692 N   0  0  0  0  0  0  0  0  0  0  0  0
   23.0194  -23.6033  -17.8339 C   0  0  0  0  0  0  0  0  0  0  0  0
   21.7864  -23.6044  -17.5895 O   0  0  0  0  0  0  0  0  0  0  0  0
   23.3773  -23.2360  -19.1344 O   0  0  0  0  0  0  0  0  0  0  0  0
  2  1  1  6
  3  2  1  0
  4  3  1  0
  5  4  2  0
  6  7  1  0
  6  5  1  0
  7 12  2  0
  8  7  1  0
  8  9  2  0
  9 10  1  0
 10 11  2  0
 12  4  1  0
 12 11  1  0
 13  2  1  0
 13 15  1  0
 14 13  2  0
 16 15  1  0
 17 16  1  0
 18 17  2  0
 20 19  1  1
 20 21  1  0
 22 20  1  0
 22 23  1  1
 23 17  1  0
 24 26  1  0
 24 22  1  0
 25 24  2  0
M  END
$$$$
