WGV.pdb
     RDKit          3D

 26 27  0  0  1  0  0  0  0  0999 V2000
   26.8494  -22.0988  -11.4642 N   0  0  0  0  0  0  0  0  0  0  0  0
   25.7052  -21.2253  -11.2362 C   0  0  1  0  0  0  0  0  0  0  0  0
   26.0166  -20.1890  -10.1645 C   0  0  0  0  0  0  0  0  0  0  0  0
   27.3164  -20.4632   -9.5288 C   0  0  0  0  0  0  0  0  0  0  0  0
   28.3845  -21.1624  -10.0811 C   0  0  0  0  0  0  0  0  0  0  0  0
   29.3964  -21.1997   -9.1847 N   0  0  0  0  0  0  0  0  0  0  0  0
   29.0147  -20.5450   -8.0678 C   0  0  0  0  0  0  0  0  0  0  0  0
   29.6378  -20.2832   -6.8695 C   0  0  0  0  0  0  0  0  0  0  0  0
   29.0176  -19.5740   -5.8607 C   0  0  0  0  0  0  0  0  0  0  0  0
   27.7350  -19.1237   -6.0817 C   0  0  0  0  0  0  0  0  0  0  0  0
   27.1034  -19.3839   -7.2848 C   0  0  0  0  0  0  0  0  0  0  0  0
   27.7320  -20.0897   -8.2775 C   0  0  0  0  0  0  0  0  0  0  0  0
   25.3722  -20.5217  -12.4853 C   0  0  0  0  0  0  0  0  0  0  0  0
   26.2041  -19.7649  -13.0178 O   0  0  0  0  0  0  0  0  0  0  0  0
   24.1090  -20.7038  -13.0814 N   0  0  0  0  0  0  0  0  0  0  0  0
   23.6773  -19.9838  -14.2548 C   0  0  0  0  0  0  0  0  0  0  0  0
   22.2498  -20.2780  -14.5810 C   0  0  0  0  0  0  0  0  0  0  0  0
   21.7245  -19.7013  -15.5738 O   0  0  0  0  0  0  0  0  0  0  0  0
   20.8103  -23.8338  -14.6940 C   0  0  0  0  0  0  0  0  0  0  0  0
   19.8850  -22.9660  -13.9147 C   0  0  1  0  0  0  0  0  0  0  0  0
   19.9189  -23.2407  -12.4341 C   0  0  0  0  0  0  0  0  0  0  0  0
   20.0845  -21.4900  -14.1476 C   0  0  2  0  0  0  0  0  0  0  0  0
   21.4609  -21.1657  -13.8377 N   0  0  0  0  0  0  0  0  0  0  0  0
   19.1230  -20.6450  -13.4378 C   0  0  0  0  0  0  0  0  0  0  0  0
   19.4278  -20.0487  -12.3741 O   0  0  0  0  0  0  0  0  0  0  0  0
   17.8152  -20.4452  -13.8892 O   0  0  0  0  0  0  0  0  0  0  0  0
  2  1  1  6
  3  2  1  0
  4  3  1  0
  5  4  2  0
  6  7  1  0
  6  5  1  0
  7 12  2  0
  8  7  1  0
  8  9  2  0
  9 10  1  0
 10 11  2  0
 12  4  1  0
 12 11  1  0
 13  2  1  0
 13 15  1  0
 14 13  2  0
 16 15  1  0
 17 16  1  0
 18 17  2  0
 20 19  1  6
 20 21  1  0
 22 20  1  0
 22 23  1  1
 23 17  1  0
 24 26  1  0
 24 22  1  0
 25 24  2  0
M  END
$$$$
