WGV.pdb
     RDKit          3D

 26 27  0  0  1  0  0  0  0  0999 V2000
   24.7399  -20.3448   -9.3543 N   0  0  0  0  0  0  0  0  0  0  0  0
   26.1862  -20.2991   -9.5283 C   0  0  1  0  0  0  0  0  0  0  0  0
   26.8791  -21.2723   -8.5836 C   0  0  0  0  0  0  0  0  0  0  0  0
   26.7461  -20.8329   -7.1844 C   0  0  0  0  0  0  0  0  0  0  0  0
   25.5780  -20.7910   -6.4303 C   0  0  0  0  0  0  0  0  0  0  0  0
   25.8694  -20.3288   -5.1932 N   0  0  0  0  0  0  0  0  0  0  0  0
   27.1924  -20.0701   -5.1242 C   0  0  0  0  0  0  0  0  0  0  0  0
   28.0085  -19.5933   -4.1245 C   0  0  0  0  0  0  0  0  0  0  0  0
   29.3645  -19.4131   -4.3090 C   0  0  0  0  0  0  0  0  0  0  0  0
   29.8963  -19.7266   -5.5400 C   0  0  0  0  0  0  0  0  0  0  0  0
   29.0805  -20.2064   -6.5491 C   0  0  0  0  0  0  0  0  0  0  0  0
   27.7354  -20.3802   -6.3512 C   0  0  0  0  0  0  0  0  0  0  0  0
   26.5230  -20.6698  -10.9122 C   0  0  0  0  0  0  0  0  0  0  0  0
   25.9104  -21.5925  -11.4794 O   0  0  0  0  0  0  0  0  0  0  0  0
   27.5412  -19.9797  -11.5987 N   0  0  0  0  0  0  0  0  0  0  0  0
   27.8398  -20.1943  -12.9938 C   0  0  0  0  0  0  0  0  0  0  0  0
   27.0680  -19.2602  -13.8669 C   0  0  0  0  0  0  0  0  0  0  0  0
   26.2306  -18.4825  -13.3302 O   0  0  0  0  0  0  0  0  0  0  0  0
   28.4643  -16.5868  -15.8203 C   0  0  0  0  0  0  0  0  0  0  0  0
   27.6565  -17.3988  -16.7714 C   0  0  1  0  0  0  0  0  0  0  0  0
   28.4941  -18.2860  -17.6547 C   0  0  0  0  0  0  0  0  0  0  0  0
   26.5837  -18.2287  -16.1135 C   0  0  2  0  0  0  0  0  0  0  0  0
   27.2272  -19.2030  -15.2578 N   0  0  0  0  0  0  0  0  0  0  0  0
   25.6402  -18.8297  -17.0574 C   0  0  0  0  0  0  0  0  0  0  0  0
   25.7703  -20.0145  -17.4565 O   0  0  0  0  0  0  0  0  0  0  0  0
   24.5420  -18.1354  -17.5733 O   0  0  0  0  0  0  0  0  0  0  0  0
  2  1  1  6
  3  2  1  0
  4  3  1  0
  5  4  2  0
  6  7  1  0
  6  5  1  0
  7 12  2  0
  8  7  1  0
  8  9  2  0
  9 10  1  0
 10 11  2  0
 12  4  1  0
 12 11  1  0
 13  2  1  0
 13 15  1  0
 14 13  2  0
 16 15  1  0
 17 16  1  0
 18 17  2  0
 20 19  1  1
 20 21  1  0
 22 20  1  0
 22 23  1  6
 23 17  1  0
 24 26  1  0
 24 22  1  0
 25 24  2  0
M  END
$$$$
