WGV.pdb
     RDKit          3D

 26 27  0  0  1  0  0  0  0  0999 V2000
   27.6698  -19.2467  -10.3838 N   0  0  0  0  0  0  0  0  0  0  0  0
   27.6957  -20.6570  -10.0174 C   0  0  1  0  0  0  0  0  0  0  0  0
   26.8777  -20.9072   -8.7573 C   0  0  0  0  0  0  0  0  0  0  0  0
   27.2976  -20.0074   -7.6698 C   0  0  0  0  0  0  0  0  0  0  0  0
   27.0517  -18.6416   -7.5750 C   0  0  0  0  0  0  0  0  0  0  0  0
   27.5999  -18.1744   -6.4303 N   0  0  0  0  0  0  0  0  0  0  0  0
   28.1936  -19.1981   -5.7810 C   0  0  0  0  0  0  0  0  0  0  0  0
   28.8866  -19.2869   -4.5958 C   0  0  0  0  0  0  0  0  0  0  0  0
   29.4076  -20.4809   -4.1394 C   0  0  0  0  0  0  0  0  0  0  0  0
   29.2163  -21.6060   -4.9103 C   0  0  0  0  0  0  0  0  0  0  0  0
   28.5203  -21.5226   -6.1030 C   0  0  0  0  0  0  0  0  0  0  0  0
   28.0085  -20.3298   -6.5435 C   0  0  0  0  0  0  0  0  0  0  0  0
   27.1241  -21.4562  -11.1132 C   0  0  0  0  0  0  0  0  0  0  0  0
   26.9134  -22.6725  -10.9564 O   0  0  0  0  0  0  0  0  0  0  0  0
   26.8138  -20.8448  -12.3437 N   0  0  0  0  0  0  0  0  0  0  0  0
   26.4357  -21.5867  -13.5220 C   0  0  0  0  0  0  0  0  0  0  0  0
   24.9837  -21.9358  -13.5044 C   0  0  0  0  0  0  0  0  0  0  0  0
   24.6492  -23.1426  -13.6654 O   0  0  0  0  0  0  0  0  0  0  0  0
   22.5563  -20.8550  -10.7486 C   0  0  0  0  0  0  0  0  0  0  0  0
   21.9761  -20.5180  -12.0777 C   0  0  1  0  0  0  0  0  0  0  0  0
   22.0506  -19.0492  -12.4030 C   0  0  0  0  0  0  0  0  0  0  0  0
   22.5609  -21.3071  -13.2213 C   0  0  2  0  0  0  0  0  0  0  0  0
   23.9695  -20.9875  -13.3172 N   0  0  0  0  0  0  0  0  0  0  0  0
   21.8461  -21.1313  -14.4864 C   0  0  0  0  0  0  0  0  0  0  0  0
   20.7296  -21.6701  -14.6940 O   0  0  0  0  0  0  0  0  0  0  0  0
   22.3501  -20.3606  -15.5382 O   0  0  0  0  0  0  0  0  0  0  0  0
  2  1  1  6
  3  2  1  0
  4  3  1  0
  5  4  2  0
  6  7  1  0
  6  5  1  0
  7 12  2  0
  8  7  1  0
  8  9  2  0
  9 10  1  0
 10 11  2  0
 12  4  1  0
 12 11  1  0
 13  2  1  0
 13 15  1  0
 14 13  2  0
 16 15  1  0
 17 16  1  0
 18 17  2  0
 20 19  1  1
 20 21  1  0
 22 20  1  0
 22 23  1  6
 23 17  1  0
 24 26  1  0
 24 22  1  0
 25 24  2  0
M  END
$$$$
