WGV.pdb
     RDKit          3D

 26 27  0  0  1  0  0  0  0  0999 V2000
   22.7568  -21.0600  -10.6029 N   0  0  0  0  0  0  0  0  0  0  0  0
   23.8202  -20.1938  -11.0958 C   0  0  1  0  0  0  0  0  0  0  0  0
   25.1815  -20.6718  -10.6080 C   0  0  0  0  0  0  0  0  0  0  0  0
   25.2446  -20.6684   -9.1367 C   0  0  0  0  0  0  0  0  0  0  0  0
   24.2629  -21.1152   -8.2583 C   0  0  0  0  0  0  0  0  0  0  0  0
   24.6974  -20.9440   -6.9891 N   0  0  0  0  0  0  0  0  0  0  0  0
   25.9320  -20.3993   -7.0200 C   0  0  0  0  0  0  0  0  0  0  0  0
   26.8208  -20.0234   -6.0395 C   0  0  0  0  0  0  0  0  0  0  0  0
   28.0524  -19.4761   -6.3378 C   0  0  0  0  0  0  0  0  0  0  0  0
   28.3814  -19.3099   -7.6647 C   0  0  0  0  0  0  0  0  0  0  0  0
   27.4915  -19.6860   -8.6550 C   0  0  0  0  0  0  0  0  0  0  0  0
   26.2718  -20.2283   -8.3435 C   0  0  0  0  0  0  0  0  0  0  0  0
   23.8185  -20.2085  -12.5675 C   0  0  0  0  0  0  0  0  0  0  0  0
   23.8120  -21.2903  -13.1823 O   0  0  0  0  0  0  0  0  0  0  0  0
   23.8245  -18.9958  -13.2843 N   0  0  0  0  0  0  0  0  0  0  0  0
   23.8510  -18.9293  -14.7253 C   0  0  0  0  0  0  0  0  0  0  0  0
   25.2503  -18.9522  -15.2469 C   0  0  0  0  0  0  0  0  0  0  0  0
   25.6198  -18.0328  -16.0294 O   0  0  0  0  0  0  0  0  0  0  0  0
   29.8591  -20.5493  -14.5562 C   0  0  0  0  0  0  0  0  0  0  0  0
   28.4302  -20.3342  -14.1975 C   0  0  1  0  0  0  0  0  0  0  0  0
   28.2395  -19.3178  -13.1023 C   0  0  0  0  0  0  0  0  0  0  0  0
   27.5512  -19.9705  -15.3670 C   0  0  2  0  0  0  0  0  0  0  0  0
   26.1779  -19.9467  -14.9098 N   0  0  0  0  0  0  0  0  0  0  0  0
   27.7494  -20.8212  -16.5415 C   0  0  0  0  0  0  0  0  0  0  0  0
   26.9264  -21.7189  -16.8526 O   0  0  0  0  0  0  0  0  0  0  0  0
   28.8545  -20.6946  -17.3882 O   0  0  0  0  0  0  0  0  0  0  0  0
  2  1  1  1
  3  2  1  0
  4  3  1  0
  5  4  2  0
  6  7  1  0
  6  5  1  0
  7 12  2  0
  8  7  1  0
  8  9  2  0
  9 10  1  0
 10 11  2  0
 12  4  1  0
 12 11  1  0
 13  2  1  0
 13 15  1  0
 14 13  2  0
 16 15  1  0
 17 16  1  0
 18 17  2  0
 20 19  1  6
 20 21  1  0
 22 20  1  0
 22 23  1  1
 23 17  1  0
 24 26  1  0
 24 22  1  0
 25 24  2  0
M  END
$$$$
