WGV.pdb
     RDKit          3D

 26 27  0  0  1  0  0  0  0  0999 V2000
   26.5838  -22.0103  -11.1035 N   0  0  0  0  0  0  0  0  0  0  0  0
   26.0224  -20.8493  -10.4245 C   0  0  1  0  0  0  0  0  0  0  0  0
   27.0982  -19.8071  -10.1489 C   0  0  0  0  0  0  0  0  0  0  0  0
   28.0970  -20.3205   -9.1962 C   0  0  0  0  0  0  0  0  0  0  0  0
   29.2044  -21.1086   -9.4919 C   0  0  0  0  0  0  0  0  0  0  0  0
   29.8747  -21.3725   -8.3474 N   0  0  0  0  0  0  0  0  0  0  0  0
   29.2335  -20.7782   -7.3189 C   0  0  0  0  0  0  0  0  0  0  0  0
   29.4739  -20.7208   -5.9656 C   0  0  0  0  0  0  0  0  0  0  0  0
   28.6473  -20.0289   -5.1033 C   0  0  0  0  0  0  0  0  0  0  0  0
   27.5536  -19.3832   -5.6356 C   0  0  0  0  0  0  0  0  0  0  0  0
   27.3068  -19.4376   -6.9958 C   0  0  0  0  0  0  0  0  0  0  0  0
   28.1366  -20.1287   -7.8399 C   0  0  0  0  0  0  0  0  0  0  0  0
   24.9873  -20.2401  -11.2751 C   0  0  0  0  0  0  0  0  0  0  0  0
   24.0566  -19.5931  -10.7616 O   0  0  0  0  0  0  0  0  0  0  0  0
   25.0480  -20.3884  -12.6746 N   0  0  0  0  0  0  0  0  0  0  0  0
   24.1801  -19.6794  -13.5832 C   0  0  0  0  0  0  0  0  0  0  0  0
   23.0792  -20.5566  -14.0826 C   0  0  0  0  0  0  0  0  0  0  0  0
   23.2342  -21.1552  -15.1833 O   0  0  0  0  0  0  0  0  0  0  0  0
   20.3864  -22.2385  -11.4147 C   0  0  0  0  0  0  0  0  0  0  0  0
   20.6792  -22.7330  -12.7881 C   0  0  1  0  0  0  0  0  0  0  0  0
   19.6797  -23.7471  -13.2797 C   0  0  0  0  0  0  0  0  0  0  0  0
   20.8209  -21.6406  -13.8172 C   0  0  2  0  0  0  0  0  0  0  0  0
   21.8779  -20.7497  -13.3878 N   0  0  0  0  0  0  0  0  0  0  0  0
   19.5689  -20.9430  -14.1139 C   0  0  0  0  0  0  0  0  0  0  0  0
   19.2733  -19.8536  -13.5609 O   0  0  0  0  0  0  0  0  0  0  0  0
   18.6271  -21.4346  -15.0226 O   0  0  0  0  0  0  0  0  0  0  0  0
  2  1  1  6
  3  2  1  0
  4  3  1  0
  5  4  2  0
  6  7  1  0
  6  5  1  0
  7 12  2  0
  8  7  1  0
  8  9  2  0
  9 10  1  0
 10 11  2  0
 12  4  1  0
 12 11  1  0
 13  2  1  0
 13 15  1  0
 14 13  2  0
 16 15  1  0
 17 16  1  0
 18 17  2  0
 20 19  1  1
 20 21  1  0
 22 20  1  0
 22 23  1  1
 23 17  1  0
 24 26  1  0
 24 22  1  0
 25 24  2  0
M  END
$$$$
