WGV.pdb
     RDKit          3D

 26 27  0  0  1  0  0  0  0  0999 V2000
   25.0488  -19.2368  -16.3493 N   0  0  0  0  0  0  0  0  0  0  0  0
   23.6814  -18.7387  -16.2703 C   0  0  1  0  0  0  0  0  0  0  0  0
   22.9406  -18.9721  -17.5803 C   0  0  0  0  0  0  0  0  0  0  0  0
   23.0140  -17.7828  -18.4458 C   0  0  0  0  0  0  0  0  0  0  0  0
   23.8625  -17.5920  -19.5314 C   0  0  0  0  0  0  0  0  0  0  0  0
   23.6262  -16.3720  -20.0651 N   0  0  0  0  0  0  0  0  0  0  0  0
   22.6493  -15.7673  -19.3568 C   0  0  0  0  0  0  0  0  0  0  0  0
   22.0301  -14.5431  -19.4603 C   0  0  0  0  0  0  0  0  0  0  0  0
   21.0330  -14.1504  -18.5903 C   0  0  0  0  0  0  0  0  0  0  0  0
   20.6620  -15.0269  -17.5949 C   0  0  0  0  0  0  0  0  0  0  0  0
   21.2812  -16.2592  -17.4859 C   0  0  0  0  0  0  0  0  0  0  0  0
   22.2700  -16.6355  -18.3573 C   0  0  0  0  0  0  0  0  0  0  0  0
   22.9662  -19.4456  -15.1955 C   0  0  0  0  0  0  0  0  0  0  0  0
   23.4202  -20.5091  -14.7362 O   0  0  0  0  0  0  0  0  0  0  0  0
   21.7641  -18.9187  -14.6839 N   0  0  0  0  0  0  0  0  0  0  0  0
   21.0252  -19.5347  -13.6087 C   0  0  0  0  0  0  0  0  0  0  0  0
   20.1151  -20.6051  -14.1152 C   0  0  0  0  0  0  0  0  0  0  0  0
   20.0339  -20.7910  -15.3614 O   0  0  0  0  0  0  0  0  0  0  0  0
   19.1246  -23.7241  -11.6098 C   0  0  0  0  0  0  0  0  0  0  0  0
   19.0336  -23.7839  -13.0947 C   0  0  1  0  0  0  0  0  0  0  0  0
   18.2206  -24.9499  -13.5932 C   0  0  0  0  0  0  0  0  0  0  0  0
   18.5206  -22.5169  -13.7303 C   0  0  2  0  0  0  0  0  0  0  0  0
   19.3435  -21.4170  -13.2735 N   0  0  0  0  0  0  0  0  0  0  0  0
   17.0903  -22.2880  -13.5200 C   0  0  0  0  0  0  0  0  0  0  0  0
   16.2183  -22.9551  -14.1321 O   0  0  0  0  0  0  0  0  0  0  0  0
   16.6017  -21.3235  -12.6340 O   0  0  0  0  0  0  0  0  0  0  0  0
  2  1  1  6
  3  2  1  0
  4  3  1  0
  5  4  2  0
  6  7  1  0
  6  5  1  0
  7 12  2  0
  8  7  1  0
  8  9  2  0
  9 10  1  0
 10 11  2  0
 12  4  1  0
 12 11  1  0
 13  2  1  0
 13 15  1  0
 14 13  2  0
 16 15  1  0
 17 16  1  0
 18 17  2  0
 20 19  1  1
 20 21  1  0
 22 20  1  0
 22 23  1  1
 23 17  1  0
 24 26  1  0
 24 22  1  0
 25 24  2  0
M  END
$$$$
