WGV.pdb
     RDKit          3D

 26 27  0  0  1  0  0  0  0  0999 V2000
   37.1768   -9.4089   -9.3517 N   0  0  0  0  0  0  0  0  0  0  0  0
   38.1184   -9.8850   -8.3463 C   0  0  1  0  0  0  0  0  0  0  0  0
   37.8372  -11.3367   -7.9814 C   0  0  0  0  0  0  0  0  0  0  0  0
   36.6106  -11.4485   -7.1741 C   0  0  0  0  0  0  0  0  0  0  0  0
   36.1743  -10.5650   -6.1923 C   0  0  0  0  0  0  0  0  0  0  0  0
   35.0062  -11.0166   -5.6819 N   0  0  0  0  0  0  0  0  0  0  0  0
   34.6733  -12.1670   -6.3046 C   0  0  0  0  0  0  0  0  0  0  0  0
   33.6103  -13.0316   -6.1816 C   0  0  0  0  0  0  0  0  0  0  0  0
   33.4977  -14.1691   -6.9553 C   0  0  0  0  0  0  0  0  0  0  0  0
   34.4917  -14.4274   -7.8728 C   0  0  0  0  0  0  0  0  0  0  0  0
   35.5631  -13.5615   -8.0010 C   0  0  0  0  0  0  0  0  0  0  0  0
   35.6614  -12.4355   -7.2255 C   0  0  0  0  0  0  0  0  0  0  0  0
   39.4877   -9.7926   -8.8779 C   0  0  0  0  0  0  0  0  0  0  0  0
   39.6943   -9.9144  -10.0989 O   0  0  0  0  0  0  0  0  0  0  0  0
   40.5691   -9.5658   -8.0041 N   0  0  0  0  0  0  0  0  0  0  0  0
   41.9295   -9.4018   -8.4557 C   0  0  0  0  0  0  0  0  0  0  0  0
   42.8525   -9.1194   -7.3160 C   0  0  0  0  0  0  0  0  0  0  0  0
   42.3705   -9.0419   -6.1516 O   0  0  0  0  0  0  0  0  0  0  0  0
   43.6547  -11.0403   -5.6208 C   0  0  0  0  0  0  0  0  0  0  0  0
   45.0316  -10.7109   -6.0817 C   0  0  1  0  0  0  0  0  0  0  0  0
   45.5068  -11.5904   -7.2085 C   0  0  0  0  0  0  0  0  0  0  0  0
   45.2205   -9.2665   -6.4696 C   0  0  2  0  0  0  0  0  0  0  0  0
   44.2324   -8.9355   -7.4744 N   0  0  0  0  0  0  0  0  0  0  0  0
   46.5868   -8.9393   -6.8801 C   0  0  0  0  0  0  0  0  0  0  0  0
   46.9184   -8.8915   -8.0916 O   0  0  0  0  0  0  0  0  0  0  0  0
   47.6047   -8.6601   -5.9635 O   0  0  0  0  0  0  0  0  0  0  0  0
  2  1  1  6
  3  2  1  0
  4  3  1  0
  5  4  2  0
  6  7  1  0
  6  5  1  0
  7 12  2  0
  8  7  1  0
  8  9  2  0
  9 10  1  0
 10 11  2  0
 12  4  1  0
 12 11  1  0
 13  2  1  0
 13 15  1  0
 14 13  2  0
 16 15  1  0
 17 16  1  0
 18 17  2  0
 20 19  1  6
 20 21  1  0
 22 20  1  0
 22 23  1  6
 23 17  1  0
 24 26  1  0
 24 22  1  0
 25 24  2  0
M  END
$$$$
