WGV.pdb
     RDKit          3D

 26 27  0  0  1  0  0  0  0  0999 V2000
   24.6745  -19.7539  -11.2724 N   0  0  0  0  0  0  0  0  0  0  0  0
   25.7549  -20.7063  -11.4950 C   0  0  1  0  0  0  0  0  0  0  0  0
   25.9704  -21.5817  -10.2675 C   0  0  0  0  0  0  0  0  0  0  0  0
   26.2992  -20.7631   -9.0882 C   0  0  0  0  0  0  0  0  0  0  0  0
   25.4509  -19.8893   -8.4162 C   0  0  0  0  0  0  0  0  0  0  0  0
   26.1246  -19.3263   -7.3875 N   0  0  0  0  0  0  0  0  0  0  0  0
   27.3846  -19.8102   -7.3738 C   0  0  0  0  0  0  0  0  0  0  0  0
   28.4720  -19.5844   -6.5619 C   0  0  0  0  0  0  0  0  0  0  0  0
   29.6806  -20.2205   -6.7620 C   0  0  0  0  0  0  0  0  0  0  0  0
   29.7790  -21.1048   -7.8131 C   0  0  0  0  0  0  0  0  0  0  0  0
   28.6888  -21.3359   -8.6330 C   0  0  0  0  0  0  0  0  0  0  0  0
   27.4948  -20.6967   -8.4219 C   0  0  0  0  0  0  0  0  0  0  0  0
   25.4138  -21.5733  -12.6344 C   0  0  0  0  0  0  0  0  0  0  0  0
   24.3025  -22.1307  -12.6856 O   0  0  0  0  0  0  0  0  0  0  0  0
   26.3463  -21.7742  -13.6710 N   0  0  0  0  0  0  0  0  0  0  0  0
   26.1088  -22.6558  -14.7881 C   0  0  0  0  0  0  0  0  0  0  0  0
   24.8605  -22.2855  -15.5196 C   0  0  0  0  0  0  0  0  0  0  0  0
   24.6878  -21.0793  -15.8504 O   0  0  0  0  0  0  0  0  0  0  0  0
   23.4022  -24.0491  -18.6344 C   0  0  0  0  0  0  0  0  0  0  0  0
   22.3645  -23.9484  -17.5715 C   0  0  1  0  0  0  0  0  0  0  0  0
   22.1090  -25.2543  -16.8657 C   0  0  0  0  0  0  0  0  0  0  0  0
   22.6376  -22.8780  -16.5458 C   0  0  2  0  0  0  0  0  0  0  0  0
   23.8670  -23.2133  -15.8591 N   0  0  0  0  0  0  0  0  0  0  0  0
   21.5192  -22.6360  -15.6330 C   0  0  0  0  0  0  0  0  0  0  0  0
   21.4504  -23.1971  -14.5103 O   0  0  0  0  0  0  0  0  0  0  0  0
   20.4635  -21.7739  -15.9435 O   0  0  0  0  0  0  0  0  0  0  0  0
  2  1  1  1
  3  2  1  0
  4  3  1  0
  5  4  2  0
  6  7  1  0
  6  5  1  0
  7 12  2  0
  8  7  1  0
  8  9  2  0
  9 10  1  0
 10 11  2  0
 12  4  1  0
 12 11  1  0
 13  2  1  0
 13 15  1  0
 14 13  2  0
 16 15  1  0
 17 16  1  0
 18 17  2  0
 20 19  1  6
 20 21  1  0
 22 20  1  0
 22 23  1  1
 23 17  1  0
 24 26  1  0
 24 22  1  0
 25 24  2  0
M  END
$$$$
