AQA.pdb
     RDKit          3D

 20 19  0  0  1  0  0  0  0  0999 V2000
   19.6928  -12.3595  -18.0796 C   0  0  0  0  0  0  0  0  0  0  0  0
   20.4693  -11.7578  -16.9236 C   0  0  2  0  0  0  0  0  0  0  0  0
   20.0824  -12.2832  -15.6533 N   0  0  0  0  0  0  0  0  0  0  0  0
   20.3278  -10.2853  -17.0137 C   0  0  0  0  0  0  0  0  0  0  0  0
   20.7991   -9.7425  -18.0630 O   0  0  0  0  0  0  0  0  0  0  0  0
   15.9681   -6.5756  -14.3477 N   0  0  0  0  0  0  0  0  0  0  0  0
   16.7725   -5.6362  -15.0577 C   0  0  0  0  0  0  0  0  0  0  0  0
   16.3682   -4.4502  -15.1250 O   0  0  0  0  0  0  0  0  0  0  0  0
   18.0342   -6.1078  -15.6733 C   0  0  0  0  0  0  0  0  0  0  0  0
   18.2661   -7.5647  -15.5427 C   0  0  0  0  0  0  0  0  0  0  0  0
   19.5841   -8.0542  -16.1265 C   0  0  2  0  0  0  0  0  0  0  0  0
   19.7075   -9.4956  -16.0053 N   0  0  0  0  0  0  0  0  0  0  0  0
   20.6407   -7.4126  -15.3096 C   0  0  0  0  0  0  0  0  0  0  0  0
   20.8740   -7.8809  -14.1730 O   0  0  0  0  0  0  0  0  0  0  0  0
   23.3849   -4.9656  -15.8365 C   0  0  0  0  0  0  0  0  0  0  0  0
   22.5636   -5.8999  -14.9840 C   0  0  2  0  0  0  0  0  0  0  0  0
   21.3996   -6.3000  -15.7445 N   0  0  0  0  0  0  0  0  0  0  0  0
   22.1568   -5.2710  -13.7022 C   0  0  0  0  0  0  0  0  0  0  0  0
   22.9683   -5.2653  -12.5928 O   0  0  0  0  0  0  0  0  0  0  0  0
   21.0269   -4.7229  -13.6293 O   0  0  0  0  0  0  0  0  0  0  0  0
  2  1  1  6
  2  3  1  0
  4  5  2  0
  4  2  1  0
  6  7  1  0
  7  9  1  0
  7  8  2  0
  9 10  1  0
 11 10  1  1
 11 12  1  0
 12  4  1  0
 13 11  1  0
 14 13  2  0
 16 15  1  6
 16 18  1  0
 16 17  1  0
 17 13  1  0
 18 19  1  0
 20 18  2  0
M  END
$$$$
