AQA.pdb
     RDKit          3D

 20 19  0  0  1  0  0  0  0  0999 V2000
   28.5007  -32.1634  -14.9854 C   0  0  0  0  0  0  0  0  0  0  0  0
   27.6425  -33.3720  -15.3085 C   0  0  2  0  0  0  0  0  0  0  0  0
   27.2604  -33.4381  -16.6829 N   0  0  0  0  0  0  0  0  0  0  0  0
   26.4863  -33.3549  -14.3816 C   0  0  0  0  0  0  0  0  0  0  0  0
   25.4503  -32.7423  -14.7929 O   0  0  0  0  0  0  0  0  0  0  0  0
   22.3621  -35.0954  -10.6570 N   0  0  0  0  0  0  0  0  0  0  0  0
   22.1900  -35.2746  -12.0611 C   0  0  0  0  0  0  0  0  0  0  0  0
   21.0186  -35.3011  -12.5101 O   0  0  0  0  0  0  0  0  0  0  0  0
   23.3957  -35.4185  -12.9091 C   0  0  0  0  0  0  0  0  0  0  0  0
   24.6743  -35.3229  -12.1678 C   0  0  0  0  0  0  0  0  0  0  0  0
   25.3427  -33.9563  -12.2255 C   0  0  2  0  0  0  0  0  0  0  0  0
   26.5004  -33.9761  -13.1013 N   0  0  0  0  0  0  0  0  0  0  0  0
   25.7936  -33.6781  -10.8418 C   0  0  0  0  0  0  0  0  0  0  0  0
   26.8356  -34.2397  -10.4363 O   0  0  0  0  0  0  0  0  0  0  0  0
   25.1300  -31.2608   -8.1319 C   0  0  0  0  0  0  0  0  0  0  0  0
   25.6566  -32.5813   -8.6349 C   0  0  2  0  0  0  0  0  0  0  0  0
   25.1104  -32.8125   -9.9546 N   0  0  0  0  0  0  0  0  0  0  0  0
   25.3101  -33.7017   -7.7247 C   0  0  0  0  0  0  0  0  0  0  0  0
   25.9469  -33.9000   -6.5227 O   0  0  0  0  0  0  0  0  0  0  0  0
   24.3994  -34.4992   -8.0668 O   0  0  0  0  0  0  0  0  0  0  0  0
  2  1  1  6
  2  3  1  0
  4  5  2  0
  4  2  1  0
  6  7  1  0
  7  9  1  0
  7  8  2  0
  9 10  1  0
 11 10  1  1
 11 12  1  0
 12  4  1  0
 13 11  1  0
 14 13  2  0
 16 15  1  1
 16 18  1  0
 16 17  1  0
 17 13  1  0
 18 19  1  0
 20 18  2  0
M  END
$$$$
