AQA.pdb
     RDKit          3D

 20 19  0  0  1  0  0  0  0  0999 V2000
   26.4485  -32.3170  -11.4595 C   0  0  0  0  0  0  0  0  0  0  0  0
   25.5326  -33.0358  -10.4869 C   0  0  2  0  0  0  0  0  0  0  0  0
   24.1469  -32.8242  -10.7595 N   0  0  0  0  0  0  0  0  0  0  0  0
   25.9278  -32.6236   -9.1193 C   0  0  0  0  0  0  0  0  0  0  0  0
   25.5600  -31.4608   -8.7586 O   0  0  0  0  0  0  0  0  0  0  0  0
   23.3268  -33.9863   -4.5237 N   0  0  0  0  0  0  0  0  0  0  0  0
   24.3807  -33.2859   -3.8661 C   0  0  0  0  0  0  0  0  0  0  0  0
   24.1988  -32.9360   -2.6749 O   0  0  0  0  0  0  0  0  0  0  0  0
   25.6256  -33.0112   -4.6197 C   0  0  0  0  0  0  0  0  0  0  0  0
   25.5781  -33.4227   -6.0416 C   0  0  0  0  0  0  0  0  0  0  0  0
   26.8441  -33.1249   -6.8330 C   0  0  2  0  0  0  0  0  0  0  0  0
   26.6739  -33.4540   -8.2366 N   0  0  0  0  0  0  0  0  0  0  0  0
   27.8866  -34.0064   -6.2572 C   0  0  0  0  0  0  0  0  0  0  0  0
   27.7873  -35.2393   -6.4460 O   0  0  0  0  0  0  0  0  0  0  0  0
   31.2604  -33.7060   -4.7756 C   0  0  0  0  0  0  0  0  0  0  0  0
   29.9893  -34.4695   -5.0505 C   0  0  2  0  0  0  0  0  0  0  0  0
   28.9875  -33.5302   -5.5060 N   0  0  0  0  0  0  0  0  0  0  0  0
   29.5095  -35.2015   -3.8515 C   0  0  0  0  0  0  0  0  0  0  0  0
   30.1995  -36.2582   -3.3068 O   0  0  0  0  0  0  0  0  0  0  0  0
   28.4308  -34.8407   -3.3142 O   0  0  0  0  0  0  0  0  0  0  0  0
  2  1  1  6
  2  3  1  0
  4  5  2  0
  4  2  1  0
  6  7  1  0
  7  9  1  0
  7  8  2  0
  9 10  1  0
 11 10  1  1
 11 12  1  0
 12  4  1  0
 13 11  1  0
 14 13  2  0
 16 15  1  1
 16 18  1  0
 16 17  1  0
 17 13  1  0
 18 19  1  0
 20 18  2  0
M  END
$$$$
