AQA.pdb
     RDKit          3D

 20 19  0  0  1  0  0  0  0  0999 V2000
   26.7801  -18.2422  -18.2496 C   0  0  0  0  0  0  0  0  0  0  0  0
   27.5331  -19.0995  -17.2499 C   0  0  2  0  0  0  0  0  0  0  0  0
   28.4134  -20.0395  -17.8670 N   0  0  0  0  0  0  0  0  0  0  0  0
   26.5278  -19.7350  -16.3656 C   0  0  0  0  0  0  0  0  0  0  0  0
   26.0678  -20.8542  -16.7575 O   0  0  0  0  0  0  0  0  0  0  0  0
   26.4433  -21.7591  -11.6931 N   0  0  0  0  0  0  0  0  0  0  0  0
   25.1416  -21.3605  -11.2688 C   0  0  0  0  0  0  0  0  0  0  0  0
   24.5270  -22.1133  -10.4751 O   0  0  0  0  0  0  0  0  0  0  0  0
   24.5885  -20.0870  -11.7843 C   0  0  0  0  0  0  0  0  0  0  0  0
   25.4443  -19.4162  -12.7898 C   0  0  0  0  0  0  0  0  0  0  0  0
   25.2188  -19.8736  -14.2242 C   0  0  2  0  0  0  0  0  0  0  0  0
   26.0817  -19.1555  -15.1447 N   0  0  0  0  0  0  0  0  0  0  0  0
   23.8082  -19.5376  -14.5290 C   0  0  0  0  0  0  0  0  0  0  0  0
   23.4895  -18.3292  -14.5915 O   0  0  0  0  0  0  0  0  0  0  0  0
   21.0360  -20.7332  -16.3525 C   0  0  0  0  0  0  0  0  0  0  0  0
   21.4589  -20.0720  -15.0648 C   0  0  2  0  0  0  0  0  0  0  0  0
   22.8028  -20.5081  -14.7530 N   0  0  0  0  0  0  0  0  0  0  0  0
   20.5359  -20.3902  -13.9465 C   0  0  0  0  0  0  0  0  0  0  0  0
   19.2340  -19.9500  -13.9161 O   0  0  0  0  0  0  0  0  0  0  0  0
   20.9617  -21.0890  -12.9911 O   0  0  0  0  0  0  0  0  0  0  0  0
  2  1  1  6
  2  3  1  0
  4  5  2  0
  4  2  1  0
  6  7  1  0
  7  9  1  0
  7  8  2  0
  9 10  1  0
 11 10  1  1
 11 12  1  0
 12  4  1  0
 13 11  1  0
 14 13  2  0
 16 15  1  6
 16 18  1  0
 16 17  1  0
 17 13  1  0
 18 19  1  0
 20 18  2  0
M  END
$$$$
