AQA.pdb
     RDKit          3D

 20 19  0  0  1  0  0  0  0  0999 V2000
   17.4102  -12.2564  -17.3514 C   0  0  0  0  0  0  0  0  0  0  0  0
   18.5323  -11.8059  -16.4352 C   0  0  2  0  0  0  0  0  0  0  0  0
   18.2052  -11.9180  -15.0497 N   0  0  0  0  0  0  0  0  0  0  0  0
   18.9066  -10.4294  -16.8370 C   0  0  0  0  0  0  0  0  0  0  0  0
   19.3587  -10.2963  -18.0184 O   0  0  0  0  0  0  0  0  0  0  0  0
   15.7635   -5.2879  -16.1190 N   0  0  0  0  0  0  0  0  0  0  0  0
   16.9874   -4.7419  -16.6062 C   0  0  0  0  0  0  0  0  0  0  0  0
   16.9985   -3.5325  -16.9403 O   0  0  0  0  0  0  0  0  0  0  0  0
   18.1724   -5.6261  -16.6908 C   0  0  0  0  0  0  0  0  0  0  0  0
   17.9178   -7.0243  -16.2742 C   0  0  0  0  0  0  0  0  0  0  0  0
   19.1105   -7.9591  -16.4201 C   0  0  2  0  0  0  0  0  0  0  0  0
   18.7808   -9.3019  -15.9779 N   0  0  0  0  0  0  0  0  0  0  0  0
   20.1579   -7.4053  -15.5302 C   0  0  0  0  0  0  0  0  0  0  0  0
   20.0401   -7.5844  -14.2975 O   0  0  0  0  0  0  0  0  0  0  0  0
   23.5138   -5.8413  -15.7951 C   0  0  0  0  0  0  0  0  0  0  0  0
   22.2563   -6.2004  -15.0440 C   0  0  2  0  0  0  0  0  0  0  0  0
   21.2830   -6.6856  -15.9982 N   0  0  0  0  0  0  0  0  0  0  0  0
   21.7117   -5.0457  -14.2865 C   0  0  0  0  0  0  0  0  0  0  0  0
   22.1757   -4.6952  -13.0410 O   0  0  0  0  0  0  0  0  0  0  0  0
   20.7909   -4.3628  -14.8045 O   0  0  0  0  0  0  0  0  0  0  0  0
  2  1  1  6
  2  3  1  0
  4  5  2  0
  4  2  1  0
  6  7  1  0
  7  9  1  0
  7  8  2  0
  9 10  1  0
 11 10  1  1
 11 12  1  0
 12  4  1  0
 13 11  1  0
 14 13  2  0
 16 15  1  6
 16 18  1  0
 16 17  1  0
 17 13  1  0
 18 19  1  0
 20 18  2  0
M  END
$$$$
