AQA.pdb
     RDKit          3D

 20 19  0  0  1  0  0  0  0  0999 V2000
   17.6999  -10.9609  -18.1723 C   0  0  0  0  0  0  0  0  0  0  0  0
   17.8866   -9.5871  -18.7880 C   0  0  2  0  0  0  0  0  0  0  0  0
   19.0841   -9.4749  -19.5580 N   0  0  0  0  0  0  0  0  0  0  0  0
   17.8035   -8.5947  -17.6904 C   0  0  0  0  0  0  0  0  0  0  0  0
   16.7181   -8.5854  -17.0275 O   0  0  0  0  0  0  0  0  0  0  0  0
   22.2112   -6.4516  -13.7760 N   0  0  0  0  0  0  0  0  0  0  0  0
   20.9752   -6.7634  -13.1369 C   0  0  0  0  0  0  0  0  0  0  0  0
   20.9804   -6.9144  -11.8912 O   0  0  0  0  0  0  0  0  0  0  0  0
   19.7592   -6.8913  -13.9725 C   0  0  0  0  0  0  0  0  0  0  0  0
   20.0008   -6.7306  -15.4249 C   0  0  0  0  0  0  0  0  0  0  0  0
   18.7437   -6.7360  -16.2835 C   0  0  2  0  0  0  0  0  0  0  0  0
   18.8560   -7.6917  -17.3705 N   0  0  0  0  0  0  0  0  0  0  0  0
   18.6484   -5.3716  -16.8534 C   0  0  0  0  0  0  0  0  0  0  0  0
   19.2447   -5.1379  -17.9283 O   0  0  0  0  0  0  0  0  0  0  0  0
   16.5295   -2.4030  -16.6002 C   0  0  0  0  0  0  0  0  0  0  0  0
   17.8660   -3.0313  -16.9053 C   0  0  2  0  0  0  0  0  0  0  0  0
   17.9204   -4.3193  -16.2486 N   0  0  0  0  0  0  0  0  0  0  0  0
   18.9965   -2.1751  -16.4662 C   0  0  0  0  0  0  0  0  0  0  0  0
   19.2570   -0.9495  -17.0315 O   0  0  0  0  0  0  0  0  0  0  0  0
   19.7439   -2.5873  -15.5421 O   0  0  0  0  0  0  0  0  0  0  0  0
  2  1  1  1
  2  3  1  0
  4  5  2  0
  4  2  1  0
  6  7  1  0
  7  9  1  0
  7  8  2  0
  9 10  1  0
 11 10  1  1
 11 12  1  0
 12  4  1  0
 13 11  1  0
 14 13  2  0
 16 15  1  1
 16 18  1  0
 16 17  1  0
 17 13  1  0
 18 19  1  0
 20 18  2  0
M  END
$$$$
