AQA.pdb
     RDKit          3D

 20 19  0  0  1  0  0  0  0  0999 V2000
   27.3431  -18.1943  -13.2667 C   0  0  0  0  0  0  0  0  0  0  0  0
   26.3566  -18.7460  -14.2785 C   0  0  2  0  0  0  0  0  0  0  0  0
   26.6113  -20.1074  -14.6263 N   0  0  0  0  0  0  0  0  0  0  0  0
   26.3636  -17.8341  -15.4468 C   0  0  0  0  0  0  0  0  0  0  0  0
   27.2378  -18.0761  -16.3383 O   0  0  0  0  0  0  0  0  0  0  0  0
   21.6837  -15.8444  -18.7932 N   0  0  0  0  0  0  0  0  0  0  0  0
   22.7863  -15.2332  -19.4597 C   0  0  0  0  0  0  0  0  0  0  0  0
   22.5942  -14.7737  -20.6114 O   0  0  0  0  0  0  0  0  0  0  0  0
   24.0907  -15.1737  -18.7609 C   0  0  0  0  0  0  0  0  0  0  0  0
   24.1274  -15.9150  -17.4793 C   0  0  0  0  0  0  0  0  0  0  0  0
   25.4732  -15.8901  -16.7680 C   0  0  2  0  0  0  0  0  0  0  0  0
   25.4609  -16.7438  -15.5939 N   0  0  0  0  0  0  0  0  0  0  0  0
   25.6665  -14.4856  -16.3371 C   0  0  0  0  0  0  0  0  0  0  0  0
   24.9723  -14.0587  -15.3876 O   0  0  0  0  0  0  0  0  0  0  0  0
   28.1073  -11.7563  -16.7653 C   0  0  0  0  0  0  0  0  0  0  0  0
   26.7285  -12.2591  -16.4184 C   0  0  2  0  0  0  0  0  0  0  0  0
   26.5926  -13.6017  -16.9404 N   0  0  0  0  0  0  0  0  0  0  0  0
   25.6627  -11.3795  -16.9608 C   0  0  0  0  0  0  0  0  0  0  0  0
   25.2405  -10.2445  -16.3104 O   0  0  0  0  0  0  0  0  0  0  0  0
   25.1261  -11.6849  -18.0568 O   0  0  0  0  0  0  0  0  0  0  0  0
  2  1  1  1
  2  3  1  0
  4  5  2  0
  4  2  1  0
  6  7  1  0
  7  9  1  0
  7  8  2  0
  9 10  1  0
 11 10  1  1
 11 12  1  0
 12  4  1  0
 13 11  1  0
 14 13  2  0
 16 15  1  6
 16 18  1  0
 16 17  1  0
 17 13  1  0
 18 19  1  0
 20 18  2  0
M  END
$$$$
