AQA.pdb
     RDKit          3D

 20 19  0  0  1  0  0  0  0  0999 V2000
   14.2681  -12.9363  -12.5392 C   0  0  0  0  0  0  0  0  0  0  0  0
   14.2052  -11.4526  -12.8490 C   0  0  2  0  0  0  0  0  0  0  0  0
   14.5399  -11.1470  -14.2032 N   0  0  0  0  0  0  0  0  0  0  0  0
   15.0668  -10.7575  -11.8638 C   0  0  0  0  0  0  0  0  0  0  0  0
   15.1065  -11.2673  -10.6992 O   0  0  0  0  0  0  0  0  0  0  0  0
   19.8464   -6.7994  -13.0622 N   0  0  0  0  0  0  0  0  0  0  0  0
   19.8727   -8.2233  -13.1344 C   0  0  0  0  0  0  0  0  0  0  0  0
   20.8297   -8.7625  -13.7409 O   0  0  0  0  0  0  0  0  0  0  0  0
   18.7761   -8.9846  -12.4932 C   0  0  0  0  0  0  0  0  0  0  0  0
   17.7667   -8.1399  -11.8140 C   0  0  0  0  0  0  0  0  0  0  0  0
   16.6229   -8.9098  -11.1688 C   0  0  2  0  0  0  0  0  0  0  0  0
   15.8181   -9.5879  -12.1688 N   0  0  0  0  0  0  0  0  0  0  0  0
   15.7885   -7.8872  -10.4954 C   0  0  0  0  0  0  0  0  0  0  0  0
   14.9069   -7.3081  -11.1684 O   0  0  0  0  0  0  0  0  0  0  0  0
   15.0894   -6.6384   -7.0790 C   0  0  0  0  0  0  0  0  0  0  0  0
   15.0842   -6.4982   -8.5805 C   0  0  2  0  0  0  0  0  0  0  0  0
   15.9342   -7.5301   -9.1337 N   0  0  0  0  0  0  0  0  0  0  0  0
   15.5449   -5.1558   -9.0156 C   0  0  0  0  0  0  0  0  0  0  0  0
   16.7274   -4.9639   -9.6896 O   0  0  0  0  0  0  0  0  0  0  0  0
   14.8256   -4.1565   -8.7575 O   0  0  0  0  0  0  0  0  0  0  0  0
  2  1  1  6
  2  3  1  0
  4  5  2  0
  4  2  1  0
  6  7  1  0
  7  9  1  0
  7  8  2  0
  9 10  1  0
 11 10  1  6
 11 12  1  0
 12  4  1  0
 13 11  1  0
 14 13  2  0
 16 15  1  1
 16 18  1  0
 16 17  1  0
 17 13  1  0
 18 19  1  0
 20 18  2  0
M  END
$$$$
