AQA.pdb
     RDKit          3D

 20 19  0  0  1  0  0  0  0  0999 V2000
   13.1402  -11.9849  -12.9833 C   0  0  0  0  0  0  0  0  0  0  0  0
   14.5714  -12.3018  -13.3741 C   0  0  2  0  0  0  0  0  0  0  0  0
   14.8577  -13.7008  -13.3711 N   0  0  0  0  0  0  0  0  0  0  0  0
   15.4581  -11.5228  -12.4778 C   0  0  0  0  0  0  0  0  0  0  0  0
   15.5589  -11.9494  -11.2839 O   0  0  0  0  0  0  0  0  0  0  0  0
   20.2686   -7.7153  -14.0790 N   0  0  0  0  0  0  0  0  0  0  0  0
   20.2357   -7.5695  -12.6609 C   0  0  0  0  0  0  0  0  0  0  0  0
   21.1242   -6.8656  -12.1226 O   0  0  0  0  0  0  0  0  0  0  0  0
   19.1610   -8.2519  -11.9042 C   0  0  0  0  0  0  0  0  0  0  0  0
   18.2152   -9.0170  -12.7491 C   0  0  0  0  0  0  0  0  0  0  0  0
   17.0449   -9.6339  -11.9958 C   0  0  2  0  0  0  0  0  0  0  0  0
   16.1689  -10.3627  -12.8953 N   0  0  0  0  0  0  0  0  0  0  0  0
   16.2977   -8.4905  -11.4215 C   0  0  0  0  0  0  0  0  0  0  0  0
   15.6037   -7.7915  -12.1931 O   0  0  0  0  0  0  0  0  0  0  0  0
   15.3613   -7.1518   -8.0970 C   0  0  0  0  0  0  0  0  0  0  0  0
   15.5437   -7.0200   -9.5882 C   0  0  2  0  0  0  0  0  0  0  0  0
   16.3264   -8.1462  -10.0491 N   0  0  0  0  0  0  0  0  0  0  0  0
   16.2029   -5.7422   -9.9573 C   0  0  0  0  0  0  0  0  0  0  0  0
   15.5521   -4.5327   -9.9009 O   0  0  0  0  0  0  0  0  0  0  0  0
   17.4023   -5.7678  -10.3359 O   0  0  0  0  0  0  0  0  0  0  0  0
  2  1  1  1
  2  3  1  0
  4  5  2  0
  4  2  1  0
  6  7  1  0
  7  9  1  0
  7  8  2  0
  9 10  1  0
 11 10  1  6
 11 12  1  0
 12  4  1  0
 13 11  1  0
 14 13  2  0
 16 15  1  1
 16 18  1  0
 16 17  1  0
 17 13  1  0
 18 19  1  0
 20 18  2  0
M  END
$$$$
