AQA.pdb
     RDKit          3D

 20 19  0  0  1  0  0  0  0  0999 V2000
   21.0445  -12.3293  -18.1564 C   0  0  0  0  0  0  0  0  0  0  0  0
   20.3696  -12.4396  -16.8022 C   0  0  2  0  0  0  0  0  0  0  0  0
   19.3265  -13.4145  -16.7724 N   0  0  0  0  0  0  0  0  0  0  0  0
   19.9105  -11.0822  -16.4241 C   0  0  0  0  0  0  0  0  0  0  0  0
   19.2847  -10.4344  -17.3222 O   0  0  0  0  0  0  0  0  0  0  0  0
   17.4834   -9.4623  -11.0171 N   0  0  0  0  0  0  0  0  0  0  0  0
   16.8036   -9.9432  -12.1747 C   0  0  0  0  0  0  0  0  0  0  0  0
   15.6705  -10.4590  -12.0179 O   0  0  0  0  0  0  0  0  0  0  0  0
   17.4672   -9.8087  -13.4918 C   0  0  0  0  0  0  0  0  0  0  0  0
   18.8613   -9.3135  -13.4216 C   0  0  0  0  0  0  0  0  0  0  0  0
   19.5736   -9.2250  -14.7642 C   0  0  2  0  0  0  0  0  0  0  0  0
   20.1392  -10.5073  -15.1425 N   0  0  0  0  0  0  0  0  0  0  0  0
   20.6760   -8.2556  -14.5635 C   0  0  0  0  0  0  0  0  0  0  0  0
   21.7008   -8.6438  -13.9598 O   0  0  0  0  0  0  0  0  0  0  0  0
   21.7862   -5.0448  -15.9661 C   0  0  0  0  0  0  0  0  0  0  0  0
   21.8088   -6.0848  -14.8743 C   0  0  2  0  0  0  0  0  0  0  0  0
   20.6329   -6.9157  -15.0172 N   0  0  0  0  0  0  0  0  0  0  0  0
   21.8519   -5.4720  -13.5229 C   0  0  0  0  0  0  0  0  0  0  0  0
   23.0139   -4.9929  -12.9665 O   0  0  0  0  0  0  0  0  0  0  0  0
   20.7844   -5.3883  -12.8625 O   0  0  0  0  0  0  0  0  0  0  0  0
  2  1  1  6
  2  3  1  0
  4  5  2  0
  4  2  1  0
  6  7  1  0
  7  9  1  0
  7  8  2  0
  9 10  1  0
 11 10  1  1
 11 12  1  0
 12  4  1  0
 13 11  1  0
 14 13  2  0
 16 15  1  6
 16 18  1  0
 16 17  1  0
 17 13  1  0
 18 19  1  0
 20 18  2  0
M  END
$$$$
