AQA.pdb
     RDKit          3D

 20 19  0  0  1  0  0  0  0  0999 V2000
   16.6227  -13.1966  -16.4931 C   0  0  0  0  0  0  0  0  0  0  0  0
   16.5699  -12.5179  -17.8489 C   0  0  2  0  0  0  0  0  0  0  0  0
   16.7003  -13.4309  -18.9392 N   0  0  0  0  0  0  0  0  0  0  0  0
   17.6017  -11.4540  -17.8521 C   0  0  0  0  0  0  0  0  0  0  0  0
   18.7860  -11.8260  -18.1290 O   0  0  0  0  0  0  0  0  0  0  0  0
   16.5753   -5.1488  -18.0942 N   0  0  0  0  0  0  0  0  0  0  0  0
   17.9962   -5.2340  -18.1798 C   0  0  0  0  0  0  0  0  0  0  0  0
   18.6380   -4.1709  -18.3598 O   0  0  0  0  0  0  0  0  0  0  0  0
   18.6341   -6.5644  -18.0522 C   0  0  0  0  0  0  0  0  0  0  0  0
   17.6802   -7.6775  -17.8408 C   0  0  0  0  0  0  0  0  0  0  0  0
   18.3238   -9.0507  -17.7084 C   0  0  2  0  0  0  0  0  0  0  0  0
   17.3188  -10.0887  -17.5670 N   0  0  0  0  0  0  0  0  0  0  0  0
   19.1293   -8.9915  -16.4662 C   0  0  0  0  0  0  0  0  0  0  0  0
   18.5250   -8.9841  -15.3706 O   0  0  0  0  0  0  0  0  0  0  0  0
   22.6149   -9.5159  -15.3967 C   0  0  0  0  0  0  0  0  0  0  0  0
   21.2360   -8.9447  -15.1810 C   0  0  2  0  0  0  0  0  0  0  0  0
   20.5437   -8.9430  -16.4514 N   0  0  0  0  0  0  0  0  0  0  0  0
   21.2841   -7.5741  -14.6127 C   0  0  0  0  0  0  0  0  0  0  0  0
   20.9345   -6.4611  -15.3395 O   0  0  0  0  0  0  0  0  0  0  0  0
   21.6590   -7.4264  -13.4209 O   0  0  0  0  0  0  0  0  0  0  0  0
  2  1  1  1
  2  3  1  0
  4  5  2  0
  4  2  1  0
  6  7  1  0
  7  9  1  0
  7  8  2  0
  9 10  1  0
 11 10  1  1
 11 12  1  0
 12  4  1  0
 13 11  1  0
 14 13  2  0
 16 15  1  6
 16 18  1  0
 16 17  1  0
 17 13  1  0
 18 19  1  0
 20 18  2  0
M  END
$$$$
