AQA.pdb
     RDKit          3D

 20 19  0  0  1  0  0  0  0  0999 V2000
   27.2891  -10.9110  -15.7065 C   0  0  0  0  0  0  0  0  0  0  0  0
   26.1672  -11.7827  -16.2383 C   0  0  2  0  0  0  0  0  0  0  0  0
   26.5807  -12.6451  -17.2988 N   0  0  0  0  0  0  0  0  0  0  0  0
   25.0507  -10.8851  -16.6179 C   0  0  0  0  0  0  0  0  0  0  0  0
   25.0301  -10.5020  -17.8305 O   0  0  0  0  0  0  0  0  0  0  0  0
   19.1555  -11.1959  -14.8232 N   0  0  0  0  0  0  0  0  0  0  0  0
   19.1332   -9.9599  -15.5340 C   0  0  0  0  0  0  0  0  0  0  0  0
   18.0183   -9.4242  -15.7447 O   0  0  0  0  0  0  0  0  0  0  0  0
   20.4193   -9.3782  -15.9822 C   0  0  0  0  0  0  0  0  0  0  0  0
   21.6089  -10.1819  -15.6181 C   0  0  0  0  0  0  0  0  0  0  0  0
   22.9323   -9.6254  -16.1247 C   0  0  2  0  0  0  0  0  0  0  0  0
   24.0453  -10.4579  -15.7058 N   0  0  0  0  0  0  0  0  0  0  0  0
   23.0675   -8.2917  -15.4935 C   0  0  0  0  0  0  0  0  0  0  0  0
   23.4731   -8.2366  -14.3111 O   0  0  0  0  0  0  0  0  0  0  0  0
   22.9094   -4.7158  -16.5153 C   0  0  0  0  0  0  0  0  0  0  0  0
   23.0786   -5.8235  -15.5061 C   0  0  2  0  0  0  0  0  0  0  0  0
   22.7633   -7.0778  -16.1547 N   0  0  0  0  0  0  0  0  0  0  0  0
   22.2191   -5.6246  -14.3122 C   0  0  0  0  0  0  0  0  0  0  0  0
   20.9923   -6.2297  -14.1768 O   0  0  0  0  0  0  0  0  0  0  0  0
   22.6294   -4.8737  -13.3900 O   0  0  0  0  0  0  0  0  0  0  0  0
  2  1  1  6
  2  3  1  0
  4  5  2  0
  4  2  1  0
  6  7  1  0
  7  9  1  0
  7  8  2  0
  9 10  1  0
 11 10  1  1
 11 12  1  0
 12  4  1  0
 13 11  1  0
 14 13  2  0
 16 15  1  6
 16 18  1  0
 16 17  1  0
 17 13  1  0
 18 19  1  0
 20 18  2  0
M  END
$$$$
