AQA.pdb
     RDKit          3D

 20 19  0  0  1  0  0  0  0  0999 V2000
   26.1210  -11.4807  -16.4804 C   0  0  0  0  0  0  0  0  0  0  0  0
   24.8850  -12.1930  -16.9965 C   0  0  2  0  0  0  0  0  0  0  0  0
   25.1359  -12.9807  -18.1609 N   0  0  0  0  0  0  0  0  0  0  0  0
   23.8355  -11.1669  -17.2011 C   0  0  0  0  0  0  0  0  0  0  0  0
   23.8774  -10.5383  -18.3061 O   0  0  0  0  0  0  0  0  0  0  0  0
   18.1559  -11.0980  -14.5002 N   0  0  0  0  0  0  0  0  0  0  0  0
   18.6085  -11.9332  -15.5637 C   0  0  0  0  0  0  0  0  0  0  0  0
   17.9335  -12.9557  -15.8347 O   0  0  0  0  0  0  0  0  0  0  0  0
   19.8430  -11.5511  -16.2871 C   0  0  0  0  0  0  0  0  0  0  0  0
   20.4825  -10.3132  -15.7850 C   0  0  0  0  0  0  0  0  0  0  0  0
   21.7654   -9.9224  -16.5054 C   0  0  2  0  0  0  0  0  0  0  0  0
   22.8265  -10.8769  -16.2402 N   0  0  0  0  0  0  0  0  0  0  0  0
   22.1512   -8.6080  -15.9406 C   0  0  0  0  0  0  0  0  0  0  0  0
   22.7291   -8.5891  -14.8310 O   0  0  0  0  0  0  0  0  0  0  0  0
   22.3613   -5.0821  -17.1032 C   0  0  0  0  0  0  0  0  0  0  0  0
   22.5175   -6.1707  -16.0714 C   0  0  2  0  0  0  0  0  0  0  0  0
   21.9017   -7.3740  -16.5872 N   0  0  0  0  0  0  0  0  0  0  0  0
   21.9130   -5.7938  -14.7690 C   0  0  0  0  0  0  0  0  0  0  0  0
   22.5694   -5.0106  -13.8497 O   0  0  0  0  0  0  0  0  0  0  0  0
   20.7563   -6.2071  -14.4970 O   0  0  0  0  0  0  0  0  0  0  0  0
  2  1  1  6
  2  3  1  0
  4  5  2  0
  4  2  1  0
  6  7  1  0
  7  9  1  0
  7  8  2  0
  9 10  1  0
 11 10  1  1
 11 12  1  0
 12  4  1  0
 13 11  1  0
 14 13  2  0
 16 15  1  6
 16 18  1  0
 16 17  1  0
 17 13  1  0
 18 19  1  0
 20 18  2  0
M  END
$$$$
