AQA.pdb
     RDKit          3D

 20 19  0  0  1  0  0  0  0  0999 V2000
   24.0393  -15.2578  -17.8546 C   0  0  0  0  0  0  0  0  0  0  0  0
   25.1031  -16.1368  -17.2244 C   0  0  2  0  0  0  0  0  0  0  0  0
   26.2400  -16.3333  -18.0659 N   0  0  0  0  0  0  0  0  0  0  0  0
   24.4490  -17.4043  -16.8217 C   0  0  0  0  0  0  0  0  0  0  0  0
   23.8881  -18.0634  -17.7537 O   0  0  0  0  0  0  0  0  0  0  0  0
   25.9622  -20.9646  -11.8126 N   0  0  0  0  0  0  0  0  0  0  0  0
   25.0264  -21.7847  -12.5092 C   0  0  0  0  0  0  0  0  0  0  0  0
   24.8934  -22.9739  -12.1316 O   0  0  0  0  0  0  0  0  0  0  0  0
   24.2661  -21.1923  -13.6336 C   0  0  0  0  0  0  0  0  0  0  0  0
   24.6942  -19.8229  -14.0014 C   0  0  0  0  0  0  0  0  0  0  0  0
   23.9072  -19.1954  -15.1436 C   0  0  2  0  0  0  0  0  0  0  0  0
   24.4309  -17.8845  -15.4822 N   0  0  0  0  0  0  0  0  0  0  0  0
   22.5247  -19.0418  -14.6333 C   0  0  0  0  0  0  0  0  0  0  0  0
   22.3151  -18.1859  -13.7450 O   0  0  0  0  0  0  0  0  0  0  0  0
   19.1701  -19.2857  -15.6888 C   0  0  0  0  0  0  0  0  0  0  0  0
   20.1139  -19.5636  -14.5459 C   0  0  2  0  0  0  0  0  0  0  0  0
   21.4294  -19.8096  -15.0956 N   0  0  0  0  0  0  0  0  0  0  0  0
   19.6689  -20.7175  -13.7247 C   0  0  0  0  0  0  0  0  0  0  0  0
   18.6915  -20.6067  -12.7645 O   0  0  0  0  0  0  0  0  0  0  0  0
   20.2068  -21.8386  -13.9153 O   0  0  0  0  0  0  0  0  0  0  0  0
  2  1  1  6
  2  3  1  0
  4  5  2  0
  4  2  1  0
  6  7  1  0
  7  9  1  0
  7  8  2  0
  9 10  1  0
 11 10  1  1
 11 12  1  0
 12  4  1  0
 13 11  1  0
 14 13  2  0
 16 15  1  6
 16 18  1  0
 16 17  1  0
 17 13  1  0
 18 19  1  0
 20 18  2  0
M  END
$$$$
