AQA.pdb
     RDKit          3D

 20 19  0  0  1  0  0  0  0  0999 V2000
   20.6041  -12.8575  -19.0351 C   0  0  0  0  0  0  0  0  0  0  0  0
   21.5866  -12.1246  -18.1411 C   0  0  2  0  0  0  0  0  0  0  0  0
   21.9667  -12.8774  -16.9887 N   0  0  0  0  0  0  0  0  0  0  0  0
   20.9875  -10.8106  -17.8083 C   0  0  0  0  0  0  0  0  0  0  0  0
   20.6978  -10.0631  -18.7957 O   0  0  0  0  0  0  0  0  0  0  0  0
   16.8739   -9.3629  -13.3787 N   0  0  0  0  0  0  0  0  0  0  0  0
   16.5618   -9.5746  -14.7539 C   0  0  0  0  0  0  0  0  0  0  0  0
   15.3769   -9.8633  -15.0490 O   0  0  0  0  0  0  0  0  0  0  0  0
   17.6462   -9.4429  -15.7539 C   0  0  0  0  0  0  0  0  0  0  0  0
   18.9931   -9.2542  -15.1676 C   0  0  0  0  0  0  0  0  0  0  0  0
   20.1145   -9.1007  -16.1858 C   0  0  2  0  0  0  0  0  0  0  0  0
   20.7378  -10.3795  -16.4752 N   0  0  0  0  0  0  0  0  0  0  0  0
   21.1137   -8.2154  -15.5429 C   0  0  0  0  0  0  0  0  0  0  0  0
   21.8699   -8.7097  -14.6772 O   0  0  0  0  0  0  0  0  0  0  0  0
   22.6952   -4.9490  -16.1414 C   0  0  0  0  0  0  0  0  0  0  0  0
   22.3182   -6.0849  -15.2239 C   0  0  2  0  0  0  0  0  0  0  0  0
   21.2590   -6.8425  -15.8543 N   0  0  0  0  0  0  0  0  0  0  0  0
   21.8882   -5.6016  -13.8877 C   0  0  0  0  0  0  0  0  0  0  0  0
   22.7841   -5.2281  -12.9145 O   0  0  0  0  0  0  0  0  0  0  0  0
   20.6573   -5.5315  -13.6373 O   0  0  0  0  0  0  0  0  0  0  0  0
  2  1  1  1
  2  3  1  0
  4  5  2  0
  4  2  1  0
  6  7  1  0
  7  9  1  0
  7  8  2  0
  9 10  1  0
 11 10  1  1
 11 12  1  0
 12  4  1  0
 13 11  1  0
 14 13  2  0
 16 15  1  6
 16 18  1  0
 16 17  1  0
 17 13  1  0
 18 19  1  0
 20 18  2  0
M  END
$$$$
