TRY.pdb
     RDKit          3D

 31 31  0  0  1  0  0  0  0  0999 V2000
   23.5100  -12.6755  -15.2227 C   0  0  0  0  0  0  0  0  0  0  0  0
   23.5516  -12.9829  -16.7045 C   0  0  1  0  0  0  0  0  0  0  0  0
   24.4978  -14.0144  -16.8612 O   0  0  0  0  0  0  0  0  0  0  0  0
   22.1855  -13.5212  -17.1022 C   0  0  2  0  0  0  0  0  0  0  0  0
   22.2967  -13.9657  -18.4687 N   0  0  0  0  0  0  0  0  0  0  0  0
   21.1346  -12.4865  -16.9546 C   0  0  0  0  0  0  0  0  0  0  0  0
   21.3061  -11.3831  -17.5268 O   0  0  0  0  0  0  0  0  0  0  0  0
   12.6919  -13.0393  -14.0423 N   0  0  0  0  0  0  0  0  0  0  0  0
   12.8919  -11.6892  -14.4140 C   0  0  0  0  0  0  0  0  0  0  0  0
   11.9613  -10.8207  -14.5213 N   0  0  0  0  0  0  0  0  0  0  0  0
   14.2306  -11.2328  -14.6978 N   0  0  0  0  0  0  0  0  0  0  0  0
   15.3362  -12.1605  -14.6223 C   0  0  0  0  0  0  0  0  0  0  0  0
   16.5638  -11.5079  -15.1689 C   0  0  0  0  0  0  0  0  0  0  0  0
   17.7175  -12.4358  -15.3463 C   0  0  0  0  0  0  0  0  0  0  0  0
   18.9246  -11.8144  -16.0086 C   0  0  2  0  0  0  0  0  0  0  0  0
   19.9901  -12.7919  -16.1768 N   0  0  0  0  0  0  0  0  0  0  0  0
   19.4486  -10.6427  -15.2868 C   0  0  0  0  0  0  0  0  0  0  0  0
   19.9072  -10.7999  -14.1304 O   0  0  0  0  0  0  0  0  0  0  0  0
   12.2558   -9.8515  -14.8179 O   0  0  0  0  0  0  0  0  0  0  0  0
   23.3838   -2.7614  -14.7124 C   0  0  0  0  0  0  0  0  0  0  0  0
   22.9025   -4.0728  -14.8551 C   0  0  0  0  0  0  0  0  0  0  0  0
   22.8929   -4.7018  -16.0863 C   0  0  0  0  0  0  0  0  0  0  0  0
   22.4202   -5.9901  -16.2278 C   0  0  0  0  0  0  0  0  0  0  0  0
   21.9441   -6.6785  -15.1305 C   0  0  0  0  0  0  0  0  0  0  0  0
   21.4240   -8.0506  -15.2303 C   0  0  1  0  0  0  0  0  0  0  0  0
   19.9276   -8.1591  -15.0931 N   0  0  0  0  0  0  0  0  0  0  0  0
   19.4681   -9.3278  -15.8243 C   0  0  0  0  0  0  0  0  0  0  0  0
   19.2406   -6.9734  -15.6418 O   0  0  0  0  0  0  0  0  0  0  0  0
   19.3112   -5.8741  -15.0392 C   0  0  0  0  0  0  0  0  0  0  0  0
   21.9602   -6.0399  -13.9126 C   0  0  0  0  0  0  0  0  0  0  0  0
   22.4319   -4.7479  -13.7578 O   0  0  0  0  0  0  0  0  0  0  0  0
  2  1  1  1
  2  4  1  0
  3  2  1  0
  4  5  1  6
  6  7  2  0
  6  4  1  0
  9  8  1  0
 10  9  2  0
 11  9  1  0
 12 11  1  0
 12 13  1  0
 13 14  1  0
 15 14  1  1
 15 16  1  0
 16  6  1  0
 17 26  1  0
 17 15  1  0
 18 17  2  0
 20 19  1  0
 21 20  2  0
 22 21  1  0
 23 29  1  0
 23 22  2  0
 25 24  1  1
 24 23  1  0
 25 26  1  0
 27 25  1  0
 28 27  2  0
 29 30  2  0
 30 20  1  0
 31 27  1  0
M  END
$$$$
