TRY.pdb
     RDKit          3D

 31 31  0  0  1  0  0  0  0  0999 V2000
   29.6340   -8.2679  -18.6226 C   0  0  0  0  0  0  0  0  0  0  0  0
   30.0942   -9.2876  -17.6026 C   0  0  1  0  0  0  0  0  0  0  0  0
   29.4985   -8.9130  -16.3824 O   0  0  0  0  0  0  0  0  0  0  0  0
   29.5314  -10.6392  -18.0157 C   0  0  2  0  0  0  0  0  0  0  0  0
   30.1789  -10.9975  -19.2524 N   0  0  0  0  0  0  0  0  0  0  0  0
   28.0586  -10.5846  -18.1730 C   0  0  0  0  0  0  0  0  0  0  0  0
   27.5935  -10.0390  -19.2028 O   0  0  0  0  0  0  0  0  0  0  0  0
   19.8555  -14.5003  -15.0971 N   0  0  0  0  0  0  0  0  0  0  0  0
   20.7311  -13.4421  -15.4355 C   0  0  0  0  0  0  0  0  0  0  0  0
   20.7821  -12.3198  -14.8275 N   0  0  0  0  0  0  0  0  0  0  0  0
   21.6421  -13.6144  -16.5407 N   0  0  0  0  0  0  0  0  0  0  0  0
   23.0664  -13.6471  -16.2983 C   0  0  0  0  0  0  0  0  0  0  0  0
   23.6759  -12.3700  -16.7768 C   0  0  0  0  0  0  0  0  0  0  0  0
   25.1624  -12.3279  -16.6679 C   0  0  0  0  0  0  0  0  0  0  0  0
   25.7972  -11.0827  -17.2410 C   0  0  2  0  0  0  0  0  0  0  0  0
   27.2489  -11.1492  -17.1563 N   0  0  0  0  0  0  0  0  0  0  0  0
   25.3289   -9.8412  -16.6025 C   0  0  0  0  0  0  0  0  0  0  0  0
   25.7876   -9.5291  -15.4780 O   0  0  0  0  0  0  0  0  0  0  0  0
   21.5783  -11.6790  -15.0910 O   0  0  0  0  0  0  0  0  0  0  0  0
   21.8205   -1.7212  -15.7172 C   0  0  0  0  0  0  0  0  0  0  0  0
   22.3646   -2.9318  -16.1754 C   0  0  0  0  0  0  0  0  0  0  0  0
   21.6624   -3.7503  -17.0406 C   0  0  0  0  0  0  0  0  0  0  0  0
   22.1959   -4.9399  -17.4914 C   0  0  0  0  0  0  0  0  0  0  0  0
   23.4526   -5.3359  -17.0810 C   0  0  0  0  0  0  0  0  0  0  0  0
   24.0625   -6.5976  -17.5279 C   0  0  1  0  0  0  0  0  0  0  0  0
   23.9086   -7.7397  -16.5576 N   0  0  0  0  0  0  0  0  0  0  0  0
   24.3777   -8.9627  -17.1870 C   0  0  0  0  0  0  0  0  0  0  0  0
   22.4999   -7.9363  -16.1630 O   0  0  0  0  0  0  0  0  0  0  0  0
   21.7678   -8.7148  -16.8222 C   0  0  0  0  0  0  0  0  0  0  0  0
   24.1389   -4.5115  -16.2205 C   0  0  0  0  0  0  0  0  0  0  0  0
   23.6146   -3.3157  -15.7613 O   0  0  0  0  0  0  0  0  0  0  0  0
  2  1  1  6
  2  4  1  0
  3  2  1  0
  4  5  1  6
  6  7  2  0
  6  4  1  0
  9  8  1  0
 10  9  2  0
 11  9  1  0
 12 11  1  0
 12 13  1  0
 13 14  1  0
 15 14  1  1
 15 16  1  0
 16  6  1  0
 17 26  1  0
 17 15  1  0
 18 17  2  0
 20 19  1  0
 21 20  2  0
 22 21  1  0
 23 29  1  0
 23 22  2  0
 25 24  1  1
 24 23  1  0
 25 26  1  0
 27 25  1  0
 28 27  2  0
 29 30  2  0
 30 20  1  0
 31 27  1  0
M  END
$$$$
