TRY.pdb
     RDKit          3D

 31 31  0  0  1  0  0  0  0  0999 V2000
   27.3243  -22.1236  -23.5691 C   0  0  0  0  0  0  0  0  0  0  0  0
   26.5570  -23.1113  -22.7161 C   0  0  1  0  0  0  0  0  0  0  0  0
   27.5266  -23.8604  -22.0214 O   0  0  0  0  0  0  0  0  0  0  0  0
   25.7496  -22.3149  -21.7021 C   0  0  2  0  0  0  0  0  0  0  0  0
   26.6977  -21.5866  -20.8971 N   0  0  0  0  0  0  0  0  0  0  0  0
   24.9036  -23.2027  -20.8698 C   0  0  0  0  0  0  0  0  0  0  0  0
   24.0873  -23.9576  -21.4512 O   0  0  0  0  0  0  0  0  0  0  0  0
   28.4085  -27.1809  -16.2870 N   0  0  0  0  0  0  0  0  0  0  0  0
   28.6648  -26.7950  -17.6235 C   0  0  0  0  0  0  0  0  0  0  0  0
   29.3633  -27.4707  -18.4527 N   0  0  0  0  0  0  0  0  0  0  0  0
   28.1111  -25.5557  -18.1122 N   0  0  0  0  0  0  0  0  0  0  0  0
   27.2782  -24.7514  -17.2472 C   0  0  0  0  0  0  0  0  0  0  0  0
   25.8773  -25.2679  -17.2945 C   0  0  0  0  0  0  0  0  0  0  0  0
   24.8353  -24.2019  -17.2618 C   0  0  0  0  0  0  0  0  0  0  0  0
   24.1782  -23.9277  -18.5941 C   0  0  2  0  0  0  0  0  0  0  0  0
   25.0566  -23.1566  -19.4617 N   0  0  0  0  0  0  0  0  0  0  0  0
   22.8829  -23.2372  -18.4756 C   0  0  0  0  0  0  0  0  0  0  0  0
   22.8668  -22.0428  -18.0943 O   0  0  0  0  0  0  0  0  0  0  0  0
   29.4506  -27.0728  -19.4264 O   0  0  0  0  0  0  0  0  0  0  0  0
   14.7416  -20.5741  -20.5289 C   0  0  0  0  0  0  0  0  0  0  0  0
   15.9969  -21.1959  -20.4328 C   0  0  0  0  0  0  0  0  0  0  0  0
   16.1080  -22.5435  -20.1442 C   0  0  0  0  0  0  0  0  0  0  0  0
   17.3407  -23.1555  -20.0494 C   0  0  0  0  0  0  0  0  0  0  0  0
   18.4948  -22.4240  -20.2432 C   0  0  0  0  0  0  0  0  0  0  0  0
   19.8323  -23.0284  -20.1467 C   0  0  1  0  0  0  0  0  0  0  0  0
   20.3618  -23.1437  -18.7410 N   0  0  0  0  0  0  0  0  0  0  0  0
   21.6336  -23.8462  -18.7698 C   0  0  0  0  0  0  0  0  0  0  0  0
   19.4394  -23.8974  -17.8690 O   0  0  0  0  0  0  0  0  0  0  0  0
   19.5757  -25.1387  -17.7378 C   0  0  0  0  0  0  0  0  0  0  0  0
   18.3684  -21.0849  -20.5296 C   0  0  0  0  0  0  0  0  0  0  0  0
   17.1375  -20.4595  -20.6274 O   0  0  0  0  0  0  0  0  0  0  0  0
  2  1  1  6
  2  4  1  0
  3  2  1  0
  4  5  1  1
  6  7  2  0
  6  4  1  0
  9  8  1  0
 10  9  2  0
 11  9  1  0
 12 11  1  0
 12 13  1  0
 13 14  1  0
 15 14  1  1
 15 16  1  0
 16  6  1  0
 17 26  1  0
 17 15  1  0
 18 17  2  0
 20 19  1  0
 21 20  2  0
 22 21  1  0
 23 29  1  0
 23 22  2  0
 25 24  1  6
 24 23  1  0
 25 26  1  0
 27 25  1  0
 28 27  2  0
 29 30  2  0
 30 20  1  0
 31 27  1  0
M  END
$$$$
