TRY.pdb
     RDKit          3D

 31 31  0  0  1  0  0  0  0  0999 V2000
   18.4241   -5.8387  -23.1168 C   0  0  0  0  0  0  0  0  0  0  0  0
   17.5553   -7.0560  -23.3516 C   0  0  1  0  0  0  0  0  0  0  0  0
   17.6872   -7.3700  -24.7183 O   0  0  0  0  0  0  0  0  0  0  0  0
   18.1380   -8.2020  -22.5383 C   0  0  2  0  0  0  0  0  0  0  0  0
   17.3145   -9.3558  -22.7985 N   0  0  0  0  0  0  0  0  0  0  0  0
   18.1694   -7.8757  -21.0928 C   0  0  0  0  0  0  0  0  0  0  0  0
   17.1034   -7.9802  -20.4394 O   0  0  0  0  0  0  0  0  0  0  0  0
   22.9489  -10.4145  -14.3997 N   0  0  0  0  0  0  0  0  0  0  0  0
   22.1343   -9.3804  -13.8823 C   0  0  0  0  0  0  0  0  0  0  0  0
   21.9703   -9.1393  -12.6386 N   0  0  0  0  0  0  0  0  0  0  0  0
   21.4269   -8.5215  -14.8005 N   0  0  0  0  0  0  0  0  0  0  0  0
   21.3864   -8.8527  -16.2066 C   0  0  0  0  0  0  0  0  0  0  0  0
   20.5702   -7.8312  -16.9290 C   0  0  0  0  0  0  0  0  0  0  0  0
   20.4014   -8.1069  -18.3846 C   0  0  0  0  0  0  0  0  0  0  0  0
   19.4856   -7.1435  -19.1023 C   0  0  2  0  0  0  0  0  0  0  0  0
   19.3979   -7.4626  -20.5199 N   0  0  0  0  0  0  0  0  0  0  0  0
   19.8810   -5.7338  -18.9444 C   0  0  0  0  0  0  0  0  0  0  0  0
   20.9820   -5.3584  -19.4126 O   0  0  0  0  0  0  0  0  0  0  0  0
   21.3274   -8.3380  -12.3966 O   0  0  0  0  0  0  0  0  0  0  0  0
   19.2423    3.0329  -17.5691 C   0  0  0  0  0  0  0  0  0  0  0  0
   18.9982    1.6632  -17.7587 C   0  0  0  0  0  0  0  0  0  0  0  0
   18.5416    0.8675  -16.7243 C   0  0  0  0  0  0  0  0  0  0  0  0
   18.3016   -0.4783  -16.9093 C   0  0  0  0  0  0  0  0  0  0  0  0
   18.5161   -1.0577  -18.1434 C   0  0  0  0  0  0  0  0  0  0  0  0
   18.2813   -2.4887  -18.3897 C   0  0  1  0  0  0  0  0  0  0  0  0
   19.4742   -3.3689  -18.1217 N   0  0  0  0  0  0  0  0  0  0  0  0
   19.0840   -4.7590  -18.2866 C   0  0  0  0  0  0  0  0  0  0  0  0
   19.9853   -3.1943  -16.7479 O   0  0  0  0  0  0  0  0  0  0  0  0
   19.4946   -3.8657  -15.8072 C   0  0  0  0  0  0  0  0  0  0  0  0
   18.9701   -0.2537  -19.1624 C   0  0  0  0  0  0  0  0  0  0  0  0
   19.2145    1.0976  -18.9894 O   0  0  0  0  0  0  0  0  0  0  0  0
  2  1  1  6
  2  4  1  0
  3  2  1  0
  4  5  1  1
  6  7  2  0
  6  4  1  0
  9  8  1  0
 10  9  2  0
 11  9  1  0
 12 11  1  0
 12 13  1  0
 13 14  1  0
 15 14  1  1
 15 16  1  0
 16  6  1  0
 17 26  1  0
 17 15  1  0
 18 17  2  0
 20 19  1  0
 21 20  2  0
 22 21  1  0
 23 29  1  0
 23 22  2  0
 25 24  1  6
 24 23  1  0
 25 26  1  0
 27 25  1  0
 28 27  2  0
 29 30  2  0
 30 20  1  0
 31 27  1  0
M  END
$$$$
