TRY.pdb
     RDKit          3D

 31 31  0  0  1  0  0  0  0  0999 V2000
   19.1371  -21.5667  -10.8275 C   0  0  0  0  0  0  0  0  0  0  0  0
   19.2461  -23.0062  -11.2832 C   0  0  1  0  0  0  0  0  0  0  0  0
   18.1953  -23.6959  -10.6475 O   0  0  0  0  0  0  0  0  0  0  0  0
   18.9992  -23.0346  -12.7840 C   0  0  2  0  0  0  0  0  0  0  0  0
   18.7859  -24.4140  -13.1431 N   0  0  0  0  0  0  0  0  0  0  0  0
   20.1406  -22.4527  -13.5292 C   0  0  0  0  0  0  0  0  0  0  0  0
   21.1098  -23.2002  -13.8052 O   0  0  0  0  0  0  0  0  0  0  0  0
   19.7150  -18.8850  -18.2521 N   0  0  0  0  0  0  0  0  0  0  0  0
   20.8239  -18.2708  -18.8796 C   0  0  0  0  0  0  0  0  0  0  0  0
   21.1214  -18.3991  -20.1153 N   0  0  0  0  0  0  0  0  0  0  0  0
   21.6980  -17.4349  -18.0933 N   0  0  0  0  0  0  0  0  0  0  0  0
   21.4220  -17.2280  -16.6899 C   0  0  0  0  0  0  0  0  0  0  0  0
   21.8745  -18.4243  -15.9182 C   0  0  0  0  0  0  0  0  0  0  0  0
   20.7631  -19.2142  -15.3147 C   0  0  0  0  0  0  0  0  0  0  0  0
   21.2074  -20.4462  -14.5620 C   0  0  2  0  0  0  0  0  0  0  0  0
   20.0830  -21.0843  -13.8929 N   0  0  0  0  0  0  0  0  0  0  0  0
   22.2704  -20.1785  -13.5788 C   0  0  0  0  0  0  0  0  0  0  0  0
   21.9642  -19.6411  -12.4881 O   0  0  0  0  0  0  0  0  0  0  0  0
   21.9945  -17.9040  -20.4418 O   0  0  0  0  0  0  0  0  0  0  0  0
   28.1965  -20.4956   -7.4252 C   0  0  0  0  0  0  0  0  0  0  0  0
   27.2435  -20.6318   -8.4474 C   0  0  0  0  0  0  0  0  0  0  0  0
   26.0043  -20.0255   -8.3562 C   0  0  0  0  0  0  0  0  0  0  0  0
   25.0671  -20.1587   -9.3597 C   0  0  0  0  0  0  0  0  0  0  0  0
   25.3551  -20.9077  -10.4825 C   0  0  0  0  0  0  0  0  0  0  0  0
   24.3881  -21.0852  -11.5765 C   0  0  2  0  0  0  0  0  0  0  0  0
   24.6853  -20.2683  -12.8068 N   0  0  0  0  0  0  0  0  0  0  0  0
   23.6393  -20.4945  -13.7900 C   0  0  0  0  0  0  0  0  0  0  0  0
   25.9770  -20.6442  -13.4143 O   0  0  0  0  0  0  0  0  0  0  0  0
   26.0185  -21.5404  -14.2928 C   0  0  0  0  0  0  0  0  0  0  0  0
   26.5917  -21.5045  -10.5590 C   0  0  0  0  0  0  0  0  0  0  0  0
   27.5403  -21.3783   -9.5591 O   0  0  0  0  0  0  0  0  0  0  0  0
  2  1  1  1
  2  4  1  0
  3  2  1  0
  4  5  1  6
  6  7  2  0
  6  4  1  0
  9  8  1  0
 10  9  2  0
 11  9  1  0
 12 11  1  0
 12 13  1  0
 13 14  1  0
 15 14  1  1
 15 16  1  0
 16  6  1  0
 17 26  1  0
 17 15  1  0
 18 17  2  0
 20 19  1  0
 21 20  2  0
 22 21  1  0
 23 29  1  0
 23 22  2  0
 25 24  1  1
 24 23  1  0
 25 26  1  0
 27 25  1  0
 28 27  2  0
 29 30  2  0
 30 20  1  0
 31 27  1  0
M  END
$$$$
