TRY.pdb
     RDKit          3D

 31 31  0  0  1  0  0  0  0  0999 V2000
   18.5480   -9.6770  -15.5906 C   0  0  0  0  0  0  0  0  0  0  0  0
   19.6489  -10.7115  -15.6873 C   0  0  1  0  0  0  0  0  0  0  0  0
   19.0543  -11.9443  -15.3547 O   0  0  0  0  0  0  0  0  0  0  0  0
   20.0981  -10.7725  -17.1394 C   0  0  2  0  0  0  0  0  0  0  0  0
   21.0361  -11.8623  -17.2379 N   0  0  0  0  0  0  0  0  0  0  0  0
   20.7101   -9.4926  -17.5685 C   0  0  0  0  0  0  0  0  0  0  0  0
   21.9146   -9.2876  -17.2829 O   0  0  0  0  0  0  0  0  0  0  0  0
   18.5206   -3.5270  -23.8724 N   0  0  0  0  0  0  0  0  0  0  0  0
   19.6130   -2.9711  -23.1664 C   0  0  0  0  0  0  0  0  0  0  0  0
   20.1759   -1.8618  -23.4569 N   0  0  0  0  0  0  0  0  0  0  0  0
   20.1501   -3.6852  -22.0338 N   0  0  0  0  0  0  0  0  0  0  0  0
   19.5295   -4.9169  -21.6021 C   0  0  0  0  0  0  0  0  0  0  0  0
   20.2652   -5.4486  -20.4157 C   0  0  0  0  0  0  0  0  0  0  0  0
   19.7524   -6.7578  -19.9193 C   0  0  0  0  0  0  0  0  0  0  0  0
   20.4471   -7.2736  -18.6812 C   0  0  2  0  0  0  0  0  0  0  0  0
   19.9083   -8.5645  -18.2784 N   0  0  0  0  0  0  0  0  0  0  0  0
   20.3806   -6.3419  -17.5428 C   0  0  0  0  0  0  0  0  0  0  0  0
   19.2891   -6.1971  -16.9428 O   0  0  0  0  0  0  0  0  0  0  0  0
   20.9825   -1.5696  -22.8421 O   0  0  0  0  0  0  0  0  0  0  0  0
   20.9466   -9.7469  -11.9565 C   0  0  0  0  0  0  0  0  0  0  0  0
   21.3106   -8.5998  -12.6800 C   0  0  0  0  0  0  0  0  0  0  0  0
   20.6614   -7.3947  -12.4853 C   0  0  0  0  0  0  0  0  0  0  0  0
   21.0179   -6.2670  -13.1955 C   0  0  0  0  0  0  0  0  0  0  0  0
   22.0394   -6.3251  -14.1217 C   0  0  0  0  0  0  0  0  0  0  0  0
   22.4526   -5.1530  -14.9084 C   0  0  2  0  0  0  0  0  0  0  0  0
   21.4383   -4.6986  -15.9254 N   0  0  0  0  0  0  0  0  0  0  0  0
   21.4889   -5.5865  -17.0747 C   0  0  0  0  0  0  0  0  0  0  0  0
   21.7098   -3.3250  -16.3928 O   0  0  0  0  0  0  0  0  0  0  0  0
   21.7278   -2.3760  -15.5708 C   0  0  0  0  0  0  0  0  0  0  0  0
   22.6757   -7.5304  -14.3043 C   0  0  0  0  0  0  0  0  0  0  0  0
   22.3273   -8.6686  -13.5980 O   0  0  0  0  0  0  0  0  0  0  0  0
  2  1  1  6
  2  4  1  0
  3  2  1  0
  4  5  1  1
  6  7  2  0
  6  4  1  0
  9  8  1  0
 10  9  2  0
 11  9  1  0
 12 11  1  0
 12 13  1  0
 13 14  1  0
 15 14  1  6
 15 16  1  0
 16  6  1  0
 17 26  1  0
 17 15  1  0
 18 17  2  0
 20 19  1  0
 21 20  2  0
 22 21  1  0
 23 29  1  0
 23 22  2  0
 25 24  1  1
 24 23  1  0
 25 26  1  0
 27 25  1  0
 28 27  2  0
 29 30  2  0
 30 20  1  0
 31 27  1  0
M  END
$$$$
