TRY.pdb
     RDKit          3D

 31 31  0  0  1  0  0  0  0  0999 V2000
   21.6078   -5.8561  -21.9919 C   0  0  0  0  0  0  0  0  0  0  0  0
   21.3034   -5.7224  -20.5150 C   0  0  1  0  0  0  0  0  0  0  0  0
   20.3017   -4.7375  -20.4121 O   0  0  0  0  0  0  0  0  0  0  0  0
   20.7236   -7.0469  -20.0420 C   0  0  2  0  0  0  0  0  0  0  0  0
   19.6632   -7.3858  -20.9574 N   0  0  0  0  0  0  0  0  0  0  0  0
   20.2250   -6.9505  -18.6496 C   0  0  0  0  0  0  0  0  0  0  0  0
   18.9929   -7.0822  -18.4518 O   0  0  0  0  0  0  0  0  0  0  0  0
   20.7897  -10.6561  -14.1593 N   0  0  0  0  0  0  0  0  0  0  0  0
   22.1534  -10.3591  -14.3893 C   0  0  0  0  0  0  0  0  0  0  0  0
   22.9410  -11.0703  -15.1006 N   0  0  0  0  0  0  0  0  0  0  0  0
   22.7221   -9.1760  -13.7912 N   0  0  0  0  0  0  0  0  0  0  0  0
   21.8928   -8.3104  -12.9840 C   0  0  0  0  0  0  0  0  0  0  0  0
   21.1224   -7.3942  -13.8777 C   0  0  0  0  0  0  0  0  0  0  0  0
   21.5041   -7.4858  -15.3162 C   0  0  0  0  0  0  0  0  0  0  0  0
   20.7186   -6.5764  -16.2315 C   0  0  2  0  0  0  0  0  0  0  0  0
   21.1605   -6.7148  -17.6116 N   0  0  0  0  0  0  0  0  0  0  0  0
   20.7813   -5.1581  -15.8405 C   0  0  0  0  0  0  0  0  0  0  0  0
   20.3344   -4.8195  -14.7189 O   0  0  0  0  0  0  0  0  0  0  0  0
   23.9371  -10.7307  -15.1801 O   0  0  0  0  0  0  0  0  0  0  0  0
   22.6940    3.5430  -16.0191 C   0  0  0  0  0  0  0  0  0  0  0  0
   22.6354    2.1617  -16.2643 C   0  0  0  0  0  0  0  0  0  0  0  0
   22.0635    1.6634  -17.4203 C   0  0  0  0  0  0  0  0  0  0  0  0
   22.0052    0.3065  -17.6623 C   0  0  0  0  0  0  0  0  0  0  0  0
   22.5224   -0.5844  -16.7440 C   0  0  0  0  0  0  0  0  0  0  0  0
   22.4790   -2.0398  -16.9525 C   0  0  1  0  0  0  0  0  0  0  0  0
   21.2882   -2.7211  -16.3302 N   0  0  0  0  0  0  0  0  0  0  0  0
   21.3233   -4.1351  -16.6639 C   0  0  0  0  0  0  0  0  0  0  0  0
   20.0160   -2.1622  -16.8282 O   0  0  0  0  0  0  0  0  0  0  0  0
   19.3549   -2.7855  -17.6949 C   0  0  0  0  0  0  0  0  0  0  0  0
   23.0881   -0.0740  -15.5992 C   0  0  0  0  0  0  0  0  0  0  0  0
   23.1527    1.2850  -15.3450 O   0  0  0  0  0  0  0  0  0  0  0  0
  2  1  1  6
  2  4  1  0
  3  2  1  0
  4  5  1  6
  6  7  2  0
  6  4  1  0
  9  8  1  0
 10  9  2  0
 11  9  1  0
 12 11  1  0
 12 13  1  0
 13 14  1  0
 15 14  1  1
 15 16  1  0
 16  6  1  0
 17 26  1  0
 17 15  1  0
 18 17  2  0
 20 19  1  0
 21 20  2  0
 22 21  1  0
 23 29  1  0
 23 22  2  0
 25 24  1  1
 24 23  1  0
 25 26  1  0
 27 25  1  0
 28 27  2  0
 29 30  2  0
 30 20  1  0
 31 27  1  0
M  END
$$$$
