TRY.pdb
     RDKit          3D

 31 31  0  0  1  0  0  0  0  0999 V2000
   25.5149  -15.6152  -14.6837 C   0  0  0  0  0  0  0  0  0  0  0  0
   25.7369  -15.9298  -16.1478 C   0  0  1  0  0  0  0  0  0  0  0  0
   26.5180  -14.8747  -16.6581 O   0  0  0  0  0  0  0  0  0  0  0  0
   26.5530  -17.2113  -16.2254 C   0  0  2  0  0  0  0  0  0  0  0  0
   26.9784  -17.3496  -17.5955 N   0  0  0  0  0  0  0  0  0  0  0  0
   25.7596  -18.3832  -15.7852 C   0  0  0  0  0  0  0  0  0  0  0  0
   25.1131  -19.0195  -16.6521 O   0  0  0  0  0  0  0  0  0  0  0  0
   28.2555  -21.6356   -9.8431 N   0  0  0  0  0  0  0  0  0  0  0  0
   27.0949  -21.0429   -9.2931 C   0  0  0  0  0  0  0  0  0  0  0  0
   27.0855  -20.2808   -8.2678 N   0  0  0  0  0  0  0  0  0  0  0  0
   25.8177  -21.2992   -9.9130 N   0  0  0  0  0  0  0  0  0  0  0  0
   25.7162  -22.2826  -10.9672 C   0  0  0  0  0  0  0  0  0  0  0  0
   25.0188  -21.6753  -12.1404 C   0  0  0  0  0  0  0  0  0  0  0  0
   25.7137  -20.4861  -12.7116 C   0  0  0  0  0  0  0  0  0  0  0  0
   25.0484  -19.8997  -13.9344 C   0  0  2  0  0  0  0  0  0  0  0  0
   25.7690  -18.7279  -14.4107 N   0  0  0  0  0  0  0  0  0  0  0  0
   23.6351  -19.5472  -13.7182 C   0  0  0  0  0  0  0  0  0  0  0  0
   23.3541  -18.6666  -12.8709 O   0  0  0  0  0  0  0  0  0  0  0  0
   26.1513  -19.8726   -7.9950 O   0  0  0  0  0  0  0  0  0  0  0  0
   21.6855  -13.9454  -16.8194 C   0  0  0  0  0  0  0  0  0  0  0  0
   21.4202  -15.2881  -16.5055 C   0  0  0  0  0  0  0  0  0  0  0  0
   22.1226  -16.3161  -17.1068 C   0  0  0  0  0  0  0  0  0  0  0  0
   21.8628  -17.6356  -16.7994 C   0  0  0  0  0  0  0  0  0  0  0  0
   20.8870  -17.9534  -15.8766 C   0  0  0  0  0  0  0  0  0  0  0  0
   20.5682  -19.3442  -15.5194 C   0  0  2  0  0  0  0  0  0  0  0  0
   21.1596  -19.8005  -14.2111 N   0  0  0  0  0  0  0  0  0  0  0  0
   22.5551  -20.1492  -14.4179 C   0  0  0  0  0  0  0  0  0  0  0  0
   20.4623  -20.9883  -13.6803 O   0  0  0  0  0  0  0  0  0  0  0  0
   20.9753  -22.1267  -13.8125 C   0  0  0  0  0  0  0  0  0  0  0  0
   20.1970  -16.9203  -15.2868 C   0  0  0  0  0  0  0  0  0  0  0  0
   20.4484  -15.5928  -15.5868 O   0  0  0  0  0  0  0  0  0  0  0  0
  2  1  1  1
  2  4  1  0
  3  2  1  0
  4  5  1  6
  6  7  2  0
  6  4  1  0
  9  8  1  0
 10  9  2  0
 11  9  1  0
 12 11  1  0
 12 13  1  0
 13 14  1  0
 15 14  1  1
 15 16  1  0
 16  6  1  0
 17 26  1  0
 17 15  1  0
 18 17  2  0
 20 19  1  0
 21 20  2  0
 22 21  1  0
 23 29  1  0
 23 22  2  0
 25 24  1  1
 24 23  1  0
 25 26  1  0
 27 25  1  0
 28 27  2  0
 29 30  2  0
 30 20  1  0
 31 27  1  0
M  END
$$$$
