TRY.pdb
     RDKit          3D

 31 31  0  0  1  0  0  0  0  0999 V2000
   23.0890   -9.3777    7.7201 C   0  0  0  0  0  0  0  0  0  0  0  0
   22.1507  -10.5559    7.5678 C   0  0  1  0  0  0  0  0  0  0  0  0
   22.4984  -11.4641    8.5868 O   0  0  0  0  0  0  0  0  0  0  0  0
   20.7379  -10.0573    7.8319 C   0  0  2  0  0  0  0  0  0  0  0  0
   20.7381   -9.4943    9.1586 N   0  0  0  0  0  0  0  0  0  0  0  0
   19.7479  -11.1536    7.7104 C   0  0  0  0  0  0  0  0  0  0  0  0
   19.4692  -11.8158    8.7391 O   0  0  0  0  0  0  0  0  0  0  0  0
   13.2337  -11.0210    3.1653 N   0  0  0  0  0  0  0  0  0  0  0  0
   12.9395  -12.3041    3.6828 C   0  0  0  0  0  0  0  0  0  0  0  0
   11.7631  -12.7307    3.9398 N   0  0  0  0  0  0  0  0  0  0  0  0
   14.0246  -13.2167    3.9487 N   0  0  0  0  0  0  0  0  0  0  0  0
   15.3892  -12.7903    3.7370 C   0  0  0  0  0  0  0  0  0  0  0  0
   16.1428  -12.8974    5.0223 C   0  0  0  0  0  0  0  0  0  0  0  0
   17.5674  -12.4673    4.9291 C   0  0  0  0  0  0  0  0  0  0  0  0
   18.3415  -12.5802    6.2213 C   0  0  2  0  0  0  0  0  0  0  0  0
   19.1653  -11.4007    6.4425 N   0  0  0  0  0  0  0  0  0  0  0  0
   19.1863  -13.7842    6.2930 C   0  0  0  0  0  0  0  0  0  0  0  0
   20.3199  -13.7605    5.7576 O   0  0  0  0  0  0  0  0  0  0  0  0
   11.6937  -13.7075    4.3335 O   0  0  0  0  0  0  0  0  0  0  0  0
   24.6120  -18.7649   10.5699 C   0  0  0  0  0  0  0  0  0  0  0  0
   23.6309  -17.9104   10.0417 C   0  0  0  0  0  0  0  0  0  0  0  0
   22.3819  -17.8072   10.6256 C   0  0  0  0  0  0  0  0  0  0  0  0
   21.4171  -16.9682   10.1076 C   0  0  0  0  0  0  0  0  0  0  0  0
   21.6866  -16.2107    8.9859 C   0  0  0  0  0  0  0  0  0  0  0  0
   20.6902  -15.3066    8.3918 C   0  0  1  0  0  0  0  0  0  0  0  0
   19.7280  -15.9777    7.4466 N   0  0  0  0  0  0  0  0  0  0  0  0
   18.7937  -14.9871    6.9389 C   0  0  0  0  0  0  0  0  0  0  0  0
   18.9531  -17.0398    8.1175 O   0  0  0  0  0  0  0  0  0  0  0  0
   19.5287  -18.0880    8.5006 C   0  0  0  0  0  0  0  0  0  0  0  0
   22.9332  -16.3239    8.4163 C   0  0  0  0  0  0  0  0  0  0  0  0
   23.9094  -17.1619    8.9266 O   0  0  0  0  0  0  0  0  0  0  0  0
  2  1  1  1
  2  4  1  0
  3  2  1  0
  4  5  1  1
  6  7  2  0
  6  4  1  0
  9  8  1  0
 10  9  2  0
 11  9  1  0
 12 11  1  0
 12 13  1  0
 13 14  1  0
 15 14  1  6
 15 16  1  0
 16  6  1  0
 17 26  1  0
 17 15  1  0
 18 17  2  0
 20 19  1  0
 21 20  2  0
 22 21  1  0
 23 29  1  0
 23 22  2  0
 25 24  1  6
 24 23  1  0
 25 26  1  0
 27 25  1  0
 28 27  2  0
 29 30  2  0
 30 20  1  0
 31 27  1  0
M  END
$$$$
