TRY.pdb
     RDKit          3D

 31 31  0  0  1  0  0  0  0  0999 V2000
   27.3516  -16.6896  -15.5913 C   0  0  0  0  0  0  0  0  0  0  0  0
   25.8872  -17.0675  -15.6583 C   0  0  1  0  0  0  0  0  0  0  0  0
   25.3998  -16.5228  -16.8623 O   0  0  0  0  0  0  0  0  0  0  0  0
   25.8061  -18.5838  -15.7508 C   0  0  2  0  0  0  0  0  0  0  0  0
   26.5422  -18.9672  -16.9291 N   0  0  0  0  0  0  0  0  0  0  0  0
   24.3993  -19.0452  -15.8187 C   0  0  0  0  0  0  0  0  0  0  0  0
   23.9223  -19.3258  -16.9449 O   0  0  0  0  0  0  0  0  0  0  0  0
   18.3735  -23.0708  -13.0138 N   0  0  0  0  0  0  0  0  0  0  0  0
   19.5589  -23.4799  -12.3593 C   0  0  0  0  0  0  0  0  0  0  0  0
   19.9600  -24.6897  -12.2738 N   0  0  0  0  0  0  0  0  0  0  0  0
   20.3935  -22.4822  -11.7356 N   0  0  0  0  0  0  0  0  0  0  0  0
   20.0447  -21.0840  -11.8457 C   0  0  0  0  0  0  0  0  0  0  0  0
   20.4479  -20.5813  -13.1933 C   0  0  0  0  0  0  0  0  0  0  0  0
   21.8630  -20.1179  -13.2707 C   0  0  0  0  0  0  0  0  0  0  0  0
   22.2763  -19.5914  -14.6248 C   0  0  2  0  0  0  0  0  0  0  0  0
   23.6625  -19.1471  -14.6125 N   0  0  0  0  0  0  0  0  0  0  0  0
   21.4193  -18.4979  -15.1130 C   0  0  0  0  0  0  0  0  0  0  0  0
   21.5200  -17.3669  -14.5812 O   0  0  0  0  0  0  0  0  0  0  0  0
   20.8679  -24.8479  -11.7594 O   0  0  0  0  0  0  0  0  0  0  0  0
   16.0472  -13.9892  -20.6364 C   0  0  0  0  0  0  0  0  0  0  0  0
   16.9000  -14.9242  -20.0280 C   0  0  0  0  0  0  0  0  0  0  0  0
   18.2743  -14.8118  -20.1292 C   0  0  0  0  0  0  0  0  0  0  0  0
   19.1132  -15.7298  -19.5320 C   0  0  0  0  0  0  0  0  0  0  0  0
   18.5877  -16.7863  -18.8164 C   0  0  0  0  0  0  0  0  0  0  0  0
   19.4391  -17.7946  -18.1668 C   0  0  1  0  0  0  0  0  0  0  0  0
   19.6814  -17.5509  -16.7000 N   0  0  0  0  0  0  0  0  0  0  0  0
   20.4728  -18.6447  -16.1623 C   0  0  0  0  0  0  0  0  0  0  0  0
   18.4174  -17.4809  -15.9409 O   0  0  0  0  0  0  0  0  0  0  0  0
   17.8886  -18.5338  -15.5067 C   0  0  0  0  0  0  0  0  0  0  0  0
   17.2191  -16.8849  -18.7244 C   0  0  0  0  0  0  0  0  0  0  0  0
   16.3672  -15.9704  -19.3189 O   0  0  0  0  0  0  0  0  0  0  0  0
  2  1  1  6
  2  4  1  0
  3  2  1  0
  4  5  1  6
  6  7  2  0
  6  4  1  0
  9  8  1  0
 10  9  2  0
 11  9  1  0
 12 11  1  0
 12 13  1  0
 13 14  1  0
 15 14  1  1
 15 16  1  0
 16  6  1  0
 17 26  1  0
 17 15  1  0
 18 17  2  0
 20 19  1  0
 21 20  2  0
 22 21  1  0
 23 29  1  0
 23 22  2  0
 25 24  1  6
 24 23  1  0
 25 26  1  0
 27 25  1  0
 28 27  2  0
 29 30  2  0
 30 20  1  0
 31 27  1  0
M  END
$$$$
