TRY.pdb
     RDKit          3D

 31 31  0  0  1  0  0  0  0  0999 V2000
   28.0269  -18.7493  -17.0150 C   0  0  0  0  0  0  0  0  0  0  0  0
   26.8335  -19.2488  -16.2290 C   0  0  1  0  0  0  0  0  0  0  0  0
   25.7965  -19.4241  -17.1660 O   0  0  0  0  0  0  0  0  0  0  0  0
   27.1963  -20.6103  -15.6554 C   0  0  2  0  0  0  0  0  0  0  0  0
   27.3681  -21.5000  -16.7763 N   0  0  0  0  0  0  0  0  0  0  0  0
   26.1477  -21.1026  -14.7308 C   0  0  0  0  0  0  0  0  0  0  0  0
   25.2868  -21.8965  -15.1813 O   0  0  0  0  0  0  0  0  0  0  0  0
   21.9005  -20.1637   -8.7518 N   0  0  0  0  0  0  0  0  0  0  0  0
   22.4494  -21.0156   -7.7649 C   0  0  0  0  0  0  0  0  0  0  0  0
   21.7668  -21.6393   -6.8835 N   0  0  0  0  0  0  0  0  0  0  0  0
   23.8780  -21.2128   -7.7272 N   0  0  0  0  0  0  0  0  0  0  0  0
   24.7255  -20.5009   -8.6564 C   0  0  0  0  0  0  0  0  0  0  0  0
   24.3773  -20.9082  -10.0508 C   0  0  0  0  0  0  0  0  0  0  0  0
   25.4577  -20.6529  -11.0462 C   0  0  0  0  0  0  0  0  0  0  0  0
   25.0986  -21.0175  -12.4674 C   0  0  2  0  0  0  0  0  0  0  0  0
   26.1674  -20.6544  -13.3866 N   0  0  0  0  0  0  0  0  0  0  0  0
   23.8367  -20.4119  -12.9249 C   0  0  0  0  0  0  0  0  0  0  0  0
   23.7513  -19.1623  -12.9821 O   0  0  0  0  0  0  0  0  0  0  0  0
   22.3017  -22.2958   -6.2536 O   0  0  0  0  0  0  0  0  0  0  0  0
   23.8011  -17.6288  -18.7596 C   0  0  0  0  0  0  0  0  0  0  0  0
   23.1011  -18.4119  -17.8276 C   0  0  0  0  0  0  0  0  0  0  0  0
   22.0682  -17.8801  -17.0780 C   0  0  0  0  0  0  0  0  0  0  0  0
   21.3798  -18.6483  -16.1620 C   0  0  0  0  0  0  0  0  0  0  0  0
   21.7154  -19.9742  -15.9775 C   0  0  0  0  0  0  0  0  0  0  0  0
   21.0165  -20.8330  -15.0093 C   0  0  2  0  0  0  0  0  0  0  0  0
   21.3895  -20.5795  -13.5718 N   0  0  0  0  0  0  0  0  0  0  0  0
   22.6945  -21.1633  -13.3109 C   0  0  0  0  0  0  0  0  0  0  0  0
   20.4191  -21.1864  -12.6397 O   0  0  0  0  0  0  0  0  0  0  0  0
   19.2339  -20.7728  -12.6127 C   0  0  0  0  0  0  0  0  0  0  0  0
   22.7447  -20.4890  -16.7303 C   0  0  0  0  0  0  0  0  0  0  0  0
   23.4427  -19.7286  -17.6524 O   0  0  0  0  0  0  0  0  0  0  0  0
  2  1  1  6
  2  4  1  0
  3  2  1  0
  4  5  1  6
  6  7  2  0
  6  4  1  0
  9  8  1  0
 10  9  2  0
 11  9  1  0
 12 11  1  0
 12 13  1  0
 13 14  1  0
 15 14  1  1
 15 16  1  0
 16  6  1  0
 17 26  1  0
 17 15  1  0
 18 17  2  0
 20 19  1  0
 21 20  2  0
 22 21  1  0
 23 29  1  0
 23 22  2  0
 25 24  1  6
 24 23  1  0
 25 26  1  0
 27 25  1  0
 28 27  2  0
 29 30  2  0
 30 20  1  0
 31 27  1  0
M  END
$$$$
