TRY.pdb
     RDKit          3D

 31 31  0  0  1  0  0  0  0  0999 V2000
   29.1052  -19.1113  -14.9461 C   0  0  0  0  0  0  0  0  0  0  0  0
   28.4791  -17.9588  -15.7021 C   0  0  1  0  0  0  0  0  0  0  0  0
   29.4360  -17.5514  -16.6520 O   0  0  0  0  0  0  0  0  0  0  0  0
   27.2665  -18.4993  -16.4449 C   0  0  2  0  0  0  0  0  0  0  0  0
   26.7584  -17.4182  -17.2513 N   0  0  0  0  0  0  0  0  0  0  0  0
   26.2374  -19.0012  -15.5037 C   0  0  0  0  0  0  0  0  0  0  0  0
   25.5803  -18.1613  -14.8426 O   0  0  0  0  0  0  0  0  0  0  0  0
   23.3398  -26.0068  -16.8005 N   0  0  0  0  0  0  0  0  0  0  0  0
   23.5011  -26.2531  -15.4169 C   0  0  0  0  0  0  0  0  0  0  0  0
   23.9197  -27.3527  -14.9195 N   0  0  0  0  0  0  0  0  0  0  0  0
   23.1778  -25.2067  -14.4779 N   0  0  0  0  0  0  0  0  0  0  0  0
   22.6314  -23.9571  -14.9560 C   0  0  0  0  0  0  0  0  0  0  0  0
   23.3427  -22.8235  -14.2923 C   0  0  0  0  0  0  0  0  0  0  0  0
   24.3362  -22.1350  -15.1654 C   0  0  0  0  0  0  0  0  0  0  0  0
   25.0111  -20.9437  -14.5272 C   0  0  2  0  0  0  0  0  0  0  0  0
   26.0455  -20.4011  -15.3958 N   0  0  0  0  0  0  0  0  0  0  0  0
   25.5905  -21.2388  -13.2060 C   0  0  0  0  0  0  0  0  0  0  0  0
   26.7703  -21.6590  -13.1432 O   0  0  0  0  0  0  0  0  0  0  0  0
   24.0067  -27.3893  -13.8683 O   0  0  0  0  0  0  0  0  0  0  0  0
   29.1174  -19.6074   -5.5577 C   0  0  0  0  0  0  0  0  0  0  0  0
   28.5211  -19.7645   -6.8192 C   0  0  0  0  0  0  0  0  0  0  0  0
   28.8819  -20.8034   -7.6572 C   0  0  0  0  0  0  0  0  0  0  0  0
   28.2969  -20.9588   -8.8969 C   0  0  0  0  0  0  0  0  0  0  0  0
   27.3320  -20.0696   -9.3246 C   0  0  0  0  0  0  0  0  0  0  0  0
   26.6833  -20.1883  -10.6393 C   0  0  1  0  0  0  0  0  0  0  0  0
   25.5159  -21.1401  -10.6723 N   0  0  0  0  0  0  0  0  0  0  0  0
   24.8888  -21.0757  -11.9816 C   0  0  0  0  0  0  0  0  0  0  0  0
   24.5003  -20.7954   -9.6581 O   0  0  0  0  0  0  0  0  0  0  0  0
   23.5567  -20.0219   -9.9546 C   0  0  0  0  0  0  0  0  0  0  0  0
   26.9835  -19.0416   -8.4802 C   0  0  0  0  0  0  0  0  0  0  0  0
   27.5630  -18.8752   -7.2344 O   0  0  0  0  0  0  0  0  0  0  0  0
  2  1  1  1
  2  4  1  0
  3  2  1  0
  4  5  1  1
  6  7  2  0
  6  4  1  0
  9  8  1  0
 10  9  2  0
 11  9  1  0
 12 11  1  0
 12 13  1  0
 13 14  1  0
 15 14  1  6
 15 16  1  0
 16  6  1  0
 17 26  1  0
 17 15  1  0
 18 17  2  0
 20 19  1  0
 21 20  2  0
 22 21  1  0
 23 29  1  0
 23 22  2  0
 25 24  1  6
 24 23  1  0
 25 26  1  0
 27 25  1  0
 28 27  2  0
 29 30  2  0
 30 20  1  0
 31 27  1  0
M  END
$$$$
