TRY.pdb
     RDKit          3D

 31 31  0  0  1  0  0  0  0  0999 V2000
   21.9261   -2.4385  -17.4914 C   0  0  0  0  0  0  0  0  0  0  0  0
   20.8435   -2.1328  -18.5045 C   0  0  1  0  0  0  0  0  0  0  0  0
   21.2517   -0.9590  -19.1674 O   0  0  0  0  0  0  0  0  0  0  0  0
   20.8221   -3.2706  -19.5140 C   0  0  2  0  0  0  0  0  0  0  0  0
   19.8331   -2.9274  -20.5047 N   0  0  0  0  0  0  0  0  0  0  0  0
   20.5074   -4.5639  -18.8619 C   0  0  0  0  0  0  0  0  0  0  0  0
   19.3371   -4.7490  -18.4489 O   0  0  0  0  0  0  0  0  0  0  0  0
   24.5008  -11.4214  -16.5386 N   0  0  0  0  0  0  0  0  0  0  0  0
   23.2325  -12.0400  -16.6362 C   0  0  0  0  0  0  0  0  0  0  0  0
   22.9363  -13.1727  -16.1252 N   0  0  0  0  0  0  0  0  0  0  0  0
   22.1799  -11.3673  -17.3578 N   0  0  0  0  0  0  0  0  0  0  0  0
   22.4971  -10.2388  -18.2032 C   0  0  0  0  0  0  0  0  0  0  0  0
   22.3730   -8.9796  -17.4092 C   0  0  0  0  0  0  0  0  0  0  0  0
   22.4575   -7.7352  -18.2264 C   0  0  0  0  0  0  0  0  0  0  0  0
   21.3071   -6.7765  -18.0281 C   0  0  2  0  0  0  0  0  0  0  0  0
   21.5399   -5.5264  -18.7365 N   0  0  0  0  0  0  0  0  0  0  0  0
   21.0245   -6.4881  -16.6120 C   0  0  0  0  0  0  0  0  0  0  0  0
   21.8792   -5.8640  -15.9395 O   0  0  0  0  0  0  0  0  0  0  0  0
   21.9604  -13.5300  -16.3097 O   0  0  0  0  0  0  0  0  0  0  0  0
   16.6809   -6.4833   -8.7963 C   0  0  0  0  0  0  0  0  0  0  0  0
   17.0326   -6.5936  -10.1512 C   0  0  0  0  0  0  0  0  0  0  0  0
   16.6465   -5.6365  -11.0713 C   0  0  0  0  0  0  0  0  0  0  0  0
   16.9913   -5.7438  -12.4027 C   0  0  0  0  0  0  0  0  0  0  0  0
   17.7352   -6.8202  -12.8417 C   0  0  0  0  0  0  0  0  0  0  0  0
   18.1227   -6.9834  -14.2512 C   0  0  1  0  0  0  0  0  0  0  0  0
   19.5466   -6.5947  -14.5529 N   0  0  0  0  0  0  0  0  0  0  0  0
   19.8291   -6.8769  -15.9501 C   0  0  0  0  0  0  0  0  0  0  0  0
   20.5072   -7.3523  -13.7270 O   0  0  0  0  0  0  0  0  0  0  0  0
   21.0881   -6.7891  -12.7668 C   0  0  0  0  0  0  0  0  0  0  0  0
   18.1120   -7.7638  -11.9151 C   0  0  0  0  0  0  0  0  0  0  0  0
   17.7723   -7.6674  -10.5768 O   0  0  0  0  0  0  0  0  0  0  0  0
  2  1  1  1
  2  4  1  0
  3  2  1  0
  4  5  1  6
  6  7  2  0
  6  4  1  0
  9  8  1  0
 10  9  2  0
 11  9  1  0
 12 11  1  0
 12 13  1  0
 13 14  1  0
 15 14  1  1
 15 16  1  0
 16  6  1  0
 17 26  1  0
 17 15  1  0
 18 17  2  0
 20 19  1  0
 21 20  2  0
 22 21  1  0
 23 29  1  0
 23 22  2  0
 25 24  1  6
 24 23  1  0
 25 26  1  0
 27 25  1  0
 28 27  2  0
 29 30  2  0
 30 20  1  0
 31 27  1  0
M  END
$$$$
