MPS.pdb
     RDKit          3D

 22 22  0  0  1  0  0  0  0  0999 V2000
   10.0955  -13.1720   28.1342 C   0  0  0  0  0  0  0  0  0  0  0  0
   10.0719  -14.8273   28.8888 S   0  0  0  0  0  0  0  0  0  0  0  0
    9.4441  -16.0316   27.6648 C   0  0  0  0  0  0  0  0  0  0  0  0
    8.0278  -15.6447   27.3660 C   0  0  0  0  0  0  0  0  0  0  0  0
    7.2398  -16.7111   26.6430 C   0  0  2  0  0  0  0  0  0  0  0  0
    7.4061  -17.9718   27.2779 N   0  0  0  0  0  0  0  0  0  0  0  0
    7.6178  -16.7092   25.2165 C   0  0  0  0  0  0  0  0  0  0  0  0
    7.8416  -17.8717   24.7270 O   0  0  0  0  0  0  0  0  0  0  0  0
    7.7507  -15.5916   24.3780 N   0  0  0  0  0  0  0  0  0  0  0  0
    7.5067  -14.2087   24.7029 C   0  0  0  0  0  0  0  0  0  0  0  0
    7.0961  -13.6421   23.3289 C   0  0  0  0  0  0  0  0  0  0  0  0
    8.1974  -14.2308   22.4840 C   0  0  0  0  0  0  0  0  0  0  0  0
    8.1592  -15.6824   22.9795 C   0  0  1  0  0  0  0  0  0  0  0  0
    9.5077  -16.2562   22.8176 C   0  0  0  0  0  0  0  0  0  0  0  0
   10.3701  -15.9250   23.6704 O   0  0  0  0  0  0  0  0  0  0  0  0
   10.2099  -19.0838   20.2272 O   0  0  0  0  0  0  0  0  0  0  0  0
   11.2938  -19.0571   21.1207 C   0  0  0  0  0  0  0  0  0  0  0  0
   11.2840  -17.6820   21.7499 C   0  0  2  0  0  0  0  0  0  0  0  0
    9.9150  -17.1440   21.7915 N   0  0  0  0  0  0  0  0  0  0  0  0
   12.0922  -16.7887   20.8933 C   0  0  0  0  0  0  0  0  0  0  0  0
   11.5758  -15.8310   20.2607 O   0  0  0  0  0  0  0  0  0  0  0  0
   13.4615  -16.9590   20.7417 O   0  0  0  0  0  0  0  0  0  0  0  0
  2  1  1  0
  3  2  1  0
  4  3  1  0
  4  5  1  0
  5  6  1  1
  7  9  1  0
  7  5  1  0
  8  7  2  0
  9 13  1  0
 10  9  1  0
 10 11  1  0
 11 12  1  0
 13 12  1  0
 13 14  1  1
 14 19  1  0
 14 15  2  0
 17 16  1  0
 18 17  1  6
 18 20  1  0
 19 18  1  0
 20 22  1  0
 21 20  2  0
M  END
$$$$
