MPS.pdb
     RDKit          3D

 22 22  0  0  1  0  0  0  0  0999 V2000
    6.1100  -11.8077   27.6201 C   0  0  0  0  0  0  0  0  0  0  0  0
    6.5693  -12.1410   25.8916 S   0  0  0  0  0  0  0  0  0  0  0  0
    7.6818  -13.5909   25.8392 C   0  0  0  0  0  0  0  0  0  0  0  0
    6.8918  -14.7594   26.3444 C   0  0  0  0  0  0  0  0  0  0  0  0
    6.3088  -15.6243   25.2521 C   0  0  2  0  0  0  0  0  0  0  0  0
    5.6416  -16.7492   25.8082 N   0  0  0  0  0  0  0  0  0  0  0  0
    7.3742  -15.9784   24.2942 C   0  0  0  0  0  0  0  0  0  0  0  0
    8.0491  -17.0190   24.6145 O   0  0  0  0  0  0  0  0  0  0  0  0
    7.7043  -15.3037   23.1086 N   0  0  0  0  0  0  0  0  0  0  0  0
    7.2362  -14.0145   22.6654 C   0  0  0  0  0  0  0  0  0  0  0  0
    7.3077  -14.1761   21.1335 C   0  0  0  0  0  0  0  0  0  0  0  0
    8.6893  -14.7679   21.0154 C   0  0  0  0  0  0  0  0  0  0  0  0
    8.6021  -15.8527   22.0969 C   0  0  1  0  0  0  0  0  0  0  0  0
    9.9618  -16.0928   22.6141 C   0  0  0  0  0  0  0  0  0  0  0  0
   10.3798  -15.3011   23.4968 O   0  0  0  0  0  0  0  0  0  0  0  0
   11.5681  -19.2920   23.8102 O   0  0  0  0  0  0  0  0  0  0  0  0
   12.5297  -18.7409   22.9467 C   0  0  0  0  0  0  0  0  0  0  0  0
   12.1724  -17.2788   22.8006 C   0  0  2  0  0  0  0  0  0  0  0  0
   10.8340  -17.1321   22.2068 N   0  0  0  0  0  0  0  0  0  0  0  0
   13.1459  -16.6677   21.8713 C   0  0  0  0  0  0  0  0  0  0  0  0
   12.8692  -16.4646   20.6603 O   0  0  0  0  0  0  0  0  0  0  0  0
   14.4150  -16.2862   22.2846 O   0  0  0  0  0  0  0  0  0  0  0  0
  2  1  1  0
  3  2  1  0
  4  3  1  0
  4  5  1  0
  5  6  1  1
  7  9  1  0
  7  5  1  0
  8  7  2  0
  9 13  1  0
 10  9  1  0
 10 11  1  0
 11 12  1  0
 13 12  1  0
 13 14  1  1
 14 19  1  0
 14 15  2  0
 17 16  1  0
 18 17  1  6
 18 20  1  0
 19 18  1  0
 20 22  1  0
 21 20  2  0
M  END
$$$$
