MPS.pdb
     RDKit          3D

 22 22  0  0  1  0  0  0  0  0999 V2000
    6.2224  -11.7143   27.0637 C   0  0  0  0  0  0  0  0  0  0  0  0
    7.8145  -12.5820   26.9155 S   0  0  0  0  0  0  0  0  0  0  0  0
    7.5003  -14.3482   26.5627 C   0  0  0  0  0  0  0  0  0  0  0  0
    6.6385  -14.3969   25.3381 C   0  0  0  0  0  0  0  0  0  0  0  0
    6.3218  -15.7962   24.8659 C   0  0  2  0  0  0  0  0  0  0  0  0
    6.3976  -16.7170   25.9458 N   0  0  0  0  0  0  0  0  0  0  0  0
    7.2030  -16.1357   23.7319 C   0  0  0  0  0  0  0  0  0  0  0  0
    7.6477  -17.3370   23.7487 O   0  0  0  0  0  0  0  0  0  0  0  0
    7.5854  -15.2938   22.6760 N   0  0  0  0  0  0  0  0  0  0  0  0
    7.2131  -13.9177   22.4633 C   0  0  0  0  0  0  0  0  0  0  0  0
    7.2787  -13.8199   20.9258 C   0  0  0  0  0  0  0  0  0  0  0  0
    8.6146  -14.4802   20.6967 C   0  0  0  0  0  0  0  0  0  0  0  0
    8.4454  -15.7248   21.5780 C   0  0  1  0  0  0  0  0  0  0  0  0
    9.7823  -16.1464   22.0351 C   0  0  0  0  0  0  0  0  0  0  0  0
   10.2873  -15.4954   22.9848 O   0  0  0  0  0  0  0  0  0  0  0  0
   11.0058  -19.4866   22.9760 O   0  0  0  0  0  0  0  0  0  0  0  0
   12.0505  -19.0371   22.1510 C   0  0  0  0  0  0  0  0  0  0  0  0
   11.8769  -17.5395   22.0337 C   0  0  2  0  0  0  0  0  0  0  0  0
   10.5437  -17.2153   21.5018 N   0  0  0  0  0  0  0  0  0  0  0  0
   12.8792  -17.0439   21.0671 C   0  0  0  0  0  0  0  0  0  0  0  0
   12.5432  -16.5288   19.9689 O   0  0  0  0  0  0  0  0  0  0  0  0
   14.2421  -17.1205   21.3192 O   0  0  0  0  0  0  0  0  0  0  0  0
  2  1  1  0
  3  2  1  0
  4  3  1  0
  4  5  1  0
  5  6  1  1
  7  9  1  0
  7  5  1  0
  8  7  2  0
  9 13  1  0
 10  9  1  0
 10 11  1  0
 11 12  1  0
 13 12  1  0
 13 14  1  1
 14 19  1  0
 14 15  2  0
 17 16  1  0
 18 17  1  6
 18 20  1  0
 19 18  1  0
 20 22  1  0
 21 20  2  0
M  END
$$$$
