MPS.pdb
     RDKit          3D

 22 22  0  0  1  0  0  0  0  0999 V2000
    6.6843  -10.8805   26.4004 C   0  0  0  0  0  0  0  0  0  0  0  0
    7.2289  -12.3358   27.3468 S   0  0  0  0  0  0  0  0  0  0  0  0
    6.3282  -13.8090   26.7459 C   0  0  0  0  0  0  0  0  0  0  0  0
    7.2205  -14.4833   25.7489 C   0  0  0  0  0  0  0  0  0  0  0  0
    6.6080  -15.7041   25.1043 C   0  0  2  0  0  0  0  0  0  0  0  0
    6.3565  -16.7094   26.0770 N   0  0  0  0  0  0  0  0  0  0  0  0
    7.4733  -16.1523   23.9961 C   0  0  0  0  0  0  0  0  0  0  0  0
    7.9805  -17.3172   24.1587 O   0  0  0  0  0  0  0  0  0  0  0  0
    7.7810  -15.4446   22.8237 N   0  0  0  0  0  0  0  0  0  0  0  0
    7.2931  -14.1503   22.4185 C   0  0  0  0  0  0  0  0  0  0  0  0
    7.3472  -14.2729   20.8824 C   0  0  0  0  0  0  0  0  0  0  0  0
    8.7338  -14.8457   20.7327 C   0  0  0  0  0  0  0  0  0  0  0  0
    8.6722  -15.9580   21.7878 C   0  0  1  0  0  0  0  0  0  0  0  0
   10.0409  -16.1952   22.2821 C   0  0  0  0  0  0  0  0  0  0  0  0
   10.5150  -15.3374   23.0696 O   0  0  0  0  0  0  0  0  0  0  0  0
   11.4201  -19.5896   22.5688 O   0  0  0  0  0  0  0  0  0  0  0  0
   12.4876  -18.7944   23.0183 C   0  0  0  0  0  0  0  0  0  0  0  0
   12.2370  -17.4078   22.4694 C   0  0  2  0  0  0  0  0  0  0  0  0
   10.8643  -17.2992   21.9505 N   0  0  0  0  0  0  0  0  0  0  0  0
   13.1635  -17.1970   21.3372 C   0  0  0  0  0  0  0  0  0  0  0  0
   12.7457  -16.9996   20.1664 O   0  0  0  0  0  0  0  0  0  0  0  0
   14.5414  -17.2058   21.5053 O   0  0  0  0  0  0  0  0  0  0  0  0
  2  1  1  0
  3  2  1  0
  4  3  1  0
  4  5  1  0
  5  6  1  1
  7  9  1  0
  7  5  1  0
  8  7  2  0
  9 13  1  0
 10  9  1  0
 10 11  1  0
 11 12  1  0
 13 12  1  0
 13 14  1  1
 14 19  1  0
 14 15  2  0
 17 16  1  0
 18 17  1  6
 18 20  1  0
 19 18  1  0
 20 22  1  0
 21 20  2  0
M  END
$$$$
