MPS.pdb
     RDKit          3D

 22 22  0  0  1  0  0  0  0  0999 V2000
   10.3672  -13.6814   29.1795 C   0  0  0  0  0  0  0  0  0  0  0  0
    9.2894  -13.4534   27.7317 S   0  0  0  0  0  0  0  0  0  0  0  0
    8.4512  -15.0346   27.3576 C   0  0  0  0  0  0  0  0  0  0  0  0
    7.5774  -14.7883   26.1656 C   0  0  0  0  0  0  0  0  0  0  0  0
    6.9161  -16.0325   25.6219 C   0  0  2  0  0  0  0  0  0  0  0  0
    6.9835  -17.0891   26.5701 N   0  0  0  0  0  0  0  0  0  0  0  0
    7.5143  -16.3673   24.3151 C   0  0  0  0  0  0  0  0  0  0  0  0
    7.9000  -17.5839   24.2059 O   0  0  0  0  0  0  0  0  0  0  0  0
    7.6936  -15.5062   23.2213 N   0  0  0  0  0  0  0  0  0  0  0  0
    7.2399  -14.1451   23.0841 C   0  0  0  0  0  0  0  0  0  0  0  0
    7.0596  -14.0379   21.5564 C   0  0  0  0  0  0  0  0  0  0  0  0
    8.3674  -14.6437   21.1139 C   0  0  0  0  0  0  0  0  0  0  0  0
    8.3864  -15.8980   21.9976 C   0  0  1  0  0  0  0  0  0  0  0  0
    9.7937  -16.2682   22.2351 C   0  0  0  0  0  0  0  0  0  0  0  0
   10.4263  -15.5796   23.0756 O   0  0  0  0  0  0  0  0  0  0  0  0
   11.0862  -19.6824   21.2553 O   0  0  0  0  0  0  0  0  0  0  0  0
   12.1605  -19.0913   21.9412 C   0  0  0  0  0  0  0  0  0  0  0  0
   11.9033  -17.6013   21.9177 C   0  0  2  0  0  0  0  0  0  0  0  0
   10.4921  -17.3267   21.6038 N   0  0  0  0  0  0  0  0  0  0  0  0
   12.7259  -17.0189   20.8366 C   0  0  0  0  0  0  0  0  0  0  0  0
   12.2061  -16.4826   19.8235 O   0  0  0  0  0  0  0  0  0  0  0  0
   14.1132  -17.0330   20.8815 O   0  0  0  0  0  0  0  0  0  0  0  0
  2  1  1  0
  3  2  1  0
  4  3  1  0
  4  5  1  0
  5  6  1  1
  7  9  1  0
  7  5  1  0
  8  7  2  0
  9 13  1  0
 10  9  1  0
 10 11  1  0
 11 12  1  0
 13 12  1  0
 13 14  1  1
 14 19  1  0
 14 15  2  0
 17 16  1  0
 18 17  1  6
 18 20  1  0
 19 18  1  0
 20 22  1  0
 21 20  2  0
M  END
$$$$
