MPS.pdb
     RDKit          3D

 22 22  0  0  1  0  0  0  0  0999 V2000
    8.2801  -12.1281   28.0850 C   0  0  0  0  0  0  0  0  0  0  0  0
    7.0201  -11.8130   26.8110 S   0  0  0  0  0  0  0  0  0  0  0  0
    6.1669  -13.3810   26.4156 C   0  0  0  0  0  0  0  0  0  0  0  0
    7.0453  -14.1190   25.4520 C   0  0  0  0  0  0  0  0  0  0  0  0
    6.4808  -15.4444   24.9984 C   0  0  2  0  0  0  0  0  0  0  0  0
    6.3142  -16.3212   26.1045 N   0  0  0  0  0  0  0  0  0  0  0  0
    7.3349  -15.9936   23.9276 C   0  0  0  0  0  0  0  0  0  0  0  0
    7.8102  -17.1572   24.1745 O   0  0  0  0  0  0  0  0  0  0  0  0
    7.6630  -15.3801   22.7086 N   0  0  0  0  0  0  0  0  0  0  0  0
    7.2517  -14.0831   22.2329 C   0  0  0  0  0  0  0  0  0  0  0  0
    7.2650  -14.3016   20.7066 C   0  0  0  0  0  0  0  0  0  0  0  0
    8.6079  -14.9730   20.5685 C   0  0  0  0  0  0  0  0  0  0  0  0
    8.4966  -16.0130   21.6911 C   0  0  1  0  0  0  0  0  0  0  0  0
    9.8571  -16.3101   22.1755 C   0  0  0  0  0  0  0  0  0  0  0  0
   10.4178  -15.4231   22.8681 O   0  0  0  0  0  0  0  0  0  0  0  0
   11.3329  -19.8659   21.9081 O   0  0  0  0  0  0  0  0  0  0  0  0
   12.2126  -19.1480   22.7356 C   0  0  0  0  0  0  0  0  0  0  0  0
   11.9440  -17.6850   22.4629 C   0  0  2  0  0  0  0  0  0  0  0  0
   10.5843  -17.5010   21.9312 N   0  0  0  0  0  0  0  0  0  0  0  0
   12.8968  -17.2376   21.4252 C   0  0  0  0  0  0  0  0  0  0  0  0
   12.5141  -16.9020   20.2741 O   0  0  0  0  0  0  0  0  0  0  0  0
   14.2620  -17.1642   21.6653 O   0  0  0  0  0  0  0  0  0  0  0  0
  2  1  1  0
  3  2  1  0
  4  3  1  0
  4  5  1  0
  5  6  1  1
  7  9  1  0
  7  5  1  0
  8  7  2  0
  9 13  1  0
 10  9  1  0
 10 11  1  0
 11 12  1  0
 13 12  1  0
 13 14  1  1
 14 19  1  0
 14 15  2  0
 17 16  1  0
 18 17  1  6
 18 20  1  0
 19 18  1  0
 20 22  1  0
 21 20  2  0
M  END
$$$$
