MPS.pdb
     RDKit          3D

 22 22  0  0  1  0  0  0  0  0999 V2000
    7.2572  -19.8449   24.7491 C   0  0  0  0  0  0  0  0  0  0  0  0
    5.7454  -19.7070   23.7463 S   0  0  0  0  0  0  0  0  0  0  0  0
    5.7573  -18.1040   22.8671 C   0  0  0  0  0  0  0  0  0  0  0  0
    6.6590  -17.1931   23.6430 C   0  0  0  0  0  0  0  0  0  0  0  0
    6.8664  -15.8420   23.0006 C   0  0  2  0  0  0  0  0  0  0  0  0
    7.3959  -15.9882   21.6898 N   0  0  0  0  0  0  0  0  0  0  0  0
    7.6981  -15.0063   23.8881 C   0  0  0  0  0  0  0  0  0  0  0  0
    8.9589  -15.1175   23.6908 O   0  0  0  0  0  0  0  0  0  0  0  0
    7.2508  -14.1337   24.8923 N   0  0  0  0  0  0  0  0  0  0  0  0
    5.9057  -13.6724   25.1278 C   0  0  0  0  0  0  0  0  0  0  0  0
    6.1656  -12.2949   25.7702 C   0  0  0  0  0  0  0  0  0  0  0  0
    7.2155  -12.6902   26.7775 C   0  0  0  0  0  0  0  0  0  0  0  0
    8.1376  -13.5254   25.8794 C   0  0  1  0  0  0  0  0  0  0  0  0
    8.8168  -14.5243   26.7250 C   0  0  0  0  0  0  0  0  0  0  0  0
    8.1127  -15.4711   27.1594 O   0  0  0  0  0  0  0  0  0  0  0  0
   12.7324  -14.5516   27.1823 O   0  0  0  0  0  0  0  0  0  0  0  0
   12.2184  -15.8209   27.4963 C   0  0  0  0  0  0  0  0  0  0  0  0
   10.7724  -15.6035   27.8821 C   0  0  2  0  0  0  0  0  0  0  0  0
   10.1859  -14.5119   27.0886 N   0  0  0  0  0  0  0  0  0  0  0  0
   10.7414  -15.1940   29.3020 C   0  0  0  0  0  0  0  0  0  0  0  0
   10.2590  -14.0890   29.6630 O   0  0  0  0  0  0  0  0  0  0  0  0
   11.2422  -16.0055   30.3107 O   0  0  0  0  0  0  0  0  0  0  0  0
  2  1  1  0
  3  2  1  0
  4  3  1  0
  4  5  1  0
  5  6  1  6
  7  9  1  0
  7  5  1  0
  8  7  2  0
  9 13  1  0
 10  9  1  0
 10 11  1  0
 11 12  1  0
 13 12  1  0
 13 14  1  1
 14 19  1  0
 14 15  2  0
 17 16  1  0
 18 17  1  6
 18 20  1  0
 19 18  1  0
 20 22  1  0
 21 20  2  0
M  END
$$$$
