MPS.pdb
     RDKit          3D

 22 22  0  0  1  0  0  0  0  0999 V2000
    6.4704  -10.7312   26.4027 C   0  0  0  0  0  0  0  0  0  0  0  0
    6.9508  -12.1856   27.3845 S   0  0  0  0  0  0  0  0  0  0  0  0
    6.1173  -13.6647   26.7059 C   0  0  0  0  0  0  0  0  0  0  0  0
    7.1115  -14.3521   25.8206 C   0  0  0  0  0  0  0  0  0  0  0  0
    6.5700  -15.5797   25.1272 C   0  0  2  0  0  0  0  0  0  0  0  0
    6.2287  -16.5803   26.0770 N   0  0  0  0  0  0  0  0  0  0  0  0
    7.5413  -16.0304   24.1117 C   0  0  0  0  0  0  0  0  0  0  0  0
    8.0818  -17.1643   24.3631 O   0  0  0  0  0  0  0  0  0  0  0  0
    7.9143  -15.3550   22.9392 N   0  0  0  0  0  0  0  0  0  0  0  0
    7.4437  -14.0769   22.4676 C   0  0  0  0  0  0  0  0  0  0  0  0
    7.5902  -14.2439   20.9417 C   0  0  0  0  0  0  0  0  0  0  0  0
    8.9866  -14.8102   20.8918 C   0  0  0  0  0  0  0  0  0  0  0  0
    8.8687  -15.8916   21.9738 C   0  0  1  0  0  0  0  0  0  0  0  0
   10.2068  -16.1038   22.5556 C   0  0  0  0  0  0  0  0  0  0  0  0
   10.6081  -15.2445   23.3811 O   0  0  0  0  0  0  0  0  0  0  0  0
   11.5452  -19.4624   22.9427 O   0  0  0  0  0  0  0  0  0  0  0  0
   12.7062  -18.7323   23.2477 C   0  0  0  0  0  0  0  0  0  0  0  0
   12.3960  -17.2915   22.9091 C   0  0  2  0  0  0  0  0  0  0  0  0
   11.0755  -17.1854   22.2686 N   0  0  0  0  0  0  0  0  0  0  0  0
   13.4068  -16.8300   21.9343 C   0  0  0  0  0  0  0  0  0  0  0  0
   13.0928  -16.4923   20.7632 O   0  0  0  0  0  0  0  0  0  0  0  0
   14.7538  -16.7451   22.2587 O   0  0  0  0  0  0  0  0  0  0  0  0
  2  1  1  0
  3  2  1  0
  4  3  1  0
  4  5  1  0
  5  6  1  1
  7  9  1  0
  7  5  1  0
  8  7  2  0
  9 13  1  0
 10  9  1  0
 10 11  1  0
 11 12  1  0
 13 12  1  0
 13 14  1  1
 14 19  1  0
 14 15  2  0
 17 16  1  0
 18 17  1  6
 18 20  1  0
 19 18  1  0
 20 22  1  0
 21 20  2  0
M  END
$$$$
