MPS.pdb
     RDKit          3D

 22 22  0  0  1  0  0  0  0  0999 V2000
    7.8684  -11.8040   26.6112 C   0  0  0  0  0  0  0  0  0  0  0  0
    6.3477  -12.7480   26.9366 S   0  0  0  0  0  0  0  0  0  0  0  0
    6.7091  -14.5334   26.7796 C   0  0  0  0  0  0  0  0  0  0  0  0
    6.1148  -14.9812   25.4792 C   0  0  0  0  0  0  0  0  0  0  0  0
    6.3728  -16.4334   25.1544 C   0  0  2  0  0  0  0  0  0  0  0  0
    6.6999  -17.1583   26.3323 N   0  0  0  0  0  0  0  0  0  0  0  0
    7.4008  -16.5185   24.0991 C   0  0  0  0  0  0  0  0  0  0  0  0
    8.0726  -17.6092   24.1017 O   0  0  0  0  0  0  0  0  0  0  0  0
    7.6997  -15.5491   23.1290 N   0  0  0  0  0  0  0  0  0  0  0  0
    7.1021  -14.2476   22.9665 C   0  0  0  0  0  0  0  0  0  0  0  0
    7.2581  -14.0296   21.4480 C   0  0  0  0  0  0  0  0  0  0  0  0
    8.7038  -14.4282   21.2922 C   0  0  0  0  0  0  0  0  0  0  0  0
    8.6988  -15.7432   22.0827 C   0  0  1  0  0  0  0  0  0  0  0  0
   10.0538  -15.9565   22.6235 C   0  0  0  0  0  0  0  0  0  0  0  0
   10.3932  -15.2400   23.5993 O   0  0  0  0  0  0  0  0  0  0  0  0
   11.8322  -19.2377   22.5339 O   0  0  0  0  0  0  0  0  0  0  0  0
   12.6014  -18.3468   23.3010 C   0  0  0  0  0  0  0  0  0  0  0  0
   12.3530  -16.9725   22.7210 C   0  0  2  0  0  0  0  0  0  0  0  0
   11.0019  -16.8933   22.1435 N   0  0  0  0  0  0  0  0  0  0  0  0
   13.3231  -16.7636   21.6255 C   0  0  0  0  0  0  0  0  0  0  0  0
   12.9522  -16.5962   20.4344 O   0  0  0  0  0  0  0  0  0  0  0  0
   14.6923  -16.7411   21.8523 O   0  0  0  0  0  0  0  0  0  0  0  0
  2  1  1  0
  3  2  1  0
  4  3  1  0
  4  5  1  0
  5  6  1  1
  7  9  1  0
  7  5  1  0
  8  7  2  0
  9 13  1  0
 10  9  1  0
 10 11  1  0
 11 12  1  0
 13 12  1  0
 13 14  1  1
 14 19  1  0
 14 15  2  0
 17 16  1  0
 18 17  1  6
 18 20  1  0
 19 18  1  0
 20 22  1  0
 21 20  2  0
M  END
$$$$
