MPS.pdb
     RDKit          3D

 22 22  0  0  1  0  0  0  0  0999 V2000
    5.7561  -10.7879   27.4302 C   0  0  0  0  0  0  0  0  0  0  0  0
    7.0069  -11.9899   26.8817 S   0  0  0  0  0  0  0  0  0  0  0  0
    6.1618  -13.4770   26.2360 C   0  0  0  0  0  0  0  0  0  0  0  0
    7.2141  -14.3238   25.5876 C   0  0  0  0  0  0  0  0  0  0  0  0
    6.6807  -15.5860   24.9524 C   0  0  2  0  0  0  0  0  0  0  0  0
    6.3743  -16.5545   25.9464 N   0  0  0  0  0  0  0  0  0  0  0  0
    7.6404  -16.0598   23.9364 C   0  0  0  0  0  0  0  0  0  0  0  0
    8.1647  -17.1997   24.1948 O   0  0  0  0  0  0  0  0  0  0  0  0
    8.0183  -15.3999   22.7567 N   0  0  0  0  0  0  0  0  0  0  0  0
    7.6080  -14.0944   22.3039 C   0  0  0  0  0  0  0  0  0  0  0  0
    7.7022  -14.2606   20.7738 C   0  0  0  0  0  0  0  0  0  0  0  0
    9.0623  -14.9048   20.6822 C   0  0  0  0  0  0  0  0  0  0  0  0
    8.9135  -15.9840   21.7626 C   0  0  1  0  0  0  0  0  0  0  0  0
   10.2531  -16.2749   22.3056 C   0  0  0  0  0  0  0  0  0  0  0  0
   10.7012  -15.4751   23.1659 O   0  0  0  0  0  0  0  0  0  0  0  0
   11.6390  -19.4482   23.6086 O   0  0  0  0  0  0  0  0  0  0  0  0
   12.6980  -18.9964   22.8034 C   0  0  0  0  0  0  0  0  0  0  0  0
   12.4183  -17.5368   22.5237 C   0  0  2  0  0  0  0  0  0  0  0  0
   11.0752  -17.3711   21.9458 N   0  0  0  0  0  0  0  0  0  0  0  0
   13.3998  -17.0741   21.5201 C   0  0  0  0  0  0  0  0  0  0  0  0
   13.0533  -16.7499   20.3543 O   0  0  0  0  0  0  0  0  0  0  0  0
   14.7535  -16.9731   21.8099 O   0  0  0  0  0  0  0  0  0  0  0  0
  2  1  1  0
  3  2  1  0
  4  3  1  0
  4  5  1  0
  5  6  1  1
  7  9  1  0
  7  5  1  0
  8  7  2  0
  9 13  1  0
 10  9  1  0
 10 11  1  0
 11 12  1  0
 13 12  1  0
 13 14  1  1
 14 19  1  0
 14 15  2  0
 17 16  1  0
 18 17  1  6
 18 20  1  0
 19 18  1  0
 20 22  1  0
 21 20  2  0
M  END
$$$$
