MPS.pdb
     RDKit          3D

 22 22  0  0  1  0  0  0  0  0999 V2000
    6.6379  -11.7452   28.6259 C   0  0  0  0  0  0  0  0  0  0  0  0
    6.7156  -12.2307   26.8743 S   0  0  0  0  0  0  0  0  0  0  0  0
    6.4537  -14.0354   26.7436 C   0  0  0  0  0  0  0  0  0  0  0  0
    6.5350  -14.3789   25.2875 C   0  0  0  0  0  0  0  0  0  0  0  0
    6.4539  -15.8595   25.0008 C   0  0  2  0  0  0  0  0  0  0  0  0
    6.5455  -16.6074   26.2059 N   0  0  0  0  0  0  0  0  0  0  0  0
    7.4784  -16.2160   24.0004 C   0  0  0  0  0  0  0  0  0  0  0  0
    8.0993  -17.3093   24.2454 O   0  0  0  0  0  0  0  0  0  0  0  0
    7.8231  -15.4930   22.8478 N   0  0  0  0  0  0  0  0  0  0  0  0
    7.2973  -14.2243   22.4099 C   0  0  0  0  0  0  0  0  0  0  0  0
    7.4533  -14.3429   20.8804 C   0  0  0  0  0  0  0  0  0  0  0  0
    8.8735  -14.8455   20.8190 C   0  0  0  0  0  0  0  0  0  0  0  0
    8.8018  -15.9603   21.8708 C   0  0  1  0  0  0  0  0  0  0  0  0
   10.1470  -16.1291   22.4502 C   0  0  0  0  0  0  0  0  0  0  0  0
   10.4800  -15.3203   23.3534 O   0  0  0  0  0  0  0  0  0  0  0  0
   13.9492  -18.6579   23.7395 O   0  0  0  0  0  0  0  0  0  0  0  0
   12.7211  -18.6689   23.0571 C   0  0  0  0  0  0  0  0  0  0  0  0
   12.3906  -17.2222   22.7663 C   0  0  2  0  0  0  0  0  0  0  0  0
   11.0922  -17.1178   22.0815 N   0  0  0  0  0  0  0  0  0  0  0  0
   13.4255  -16.6988   21.8499 C   0  0  0  0  0  0  0  0  0  0  0  0
   13.2044  -16.5410   20.6209 O   0  0  0  0  0  0  0  0  0  0  0  0
   14.6941  -16.3544   22.2958 O   0  0  0  0  0  0  0  0  0  0  0  0
  2  1  1  0
  3  2  1  0
  4  3  1  0
  4  5  1  0
  5  6  1  1
  7  9  1  0
  7  5  1  0
  8  7  2  0
  9 13  1  0
 10  9  1  0
 10 11  1  0
 11 12  1  0
 13 12  1  0
 13 14  1  1
 14 19  1  0
 14 15  2  0
 17 16  1  0
 18 17  1  6
 18 20  1  0
 19 18  1  0
 20 22  1  0
 21 20  2  0
M  END
$$$$
