MPS.pdb
     RDKit          3D

 22 22  0  0  1  0  0  0  0  0999 V2000
    6.3661  -11.1462   27.9049 C   0  0  0  0  0  0  0  0  0  0  0  0
    7.4203  -12.2519   26.9170 S   0  0  0  0  0  0  0  0  0  0  0  0
    6.4098  -13.6454   26.3005 C   0  0  0  0  0  0  0  0  0  0  0  0
    7.2952  -14.4573   25.4051 C   0  0  0  0  0  0  0  0  0  0  0  0
    6.6496  -15.7195   24.8845 C   0  0  2  0  0  0  0  0  0  0  0  0
    6.4883  -16.6668   25.9317 N   0  0  0  0  0  0  0  0  0  0  0  0
    7.4305  -16.2262   23.7394 C   0  0  0  0  0  0  0  0  0  0  0  0
    7.9777  -17.3677   23.9360 O   0  0  0  0  0  0  0  0  0  0  0  0
    7.6225  -15.5949   22.5007 N   0  0  0  0  0  0  0  0  0  0  0  0
    7.1374  -14.3039   22.0819 C   0  0  0  0  0  0  0  0  0  0  0  0
    7.0042  -14.5091   20.5594 C   0  0  0  0  0  0  0  0  0  0  0  0
    8.3415  -15.1479   20.2821 C   0  0  0  0  0  0  0  0  0  0  0  0
    8.3651  -16.1997   21.3990 C   0  0  1  0  0  0  0  0  0  0  0  0
    9.7732  -16.4692   21.7433 C   0  0  0  0  0  0  0  0  0  0  0  0
   10.3757  -15.5815   22.3988 O   0  0  0  0  0  0  0  0  0  0  0  0
   11.2389  -19.9856   21.9148 O   0  0  0  0  0  0  0  0  0  0  0  0
   12.1929  -19.0885   22.4237 C   0  0  0  0  0  0  0  0  0  0  0  0
   11.9293  -17.7650   21.7413 C   0  0  2  0  0  0  0  0  0  0  0  0
   10.5032  -17.6346   21.4031 N   0  0  0  0  0  0  0  0  0  0  0  0
   12.6945  -17.7497   20.4768 C   0  0  0  0  0  0  0  0  0  0  0  0
   12.1229  -17.6989   19.3565 O   0  0  0  0  0  0  0  0  0  0  0  0
   14.0818  -17.7905   20.4581 O   0  0  0  0  0  0  0  0  0  0  0  0
  2  1  1  0
  3  2  1  0
  4  3  1  0
  4  5  1  0
  5  6  1  1
  7  9  1  0
  7  5  1  0
  8  7  2  0
  9 13  1  0
 10  9  1  0
 10 11  1  0
 11 12  1  0
 13 12  1  0
 13 14  1  1
 14 19  1  0
 14 15  2  0
 17 16  1  0
 18 17  1  6
 18 20  1  0
 19 18  1  0
 20 22  1  0
 21 20  2  0
M  END
$$$$
