GHQ.pdb
     RDKit          3D

 24 24  0  0  1  0  0  0  0  0999 V2000
    4.6689  -19.1370   20.7342 N   0  0  0  0  0  0  0  0  0  0  0  0
    4.5006  -17.7835   21.1748 C   0  0  0  0  0  0  0  0  0  0  0  0
    5.8355  -17.2177   21.4936 C   0  0  0  0  0  0  0  0  0  0  0  0
    6.8493  -17.9398   21.4462 O   0  0  0  0  0  0  0  0  0  0  0  0
    6.0019  -15.8417   21.8617 N   0  0  0  0  0  0  0  0  0  0  0  0
    7.2914  -15.3134   22.2174 C   0  0  1  0  0  0  0  0  0  0  0  0
    7.4214  -13.8447   21.8796 C   0  0  0  0  0  0  0  0  0  0  0  0
    7.5736  -13.5786   20.4555 C   0  0  0  0  0  0  0  0  0  0  0  0
    8.7112  -13.1199   19.8366 C   0  0  0  0  0  0  0  0  0  0  0  0
    8.4398  -13.0063   18.5233 N   0  0  0  0  0  0  0  0  0  0  0  0
    7.1708  -13.3784   18.2990 C   0  0  0  0  0  0  0  0  0  0  0  0
    6.6467  -13.7307   19.5076 N   0  0  0  0  0  0  0  0  0  0  0  0
    7.6226  -15.5770   23.6398 C   0  0  0  0  0  0  0  0  0  0  0  0
    6.8044  -15.2514   24.5231 O   0  0  0  0  0  0  0  0  0  0  0  0
    7.0725  -19.8872   26.3932 N   0  0  0  0  0  0  0  0  0  0  0  0
    8.0389  -19.5563   27.3527 C   0  0  0  0  0  0  0  0  0  0  0  0
    8.0383  -19.9838   28.5361 O   0  0  0  0  0  0  0  0  0  0  0  0
    9.1448  -18.6281   26.9282 C   0  0  0  0  0  0  0  0  0  0  0  0
    8.9365  -18.1579   25.5206 C   0  0  0  0  0  0  0  0  0  0  0  0
    9.0700  -16.6990   25.4046 C   0  0  2  0  0  0  0  0  0  0  0  0
    8.8246  -16.1832   24.0704 N   0  0  0  0  0  0  0  0  0  0  0  0
   10.4387  -16.2836   25.7684 C   0  0  0  0  0  0  0  0  0  0  0  0
   10.8488  -16.4683   27.1088 O   0  0  0  0  0  0  0  0  0  0  0  0
   11.2999  -15.7811   25.0370 O   0  0  0  0  0  0  0  0  0  0  0  0
  1  2  1  0
  3  2  1  0
  3  5  1  0
  4  3  2  0
  6  5  1  0
  6  7  1  1
  8 12  1  0
  8  7  1  0
  9  8  2  0
 10  9  1  0
 10 11  1  0
 11 12  2  0
 13  6  1  0
 13 21  1  0
 14 13  2  0
 16 18  1  0
 16 15  1  0
 17 16  2  0
 19 18  1  0
 20 21  1  0
 20 19  1  6
 22 20  1  0
 23 22  1  0
 24 22  2  0
M  END
$$$$
