GHQ.pdb
     RDKit          3D

 24 24  0  0  1  0  0  0  0  0999 V2000
    8.4481  -12.9640   15.8659 N   0  0  0  0  0  0  0  0  0  0  0  0
    8.0762  -14.2352   16.4138 C   0  0  0  0  0  0  0  0  0  0  0  0
    8.5677  -14.3124   17.8124 C   0  0  0  0  0  0  0  0  0  0  0  0
    9.5910  -13.6887   18.1519 O   0  0  0  0  0  0  0  0  0  0  0  0
    7.8921  -15.0953   18.8059 N   0  0  0  0  0  0  0  0  0  0  0  0
    8.4179  -15.2286   20.1379 C   0  0  1  0  0  0  0  0  0  0  0  0
    7.4858  -15.9985   21.0470 C   0  0  0  0  0  0  0  0  0  0  0  0
    7.9320  -16.0611   22.4323 C   0  0  0  0  0  0  0  0  0  0  0  0
    9.0268  -15.4188   22.9581 C   0  0  0  0  0  0  0  0  0  0  0  0
    9.0921  -15.7339   24.2649 N   0  0  0  0  0  0  0  0  0  0  0  0
    8.0752  -16.5517   24.5751 C   0  0  0  0  0  0  0  0  0  0  0  0
    7.3645  -16.7453   23.4276 N   0  0  0  0  0  0  0  0  0  0  0  0
    9.7827  -15.8113   20.1368 C   0  0  0  0  0  0  0  0  0  0  0  0
   10.0524  -16.7220   19.3284 O   0  0  0  0  0  0  0  0  0  0  0  0
   13.9545  -13.8224   18.0286 N   0  0  0  0  0  0  0  0  0  0  0  0
   14.8927  -14.5367   18.7861 C   0  0  0  0  0  0  0  0  0  0  0  0
   16.0548  -14.8171   18.3938 O   0  0  0  0  0  0  0  0  0  0  0  0
   14.4710  -14.9928   20.1568 C   0  0  0  0  0  0  0  0  0  0  0  0
   13.0608  -14.5773   20.4476 C   0  0  0  0  0  0  0  0  0  0  0  0
   12.2238  -15.7182   20.8445 C   0  0  2  0  0  0  0  0  0  0  0  0
   10.8178  -15.3971   21.0058 N   0  0  0  0  0  0  0  0  0  0  0  0
   12.6811  -16.2573   22.1400 C   0  0  0  0  0  0  0  0  0  0  0  0
   13.7929  -17.1307   22.1346 O   0  0  0  0  0  0  0  0  0  0  0  0
   12.2085  -16.0414   23.2621 O   0  0  0  0  0  0  0  0  0  0  0  0
  1  2  1  0
  3  2  1  0
  3  5  1  0
  4  3  2  0
  6  5  1  0
  6  7  1  1
  8 12  1  0
  8  7  1  0
  9  8  2  0
 10  9  1  0
 10 11  1  0
 11 12  2  0
 13  6  1  0
 13 21  1  0
 14 13  2  0
 16 18  1  0
 16 15  1  0
 17 16  2  0
 19 18  1  0
 20 21  1  0
 20 19  1  1
 22 20  1  0
 23 22  1  0
 24 22  2  0
M  END
$$$$
