GHQ.pdb
     RDKit          3D

 24 24  0  0  1  0  0  0  0  0999 V2000
    7.3225  -13.1068   18.6689 N   0  0  0  0  0  0  0  0  0  0  0  0
    8.4769  -12.7530   19.4415 C   0  0  0  0  0  0  0  0  0  0  0  0
    9.5183  -13.7921   19.2436 C   0  0  0  0  0  0  0  0  0  0  0  0
    9.1980  -14.9369   18.8715 O   0  0  0  0  0  0  0  0  0  0  0  0
   10.9077  -13.5188   19.4704 N   0  0  0  0  0  0  0  0  0  0  0  0
   11.9042  -14.5467   19.3334 C   0  0  1  0  0  0  0  0  0  0  0  0
   13.0405  -14.1255   18.4282 C   0  0  0  0  0  0  0  0  0  0  0  0
   13.7345  -15.2395   17.7960 C   0  0  0  0  0  0  0  0  0  0  0  0
   13.1480  -16.2549   17.0801 C   0  0  0  0  0  0  0  0  0  0  0  0
   14.1293  -17.0780   16.6667 N   0  0  0  0  0  0  0  0  0  0  0  0
   15.3103  -16.6122   17.0996 C   0  0  0  0  0  0  0  0  0  0  0  0
   15.0487  -15.4711   17.7987 N   0  0  0  0  0  0  0  0  0  0  0  0
   12.4016  -15.0123   20.6518 C   0  0  0  0  0  0  0  0  0  0  0  0
   12.8704  -14.1782   21.4520 O   0  0  0  0  0  0  0  0  0  0  0  0
   10.7841  -19.2886   24.5598 N   0  0  0  0  0  0  0  0  0  0  0  0
   12.0241  -18.7778   24.9670 C   0  0  0  0  0  0  0  0  0  0  0  0
   12.2773  -18.3767   26.1324 O   0  0  0  0  0  0  0  0  0  0  0  0
   13.1163  -18.7096   23.9339 C   0  0  0  0  0  0  0  0  0  0  0  0
   12.5732  -18.2607   22.6114 C   0  0  0  0  0  0  0  0  0  0  0  0
   12.8944  -16.8533   22.3360 C   0  0  2  0  0  0  0  0  0  0  0  0
   12.3799  -16.3620   21.0710 N   0  0  0  0  0  0  0  0  0  0  0  0
   14.3577  -16.6651   22.2939 C   0  0  0  0  0  0  0  0  0  0  0  0
   14.9923  -16.1732   23.4575 O   0  0  0  0  0  0  0  0  0  0  0  0
   15.1252  -16.8862   21.3499 O   0  0  0  0  0  0  0  0  0  0  0  0
  1  2  1  0
  3  2  1  0
  3  5  1  0
  4  3  2  0
  6  5  1  0
  6  7  1  6
  8 12  1  0
  8  7  1  0
  9  8  2  0
 10  9  1  0
 10 11  1  0
 11 12  2  0
 13  6  1  0
 13 21  1  0
 14 13  2  0
 16 18  1  0
 16 15  1  0
 17 16  2  0
 19 18  1  0
 20 21  1  0
 20 19  1  6
 22 20  1  0
 23 22  1  0
 24 22  2  0
M  END
$$$$
