GHQ.pdb
     RDKit          3D

 24 24  0  0  1  0  0  0  0  0999 V2000
   10.1051  -18.5138   16.0612 N   0  0  0  0  0  0  0  0  0  0  0  0
    9.4456  -18.8278   17.2945 C   0  0  0  0  0  0  0  0  0  0  0  0
    9.7350  -17.7523   18.2758 C   0  0  0  0  0  0  0  0  0  0  0  0
   10.9097  -17.3941   18.4841 O   0  0  0  0  0  0  0  0  0  0  0  0
    8.6889  -17.0983   19.0068 N   0  0  0  0  0  0  0  0  0  0  0  0
    8.9836  -16.1580   20.0544 C   0  0  1  0  0  0  0  0  0  0  0  0
    7.8929  -15.1228   20.2181 C   0  0  0  0  0  0  0  0  0  0  0  0
    7.6477  -14.3304   19.0206 C   0  0  0  0  0  0  0  0  0  0  0  0
    8.0687  -13.0405   18.8053 C   0  0  0  0  0  0  0  0  0  0  0  0
    7.6399  -12.6732   17.5836 N   0  0  0  0  0  0  0  0  0  0  0  0
    6.9646  -13.6895   17.0267 C   0  0  0  0  0  0  0  0  0  0  0  0
    6.9782  -14.7105   17.9306 N   0  0  0  0  0  0  0  0  0  0  0  0
    9.2861  -16.8386   21.3380 C   0  0  0  0  0  0  0  0  0  0  0  0
    8.5355  -17.7542   21.7303 O   0  0  0  0  0  0  0  0  0  0  0  0
   13.7862  -19.9492   21.0391 N   0  0  0  0  0  0  0  0  0  0  0  0
   13.6773  -20.1715   22.4185 C   0  0  0  0  0  0  0  0  0  0  0  0
   14.3449  -21.0286   23.0533 O   0  0  0  0  0  0  0  0  0  0  0  0
   12.6943  -19.3236   23.1797 C   0  0  0  0  0  0  0  0  0  0  0  0
   12.0146  -18.3465   22.2693 C   0  0  0  0  0  0  0  0  0  0  0  0
   11.1079  -17.4525   23.0031 C   0  0  2  0  0  0  0  0  0  0  0  0
   10.3877  -16.5143   22.1622 N   0  0  0  0  0  0  0  0  0  0  0  0
   11.8688  -16.6440   23.9755 C   0  0  0  0  0  0  0  0  0  0  0  0
   12.1374  -17.2154   25.2405 O   0  0  0  0  0  0  0  0  0  0  0  0
   12.3158  -15.5005   23.8280 O   0  0  0  0  0  0  0  0  0  0  0  0
  1  2  1  0
  3  2  1  0
  3  5  1  0
  4  3  2  0
  6  5  1  0
  6  7  1  1
  8 12  1  0
  8  7  1  0
  9  8  2  0
 10  9  1  0
 10 11  1  0
 11 12  2  0
 13  6  1  0
 13 21  1  0
 14 13  2  0
 16 18  1  0
 16 15  1  0
 17 16  2  0
 19 18  1  0
 20 21  1  0
 20 19  1  6
 22 20  1  0
 23 22  1  0
 24 22  2  0
M  END
$$$$
