GHQ.pdb
     RDKit          3D

 24 24  0  0  1  0  0  0  0  0999 V2000
   13.8341  -14.6496   19.2706 N   0  0  0  0  0  0  0  0  0  0  0  0
   12.9841  -15.6693   19.8111 C   0  0  0  0  0  0  0  0  0  0  0  0
   11.9690  -15.0286   20.6844 C   0  0  0  0  0  0  0  0  0  0  0  0
   12.1896  -13.9092   21.1842 O   0  0  0  0  0  0  0  0  0  0  0  0
   10.7185  -15.6659   20.9786 N   0  0  0  0  0  0  0  0  0  0  0  0
    9.7737  -15.0753   21.8880 C   0  0  1  0  0  0  0  0  0  0  0  0
    8.3683  -15.0683   21.3288 C   0  0  0  0  0  0  0  0  0  0  0  0
    8.2495  -14.3976   20.0411 C   0  0  0  0  0  0  0  0  0  0  0  0
    8.1106  -13.0449   19.8447 C   0  0  0  0  0  0  0  0  0  0  0  0
    8.0346  -12.8343   18.5176 N   0  0  0  0  0  0  0  0  0  0  0  0
    8.1213  -14.0093   17.8765 C   0  0  0  0  0  0  0  0  0  0  0  0
    8.2542  -14.9696   18.8354 N   0  0  0  0  0  0  0  0  0  0  0  0
    9.8243  -15.7126   23.2273 C   0  0  0  0  0  0  0  0  0  0  0  0
   10.2997  -16.8606   23.3348 O   0  0  0  0  0  0  0  0  0  0  0  0
   11.7224  -14.8007   28.1204 N   0  0  0  0  0  0  0  0  0  0  0  0
   10.5143  -14.1196   28.3223 C   0  0  0  0  0  0  0  0  0  0  0  0
   10.0714  -13.7809   29.4502 O   0  0  0  0  0  0  0  0  0  0  0  0
    9.7024  -13.7761   27.1026 C   0  0  0  0  0  0  0  0  0  0  0  0
    8.7400  -14.8769   26.7744 C   0  0  0  0  0  0  0  0  0  0  0  0
    9.2466  -15.7471   25.7039 C   0  0  2  0  0  0  0  0  0  0  0  0
    9.3618  -15.0959   24.4121 N   0  0  0  0  0  0  0  0  0  0  0  0
    8.3418  -16.8974   25.5133 C   0  0  0  0  0  0  0  0  0  0  0  0
    8.3452  -17.9089   26.5011 O   0  0  0  0  0  0  0  0  0  0  0  0
    7.5586  -17.1012   24.5784 O   0  0  0  0  0  0  0  0  0  0  0  0
  1  2  1  0
  3  2  1  0
  3  5  1  0
  4  3  2  0
  6  5  1  0
  6  7  1  6
  8 12  1  0
  8  7  1  0
  9  8  2  0
 10  9  1  0
 10 11  1  0
 11 12  2  0
 13  6  1  0
 13 21  1  0
 14 13  2  0
 16 18  1  0
 16 15  1  0
 17 16  2  0
 19 18  1  0
 20 21  1  0
 20 19  1  1
 22 20  1  0
 23 22  1  0
 24 22  2  0
M  END
$$$$
