GHQ.pdb
     RDKit          3D

 24 24  0  0  1  0  0  0  0  0999 V2000
   10.5854  -16.2137   18.3498 N   0  0  0  0  0  0  0  0  0  0  0  0
   10.1046  -17.0350   19.4216 C   0  0  0  0  0  0  0  0  0  0  0  0
    9.9404  -16.1903   20.6312 C   0  0  0  0  0  0  0  0  0  0  0  0
   10.8330  -15.3856   20.9590 O   0  0  0  0  0  0  0  0  0  0  0  0
    8.7671  -16.2698   21.4518 N   0  0  0  0  0  0  0  0  0  0  0  0
    8.6444  -15.4967   22.6583 C   0  0  1  0  0  0  0  0  0  0  0  0
    7.2008  -15.2765   23.0528 C   0  0  0  0  0  0  0  0  0  0  0  0
    7.0286  -14.3554   24.1682 C   0  0  0  0  0  0  0  0  0  0  0  0
    8.0304  -13.6705   24.8124 C   0  0  0  0  0  0  0  0  0  0  0  0
    7.4577  -12.9305   25.7797 N   0  0  0  0  0  0  0  0  0  0  0  0
    6.1313  -13.1289   25.7630 C   0  0  0  0  0  0  0  0  0  0  0  0
    5.8806  -14.0155   24.7577 N   0  0  0  0  0  0  0  0  0  0  0  0
    9.4303  -16.0835   23.7720 C   0  0  0  0  0  0  0  0  0  0  0  0
    9.7251  -17.2948   23.7336 O   0  0  0  0  0  0  0  0  0  0  0  0
   10.4078  -13.6396   29.5215 N   0  0  0  0  0  0  0  0  0  0  0  0
   10.9168  -14.9350   29.6855 C   0  0  0  0  0  0  0  0  0  0  0  0
   11.2723  -15.4224   30.7897 O   0  0  0  0  0  0  0  0  0  0  0  0
   11.0416  -15.7896   28.4531 C   0  0  0  0  0  0  0  0  0  0  0  0
   10.4943  -15.0788   27.2527 C   0  0  0  0  0  0  0  0  0  0  0  0
   10.5595  -15.9131   26.0445 C   0  0  2  0  0  0  0  0  0  0  0  0
    9.8764  -15.3497   24.8948 N   0  0  0  0  0  0  0  0  0  0  0  0
    9.9360  -17.2262   26.2997 C   0  0  0  0  0  0  0  0  0  0  0  0
   10.7891  -18.3452   26.4364 O   0  0  0  0  0  0  0  0  0  0  0  0
    8.7324  -17.4865   26.4130 O   0  0  0  0  0  0  0  0  0  0  0  0
  1  2  1  0
  3  2  1  0
  3  5  1  0
  4  3  2  0
  6  5  1  0
  6  7  1  1
  8 12  1  0
  8  7  1  0
  9  8  2  0
 10  9  1  0
 10 11  1  0
 11 12  2  0
 13  6  1  0
 13 21  1  0
 14 13  2  0
 16 18  1  0
 16 15  1  0
 17 16  2  0
 19 18  1  0
 20 21  1  0
 20 19  1  1
 22 20  1  0
 23 22  1  0
 24 22  2  0
M  END
$$$$
