GHQ.pdb
     RDKit          3D

 24 24  0  0  1  0  0  0  0  0999 V2000
   12.5125  -22.7111   18.7353 N   0  0  0  0  0  0  0  0  0  0  0  0
   11.7277  -21.5117   18.7394 C   0  0  0  0  0  0  0  0  0  0  0  0
   12.6439  -20.3438   18.7262 C   0  0  0  0  0  0  0  0  0  0  0  0
   13.8652  -20.5038   18.9115 O   0  0  0  0  0  0  0  0  0  0  0  0
   12.1626  -19.0115   18.5030 N   0  0  0  0  0  0  0  0  0  0  0  0
   13.0420  -17.8761   18.5792 C   0  0  1  0  0  0  0  0  0  0  0  0
   12.8346  -16.9132   17.4312 C   0  0  0  0  0  0  0  0  0  0  0  0
   13.2816  -17.4266   16.1432 C   0  0  0  0  0  0  0  0  0  0  0  0
   12.5256  -18.1564   15.2580 C   0  0  0  0  0  0  0  0  0  0  0  0
   13.3031  -18.4350   14.1954 N   0  0  0  0  0  0  0  0  0  0  0  0
   14.5202  -17.9043   14.3852 C   0  0  0  0  0  0  0  0  0  0  0  0
   14.4911  -17.2819   15.5982 N   0  0  0  0  0  0  0  0  0  0  0  0
   12.9441  -17.1893   19.8911 C   0  0  0  0  0  0  0  0  0  0  0  0
   11.8284  -16.7987   20.2891 O   0  0  0  0  0  0  0  0  0  0  0  0
   12.4299  -18.9466   24.9756 N   0  0  0  0  0  0  0  0  0  0  0  0
   12.8778  -17.7097   25.4590 C   0  0  0  0  0  0  0  0  0  0  0  0
   12.8131  -17.3541   26.6642 O   0  0  0  0  0  0  0  0  0  0  0  0
   13.4732  -16.7526   24.4619 C   0  0  0  0  0  0  0  0  0  0  0  0
   13.4760  -17.3475   23.0865 C   0  0  0  0  0  0  0  0  0  0  0  0
   13.9704  -16.3981   22.0795 C   0  0  2  0  0  0  0  0  0  0  0  0
   14.0496  -16.9426   20.7366 N   0  0  0  0  0  0  0  0  0  0  0  0
   15.3320  -15.9492   22.4299 C   0  0  0  0  0  0  0  0  0  0  0  0
   16.3709  -16.2157   21.5088 O   0  0  0  0  0  0  0  0  0  0  0  0
   15.6966  -15.3541   23.4507 O   0  0  0  0  0  0  0  0  0  0  0  0
  1  2  1  0
  3  2  1  0
  3  5  1  0
  4  3  2  0
  6  5  1  0
  6  7  1  6
  8 12  1  0
  8  7  1  0
  9  8  2  0
 10  9  1  0
 10 11  1  0
 11 12  2  0
 13  6  1  0
 13 21  1  0
 14 13  2  0
 16 18  1  0
 16 15  1  0
 17 16  2  0
 19 18  1  0
 20 21  1  0
 20 19  1  1
 22 20  1  0
 23 22  1  0
 24 22  2  0
M  END
$$$$
