GHQ.pdb
     RDKit          3D

 24 24  0  0  1  0  0  0  0  0999 V2000
    6.7635  -19.6569   19.9937 N   0  0  0  0  0  0  0  0  0  0  0  0
    6.3790  -18.4874   20.7277 C   0  0  0  0  0  0  0  0  0  0  0  0
    7.4717  -17.4869   20.6346 C   0  0  0  0  0  0  0  0  0  0  0  0
    8.5785  -17.8103   20.1633 O   0  0  0  0  0  0  0  0  0  0  0  0
    7.2943  -16.1344   21.0771 N   0  0  0  0  0  0  0  0  0  0  0  0
    8.3724  -15.1838   21.0276 C   0  0  1  0  0  0  0  0  0  0  0  0
    7.9138  -13.8221   20.5548 C   0  0  0  0  0  0  0  0  0  0  0  0
    7.7355  -13.7283   19.1121 C   0  0  0  0  0  0  0  0  0  0  0  0
    8.3166  -12.7978   18.2851 C   0  0  0  0  0  0  0  0  0  0  0  0
    7.8989  -13.0533   17.0315 N   0  0  0  0  0  0  0  0  0  0  0  0
    7.0760  -14.1124   17.0456 C   0  0  0  0  0  0  0  0  0  0  0  0
    6.9846  -14.5199   18.3436 N   0  0  0  0  0  0  0  0  0  0  0  0
    9.0917  -15.0973   22.3228 C   0  0  0  0  0  0  0  0  0  0  0  0
    8.4673  -14.7356   23.3401 O   0  0  0  0  0  0  0  0  0  0  0  0
    9.0231  -18.0810   26.2150 N   0  0  0  0  0  0  0  0  0  0  0  0
   10.3977  -18.1243   26.4845 C   0  0  0  0  0  0  0  0  0  0  0  0
   10.8970  -18.5610   27.5537 O   0  0  0  0  0  0  0  0  0  0  0  0
   11.3277  -17.6121   25.4179 C   0  0  0  0  0  0  0  0  0  0  0  0
   10.5584  -17.1272   24.2267 C   0  0  0  0  0  0  0  0  0  0  0  0
   11.0786  -15.8490   23.7213 C   0  0  2  0  0  0  0  0  0  0  0  0
   10.4622  -15.4026   22.4857 N   0  0  0  0  0  0  0  0  0  0  0  0
   12.5252  -15.9606   23.4508 C   0  0  0  0  0  0  0  0  0  0  0  0
   13.4059  -15.9372   24.5566 O   0  0  0  0  0  0  0  0  0  0  0  0
   13.0865  -16.0749   22.3550 O   0  0  0  0  0  0  0  0  0  0  0  0
  1  2  1  0
  3  2  1  0
  3  5  1  0
  4  3  2  0
  6  5  1  0
  6  7  1  1
  8 12  1  0
  8  7  1  0
  9  8  2  0
 10  9  1  0
 10 11  1  0
 11 12  2  0
 13  6  1  0
 13 21  1  0
 14 13  2  0
 16 18  1  0
 16 15  1  0
 17 16  2  0
 19 18  1  0
 20 21  1  0
 20 19  1  6
 22 20  1  0
 23 22  1  0
 24 22  2  0
M  END
$$$$
