GHQ.pdb
     RDKit          3D

 24 24  0  0  1  0  0  0  0  0999 V2000
    5.1011  -19.1124   20.4972 N   0  0  0  0  0  0  0  0  0  0  0  0
    4.7664  -17.9326   21.2391 C   0  0  0  0  0  0  0  0  0  0  0  0
    6.0222  -17.2826   21.6908 C   0  0  0  0  0  0  0  0  0  0  0  0
    7.0596  -17.9568   21.8351 O   0  0  0  0  0  0  0  0  0  0  0  0
    6.0840  -15.8778   21.9724 N   0  0  0  0  0  0  0  0  0  0  0  0
    7.2910  -15.2648   22.4581 C   0  0  1  0  0  0  0  0  0  0  0  0
    7.4157  -13.8217   22.0223 C   0  0  0  0  0  0  0  0  0  0  0  0
    7.7524  -13.6581   20.6145 C   0  0  0  0  0  0  0  0  0  0  0  0
    8.7908  -12.9106   20.1138 C   0  0  0  0  0  0  0  0  0  0  0  0
    8.7585  -13.0197   18.7728 N   0  0  0  0  0  0  0  0  0  0  0  0
    7.7350  -13.8103   18.4169 C   0  0  0  0  0  0  0  0  0  0  0  0
    7.1205  -14.1984   19.5706 N   0  0  0  0  0  0  0  0  0  0  0  0
    7.4270  -15.4036   23.9293 C   0  0  0  0  0  0  0  0  0  0  0  0
    6.4668  -15.0865   24.6595 O   0  0  0  0  0  0  0  0  0  0  0  0
    7.1653  -20.3453   26.1916 N   0  0  0  0  0  0  0  0  0  0  0  0
    7.7151  -19.8338   27.3749 C   0  0  0  0  0  0  0  0  0  0  0  0
    7.7654  -20.4633   28.4632 O   0  0  0  0  0  0  0  0  0  0  0  0
    8.2790  -18.4393   27.3286 C   0  0  0  0  0  0  0  0  0  0  0  0
    8.1741  -17.8664   25.9479 C   0  0  0  0  0  0  0  0  0  0  0  0
    8.6345  -16.4717   25.8965 C   0  0  2  0  0  0  0  0  0  0  0  0
    8.5924  -15.8795   24.5722 N   0  0  0  0  0  0  0  0  0  0  0  0
   10.0360  -16.3824   26.3504 C   0  0  0  0  0  0  0  0  0  0  0  0
   11.0167  -16.0305   25.3948 O   0  0  0  0  0  0  0  0  0  0  0  0
   10.4805  -16.5800   27.4872 O   0  0  0  0  0  0  0  0  0  0  0  0
  1  2  1  0
  3  2  1  0
  3  5  1  0
  4  3  2  0
  6  5  1  0
  6  7  1  1
  8 12  1  0
  8  7  1  0
  9  8  2  0
 10  9  1  0
 10 11  1  0
 11 12  2  0
 13  6  1  0
 13 21  1  0
 14 13  2  0
 16 18  1  0
 16 15  1  0
 17 16  2  0
 19 18  1  0
 20 21  1  0
 20 19  1  6
 22 20  1  0
 23 22  1  0
 24 22  2  0
M  END
$$$$
