ELM.pdb
     RDKit          3D

 26 25  0  0  1  0  0  0  0  0999 V2000
    7.9167  -18.7532   21.2692 N   0  0  0  0  0  0  0  0  0  0  0  0
    9.1702  -18.0767   21.1649 C   0  0  1  0  0  0  0  0  0  0  0  0
    9.6014  -17.8220   19.7589 C   0  0  0  0  0  0  0  0  0  0  0  0
    8.5090  -17.4437   18.8271 C   0  0  0  0  0  0  0  0  0  0  0  0
    8.8563  -17.1506   17.4456 C   0  0  0  0  0  0  0  0  0  0  0  0
   10.0136  -17.2840   16.9889 O   0  0  0  0  0  0  0  0  0  0  0  0
    9.2743  -16.8420   21.9938 C   0  0  0  0  0  0  0  0  0  0  0  0
   10.3565  -16.1619   21.9416 O   0  0  0  0  0  0  0  0  0  0  0  0
    7.8466  -16.6905   16.5601 O   0  0  0  0  0  0  0  0  0  0  0  0
    7.8034  -12.3365   24.4848 C   0  0  0  0  0  0  0  0  0  0  0  0
    7.5706  -13.5893   25.3372 C   0  0  1  0  0  0  0  0  0  0  0  0
    6.3563  -13.3191   26.2514 C   0  0  0  0  0  0  0  0  0  0  0  0
    7.3210  -14.7910   24.4806 C   0  0  0  0  0  0  0  0  0  0  0  0
    8.5376  -15.1531   23.7036 C   0  0  2  0  0  0  0  0  0  0  0  0
    8.2826  -16.3292   22.8498 N   0  0  0  0  0  0  0  0  0  0  0  0
    9.6898  -15.4968   24.5887 C   0  0  0  0  0  0  0  0  0  0  0  0
   10.6132  -14.6976   24.8788 O   0  0  0  0  0  0  0  0  0  0  0  0
   10.8113  -13.2368   29.7747 C   0  0  0  0  0  0  0  0  0  0  0  0
   10.0991  -14.0231   28.3012 S   0  0  0  0  0  0  0  0  0  0  0  0
    9.8202  -15.8000   28.6795 C   0  0  0  0  0  0  0  0  0  0  0  0
    9.1963  -16.4881   27.5041 C   0  0  0  0  0  0  0  0  0  0  0  0
   10.2433  -17.0065   26.5605 C   0  0  2  0  0  0  0  0  0  0  0  0
    9.8097  -16.7950   25.1739 N   0  0  0  0  0  0  0  0  0  0  0  0
   10.5716  -18.3912   26.8176 C   0  0  0  0  0  0  0  0  0  0  0  0
   11.3496  -18.8228   27.8503 O   0  0  0  0  0  0  0  0  0  0  0  0
   10.1137  -19.2911   26.0316 O   0  0  0  0  0  0  0  0  0  0  0  0
  2  1  1  6
  3  2  1  0
  4  3  1  0
  5  6  2  0
  5  4  1  0
  7  2  1  0
  7  8  2  0
  9  5  1  0
 11 10  1  6
 12 11  1  0
 14 13  1  1
 13 11  1  0
 14 15  1  0
 15  7  1  0
 16 14  1  0
 17 16  2  0
 19 18  1  0
 19 20  1  0
 20 21  1  0
 22 21  1  1
 22 24  1  0
 22 23  1  0
 23 16  1  0
 24 25  1  0
 26 24  2  0
M  END
$$$$
