ELM.pdb
     RDKit          3D

 26 25  0  0  1  0  0  0  0  0999 V2000
    9.2160  -18.8112   19.2376 N   0  0  0  0  0  0  0  0  0  0  0  0
   10.3831  -18.3676   19.9308 C   0  0  1  0  0  0  0  0  0  0  0  0
   11.6083  -18.3236   19.0796 C   0  0  0  0  0  0  0  0  0  0  0  0
   11.4599  -17.5754   17.8057 C   0  0  0  0  0  0  0  0  0  0  0  0
   12.6199  -17.4656   16.9353 C   0  0  0  0  0  0  0  0  0  0  0  0
   12.9318  -16.4087   16.3425 O   0  0  0  0  0  0  0  0  0  0  0  0
   10.2042  -17.0946   20.6859 C   0  0  0  0  0  0  0  0  0  0  0  0
   11.2188  -16.5901   21.2796 O   0  0  0  0  0  0  0  0  0  0  0  0
   13.4480  -18.6017   16.7381 O   0  0  0  0  0  0  0  0  0  0  0  0
    6.8386  -13.1631   19.0863 C   0  0  0  0  0  0  0  0  0  0  0  0
    8.0683  -13.8694   19.6688 C   0  0  1  0  0  0  0  0  0  0  0  0
    9.2716  -12.9120   19.5316 C   0  0  0  0  0  0  0  0  0  0  0  0
    7.8554  -14.2366   21.1041 C   0  0  0  0  0  0  0  0  0  0  0  0
    8.9504  -15.1157   21.5970 C   0  0  2  0  0  0  0  0  0  0  0  0
    9.0071  -16.3679   20.8184 N   0  0  0  0  0  0  0  0  0  0  0  0
    8.7646  -15.4986   23.0281 C   0  0  0  0  0  0  0  0  0  0  0  0
    7.8609  -16.2685   23.4357 O   0  0  0  0  0  0  0  0  0  0  0  0
    6.2914  -11.1601   26.5807 C   0  0  0  0  0  0  0  0  0  0  0  0
    7.6885  -11.8637   27.5024 S   0  0  0  0  0  0  0  0  0  0  0  0
    7.8283  -13.6420   27.0595 C   0  0  0  0  0  0  0  0  0  0  0  0
    8.2362  -13.7880   25.6253 C   0  0  0  0  0  0  0  0  0  0  0  0
    9.2338  -14.8977   25.4555 C   0  0  2  0  0  0  0  0  0  0  0  0
    9.6322  -14.9949   24.0457 N   0  0  0  0  0  0  0  0  0  0  0  0
    8.7396  -16.1578   25.9643 C   0  0  0  0  0  0  0  0  0  0  0  0
    9.0007  -16.6445   27.2105 O   0  0  0  0  0  0  0  0  0  0  0  0
    8.0072  -16.8852   25.2081 O   0  0  0  0  0  0  0  0  0  0  0  0
  2  1  1  6
  3  2  1  0
  4  3  1  0
  5  6  2  0
  5  4  1  0
  7  2  1  0
  7  8  2  0
  9  5  1  0
 11 10  1  1
 12 11  1  0
 14 13  1  6
 13 11  1  0
 14 15  1  0
 15  7  1  0
 16 14  1  0
 17 16  2  0
 19 18  1  0
 19 20  1  0
 20 21  1  0
 22 21  1  6
 22 24  1  0
 22 23  1  0
 23 16  1  0
 24 25  1  0
 26 24  2  0
M  END
$$$$
