ELM.pdb
     RDKit          3D

 26 25  0  0  1  0  0  0  0  0999 V2000
    9.8343  -18.2069   18.5151 N   0  0  0  0  0  0  0  0  0  0  0  0
   10.9519  -17.4771   19.0228 C   0  0  1  0  0  0  0  0  0  0  0  0
   11.8717  -16.9702   17.9623 C   0  0  0  0  0  0  0  0  0  0  0  0
   12.7073  -18.0090   17.3086 C   0  0  0  0  0  0  0  0  0  0  0  0
   13.9565  -17.5951   16.6893 C   0  0  0  0  0  0  0  0  0  0  0  0
   14.7974  -16.8695   17.2656 O   0  0  0  0  0  0  0  0  0  0  0  0
   10.5957  -16.3991   19.9891 C   0  0  0  0  0  0  0  0  0  0  0  0
   11.5395  -15.8095   20.6201 O   0  0  0  0  0  0  0  0  0  0  0  0
   14.2511  -18.0257   15.3690 O   0  0  0  0  0  0  0  0  0  0  0  0
    6.5310  -12.9054   19.2243 C   0  0  0  0  0  0  0  0  0  0  0  0
    7.8863  -13.4927   19.6351 C   0  0  1  0  0  0  0  0  0  0  0  0
    8.9151  -12.3418   19.6481 C   0  0  0  0  0  0  0  0  0  0  0  0
    7.8121  -14.1408   20.9822 C   0  0  0  0  0  0  0  0  0  0  0  0
    9.0655  -14.8838   21.2854 C   0  0  2  0  0  0  0  0  0  0  0  0
    9.2978  -15.9471   20.2891 N   0  0  0  0  0  0  0  0  0  0  0  0
    9.0204  -15.5417   22.6249 C   0  0  0  0  0  0  0  0  0  0  0  0
    8.4409  -16.6320   22.8508 O   0  0  0  0  0  0  0  0  0  0  0  0
    7.0591  -11.5855   27.4445 C   0  0  0  0  0  0  0  0  0  0  0  0
    6.0493  -12.9610   26.8240 S   0  0  0  0  0  0  0  0  0  0  0  0
    7.1592  -14.3946   26.5223 C   0  0  0  0  0  0  0  0  0  0  0  0
    7.7890  -14.2859   25.1673 C   0  0  0  0  0  0  0  0  0  0  0  0
    9.0948  -15.0259   25.1153 C   0  0  2  0  0  0  0  0  0  0  0  0
    9.6546  -14.9492   23.7602 N   0  0  0  0  0  0  0  0  0  0  0  0
    8.9652  -16.3930   25.5686 C   0  0  0  0  0  0  0  0  0  0  0  0
    9.1679  -17.4900   24.7854 O   0  0  0  0  0  0  0  0  0  0  0  0
    8.6346  -16.6120   26.7852 O   0  0  0  0  0  0  0  0  0  0  0  0
  2  1  1  6
  3  2  1  0
  4  3  1  0
  5  6  2  0
  5  4  1  0
  7  2  1  0
  7  8  2  0
  9  5  1  0
 11 10  1  1
 12 11  1  0
 14 13  1  6
 13 11  1  0
 14 15  1  0
 15  7  1  0
 16 14  1  0
 17 16  2  0
 19 18  1  0
 19 20  1  0
 20 21  1  0
 22 21  1  6
 22 24  1  0
 22 23  1  0
 23 16  1  0
 24 25  1  0
 26 24  2  0
M  END
$$$$
