ELM.pdb
     RDKit          3D

 26 25  0  0  1  0  0  0  0  0999 V2000
    9.3611  -18.9845   18.9670 N   0  0  0  0  0  0  0  0  0  0  0  0
   10.5505  -18.2242   19.1836 C   0  0  1  0  0  0  0  0  0  0  0  0
   11.1678  -17.7021   17.9290 C   0  0  0  0  0  0  0  0  0  0  0  0
   11.8512  -18.7228   17.0949 C   0  0  0  0  0  0  0  0  0  0  0  0
   12.7717  -18.2642   16.0665 C   0  0  0  0  0  0  0  0  0  0  0  0
   13.9901  -18.0716   16.2766 O   0  0  0  0  0  0  0  0  0  0  0  0
   10.4159  -17.1489   20.2074 C   0  0  0  0  0  0  0  0  0  0  0  0
   11.4629  -16.4987   20.5501 O   0  0  0  0  0  0  0  0  0  0  0  0
   12.2811  -18.0186   14.7572 O   0  0  0  0  0  0  0  0  0  0  0  0
    6.2819  -13.6473   20.3970 C   0  0  0  0  0  0  0  0  0  0  0  0
    7.6927  -14.2394   20.4942 C   0  0  1  0  0  0  0  0  0  0  0  0
    8.7020  -13.0803   20.3486 C   0  0  0  0  0  0  0  0  0  0  0  0
    7.8965  -14.9475   21.7969 C   0  0  0  0  0  0  0  0  0  0  0  0
    9.2095  -15.6476   21.8227 C   0  0  2  0  0  0  0  0  0  0  0  0
    9.2285  -16.7606   20.8541 N   0  0  0  0  0  0  0  0  0  0  0  0
    9.5113  -16.2300   23.1640 C   0  0  0  0  0  0  0  0  0  0  0  0
    9.1636  -17.3817   23.5221 O   0  0  0  0  0  0  0  0  0  0  0  0
    9.6180  -12.3251   28.2360 C   0  0  0  0  0  0  0  0  0  0  0  0
   10.5908  -13.6751   28.9628 S   0  0  0  0  0  0  0  0  0  0  0  0
   10.4023  -15.1566   27.8916 C   0  0  0  0  0  0  0  0  0  0  0  0
   10.2549  -14.7445   26.4588 C   0  0  0  0  0  0  0  0  0  0  0  0
   10.3698  -15.9268   25.5398 C   0  0  2  0  0  0  0  0  0  0  0  0
   10.2358  -15.4861   24.1457 N   0  0  0  0  0  0  0  0  0  0  0  0
    9.4221  -16.9680   25.8697 C   0  0  0  0  0  0  0  0  0  0  0  0
    9.7543  -18.1703   26.4195 O   0  0  0  0  0  0  0  0  0  0  0  0
    8.1800  -16.7703   25.6344 O   0  0  0  0  0  0  0  0  0  0  0  0
  2  1  1  6
  3  2  1  0
  4  3  1  0
  5  6  2  0
  5  4  1  0
  7  2  1  0
  7  8  2  0
  9  5  1  0
 11 10  1  1
 12 11  1  0
 14 13  1  1
 13 11  1  0
 14 15  1  0
 15  7  1  0
 16 14  1  0
 17 16  2  0
 19 18  1  0
 19 20  1  0
 20 21  1  0
 22 21  1  1
 22 24  1  0
 22 23  1  0
 23 16  1  0
 24 25  1  0
 26 24  2  0
M  END
$$$$
