ELM.pdb
     RDKit          3D

 26 25  0  0  1  0  0  0  0  0999 V2000
    9.6485  -16.7009   19.3577 N   0  0  0  0  0  0  0  0  0  0  0  0
    9.0640  -17.1950   20.5634 C   0  0  1  0  0  0  0  0  0  0  0  0
    9.4889  -18.5823   20.9136 C   0  0  0  0  0  0  0  0  0  0  0  0
    9.2061  -19.6054   19.8753 C   0  0  0  0  0  0  0  0  0  0  0  0
    9.6160  -20.9766   20.1336 C   0  0  0  0  0  0  0  0  0  0  0  0
    9.3721  -21.9218   19.3507 O   0  0  0  0  0  0  0  0  0  0  0  0
    9.1956  -16.2787   21.7320 C   0  0  0  0  0  0  0  0  0  0  0  0
   10.2974  -15.6486   21.8918 O   0  0  0  0  0  0  0  0  0  0  0  0
   10.3274  -21.2741   21.3256 O   0  0  0  0  0  0  0  0  0  0  0  0
    8.0437  -12.3558   25.1125 C   0  0  0  0  0  0  0  0  0  0  0  0
    7.5020  -13.7080   25.5904 C   0  0  1  0  0  0  0  0  0  0  0  0
    6.2088  -13.4423   26.3905 C   0  0  0  0  0  0  0  0  0  0  0  0
    7.2232  -14.6203   24.4370 C   0  0  0  0  0  0  0  0  0  0  0  0
    8.4873  -15.1650   23.8712 C   0  0  2  0  0  0  0  0  0  0  0  0
    8.2110  -16.0242   22.7039 N   0  0  0  0  0  0  0  0  0  0  0  0
    9.2344  -15.9978   24.8600 C   0  0  0  0  0  0  0  0  0  0  0  0
    9.0842  -17.2374   24.9874 O   0  0  0  0  0  0  0  0  0  0  0  0
   10.5098  -13.6945   31.3842 C   0  0  0  0  0  0  0  0  0  0  0  0
   11.5535  -13.8054   29.9027 S   0  0  0  0  0  0  0  0  0  0  0  0
   10.9811  -15.2397   28.9060 C   0  0  0  0  0  0  0  0  0  0  0  0
   11.7380  -15.3085   27.6150 C   0  0  0  0  0  0  0  0  0  0  0  0
   11.0498  -16.2094   26.6301 C   0  0  2  0  0  0  0  0  0  0  0  0
   10.1924  -15.4123   25.7440 N   0  0  0  0  0  0  0  0  0  0  0  0
   10.3134  -17.2692   27.2826 C   0  0  0  0  0  0  0  0  0  0  0  0
   10.8501  -18.4631   27.6630 O   0  0  0  0  0  0  0  0  0  0  0  0
    9.0691  -17.0978   27.5265 O   0  0  0  0  0  0  0  0  0  0  0  0
  2  1  1  6
  3  2  1  0
  4  3  1  0
  5  6  2  0
  5  4  1  0
  7  2  1  0
  7  8  2  0
  9  5  1  0
 11 10  1  6
 12 11  1  0
 14 13  1  1
 13 11  1  0
 14 15  1  0
 15  7  1  0
 16 14  1  0
 17 16  2  0
 19 18  1  0
 19 20  1  0
 20 21  1  0
 22 21  1  1
 22 24  1  0
 22 23  1  0
 23 16  1  0
 24 25  1  0
 26 24  2  0
M  END
$$$$
