ELM.pdb
     RDKit          3D

 26 25  0  0  1  0  0  0  0  0999 V2000
    9.2975  -18.5844   19.0066 N   0  0  0  0  0  0  0  0  0  0  0  0
   10.4583  -18.0247   19.6221 C   0  0  1  0  0  0  0  0  0  0  0  0
   11.5925  -17.8029   18.6776 C   0  0  0  0  0  0  0  0  0  0  0  0
   11.2323  -17.1016   17.4194 C   0  0  0  0  0  0  0  0  0  0  0  0
   12.2801  -16.8731   16.4371 C   0  0  0  0  0  0  0  0  0  0  0  0
   12.0719  -16.3288   15.3298 O   0  0  0  0  0  0  0  0  0  0  0  0
   10.1940  -16.8092   20.4438 C   0  0  0  0  0  0  0  0  0  0  0  0
   11.1619  -16.2989   21.1066 O   0  0  0  0  0  0  0  0  0  0  0  0
   13.6075  -17.2809   16.7325 O   0  0  0  0  0  0  0  0  0  0  0  0
    7.0203  -12.6254   18.9176 C   0  0  0  0  0  0  0  0  0  0  0  0
    8.1544  -13.4606   19.5232 C   0  0  1  0  0  0  0  0  0  0  0  0
    9.3827  -12.5400   19.6876 C   0  0  0  0  0  0  0  0  0  0  0  0
    7.7569  -14.0401   20.8447 C   0  0  0  0  0  0  0  0  0  0  0  0
    8.8291  -14.9198   21.3847 C   0  0  2  0  0  0  0  0  0  0  0  0
    8.9612  -16.1437   20.5711 N   0  0  0  0  0  0  0  0  0  0  0  0
    8.5496  -15.3539   22.7856 C   0  0  0  0  0  0  0  0  0  0  0  0
    7.6225  -16.1376   23.1044 O   0  0  0  0  0  0  0  0  0  0  0  0
    6.0542  -11.2992   27.1114 C   0  0  0  0  0  0  0  0  0  0  0  0
    5.5937  -13.0435   26.9060 S   0  0  0  0  0  0  0  0  0  0  0  0
    7.1384  -14.0338   26.7993 C   0  0  0  0  0  0  0  0  0  0  0  0
    7.5814  -14.1504   25.3729 C   0  0  0  0  0  0  0  0  0  0  0  0
    8.8785  -14.9000   25.2674 C   0  0  2  0  0  0  0  0  0  0  0  0
    9.3468  -14.8874   23.8760 N   0  0  0  0  0  0  0  0  0  0  0  0
    8.7752  -16.2446   25.7894 C   0  0  0  0  0  0  0  0  0  0  0  0
    9.0768  -16.6025   27.0696 O   0  0  0  0  0  0  0  0  0  0  0  0
    8.3786  -17.1805   25.0122 O   0  0  0  0  0  0  0  0  0  0  0  0
  2  1  1  6
  3  2  1  0
  4  3  1  0
  5  6  2  0
  5  4  1  0
  7  2  1  0
  7  8  2  0
  9  5  1  0
 11 10  1  1
 12 11  1  0
 14 13  1  6
 13 11  1  0
 14 15  1  0
 15  7  1  0
 16 14  1  0
 17 16  2  0
 19 18  1  0
 19 20  1  0
 20 21  1  0
 22 21  1  6
 22 24  1  0
 22 23  1  0
 23 16  1  0
 24 25  1  0
 26 24  2  0
M  END
$$$$
