ELM.pdb
     RDKit          3D

 26 25  0  0  1  0  0  0  0  0999 V2000
    9.2131  -18.8101   19.8890 N   0  0  0  0  0  0  0  0  0  0  0  0
   10.5022  -18.2062   20.0032 C   0  0  1  0  0  0  0  0  0  0  0  0
   11.2441  -18.1225   18.7108 C   0  0  0  0  0  0  0  0  0  0  0  0
   10.5865  -18.8012   17.5656 C   0  0  0  0  0  0  0  0  0  0  0  0
   11.2627  -18.7849   16.2781 C   0  0  0  0  0  0  0  0  0  0  0  0
   12.4421  -18.3937   16.1306 O   0  0  0  0  0  0  0  0  0  0  0  0
   10.5077  -16.8963   20.7149 C   0  0  0  0  0  0  0  0  0  0  0  0
   11.6312  -16.3226   20.9278 O   0  0  0  0  0  0  0  0  0  0  0  0
   10.5662  -19.2306   15.1241 O   0  0  0  0  0  0  0  0  0  0  0  0
    6.2177  -13.4955   20.2038 C   0  0  0  0  0  0  0  0  0  0  0  0
    7.6310  -14.0880   20.2449 C   0  0  1  0  0  0  0  0  0  0  0  0
    8.5390  -13.2048   19.3624 C   0  0  0  0  0  0  0  0  0  0  0  0
    8.1576  -14.1416   21.6449 C   0  0  0  0  0  0  0  0  0  0  0  0
    9.4819  -14.8190   21.6902 C   0  0  2  0  0  0  0  0  0  0  0  0
    9.3793  -16.2032   21.1895 N   0  0  0  0  0  0  0  0  0  0  0  0
   10.0287  -14.8952   23.0774 C   0  0  0  0  0  0  0  0  0  0  0  0
   10.5658  -13.9295   23.6728 O   0  0  0  0  0  0  0  0  0  0  0  0
   10.3054  -12.8046   28.5141 C   0  0  0  0  0  0  0  0  0  0  0  0
    8.9108  -13.2859   27.4557 S   0  0  0  0  0  0  0  0  0  0  0  0
    8.9312  -15.1153   27.2800 C   0  0  0  0  0  0  0  0  0  0  0  0
    8.7554  -15.4996   25.8426 C   0  0  0  0  0  0  0  0  0  0  0  0
    9.9993  -16.1398   25.2964 C   0  0  2  0  0  0  0  0  0  0  0  0
    9.9692  -16.1092   23.8288 N   0  0  0  0  0  0  0  0  0  0  0  0
   10.1908  -17.4802   25.8040 C   0  0  0  0  0  0  0  0  0  0  0  0
   10.3820  -18.5823   25.0250 O   0  0  0  0  0  0  0  0  0  0  0  0
   10.1800  -17.6692   27.0695 O   0  0  0  0  0  0  0  0  0  0  0  0
  2  1  1  6
  3  2  1  0
  4  3  1  0
  5  6  2  0
  5  4  1  0
  7  2  1  0
  7  8  2  0
  9  5  1  0
 11 10  1  1
 12 11  1  0
 14 13  1  1
 13 11  1  0
 14 15  1  0
 15  7  1  0
 16 14  1  0
 17 16  2  0
 19 18  1  0
 19 20  1  0
 20 21  1  0
 22 21  1  1
 22 24  1  0
 22 23  1  0
 23 16  1  0
 24 25  1  0
 26 24  2  0
M  END
$$$$
