ELM.pdb
     RDKit          3D

 26 25  0  0  1  0  0  0  0  0999 V2000
    9.3716  -18.9942   20.0479 N   0  0  0  0  0  0  0  0  0  0  0  0
   10.3983  -18.1050   19.6066 C   0  0  1  0  0  0  0  0  0  0  0  0
   10.4534  -17.9378   18.1245 C   0  0  0  0  0  0  0  0  0  0  0  0
   11.3422  -18.8950   17.4184 C   0  0  0  0  0  0  0  0  0  0  0  0
   12.0825  -18.4181   16.2609 C   0  0  0  0  0  0  0  0  0  0  0  0
   12.9081  -17.4796   16.3171 O   0  0  0  0  0  0  0  0  0  0  0  0
   10.4096  -16.7852   20.2998 C   0  0  0  0  0  0  0  0  0  0  0  0
   11.4363  -16.0341   20.1644 O   0  0  0  0  0  0  0  0  0  0  0  0
   11.8701  -19.0356   15.0004 O   0  0  0  0  0  0  0  0  0  0  0  0
    6.1346  -13.4787   20.5290 C   0  0  0  0  0  0  0  0  0  0  0  0
    7.5908  -13.9508   20.4439 C   0  0  1  0  0  0  0  0  0  0  0  0
    8.4169  -12.8187   19.7964 C   0  0  0  0  0  0  0  0  0  0  0  0
    8.1344  -14.2837   21.7981 C   0  0  0  0  0  0  0  0  0  0  0  0
    9.4802  -14.9102   21.6923 C   0  0  2  0  0  0  0  0  0  0  0  0
    9.3840  -16.2617   21.1079 N   0  0  0  0  0  0  0  0  0  0  0  0
   10.1404  -15.0554   23.0236 C   0  0  0  0  0  0  0  0  0  0  0  0
   10.5622  -14.0896   23.7054 O   0  0  0  0  0  0  0  0  0  0  0  0
    9.2320  -13.5160   28.8245 C   0  0  0  0  0  0  0  0  0  0  0  0
    9.3312  -14.0315   27.0864 S   0  0  0  0  0  0  0  0  0  0  0  0
    8.9236  -15.8215   26.9968 C   0  0  0  0  0  0  0  0  0  0  0  0
    8.8936  -16.2751   25.5692 C   0  0  0  0  0  0  0  0  0  0  0  0
   10.2771  -16.5687   25.0643 C   0  0  2  0  0  0  0  0  0  0  0  0
   10.3347  -16.3417   23.6149 N   0  0  0  0  0  0  0  0  0  0  0  0
   10.7161  -17.9001   25.4194 C   0  0  0  0  0  0  0  0  0  0  0  0
   11.0329  -18.2984   26.6839 O   0  0  0  0  0  0  0  0  0  0  0  0
   10.8255  -18.7810   24.4979 O   0  0  0  0  0  0  0  0  0  0  0  0
  2  1  1  6
  3  2  1  0
  4  3  1  0
  5  6  2  0
  5  4  1  0
  7  2  1  0
  7  8  2  0
  9  5  1  0
 11 10  1  1
 12 11  1  0
 14 13  1  1
 13 11  1  0
 14 15  1  0
 15  7  1  0
 16 14  1  0
 17 16  2  0
 19 18  1  0
 19 20  1  0
 20 21  1  0
 22 21  1  6
 22 24  1  0
 22 23  1  0
 23 16  1  0
 24 25  1  0
 26 24  2  0
M  END
$$$$
