ELM.pdb
     RDKit          3D

 26 25  0  0  1  0  0  0  0  0999 V2000
    8.7580  -18.6859   20.8195 N   0  0  0  0  0  0  0  0  0  0  0  0
    9.8044  -17.7265   20.6638 C   0  0  1  0  0  0  0  0  0  0  0  0
    9.8665  -17.1196   19.3017 C   0  0  0  0  0  0  0  0  0  0  0  0
   11.0730  -17.4740   18.5121 C   0  0  0  0  0  0  0  0  0  0  0  0
   10.9594  -17.5053   17.0625 C   0  0  0  0  0  0  0  0  0  0  0  0
   10.0090  -18.0559   16.4632 O   0  0  0  0  0  0  0  0  0  0  0  0
    9.8421  -16.6790   21.7240 C   0  0  0  0  0  0  0  0  0  0  0  0
   10.8300  -15.8665   21.7435 O   0  0  0  0  0  0  0  0  0  0  0  0
   11.9660  -16.8868   16.2753 O   0  0  0  0  0  0  0  0  0  0  0  0
    8.3139  -12.6796   24.5675 C   0  0  0  0  0  0  0  0  0  0  0  0
    7.9516  -13.9470   25.3503 C   0  0  1  0  0  0  0  0  0  0  0  0
    6.6374  -13.6718   26.1122 C   0  0  0  0  0  0  0  0  0  0  0  0
    7.7886  -15.1219   24.4375 C   0  0  0  0  0  0  0  0  0  0  0  0
    9.0845  -15.4877   23.8037 C   0  0  2  0  0  0  0  0  0  0  0  0
    8.8812  -16.4817   22.7323 N   0  0  0  0  0  0  0  0  0  0  0  0
   10.0403  -16.0878   24.7813 C   0  0  0  0  0  0  0  0  0  0  0  0
   11.2219  -16.4051   24.5012 O   0  0  0  0  0  0  0  0  0  0  0  0
    9.4100  -12.4569   28.1407 C   0  0  0  0  0  0  0  0  0  0  0  0
   10.4244  -13.4204   29.2980 S   0  0  0  0  0  0  0  0  0  0  0  0
   11.2509  -14.7628   28.3530 C   0  0  0  0  0  0  0  0  0  0  0  0
   10.4322  -16.0161   28.4097 C   0  0  0  0  0  0  0  0  0  0  0  0
   10.5898  -16.8243   27.1538 C   0  0  2  0  0  0  0  0  0  0  0  0
    9.6516  -16.3420   26.1327 N   0  0  0  0  0  0  0  0  0  0  0  0
   10.4416  -18.2423   27.3957 C   0  0  0  0  0  0  0  0  0  0  0  0
   11.3764  -19.0248   28.0055 O   0  0  0  0  0  0  0  0  0  0  0  0
    9.3676  -18.8250   27.0158 O   0  0  0  0  0  0  0  0  0  0  0  0
  2  1  1  6
  3  2  1  0
  4  3  1  0
  5  6  2  0
  5  4  1  0
  7  2  1  0
  7  8  2  0
  9  5  1  0
 11 10  1  6
 12 11  1  0
 14 13  1  1
 13 11  1  0
 14 15  1  0
 15  7  1  0
 16 14  1  0
 17 16  2  0
 19 18  1  0
 19 20  1  0
 20 21  1  0
 22 21  1  1
 22 24  1  0
 22 23  1  0
 23 16  1  0
 24 25  1  0
 26 24  2  0
M  END
$$$$
