ELM.pdb
     RDKit          3D

 26 25  0  0  1  0  0  0  0  0999 V2000
    8.1135  -18.5649   21.1440 N   0  0  0  0  0  0  0  0  0  0  0  0
    9.3754  -17.8962   21.1442 C   0  0  1  0  0  0  0  0  0  0  0  0
    9.8965  -17.5941   19.7786 C   0  0  0  0  0  0  0  0  0  0  0  0
    9.7926  -18.7118   18.8067 C   0  0  0  0  0  0  0  0  0  0  0  0
   10.2255  -18.4740   17.4388 C   0  0  0  0  0  0  0  0  0  0  0  0
    9.6309  -18.9426   16.4426 O   0  0  0  0  0  0  0  0  0  0  0  0
    9.4347  -16.6935   22.0232 C   0  0  0  0  0  0  0  0  0  0  0  0
   10.4538  -15.9250   21.9372 O   0  0  0  0  0  0  0  0  0  0  0  0
   11.3753  -17.6748   17.2052 O   0  0  0  0  0  0  0  0  0  0  0  0
    7.7971  -12.2406   24.5435 C   0  0  0  0  0  0  0  0  0  0  0  0
    7.5058  -13.5285   25.3226 C   0  0  1  0  0  0  0  0  0  0  0  0
    6.2260  -13.2975   26.1546 C   0  0  0  0  0  0  0  0  0  0  0  0
    7.3245  -14.6929   24.3998 C   0  0  0  0  0  0  0  0  0  0  0  0
    8.6107  -15.0610   23.7478 C   0  0  2  0  0  0  0  0  0  0  0  0
    8.4632  -16.3011   22.9619 N   0  0  0  0  0  0  0  0  0  0  0  0
    9.6983  -15.3003   24.7424 C   0  0  0  0  0  0  0  0  0  0  0  0
   10.5216  -14.4248   25.1045 O   0  0  0  0  0  0  0  0  0  0  0  0
    9.9588  -13.2755   29.0576 C   0  0  0  0  0  0  0  0  0  0  0  0
   10.7389  -14.6012   30.0224 S   0  0  0  0  0  0  0  0  0  0  0  0
   10.9633  -16.0546   28.9200 C   0  0  0  0  0  0  0  0  0  0  0  0
   10.1634  -15.8813   27.6652 C   0  0  0  0  0  0  0  0  0  0  0  0
   10.6683  -16.7786   26.5719 C   0  0  2  0  0  0  0  0  0  0  0  0
    9.8681  -16.5790   25.3573 N   0  0  0  0  0  0  0  0  0  0  0  0
   10.6981  -18.1668   26.9759 C   0  0  0  0  0  0  0  0  0  0  0  0
    9.9615  -19.1568   26.3969 O   0  0  0  0  0  0  0  0  0  0  0  0
   11.4592  -18.5122   27.9449 O   0  0  0  0  0  0  0  0  0  0  0  0
  2  1  1  6
  3  2  1  0
  4  3  1  0
  5  6  2  0
  5  4  1  0
  7  2  1  0
  7  8  2  0
  9  5  1  0
 11 10  1  6
 12 11  1  0
 14 13  1  1
 13 11  1  0
 14 15  1  0
 15  7  1  0
 16 14  1  0
 17 16  2  0
 19 18  1  0
 19 20  1  0
 20 21  1  0
 22 21  1  1
 22 24  1  0
 22 23  1  0
 23 16  1  0
 24 25  1  0
 26 24  2  0
M  END
$$$$
