ELM.pdb
     RDKit          3D

 26 25  0  0  1  0  0  0  0  0999 V2000
    9.3742  -16.4964   19.3194 N   0  0  0  0  0  0  0  0  0  0  0  0
    8.5360  -16.8506   20.4201 C   0  0  1  0  0  0  0  0  0  0  0  0
    8.4924  -18.3168   20.6958 C   0  0  0  0  0  0  0  0  0  0  0  0
    9.7421  -18.8858   21.2607 C   0  0  0  0  0  0  0  0  0  0  0  0
    9.7750  -20.3091   21.5579 C   0  0  0  0  0  0  0  0  0  0  0  0
    9.1934  -20.8150   22.5435 O   0  0  0  0  0  0  0  0  0  0  0  0
    8.7951  -16.0742   21.6661 C   0  0  0  0  0  0  0  0  0  0  0  0
    9.9853  -15.6636   21.8924 O   0  0  0  0  0  0  0  0  0  0  0  0
   10.4966  -21.1794   20.6993 O   0  0  0  0  0  0  0  0  0  0  0  0
    7.9788  -12.0879   25.1170 C   0  0  0  0  0  0  0  0  0  0  0  0
    7.3054  -13.3951   25.5509 C   0  0  1  0  0  0  0  0  0  0  0  0
    6.0276  -13.0296   26.3365 C   0  0  0  0  0  0  0  0  0  0  0  0
    6.9649  -14.2493   24.3700 C   0  0  0  0  0  0  0  0  0  0  0  0
    8.1901  -14.8512   23.7772 C   0  0  2  0  0  0  0  0  0  0  0  0
    7.8451  -15.7340   22.6463 N   0  0  0  0  0  0  0  0  0  0  0  0
    8.9452  -15.6792   24.7639 C   0  0  0  0  0  0  0  0  0  0  0  0
    8.4744  -16.6944   25.3323 O   0  0  0  0  0  0  0  0  0  0  0  0
    9.6550  -13.5215   29.7466 C   0  0  0  0  0  0  0  0  0  0  0  0
   10.8032  -14.8390   30.2389 S   0  0  0  0  0  0  0  0  0  0  0  0
   11.2514  -15.7978   28.7362 C   0  0  0  0  0  0  0  0  0  0  0  0
   10.6845  -15.1414   27.5147 C   0  0  0  0  0  0  0  0  0  0  0  0
   10.9684  -15.9515   26.2824 C   0  0  2  0  0  0  0  0  0  0  0  0
   10.2879  -15.3525   25.1275 N   0  0  0  0  0  0  0  0  0  0  0  0
   10.6174  -17.3440   26.4524 C   0  0  0  0  0  0  0  0  0  0  0  0
   11.4737  -18.3093   26.8917 O   0  0  0  0  0  0  0  0  0  0  0  0
    9.4264  -17.7197   26.1736 O   0  0  0  0  0  0  0  0  0  0  0  0
  2  1  1  6
  3  2  1  0
  4  3  1  0
  5  6  2  0
  5  4  1  0
  7  2  1  0
  7  8  2  0
  9  5  1  0
 11 10  1  6
 12 11  1  0
 14 13  1  1
 13 11  1  0
 14 15  1  0
 15  7  1  0
 16 14  1  0
 17 16  2  0
 19 18  1  0
 19 20  1  0
 20 21  1  0
 22 21  1  1
 22 24  1  0
 22 23  1  0
 23 16  1  0
 24 25  1  0
 26 24  2  0
M  END
$$$$
