ELM.pdb
     RDKit          3D

 26 25  0  0  1  0  0  0  0  0999 V2000
   10.8291  -18.9686   20.2377 N   0  0  0  0  0  0  0  0  0  0  0  0
   11.9590  -18.1532   20.5507 C   0  0  1  0  0  0  0  0  0  0  0  0
   12.5024  -17.4030   19.3804 C   0  0  0  0  0  0  0  0  0  0  0  0
   13.5869  -18.0962   18.6402 C   0  0  0  0  0  0  0  0  0  0  0  0
   14.1804  -17.4182   17.4986 C   0  0  0  0  0  0  0  0  0  0  0  0
   13.8046  -17.6077   16.3202 O   0  0  0  0  0  0  0  0  0  0  0  0
   11.7640  -17.2552   21.7246 C   0  0  0  0  0  0  0  0  0  0  0  0
   12.7836  -16.6509   22.2061 O   0  0  0  0  0  0  0  0  0  0  0  0
   15.2370  -16.4948   17.7138 O   0  0  0  0  0  0  0  0  0  0  0  0
    6.7529  -15.0861   23.4132 C   0  0  0  0  0  0  0  0  0  0  0  0
    8.0032  -15.9620   23.5550 C   0  0  1  0  0  0  0  0  0  0  0  0
    7.9065  -17.0952   22.5110 C   0  0  0  0  0  0  0  0  0  0  0  0
    9.2523  -15.1646   23.3445 C   0  0  0  0  0  0  0  0  0  0  0  0
   10.4610  -16.0215   23.4849 C   0  0  2  0  0  0  0  0  0  0  0  0
   10.5458  -16.9927   22.3772 N   0  0  0  0  0  0  0  0  0  0  0  0
   10.4508  -16.8064   24.7549 C   0  0  0  0  0  0  0  0  0  0  0  0
   10.3481  -18.0564   24.8051 O   0  0  0  0  0  0  0  0  0  0  0  0
    9.6810  -12.5620   27.6449 C   0  0  0  0  0  0  0  0  0  0  0  0
   10.5851  -13.2972   29.0373 S   0  0  0  0  0  0  0  0  0  0  0  0
   11.4046  -14.8305   28.4411 C   0  0  0  0  0  0  0  0  0  0  0  0
   10.4332  -15.9711   28.4423 C   0  0  0  0  0  0  0  0  0  0  0  0
   10.6829  -16.8974   27.2869 C   0  0  2  0  0  0  0  0  0  0  0  0
   10.5613  -16.1589   26.0239 N   0  0  0  0  0  0  0  0  0  0  0  0
    9.8177  -18.0557   27.3197 C   0  0  0  0  0  0  0  0  0  0  0  0
   10.1546  -19.2575   27.8676 O   0  0  0  0  0  0  0  0  0  0  0  0
    8.6512  -17.9705   26.8009 O   0  0  0  0  0  0  0  0  0  0  0  0
  2  1  1  6
  3  2  1  0
  4  3  1  0
  5  6  2  0
  5  4  1  0
  7  2  1  0
  7  8  2  0
  9  5  1  0
 11 10  1  6
 12 11  1  0
 14 13  1  6
 13 11  1  0
 14 15  1  0
 15  7  1  0
 16 14  1  0
 17 16  2  0
 19 18  1  0
 19 20  1  0
 20 21  1  0
 22 21  1  1
 22 24  1  0
 22 23  1  0
 23 16  1  0
 24 25  1  0
 26 24  2  0
M  END
$$$$
