ELM.pdb
     RDKit          3D

 26 25  0  0  1  0  0  0  0  0999 V2000
    9.5947  -17.2397   19.5637 N   0  0  0  0  0  0  0  0  0  0  0  0
    8.8444  -17.5119   20.7479 C   0  0  1  0  0  0  0  0  0  0  0  0
    9.0611  -18.8833   21.2956 C   0  0  0  0  0  0  0  0  0  0  0  0
   10.4607  -19.1883   21.6864 C   0  0  0  0  0  0  0  0  0  0  0  0
   10.7369  -20.4791   22.2969 C   0  0  0  0  0  0  0  0  0  0  0  0
    9.8495  -21.3317   22.5235 O   0  0  0  0  0  0  0  0  0  0  0  0
    8.9785  -16.4776   21.8131 C   0  0  0  0  0  0  0  0  0  0  0  0
   10.1293  -15.9569   22.0162 O   0  0  0  0  0  0  0  0  0  0  0  0
   12.0708  -20.8028   22.6592 O   0  0  0  0  0  0  0  0  0  0  0  0
    7.2756  -12.4087   24.7736 C   0  0  0  0  0  0  0  0  0  0  0  0
    7.2128  -13.7292   25.5500 C   0  0  1  0  0  0  0  0  0  0  0  0
    6.0166  -13.6483   26.5227 C   0  0  0  0  0  0  0  0  0  0  0  0
    7.0553  -14.8962   24.6261 C   0  0  0  0  0  0  0  0  0  0  0  0
    8.2076  -14.9929   23.6893 C   0  0  2  0  0  0  0  0  0  0  0  0
    7.9472  -15.9982   22.6411 N   0  0  0  0  0  0  0  0  0  0  0  0
    9.4653  -15.4004   24.3832 C   0  0  0  0  0  0  0  0  0  0  0  0
   10.5563  -14.7898   24.2718 O   0  0  0  0  0  0  0  0  0  0  0  0
   10.7539  -12.6357   28.5255 C   0  0  0  0  0  0  0  0  0  0  0  0
   10.8126  -14.0985   29.5994 S   0  0  0  0  0  0  0  0  0  0  0  0
   11.0390  -15.5801   28.5356 C   0  0  0  0  0  0  0  0  0  0  0  0
   10.1913  -15.4688   27.3053 C   0  0  0  0  0  0  0  0  0  0  0  0
   10.3976  -16.6462   26.3962 C   0  0  2  0  0  0  0  0  0  0  0  0
    9.4986  -16.5435   25.2400 N   0  0  0  0  0  0  0  0  0  0  0  0
   10.2417  -17.9051   27.0904 C   0  0  0  0  0  0  0  0  0  0  0  0
   11.2546  -18.7834   27.3364 O   0  0  0  0  0  0  0  0  0  0  0  0
    9.0798  -18.2404   27.5087 O   0  0  0  0  0  0  0  0  0  0  0  0
  2  1  1  6
  3  2  1  0
  4  3  1  0
  5  6  2  0
  5  4  1  0
  7  2  1  0
  7  8  2  0
  9  5  1  0
 11 10  1  6
 12 11  1  0
 14 13  1  1
 13 11  1  0
 14 15  1  0
 15  7  1  0
 16 14  1  0
 17 16  2  0
 19 18  1  0
 19 20  1  0
 20 21  1  0
 22 21  1  1
 22 24  1  0
 22 23  1  0
 23 16  1  0
 24 25  1  0
 26 24  2  0
M  END
$$$$
