ELM.pdb
     RDKit          3D

 26 25  0  0  1  0  0  0  0  0999 V2000
    9.5251  -17.4398   19.5912 N   0  0  0  0  0  0  0  0  0  0  0  0
    8.9976  -17.7355   20.8849 C   0  0  1  0  0  0  0  0  0  0  0  0
    9.5297  -18.9977   21.4777 C   0  0  0  0  0  0  0  0  0  0  0  0
   10.1010  -19.9575   20.4993 C   0  0  0  0  0  0  0  0  0  0  0  0
    9.7129  -21.3553   20.6027 C   0  0  0  0  0  0  0  0  0  0  0  0
    8.8727  -21.7717   21.4311 O   0  0  0  0  0  0  0  0  0  0  0  0
    9.0786  -16.6069   21.8556 C   0  0  0  0  0  0  0  0  0  0  0  0
   10.1498  -15.9085   21.8908 O   0  0  0  0  0  0  0  0  0  0  0  0
   10.3060  -22.3052   19.7302 O   0  0  0  0  0  0  0  0  0  0  0  0
    7.4205  -12.4211   24.7463 C   0  0  0  0  0  0  0  0  0  0  0  0
    7.2800  -13.7500   25.4979 C   0  0  1  0  0  0  0  0  0  0  0  0
    6.0747  -13.6261   26.4545 C   0  0  0  0  0  0  0  0  0  0  0  0
    7.0787  -14.8915   24.5509 C   0  0  0  0  0  0  0  0  0  0  0  0
    8.2769  -15.0869   23.6901 C   0  0  2  0  0  0  0  0  0  0  0  0
    8.0757  -16.2155   22.7611 N   0  0  0  0  0  0  0  0  0  0  0  0
    9.5011  -15.3910   24.4890 C   0  0  0  0  0  0  0  0  0  0  0  0
   10.5218  -14.6609   24.5123 O   0  0  0  0  0  0  0  0  0  0  0  0
   10.6432  -12.7922   28.8006 C   0  0  0  0  0  0  0  0  0  0  0  0
   10.7307  -14.3055   29.8000 S   0  0  0  0  0  0  0  0  0  0  0  0
   11.0248  -15.7227   28.6672 C   0  0  0  0  0  0  0  0  0  0  0  0
   10.2125  -15.5648   27.4184 C   0  0  0  0  0  0  0  0  0  0  0  0
   10.4841  -16.6800   26.4500 C   0  0  2  0  0  0  0  0  0  0  0  0
    9.5819  -16.5667   25.2973 N   0  0  0  0  0  0  0  0  0  0  0  0
   10.3970  -17.9801   27.0772 C   0  0  0  0  0  0  0  0  0  0  0  0
   11.2988  -18.4674   27.9756 O   0  0  0  0  0  0  0  0  0  0  0  0
    9.4150  -18.7449   26.7802 O   0  0  0  0  0  0  0  0  0  0  0  0
  2  1  1  6
  3  2  1  0
  4  3  1  0
  5  6  2  0
  5  4  1  0
  7  2  1  0
  7  8  2  0
  9  5  1  0
 11 10  1  6
 12 11  1  0
 14 13  1  1
 13 11  1  0
 14 15  1  0
 15  7  1  0
 16 14  1  0
 17 16  2  0
 19 18  1  0
 19 20  1  0
 20 21  1  0
 22 21  1  1
 22 24  1  0
 22 23  1  0
 23 16  1  0
 24 25  1  0
 26 24  2  0
M  END
$$$$
