ELM.pdb
     RDKit          3D

 26 25  0  0  1  0  0  0  0  0999 V2000
    9.7982  -19.1887   20.8790 N   0  0  0  0  0  0  0  0  0  0  0  0
   10.8615  -18.4161   20.3203 C   0  0  1  0  0  0  0  0  0  0  0  0
   11.0740  -18.6511   18.8618 C   0  0  0  0  0  0  0  0  0  0  0  0
    9.9899  -19.4060   18.1840 C   0  0  0  0  0  0  0  0  0  0  0  0
   10.0720  -19.5791   16.7423 C   0  0  0  0  0  0  0  0  0  0  0  0
   10.9760  -19.0695   16.0433 O   0  0  0  0  0  0  0  0  0  0  0  0
   10.7914  -16.9591   20.6280 C   0  0  0  0  0  0  0  0  0  0  0  0
   11.2679  -16.1323   19.7760 O   0  0  0  0  0  0  0  0  0  0  0  0
    9.0878  -20.3600   16.0812 O   0  0  0  0  0  0  0  0  0  0  0  0
    8.9673  -12.3971   20.2113 C   0  0  0  0  0  0  0  0  0  0  0  0
    8.0597  -13.4573   20.8458 C   0  0  1  0  0  0  0  0  0  0  0  0
    6.7070  -13.4269   20.1022 C   0  0  0  0  0  0  0  0  0  0  0  0
    8.6721  -14.8202   20.7581 C   0  0  0  0  0  0  0  0  0  0  0  0
    9.7351  -14.9935   21.7851 C   0  0  2  0  0  0  0  0  0  0  0  0
   10.2415  -16.3794   21.7858 N   0  0  0  0  0  0  0  0  0  0  0  0
    9.2381  -14.7088   23.1640 C   0  0  0  0  0  0  0  0  0  0  0  0
    9.3224  -13.5874   23.7214 O   0  0  0  0  0  0  0  0  0  0  0  0
    6.7822  -11.6638   27.3918 C   0  0  0  0  0  0  0  0  0  0  0  0
    7.0623  -12.8834   26.0762 S   0  0  0  0  0  0  0  0  0  0  0  0
    6.6450  -14.5459   26.7394 C   0  0  0  0  0  0  0  0  0  0  0  0
    6.9683  -15.6031   25.7283 C   0  0  0  0  0  0  0  0  0  0  0  0
    8.4343  -15.6120   25.4026 C   0  0  2  0  0  0  0  0  0  0  0  0
    8.6190  -15.7285   23.9508 N   0  0  0  0  0  0  0  0  0  0  0  0
    9.1463  -16.6453   26.1214 C   0  0  0  0  0  0  0  0  0  0  0  0
    9.7773  -17.7013   25.5343 O   0  0  0  0  0  0  0  0  0  0  0  0
    9.1975  -16.5864   27.3986 O   0  0  0  0  0  0  0  0  0  0  0  0
  2  1  1  6
  3  2  1  0
  4  3  1  0
  5  6  2  0
  5  4  1  0
  7  2  1  0
  7  8  2  0
  9  5  1  0
 11 10  1  6
 12 11  1  0
 14 13  1  6
 13 11  1  0
 14 15  1  0
 15  7  1  0
 16 14  1  0
 17 16  2  0
 19 18  1  0
 19 20  1  0
 20 21  1  0
 22 21  1  6
 22 24  1  0
 22 23  1  0
 23 16  1  0
 24 25  1  0
 26 24  2  0
M  END
$$$$
