ELM.pdb
     RDKit          3D

 26 25  0  0  1  0  0  0  0  0999 V2000
    9.3893  -18.7247   19.7465 N   0  0  0  0  0  0  0  0  0  0  0  0
   10.6293  -18.0206   19.8250 C   0  0  1  0  0  0  0  0  0  0  0  0
   11.3794  -17.9773   18.5354 C   0  0  0  0  0  0  0  0  0  0  0  0
   11.6754  -19.3038   17.9376 C   0  0  0  0  0  0  0  0  0  0  0  0
   12.4125  -19.3426   16.6845 C   0  0  0  0  0  0  0  0  0  0  0  0
   12.8531  -20.4012   16.1834 O   0  0  0  0  0  0  0  0  0  0  0  0
   10.5301  -16.6652   20.4379 C   0  0  0  0  0  0  0  0  0  0  0  0
   11.6109  -16.0276   20.6862 O   0  0  0  0  0  0  0  0  0  0  0  0
   12.6523  -18.1313   15.9841 O   0  0  0  0  0  0  0  0  0  0  0  0
    6.3743  -13.2758   19.5136 C   0  0  0  0  0  0  0  0  0  0  0  0
    7.7941  -13.8043   19.7484 C   0  0  1  0  0  0  0  0  0  0  0  0
    8.7809  -12.8121   19.0965 C   0  0  0  0  0  0  0  0  0  0  0  0
    8.0866  -13.9462   21.2095 C   0  0  0  0  0  0  0  0  0  0  0  0
    9.3702  -14.6670   21.4280 C   0  0  2  0  0  0  0  0  0  0  0  0
    9.3430  -15.9927   20.7807 N   0  0  0  0  0  0  0  0  0  0  0  0
    9.6496  -14.8935   22.8771 C   0  0  0  0  0  0  0  0  0  0  0  0
   10.6614  -14.4504   23.4731 O   0  0  0  0  0  0  0  0  0  0  0  0
    6.8896  -12.0017   28.3929 C   0  0  0  0  0  0  0  0  0  0  0  0
    6.6514  -12.5584   26.6812 S   0  0  0  0  0  0  0  0  0  0  0  0
    6.8003  -14.3900   26.6497 C   0  0  0  0  0  0  0  0  0  0  0  0
    7.0665  -14.8642   25.2537 C   0  0  0  0  0  0  0  0  0  0  0  0
    8.4875  -15.3248   25.0990 C   0  0  2  0  0  0  0  0  0  0  0  0
    8.7528  -15.6507   23.6923 N   0  0  0  0  0  0  0  0  0  0  0  0
    8.8010  -16.4302   25.9770 C   0  0  0  0  0  0  0  0  0  0  0  0
    8.9102  -16.3345   27.3323 O   0  0  0  0  0  0  0  0  0  0  0  0
    8.9973  -17.5875   25.4677 O   0  0  0  0  0  0  0  0  0  0  0  0
  2  1  1  6
  3  2  1  0
  4  3  1  0
  5  6  2  0
  5  4  1  0
  7  2  1  0
  7  8  2  0
  9  5  1  0
 11 10  1  1
 12 11  1  0
 14 13  1  1
 13 11  1  0
 14 15  1  0
 15  7  1  0
 16 14  1  0
 17 16  2  0
 19 18  1  0
 19 20  1  0
 20 21  1  0
 22 21  1  6
 22 24  1  0
 22 23  1  0
 23 16  1  0
 24 25  1  0
 26 24  2  0
M  END
$$$$
