FEA.pdb
     RDKit          3D

 26 26  0  0  1  0  0  0  0  0999 V2000
    6.9531  -17.8350   20.4502 N   0  0  0  0  0  0  0  0  0  0  0  0
    7.8595  -16.9460   21.1006 C   0  0  1  0  0  0  0  0  0  0  0  0
    7.1546  -15.7922   21.7414 C   0  0  0  0  0  0  0  0  0  0  0  0
    7.3286  -14.5056   21.0773 C   0  0  0  0  0  0  0  0  0  0  0  0
    6.7325  -14.2431   19.8706 C   0  0  0  0  0  0  0  0  0  0  0  0
    6.9082  -13.0266   19.2414 C   0  0  0  0  0  0  0  0  0  0  0  0
    7.7018  -12.0520   19.8409 C   0  0  0  0  0  0  0  0  0  0  0  0
    8.3153  -12.2961   21.0625 C   0  0  0  0  0  0  0  0  0  0  0  0
    8.1094  -13.5318   21.6556 C   0  0  0  0  0  0  0  0  0  0  0  0
    8.6312  -17.6335   22.1691 C   0  0  0  0  0  0  0  0  0  0  0  0
    8.0287  -18.2537   23.0748 O   0  0  0  0  0  0  0  0  0  0  0  0
   10.0373  -17.6185   22.2099 N   0  0  0  0  0  0  0  0  0  0  0  0
   10.7430  -18.2491   23.2675 C   0  0  1  0  0  0  0  0  0  0  0  0
   12.2194  -17.9854   23.0852 C   0  0  0  0  0  0  0  0  0  0  0  0
   12.6246  -18.3750   21.6630 C   0  0  0  0  0  0  0  0  0  0  0  0
   14.0593  -18.0904   21.4790 C   0  0  0  0  0  0  0  0  0  0  0  0
   14.4301  -17.3954   20.4928 O   0  0  0  0  0  0  0  0  0  0  0  0
   10.3881  -17.7765   24.6241 C   0  0  0  0  0  0  0  0  0  0  0  0
   10.6627  -16.6263   25.0204 O   0  0  0  0  0  0  0  0  0  0  0  0
   15.0582  -18.5477   22.3442 O   0  0  0  0  0  0  0  0  0  0  0  0
    7.9579  -18.5956   27.0977 C   0  0  0  0  0  0  0  0  0  0  0  0
    9.4190  -18.1968   26.8535 C   0  0  2  0  0  0  0  0  0  0  0  0
    9.7128  -18.6511   25.5075 N   0  0  0  0  0  0  0  0  0  0  0  0
   10.3119  -18.8318   27.8264 C   0  0  0  0  0  0  0  0  0  0  0  0
   10.3703  -18.4108   29.1515 O   0  0  0  0  0  0  0  0  0  0  0  0
   11.0422  -19.7865   27.4394 O   0  0  0  0  0  0  0  0  0  0  0  0
  2  1  1  1
  3  2  1  0
  4  9  2  0
  4  3  1  0
  5  4  1  0
  6  7  1  0
  6  5  2  0
  7  8  2  0
  8  9  1  0
 10 12  1  0
 10  2  1  0
 11 10  2  0
 13 12  1  0
 13 14  1  6
 14 15  1  0
 15 16  1  0
 16 17  2  0
 18 13  1  0
 19 18  2  0
 20 16  1  0
 22 21  1  1
 22 24  1  0
 22 23  1  0
 23 18  1  0
 24 25  1  0
 26 24  2  0
M  END
$$$$
