FEA.pdb
     RDKit          3D

 26 26  0  0  1  0  0  0  0  0999 V2000
    6.2584  -17.8593   23.6890 N   0  0  0  0  0  0  0  0  0  0  0  0
    6.9213  -16.6674   24.1071 C   0  0  1  0  0  0  0  0  0  0  0  0
    6.2392  -16.0226   25.2723 C   0  0  0  0  0  0  0  0  0  0  0  0
    6.6702  -14.6629   25.5758 C   0  0  0  0  0  0  0  0  0  0  0  0
    7.0297  -14.2994   26.8482 C   0  0  0  0  0  0  0  0  0  0  0  0
    7.4279  -13.0080   27.1320 C   0  0  0  0  0  0  0  0  0  0  0  0
    7.4654  -12.0612   26.1117 C   0  0  0  0  0  0  0  0  0  0  0  0
    7.1053  -12.4070   24.8159 C   0  0  0  0  0  0  0  0  0  0  0  0
    6.7128  -13.7152   24.5796 C   0  0  0  0  0  0  0  0  0  0  0  0
    8.3250  -16.9347   24.5167 C   0  0  0  0  0  0  0  0  0  0  0  0
    8.5752  -17.8567   25.3261 O   0  0  0  0  0  0  0  0  0  0  0  0
    9.4080  -16.1829   24.0260 N   0  0  0  0  0  0  0  0  0  0  0  0
   10.7439  -16.5201   24.3667 C   0  0  1  0  0  0  0  0  0  0  0  0
   11.6524  -16.0828   23.2416 C   0  0  0  0  0  0  0  0  0  0  0  0
   11.4323  -16.9989   22.0371 C   0  0  0  0  0  0  0  0  0  0  0  0
   12.6059  -16.9127   21.1492 C   0  0  0  0  0  0  0  0  0  0  0  0
   12.5534  -16.1774   20.1248 O   0  0  0  0  0  0  0  0  0  0  0  0
   11.2535  -15.8821   25.6009 C   0  0  0  0  0  0  0  0  0  0  0  0
   12.4107  -15.4244   25.6837 O   0  0  0  0  0  0  0  0  0  0  0  0
   13.8002  -17.6051   21.3725 O   0  0  0  0  0  0  0  0  0  0  0  0
   10.2032  -14.1362   28.4210 C   0  0  0  0  0  0  0  0  0  0  0  0
   10.9801  -15.3913   28.0031 C   0  0  2  0  0  0  0  0  0  0  0  0
   10.4061  -15.7820   26.7294 N   0  0  0  0  0  0  0  0  0  0  0  0
   10.8323  -16.4610   28.9934 C   0  0  0  0  0  0  0  0  0  0  0  0
   10.1716  -17.6491   28.6959 O   0  0  0  0  0  0  0  0  0  0  0  0
   11.3234  -16.2882   30.1438 O   0  0  0  0  0  0  0  0  0  0  0  0
  2  1  1  1
  3  2  1  0
  4  9  2  0
  4  3  1  0
  5  4  1  0
  6  7  1  0
  6  5  2  0
  7  8  2  0
  8  9  1  0
 10 12  1  0
 10  2  1  0
 11 10  2  0
 13 12  1  0
 13 14  1  6
 14 15  1  0
 15 16  1  0
 16 17  2  0
 18 13  1  0
 19 18  2  0
 20 16  1  0
 22 21  1  1
 22 24  1  0
 22 23  1  0
 23 18  1  0
 24 25  1  0
 26 24  2  0
M  END
$$$$
