FEA.pdb
     RDKit          3D

 26 26  0  0  1  0  0  0  0  0999 V2000
   -0.5663  -22.4883   23.4396 N   0  0  0  0  0  0  0  0  0  0  0  0
    0.5087  -21.7152   22.9091 C   0  0  1  0  0  0  0  0  0  0  0  0
    0.3869  -20.2658   23.2600 C   0  0  0  0  0  0  0  0  0  0  0  0
   -0.7796  -19.5847   22.7101 C   0  0  0  0  0  0  0  0  0  0  0  0
   -1.7708  -19.1032   23.5263 C   0  0  0  0  0  0  0  0  0  0  0  0
   -2.8778  -18.4675   22.9999 C   0  0  0  0  0  0  0  0  0  0  0  0
   -2.9893  -18.3127   21.6206 C   0  0  0  0  0  0  0  0  0  0  0  0
   -1.9979  -18.7928   20.7751 C   0  0  0  0  0  0  0  0  0  0  0  0
   -0.9056  -19.4235   21.3498 C   0  0  0  0  0  0  0  0  0  0  0  0
    1.8243  -22.1791   23.4227 C   0  0  0  0  0  0  0  0  0  0  0  0
    1.9127  -22.6513   24.5790 O   0  0  0  0  0  0  0  0  0  0  0  0
    2.9993  -22.1103   22.6523 N   0  0  0  0  0  0  0  0  0  0  0  0
    4.2221  -22.6424   23.1379 C   0  0  1  0  0  0  0  0  0  0  0  0
    4.6419  -23.7816   22.2387 C   0  0  0  0  0  0  0  0  0  0  0  0
    3.7164  -24.9749   22.4793 C   0  0  0  0  0  0  0  0  0  0  0  0
    4.0937  -26.0659   21.5624 C   0  0  0  0  0  0  0  0  0  0  0  0
    4.0379  -25.8733   20.3162 O   0  0  0  0  0  0  0  0  0  0  0  0
    5.3502  -21.6852   23.1711 C   0  0  0  0  0  0  0  0  0  0  0  0
    5.5516  -20.8629   22.2553 O   0  0  0  0  0  0  0  0  0  0  0  0
    4.5204  -27.3268   21.9908 O   0  0  0  0  0  0  0  0  0  0  0  0
    7.7430  -20.6208   25.7526 C   0  0  0  0  0  0  0  0  0  0  0  0
    7.3647  -20.7856   24.2751 C   0  0  2  0  0  0  0  0  0  0  0  0
    6.2341  -21.6946   24.2757 N   0  0  0  0  0  0  0  0  0  0  0  0
    8.4791  -21.3376   23.5004 C   0  0  0  0  0  0  0  0  0  0  0  0
    9.5374  -20.5429   23.0703 O   0  0  0  0  0  0  0  0  0  0  0  0
    8.4676  -22.5695   23.2233 O   0  0  0  0  0  0  0  0  0  0  0  0
  2  1  1  1
  3  2  1  0
  4  9  2  0
  4  3  1  0
  5  4  1  0
  6  7  1  0
  6  5  2  0
  7  8  2  0
  8  9  1  0
 10 12  1  0
 10  2  1  0
 11 10  2  0
 13 12  1  0
 13 14  1  6
 14 15  1  0
 15 16  1  0
 16 17  2  0
 18 13  1  0
 19 18  2  0
 20 16  1  0
 22 21  1  1
 22 24  1  0
 22 23  1  0
 23 18  1  0
 24 25  1  0
 26 24  2  0
M  END
$$$$
