FEA.pdb
     RDKit          3D

 26 26  0  0  1  0  0  0  0  0999 V2000
    5.7440  -16.0902   25.3382 N   0  0  0  0  0  0  0  0  0  0  0  0
    7.0188  -15.6106   24.9142 C   0  0  1  0  0  0  0  0  0  0  0  0
    7.6391  -14.6939   25.9210 C   0  0  0  0  0  0  0  0  0  0  0  0
    7.1318  -13.3266   25.9187 C   0  0  0  0  0  0  0  0  0  0  0  0
    7.7270  -12.3499   25.1622 C   0  0  0  0  0  0  0  0  0  0  0  0
    7.2485  -11.0547   25.1710 C   0  0  0  0  0  0  0  0  0  0  0  0
    6.1457  -10.7355   25.9589 C   0  0  0  0  0  0  0  0  0  0  0  0
    5.5275  -11.7085   26.7331 C   0  0  0  0  0  0  0  0  0  0  0  0
    6.0434  -12.9942   26.6915 C   0  0  0  0  0  0  0  0  0  0  0  0
    7.9775  -16.7242   24.6894 C   0  0  0  0  0  0  0  0  0  0  0  0
    7.9272  -17.7472   25.4098 O   0  0  0  0  0  0  0  0  0  0  0  0
    8.9592  -16.6801   23.6829 N   0  0  0  0  0  0  0  0  0  0  0  0
    9.9963  -17.6477   23.6327 C   0  0  1  0  0  0  0  0  0  0  0  0
   10.9505  -17.2731   22.5229 C   0  0  0  0  0  0  0  0  0  0  0  0
   11.9807  -18.3902   22.3515 C   0  0  0  0  0  0  0  0  0  0  0  0
   12.8909  -18.0368   21.2471 C   0  0  0  0  0  0  0  0  0  0  0  0
   14.1302  -17.9514   21.4707 O   0  0  0  0  0  0  0  0  0  0  0  0
   10.8018  -17.7645   24.8685 C   0  0  0  0  0  0  0  0  0  0  0  0
   11.3844  -16.7861   25.3773 O   0  0  0  0  0  0  0  0  0  0  0  0
   12.4635  -17.7862   19.9394 O   0  0  0  0  0  0  0  0  0  0  0  0
   10.8221  -20.0387   27.6405 C   0  0  0  0  0  0  0  0  0  0  0  0
   11.6594  -19.1149   26.7466 C   0  0  2  0  0  0  0  0  0  0  0  0
   10.9192  -19.0239   25.5023 N   0  0  0  0  0  0  0  0  0  0  0  0
   12.9978  -19.6665   26.5196 C   0  0  0  0  0  0  0  0  0  0  0  0
   13.9480  -19.7254   27.5346 O   0  0  0  0  0  0  0  0  0  0  0  0
   13.2836  -20.0978   25.3677 O   0  0  0  0  0  0  0  0  0  0  0  0
  2  1  1  1
  3  2  1  0
  4  9  2  0
  4  3  1  0
  5  4  1  0
  6  7  1  0
  6  5  2  0
  7  8  2  0
  8  9  1  0
 10 12  1  0
 10  2  1  0
 11 10  2  0
 13 12  1  0
 13 14  1  6
 14 15  1  0
 15 16  1  0
 16 17  2  0
 18 13  1  0
 19 18  2  0
 20 16  1  0
 22 21  1  1
 22 24  1  0
 22 23  1  0
 23 18  1  0
 24 25  1  0
 26 24  2  0
M  END
$$$$
