FEA.pdb
     RDKit          3D

 26 26  0  0  1  0  0  0  0  0999 V2000
    6.4381  -16.1505   25.5340 N   0  0  0  0  0  0  0  0  0  0  0  0
    7.4421  -15.5438   24.7223 C   0  0  1  0  0  0  0  0  0  0  0  0
    8.2209  -14.5079   25.4700 C   0  0  0  0  0  0  0  0  0  0  0  0
    7.4485  -13.3653   25.9439 C   0  0  0  0  0  0  0  0  0  0  0  0
    7.6827  -12.8121   27.1766 C   0  0  0  0  0  0  0  0  0  0  0  0
    6.9420  -11.7362   27.6244 C   0  0  0  0  0  0  0  0  0  0  0  0
    5.9431  -11.2050   26.8127 C   0  0  0  0  0  0  0  0  0  0  0  0
    5.6884  -11.7495   25.5609 C   0  0  0  0  0  0  0  0  0  0  0  0
    6.4578  -12.8284   25.1548 C   0  0  0  0  0  0  0  0  0  0  0  0
    8.4191  -16.5442   24.2180 C   0  0  0  0  0  0  0  0  0  0  0  0
    8.6169  -17.6023   24.8578 O   0  0  0  0  0  0  0  0  0  0  0  0
    9.1470  -16.3522   23.0296 N   0  0  0  0  0  0  0  0  0  0  0  0
   10.1784  -17.2513   22.6527 C   0  0  1  0  0  0  0  0  0  0  0  0
   10.7110  -16.8335   21.3020 C   0  0  0  0  0  0  0  0  0  0  0  0
   11.7119  -17.8816   20.8137 C   0  0  0  0  0  0  0  0  0  0  0  0
   12.1595  -17.5203   19.4564 C   0  0  0  0  0  0  0  0  0  0  0  0
   13.2735  -16.9465   19.3051 O   0  0  0  0  0  0  0  0  0  0  0  0
   11.3355  -17.2958   23.5740 C   0  0  0  0  0  0  0  0  0  0  0  0
   11.9847  -16.2745   23.8758 O   0  0  0  0  0  0  0  0  0  0  0  0
   11.4166  -17.7784   18.3001 O   0  0  0  0  0  0  0  0  0  0  0  0
   12.3527  -19.5380   26.1892 C   0  0  0  0  0  0  0  0  0  0  0  0
   12.8066  -18.5532   25.1040 C   0  0  2  0  0  0  0  0  0  0  0  0
   11.7247  -18.5335   24.1378 N   0  0  0  0  0  0  0  0  0  0  0  0
   14.0576  -18.9915   24.4795 C   0  0  0  0  0  0  0  0  0  0  0  0
   14.1048  -19.4230   23.1573 O   0  0  0  0  0  0  0  0  0  0  0  0
   15.1145  -18.9710   25.1702 O   0  0  0  0  0  0  0  0  0  0  0  0
  2  1  1  1
  3  2  1  0
  4  9  2  0
  4  3  1  0
  5  4  1  0
  6  7  1  0
  6  5  2  0
  7  8  2  0
  8  9  1  0
 10 12  1  0
 10  2  1  0
 11 10  2  0
 13 12  1  0
 13 14  1  6
 14 15  1  0
 15 16  1  0
 16 17  2  0
 18 13  1  0
 19 18  2  0
 20 16  1  0
 22 21  1  1
 22 24  1  0
 22 23  1  0
 23 18  1  0
 24 25  1  0
 26 24  2  0
M  END
$$$$
