FEA.pdb
     RDKit          3D

 26 26  0  0  1  0  0  0  0  0999 V2000
    5.5785  -17.2549   24.0592 N   0  0  0  0  0  0  0  0  0  0  0  0
    6.5909  -16.3372   24.4688 C   0  0  1  0  0  0  0  0  0  0  0  0
    6.2638  -15.6835   25.7744 C   0  0  0  0  0  0  0  0  0  0  0  0
    6.7057  -14.3004   25.9098 C   0  0  0  0  0  0  0  0  0  0  0  0
    8.0354  -13.9889   26.0341 C   0  0  0  0  0  0  0  0  0  0  0  0
    8.4478  -12.6783   26.1715 C   0  0  0  0  0  0  0  0  0  0  0  0
    7.5002  -11.6581   26.1839 C   0  0  0  0  0  0  0  0  0  0  0  0
    6.1484  -11.9504   26.0598 C   0  0  0  0  0  0  0  0  0  0  0  0
    5.7828  -13.2804   25.9240 C   0  0  0  0  0  0  0  0  0  0  0  0
    7.9064  -17.0091   24.6351 C   0  0  0  0  0  0  0  0  0  0  0  0
    7.9889  -18.0650   25.3032 O   0  0  0  0  0  0  0  0  0  0  0  0
    9.0877  -16.5020   24.0641 N   0  0  0  0  0  0  0  0  0  0  0  0
   10.3341  -17.1485   24.2715 C   0  0  1  0  0  0  0  0  0  0  0  0
   11.3985  -16.3985   23.5053 C   0  0  0  0  0  0  0  0  0  0  0  0
   12.7369  -17.1187   23.6747 C   0  0  0  0  0  0  0  0  0  0  0  0
   13.5946  -16.8140   22.5151 C   0  0  0  0  0  0  0  0  0  0  0  0
   14.3676  -15.8174   22.5627 O   0  0  0  0  0  0  0  0  0  0  0  0
   10.7811  -17.2053   25.6810 C   0  0  0  0  0  0  0  0  0  0  0  0
   11.0979  -16.1820   26.3197 O   0  0  0  0  0  0  0  0  0  0  0  0
   13.6104  -17.5735   21.3410 O   0  0  0  0  0  0  0  0  0  0  0  0
   10.5387  -19.6832   28.3376 C   0  0  0  0  0  0  0  0  0  0  0  0
   11.2949  -18.5021   27.7158 C   0  0  2  0  0  0  0  0  0  0  0  0
   10.8530  -18.4578   26.3348 N   0  0  0  0  0  0  0  0  0  0  0  0
   12.7447  -18.6995   27.7948 C   0  0  0  0  0  0  0  0  0  0  0  0
   13.5285  -18.8399   26.6536 O   0  0  0  0  0  0  0  0  0  0  0  0
   13.2852  -18.7403   28.9353 O   0  0  0  0  0  0  0  0  0  0  0  0
  2  1  1  1
  3  2  1  0
  4  9  2  0
  4  3  1  0
  5  4  1  0
  6  7  1  0
  6  5  2  0
  7  8  2  0
  8  9  1  0
 10 12  1  0
 10  2  1  0
 11 10  2  0
 13 12  1  0
 13 14  1  6
 14 15  1  0
 15 16  1  0
 16 17  2  0
 18 13  1  0
 19 18  2  0
 20 16  1  0
 22 21  1  1
 22 24  1  0
 22 23  1  0
 23 18  1  0
 24 25  1  0
 26 24  2  0
M  END
$$$$
