FEA.pdb
     RDKit          3D

 26 26  0  0  1  0  0  0  0  0999 V2000
    6.8062  -18.0173   20.5761 N   0  0  0  0  0  0  0  0  0  0  0  0
    7.9962  -17.2309   20.5843 C   0  0  1  0  0  0  0  0  0  0  0  0
    7.8825  -16.0466   21.4917 C   0  0  0  0  0  0  0  0  0  0  0  0
    7.8816  -14.7478   20.8285 C   0  0  0  0  0  0  0  0  0  0  0  0
    6.7427  -13.9873   20.7583 C   0  0  0  0  0  0  0  0  0  0  0  0
    6.7450  -12.7624   20.1208 C   0  0  0  0  0  0  0  0  0  0  0  0
    7.9206  -12.2923   19.5412 C   0  0  0  0  0  0  0  0  0  0  0  0
    9.0856  -13.0458   19.6000 C   0  0  0  0  0  0  0  0  0  0  0  0
    9.0343  -14.2686   20.2506 C   0  0  0  0  0  0  0  0  0  0  0  0
    9.1717  -18.0183   21.0403 C   0  0  0  0  0  0  0  0  0  0  0  0
    9.0730  -18.7674   22.0388 O   0  0  0  0  0  0  0  0  0  0  0  0
   10.4162  -17.9589   20.3872 N   0  0  0  0  0  0  0  0  0  0  0  0
   11.5337  -18.6820   20.8798 C   0  0  1  0  0  0  0  0  0  0  0  0
   12.7194  -18.4027   19.9861 C   0  0  0  0  0  0  0  0  0  0  0  0
   13.8737  -19.3228   20.3856 C   0  0  0  0  0  0  0  0  0  0  0  0
   15.0120  -19.0837   19.4799 C   0  0  0  0  0  0  0  0  0  0  0  0
   16.1660  -19.4613   19.8243 O   0  0  0  0  0  0  0  0  0  0  0  0
   11.9449  -18.3333   22.2579 C   0  0  0  0  0  0  0  0  0  0  0  0
   12.3544  -17.1951   22.5616 O   0  0  0  0  0  0  0  0  0  0  0  0
   14.8952  -18.4544   18.2365 O   0  0  0  0  0  0  0  0  0  0  0  0
   11.0591  -19.1659   25.4916 C   0  0  0  0  0  0  0  0  0  0  0  0
   12.3022  -18.9717   24.6139 C   0  0  2  0  0  0  0  0  0  0  0  0
   11.8727  -19.3170   23.2720 N   0  0  0  0  0  0  0  0  0  0  0  0
   13.4005  -19.8378   25.0505 C   0  0  0  0  0  0  0  0  0  0  0  0
   14.1741  -19.5340   26.1667 O   0  0  0  0  0  0  0  0  0  0  0  0
   13.6404  -20.8857   24.3881 O   0  0  0  0  0  0  0  0  0  0  0  0
  2  1  1  1
  3  2  1  0
  4  9  2  0
  4  3  1  0
  5  4  1  0
  6  7  1  0
  6  5  2  0
  7  8  2  0
  8  9  1  0
 10 12  1  0
 10  2  1  0
 11 10  2  0
 13 12  1  0
 13 14  1  6
 14 15  1  0
 15 16  1  0
 16 17  2  0
 18 13  1  0
 19 18  2  0
 20 16  1  0
 22 21  1  1
 22 24  1  0
 22 23  1  0
 23 18  1  0
 24 25  1  0
 26 24  2  0
M  END
$$$$
