FEA.pdb
     RDKit          3D

 26 26  0  0  1  0  0  0  0  0999 V2000
    8.3579  -14.6765   22.6589 N   0  0  0  0  0  0  0  0  0  0  0  0
    8.2528  -15.1266   24.0084 C   0  0  1  0  0  0  0  0  0  0  0  0
    6.9388  -14.7607   24.6234 C   0  0  0  0  0  0  0  0  0  0  0  0
    6.8258  -13.3817   25.0842 C   0  0  0  0  0  0  0  0  0  0  0  0
    6.8026  -12.3363   24.1970 C   0  0  0  0  0  0  0  0  0  0  0  0
    6.7052  -11.0318   24.6390 C   0  0  0  0  0  0  0  0  0  0  0  0
    6.6290  -10.7738   26.0052 C   0  0  0  0  0  0  0  0  0  0  0  0
    6.6511  -11.8168   26.9217 C   0  0  0  0  0  0  0  0  0  0  0  0
    6.7498  -13.1091   26.4304 C   0  0  0  0  0  0  0  0  0  0  0  0
    8.3836  -16.6041   24.1062 C   0  0  0  0  0  0  0  0  0  0  0  0
    7.3993  -17.2974   24.4504 O   0  0  0  0  0  0  0  0  0  0  0  0
    9.5884  -17.2730   23.8235 N   0  0  0  0  0  0  0  0  0  0  0  0
    9.8469  -18.5647   24.3518 C   0  0  1  0  0  0  0  0  0  0  0  0
   11.1577  -19.0615   23.7884 C   0  0  0  0  0  0  0  0  0  0  0  0
   11.7972  -17.9492   22.9562 C   0  0  0  0  0  0  0  0  0  0  0  0
   13.0917  -18.4250   22.4353 C   0  0  0  0  0  0  0  0  0  0  0  0
   13.4744  -19.5967   22.7070 O   0  0  0  0  0  0  0  0  0  0  0  0
    9.9644  -18.6244   25.8258 C   0  0  0  0  0  0  0  0  0  0  0  0
   10.6992  -17.8463   26.4662 O   0  0  0  0  0  0  0  0  0  0  0  0
   13.9413  -17.6482   21.6414 O   0  0  0  0  0  0  0  0  0  0  0  0
    8.0382  -20.3092   28.4645 C   0  0  0  0  0  0  0  0  0  0  0  0
    9.3275  -19.6281   27.9875 C   0  0  2  0  0  0  0  0  0  0  0  0
    9.2206  -19.5920   26.5412 N   0  0  0  0  0  0  0  0  0  0  0  0
   10.5120  -20.3824   28.4056 C   0  0  0  0  0  0  0  0  0  0  0  0
   11.3823  -20.9519   27.4811 O   0  0  0  0  0  0  0  0  0  0  0  0
   10.7385  -20.5107   29.6413 O   0  0  0  0  0  0  0  0  0  0  0  0
  2  1  1  6
  3  2  1  0
  4  9  2  0
  4  3  1  0
  5  4  1  0
  6  7  1  0
  6  5  2  0
  7  8  2  0
  8  9  1  0
 10 12  1  0
 10  2  1  0
 11 10  2  0
 13 12  1  0
 13 14  1  6
 14 15  1  0
 15 16  1  0
 16 17  2  0
 18 13  1  0
 19 18  2  0
 20 16  1  0
 22 21  1  1
 22 24  1  0
 22 23  1  0
 23 18  1  0
 24 25  1  0
 26 24  2  0
M  END
$$$$
