FEA.pdb
     RDKit          3D

 26 26  0  0  1  0  0  0  0  0999 V2000
    6.2002  -16.3438   24.9745 N   0  0  0  0  0  0  0  0  0  0  0  0
    7.5165  -15.8584   24.7165 C   0  0  1  0  0  0  0  0  0  0  0  0
    7.9825  -14.9059   25.7721 C   0  0  0  0  0  0  0  0  0  0  0  0
    7.3156  -13.6090   25.7833 C   0  0  0  0  0  0  0  0  0  0  0  0
    6.4620  -13.2584   26.7976 C   0  0  0  0  0  0  0  0  0  0  0  0
    5.8257  -12.0329   26.7985 C   0  0  0  0  0  0  0  0  0  0  0  0
    6.0541  -11.1400   25.7547 C   0  0  0  0  0  0  0  0  0  0  0  0
    6.9141  -11.4742   24.7169 C   0  0  0  0  0  0  0  0  0  0  0  0
    7.5299  -12.7152   24.7598 C   0  0  0  0  0  0  0  0  0  0  0  0
    8.5081  -16.9644   24.6588 C   0  0  0  0  0  0  0  0  0  0  0  0
    8.3871  -17.9527   25.4182 O   0  0  0  0  0  0  0  0  0  0  0  0
    9.5992  -16.9510   23.7710 N   0  0  0  0  0  0  0  0  0  0  0  0
   10.6455  -17.9029   23.8867 C   0  0  1  0  0  0  0  0  0  0  0  0
   11.6631  -17.6335   22.8031 C   0  0  0  0  0  0  0  0  0  0  0  0
   10.9960  -17.8042   21.4377 C   0  0  0  0  0  0  0  0  0  0  0  0
   11.8242  -17.1416   20.4139 C   0  0  0  0  0  0  0  0  0  0  0  0
   13.0496  -17.4315   20.3274 O   0  0  0  0  0  0  0  0  0  0  0  0
   11.3742  -17.8765   25.1744 C   0  0  0  0  0  0  0  0  0  0  0  0
   12.1456  -16.9462   25.4828 O   0  0  0  0  0  0  0  0  0  0  0  0
   11.3314  -16.1939   19.5114 O   0  0  0  0  0  0  0  0  0  0  0  0
   10.9156  -19.0078   28.4449 C   0  0  0  0  0  0  0  0  0  0  0  0
   11.9615  -18.9327   27.3251 C   0  0  2  0  0  0  0  0  0  0  0  0
   11.1946  -18.9367   26.0937 N   0  0  0  0  0  0  0  0  0  0  0  0
   12.8757  -20.0766   27.3754 C   0  0  0  0  0  0  0  0  0  0  0  0
   13.8345  -20.2052   28.3759 O   0  0  0  0  0  0  0  0  0  0  0  0
   12.7798  -20.9635   26.4816 O   0  0  0  0  0  0  0  0  0  0  0  0
  2  1  1  1
  3  2  1  0
  4  9  2  0
  4  3  1  0
  5  4  1  0
  6  7  1  0
  6  5  2  0
  7  8  2  0
  8  9  1  0
 10 12  1  0
 10  2  1  0
 11 10  2  0
 13 12  1  0
 13 14  1  6
 14 15  1  0
 15 16  1  0
 16 17  2  0
 18 13  1  0
 19 18  2  0
 20 16  1  0
 22 21  1  1
 22 24  1  0
 22 23  1  0
 23 18  1  0
 24 25  1  0
 26 24  2  0
M  END
$$$$
