FEA.pdb
     RDKit          3D

 26 26  0  0  1  0  0  0  0  0999 V2000
    5.6739  -16.5699   25.0959 N   0  0  0  0  0  0  0  0  0  0  0  0
    6.6879  -16.2525   24.1442 C   0  0  1  0  0  0  0  0  0  0  0  0
    6.6843  -14.8011   23.7804 C   0  0  0  0  0  0  0  0  0  0  0  0
    6.8037  -13.8749   24.9005 C   0  0  0  0  0  0  0  0  0  0  0  0
    7.9501  -13.1501   25.1033 C   0  0  0  0  0  0  0  0  0  0  0  0
    8.0615  -12.2815   26.1709 C   0  0  0  0  0  0  0  0  0  0  0  0
    6.9945  -12.1391   27.0542 C   0  0  0  0  0  0  0  0  0  0  0  0
    5.8243  -12.8632   26.8684 C   0  0  0  0  0  0  0  0  0  0  0  0
    5.7593  -13.7222   25.7827 C   0  0  0  0  0  0  0  0  0  0  0  0
    8.0451  -16.5690   24.6615 C   0  0  0  0  0  0  0  0  0  0  0  0
    8.2007  -16.8649   25.8683 O   0  0  0  0  0  0  0  0  0  0  0  0
    9.1866  -16.5508   23.8397 N   0  0  0  0  0  0  0  0  0  0  0  0
   10.4594  -16.9153   24.3510 C   0  0  1  0  0  0  0  0  0  0  0  0
   11.4825  -16.7603   23.2503 C   0  0  0  0  0  0  0  0  0  0  0  0
   12.8295  -17.2922   23.7417 C   0  0  0  0  0  0  0  0  0  0  0  0
   13.7929  -17.2592   22.6264 C   0  0  0  0  0  0  0  0  0  0  0  0
   14.0293  -18.3184   21.9821 O   0  0  0  0  0  0  0  0  0  0  0  0
   10.9311  -16.0994   25.4919 C   0  0  0  0  0  0  0  0  0  0  0  0
   11.5478  -15.0271   25.3323 O   0  0  0  0  0  0  0  0  0  0  0  0
   14.4758  -16.1067   22.2250 O   0  0  0  0  0  0  0  0  0  0  0  0
   10.2284  -14.6181   28.1194 C   0  0  0  0  0  0  0  0  0  0  0  0
   11.2138  -15.7770   27.9213 C   0  0  2  0  0  0  0  0  0  0  0  0
   10.6769  -16.5415   26.8115 N   0  0  0  0  0  0  0  0  0  0  0  0
   11.3103  -16.6034   29.1274 C   0  0  0  0  0  0  0  0  0  0  0  0
   11.8241  -16.1027   30.3198 O   0  0  0  0  0  0  0  0  0  0  0  0
   10.9118  -17.8003   29.0703 O   0  0  0  0  0  0  0  0  0  0  0  0
  2  1  1  1
  3  2  1  0
  4  9  2  0
  4  3  1  0
  5  4  1  0
  6  7  1  0
  6  5  2  0
  7  8  2  0
  8  9  1  0
 10 12  1  0
 10  2  1  0
 11 10  2  0
 13 12  1  0
 13 14  1  6
 14 15  1  0
 15 16  1  0
 16 17  2  0
 18 13  1  0
 19 18  2  0
 20 16  1  0
 22 21  1  1
 22 24  1  0
 22 23  1  0
 23 18  1  0
 24 25  1  0
 26 24  2  0
M  END
$$$$
