FEA.pdb
     RDKit          3D

 26 26  0  0  1  0  0  0  0  0999 V2000
    6.0109  -17.1888   24.1266 N   0  0  0  0  0  0  0  0  0  0  0  0
    6.9550  -16.1775   24.4737 C   0  0  1  0  0  0  0  0  0  0  0  0
    6.7360  -15.6537   25.8581 C   0  0  0  0  0  0  0  0  0  0  0  0
    6.6063  -14.2052   25.9660 C   0  0  0  0  0  0  0  0  0  0  0  0
    6.5740  -13.5843   27.1882 C   0  0  0  0  0  0  0  0  0  0  0  0
    6.4415  -12.2133   27.2850 C   0  0  0  0  0  0  0  0  0  0  0  0
    6.3395  -11.4499   26.1249 C   0  0  0  0  0  0  0  0  0  0  0  0
    6.3695  -12.0574   24.8766 C   0  0  0  0  0  0  0  0  0  0  0  0
    6.5041  -13.4361   24.8300 C   0  0  0  0  0  0  0  0  0  0  0  0
    8.3507  -16.6860   24.4156 C   0  0  0  0  0  0  0  0  0  0  0  0
    8.6062  -17.8543   24.7868 O   0  0  0  0  0  0  0  0  0  0  0  0
    9.4199  -15.8977   23.9529 N   0  0  0  0  0  0  0  0  0  0  0  0
   10.7631  -16.3321   24.0991 C   0  0  1  0  0  0  0  0  0  0  0  0
   11.6235  -15.5750   23.1148 C   0  0  0  0  0  0  0  0  0  0  0  0
   11.1710  -15.9120   21.6934 C   0  0  0  0  0  0  0  0  0  0  0  0
   12.0408  -16.9723   21.1527 C   0  0  0  0  0  0  0  0  0  0  0  0
   13.1800  -17.1578   21.6635 O   0  0  0  0  0  0  0  0  0  0  0  0
   11.3490  -16.1093   25.4396 C   0  0  0  0  0  0  0  0  0  0  0  0
   12.5305  -16.4065   25.7065 O   0  0  0  0  0  0  0  0  0  0  0  0
   11.6790  -17.8057   20.0896 O   0  0  0  0  0  0  0  0  0  0  0  0
   10.3348  -14.1005   28.3283 C   0  0  0  0  0  0  0  0  0  0  0  0
   11.1542  -15.2603   27.7477 C   0  0  2  0  0  0  0  0  0  0  0  0
   10.5503  -15.5388   26.4584 N   0  0  0  0  0  0  0  0  0  0  0  0
   11.0966  -16.4381   28.6174 C   0  0  0  0  0  0  0  0  0  0  0  0
   10.4831  -17.6195   28.2118 O   0  0  0  0  0  0  0  0  0  0  0  0
   11.6230  -16.3665   29.7631 O   0  0  0  0  0  0  0  0  0  0  0  0
  2  1  1  1
  3  2  1  0
  4  9  2  0
  4  3  1  0
  5  4  1  0
  6  7  1  0
  6  5  2  0
  7  8  2  0
  8  9  1  0
 10 12  1  0
 10  2  1  0
 11 10  2  0
 13 12  1  0
 13 14  1  6
 14 15  1  0
 15 16  1  0
 16 17  2  0
 18 13  1  0
 19 18  2  0
 20 16  1  0
 22 21  1  1
 22 24  1  0
 22 23  1  0
 23 18  1  0
 24 25  1  0
 26 24  2  0
M  END
$$$$
