FEA.pdb
     RDKit          3D

 26 26  0  0  1  0  0  0  0  0999 V2000
    5.6928  -16.3597   24.9943 N   0  0  0  0  0  0  0  0  0  0  0  0
    6.7281  -16.3623   24.0130 C   0  0  1  0  0  0  0  0  0  0  0  0
    7.0948  -14.9786   23.5775 C   0  0  0  0  0  0  0  0  0  0  0  0
    7.1003  -13.9714   24.6322 C   0  0  0  0  0  0  0  0  0  0  0  0
    5.9310  -13.4396   25.1121 C   0  0  0  0  0  0  0  0  0  0  0  0
    5.9422  -12.4793   26.1042 C   0  0  0  0  0  0  0  0  0  0  0  0
    7.1582  -12.0446   26.6253 C   0  0  0  0  0  0  0  0  0  0  0  0
    8.3545  -12.5691   26.1540 C   0  0  0  0  0  0  0  0  0  0  0  0
    8.2927  -13.5308   25.1578 C   0  0  0  0  0  0  0  0  0  0  0  0
    7.9686  -17.0013   24.5253 C   0  0  0  0  0  0  0  0  0  0  0  0
    7.9223  -17.7292   25.5431 O   0  0  0  0  0  0  0  0  0  0  0  0
    9.2186  -16.8218   23.9054 N   0  0  0  0  0  0  0  0  0  0  0  0
   10.3404  -17.6036   24.2857 C   0  0  1  0  0  0  0  0  0  0  0  0
   11.5435  -17.1312   23.5034 C   0  0  0  0  0  0  0  0  0  0  0  0
   11.3316  -17.4469   22.0222 C   0  0  0  0  0  0  0  0  0  0  0  0
   12.5184  -17.0096   21.2650 C   0  0  0  0  0  0  0  0  0  0  0  0
   12.4759  -15.9247   20.6214 O   0  0  0  0  0  0  0  0  0  0  0  0
   10.7020  -17.5213   25.7183 C   0  0  0  0  0  0  0  0  0  0  0  0
   11.1107  -16.4654   26.2412 O   0  0  0  0  0  0  0  0  0  0  0  0
   13.7148  -17.7318   21.2127 O   0  0  0  0  0  0  0  0  0  0  0  0
    9.8109  -19.3189   28.6752 C   0  0  0  0  0  0  0  0  0  0  0  0
   10.9330  -18.5800   27.9346 C   0  0  2  0  0  0  0  0  0  0  0  0
   10.5816  -18.6736   26.5302 N   0  0  0  0  0  0  0  0  0  0  0  0
   12.2356  -19.2004   28.1901 C   0  0  0  0  0  0  0  0  0  0  0  0
   12.9965  -19.7558   27.1659 O   0  0  0  0  0  0  0  0  0  0  0  0
   12.6686  -19.2241   29.3761 O   0  0  0  0  0  0  0  0  0  0  0  0
  2  1  1  1
  3  2  1  0
  4  9  2  0
  4  3  1  0
  5  4  1  0
  6  7  1  0
  6  5  2  0
  7  8  2  0
  8  9  1  0
 10 12  1  0
 10  2  1  0
 11 10  2  0
 13 12  1  0
 13 14  1  6
 14 15  1  0
 15 16  1  0
 16 17  2  0
 18 13  1  0
 19 18  2  0
 20 16  1  0
 22 21  1  1
 22 24  1  0
 22 23  1  0
 23 18  1  0
 24 25  1  0
 26 24  2  0
M  END
$$$$
