FEA.pdb
     RDKit          3D

 26 26  0  0  1  0  0  0  0  0999 V2000
    5.7578  -16.4964   24.9848 N   0  0  0  0  0  0  0  0  0  0  0  0
    7.0492  -15.9204   24.7968 C   0  0  1  0  0  0  0  0  0  0  0  0
    7.5123  -15.1694   26.0052 C   0  0  0  0  0  0  0  0  0  0  0  0
    7.2045  -13.7440   26.0122 C   0  0  0  0  0  0  0  0  0  0  0  0
    8.0439  -12.8335   25.4231 C   0  0  0  0  0  0  0  0  0  0  0  0
    7.7525  -11.4839   25.4408 C   0  0  0  0  0  0  0  0  0  0  0  0
    6.5896  -11.0408   26.0655 C   0  0  0  0  0  0  0  0  0  0  0  0
    5.7253  -11.9449   26.6687 C   0  0  0  0  0  0  0  0  0  0  0  0
    6.0600  -13.2892   26.6251 C   0  0  0  0  0  0  0  0  0  0  0  0
    8.0755  -16.9561   24.5072 C   0  0  0  0  0  0  0  0  0  0  0  0
    8.0534  -18.0469   25.1215 O   0  0  0  0  0  0  0  0  0  0  0  0
    9.0918  -16.7622   23.5541 N   0  0  0  0  0  0  0  0  0  0  0  0
   10.1074  -17.7350   23.3626 C   0  0  1  0  0  0  0  0  0  0  0  0
   10.9290  -17.3419   22.1572 C   0  0  0  0  0  0  0  0  0  0  0  0
   10.2278  -17.8374   20.8917 C   0  0  0  0  0  0  0  0  0  0  0  0
   11.0479  -17.4815   19.7195 C   0  0  0  0  0  0  0  0  0  0  0  0
   11.7294  -18.3764   19.1471 O   0  0  0  0  0  0  0  0  0  0  0  0
   11.0504  -17.8840   24.4933 C   0  0  0  0  0  0  0  0  0  0  0  0
   11.7774  -16.9475   24.8805 O   0  0  0  0  0  0  0  0  0  0  0  0
   11.1210  -16.1905   19.1869 O   0  0  0  0  0  0  0  0  0  0  0  0
   11.4909  -20.3958   27.1329 C   0  0  0  0  0  0  0  0  0  0  0  0
   12.0616  -19.2604   26.2734 C   0  0  2  0  0  0  0  0  0  0  0  0
   11.1356  -19.1262   25.1648 N   0  0  0  0  0  0  0  0  0  0  0  0
   13.4080  -19.5832   25.7940 C   0  0  0  0  0  0  0  0  0  0  0  0
   14.5168  -19.5318   26.6333 O   0  0  0  0  0  0  0  0  0  0  0  0
   13.5523  -19.9169   24.5847 O   0  0  0  0  0  0  0  0  0  0  0  0
  2  1  1  1
  3  2  1  0
  4  9  2  0
  4  3  1  0
  5  4  1  0
  6  7  1  0
  6  5  2  0
  7  8  2  0
  8  9  1  0
 10 12  1  0
 10  2  1  0
 11 10  2  0
 13 12  1  0
 13 14  1  6
 14 15  1  0
 15 16  1  0
 16 17  2  0
 18 13  1  0
 19 18  2  0
 20 16  1  0
 22 21  1  1
 22 24  1  0
 22 23  1  0
 23 18  1  0
 24 25  1  0
 26 24  2  0
M  END
$$$$
