FEA.pdb
     RDKit          3D

 26 26  0  0  1  0  0  0  0  0999 V2000
    7.1414  -15.5417   21.0718 N   0  0  0  0  0  0  0  0  0  0  0  0
    7.5418  -14.9187   22.2909 C   0  0  1  0  0  0  0  0  0  0  0  0
    6.3704  -14.4476   23.0939 C   0  0  0  0  0  0  0  0  0  0  0  0
    6.6987  -13.7945   24.3558 C   0  0  0  0  0  0  0  0  0  0  0  0
    7.6504  -12.8092   24.4187 C   0  0  0  0  0  0  0  0  0  0  0  0
    7.9643  -12.2006   25.6178 C   0  0  0  0  0  0  0  0  0  0  0  0
    7.3049  -12.5927   26.7799 C   0  0  0  0  0  0  0  0  0  0  0  0
    6.3380  -13.5885   26.7397 C   0  0  0  0  0  0  0  0  0  0  0  0
    6.0570  -14.1698   25.5132 C   0  0  0  0  0  0  0  0  0  0  0  0
    8.3166  -15.8484   23.1541 C   0  0  0  0  0  0  0  0  0  0  0  0
    7.8105  -16.9360   23.5132 O   0  0  0  0  0  0  0  0  0  0  0  0
    9.6199  -15.5557   23.5951 N   0  0  0  0  0  0  0  0  0  0  0  0
   10.3802  -16.5160   24.3121 C   0  0  1  0  0  0  0  0  0  0  0  0
   11.8472  -16.2274   24.0954 C   0  0  0  0  0  0  0  0  0  0  0  0
   12.2495  -16.7055   22.6995 C   0  0  0  0  0  0  0  0  0  0  0  0
   13.6814  -16.4238   22.4912 C   0  0  0  0  0  0  0  0  0  0  0  0
   14.5427  -17.1125   23.1051 O   0  0  0  0  0  0  0  0  0  0  0  0
   10.1569  -16.5235   25.7749 C   0  0  0  0  0  0  0  0  0  0  0  0
   10.3285  -15.5082   26.4788 O   0  0  0  0  0  0  0  0  0  0  0  0
   14.1594  -15.4237   21.6386 O   0  0  0  0  0  0  0  0  0  0  0  0
    8.5749  -18.8302   28.1459 C   0  0  0  0  0  0  0  0  0  0  0  0
    9.6151  -17.7420   27.8504 C   0  0  2  0  0  0  0  0  0  0  0  0
    9.7328  -17.7171   26.4047 N   0  0  0  0  0  0  0  0  0  0  0  0
   10.9031  -18.0557   28.4746 C   0  0  0  0  0  0  0  0  0  0  0  0
   12.0562  -18.2474   27.7194 O   0  0  0  0  0  0  0  0  0  0  0  0
   10.9549  -18.1506   29.7327 O   0  0  0  0  0  0  0  0  0  0  0  0
  2  1  1  6
  3  2  1  0
  4  9  2  0
  4  3  1  0
  5  4  1  0
  6  7  1  0
  6  5  2  0
  7  8  2  0
  8  9  1  0
 10 12  1  0
 10  2  1  0
 11 10  2  0
 13 12  1  0
 13 14  1  1
 14 15  1  0
 15 16  1  0
 16 17  2  0
 18 13  1  0
 19 18  2  0
 20 16  1  0
 22 21  1  6
 22 24  1  0
 22 23  1  0
 23 18  1  0
 24 25  1  0
 26 24  2  0
M  END
$$$$
