PDY.pdb
     RDKit          3D

 28 29  0  0  1  0  0  0  0  0999 V2000
    8.8905  -14.6273   17.9006 N   0  0  0  0  0  0  0  0  0  0  0  0
    7.4695  -14.5302   17.7808 C   0  0  0  0  0  0  0  0  0  0  0  0
    7.2287  -13.0874   18.2527 C   0  0  0  0  0  0  0  0  0  0  0  0
    8.1872  -13.0411   19.4400 C   0  0  0  0  0  0  0  0  0  0  0  0
    9.2060  -14.1271   19.1839 C   0  0  1  0  0  0  0  0  0  0  0  0
    9.1489  -15.1403   20.2884 C   0  0  0  0  0  0  0  0  0  0  0  0
    8.1472  -15.0477   21.0453 O   0  0  0  0  0  0  0  0  0  0  0  0
   10.1402  -16.1206   20.4661 N   0  0  0  0  0  0  0  0  0  0  0  0
   10.4361  -16.9626   21.5617 C   0  0  1  0  0  0  0  0  0  0  0  0
   11.6716  -17.8319   21.4541 C   0  0  0  0  0  0  0  0  0  0  0  0
   11.6685  -18.6074   20.2093 C   0  0  0  0  0  0  0  0  0  0  0  0
   10.6695  -19.2642   19.8688 O   0  0  0  0  0  0  0  0  0  0  0  0
   10.2895  -16.2687   22.8438 C   0  0  0  0  0  0  0  0  0  0  0  0
   11.0367  -15.2886   23.1723 O   0  0  0  0  0  0  0  0  0  0  0  0
   12.7895  -18.6040   19.4118 O   0  0  0  0  0  0  0  0  0  0  0  0
    6.1572  -11.3876   28.6862 O   0  0  0  0  0  0  0  0  0  0  0  0
    6.6028  -12.2159   27.6787 C   0  0  0  0  0  0  0  0  0  0  0  0
    5.7063  -12.9441   26.9585 C   0  0  0  0  0  0  0  0  0  0  0  0
    6.1490  -13.7736   25.9494 C   0  0  0  0  0  0  0  0  0  0  0  0
    7.4807  -13.9119   25.6190 C   0  0  0  0  0  0  0  0  0  0  0  0
    7.9375  -14.7972   24.5492 C   0  0  0  0  0  0  0  0  0  0  0  0
    9.0096  -15.7823   24.9626 C   0  0  2  0  0  0  0  0  0  0  0  0
    9.3100  -16.6253   23.8257 N   0  0  0  0  0  0  0  0  0  0  0  0
    8.6447  -16.5644   26.1615 C   0  0  0  0  0  0  0  0  0  0  0  0
    8.8097  -16.0005   27.2767 O   0  0  0  0  0  0  0  0  0  0  0  0
    8.3798  -13.1697   26.3554 C   0  0  0  0  0  0  0  0  0  0  0  0
    7.9588  -12.3271   27.3766 C   0  0  0  0  0  0  0  0  0  0  0  0
    8.1515  -17.8396   26.0679 O   0  0  0  0  0  0  0  0  0  0  0  0
  1  5  1  0
  2  3  1  0
  2  1  1  0
  3  4  1  0
  4  5  1  0
  5  6  1  1
  6  7  2  0
  8  9  1  0
  8  6  1  0
  9 13  1  0
 10 11  1  0
  9 10  1  6
 11 12  2  0
 13 14  2  0
 15 11  1  0
 16 17  1  0
 17 27  2  0
 18 17  1  0
 18 19  2  0
 19 20  1  0
 20 26  2  0
 20 21  1  0
 22 21  1  6
 22 24  1  0
 23 22  1  0
 23 13  1  0
 24 25  2  0
 24 28  1  0
 27 26  1  0
M  END
$$$$
