PDY.pdb
     RDKit          3D

 28 29  0  0  1  0  0  0  0  0999 V2000
    6.1256  -18.7320   22.3154 N   0  0  0  0  0  0  0  0  0  0  0  0
    5.1465  -17.9450   21.6333 C   0  0  0  0  0  0  0  0  0  0  0  0
    4.9442  -18.7674   20.3507 C   0  0  0  0  0  0  0  0  0  0  0  0
    6.3952  -19.1318   20.0465 C   0  0  0  0  0  0  0  0  0  0  0  0
    7.1295  -19.0131   21.3616 C   0  0  1  0  0  0  0  0  0  0  0  0
    8.2012  -17.9699   21.2463 C   0  0  0  0  0  0  0  0  0  0  0  0
    9.2800  -18.3686   20.7344 O   0  0  0  0  0  0  0  0  0  0  0  0
    8.0155  -16.6453   21.6778 N   0  0  0  0  0  0  0  0  0  0  0  0
    8.9129  -15.5576   21.7687 C   0  0  1  0  0  0  0  0  0  0  0  0
    8.4405  -14.2223   21.2323 C   0  0  0  0  0  0  0  0  0  0  0  0
    8.3888  -14.2271   19.7666 C   0  0  0  0  0  0  0  0  0  0  0  0
    8.8352  -15.1871   19.1153 O   0  0  0  0  0  0  0  0  0  0  0  0
    9.5654  -15.4911   23.0789 C   0  0  0  0  0  0  0  0  0  0  0  0
   10.5906  -14.7618   23.2883 O   0  0  0  0  0  0  0  0  0  0  0  0
    7.8375  -13.1515   19.1095 O   0  0  0  0  0  0  0  0  0  0  0  0
    5.6055  -11.2272   26.3083 O   0  0  0  0  0  0  0  0  0  0  0  0
    6.3543  -12.3824   26.3726 C   0  0  0  0  0  0  0  0  0  0  0  0
    5.7941  -13.5699   26.0135 C   0  0  0  0  0  0  0  0  0  0  0  0
    6.5410  -14.7277   26.0765 C   0  0  0  0  0  0  0  0  0  0  0  0
    7.8555  -14.7534   26.4926 C   0  0  0  0  0  0  0  0  0  0  0  0
    8.6355  -15.9880   26.5581 C   0  0  0  0  0  0  0  0  0  0  0  0
    9.7344  -16.0935   25.5228 C   0  0  2  0  0  0  0  0  0  0  0  0
    9.1165  -16.2284   24.2215 N   0  0  0  0  0  0  0  0  0  0  0  0
   10.6926  -17.1818   25.8057 C   0  0  0  0  0  0  0  0  0  0  0  0
   10.7563  -18.1136   24.9594 O   0  0  0  0  0  0  0  0  0  0  0  0
    8.4123  -13.5448   26.8542 C   0  0  0  0  0  0  0  0  0  0  0  0
    7.6809  -12.3649   26.7994 C   0  0  0  0  0  0  0  0  0  0  0  0
   11.4736  -17.1800   26.9317 O   0  0  0  0  0  0  0  0  0  0  0  0
  1  5  1  0
  2  3  1  0
  2  1  1  0
  3  4  1  0
  4  5  1  0
  5  6  1  6
  6  7  2  0
  8  9  1  0
  8  6  1  0
  9 13  1  0
 10 11  1  0
  9 10  1  1
 11 12  2  0
 13 14  2  0
 15 11  1  0
 16 17  1  0
 17 27  2  0
 18 17  1  0
 18 19  2  0
 19 20  1  0
 20 26  2  0
 20 21  1  0
 22 21  1  1
 22 24  1  0
 23 22  1  0
 23 13  1  0
 24 25  2  0
 24 28  1  0
 27 26  1  0
M  END
$$$$
