PDY.pdb
     RDKit          3D

 28 29  0  0  1  0  0  0  0  0999 V2000
    9.3040  -14.1255   18.9633 N   0  0  0  0  0  0  0  0  0  0  0  0
    8.2466  -14.5295   18.0904 C   0  0  0  0  0  0  0  0  0  0  0  0
    7.3632  -13.2718   18.0906 C   0  0  0  0  0  0  0  0  0  0  0  0
    7.4210  -12.9163   19.5741 C   0  0  0  0  0  0  0  0  0  0  0  0
    8.6761  -13.5717   20.1016 C   0  0  1  0  0  0  0  0  0  0  0  0
    8.3152  -14.5623   21.1686 C   0  0  0  0  0  0  0  0  0  0  0  0
    7.4606  -14.1609   22.0013 O   0  0  0  0  0  0  0  0  0  0  0  0
    8.8886  -15.8437   21.2348 N   0  0  0  0  0  0  0  0  0  0  0  0
    8.7168  -16.8978   22.1602 C   0  0  1  0  0  0  0  0  0  0  0  0
    9.1359  -18.2842   21.7175 C   0  0  0  0  0  0  0  0  0  0  0  0
   10.5392  -18.3040   21.2915 C   0  0  0  0  0  0  0  0  0  0  0  0
   10.8778  -17.8435   20.1877 O   0  0  0  0  0  0  0  0  0  0  0  0
    9.1639  -16.5269   23.5053 C   0  0  0  0  0  0  0  0  0  0  0  0
   10.2788  -15.9424   23.7108 O   0  0  0  0  0  0  0  0  0  0  0  0
   11.4889  -18.8411   22.1295 O   0  0  0  0  0  0  0  0  0  0  0  0
    6.2670  -10.6109   25.8228 O   0  0  0  0  0  0  0  0  0  0  0  0
    6.6123  -11.9221   26.0700 C   0  0  0  0  0  0  0  0  0  0  0  0
    7.8987  -12.2318   26.3892 C   0  0  0  0  0  0  0  0  0  0  0  0
    8.2473  -13.5430   26.6376 C   0  0  0  0  0  0  0  0  0  0  0  0
    7.3459  -14.5850   26.5799 C   0  0  0  0  0  0  0  0  0  0  0  0
    7.7287  -15.9713   26.8421 C   0  0  0  0  0  0  0  0  0  0  0  0
    8.8923  -16.4702   26.0127 C   0  0  2  0  0  0  0  0  0  0  0  0
    8.4003  -16.7849   24.6890 N   0  0  0  0  0  0  0  0  0  0  0  0
    9.5997  -17.6081   26.6348 C   0  0  0  0  0  0  0  0  0  0  0  0
    9.4822  -18.7266   26.0658 O   0  0  0  0  0  0  0  0  0  0  0  0
    6.0458  -14.2594   26.2554 C   0  0  0  0  0  0  0  0  0  0  0  0
    5.6697  -12.9464   26.0010 C   0  0  0  0  0  0  0  0  0  0  0  0
   10.3466  -17.4570   27.7738 O   0  0  0  0  0  0  0  0  0  0  0  0
  1  5  1  0
  2  3  1  0
  2  1  1  0
  3  4  1  0
  4  5  1  0
  5  6  1  1
  6  7  2  0
  8  9  1  0
  8  6  1  0
  9 13  1  0
 10 11  1  0
  9 10  1  6
 11 12  2  0
 13 14  2  0
 15 11  1  0
 16 17  1  0
 17 27  2  0
 18 17  1  0
 18 19  2  0
 19 20  1  0
 20 26  2  0
 20 21  1  0
 22 21  1  1
 22 24  1  0
 23 22  1  0
 23 13  1  0
 24 25  2  0
 24 28  1  0
 27 26  1  0
M  END
$$$$
