PDY.pdb
     RDKit          3D

 28 29  0  0  1  0  0  0  0  0999 V2000
    9.3134  -14.2856   18.5489 N   0  0  0  0  0  0  0  0  0  0  0  0
    8.0480  -14.4486   17.9044 C   0  0  0  0  0  0  0  0  0  0  0  0
    7.3951  -13.0849   18.1805 C   0  0  0  0  0  0  0  0  0  0  0  0
    7.8139  -12.8884   19.6354 C   0  0  0  0  0  0  0  0  0  0  0  0
    9.0303  -13.7631   19.8309 C   0  0  1  0  0  0  0  0  0  0  0  0
    8.7450  -14.7926   20.8838 C   0  0  0  0  0  0  0  0  0  0  0  0
    7.8266  -14.4900   21.6900 O   0  0  0  0  0  0  0  0  0  0  0  0
    9.4502  -16.0056   20.9651 N   0  0  0  0  0  0  0  0  0  0  0  0
    9.5334  -16.9712   21.9934 C   0  0  1  0  0  0  0  0  0  0  0  0
   10.0169  -18.3539   21.6086 C   0  0  0  0  0  0  0  0  0  0  0  0
    9.8899  -19.2918   22.7290 C   0  0  0  0  0  0  0  0  0  0  0  0
    8.8241  -19.8967   22.9374 O   0  0  0  0  0  0  0  0  0  0  0  0
   10.1452  -16.4286   23.2091 C   0  0  0  0  0  0  0  0  0  0  0  0
   11.2551  -15.8006   23.1860 O   0  0  0  0  0  0  0  0  0  0  0  0
   10.9684  -19.5005   23.5571 O   0  0  0  0  0  0  0  0  0  0  0  0
    4.7804  -12.7987   26.9599 O   0  0  0  0  0  0  0  0  0  0  0  0
    6.0606  -13.2081   26.6552 C   0  0  0  0  0  0  0  0  0  0  0  0
    6.2613  -14.4306   26.0913 C   0  0  0  0  0  0  0  0  0  0  0  0
    7.5413  -14.8430   25.7848 C   0  0  0  0  0  0  0  0  0  0  0  0
    8.6581  -14.0697   26.0224 C   0  0  0  0  0  0  0  0  0  0  0  0
   10.0100  -14.5198   25.6960 C   0  0  0  0  0  0  0  0  0  0  0  0
   10.1906  -16.0225   25.6985 C   0  0  2  0  0  0  0  0  0  0  0  0
    9.5599  -16.5545   24.5100 N   0  0  0  0  0  0  0  0  0  0  0  0
    9.6927  -16.6623   26.9335 C   0  0  0  0  0  0  0  0  0  0  0  0
   10.2191  -16.2886   28.0161 O   0  0  0  0  0  0  0  0  0  0  0  0
    8.4427  -12.8335   26.5942 C   0  0  0  0  0  0  0  0  0  0  0  0
    7.1632  -12.3952   26.9120 C   0  0  0  0  0  0  0  0  0  0  0  0
    8.7081  -17.6151   26.9053 O   0  0  0  0  0  0  0  0  0  0  0  0
  1  5  1  0
  2  3  1  0
  2  1  1  0
  3  4  1  0
  4  5  1  0
  5  6  1  1
  6  7  2  0
  8  9  1  0
  8  6  1  0
  9 13  1  0
 10 11  1  0
  9 10  1  6
 11 12  2  0
 13 14  2  0
 15 11  1  0
 16 17  1  0
 17 27  2  0
 18 17  1  0
 18 19  2  0
 19 20  1  0
 20 26  2  0
 20 21  1  0
 22 21  1  1
 22 24  1  0
 23 22  1  0
 23 13  1  0
 24 25  2  0
 24 28  1  0
 27 26  1  0
M  END
$$$$
