PDY.pdb
     RDKit          3D

 28 29  0  0  1  0  0  0  0  0999 V2000
    9.2820  -13.8059   17.9648 N   0  0  0  0  0  0  0  0  0  0  0  0
    8.1311  -14.3558   17.3195 C   0  0  0  0  0  0  0  0  0  0  0  0
    7.0669  -13.2997   17.6577 C   0  0  0  0  0  0  0  0  0  0  0  0
    7.4237  -13.0324   19.1178 C   0  0  0  0  0  0  0  0  0  0  0  0
    8.8653  -13.4586   19.2696 C   0  0  1  0  0  0  0  0  0  0  0  0
    8.9587  -14.5651   20.2780 C   0  0  0  0  0  0  0  0  0  0  0  0
    8.3118  -14.3735   21.3408 O   0  0  0  0  0  0  0  0  0  0  0  0
    9.7126  -15.7298   20.0537 N   0  0  0  0  0  0  0  0  0  0  0  0
    9.9704  -16.8492   20.8769 C   0  0  1  0  0  0  0  0  0  0  0  0
   10.6733  -18.0303   20.2408 C   0  0  0  0  0  0  0  0  0  0  0  0
   10.6638  -19.1961   21.1307 C   0  0  0  0  0  0  0  0  0  0  0  0
    9.7413  -19.3696   21.9456 O   0  0  0  0  0  0  0  0  0  0  0  0
   10.4993  -16.4587   22.1863 C   0  0  0  0  0  0  0  0  0  0  0  0
   11.7017  -16.0619   22.3396 O   0  0  0  0  0  0  0  0  0  0  0  0
   11.6929  -20.1062   21.0578 O   0  0  0  0  0  0  0  0  0  0  0  0
   10.4681  -14.1969   30.8181 O   0  0  0  0  0  0  0  0  0  0  0  0
   10.1312  -14.5565   29.5310 C   0  0  0  0  0  0  0  0  0  0  0  0
    9.8404  -13.5920   28.6156 C   0  0  0  0  0  0  0  0  0  0  0  0
    9.5033  -13.9487   27.3266 C   0  0  0  0  0  0  0  0  0  0  0  0
    9.4420  -15.2586   26.9001 C   0  0  0  0  0  0  0  0  0  0  0  0
    9.0800  -15.6238   25.5317 C   0  0  0  0  0  0  0  0  0  0  0  0
   10.2476  -16.0333   24.6601 C   0  0  2  0  0  0  0  0  0  0  0  0
    9.7246  -16.4887   23.3903 N   0  0  0  0  0  0  0  0  0  0  0  0
   11.1226  -17.0369   25.3001 C   0  0  0  0  0  0  0  0  0  0  0  0
   10.7722  -18.2429   25.1939 O   0  0  0  0  0  0  0  0  0  0  0  0
    9.7381  -16.2271   27.8360 C   0  0  0  0  0  0  0  0  0  0  0  0
   10.0806  -15.8934   29.1403 C   0  0  0  0  0  0  0  0  0  0  0  0
   12.2589  -16.6763   25.9761 O   0  0  0  0  0  0  0  0  0  0  0  0
  1  5  1  0
  2  3  1  0
  2  1  1  0
  3  4  1  0
  4  5  1  0
  5  6  1  1
  6  7  2  0
  8  9  1  0
  8  6  1  0
  9 13  1  0
 10 11  1  0
  9 10  1  6
 11 12  2  0
 13 14  2  0
 15 11  1  0
 16 17  1  0
 17 27  2  0
 18 17  1  0
 18 19  2  0
 19 20  1  0
 20 26  2  0
 20 21  1  0
 22 21  1  1
 22 24  1  0
 23 22  1  0
 23 13  1  0
 24 25  2  0
 24 28  1  0
 27 26  1  0
M  END
$$$$
