PDY.pdb
     RDKit          3D

 28 29  0  0  1  0  0  0  0  0999 V2000
    7.4444  -14.6445   20.9416 N   0  0  0  0  0  0  0  0  0  0  0  0
    8.3381  -14.2967   19.8816 C   0  0  0  0  0  0  0  0  0  0  0  0
    7.7490  -15.1083   18.7169 C   0  0  0  0  0  0  0  0  0  0  0  0
    7.4410  -16.4153   19.4432 C   0  0  0  0  0  0  0  0  0  0  0  0
    7.3308  -16.0525   20.9058 C   0  0  1  0  0  0  0  0  0  0  0  0
    8.3772  -16.7908   21.6869 C   0  0  0  0  0  0  0  0  0  0  0  0
    8.2161  -18.0379   21.7473 O   0  0  0  0  0  0  0  0  0  0  0  0
    9.4576  -16.1392   22.3059 N   0  0  0  0  0  0  0  0  0  0  0  0
   10.4960  -16.6283   23.1302 C   0  0  1  0  0  0  0  0  0  0  0  0
   11.8475  -15.9542   23.0163 C   0  0  0  0  0  0  0  0  0  0  0  0
   12.4172  -16.1299   21.6764 C   0  0  0  0  0  0  0  0  0  0  0  0
   12.8996  -15.1664   21.0565 O   0  0  0  0  0  0  0  0  0  0  0  0
   10.0445  -16.8591   24.5048 C   0  0  0  0  0  0  0  0  0  0  0  0
   10.8317  -17.2852   25.4133 O   0  0  0  0  0  0  0  0  0  0  0  0
   12.4148  -17.3805   21.1031 O   0  0  0  0  0  0  0  0  0  0  0  0
    7.0306  -10.5593   26.3203 O   0  0  0  0  0  0  0  0  0  0  0  0
    7.0183  -11.9367   26.3666 C   0  0  0  0  0  0  0  0  0  0  0  0
    5.8480  -12.6071   26.1828 C   0  0  0  0  0  0  0  0  0  0  0  0
    5.8325  -13.9855   26.2282 C   0  0  0  0  0  0  0  0  0  0  0  0
    6.9620  -14.7436   26.4548 C   0  0  0  0  0  0  0  0  0  0  0  0
    6.9317  -16.2043   26.5039 C   0  0  0  0  0  0  0  0  0  0  0  0
    8.2770  -16.8684   26.3048 C   0  0  2  0  0  0  0  0  0  0  0  0
    8.7000  -16.6306   24.9418 N   0  0  0  0  0  0  0  0  0  0  0  0
    8.2688  -18.3052   26.6484 C   0  0  0  0  0  0  0  0  0  0  0  0
    8.2184  -19.1169   25.6854 O   0  0  0  0  0  0  0  0  0  0  0  0
    8.1416  -14.0538   26.6399 C   0  0  0  0  0  0  0  0  0  0  0  0
    8.1833  -12.6658   26.5987 C   0  0  0  0  0  0  0  0  0  0  0  0
    8.3135  -18.7358   27.9486 O   0  0  0  0  0  0  0  0  0  0  0  0
  1  5  1  0
  2  3  1  0
  2  1  1  0
  3  4  1  0
  4  5  1  0
  5  6  1  1
  6  7  2  0
  8  9  1  0
  8  6  1  0
  9 13  1  0
 10 11  1  0
  9 10  1  1
 11 12  2  0
 13 14  2  0
 15 11  1  0
 16 17  1  0
 17 27  2  0
 18 17  1  0
 18 19  2  0
 19 20  1  0
 20 26  2  0
 20 21  1  0
 22 21  1  6
 22 24  1  0
 23 22  1  0
 23 13  1  0
 24 25  2  0
 24 28  1  0
 27 26  1  0
M  END
$$$$
