PDY.pdb
     RDKit          3D

 28 29  0  0  1  0  0  0  0  0999 V2000
    8.9332  -14.3779   18.3422 N   0  0  0  0  0  0  0  0  0  0  0  0
    7.5446  -14.4508   18.0112 C   0  0  0  0  0  0  0  0  0  0  0  0
    7.0898  -13.0147   18.3163 C   0  0  0  0  0  0  0  0  0  0  0  0
    7.8464  -12.7763   19.6207 C   0  0  0  0  0  0  0  0  0  0  0  0
    8.9970  -13.7555   19.6092 C   0  0  1  0  0  0  0  0  0  0  0  0
    8.8752  -14.6878   20.7779 C   0  0  0  0  0  0  0  0  0  0  0  0
    8.4844  -14.1525   21.8482 O   0  0  0  0  0  0  0  0  0  0  0  0
    9.1750  -16.0578   20.6858 N   0  0  0  0  0  0  0  0  0  0  0  0
    9.2316  -17.0704   21.6699 C   0  0  1  0  0  0  0  0  0  0  0  0
    9.5874  -18.4678   21.2071 C   0  0  0  0  0  0  0  0  0  0  0  0
    8.7570  -18.8781   20.0699 C   0  0  0  0  0  0  0  0  0  0  0  0
    9.2706  -19.3574   19.0444 O   0  0  0  0  0  0  0  0  0  0  0  0
    9.9408  -16.6284   22.8734 C   0  0  0  0  0  0  0  0  0  0  0  0
   11.1941  -16.3917   22.8719 O   0  0  0  0  0  0  0  0  0  0  0  0
    7.3916  -18.7279   20.1454 O   0  0  0  0  0  0  0  0  0  0  0  0
    5.0399  -12.0931   26.4576 O   0  0  0  0  0  0  0  0  0  0  0  0
    6.2616  -12.6726   26.1907 C   0  0  0  0  0  0  0  0  0  0  0  0
    6.5697  -13.0399   24.9168 C   0  0  0  0  0  0  0  0  0  0  0  0
    7.7916  -13.6197   24.6464 C   0  0  0  0  0  0  0  0  0  0  0  0
    8.7437  -13.8550   25.6158 C   0  0  0  0  0  0  0  0  0  0  0  0
   10.0341  -14.4734   25.3168 C   0  0  0  0  0  0  0  0  0  0  0  0
   10.0203  -15.9869   25.3119 C   0  0  2  0  0  0  0  0  0  0  0  0
    9.2989  -16.4274   24.1376 N   0  0  0  0  0  0  0  0  0  0  0  0
    9.4735  -16.5640   26.5570 C   0  0  0  0  0  0  0  0  0  0  0  0
    8.3679  -17.1624   26.4653 O   0  0  0  0  0  0  0  0  0  0  0  0
    8.4206  -13.4791   26.9026 C   0  0  0  0  0  0  0  0  0  0  0  0
    7.1966  -12.8933   27.2004 C   0  0  0  0  0  0  0  0  0  0  0  0
   10.1337  -16.4550   27.7529 O   0  0  0  0  0  0  0  0  0  0  0  0
  1  5  1  0
  2  3  1  0
  2  1  1  0
  3  4  1  0
  4  5  1  0
  5  6  1  1
  6  7  2  0
  8  9  1  0
  8  6  1  0
  9 13  1  0
 10 11  1  0
  9 10  1  6
 11 12  2  0
 13 14  2  0
 15 11  1  0
 16 17  1  0
 17 27  2  0
 18 17  1  0
 18 19  2  0
 19 20  1  0
 20 26  2  0
 20 21  1  0
 22 21  1  1
 22 24  1  0
 23 22  1  0
 23 13  1  0
 24 25  2  0
 24 28  1  0
 27 26  1  0
M  END
$$$$
