PDY.pdb
     RDKit          3D

 28 29  0  0  1  0  0  0  0  0999 V2000
    8.6122  -15.1001   17.4019 N   0  0  0  0  0  0  0  0  0  0  0  0
    7.2912  -14.5945   17.6081 C   0  0  0  0  0  0  0  0  0  0  0  0
    7.5812  -13.1139   17.9010 C   0  0  0  0  0  0  0  0  0  0  0  0
    8.8004  -13.2643   18.8074 C   0  0  0  0  0  0  0  0  0  0  0  0
    9.3837  -14.6201   18.4841 C   0  0  1  0  0  0  0  0  0  0  0  0
    9.3580  -15.4835   19.7104 C   0  0  0  0  0  0  0  0  0  0  0  0
    8.2677  -15.4829   20.3398 O   0  0  0  0  0  0  0  0  0  0  0  0
   10.4685  -16.2377   20.1266 N   0  0  0  0  0  0  0  0  0  0  0  0
   10.7120  -16.9660   21.3128 C   0  0  1  0  0  0  0  0  0  0  0  0
   11.9863  -17.7820   21.3761 C   0  0  0  0  0  0  0  0  0  0  0  0
   12.1379  -18.6233   20.1843 C   0  0  0  0  0  0  0  0  0  0  0  0
   11.2866  -19.4822   19.8967 O   0  0  0  0  0  0  0  0  0  0  0  0
   10.4381  -16.1706   22.5124 C   0  0  0  0  0  0  0  0  0  0  0  0
   11.2965  -15.3628   22.9996 O   0  0  0  0  0  0  0  0  0  0  0  0
   13.2395  -18.4547   19.3777 O   0  0  0  0  0  0  0  0  0  0  0  0
    6.0884  -11.2880   28.4179 O   0  0  0  0  0  0  0  0  0  0  0  0
    6.4761  -12.0961   27.3709 C   0  0  0  0  0  0  0  0  0  0  0  0
    7.6124  -11.8058   26.6800 C   0  0  0  0  0  0  0  0  0  0  0  0
    8.0032  -12.6127   25.6320 C   0  0  0  0  0  0  0  0  0  0  0  0
    7.2921  -13.7248   25.2328 C   0  0  0  0  0  0  0  0  0  0  0  0
    7.7152  -14.5703   24.1179 C   0  0  0  0  0  0  0  0  0  0  0  0
    8.9424  -15.4112   24.3966 C   0  0  2  0  0  0  0  0  0  0  0  0
    9.2017  -16.2303   23.2325 N   0  0  0  0  0  0  0  0  0  0  0  0
    8.8258  -16.2119   25.6327 C   0  0  0  0  0  0  0  0  0  0  0  0
    8.3355  -17.3670   25.5144 O   0  0  0  0  0  0  0  0  0  0  0  0
    6.1426  -14.0089   25.9396 C   0  0  0  0  0  0  0  0  0  0  0  0
    5.7280  -13.2117   26.9991 C   0  0  0  0  0  0  0  0  0  0  0  0
    9.2299  -15.7245   26.8481 O   0  0  0  0  0  0  0  0  0  0  0  0
  1  5  1  0
  2  3  1  0
  2  1  1  0
  3  4  1  0
  4  5  1  0
  5  6  1  1
  6  7  2  0
  8  9  1  0
  8  6  1  0
  9 13  1  0
 10 11  1  0
  9 10  1  1
 11 12  2  0
 13 14  2  0
 15 11  1  0
 16 17  1  0
 17 27  2  0
 18 17  1  0
 18 19  2  0
 19 20  1  0
 20 26  2  0
 20 21  1  0
 22 21  1  6
 22 24  1  0
 23 22  1  0
 23 13  1  0
 24 25  2  0
 24 28  1  0
 27 26  1  0
M  END
$$$$
