PDY.pdb
     RDKit          3D

 28 29  0  0  1  0  0  0  0  0999 V2000
    9.2112  -13.8132   19.2670 N   0  0  0  0  0  0  0  0  0  0  0  0
    8.0249  -14.1848   18.5614 C   0  0  0  0  0  0  0  0  0  0  0  0
    7.0590  -13.0708   18.9954 C   0  0  0  0  0  0  0  0  0  0  0  0
    7.4145  -12.9841   20.4775 C   0  0  0  0  0  0  0  0  0  0  0  0
    8.8070  -13.5584   20.5968 C   0  0  1  0  0  0  0  0  0  0  0  0
    8.7790  -14.7628   21.4903 C   0  0  0  0  0  0  0  0  0  0  0  0
    7.7210  -14.9071   22.1572 O   0  0  0  0  0  0  0  0  0  0  0  0
    9.8539  -15.6640   21.5772 N   0  0  0  0  0  0  0  0  0  0  0  0
   10.1057  -16.7357   22.4633 C   0  0  1  0  0  0  0  0  0  0  0  0
   11.2163  -17.6961   22.0918 C   0  0  0  0  0  0  0  0  0  0  0  0
   11.0814  -18.1528   20.7046 C   0  0  0  0  0  0  0  0  0  0  0  0
   11.8168  -17.7019   19.8097 O   0  0  0  0  0  0  0  0  0  0  0  0
   10.1193  -16.3009   23.8624 C   0  0  0  0  0  0  0  0  0  0  0  0
   10.9770  -15.4663   24.3035 O   0  0  0  0  0  0  0  0  0  0  0  0
   10.1259  -19.0933   20.3961 O   0  0  0  0  0  0  0  0  0  0  0  0
    6.0928  -10.9644   25.7995 O   0  0  0  0  0  0  0  0  0  0  0  0
    6.5413  -12.2444   26.0443 C   0  0  0  0  0  0  0  0  0  0  0  0
    7.6672  -12.4342   26.7853 C   0  0  0  0  0  0  0  0  0  0  0  0
    8.1182  -13.7140   27.0324 C   0  0  0  0  0  0  0  0  0  0  0  0
    7.4790  -14.8412   26.5607 C   0  0  0  0  0  0  0  0  0  0  0  0
    7.9693  -16.1925   26.8268 C   0  0  0  0  0  0  0  0  0  0  0  0
    9.3383  -16.4892   26.2537 C   0  0  2  0  0  0  0  0  0  0  0  0
    9.1855  -16.7683   24.8423 N   0  0  0  0  0  0  0  0  0  0  0  0
   10.0413  -17.5742   26.9685 C   0  0  0  0  0  0  0  0  0  0  0  0
   10.2274  -18.6447   26.3297 O   0  0  0  0  0  0  0  0  0  0  0  0
    6.3398  -14.6368   25.8111 C   0  0  0  0  0  0  0  0  0  0  0  0
    5.8652  -13.3578   25.5485 C   0  0  0  0  0  0  0  0  0  0  0  0
   10.4702  -17.4261   28.2616 O   0  0  0  0  0  0  0  0  0  0  0  0
  1  5  1  0
  2  3  1  0
  2  1  1  0
  3  4  1  0
  4  5  1  0
  5  6  1  1
  6  7  2  0
  8  9  1  0
  8  6  1  0
  9 13  1  0
 10 11  1  0
  9 10  1  6
 11 12  2  0
 13 14  2  0
 15 11  1  0
 16 17  1  0
 17 27  2  0
 18 17  1  0
 18 19  2  0
 19 20  1  0
 20 26  2  0
 20 21  1  0
 22 21  1  1
 22 24  1  0
 23 22  1  0
 23 13  1  0
 24 25  2  0
 24 28  1  0
 27 26  1  0
M  END
$$$$
