PDY.pdb
     RDKit          3D

 28 29  0  0  1  0  0  0  0  0999 V2000
    8.4584  -14.3136   19.1550 N   0  0  0  0  0  0  0  0  0  0  0  0
    7.0355  -14.1790   19.1729 C   0  0  0  0  0  0  0  0  0  0  0  0
    6.8775  -12.7613   19.7450 C   0  0  0  0  0  0  0  0  0  0  0  0
    7.9411  -12.8049   20.8393 C   0  0  0  0  0  0  0  0  0  0  0  0
    8.9028  -13.8958   20.4296 C   0  0  1  0  0  0  0  0  0  0  0  0
    8.9195  -14.9701   21.4763 C   0  0  0  0  0  0  0  0  0  0  0  0
    7.8334  -15.1309   22.0923 O   0  0  0  0  0  0  0  0  0  0  0  0
   10.0626  -15.7406   21.7497 N   0  0  0  0  0  0  0  0  0  0  0  0
   10.3079  -16.7365   22.7219 C   0  0  1  0  0  0  0  0  0  0  0  0
   11.5174  -17.6242   22.5152 C   0  0  0  0  0  0  0  0  0  0  0  0
   11.4890  -18.2613   21.1945 C   0  0  0  0  0  0  0  0  0  0  0  0
   10.4543  -18.8034   20.7694 O   0  0  0  0  0  0  0  0  0  0  0  0
   10.1553  -16.2230   24.0856 C   0  0  0  0  0  0  0  0  0  0  0  0
   10.8377  -15.2359   24.5176 O   0  0  0  0  0  0  0  0  0  0  0  0
   12.6263  -18.2557   20.4204 O   0  0  0  0  0  0  0  0  0  0  0  0
    6.2036  -10.8372   25.8802 O   0  0  0  0  0  0  0  0  0  0  0  0
    6.6259  -12.1241   26.1352 C   0  0  0  0  0  0  0  0  0  0  0  0
    5.7973  -13.1708   25.8693 C   0  0  0  0  0  0  0  0  0  0  0  0
    6.2172  -14.4599   26.1231 C   0  0  0  0  0  0  0  0  0  0  0  0
    7.4588  -14.7580   26.6436 C   0  0  0  0  0  0  0  0  0  0  0  0
    7.8908  -16.1287   26.9112 C   0  0  0  0  0  0  0  0  0  0  0  0
    9.2954  -16.4477   26.4466 C   0  0  2  0  0  0  0  0  0  0  0  0
    9.2410  -16.7766   25.0387 N   0  0  0  0  0  0  0  0  0  0  0  0
    9.9422  -17.5077   27.2469 C   0  0  0  0  0  0  0  0  0  0  0  0
   10.1543  -17.2491   28.4622 O   0  0  0  0  0  0  0  0  0  0  0  0
    8.2896  -13.6899   26.9093 C   0  0  0  0  0  0  0  0  0  0  0  0
    7.8900  -12.3825   26.6624 C   0  0  0  0  0  0  0  0  0  0  0  0
   10.2950  -18.7123   26.6971 O   0  0  0  0  0  0  0  0  0  0  0  0
  1  5  1  0
  2  3  1  0
  2  1  1  0
  3  4  1  0
  4  5  1  0
  5  6  1  1
  6  7  2  0
  8  9  1  0
  8  6  1  0
  9 13  1  0
 10 11  1  0
  9 10  1  1
 11 12  2  0
 13 14  2  0
 15 11  1  0
 16 17  1  0
 17 27  2  0
 18 17  1  0
 18 19  2  0
 19 20  1  0
 20 26  2  0
 20 21  1  0
 22 21  1  1
 22 24  1  0
 23 22  1  0
 23 13  1  0
 24 25  2  0
 24 28  1  0
 27 26  1  0
M  END
$$$$
