PDY.pdb
     RDKit          3D

 28 29  0  0  1  0  0  0  0  0999 V2000
    8.5019  -14.5691   17.8742 N   0  0  0  0  0  0  0  0  0  0  0  0
    7.0848  -14.4382   18.0077 C   0  0  0  0  0  0  0  0  0  0  0  0
    6.9702  -13.0211   18.5915 C   0  0  0  0  0  0  0  0  0  0  0  0
    8.1193  -13.0622   19.5958 C   0  0  0  0  0  0  0  0  0  0  0  0
    9.0473  -14.1505   19.1087 C   0  0  1  0  0  0  0  0  0  0  0  0
    9.1518  -15.2251   20.1500 C   0  0  0  0  0  0  0  0  0  0  0  0
    8.0532  -15.6166   20.6238 O   0  0  0  0  0  0  0  0  0  0  0  0
   10.3847  -15.7559   20.5665 N   0  0  0  0  0  0  0  0  0  0  0  0
   10.7096  -16.6678   21.5960 C   0  0  1  0  0  0  0  0  0  0  0  0
   12.0850  -17.3004   21.5532 C   0  0  0  0  0  0  0  0  0  0  0  0
   12.3279  -17.9564   20.2642 C   0  0  0  0  0  0  0  0  0  0  0  0
   11.4422  -18.6349   19.7162 O   0  0  0  0  0  0  0  0  0  0  0  0
   10.3072  -16.1739   22.9154 C   0  0  0  0  0  0  0  0  0  0  0  0
   10.8519  -15.1524   23.4507 O   0  0  0  0  0  0  0  0  0  0  0  0
   13.5550  -17.8152   19.6583 O   0  0  0  0  0  0  0  0  0  0  0  0
    6.7061  -10.7424   27.3036 O   0  0  0  0  0  0  0  0  0  0  0  0
    6.9109  -11.9835   26.7403 C   0  0  0  0  0  0  0  0  0  0  0  0
    6.2035  -13.0546   27.1931 C   0  0  0  0  0  0  0  0  0  0  0  0
    6.4060  -14.2978   26.6312 C   0  0  0  0  0  0  0  0  0  0  0  0
    7.3061  -14.5250   25.6115 C   0  0  0  0  0  0  0  0  0  0  0  0
    7.5139  -15.8485   25.0265 C   0  0  0  0  0  0  0  0  0  0  0  0
    8.9512  -16.3225   25.0374 C   0  0  2  0  0  0  0  0  0  0  0  0
    9.2833  -16.7859   23.7077 N   0  0  0  0  0  0  0  0  0  0  0  0
    9.2150  -17.3443   26.0712 C   0  0  0  0  0  0  0  0  0  0  0  0
    9.2693  -18.5419   25.6819 O   0  0  0  0  0  0  0  0  0  0  0  0
    8.0173  -13.4328   25.1610 C   0  0  0  0  0  0  0  0  0  0  0  0
    7.8313  -12.1705   25.7105 C   0  0  0  0  0  0  0  0  0  0  0  0
    9.3918  -17.0088   27.3881 O   0  0  0  0  0  0  0  0  0  0  0  0
  1  5  1  0
  2  3  1  0
  2  1  1  0
  3  4  1  0
  4  5  1  0
  5  6  1  1
  6  7  2  0
  8  9  1  0
  8  6  1  0
  9 13  1  0
 10 11  1  0
  9 10  1  1
 11 12  2  0
 13 14  2  0
 15 11  1  0
 16 17  1  0
 17 27  2  0
 18 17  1  0
 18 19  2  0
 19 20  1  0
 20 26  2  0
 20 21  1  0
 22 21  1  6
 22 24  1  0
 23 22  1  0
 23 13  1  0
 24 25  2  0
 24 28  1  0
 27 26  1  0
M  END
$$$$
