PDY.pdb
     RDKit          3D

 28 29  0  0  1  0  0  0  0  0999 V2000
    7.0435  -15.9160   21.2608 N   0  0  0  0  0  0  0  0  0  0  0  0
    7.5254  -14.9720   20.3018 C   0  0  0  0  0  0  0  0  0  0  0  0
    7.2667  -15.7246   18.9869 C   0  0  0  0  0  0  0  0  0  0  0  0
    7.7160  -17.1245   19.3985 C   0  0  0  0  0  0  0  0  0  0  0  0
    7.6195  -17.1566   20.9060 C   0  0  1  0  0  0  0  0  0  0  0  0
    8.9765  -17.4135   21.4910 C   0  0  0  0  0  0  0  0  0  0  0  0
    9.4200  -18.5788   21.3171 O   0  0  0  0  0  0  0  0  0  0  0  0
    9.7001  -16.4268   22.1825 N   0  0  0  0  0  0  0  0  0  0  0  0
   10.8988  -16.4968   22.9275 C   0  0  1  0  0  0  0  0  0  0  0  0
   12.0149  -15.5509   22.5356 C   0  0  0  0  0  0  0  0  0  0  0  0
   12.7185  -16.0264   21.3399 C   0  0  0  0  0  0  0  0  0  0  0  0
   13.2791  -17.1358   21.3279 O   0  0  0  0  0  0  0  0  0  0  0  0
   10.6467  -16.5773   24.3686 C   0  0  0  0  0  0  0  0  0  0  0  0
   11.5951  -16.6214   25.2202 O   0  0  0  0  0  0  0  0  0  0  0  0
   12.7552  -15.2290   20.2194 O   0  0  0  0  0  0  0  0  0  0  0  0
    6.9470  -10.7827   26.7766 O   0  0  0  0  0  0  0  0  0  0  0  0
    7.1413  -12.1469   26.7555 C   0  0  0  0  0  0  0  0  0  0  0  0
    6.1386  -12.9644   26.3322 C   0  0  0  0  0  0  0  0  0  0  0  0
    6.3301  -14.3301   26.3097 C   0  0  0  0  0  0  0  0  0  0  0  0
    7.5079  -14.9312   26.7008 C   0  0  0  0  0  0  0  0  0  0  0  0
    7.6972  -16.3805   26.6754 C   0  0  0  0  0  0  0  0  0  0  0  0
    9.1072  -16.8252   26.3516 C   0  0  2  0  0  0  0  0  0  0  0  0
    9.3334  -16.6138   24.9383 N   0  0  0  0  0  0  0  0  0  0  0  0
    9.3832  -18.2169   26.7631 C   0  0  0  0  0  0  0  0  0  0  0  0
    9.3218  -19.0961   25.8619 O   0  0  0  0  0  0  0  0  0  0  0  0
    8.5165  -14.0934   27.1280 C   0  0  0  0  0  0  0  0  0  0  0  0
    8.3482  -12.7148   27.1598 C   0  0  0  0  0  0  0  0  0  0  0  0
    9.6906  -18.5380   28.0594 O   0  0  0  0  0  0  0  0  0  0  0  0
  1  5  1  0
  2  3  1  0
  2  1  1  0
  3  4  1  0
  4  5  1  0
  5  6  1  1
  6  7  2  0
  8  9  1  0
  8  6  1  0
  9 13  1  0
 10 11  1  0
  9 10  1  1
 11 12  2  0
 13 14  2  0
 15 11  1  0
 16 17  1  0
 17 27  2  0
 18 17  1  0
 18 19  2  0
 19 20  1  0
 20 26  2  0
 20 21  1  0
 22 21  1  6
 22 24  1  0
 23 22  1  0
 23 13  1  0
 24 25  2  0
 24 28  1  0
 27 26  1  0
M  END
$$$$
