PDY.pdb
     RDKit          3D

 28 29  0  0  1  0  0  0  0  0999 V2000
    8.4088  -17.2032   19.1175 N   0  0  0  0  0  0  0  0  0  0  0  0
    9.3497  -17.7166   18.1719 C   0  0  0  0  0  0  0  0  0  0  0  0
    8.7514  -19.1016   17.8784 C   0  0  0  0  0  0  0  0  0  0  0  0
    8.3532  -19.5155   19.2929 C   0  0  0  0  0  0  0  0  0  0  0  0
    8.2209  -18.2279   20.0722 C   0  0  1  0  0  0  0  0  0  0  0  0
    9.2035  -18.2232   21.2055 C   0  0  0  0  0  0  0  0  0  0  0  0
    8.8818  -18.9353   22.1926 O   0  0  0  0  0  0  0  0  0  0  0  0
   10.3951  -17.4791   21.1691 N   0  0  0  0  0  0  0  0  0  0  0  0
   11.4095  -17.2911   22.1348 C   0  0  1  0  0  0  0  0  0  0  0  0
   12.8165  -17.0567   21.6258 C   0  0  0  0  0  0  0  0  0  0  0  0
   13.6621  -18.2357   21.8404 C   0  0  0  0  0  0  0  0  0  0  0  0
   13.1650  -19.3725   21.9166 O   0  0  0  0  0  0  0  0  0  0  0  0
   10.9892  -16.3815   23.2038 C   0  0  0  0  0  0  0  0  0  0  0  0
   11.2403  -15.1316   23.1667 O   0  0  0  0  0  0  0  0  0  0  0  0
   15.0233  -18.0746   21.9584 O   0  0  0  0  0  0  0  0  0  0  0  0
    5.9009  -11.1464   27.5002 O   0  0  0  0  0  0  0  0  0  0  0  0
    6.5826  -12.0894   26.7615 C   0  0  0  0  0  0  0  0  0  0  0  0
    5.9641  -13.2518   26.4165 C   0  0  0  0  0  0  0  0  0  0  0  0
    6.6435  -14.1972   25.6771 C   0  0  0  0  0  0  0  0  0  0  0  0
    7.9459  -14.0295   25.2560 C   0  0  0  0  0  0  0  0  0  0  0  0
    8.6563  -15.0410   24.4753 C   0  0  0  0  0  0  0  0  0  0  0  0
    9.6346  -15.8775   25.2714 C   0  0  2  0  0  0  0  0  0  0  0  0
   10.2714  -16.8098   24.3665 N   0  0  0  0  0  0  0  0  0  0  0  0
    9.0104  -16.5533   26.4273 C   0  0  0  0  0  0  0  0  0  0  0  0
    9.0549  -15.9447   27.5302 O   0  0  0  0  0  0  0  0  0  0  0  0
    8.5625  -12.8484   25.6115 C   0  0  0  0  0  0  0  0  0  0  0  0
    7.8995  -11.8806   26.3557 C   0  0  0  0  0  0  0  0  0  0  0  0
    8.4126  -17.7807   26.3083 O   0  0  0  0  0  0  0  0  0  0  0  0
  1  5  1  0
  2  3  1  0
  2  1  1  0
  3  4  1  0
  4  5  1  0
  5  6  1  1
  6  7  2  0
  8  9  1  0
  8  6  1  0
  9 13  1  0
 10 11  1  0
  9 10  1  6
 11 12  2  0
 13 14  2  0
 15 11  1  0
 16 17  1  0
 17 27  2  0
 18 17  1  0
 18 19  2  0
 19 20  1  0
 20 26  2  0
 20 21  1  0
 22 21  1  6
 22 24  1  0
 23 22  1  0
 23 13  1  0
 24 25  2  0
 24 28  1  0
 27 26  1  0
M  END
$$$$
