VAG.pdb
     RDKit          3D

 17 16  0  0  1  0  0  0  0  0999 V2000
    7.8076  -13.2013   18.1744 C   0  0  0  0  0  0  0  0  0  0  0  0
    8.3439  -13.2094   19.5637 C   0  0  1  0  0  0  0  0  0  0  0  0
    7.1855  -12.8705   20.5018 C   0  0  0  0  0  0  0  0  0  0  0  0
    8.9104  -14.5107   20.0358 C   0  0  2  0  0  0  0  0  0  0  0  0
    7.8742  -15.5181   19.7225 N   0  0  0  0  0  0  0  0  0  0  0  0
    9.2329  -14.5669   21.4743 C   0  0  0  0  0  0  0  0  0  0  0  0
   10.3497  -14.0914   21.8813 O   0  0  0  0  0  0  0  0  0  0  0  0
    7.5368  -14.9042   24.7827 C   0  0  0  0  0  0  0  0  0  0  0  0
    8.7492  -15.0432   23.9023 C   0  0  2  0  0  0  0  0  0  0  0  0
    8.4131  -15.1085   22.4945 N   0  0  0  0  0  0  0  0  0  0  0  0
    9.6194  -16.1695   24.3242 C   0  0  0  0  0  0  0  0  0  0  0  0
    9.4324  -16.6845   25.4550 O   0  0  0  0  0  0  0  0  0  0  0  0
   10.6488  -16.6904   23.5142 N   0  0  0  0  0  0  0  0  0  0  0  0
   11.4396  -17.8537   23.8481 C   0  0  0  0  0  0  0  0  0  0  0  0
   12.7893  -17.5148   24.3057 C   0  0  0  0  0  0  0  0  0  0  0  0
   13.2106  -17.6509   25.6187 O   0  0  0  0  0  0  0  0  0  0  0  0
   13.6233  -17.0756   23.4769 O   0  0  0  0  0  0  0  0  0  0  0  0
  2  3  1  1
  2  1  1  0
  4  2  1  0
  4  5  1  1
  6  4  1  0
  6 10  1  0
  7  6  2  0
  9  8  1  1
  9 10  1  0
  9 11  1  0
 11 12  2  0
 13 11  1  0
 13 14  1  0
 14 15  1  0
 15 16  1  0
 17 15  2  0
M  END
$$$$
