VAG.pdb
     RDKit          3D

 17 16  0  0  1  0  0  0  0  0999 V2000
    7.5349  -18.2722   15.4720 C   0  0  0  0  0  0  0  0  0  0  0  0
    8.2933  -17.3363   16.3474 C   0  0  1  0  0  0  0  0  0  0  0  0
    9.7790  -17.6504   16.1721 C   0  0  0  0  0  0  0  0  0  0  0  0
    8.1250  -15.8810   16.0456 C   0  0  2  0  0  0  0  0  0  0  0  0
    8.9262  -15.6456   14.8253 N   0  0  0  0  0  0  0  0  0  0  0  0
    8.5722  -14.9655   17.1125 C   0  0  0  0  0  0  0  0  0  0  0  0
    9.8184  -14.6908   17.2158 O   0  0  0  0  0  0  0  0  0  0  0  0
    7.1743  -12.5917   19.7126 C   0  0  0  0  0  0  0  0  0  0  0  0
    8.2529  -13.4385   19.0930 C   0  0  2  0  0  0  0  0  0  0  0  0
    7.7448  -14.3317   18.0717 N   0  0  0  0  0  0  0  0  0  0  0  0
    9.0568  -14.1545   20.1152 C   0  0  0  0  0  0  0  0  0  0  0  0
    9.6431  -13.4821   21.0001 O   0  0  0  0  0  0  0  0  0  0  0  0
    9.1942  -15.5572   20.1406 N   0  0  0  0  0  0  0  0  0  0  0  0
    9.7829  -16.2994   21.2327 C   0  0  0  0  0  0  0  0  0  0  0  0
   11.2469  -16.3174   21.1875 C   0  0  0  0  0  0  0  0  0  0  0  0
   12.0427  -16.6934   22.2578 O   0  0  0  0  0  0  0  0  0  0  0  0
   11.8299  -15.9767   20.1295 O   0  0  0  0  0  0  0  0  0  0  0  0
  2  3  1  6
  2  1  1  0
  4  2  1  0
  4  5  1  6
  6  4  1  0
  6 10  1  0
  7  6  2  0
  9  8  1  1
  9 10  1  0
  9 11  1  0
 11 12  2  0
 13 11  1  0
 13 14  1  0
 14 15  1  0
 15 16  1  0
 17 15  2  0
M  END
$$$$
