VAG.pdb
     RDKit          3D

 17 16  0  0  1  0  0  0  0  0999 V2000
    7.4897  -11.7735   27.1865 C   0  0  0  0  0  0  0  0  0  0  0  0
    7.7762  -12.7531   26.1020 C   0  0  1  0  0  0  0  0  0  0  0  0
    8.4712  -13.9538   26.7438 C   0  0  0  0  0  0  0  0  0  0  0  0
    6.5834  -13.2873   25.3747 C   0  0  2  0  0  0  0  0  0  0  0  0
    5.8164  -14.0379   26.3921 N   0  0  0  0  0  0  0  0  0  0  0  0
    6.8906  -14.1739   24.2364 C   0  0  0  0  0  0  0  0  0  0  0  0
    6.7190  -15.4360   24.3658 O   0  0  0  0  0  0  0  0  0  0  0  0
    7.3373  -13.8907   20.5118 C   0  0  0  0  0  0  0  0  0  0  0  0
    7.4023  -14.6439   21.8129 C   0  0  2  0  0  0  0  0  0  0  0  0
    7.3721  -13.7690   22.9674 N   0  0  0  0  0  0  0  0  0  0  0  0
    8.5468  -15.5886   21.8546 C   0  0  0  0  0  0  0  0  0  0  0  0
    8.6667  -16.4308   20.9298 O   0  0  0  0  0  0  0  0  0  0  0  0
    9.5084  -15.5857   22.8853 N   0  0  0  0  0  0  0  0  0  0  0  0
   10.6574  -16.4620   22.9311 C   0  0  0  0  0  0  0  0  0  0  0  0
   11.5418  -16.1854   24.0656 C   0  0  0  0  0  0  0  0  0  0  0  0
   11.4196  -16.8007   25.3011 O   0  0  0  0  0  0  0  0  0  0  0  0
   12.4667  -15.3480   23.9294 O   0  0  0  0  0  0  0  0  0  0  0  0
  2  3  1  1
  2  1  1  0
  4  2  1  0
  4  5  1  1
  6  4  1  0
  6 10  1  0
  7  6  2  0
  9  8  1  6
  9 10  1  0
  9 11  1  0
 11 12  2  0
 13 11  1  0
 13 14  1  0
 14 15  1  0
 15 16  1  0
 17 15  2  0
M  END
$$$$
