VAG.pdb
     RDKit          3D

 17 16  0  0  1  0  0  0  0  0999 V2000
    7.8896  -13.2100   18.5101 C   0  0  0  0  0  0  0  0  0  0  0  0
    8.1999  -13.1387   19.9649 C   0  0  1  0  0  0  0  0  0  0  0  0
    6.8680  -13.0949   20.7138 C   0  0  0  0  0  0  0  0  0  0  0  0
    8.9679  -14.2938   20.5246 C   0  0  2  0  0  0  0  0  0  0  0  0
    8.2934  -15.4980   19.9940 N   0  0  0  0  0  0  0  0  0  0  0  0
    9.0098  -14.3617   21.9977 C   0  0  0  0  0  0  0  0  0  0  0  0
    9.6813  -13.4831   22.6429 O   0  0  0  0  0  0  0  0  0  0  0  0
    7.0411  -15.6105   24.8616 C   0  0  0  0  0  0  0  0  0  0  0  0
    8.3804  -15.2863   24.2571 C   0  0  2  0  0  0  0  0  0  0  0  0
    8.3648  -15.3271   22.8089 N   0  0  0  0  0  0  0  0  0  0  0  0
    9.4678  -16.1188   24.8302 C   0  0  0  0  0  0  0  0  0  0  0  0
    9.1622  -17.0550   25.6106 O   0  0  0  0  0  0  0  0  0  0  0  0
   10.8310  -15.9084   24.5397 N   0  0  0  0  0  0  0  0  0  0  0  0
   11.9090  -16.7262   25.0489 C   0  0  0  0  0  0  0  0  0  0  0  0
   12.2301  -17.8570   24.1748 C   0  0  0  0  0  0  0  0  0  0  0  0
   11.4275  -18.9792   24.0466 O   0  0  0  0  0  0  0  0  0  0  0  0
   13.2861  -17.8251   23.4973 O   0  0  0  0  0  0  0  0  0  0  0  0
  2  3  1  1
  2  1  1  0
  4  2  1  0
  4  5  1  6
  6  4  1  0
  6 10  1  0
  7  6  2  0
  9  8  1  1
  9 10  1  0
  9 11  1  0
 11 12  2  0
 13 11  1  0
 13 14  1  0
 14 15  1  0
 15 16  1  0
 17 15  2  0
M  END
$$$$
