VAG.pdb
     RDKit          3D

 17 16  0  0  1  0  0  0  0  0999 V2000
    2.9500  -22.9997   22.5442 C   0  0  0  0  0  0  0  0  0  0  0  0
    4.1365  -22.2169   22.9881 C   0  0  1  0  0  0  0  0  0  0  0  0
    5.3733  -22.8801   22.3820 C   0  0  0  0  0  0  0  0  0  0  0  0
    4.1676  -20.7833   22.5624 C   0  0  2  0  0  0  0  0  0  0  0  0
    3.9863  -20.8132   21.0952 N   0  0  0  0  0  0  0  0  0  0  0  0
    5.4113  -20.0607   22.8903 C   0  0  0  0  0  0  0  0  0  0  0  0
    6.3986  -20.1194   22.0774 O   0  0  0  0  0  0  0  0  0  0  0  0
    6.7536  -17.4678   25.2867 C   0  0  0  0  0  0  0  0  0  0  0  0
    6.8994  -18.6073   24.3148 C   0  0  2  0  0  0  0  0  0  0  0  0
    5.6435  -19.2788   24.0483 N   0  0  0  0  0  0  0  0  0  0  0  0
    7.9671  -19.5551   24.7218 C   0  0  0  0  0  0  0  0  0  0  0  0
    7.6995  -20.4305   25.5826 O   0  0  0  0  0  0  0  0  0  0  0  0
    9.2708  -19.5197   24.1869 N   0  0  0  0  0  0  0  0  0  0  0  0
   10.3010  -20.4894   24.4845 C   0  0  0  0  0  0  0  0  0  0  0  0
   11.1689  -20.0795   25.5910 C   0  0  0  0  0  0  0  0  0  0  0  0
   11.8749  -18.8873   25.6107 O   0  0  0  0  0  0  0  0  0  0  0  0
   11.2921  -20.8370   26.5841 O   0  0  0  0  0  0  0  0  0  0  0  0
  2  3  1  6
  2  1  1  0
  4  2  1  0
  4  5  1  6
  6  4  1  0
  6 10  1  0
  7  6  2  0
  9  8  1  1
  9 10  1  0
  9 11  1  0
 11 12  2  0
 13 11  1  0
 13 14  1  0
 14 15  1  0
 15 16  1  0
 17 15  2  0
M  END
$$$$
