VAG.pdb
     RDKit          3D

 17 16  0  0  1  0  0  0  0  0999 V2000
    7.3328  -14.5259   18.4002 C   0  0  0  0  0  0  0  0  0  0  0  0
    7.6531  -14.5450   19.8544 C   0  0  1  0  0  0  0  0  0  0  0  0
    9.0501  -15.1469   20.0059 C   0  0  0  0  0  0  0  0  0  0  0  0
    7.6856  -13.2119   20.5319 C   0  0  2  0  0  0  0  0  0  0  0  0
    8.7510  -12.4545   19.8407 N   0  0  0  0  0  0  0  0  0  0  0  0
    7.9700  -13.2529   21.9789 C   0  0  0  0  0  0  0  0  0  0  0  0
    9.1803  -13.1350   22.3795 O   0  0  0  0  0  0  0  0  0  0  0  0
    6.1718  -13.0608   25.2961 C   0  0  0  0  0  0  0  0  0  0  0  0
    7.3573  -13.3681   24.4217 C   0  0  2  0  0  0  0  0  0  0  0  0
    7.0168  -13.4136   23.0142 N   0  0  0  0  0  0  0  0  0  0  0  0
    8.0762  -14.5890   24.8648 C   0  0  0  0  0  0  0  0  0  0  0  0
    8.4383  -14.6727   26.0652 O   0  0  0  0  0  0  0  0  0  0  0  0
    8.3729  -15.6623   24.0005 N   0  0  0  0  0  0  0  0  0  0  0  0
    9.0396  -16.8783   24.4093 C   0  0  0  0  0  0  0  0  0  0  0  0
   10.4982  -16.7470   24.4415 C   0  0  0  0  0  0  0  0  0  0  0  0
   11.3536  -17.7794   24.7917 O   0  0  0  0  0  0  0  0  0  0  0  0
   11.0195  -15.6463   24.1384 O   0  0  0  0  0  0  0  0  0  0  0  0
  2  3  1  6
  2  1  1  0
  4  2  1  0
  4  5  1  6
  6  4  1  0
  6 10  1  0
  7  6  2  0
  9  8  1  1
  9 10  1  0
  9 11  1  0
 11 12  2  0
 13 11  1  0
 13 14  1  0
 14 15  1  0
 15 16  1  0
 17 15  2  0
M  END
$$$$
