VAG.pdb
     RDKit          3D

 17 16  0  0  1  0  0  0  0  0999 V2000
    8.5055  -12.3245   19.2597 C   0  0  0  0  0  0  0  0  0  0  0  0
    8.6118  -13.3947   20.2897 C   0  0  1  0  0  0  0  0  0  0  0  0
    7.5415  -13.1192   21.3458 C   0  0  0  0  0  0  0  0  0  0  0  0
    8.3846  -14.7911   19.8042 C   0  0  2  0  0  0  0  0  0  0  0  0
    7.1087  -14.7368   19.0587 N   0  0  0  0  0  0  0  0  0  0  0  0
    8.2931  -15.8140   20.8632 C   0  0  0  0  0  0  0  0  0  0  0  0
    7.2376  -15.8699   21.5857 O   0  0  0  0  0  0  0  0  0  0  0  0
    8.6257  -19.0614   21.8188 C   0  0  0  0  0  0  0  0  0  0  0  0
    9.1451  -17.7237   22.2714 C   0  0  2  0  0  0  0  0  0  0  0  0
    9.2802  -16.7786   21.1816 N   0  0  0  0  0  0  0  0  0  0  0  0
   10.3944  -17.8488   23.0636 C   0  0  0  0  0  0  0  0  0  0  0  0
   10.5905  -18.9043   23.7167 O   0  0  0  0  0  0  0  0  0  0  0  0
   11.3742  -16.8369   23.1184 N   0  0  0  0  0  0  0  0  0  0  0  0
   12.6379  -16.9618   23.8095 C   0  0  0  0  0  0  0  0  0  0  0  0
   12.4862  -17.0675   25.2626 C   0  0  0  0  0  0  0  0  0  0  0  0
   13.5540  -17.1718   26.1395 O   0  0  0  0  0  0  0  0  0  0  0  0
   11.3332  -17.0651   25.7585 O   0  0  0  0  0  0  0  0  0  0  0  0
  2  3  1  1
  2  1  1  0
  4  2  1  0
  4  5  1  1
  6  4  1  0
  6 10  1  0
  7  6  2  0
  9  8  1  6
  9 10  1  0
  9 11  1  0
 11 12  2  0
 13 11  1  0
 13 14  1  0
 14 15  1  0
 15 16  1  0
 17 15  2  0
M  END
$$$$
