VAG.pdb
     RDKit          3D

 17 16  0  0  1  0  0  0  0  0999 V2000
    6.5542  -14.5911   19.9922 C   0  0  0  0  0  0  0  0  0  0  0  0
    6.9299  -14.3350   21.4102 C   0  0  1  0  0  0  0  0  0  0  0  0
    8.2808  -15.0079   21.6529 C   0  0  0  0  0  0  0  0  0  0  0  0
    7.0929  -12.8979   21.7917 C   0  0  2  0  0  0  0  0  0  0  0  0
    8.1572  -12.3822   20.9042 N   0  0  0  0  0  0  0  0  0  0  0  0
    7.4685  -12.6634   23.1990 C   0  0  0  0  0  0  0  0  0  0  0  0
    8.7068  -12.5449   23.5017 O   0  0  0  0  0  0  0  0  0  0  0  0
    6.0009  -11.7582   26.5496 C   0  0  0  0  0  0  0  0  0  0  0  0
    7.0201  -12.4287   25.6687 C   0  0  2  0  0  0  0  0  0  0  0  0
    6.5778  -12.5499   24.2944 N   0  0  0  0  0  0  0  0  0  0  0  0
    7.4744  -13.7264   26.2285 C   0  0  0  0  0  0  0  0  0  0  0  0
    7.8881  -13.7592   27.4146 O   0  0  0  0  0  0  0  0  0  0  0  0
    7.4638  -14.9274   25.4906 N   0  0  0  0  0  0  0  0  0  0  0  0
    7.6995  -16.2358   26.0588 C   0  0  0  0  0  0  0  0  0  0  0  0
    9.1232  -16.5420   26.2167 C   0  0  0  0  0  0  0  0  0  0  0  0
    9.5975  -17.7261   26.7578 O   0  0  0  0  0  0  0  0  0  0  0  0
    9.9747  -15.6972   25.8470 O   0  0  0  0  0  0  0  0  0  0  0  0
  2  3  1  6
  2  1  1  0
  4  2  1  0
  4  5  1  6
  6  4  1  0
  6 10  1  0
  7  6  2  0
  9  8  1  1
  9 10  1  0
  9 11  1  0
 11 12  2  0
 13 11  1  0
 13 14  1  0
 14 15  1  0
 15 16  1  0
 17 15  2  0
M  END
$$$$
