VAG.pdb
     RDKit          3D

 17 16  0  0  1  0  0  0  0  0999 V2000
    6.6576  -11.4281   26.8492 C   0  0  0  0  0  0  0  0  0  0  0  0
    7.3006  -12.4498   25.9772 C   0  0  1  0  0  0  0  0  0  0  0  0
    8.3335  -13.1899   26.8270 C   0  0  0  0  0  0  0  0  0  0  0  0
    6.3877  -13.4904   25.4107 C   0  0  2  0  0  0  0  0  0  0  0  0
    5.8950  -14.2488   26.5807 N   0  0  0  0  0  0  0  0  0  0  0  0
    7.0164  -14.4184   24.4516 C   0  0  0  0  0  0  0  0  0  0  0  0
    7.3400  -15.5938   24.8427 O   0  0  0  0  0  0  0  0  0  0  0  0
    7.5879  -14.7790   20.7347 C   0  0  0  0  0  0  0  0  0  0  0  0
    7.8270  -15.1397   22.1759 C   0  0  2  0  0  0  0  0  0  0  0  0
    7.3129  -14.1438   23.0941 N   0  0  0  0  0  0  0  0  0  0  0  0
    9.2509  -15.4653   22.4411 C   0  0  0  0  0  0  0  0  0  0  0  0
    9.8224  -16.3103   21.7074 O   0  0  0  0  0  0  0  0  0  0  0  0
    9.9948  -14.8698   23.4799 N   0  0  0  0  0  0  0  0  0  0  0  0
   11.4219  -15.0235   23.6528 C   0  0  0  0  0  0  0  0  0  0  0  0
   11.7944  -16.3347   24.1893 C   0  0  0  0  0  0  0  0  0  0  0  0
   13.1048  -16.7337   24.3980 O   0  0  0  0  0  0  0  0  0  0  0  0
   10.8903  -17.1547   24.4816 O   0  0  0  0  0  0  0  0  0  0  0  0
  2  3  1  1
  2  1  1  0
  4  2  1  0
  4  5  1  1
  6  4  1  0
  6 10  1  0
  7  6  2  0
  9  8  1  6
  9 10  1  0
  9 11  1  0
 11 12  2  0
 13 11  1  0
 13 14  1  0
 14 15  1  0
 15 16  1  0
 17 15  2  0
M  END
$$$$
