VAG.pdb
     RDKit          3D

 17 16  0  0  1  0  0  0  0  0999 V2000
    7.0258  -11.4542   26.8854 C   0  0  0  0  0  0  0  0  0  0  0  0
    7.4863  -12.5188   25.9515 C   0  0  1  0  0  0  0  0  0  0  0  0
    8.3054  -13.5186   26.7677 C   0  0  0  0  0  0  0  0  0  0  0  0
    6.4073  -13.3019   25.2733 C   0  0  2  0  0  0  0  0  0  0  0  0
    5.7209  -14.0329   26.3602 N   0  0  0  0  0  0  0  0  0  0  0  0
    6.8766  -14.2606   24.2550 C   0  0  0  0  0  0  0  0  0  0  0  0
    7.0668  -15.4816   24.5897 O   0  0  0  0  0  0  0  0  0  0  0  0
    7.2919  -14.5626   20.5139 C   0  0  0  0  0  0  0  0  0  0  0  0
    7.5620  -14.9738   21.9360 C   0  0  2  0  0  0  0  0  0  0  0  0
    7.1500  -13.9698   22.8960 N   0  0  0  0  0  0  0  0  0  0  0  0
    8.9705  -15.3975   22.1368 C   0  0  0  0  0  0  0  0  0  0  0  0
    9.4425  -16.2924   21.3917 O   0  0  0  0  0  0  0  0  0  0  0  0
    9.8064  -14.8419   23.1266 N   0  0  0  0  0  0  0  0  0  0  0  0
   11.1853  -15.2221   23.3370 C   0  0  0  0  0  0  0  0  0  0  0  0
   11.3308  -16.3680   24.2379 C   0  0  0  0  0  0  0  0  0  0  0  0
   12.4689  -16.6131   24.9892 O   0  0  0  0  0  0  0  0  0  0  0  0
   10.3827  -17.1830   24.3481 O   0  0  0  0  0  0  0  0  0  0  0  0
  2  3  1  1
  2  1  1  0
  4  2  1  0
  4  5  1  1
  6  4  1  0
  6 10  1  0
  7  6  2  0
  9  8  1  6
  9 10  1  0
  9 11  1  0
 11 12  2  0
 13 11  1  0
 13 14  1  0
 14 15  1  0
 15 16  1  0
 17 15  2  0
M  END
$$$$
