VAG.pdb
     RDKit          3D

 17 16  0  0  1  0  0  0  0  0999 V2000
    8.4847  -17.8466   14.9552 C   0  0  0  0  0  0  0  0  0  0  0  0
    8.8734  -16.9520   16.0804 C   0  0  1  0  0  0  0  0  0  0  0  0
   10.4002  -16.9519   16.1566 C   0  0  0  0  0  0  0  0  0  0  0  0
    8.4512  -15.5228   15.9522 C   0  0  2  0  0  0  0  0  0  0  0  0
    9.2235  -14.9944   14.8072 N   0  0  0  0  0  0  0  0  0  0  0  0
    8.7014  -14.6878   17.1423 C   0  0  0  0  0  0  0  0  0  0  0  0
    9.8797  -14.2300   17.3456 O   0  0  0  0  0  0  0  0  0  0  0  0
    6.8853  -12.8226   19.8708 C   0  0  0  0  0  0  0  0  0  0  0  0
    8.0757  -13.5453   19.3008 C   0  0  2  0  0  0  0  0  0  0  0  0
    7.7468  -14.3216   18.1225 N   0  0  0  0  0  0  0  0  0  0  0  0
    8.7815  -14.3539   20.3264 C   0  0  0  0  0  0  0  0  0  0  0  0
    9.1971  -13.7806   21.3645 O   0  0  0  0  0  0  0  0  0  0  0  0
    9.0083  -15.7386   20.1909 N   0  0  0  0  0  0  0  0  0  0  0  0
    9.5665  -16.5788   21.2266 C   0  0  0  0  0  0  0  0  0  0  0  0
   11.0305  -16.6192   21.2022 C   0  0  0  0  0  0  0  0  0  0  0  0
   11.7909  -17.3915   22.0656 O   0  0  0  0  0  0  0  0  0  0  0  0
   11.6472  -15.9227   20.3597 O   0  0  0  0  0  0  0  0  0  0  0  0
  2  3  1  6
  2  1  1  0
  4  2  1  0
  4  5  1  6
  6  4  1  0
  6 10  1  0
  7  6  2  0
  9  8  1  1
  9 10  1  0
  9 11  1  0
 11 12  2  0
 13 11  1  0
 13 14  1  0
 14 15  1  0
 15 16  1  0
 17 15  2  0
M  END
$$$$
