VAG.pdb
     RDKit          3D

 17 16  0  0  1  0  0  0  0  0999 V2000
    7.6771  -16.2238   20.1126 C   0  0  0  0  0  0  0  0  0  0  0  0
    8.0235  -14.9105   19.5021 C   0  0  1  0  0  0  0  0  0  0  0  0
    7.4233  -14.8885   18.0963 C   0  0  0  0  0  0  0  0  0  0  0  0
    7.4971  -13.7032   20.2111 C   0  0  2  0  0  0  0  0  0  0  0  0
    7.9338  -12.5535   19.3901 N   0  0  0  0  0  0  0  0  0  0  0  0
    7.9787  -13.5314   21.5949 C   0  0  0  0  0  0  0  0  0  0  0  0
    9.1493  -13.0518   21.7920 O   0  0  0  0  0  0  0  0  0  0  0  0
    6.7476  -13.6377   25.1698 C   0  0  0  0  0  0  0  0  0  0  0  0
    7.8107  -13.6829   24.1058 C   0  0  2  0  0  0  0  0  0  0  0  0
    7.2629  -13.8496   22.7750 N   0  0  0  0  0  0  0  0  0  0  0  0
    8.8622  -14.6860   24.4095 C   0  0  0  0  0  0  0  0  0  0  0  0
    9.5096  -14.5749   25.4806 O   0  0  0  0  0  0  0  0  0  0  0  0
    9.1698  -15.7607   23.5506 N   0  0  0  0  0  0  0  0  0  0  0  0
   10.1454  -16.7863   23.8449 C   0  0  0  0  0  0  0  0  0  0  0  0
   10.0456  -17.2932   25.2156 C   0  0  0  0  0  0  0  0  0  0  0  0
   10.6622  -16.6934   26.3019 O   0  0  0  0  0  0  0  0  0  0  0  0
    9.3686  -18.3266   25.4372 O   0  0  0  0  0  0  0  0  0  0  0  0
  2  3  1  6
  2  1  1  0
  4  2  1  0
  4  5  1  6
  6  4  1  0
  6 10  1  0
  7  6  2  0
  9  8  1  1
  9 10  1  0
  9 11  1  0
 11 12  2  0
 13 11  1  0
 13 14  1  0
 14 15  1  0
 15 16  1  0
 17 15  2  0
M  END
$$$$
