LWI.pdb
     RDKit          3D

 31 32  0  0  1  0  0  0  0  0999 V2000
   26.8229  -16.4955  -18.0685 C   0  0  0  0  0  0  0  0  0  0  0  0
   27.4007  -17.5432  -17.1700 C   0  0  1  0  0  0  0  0  0  0  0  0
   28.8908  -17.6329  -17.4013 C   0  0  0  0  0  0  0  0  0  0  0  0
   27.0521  -17.3463  -15.7256 C   0  0  0  0  0  0  0  0  0  0  0  0
   27.7358  -18.3205  -14.8024 C   0  0  2  0  0  0  0  0  0  0  0  0
   28.0604  -19.5621  -15.4306 N   0  0  0  0  0  0  0  0  0  0  0  0
   26.7948  -18.5857  -13.6828 C   0  0  0  0  0  0  0  0  0  0  0  0
   26.2592  -17.6119  -13.0769 O   0  0  0  0  0  0  0  0  0  0  0  0
   26.4770  -19.9072  -13.2704 N   0  0  0  0  0  0  0  0  0  0  0  0
   25.4133  -20.1381  -12.2606 C   0  0  1  0  0  0  0  0  0  0  0  0
   24.5450  -21.2088  -12.8372 C   0  0  0  0  0  0  0  0  0  0  0  0
   23.5285  -20.7587  -13.8024 C   0  0  0  0  0  0  0  0  0  0  0  0
   23.6720  -20.5553  -15.1534 C   0  0  0  0  0  0  0  0  0  0  0  0
   22.5146  -20.1233  -15.6624 N   0  0  0  0  0  0  0  0  0  0  0  0
   21.5912  -20.0319  -14.6746 C   0  0  0  0  0  0  0  0  0  0  0  0
   20.2635  -19.6435  -14.6695 C   0  0  0  0  0  0  0  0  0  0  0  0
   19.5462  -19.6447  -13.5055 C   0  0  0  0  0  0  0  0  0  0  0  0
   20.1694  -20.0404  -12.3334 C   0  0  0  0  0  0  0  0  0  0  0  0
   21.4791  -20.4251  -12.3303 C   0  0  0  0  0  0  0  0  0  0  0  0
   22.2305  -20.4320  -13.5046 C   0  0  0  0  0  0  0  0  0  0  0  0
   26.0863  -20.5644  -11.0159 C   0  0  0  0  0  0  0  0  0  0  0  0
   26.9967  -21.4706  -11.0743 O   0  0  0  0  0  0  0  0  0  0  0  0
   28.4432  -17.9223   -7.1354 C   0  0  0  0  0  0  0  0  0  0  0  0
   27.8851  -18.9381   -8.0701 C   0  0  0  0  0  0  0  0  0  0  0  0
   26.7875  -19.7886   -7.5699 C   0  0  2  0  0  0  0  0  0  0  0  0
   26.9783  -20.3255   -6.1675 C   0  0  0  0  0  0  0  0  0  0  0  0
   26.1945  -20.7994   -8.5166 C   0  0  2  0  0  0  0  0  0  0  0  0
   25.8176  -20.0478   -9.7202 N   0  0  0  0  0  0  0  0  0  0  0  0
   25.1197  -21.6223   -7.9786 C   0  0  0  0  0  0  0  0  0  0  0  0
   23.9180  -21.2456   -8.0376 O   0  0  0  0  0  0  0  0  0  0  0  0
   25.3515  -22.8541   -7.3774 O   0  0  0  0  0  0  0  0  0  0  0  0
  2  1  1  6
  2  3  1  0
  4  2  1  0
  5  4  1  0
  5  6  1  6
  7  8  2  0
  7  5  1  0
  9  7  1  0
 10 21  1  0
 10  9  1  0
 10 11  1  6
 12 11  1  0
 13 12  2  0
 14 13  1  0
 15 14  1  0
 15 20  2  0
 16 15  1  0
 17 16  2  0
 17 18  1  0
 18 19  2  0
 19 20  1  0
 20 12  1  0
 21 28  1  0
 22 21  2  0
 23 24  1  0
 24 25  1  0
 25 26  1  1
 25 27  1  0
 27 28  1  6
 27 29  1  0
 29 30  2  0
 29 31  1  0
M  END
$$$$
