LWI.pdb
     RDKit          3D

 31 32  0  0  1  0  0  0  0  0999 V2000
   28.8327  -21.0494  -14.8722 C   0  0  0  0  0  0  0  0  0  0  0  0
   27.4493  -21.1048  -15.4396 C   0  0  1  0  0  0  0  0  0  0  0  0
   27.5303  -21.3005  -16.9352 C   0  0  0  0  0  0  0  0  0  0  0  0
   26.5727  -22.1207  -14.7716 C   0  0  0  0  0  0  0  0  0  0  0  0
   25.1692  -22.1577  -15.3175 C   0  0  2  0  0  0  0  0  0  0  0  0
   24.8182  -20.9850  -16.0544 N   0  0  0  0  0  0  0  0  0  0  0  0
   24.2565  -22.2770  -14.1505 C   0  0  0  0  0  0  0  0  0  0  0  0
   24.4293  -23.2160  -13.3193 O   0  0  0  0  0  0  0  0  0  0  0  0
   23.1897  -21.3633  -13.9392 N   0  0  0  0  0  0  0  0  0  0  0  0
   22.3452  -21.4708  -12.7228 C   0  0  1  0  0  0  0  0  0  0  0  0
   22.4076  -20.1248  -12.0767 C   0  0  0  0  0  0  0  0  0  0  0  0
   23.6469  -19.8244  -11.3410 C   0  0  0  0  0  0  0  0  0  0  0  0
   24.7777  -19.1965  -11.8038 C   0  0  0  0  0  0  0  0  0  0  0  0
   25.6860  -19.1405  -10.8254 N   0  0  0  0  0  0  0  0  0  0  0  0
   25.1850  -19.7216   -9.7082 C   0  0  0  0  0  0  0  0  0  0  0  0
   25.7089  -19.9217   -8.4437 C   0  0  0  0  0  0  0  0  0  0  0  0
   24.9708  -20.5511   -7.4800 C   0  0  0  0  0  0  0  0  0  0  0  0
   23.6922  -20.9844   -7.7900 C   0  0  0  0  0  0  0  0  0  0  0  0
   23.1683  -20.7906   -9.0354 C   0  0  0  0  0  0  0  0  0  0  0  0
   23.9018  -20.1515  -10.0340 C   0  0  0  0  0  0  0  0  0  0  0  0
   20.9819  -21.8190  -13.1744 C   0  0  0  0  0  0  0  0  0  0  0  0
   20.5556  -21.3561  -14.2957 O   0  0  0  0  0  0  0  0  0  0  0  0
   16.9813  -26.3850  -13.1547 C   0  0  0  0  0  0  0  0  0  0  0  0
   17.1739  -24.9114  -13.2463 C   0  0  0  0  0  0  0  0  0  0  0  0
   18.4674  -24.3674  -12.7889 C   0  0  2  0  0  0  0  0  0  0  0  0
   18.9411  -24.8794  -11.4455 C   0  0  0  0  0  0  0  0  0  0  0  0
   18.7191  -22.8951  -12.9850 C   0  0  2  0  0  0  0  0  0  0  0  0
   20.0703  -22.6474  -12.4666 N   0  0  0  0  0  0  0  0  0  0  0  0
   17.7087  -21.9979  -12.4408 C   0  0  0  0  0  0  0  0  0  0  0  0
   16.6067  -21.8243  -13.0281 O   0  0  0  0  0  0  0  0  0  0  0  0
   17.8963  -21.2908  -11.2588 O   0  0  0  0  0  0  0  0  0  0  0  0
  2  1  1  1
  2  3  1  0
  4  2  1  0
  5  4  1  0
  5  6  1  1
  7  8  2  0
  7  5  1  0
  9  7  1  0
 10 21  1  0
 10  9  1  0
 10 11  1  6
 12 11  1  0
 13 12  2  0
 14 13  1  0
 15 14  1  0
 15 20  2  0
 16 15  1  0
 17 16  2  0
 17 18  1  0
 18 19  2  0
 19 20  1  0
 20 12  1  0
 21 28  1  0
 22 21  2  0
 23 24  1  0
 24 25  1  0
 25 26  1  1
 25 27  1  0
 27 28  1  1
 27 29  1  0
 29 30  2  0
 29 31  1  0
M  END
$$$$
