LWI.pdb
     RDKit          3D

 31 32  0  0  1  0  0  0  0  0999 V2000
   31.0037  -23.7734  -17.0814 C   0  0  0  0  0  0  0  0  0  0  0  0
   29.6723  -23.1836  -17.4259 C   0  0  1  0  0  0  0  0  0  0  0  0
   29.2849  -23.6072  -18.8230 C   0  0  0  0  0  0  0  0  0  0  0  0
   28.6079  -23.4869  -16.4151 C   0  0  0  0  0  0  0  0  0  0  0  0
   27.2741  -22.8672  -16.7402 C   0  0  2  0  0  0  0  0  0  0  0  0
   27.3827  -21.6303  -17.4473 N   0  0  0  0  0  0  0  0  0  0  0  0
   26.5889  -22.6161  -15.4453 C   0  0  0  0  0  0  0  0  0  0  0  0
   26.4347  -23.5704  -14.6282 O   0  0  0  0  0  0  0  0  0  0  0  0
   26.0993  -21.3294  -15.0957 N   0  0  0  0  0  0  0  0  0  0  0  0
   25.4158  -21.1195  -13.7945 C   0  0  1  0  0  0  0  0  0  0  0  0
   26.0801  -19.9275  -13.1856 C   0  0  0  0  0  0  0  0  0  0  0  0
   27.1577  -20.2157  -12.2248 C   0  0  0  0  0  0  0  0  0  0  0  0
   28.5025  -20.3479  -12.4722 C   0  0  0  0  0  0  0  0  0  0  0  0
   29.1375  -20.6327  -11.3316 N   0  0  0  0  0  0  0  0  0  0  0  0
   28.2409  -20.6948  -10.3172 C   0  0  0  0  0  0  0  0  0  0  0  0
   28.3764  -20.9517   -8.9647 C   0  0  0  0  0  0  0  0  0  0  0  0
   27.2806  -20.9529   -8.1469 C   0  0  0  0  0  0  0  0  0  0  0  0
   26.0347  -20.6932   -8.6938 C   0  0  0  0  0  0  0  0  0  0  0  0
   25.8929  -20.4389  -10.0273 C   0  0  0  0  0  0  0  0  0  0  0  0
   26.9954  -20.4322  -10.8806 C   0  0  0  0  0  0  0  0  0  0  0  0
   23.9879  -20.8815  -14.0914 C   0  0  0  0  0  0  0  0  0  0  0  0
   23.6706  -20.0421  -15.0124 O   0  0  0  0  0  0  0  0  0  0  0  0
   20.7839  -24.2668  -15.8992 C   0  0  0  0  0  0  0  0  0  0  0  0
   21.3884  -22.9792  -15.4590 C   0  0  0  0  0  0  0  0  0  0  0  0
   20.8276  -22.3459  -14.2495 C   0  0  2  0  0  0  0  0  0  0  0  0
   19.3175  -22.2478  -14.2166 C   0  0  0  0  0  0  0  0  0  0  0  0
   21.5138  -21.1141  -13.7190 C   0  0  2  0  0  0  0  0  0  0  0  0
   22.8977  -21.5163  -13.4382 N   0  0  0  0  0  0  0  0  0  0  0  0
   20.8574  -20.4510  -12.6004 C   0  0  0  0  0  0  0  0  0  0  0  0
   21.1312  -20.7580  -11.4087 O   0  0  0  0  0  0  0  0  0  0  0  0
   19.9046  -19.4544  -12.7776 O   0  0  0  0  0  0  0  0  0  0  0  0
  2  1  1  1
  2  3  1  0
  4  2  1  0
  5  4  1  0
  5  6  1  1
  7  8  2  0
  7  5  1  0
  9  7  1  0
 10 21  1  0
 10  9  1  0
 10 11  1  6
 12 11  1  0
 13 12  2  0
 14 13  1  0
 15 14  1  0
 15 20  2  0
 16 15  1  0
 17 16  2  0
 17 18  1  0
 18 19  2  0
 19 20  1  0
 20 12  1  0
 21 28  1  0
 22 21  2  0
 23 24  1  0
 24 25  1  0
 25 26  1  6
 25 27  1  0
 27 28  1  1
 27 29  1  0
 29 30  2  0
 29 31  1  0
M  END
$$$$
