LWI.pdb
     RDKit          3D

 31 32  0  0  1  0  0  0  0  0999 V2000
   28.7574  -17.7706  -18.6477 C   0  0  0  0  0  0  0  0  0  0  0  0
   29.0964  -18.3758  -17.3219 C   0  0  1  0  0  0  0  0  0  0  0  0
   28.5874  -17.4784  -16.2185 C   0  0  0  0  0  0  0  0  0  0  0  0
   28.6265  -19.7917  -17.1767 C   0  0  0  0  0  0  0  0  0  0  0  0
   28.9242  -20.3900  -15.8268 C   0  0  2  0  0  0  0  0  0  0  0  0
   28.9418  -21.8187  -15.8331 N   0  0  0  0  0  0  0  0  0  0  0  0
   27.8507  -19.9317  -14.9066 C   0  0  0  0  0  0  0  0  0  0  0  0
   27.7951  -18.7114  -14.5749 O   0  0  0  0  0  0  0  0  0  0  0  0
   26.8798  -20.8279  -14.3853 N   0  0  0  0  0  0  0  0  0  0  0  0
   25.7642  -20.3159  -13.5500 C   0  0  1  0  0  0  0  0  0  0  0  0
   24.5161  -20.7827  -14.2262 C   0  0  0  0  0  0  0  0  0  0  0  0
   23.2626  -20.5462  -13.4913 C   0  0  0  0  0  0  0  0  0  0  0  0
   22.8610  -19.4030  -12.8440 C   0  0  0  0  0  0  0  0  0  0  0  0
   21.6665  -19.6081  -12.2813 N   0  0  0  0  0  0  0  0  0  0  0  0
   21.2554  -20.8735  -12.5393 C   0  0  0  0  0  0  0  0  0  0  0  0
   20.1142  -21.5743  -12.1926 C   0  0  0  0  0  0  0  0  0  0  0  0
   19.9491  -22.8708  -12.5943 C   0  0  0  0  0  0  0  0  0  0  0  0
   20.9413  -23.4702  -13.3525 C   0  0  0  0  0  0  0  0  0  0  0  0
   22.0702  -22.7853  -13.6986 C   0  0  0  0  0  0  0  0  0  0  0  0
   22.2607  -21.4627  -13.3008 C   0  0  0  0  0  0  0  0  0  0  0  0
   25.9309  -20.9008  -12.2032 C   0  0  0  0  0  0  0  0  0  0  0  0
   26.4044  -22.0911  -12.0910 O   0  0  0  0  0  0  0  0  0  0  0  0
   28.2866  -19.9657   -6.8879 C   0  0  0  0  0  0  0  0  0  0  0  0
   27.2726  -20.7454   -7.6500 C   0  0  0  0  0  0  0  0  0  0  0  0
   26.8120  -20.1844   -8.9351 C   0  0  2  0  0  0  0  0  0  0  0  0
   26.5854  -18.6877   -8.9387 C   0  0  0  0  0  0  0  0  0  0  0  0
   25.7586  -20.9457   -9.6968 C   0  0  2  0  0  0  0  0  0  0  0  0
   25.6120  -20.2500  -10.9814 N   0  0  0  0  0  0  0  0  0  0  0  0
   24.4980  -21.1604   -8.9990 C   0  0  0  0  0  0  0  0  0  0  0  0
   24.4527  -21.8103   -7.9197 O   0  0  0  0  0  0  0  0  0  0  0  0
   23.2880  -20.6682   -9.4744 O   0  0  0  0  0  0  0  0  0  0  0  0
  2  1  1  6
  2  3  1  0
  4  2  1  0
  5  4  1  0
  5  6  1  6
  7  8  2  0
  7  5  1  0
  9  7  1  0
 10 21  1  0
 10  9  1  0
 10 11  1  6
 12 11  1  0
 13 12  2  0
 14 13  1  0
 15 14  1  0
 15 20  2  0
 16 15  1  0
 17 16  2  0
 17 18  1  0
 18 19  2  0
 19 20  1  0
 20 12  1  0
 21 28  1  0
 22 21  2  0
 23 24  1  0
 24 25  1  0
 25 26  1  1
 25 27  1  0
 27 28  1  6
 27 29  1  0
 29 30  2  0
 29 31  1  0
M  END
$$$$
