LWI.pdb
     RDKit          3D

 31 32  0  0  1  0  0  0  0  0999 V2000
   30.2791  -22.6421  -16.8504 C   0  0  0  0  0  0  0  0  0  0  0  0
   29.5729  -21.4439  -16.2984 C   0  0  1  0  0  0  0  0  0  0  0  0
   29.0494  -20.6033  -17.4390 C   0  0  0  0  0  0  0  0  0  0  0  0
   28.5093  -21.7879  -15.2999 C   0  0  0  0  0  0  0  0  0  0  0  0
   27.8192  -20.5834  -14.7153 C   0  0  2  0  0  0  0  0  0  0  0  0
   28.7191  -19.5289  -14.3693 N   0  0  0  0  0  0  0  0  0  0  0  0
   27.1257  -21.0405  -13.4828 C   0  0  0  0  0  0  0  0  0  0  0  0
   26.3233  -22.0174  -13.5467 O   0  0  0  0  0  0  0  0  0  0  0  0
   27.3379  -20.4097  -12.2279 N   0  0  0  0  0  0  0  0  0  0  0  0
   26.6028  -20.8756  -11.0249 C   0  0  1  0  0  0  0  0  0  0  0  0
   27.3071  -20.2520   -9.8639 C   0  0  0  0  0  0  0  0  0  0  0  0
   26.7272  -20.5284   -8.5392 C   0  0  0  0  0  0  0  0  0  0  0  0
   25.5142  -21.1031   -8.2468 C   0  0  0  0  0  0  0  0  0  0  0  0
   25.3553  -21.1536   -6.9211 N   0  0  0  0  0  0  0  0  0  0  0  0
   26.4436  -20.6212   -6.3137 C   0  0  0  0  0  0  0  0  0  0  0  0
   26.7747  -20.4372   -4.9832 C   0  0  0  0  0  0  0  0  0  0  0  0
   27.9660  -19.8606   -4.6395 C   0  0  0  0  0  0  0  0  0  0  0  0
   28.8343  -19.4645   -5.6434 C   0  0  0  0  0  0  0  0  0  0  0  0
   28.5147  -19.6427   -6.9584 C   0  0  0  0  0  0  0  0  0  0  0  0
   27.3061  -20.2281   -7.3330 C   0  0  0  0  0  0  0  0  0  0  0  0
   25.2094  -20.4031  -11.1618 C   0  0  0  0  0  0  0  0  0  0  0  0
   24.9886  -19.1528  -11.3659 O   0  0  0  0  0  0  0  0  0  0  0  0
   22.7173  -21.3970  -15.1747 C   0  0  0  0  0  0  0  0  0  0  0  0
   23.0620  -20.7696  -13.8691 C   0  0  0  0  0  0  0  0  0  0  0  0
   22.2952  -21.2039  -12.6852 C   0  0  2  0  0  0  0  0  0  0  0  0
   20.7930  -21.2360  -12.8686 C   0  0  0  0  0  0  0  0  0  0  0  0
   22.7175  -20.6716  -11.3406 C   0  0  2  0  0  0  0  0  0  0  0  0
   24.0538  -21.2265  -11.0920 N   0  0  0  0  0  0  0  0  0  0  0  0
   21.7800  -20.8877  -10.2467 C   0  0  0  0  0  0  0  0  0  0  0  0
   20.9319  -20.0097   -9.9318 O   0  0  0  0  0  0  0  0  0  0  0  0
   21.7645  -22.0580   -9.4966 O   0  0  0  0  0  0  0  0  0  0  0  0
  2  1  1  6
  2  3  1  0
  4  2  1  0
  5  4  1  0
  5  6  1  1
  7  8  2  0
  7  5  1  0
  9  7  1  0
 10 21  1  0
 10  9  1  0
 10 11  1  1
 12 11  1  0
 13 12  2  0
 14 13  1  0
 15 14  1  0
 15 20  2  0
 16 15  1  0
 17 16  2  0
 17 18  1  0
 18 19  2  0
 19 20  1  0
 20 12  1  0
 21 28  1  0
 22 21  2  0
 23 24  1  0
 24 25  1  0
 25 26  1  6
 25 27  1  0
 27 28  1  1
 27 29  1  0
 29 30  2  0
 29 31  1  0
M  END
$$$$
