LWI.pdb
     RDKit          3D

 31 32  0  0  1  0  0  0  0  0999 V2000
   23.3873  -17.0994  -19.0381 C   0  0  0  0  0  0  0  0  0  0  0  0
   24.7034  -17.5973  -18.5290 C   0  0  1  0  0  0  0  0  0  0  0  0
   25.5758  -16.4193  -18.1645 C   0  0  0  0  0  0  0  0  0  0  0  0
   24.5729  -18.5864  -17.4104 C   0  0  0  0  0  0  0  0  0  0  0  0
   25.8881  -18.9547  -16.7752 C   0  0  2  0  0  0  0  0  0  0  0  0
   26.7133  -19.7657  -17.6135 N   0  0  0  0  0  0  0  0  0  0  0  0
   25.5707  -19.7170  -15.5393 C   0  0  0  0  0  0  0  0  0  0  0  0
   25.0703  -20.8758  -15.6348 O   0  0  0  0  0  0  0  0  0  0  0  0
   25.8137  -19.1805  -14.2468 N   0  0  0  0  0  0  0  0  0  0  0  0
   25.5184  -19.9879  -13.0363 C   0  0  1  0  0  0  0  0  0  0  0  0
   26.2865  -19.3398  -11.9304 C   0  0  0  0  0  0  0  0  0  0  0  0
   26.8279  -20.2497  -10.9075 C   0  0  0  0  0  0  0  0  0  0  0  0
   27.3261  -21.5185  -11.0783 C   0  0  0  0  0  0  0  0  0  0  0  0
   27.6952  -22.0134   -9.8933 N   0  0  0  0  0  0  0  0  0  0  0  0
   27.4535  -21.0971   -8.9245 C   0  0  0  0  0  0  0  0  0  0  0  0
   27.6504  -21.1107   -7.5553 C   0  0  0  0  0  0  0  0  0  0  0  0
   27.3101  -20.0257   -6.7959 C   0  0  0  0  0  0  0  0  0  0  0  0
   26.7659  -18.9146   -7.4189 C   0  0  0  0  0  0  0  0  0  0  0  0
   26.5685  -18.8936   -8.7693 C   0  0  0  0  0  0  0  0  0  0  0  0
   26.9077  -19.9877   -9.5640 C   0  0  0  0  0  0  0  0  0  0  0  0
   24.0575  -19.9255  -12.8228 C   0  0  0  0  0  0  0  0  0  0  0  0
   23.4395  -18.8183  -13.0366 O   0  0  0  0  0  0  0  0  0  0  0  0
   18.9211  -21.7413  -14.5760 C   0  0  0  0  0  0  0  0  0  0  0  0
   19.6215  -21.2326  -13.3645 C   0  0  0  0  0  0  0  0  0  0  0  0
   21.0905  -21.3690  -13.3237 C   0  0  2  0  0  0  0  0  0  0  0  0
   21.6242  -22.7115  -13.7755 C   0  0  0  0  0  0  0  0  0  0  0  0
   21.8144  -20.8162  -12.1237 C   0  0  2  0  0  0  0  0  0  0  0  0
   23.2444  -21.0089  -12.3948 N   0  0  0  0  0  0  0  0  0  0  0  0
   21.3882  -21.3314  -10.8294 C   0  0  0  0  0  0  0  0  0  0  0  0
   22.1483  -22.0591  -10.1350 O   0  0  0  0  0  0  0  0  0  0  0  0
   20.1369  -21.0550  -10.2907 O   0  0  0  0  0  0  0  0  0  0  0  0
  2  1  1  1
  2  3  1  0
  4  2  1  0
  5  4  1  0
  5  6  1  6
  7  8  2  0
  7  5  1  0
  9  7  1  0
 10 21  1  0
 10  9  1  0
 10 11  1  1
 12 11  1  0
 13 12  2  0
 14 13  1  0
 15 14  1  0
 15 20  2  0
 16 15  1  0
 17 16  2  0
 17 18  1  0
 18 19  2  0
 19 20  1  0
 20 12  1  0
 21 28  1  0
 22 21  2  0
 23 24  1  0
 24 25  1  0
 25 26  1  1
 25 27  1  0
 27 28  1  6
 27 29  1  0
 29 30  2  0
 29 31  1  0
M  END
$$$$
