LWI.pdb
     RDKit          3D

 31 32  0  0  1  0  0  0  0  0999 V2000
   33.6258  -22.8392  -11.6294 C   0  0  0  0  0  0  0  0  0  0  0  0
   32.6302  -22.9673  -12.7391 C   0  0  1  0  0  0  0  0  0  0  0  0
   31.8379  -24.2401  -12.5548 C   0  0  0  0  0  0  0  0  0  0  0  0
   31.7550  -21.7606  -12.8954 C   0  0  0  0  0  0  0  0  0  0  0  0
   30.7324  -21.8959  -13.9931 C   0  0  2  0  0  0  0  0  0  0  0  0
   31.2284  -21.5152  -15.2779 N   0  0  0  0  0  0  0  0  0  0  0  0
   29.5984  -21.0033  -13.6375 C   0  0  0  0  0  0  0  0  0  0  0  0
   29.7505  -19.7484  -13.7037 O   0  0  0  0  0  0  0  0  0  0  0  0
   28.3419  -21.5199  -13.2231 N   0  0  0  0  0  0  0  0  0  0  0  0
   27.2428  -20.5955  -12.8462 C   0  0  1  0  0  0  0  0  0  0  0  0
   26.2031  -20.7627  -13.9064 C   0  0  0  0  0  0  0  0  0  0  0  0
   24.9887  -19.9458  -13.7472 C   0  0  0  0  0  0  0  0  0  0  0  0
   24.8901  -18.6489  -13.3051 C   0  0  0  0  0  0  0  0  0  0  0  0
   23.6050  -18.2835  -13.2851 N   0  0  0  0  0  0  0  0  0  0  0  0
   22.8341  -19.3150  -13.7073 C   0  0  0  0  0  0  0  0  0  0  0  0
   21.4674  -19.4549  -13.8696 C   0  0  0  0  0  0  0  0  0  0  0  0
   20.9408  -20.6328  -14.3223 C   0  0  0  0  0  0  0  0  0  0  0  0
   21.7966  -21.6819  -14.6153 C   0  0  0  0  0  0  0  0  0  0  0  0
   23.1461  -21.5515  -14.4578 C   0  0  0  0  0  0  0  0  0  0  0  0
   23.7060  -20.3605  -13.9978 C   0  0  0  0  0  0  0  0  0  0  0  0
   26.7643  -21.0163  -11.5129 C   0  0  0  0  0  0  0  0  0  0  0  0
   26.5411  -22.2632  -11.2917 O   0  0  0  0  0  0  0  0  0  0  0  0
   27.6146  -19.5893   -5.6788 C   0  0  0  0  0  0  0  0  0  0  0  0
   26.7675  -20.3058   -6.6719 C   0  0  0  0  0  0  0  0  0  0  0  0
   26.8781  -19.8885   -8.0833 C   0  0  2  0  0  0  0  0  0  0  0  0
   26.8276  -18.3939   -8.3174 C   0  0  0  0  0  0  0  0  0  0  0  0
   26.1086  -20.6764   -9.1112 C   0  0  2  0  0  0  0  0  0  0  0  0
   26.5246  -20.1464  -10.4157 N   0  0  0  0  0  0  0  0  0  0  0  0
   24.6639  -20.7203   -8.9297 C   0  0  0  0  0  0  0  0  0  0  0  0
   24.1458  -21.3615   -7.9759 O   0  0  0  0  0  0  0  0  0  0  0  0
   23.7836  -20.0671   -9.7846 O   0  0  0  0  0  0  0  0  0  0  0  0
  2  1  1  1
  2  3  1  0
  4  2  1  0
  5  4  1  0
  5  6  1  6
  7  8  2  0
  7  5  1  0
  9  7  1  0
 10 21  1  0
 10  9  1  0
 10 11  1  6
 12 11  1  0
 13 12  2  0
 14 13  1  0
 15 14  1  0
 15 20  2  0
 16 15  1  0
 17 16  2  0
 17 18  1  0
 18 19  2  0
 19 20  1  0
 20 12  1  0
 21 28  1  0
 22 21  2  0
 23 24  1  0
 24 25  1  0
 25 26  1  1
 25 27  1  0
 27 28  1  6
 27 29  1  0
 29 30  2  0
 29 31  1  0
M  END
$$$$
