LWI.pdb
     RDKit          3D

 31 32  0  0  1  0  0  0  0  0999 V2000
   30.2029  -22.9204  -15.7621 C   0  0  0  0  0  0  0  0  0  0  0  0
   29.3499  -21.7281  -15.4623 C   0  0  1  0  0  0  0  0  0  0  0  0
   28.8417  -21.1393  -16.7572 C   0  0  0  0  0  0  0  0  0  0  0  0
   28.2481  -22.0149  -14.4874 C   0  0  0  0  0  0  0  0  0  0  0  0
   27.3818  -20.8195  -14.1883 C   0  0  2  0  0  0  0  0  0  0  0  0
   28.1300  -19.6336  -13.9137 N   0  0  0  0  0  0  0  0  0  0  0  0
   26.5755  -21.1618  -12.9875 C   0  0  0  0  0  0  0  0  0  0  0  0
   25.9326  -22.2519  -12.9603 O   0  0  0  0  0  0  0  0  0  0  0  0
   26.5047  -20.2969  -11.8631 N   0  0  0  0  0  0  0  0  0  0  0  0
   25.6681  -20.6623  -10.6922 C   0  0  1  0  0  0  0  0  0  0  0  0
   26.2021  -19.8529   -9.5553 C   0  0  0  0  0  0  0  0  0  0  0  0
   27.4474  -20.3482   -8.9457 C   0  0  0  0  0  0  0  0  0  0  0  0
   28.4101  -21.1479   -9.5121 C   0  0  0  0  0  0  0  0  0  0  0  0
   29.3709  -21.3884   -8.6153 N   0  0  0  0  0  0  0  0  0  0  0  0
   29.0711  -20.7625   -7.4512 C   0  0  0  0  0  0  0  0  0  0  0  0
   29.7228  -20.6928   -6.2329 C   0  0  0  0  0  0  0  0  0  0  0  0
   29.1864  -19.9738   -5.2009 C   0  0  0  0  0  0  0  0  0  0  0  0
   27.9820  -19.3176   -5.3947 C   0  0  0  0  0  0  0  0  0  0  0  0
   27.3330  -19.3816   -6.5939 C   0  0  0  0  0  0  0  0  0  0  0  0
   27.8604  -20.1083   -7.6604 C   0  0  0  0  0  0  0  0  0  0  0  0
   24.2739  -20.3097  -11.0322 C   0  0  0  0  0  0  0  0  0  0  0  0
   23.9888  -19.0898  -11.3224 O   0  0  0  0  0  0  0  0  0  0  0  0
   20.6230  -20.9231  -15.2397 C   0  0  0  0  0  0  0  0  0  0  0  0
   20.6249  -20.6761  -13.7714 C   0  0  0  0  0  0  0  0  0  0  0  0
   21.8369  -21.0589  -13.0213 C   0  0  2  0  0  0  0  0  0  0  0  0
   22.4246  -22.4036  -13.3926 C   0  0  0  0  0  0  0  0  0  0  0  0
   21.8602  -20.7901  -11.5392 C   0  0  2  0  0  0  0  0  0  0  0  0
   23.1848  -21.2208  -11.0749 N   0  0  0  0  0  0  0  0  0  0  0  0
   20.7578  -21.3542  -10.7720 C   0  0  0  0  0  0  0  0  0  0  0  0
   19.5941  -20.8765  -10.8549 O   0  0  0  0  0  0  0  0  0  0  0  0
   20.9209  -22.4372   -9.9159 O   0  0  0  0  0  0  0  0  0  0  0  0
  2  1  1  6
  2  3  1  0
  4  2  1  0
  5  4  1  0
  5  6  1  1
  7  8  2  0
  7  5  1  0
  9  7  1  0
 10 21  1  0
 10  9  1  0
 10 11  1  1
 12 11  1  0
 13 12  2  0
 14 13  1  0
 15 14  1  0
 15 20  2  0
 16 15  1  0
 17 16  2  0
 17 18  1  0
 18 19  2  0
 19 20  1  0
 20 12  1  0
 21 28  1  0
 22 21  2  0
 23 24  1  0
 24 25  1  0
 25 26  1  1
 25 27  1  0
 27 28  1  1
 27 29  1  0
 29 30  2  0
 29 31  1  0
M  END
$$$$
