LWI.pdb
     RDKit          3D

 31 32  0  0  1  0  0  0  0  0999 V2000
   27.1425  -17.8975  -17.1027 C   0  0  0  0  0  0  0  0  0  0  0  0
   28.0266  -18.7110  -16.2107 C   0  0  1  0  0  0  0  0  0  0  0  0
   28.8099  -17.7878  -15.3075 C   0  0  0  0  0  0  0  0  0  0  0  0
   27.2901  -19.7728  -15.4512 C   0  0  0  0  0  0  0  0  0  0  0  0
   28.1138  -20.4212  -14.3696 C   0  0  2  0  0  0  0  0  0  0  0  0
   28.9320  -21.4910  -14.8467 N   0  0  0  0  0  0  0  0  0  0  0  0
   27.1589  -20.9631  -13.3677 C   0  0  0  0  0  0  0  0  0  0  0  0
   26.6685  -22.1177  -13.5371 O   0  0  0  0  0  0  0  0  0  0  0  0
   26.7782  -20.2192  -12.2191 N   0  0  0  0  0  0  0  0  0  0  0  0
   25.8007  -20.7840  -11.2547 C   0  0  1  0  0  0  0  0  0  0  0  0
   26.0958  -20.1132   -9.9525 C   0  0  0  0  0  0  0  0  0  0  0  0
   27.2936  -20.5915   -9.2425 C   0  0  0  0  0  0  0  0  0  0  0  0
   28.3268  -21.3501   -9.7367 C   0  0  0  0  0  0  0  0  0  0  0  0
   29.2078  -21.5890   -8.7609 N   0  0  0  0  0  0  0  0  0  0  0  0
   28.7846  -21.0026   -7.6148 C   0  0  0  0  0  0  0  0  0  0  0  0
   29.3195  -20.9482   -6.3402 C   0  0  0  0  0  0  0  0  0  0  0  0
   28.6703  -20.2714   -5.3451 C   0  0  0  0  0  0  0  0  0  0  0  0
   27.4704  -19.6423   -5.6335 C   0  0  0  0  0  0  0  0  0  0  0  0
   26.9363  -19.6915   -6.8887 C   0  0  0  0  0  0  0  0  0  0  0  0
   27.5799  -20.3752   -7.9191 C   0  0  0  0  0  0  0  0  0  0  0  0
   24.4532  -20.4582  -11.7666 C   0  0  0  0  0  0  0  0  0  0  0  0
   24.1872  -19.2463  -12.1045 O   0  0  0  0  0  0  0  0  0  0  0  0
   21.0304  -21.7204  -16.2083 C   0  0  0  0  0  0  0  0  0  0  0  0
   20.9619  -21.2580  -14.7946 C   0  0  0  0  0  0  0  0  0  0  0  0
   22.1261  -21.5400  -13.9323 C   0  0  2  0  0  0  0  0  0  0  0  0
   22.6476  -22.9594  -14.0004 C   0  0  0  0  0  0  0  0  0  0  0  0
   22.1179  -20.9774  -12.5348 C   0  0  2  0  0  0  0  0  0  0  0  0
   23.3915  -21.3877  -11.9305 N   0  0  0  0  0  0  0  0  0  0  0  0
   20.9523  -21.3028  -11.7238 C   0  0  0  0  0  0  0  0  0  0  0  0
   19.8115  -20.8489  -12.0100 O   0  0  0  0  0  0  0  0  0  0  0  0
   21.0274  -22.1215  -10.6029 O   0  0  0  0  0  0  0  0  0  0  0  0
  2  1  1  1
  2  3  1  0
  4  2  1  0
  5  4  1  0
  5  6  1  6
  7  8  2  0
  7  5  1  0
  9  7  1  0
 10 21  1  0
 10  9  1  0
 10 11  1  1
 12 11  1  0
 13 12  2  0
 14 13  1  0
 15 14  1  0
 15 20  2  0
 16 15  1  0
 17 16  2  0
 17 18  1  0
 18 19  2  0
 19 20  1  0
 20 12  1  0
 21 28  1  0
 22 21  2  0
 23 24  1  0
 24 25  1  0
 25 26  1  1
 25 27  1  0
 27 28  1  1
 27 29  1  0
 29 30  2  0
 29 31  1  0
M  END
$$$$
