LWI.pdb
     RDKit          3D

 31 32  0  0  1  0  0  0  0  0999 V2000
   29.6957  -23.5654  -16.5489 C   0  0  0  0  0  0  0  0  0  0  0  0
   29.2308  -22.2377  -16.0387 C   0  0  1  0  0  0  0  0  0  0  0  0
   28.7564  -21.3951  -17.1991 C   0  0  0  0  0  0  0  0  0  0  0  0
   28.2088  -22.3444  -14.9475 C   0  0  0  0  0  0  0  0  0  0  0  0
   27.7313  -21.0104  -14.4365 C   0  0  2  0  0  0  0  0  0  0  0  0
   28.7960  -20.1067  -14.1343 N   0  0  0  0  0  0  0  0  0  0  0  0
   26.9647  -21.2757  -13.1911 C   0  0  0  0  0  0  0  0  0  0  0  0
   26.1333  -22.2298  -13.1640 O   0  0  0  0  0  0  0  0  0  0  0  0
   27.1385  -20.4856  -12.0236 N   0  0  0  0  0  0  0  0  0  0  0  0
   26.2779  -20.7115  -10.8349 C   0  0  1  0  0  0  0  0  0  0  0  0
   26.8857  -19.8911   -9.7438 C   0  0  0  0  0  0  0  0  0  0  0  0
   26.5237  -20.2815   -8.3713 C   0  0  0  0  0  0  0  0  0  0  0  0
   25.4726  -21.0651   -7.9610 C   0  0  0  0  0  0  0  0  0  0  0  0
   25.4830  -21.1588   -6.6281 N   0  0  0  0  0  0  0  0  0  0  0  0
   26.5261  -20.4498   -6.1322 C   0  0  0  0  0  0  0  0  0  0  0  0
   26.9752  -20.2262   -4.8430 C   0  0  0  0  0  0  0  0  0  0  0  0
   28.0801  -19.4524   -4.6192 C   0  0  0  0  0  0  0  0  0  0  0  0
   28.7412  -18.8969   -5.7024 C   0  0  0  0  0  0  0  0  0  0  0  0
   28.3041  -19.1130   -6.9773 C   0  0  0  0  0  0  0  0  0  0  0  0
   27.1802  -19.8982   -7.2301 C   0  0  0  0  0  0  0  0  0  0  0  0
   24.9186  -20.2568  -11.1947 C   0  0  0  0  0  0  0  0  0  0  0  0
   24.7543  -19.0607  -11.6372 O   0  0  0  0  0  0  0  0  0  0  0  0
   20.7254  -20.5936  -14.9328 C   0  0  0  0  0  0  0  0  0  0  0  0
   20.9355  -20.3008  -13.4881 C   0  0  0  0  0  0  0  0  0  0  0  0
   22.1671  -20.8217  -12.8633 C   0  0  2  0  0  0  0  0  0  0  0  0
   22.4974  -22.2610  -13.1959 C   0  0  0  0  0  0  0  0  0  0  0  0
   22.4254  -20.4717  -11.4210 C   0  0  2  0  0  0  0  0  0  0  0  0
   23.7391  -21.0429  -11.0995 N   0  0  0  0  0  0  0  0  0  0  0  0
   21.3783  -20.8419  -10.4782 C   0  0  0  0  0  0  0  0  0  0  0  0
   21.4888  -21.8650   -9.7499 O   0  0  0  0  0  0  0  0  0  0  0  0
   20.2127  -20.0998  -10.3273 O   0  0  0  0  0  0  0  0  0  0  0  0
  2  1  1  6
  2  3  1  0
  4  2  1  0
  5  4  1  0
  5  6  1  1
  7  8  2  0
  7  5  1  0
  9  7  1  0
 10 21  1  0
 10  9  1  0
 10 11  1  1
 12 11  1  0
 13 12  2  0
 14 13  1  0
 15 14  1  0
 15 20  2  0
 16 15  1  0
 17 16  2  0
 17 18  1  0
 18 19  2  0
 19 20  1  0
 20 12  1  0
 21 28  1  0
 22 21  2  0
 23 24  1  0
 24 25  1  0
 25 26  1  1
 25 27  1  0
 27 28  1  1
 27 29  1  0
 29 30  2  0
 29 31  1  0
M  END
$$$$
