LWI.pdb
     RDKit          3D

 31 32  0  0  1  0  0  0  0  0999 V2000
   26.7698  -17.8805  -16.8979 C   0  0  0  0  0  0  0  0  0  0  0  0
   27.7026  -18.8184  -16.1985 C   0  0  1  0  0  0  0  0  0  0  0  0
   28.8907  -18.0449  -15.6771 C   0  0  0  0  0  0  0  0  0  0  0  0
   27.0357  -19.6374  -15.1349 C   0  0  0  0  0  0  0  0  0  0  0  0
   27.9860  -20.5216  -14.3706 C   0  0  2  0  0  0  0  0  0  0  0  0
   28.3876  -21.6830  -15.0996 N   0  0  0  0  0  0  0  0  0  0  0  0
   27.2750  -20.9551  -13.1395 C   0  0  0  0  0  0  0  0  0  0  0  0
   26.4557  -21.9180  -13.2010 O   0  0  0  0  0  0  0  0  0  0  0  0
   27.4889  -20.3170  -11.8887 N   0  0  0  0  0  0  0  0  0  0  0  0
   26.7252  -20.7484  -10.6907 C   0  0  1  0  0  0  0  0  0  0  0  0
   27.4289  -20.1283   -9.5274 C   0  0  0  0  0  0  0  0  0  0  0  0
   26.8578  -20.4218   -8.2026 C   0  0  0  0  0  0  0  0  0  0  0  0
   25.6669  -21.0409   -7.9099 C   0  0  0  0  0  0  0  0  0  0  0  0
   25.5080  -21.0927   -6.5842 N   0  0  0  0  0  0  0  0  0  0  0  0
   26.5744  -20.5175   -5.9772 C   0  0  0  0  0  0  0  0  0  0  0  0
   26.8963  -20.3165   -4.6469 C   0  0  0  0  0  0  0  0  0  0  0  0
   28.0644  -19.6941   -4.3036 C   0  0  0  0  0  0  0  0  0  0  0  0
   28.9187  -19.2690   -5.3076 C   0  0  0  0  0  0  0  0  0  0  0  0
   28.6081  -19.4637   -6.6225 C   0  0  0  0  0  0  0  0  0  0  0  0
   27.4231  -20.0957   -6.9967 C   0  0  0  0  0  0  0  0  0  0  0  0
   25.3465  -20.2422  -10.8535 C   0  0  0  0  0  0  0  0  0  0  0  0
   25.1546  -18.9777  -10.9868 O   0  0  0  0  0  0  0  0  0  0  0  0
   21.3005  -20.0397  -14.7191 C   0  0  0  0  0  0  0  0  0  0  0  0
   21.4538  -19.9709  -13.2397 C   0  0  0  0  0  0  0  0  0  0  0  0
   22.6896  -20.5318  -12.6596 C   0  0  2  0  0  0  0  0  0  0  0  0
   23.1290  -21.8578  -13.2427 C   0  0  0  0  0  0  0  0  0  0  0  0
   22.8622  -20.4545  -11.1651 C   0  0  2  0  0  0  0  0  0  0  0  0
   24.1758  -21.0464  -10.8826 N   0  0  0  0  0  0  0  0  0  0  0  0
   21.7810  -21.0194  -10.3687 C   0  0  0  0  0  0  0  0  0  0  0  0
   21.9553  -22.0585   -9.6765 O   0  0  0  0  0  0  0  0  0  0  0  0
   20.5117  -20.4543  -10.3249 O   0  0  0  0  0  0  0  0  0  0  0  0
  2  1  1  1
  2  3  1  0
  4  2  1  0
  5  4  1  0
  5  6  1  6
  7  8  2  0
  7  5  1  0
  9  7  1  0
 10 21  1  0
 10  9  1  0
 10 11  1  1
 12 11  1  0
 13 12  2  0
 14 13  1  0
 15 14  1  0
 15 20  2  0
 16 15  1  0
 17 16  2  0
 17 18  1  0
 18 19  2  0
 19 20  1  0
 20 12  1  0
 21 28  1  0
 22 21  2  0
 23 24  1  0
 24 25  1  0
 25 26  1  1
 25 27  1  0
 27 28  1  6
 27 29  1  0
 29 30  2  0
 29 31  1  0
M  END
$$$$
