LWI.pdb
     RDKit          3D

 31 32  0  0  1  0  0  0  0  0999 V2000
   18.9304  -24.6526  -11.0247 C   0  0  0  0  0  0  0  0  0  0  0  0
   19.1299  -23.7724   -9.8312 C   0  0  1  0  0  0  0  0  0  0  0  0
   19.3072  -24.6312   -8.6013 C   0  0  0  0  0  0  0  0  0  0  0  0
   20.2374  -22.7773  -10.0044 C   0  0  0  0  0  0  0  0  0  0  0  0
   20.4830  -21.9303   -8.7832 C   0  0  2  0  0  0  0  0  0  0  0  0
   19.4460  -20.9785   -8.5376 N   0  0  0  0  0  0  0  0  0  0  0  0
   21.7553  -21.1980   -9.0160 C   0  0  0  0  0  0  0  0  0  0  0  0
   21.7796  -20.2415   -9.8447 O   0  0  0  0  0  0  0  0  0  0  0  0
   22.9516  -21.5419   -8.3319 N   0  0  0  0  0  0  0  0  0  0  0  0
   24.1691  -20.7072   -8.4924 C   0  0  1  0  0  0  0  0  0  0  0  0
   25.0200  -21.0145   -7.3031 C   0  0  0  0  0  0  0  0  0  0  0  0
   26.2727  -20.2485   -7.1967 C   0  0  0  0  0  0  0  0  0  0  0  0
   26.9747  -19.6259   -8.2000 C   0  0  0  0  0  0  0  0  0  0  0  0
   28.0718  -19.0599   -7.6885 N   0  0  0  0  0  0  0  0  0  0  0  0
   28.1209  -19.2913   -6.3541 C   0  0  0  0  0  0  0  0  0  0  0  0
   29.0302  -18.9305   -5.3760 C   0  0  0  0  0  0  0  0  0  0  0  0
   28.8332  -19.3045   -4.0756 C   0  0  0  0  0  0  0  0  0  0  0  0
   27.7103  -20.0492   -3.7542 C   0  0  0  0  0  0  0  0  0  0  0  0
   26.8086  -20.4090   -4.7136 C   0  0  0  0  0  0  0  0  0  0  0  0
   26.9882  -20.0393   -6.0458 C   0  0  0  0  0  0  0  0  0  0  0  0
   24.8049  -21.1129   -9.7632 C   0  0  0  0  0  0  0  0  0  0  0  0
   25.1387  -22.3431   -9.9324 O   0  0  0  0  0  0  0  0  0  0  0  0
   22.8835  -19.2018  -14.3379 C   0  0  0  0  0  0  0  0  0  0  0  0
   23.5359  -20.0555  -13.3070 C   0  0  0  0  0  0  0  0  0  0  0  0
   25.0075  -19.9971  -13.2112 C   0  0  2  0  0  0  0  0  0  0  0  0
   25.7424  -20.1082  -14.5298 C   0  0  0  0  0  0  0  0  0  0  0  0
   25.6699  -20.7637  -12.0963 C   0  0  2  0  0  0  0  0  0  0  0  0
   25.0867  -20.2456  -10.8525 N   0  0  0  0  0  0  0  0  0  0  0  0
   27.1266  -20.7678  -12.1038 C   0  0  0  0  0  0  0  0  0  0  0  0
   27.7844  -19.9182  -11.4442 O   0  0  0  0  0  0  0  0  0  0  0  0
   27.8672  -21.6953  -12.8274 O   0  0  0  0  0  0  0  0  0  0  0  0
  2  1  1  6
  2  3  1  0
  4  2  1  0
  5  4  1  0
  5  6  1  6
  7  8  2  0
  7  5  1  0
  9  7  1  0
 10 21  1  0
 10  9  1  0
 10 11  1  1
 12 11  1  0
 13 12  2  0
 14 13  1  0
 15 14  1  0
 15 20  2  0
 16 15  1  0
 17 16  2  0
 17 18  1  0
 18 19  2  0
 19 20  1  0
 20 12  1  0
 21 28  1  0
 22 21  2  0
 23 24  1  0
 24 25  1  0
 25 26  1  6
 25 27  1  0
 27 28  1  1
 27 29  1  0
 29 30  2  0
 29 31  1  0
M  END
$$$$
