LWI.pdb
     RDKit          3D

 31 32  0  0  1  0  0  0  0  0999 V2000
   29.3888  -21.8725  -16.9176 C   0  0  0  0  0  0  0  0  0  0  0  0
   28.2503  -21.0658  -16.3771 C   0  0  1  0  0  0  0  0  0  0  0  0
   27.3011  -20.7255  -17.5019 C   0  0  0  0  0  0  0  0  0  0  0  0
   27.5597  -21.7149  -15.2160 C   0  0  0  0  0  0  0  0  0  0  0  0
   26.5145  -20.8422  -14.5719 C   0  0  2  0  0  0  0  0  0  0  0  0
   26.8127  -19.4474  -14.6558 N   0  0  0  0  0  0  0  0  0  0  0  0
   26.4535  -21.2302  -13.1384 C   0  0  0  0  0  0  0  0  0  0  0  0
   26.2868  -22.4465  -12.8300 O   0  0  0  0  0  0  0  0  0  0  0  0
   26.5775  -20.2708  -12.0983 N   0  0  0  0  0  0  0  0  0  0  0  0
   26.4922  -20.6950  -10.6780 C   0  0  1  0  0  0  0  0  0  0  0  0
   27.4674  -19.8305   -9.9469 C   0  0  0  0  0  0  0  0  0  0  0  0
   28.1189  -20.4460   -8.7790 C   0  0  0  0  0  0  0  0  0  0  0  0
   28.8405  -21.6138   -8.7270 C   0  0  0  0  0  0  0  0  0  0  0  0
   29.2425  -21.8314   -7.4715 N   0  0  0  0  0  0  0  0  0  0  0  0
   28.8029  -20.8273   -6.6745 C   0  0  0  0  0  0  0  0  0  0  0  0
   28.9429  -20.5792   -5.3208 C   0  0  0  0  0  0  0  0  0  0  0  0
   28.3850  -19.4640   -4.7599 C   0  0  0  0  0  0  0  0  0  0  0  0
   27.6786  -18.5881   -5.5678 C   0  0  0  0  0  0  0  0  0  0  0  0
   27.5362  -18.8260   -6.9043 C   0  0  0  0  0  0  0  0  0  0  0  0
   28.0960  -19.9561   -7.4985 C   0  0  0  0  0  0  0  0  0  0  0  0
   25.0981  -20.4679  -10.2437 C   0  0  0  0  0  0  0  0  0  0  0  0
   24.4606  -19.4450  -10.6917 O   0  0  0  0  0  0  0  0  0  0  0  0
   21.9965  -24.3246   -7.1561 C   0  0  0  0  0  0  0  0  0  0  0  0
   22.6051  -23.0009   -7.4638 C   0  0  0  0  0  0  0  0  0  0  0  0
   22.3601  -22.4381   -8.8060 C   0  0  2  0  0  0  0  0  0  0  0  0
   22.4980  -23.4200   -9.9497 C   0  0  0  0  0  0  0  0  0  0  0  0
   22.9385  -21.0819   -9.1154 C   0  0  2  0  0  0  0  0  0  0  0  0
   24.3705  -21.3022   -9.3533 N   0  0  0  0  0  0  0  0  0  0  0  0
   22.6601  -20.0336   -8.1429 C   0  0  0  0  0  0  0  0  0  0  0  0
   23.5828  -19.5241   -7.4513 O   0  0  0  0  0  0  0  0  0  0  0  0
   21.3795  -19.5394   -7.9234 O   0  0  0  0  0  0  0  0  0  0  0  0
  2  1  1  6
  2  3  1  0
  4  2  1  0
  5  4  1  0
  5  6  1  1
  7  8  2  0
  7  5  1  0
  9  7  1  0
 10 21  1  0
 10  9  1  0
 10 11  1  1
 12 11  1  0
 13 12  2  0
 14 13  1  0
 15 14  1  0
 15 20  2  0
 16 15  1  0
 17 16  2  0
 17 18  1  0
 18 19  2  0
 19 20  1  0
 20 12  1  0
 21 28  1  0
 22 21  2  0
 23 24  1  0
 24 25  1  0
 25 26  1  6
 25 27  1  0
 27 28  1  1
 27 29  1  0
 29 30  2  0
 29 31  1  0
M  END
$$$$
