LWI.pdb
     RDKit          3D

 31 32  0  0  1  0  0  0  0  0999 V2000
   18.8376  -33.6562   -8.8265 C   0  0  0  0  0  0  0  0  0  0  0  0
   19.5118  -32.8403   -9.8842 C   0  0  1  0  0  0  0  0  0  0  0  0
   18.6846  -32.8785  -11.1475 C   0  0  0  0  0  0  0  0  0  0  0  0
   19.8299  -31.4430   -9.4451 C   0  0  0  0  0  0  0  0  0  0  0  0
   20.5134  -30.6191  -10.5047 C   0  0  2  0  0  0  0  0  0  0  0  0
   21.8889  -30.9604  -10.6864 N   0  0  0  0  0  0  0  0  0  0  0  0
   20.4288  -29.2008  -10.0685 C   0  0  0  0  0  0  0  0  0  0  0  0
   21.3277  -28.7279   -9.3131 O   0  0  0  0  0  0  0  0  0  0  0  0
   19.3629  -28.3553  -10.4767 N   0  0  0  0  0  0  0  0  0  0  0  0
   19.3888  -26.9086  -10.1440 C   0  0  1  0  0  0  0  0  0  0  0  0
   19.2315  -26.1987  -11.4494 C   0  0  0  0  0  0  0  0  0  0  0  0
   19.1550  -24.7304  -11.3750 C   0  0  0  0  0  0  0  0  0  0  0  0
   18.8624  -23.9500  -10.2830 C   0  0  0  0  0  0  0  0  0  0  0  0
   18.8721  -22.6630  -10.6421 N   0  0  0  0  0  0  0  0  0  0  0  0
   19.1670  -22.5628  -11.9611 C   0  0  0  0  0  0  0  0  0  0  0  0
   19.2995  -21.4781  -12.8093 C   0  0  0  0  0  0  0  0  0  0  0  0
   19.6104  -21.6640  -14.1278 C   0  0  0  0  0  0  0  0  0  0  0  0
   19.7901  -22.9538  -14.5996 C   0  0  0  0  0  0  0  0  0  0  0  0
   19.6611  -24.0292  -13.7689 C   0  0  0  0  0  0  0  0  0  0  0  0
   19.3448  -23.8645  -12.4211 C   0  0  0  0  0  0  0  0  0  0  0  0
   18.2599  -26.6580   -9.2239 C   0  0  0  0  0  0  0  0  0  0  0  0
   17.1115  -27.1737   -9.4857 O   0  0  0  0  0  0  0  0  0  0  0  0
   18.9320  -26.8914   -3.9245 C   0  0  0  0  0  0  0  0  0  0  0  0
   18.3116  -26.9401   -5.2773 C   0  0  0  0  0  0  0  0  0  0  0  0
   17.6561  -25.7117   -5.7668 C   0  0  2  0  0  0  0  0  0  0  0  0
   16.7065  -25.0559   -4.7872 C   0  0  0  0  0  0  0  0  0  0  0  0
   17.1447  -25.7052   -7.1838 C   0  0  2  0  0  0  0  0  0  0  0  0
   18.3267  -25.8804   -8.0369 N   0  0  0  0  0  0  0  0  0  0  0  0
   16.3158  -24.5667   -7.5567 C   0  0  0  0  0  0  0  0  0  0  0  0
   16.8148  -23.5515   -8.1132 O   0  0  0  0  0  0  0  0  0  0  0  0
   14.9456  -24.5328   -7.3253 O   0  0  0  0  0  0  0  0  0  0  0  0
  2  1  1  1
  2  3  1  0
  4  2  1  0
  5  4  1  0
  5  6  1  1
  7  8  2  0
  7  5  1  0
  9  7  1  0
 10 21  1  0
 10  9  1  0
 10 11  1  6
 12 11  1  0
 13 12  2  0
 14 13  1  0
 15 14  1  0
 15 20  2  0
 16 15  1  0
 17 16  2  0
 17 18  1  0
 18 19  2  0
 19 20  1  0
 20 12  1  0
 21 28  1  0
 22 21  2  0
 23 24  1  0
 24 25  1  0
 25 26  1  1
 25 27  1  0
 27 28  1  6
 27 29  1  0
 29 30  2  0
 29 31  1  0
M  END
$$$$
