RCR.pdb
     RDKit          3D

 29 28  0  0  1  0  0  0  0  0999 V2000
   27.2602  -15.8709  -18.0899 N   0  0  0  0  0  0  0  0  0  0  0  0
   28.4758  -16.5632  -18.3289 C   0  0  0  0  0  0  0  0  0  0  0  0
   29.2137  -16.2469  -19.3251 N   0  0  0  0  0  0  0  0  0  0  0  0
   28.9178  -17.6251  -17.4798 N   0  0  0  0  0  0  0  0  0  0  0  0
   28.1445  -18.0539  -16.3348 C   0  0  0  0  0  0  0  0  0  0  0  0
   26.8946  -18.7267  -16.8031 C   0  0  0  0  0  0  0  0  0  0  0  0
   26.2728  -19.6097  -15.7864 C   0  0  0  0  0  0  0  0  0  0  0  0
   27.1333  -20.6524  -15.1772 C   0  0  2  0  0  0  0  0  0  0  0  0
   27.6230  -21.6676  -16.0482 N   0  0  0  0  0  0  0  0  0  0  0  0
   26.4142  -21.2263  -13.9906 C   0  0  0  0  0  0  0  0  0  0  0  0
   25.7198  -22.2425  -14.1670 O   0  0  0  0  0  0  0  0  0  0  0  0
   30.0829  -16.7702  -19.5836 N   0  0  0  0  0  0  0  0  0  0  0  0
   26.4950  -20.6636  -12.6974 C   0  0  2  0  0  0  0  0  0  0  0  0
   25.6047  -20.9842  -11.6077 C   0  0  0  0  0  0  0  0  0  0  0  0
   26.1137  -20.4112  -10.3088 S   0  0  0  0  0  0  0  0  0  0  0  0
   25.1333  -20.9529   -8.8994 C   0  0  0  0  0  0  0  0  0  0  0  0
   24.2498  -20.4369  -11.8799 O   0  0  0  0  0  0  0  0  0  0  0  0
   24.0792  -19.2130  -12.1884 N   0  0  0  0  0  0  0  0  0  0  0  0
   17.4438  -19.4531  -16.3299 C   0  0  0  0  0  0  0  0  0  0  0  0
   18.5658  -18.6687  -16.6846 N   0  0  0  0  0  0  0  0  0  0  0  0
   18.3882  -17.6034  -17.3843 N   0  0  0  0  0  0  0  0  0  0  0  0
   19.8564  -19.0784  -16.2590 C   0  0  0  0  0  0  0  0  0  0  0  0
   19.9720  -20.2521  -15.4371 C   0  0  0  0  0  0  0  0  0  0  0  0
   20.3858  -19.8635  -14.0001 C   0  0  0  0  0  0  0  0  0  0  0  0
   21.2394  -20.9492  -13.4046 C   0  0  2  0  0  0  0  0  0  0  0  0
   21.7304  -20.6565  -12.0321 N   0  0  0  0  0  0  0  0  0  0  0  0
   23.0725  -21.2124  -11.8194 C   0  0  0  0  0  0  0  0  0  0  0  0
   20.8550  -21.2591  -11.0287 O   0  0  0  0  0  0  0  0  0  0  0  0
   21.2239  -22.2689  -10.3900 O   0  0  0  0  0  0  0  0  0  0  0  0
  1  2  1  0
  2  4  1  0
  2  3  2  0
  4  5  1  0
  6  5  1  0
  7  6  1  0
  8  7  1  0
  8  9  1  6
 10  8  1  0
 10 12  1  0
 11 10  2  0
 13 16  1  0
 13 12  1  0
 13 14  1  1
 15 14  1  0
 16 17  2  0
 18 19  1  0
 19 21  1  0
 20 19  2  0
 21 22  1  0
 23 24  1  0
 23 22  1  0
 25 24  1  6
 25 27  1  0
 26 25  1  0
 26 16  1  0
 27 28  2  0
 27 29  1  0
M  END
$$$$
