RCR.pdb
     RDKit          3D

 29 28  0  0  1  0  0  0  0  0999 V2000
   27.5983  -28.2916  -16.3081 N   0  0  0  0  0  0  0  0  0  0  0  0
   26.2225  -28.5864  -16.4935 C   0  0  0  0  0  0  0  0  0  0  0  0
   25.7410  -29.7009  -16.0896 N   0  0  0  0  0  0  0  0  0  0  0  0
   25.3332  -27.6648  -17.1291 N   0  0  0  0  0  0  0  0  0  0  0  0
   25.7320  -26.3062  -17.4253 C   0  0  0  0  0  0  0  0  0  0  0  0
   25.8911  -25.5455  -16.1484 C   0  0  0  0  0  0  0  0  0  0  0  0
   24.6597  -24.8434  -15.7122 C   0  0  0  0  0  0  0  0  0  0  0  0
   24.6883  -23.3608  -15.7135 C   0  0  2  0  0  0  0  0  0  0  0  0
   25.9722  -22.7452  -15.6695 N   0  0  0  0  0  0  0  0  0  0  0  0
   23.7892  -22.8685  -14.6164 C   0  0  0  0  0  0  0  0  0  0  0  0
   24.2831  -22.7113  -13.4862 O   0  0  0  0  0  0  0  0  0  0  0  0
   24.7343  -29.9652  -16.2032 N   0  0  0  0  0  0  0  0  0  0  0  0
   22.4207  -22.5804  -14.8159 C   0  0  1  0  0  0  0  0  0  0  0  0
   21.5398  -22.0487  -13.8039 C   0  0  0  0  0  0  0  0  0  0  0  0
   20.7029  -20.9216  -14.3551 S   0  0  0  0  0  0  0  0  0  0  0  0
   21.6296  -19.3822  -14.4670 C   0  0  0  0  0  0  0  0  0  0  0  0
   20.6390  -23.1185  -13.3004 O   0  0  0  0  0  0  0  0  0  0  0  0
   20.1997  -24.0322  -14.0714 N   0  0  0  0  0  0  0  0  0  0  0  0
   18.4369  -25.2229   -5.8003 C   0  0  0  0  0  0  0  0  0  0  0  0
   17.9498  -26.4759   -6.2391 N   0  0  0  0  0  0  0  0  0  0  0  0
   17.5870  -27.3471   -5.3641 N   0  0  0  0  0  0  0  0  0  0  0  0
   17.8747  -26.7377   -7.6321 C   0  0  0  0  0  0  0  0  0  0  0  0
   18.8136  -26.0909   -8.5076 C   0  0  0  0  0  0  0  0  0  0  0  0
   18.0814  -25.1109   -9.4514 C   0  0  0  0  0  0  0  0  0  0  0  0
   19.0605  -24.1164  -10.0121 C   0  0  1  0  0  0  0  0  0  0  0  0
   19.2498  -24.2088  -11.4838 N   0  0  0  0  0  0  0  0  0  0  0  0
   20.2093  -23.2044  -11.9591 C   0  0  0  0  0  0  0  0  0  0  0  0
   17.9913  -23.9619  -12.1850 O   0  0  0  0  0  0  0  0  0  0  0  0
   17.5858  -22.7931  -12.3669 O   0  0  0  0  0  0  0  0  0  0  0  0
  1  2  1  0
  2  4  1  0
  2  3  2  0
  4  5  1  0
  6  5  1  0
  7  6  1  0
  8  7  1  0
  8  9  1  1
 10  8  1  0
 10 12  1  0
 11 10  2  0
 13 16  1  0
 13 12  1  0
 13 14  1  1
 15 14  1  0
 16 17  2  0
 18 19  1  0
 19 21  1  0
 20 19  2  0
 21 22  1  0
 23 24  1  0
 23 22  1  0
 25 24  1  1
 25 27  1  0
 26 25  1  0
 26 16  1  0
 27 28  2  0
 27 29  1  0
M  END
$$$$
