RCR.pdb
     RDKit          3D

 29 28  0  0  1  0  0  0  0  0999 V2000
   27.3239  -26.6423  -16.4677 N   0  0  0  0  0  0  0  0  0  0  0  0
   28.1143  -25.9200  -17.3991 C   0  0  0  0  0  0  0  0  0  0  0  0
   28.7012  -26.5305  -18.3581 N   0  0  0  0  0  0  0  0  0  0  0  0
   28.2840  -24.5035  -17.3049 N   0  0  0  0  0  0  0  0  0  0  0  0
   27.6449  -23.7297  -16.2630 C   0  0  0  0  0  0  0  0  0  0  0  0
   26.2153  -23.4900  -16.6278 C   0  0  0  0  0  0  0  0  0  0  0  0
   25.5183  -22.5405  -15.7266 C   0  0  0  0  0  0  0  0  0  0  0  0
   25.6621  -21.0948  -16.0234 C   0  0  2  0  0  0  0  0  0  0  0  0
   26.9754  -20.5503  -15.9337 N   0  0  0  0  0  0  0  0  0  0  0  0
   24.6789  -20.3375  -15.1782 C   0  0  0  0  0  0  0  0  0  0  0  0
   25.0993  -19.7969  -14.1403 O   0  0  0  0  0  0  0  0  0  0  0  0
   29.3074  -26.0455  -19.0606 N   0  0  0  0  0  0  0  0  0  0  0  0
   23.3117  -20.2166  -15.5123 C   0  0  2  0  0  0  0  0  0  0  0  0
   22.3364  -19.5015  -14.7246 C   0  0  0  0  0  0  0  0  0  0  0  0
   22.0352  -18.1543  -15.3320 S   0  0  0  0  0  0  0  0  0  0  0  0
   20.7302  -17.2880  -14.4447 C   0  0  0  0  0  0  0  0  0  0  0  0
   21.0769  -20.2863  -14.6396 O   0  0  0  0  0  0  0  0  0  0  0  0
   20.4152  -20.5927  -15.6839 N   0  0  0  0  0  0  0  0  0  0  0  0
   15.2563  -24.5228  -11.0522 C   0  0  0  0  0  0  0  0  0  0  0  0
   16.3412  -25.3058  -10.5941 N   0  0  0  0  0  0  0  0  0  0  0  0
   16.2076  -26.5842  -10.5321 N   0  0  0  0  0  0  0  0  0  0  0  0
   17.5470  -24.6598  -10.2156 C   0  0  0  0  0  0  0  0  0  0  0  0
   17.6224  -23.2275  -10.3116 C   0  0  0  0  0  0  0  0  0  0  0  0
   17.7776  -22.7950  -11.7867 C   0  0  0  0  0  0  0  0  0  0  0  0
   19.0574  -22.0243  -11.9596 C   0  0  1  0  0  0  0  0  0  0  0  0
   19.2946  -21.5367  -13.3440 N   0  0  0  0  0  0  0  0  0  0  0  0
   20.5275  -20.7435  -13.4229 C   0  0  0  0  0  0  0  0  0  0  0  0
   18.2016  -20.6713  -13.7834 O   0  0  0  0  0  0  0  0  0  0  0  0
   18.1502  -19.4780  -13.4133 O   0  0  0  0  0  0  0  0  0  0  0  0
  1  2  1  0
  2  4  1  0
  2  3  2  0
  4  5  1  0
  6  5  1  0
  7  6  1  0
  8  7  1  0
  8  9  1  1
 10  8  1  0
 10 12  1  0
 11 10  2  0
 13 16  1  0
 13 12  1  0
 13 14  1  1
 15 14  1  0
 16 17  2  0
 18 19  1  0
 19 21  1  0
 20 19  2  0
 21 22  1  0
 23 24  1  0
 23 22  1  0
 25 24  1  6
 25 27  1  0
 26 25  1  0
 26 16  1  0
 27 28  2  0
 27 29  1  0
M  END
$$$$
