RCR.pdb
     RDKit          3D

 29 28  0  0  1  0  0  0  0  0999 V2000
   29.0679  -24.2191  -16.5175 N   0  0  0  0  0  0  0  0  0  0  0  0
   27.8967  -25.0166  -16.4380 C   0  0  0  0  0  0  0  0  0  0  0  0
   27.9833  -26.2666  -16.1789 N   0  0  0  0  0  0  0  0  0  0  0  0
   26.5936  -24.4645  -16.6411 N   0  0  0  0  0  0  0  0  0  0  0  0
   26.4078  -23.1016  -17.0892 C   0  0  0  0  0  0  0  0  0  0  0  0
   26.1270  -22.2252  -15.9113 C   0  0  0  0  0  0  0  0  0  0  0  0
   25.0995  -22.7701  -14.9908 C   0  0  0  0  0  0  0  0  0  0  0  0
   23.6879  -22.4026  -15.2571 C   0  0  2  0  0  0  0  0  0  0  0  0
   23.4652  -21.3556  -16.1971 N   0  0  0  0  0  0  0  0  0  0  0  0
   23.0123  -22.1339  -13.9434 C   0  0  0  0  0  0  0  0  0  0  0  0
   23.1958  -22.9444  -13.0186 O   0  0  0  0  0  0  0  0  0  0  0  0
   27.1636  -26.9172  -16.2132 N   0  0  0  0  0  0  0  0  0  0  0  0
   22.1867  -21.0096  -13.7200 C   0  0  1  0  0  0  0  0  0  0  0  0
   21.5188  -20.7188  -12.4740 C   0  0  0  0  0  0  0  0  0  0  0  0
   21.2780  -19.2375  -12.3240 S   0  0  0  0  0  0  0  0  0  0  0  0
   20.7249  -18.8059  -10.6661 C   0  0  0  0  0  0  0  0  0  0  0  0
   20.2142  -21.4290  -12.4183 O   0  0  0  0  0  0  0  0  0  0  0  0
   19.4086  -21.4137  -13.4047 N   0  0  0  0  0  0  0  0  0  0  0  0
   17.3976  -27.5079   -8.7576 C   0  0  0  0  0  0  0  0  0  0  0  0
   17.6496  -28.0465  -10.0407 N   0  0  0  0  0  0  0  0  0  0  0  0
   17.7091  -29.3242  -10.1819 N   0  0  0  0  0  0  0  0  0  0  0  0
   17.8297  -27.1629  -11.1367 C   0  0  0  0  0  0  0  0  0  0  0  0
   18.5230  -25.9229  -10.9171 C   0  0  0  0  0  0  0  0  0  0  0  0
   17.6243  -24.9347  -10.1406 C   0  0  0  0  0  0  0  0  0  0  0  0
   18.3366  -23.6205   -9.9751 C   0  0  2  0  0  0  0  0  0  0  0  0
   18.4749  -22.8383  -11.2319 N   0  0  0  0  0  0  0  0  0  0  0  0
   19.7754  -22.1598  -11.2937 C   0  0  0  0  0  0  0  0  0  0  0  0
   17.4483  -21.8010  -11.3127 O   0  0  0  0  0  0  0  0  0  0  0  0
   17.6390  -20.6788  -10.7953 O   0  0  0  0  0  0  0  0  0  0  0  0
  1  2  1  0
  2  4  1  0
  2  3  2  0
  4  5  1  0
  6  5  1  0
  7  6  1  0
  8  7  1  0
  8  9  1  6
 10  8  1  0
 10 12  1  0
 11 10  2  0
 13 16  1  0
 13 12  1  0
 13 14  1  1
 15 14  1  0
 16 17  2  0
 18 19  1  0
 19 21  1  0
 20 19  2  0
 21 22  1  0
 23 24  1  0
 23 22  1  0
 25 24  1  6
 25 27  1  0
 26 25  1  0
 26 16  1  0
 27 28  2  0
 27 29  1  0
M  END
$$$$
