RCR.pdb
     RDKit          3D

 29 28  0  0  1  0  0  0  0  0999 V2000
   26.0813  -14.7237  -15.2237 N   0  0  0  0  0  0  0  0  0  0  0  0
   25.2697  -15.5248  -16.0684 C   0  0  0  0  0  0  0  0  0  0  0  0
   24.4471  -14.9778  -16.8814 N   0  0  0  0  0  0  0  0  0  0  0  0
   25.3374  -16.9528  -16.0453 N   0  0  0  0  0  0  0  0  0  0  0  0
   26.1502  -17.6590  -15.0791 C   0  0  0  0  0  0  0  0  0  0  0  0
   27.3472  -18.2358  -15.7637 C   0  0  0  0  0  0  0  0  0  0  0  0
   28.2414  -19.0021  -14.8621 C   0  0  0  0  0  0  0  0  0  0  0  0
   28.1463  -20.4811  -14.9102 C   0  0  2  0  0  0  0  0  0  0  0  0
   28.0475  -21.0747  -16.2013 N   0  0  0  0  0  0  0  0  0  0  0  0
   27.0303  -20.9138  -14.0038 C   0  0  0  0  0  0  0  0  0  0  0  0
   26.0722  -21.5230  -14.5108 O   0  0  0  0  0  0  0  0  0  0  0  0
   23.8631  -15.5221  -17.5588 N   0  0  0  0  0  0  0  0  0  0  0  0
   27.0266  -20.6592  -12.6143 C   0  0  2  0  0  0  0  0  0  0  0  0
   25.9743  -21.0594  -11.7112 C   0  0  0  0  0  0  0  0  0  0  0  0
   26.3443  -20.7522  -10.2818 S   0  0  0  0  0  0  0  0  0  0  0  0
   24.9422  -20.9283   -9.1665 C   0  0  0  0  0  0  0  0  0  0  0  0
   24.7151  -20.3455  -12.0491 O   0  0  0  0  0  0  0  0  0  0  0  0
   24.6878  -19.0797  -12.1879 N   0  0  0  0  0  0  0  0  0  0  0  0
   18.5357  -21.5729  -17.5971 C   0  0  0  0  0  0  0  0  0  0  0  0
   18.1212  -20.3287  -17.0677 N   0  0  0  0  0  0  0  0  0  0  0  0
   17.0962  -19.7419  -17.5788 N   0  0  0  0  0  0  0  0  0  0  0  0
   18.8472  -19.7621  -15.9877 C   0  0  0  0  0  0  0  0  0  0  0  0
   20.0427  -20.4217  -15.5381 C   0  0  0  0  0  0  0  0  0  0  0  0
   20.7664  -19.5599  -14.4794 C   0  0  0  0  0  0  0  0  0  0  0  0
   22.0384  -20.2393  -14.0524 C   0  0  1  0  0  0  0  0  0  0  0  0
   22.2385  -20.2916  -12.5801 N   0  0  0  0  0  0  0  0  0  0  0  0
   23.4788  -20.9989  -12.2384 C   0  0  0  0  0  0  0  0  0  0  0  0
   21.1440  -21.0130  -11.9334 O   0  0  0  0  0  0  0  0  0  0  0  0
   21.2226  -22.2464  -11.7435 O   0  0  0  0  0  0  0  0  0  0  0  0
  1  2  1  0
  2  4  1  0
  2  3  2  0
  4  5  1  0
  6  5  1  0
  7  6  1  0
  8  7  1  0
  8  9  1  6
 10  8  1  0
 10 12  1  0
 11 10  2  0
 13 16  1  0
 13 12  1  0
 13 14  1  1
 15 14  1  0
 16 17  2  0
 18 19  1  0
 19 21  1  0
 20 19  2  0
 21 22  1  0
 23 24  1  0
 23 22  1  0
 25 24  1  6
 25 27  1  0
 26 25  1  0
 26 16  1  0
 27 28  2  0
 27 29  1  0
M  END
$$$$
