RCR.pdb
     RDKit          3D

 29 28  0  0  1  0  0  0  0  0999 V2000
   17.3830  -31.1954  -10.6382 N   0  0  0  0  0  0  0  0  0  0  0  0
   17.2729  -30.9069   -9.2530 C   0  0  0  0  0  0  0  0  0  0  0  0
   16.8338  -31.7935   -8.4418 N   0  0  0  0  0  0  0  0  0  0  0  0
   17.6422  -29.6341   -8.7166 N   0  0  0  0  0  0  0  0  0  0  0  0
   18.1249  -28.5646   -9.5628 C   0  0  0  0  0  0  0  0  0  0  0  0
   19.6169  -28.6215   -9.6333 C   0  0  0  0  0  0  0  0  0  0  0  0
   20.2105  -27.6337  -10.5669 C   0  0  0  0  0  0  0  0  0  0  0  0
   20.3226  -28.0299  -11.9914 C   0  0  2  0  0  0  0  0  0  0  0  0
   21.4647  -28.8004  -12.3536 N   0  0  0  0  0  0  0  0  0  0  0  0
   20.1818  -26.7982  -12.8383 C   0  0  0  0  0  0  0  0  0  0  0  0
   20.7560  -26.7819  -13.9411 O   0  0  0  0  0  0  0  0  0  0  0  0
   16.6736  -31.6097   -7.4236 N   0  0  0  0  0  0  0  0  0  0  0  0
   19.4314  -25.6710  -12.4360 C   0  0  2  0  0  0  0  0  0  0  0  0
   18.4935  -24.9684  -13.2786 C   0  0  0  0  0  0  0  0  0  0  0  0
   17.3845  -25.8844  -13.7320 S   0  0  0  0  0  0  0  0  0  0  0  0
   16.1873  -25.0342  -14.7735 C   0  0  0  0  0  0  0  0  0  0  0  0
   17.9027  -23.8234  -12.5375 O   0  0  0  0  0  0  0  0  0  0  0  0
   17.2426  -23.9994  -11.4625 N   0  0  0  0  0  0  0  0  0  0  0  0
   20.2500  -16.4659  -15.6183 C   0  0  0  0  0  0  0  0  0  0  0  0
   21.2455  -17.2948  -15.0509 N   0  0  0  0  0  0  0  0  0  0  0  0
   22.4802  -17.0778  -15.3415 N   0  0  0  0  0  0  0  0  0  0  0  0
   20.8549  -18.3428  -14.1770 C   0  0  0  0  0  0  0  0  0  0  0  0
   19.4541  -18.5490  -13.9291 C   0  0  0  0  0  0  0  0  0  0  0  0
   19.2419  -19.8063  -13.0565 C   0  0  0  0  0  0  0  0  0  0  0  0
   17.7703  -20.0583  -12.8755 C   0  0  2  0  0  0  0  0  0  0  0  0
   17.4486  -21.3516  -12.2165 N   0  0  0  0  0  0  0  0  0  0  0  0
   18.0237  -22.4815  -12.9568 C   0  0  0  0  0  0  0  0  0  0  0  0
   16.0033  -21.5641  -12.1690 O   0  0  0  0  0  0  0  0  0  0  0  0
   15.2836  -20.8626  -11.4250 O   0  0  0  0  0  0  0  0  0  0  0  0
  1  2  1  0
  2  4  1  0
  2  3  2  0
  4  5  1  0
  6  5  1  0
  7  6  1  0
  8  7  1  0
  8  9  1  1
 10  8  1  0
 10 12  1  0
 11 10  2  0
 13 16  1  0
 13 12  1  0
 13 14  1  6
 15 14  1  0
 16 17  2  0
 18 19  1  0
 19 21  1  0
 20 19  2  0
 21 22  1  0
 23 24  1  0
 23 22  1  0
 25 24  1  1
 25 27  1  0
 26 25  1  0
 26 16  1  0
 27 28  2  0
 27 29  1  0
M  END
$$$$
