RCR.pdb
     RDKit          3D

 29 28  0  0  1  0  0  0  0  0999 V2000
   29.0079  -24.7219  -16.7019 N   0  0  0  0  0  0  0  0  0  0  0  0
   27.9542  -25.6380  -16.4484 C   0  0  0  0  0  0  0  0  0  0  0  0
   28.2132  -26.8629  -16.1847 N   0  0  0  0  0  0  0  0  0  0  0  0
   26.5825  -25.2357  -16.4771 N   0  0  0  0  0  0  0  0  0  0  0  0
   26.1981  -23.8663  -16.7409 C   0  0  0  0  0  0  0  0  0  0  0  0
   26.4716  -23.0315  -15.5315 C   0  0  0  0  0  0  0  0  0  0  0  0
   25.3104  -22.9027  -14.6178 C   0  0  0  0  0  0  0  0  0  0  0  0
   24.0794  -22.2867  -15.1691 C   0  0  2  0  0  0  0  0  0  0  0  0
   24.2446  -21.0880  -15.9208 N   0  0  0  0  0  0  0  0  0  0  0  0
   23.0916  -22.1192  -14.0508 C   0  0  0  0  0  0  0  0  0  0  0  0
   22.9154  -23.0802  -13.2817 O   0  0  0  0  0  0  0  0  0  0  0  0
   27.4712  -27.5846  -16.0272 N   0  0  0  0  0  0  0  0  0  0  0  0
   22.3636  -20.9269  -13.8409 C   0  0  1  0  0  0  0  0  0  0  0  0
   21.3742  -20.7428  -12.8064 C   0  0  0  0  0  0  0  0  0  0  0  0
   21.4701  -19.3619  -12.2078 S   0  0  0  0  0  0  0  0  0  0  0  0
   20.4695  -19.1976  -10.7204 C   0  0  0  0  0  0  0  0  0  0  0  0
   20.0108  -20.9335  -13.3668 O   0  0  0  0  0  0  0  0  0  0  0  0
   19.6589  -20.3781  -14.4576 N   0  0  0  0  0  0  0  0  0  0  0  0
   14.1344  -27.2342  -12.3296 C   0  0  0  0  0  0  0  0  0  0  0  0
   15.5221  -26.9886  -12.4477 N   0  0  0  0  0  0  0  0  0  0  0  0
   16.3332  -27.9870  -12.4831 N   0  0  0  0  0  0  0  0  0  0  0  0
   15.9815  -25.6477  -12.5238 C   0  0  0  0  0  0  0  0  0  0  0  0
   15.0139  -24.5847  -12.5098 C   0  0  0  0  0  0  0  0  0  0  0  0
   15.5970  -23.3183  -13.1756 C   0  0  0  0  0  0  0  0  0  0  0  0
   17.0214  -23.1211  -12.7352 C   0  0  1  0  0  0  0  0  0  0  0  0
   17.6751  -21.9131  -13.3044 N   0  0  0  0  0  0  0  0  0  0  0  0
   19.0211  -21.7270  -12.7485 C   0  0  0  0  0  0  0  0  0  0  0  0
   16.9105  -20.7096  -12.9828 O   0  0  0  0  0  0  0  0  0  0  0  0
   17.0503  -20.1471  -11.8749 O   0  0  0  0  0  0  0  0  0  0  0  0
  1  2  1  0
  2  4  1  0
  2  3  2  0
  4  5  1  0
  6  5  1  0
  7  6  1  0
  8  7  1  0
  8  9  1  1
 10  8  1  0
 10 12  1  0
 11 10  2  0
 13 16  1  0
 13 12  1  0
 13 14  1  6
 15 14  1  0
 16 17  2  0
 18 19  1  0
 19 21  1  0
 20 19  2  0
 21 22  1  0
 23 24  1  0
 23 22  1  0
 25 24  1  6
 25 27  1  0
 26 25  1  0
 26 16  1  0
 27 28  2  0
 27 29  1  0
M  END
$$$$
