RCR.pdb
     RDKit          3D

 29 28  0  0  1  0  0  0  0  0999 V2000
   29.8390  -18.8123  -18.4289 N   0  0  0  0  0  0  0  0  0  0  0  0
   29.0199  -17.6644  -18.2696 C   0  0  0  0  0  0  0  0  0  0  0  0
   29.0819  -16.7048  -19.1136 N   0  0  0  0  0  0  0  0  0  0  0  0
   28.1069  -17.5358  -17.1768 N   0  0  0  0  0  0  0  0  0  0  0  0
   28.0288  -18.5325  -16.1312 C   0  0  0  0  0  0  0  0  0  0  0  0
   27.2538  -19.7113  -16.6253 C   0  0  0  0  0  0  0  0  0  0  0  0
   26.3333  -20.2886  -15.6157 C   0  0  0  0  0  0  0  0  0  0  0  0
   26.8610  -21.3817  -14.7640 C   0  0  2  0  0  0  0  0  0  0  0  0
   27.3810  -22.5240  -15.4377 N   0  0  0  0  0  0  0  0  0  0  0  0
   25.8076  -21.7505  -13.7597 C   0  0  0  0  0  0  0  0  0  0  0  0
   25.0660  -22.7134  -14.0217 O   0  0  0  0  0  0  0  0  0  0  0  0
   28.5205  -15.8256  -19.0241 N   0  0  0  0  0  0  0  0  0  0  0  0
   25.6288  -21.0547  -12.5434 C   0  0  2  0  0  0  0  0  0  0  0  0
   24.5385  -21.2785  -11.6245 C   0  0  0  0  0  0  0  0  0  0  0  0
   24.7571  -20.5278  -10.3349 S   0  0  0  0  0  0  0  0  0  0  0  0
   23.4335  -20.8179   -9.1498 C   0  0  0  0  0  0  0  0  0  0  0  0
   23.2592  -20.8302  -12.2343 O   0  0  0  0  0  0  0  0  0  0  0  0
   23.1670  -19.7094  -12.8323 N   0  0  0  0  0  0  0  0  0  0  0  0
   18.0154  -25.4179   -9.3687 C   0  0  0  0  0  0  0  0  0  0  0  0
   18.7651  -24.3246   -8.8762 N   0  0  0  0  0  0  0  0  0  0  0  0
   19.2590  -24.3888   -7.6896 N   0  0  0  0  0  0  0  0  0  0  0  0
   18.9517  -23.1871   -9.7043 C   0  0  0  0  0  0  0  0  0  0  0  0
   18.2727  -23.1359  -10.9703 C   0  0  0  0  0  0  0  0  0  0  0  0
   18.6974  -21.8761  -11.7576 C   0  0  0  0  0  0  0  0  0  0  0  0
   19.7820  -22.2296  -12.7377 C   0  0  1  0  0  0  0  0  0  0  0  0
   20.8367  -21.1917  -12.8821 N   0  0  0  0  0  0  0  0  0  0  0  0
   22.0729  -21.5935  -12.1995 C   0  0  0  0  0  0  0  0  0  0  0  0
   20.4084  -19.9300  -12.2813 O   0  0  0  0  0  0  0  0  0  0  0  0
   20.8030  -19.6052  -11.1401 O   0  0  0  0  0  0  0  0  0  0  0  0
  1  2  1  0
  2  4  1  0
  2  3  2  0
  4  5  1  0
  6  5  1  0
  7  6  1  0
  8  7  1  0
  8  9  1  6
 10  8  1  0
 10 12  1  0
 11 10  2  0
 13 16  1  0
 13 12  1  0
 13 14  1  1
 15 14  1  0
 16 17  2  0
 18 19  1  0
 19 21  1  0
 20 19  2  0
 21 22  1  0
 23 24  1  0
 23 22  1  0
 25 24  1  6
 25 27  1  0
 26 25  1  0
 26 16  1  0
 27 28  2  0
 27 29  1  0
M  END
$$$$
