RCR.pdb
     RDKit          3D

 29 28  0  0  1  0  0  0  0  0999 V2000
   22.6445  -19.1233  -20.1663 N   0  0  0  0  0  0  0  0  0  0  0  0
   21.5106  -18.6105  -19.4843 C   0  0  0  0  0  0  0  0  0  0  0  0
   20.3806  -19.2039  -19.5736 N   0  0  0  0  0  0  0  0  0  0  0  0
   21.5838  -17.4288  -18.6828 N   0  0  0  0  0  0  0  0  0  0  0  0
   22.0381  -16.1683  -19.2281 C   0  0  0  0  0  0  0  0  0  0  0  0
   23.5078  -16.2413  -19.4908 C   0  0  0  0  0  0  0  0  0  0  0  0
   24.3299  -15.4976  -18.5055 C   0  0  0  0  0  0  0  0  0  0  0  0
   24.8909  -14.1946  -18.9371 C   0  0  2  0  0  0  0  0  0  0  0  0
   26.1819  -14.2210  -19.5387 N   0  0  0  0  0  0  0  0  0  0  0  0
   24.8292  -13.2444  -17.7762 C   0  0  0  0  0  0  0  0  0  0  0  0
   23.7439  -13.1217  -17.1821 O   0  0  0  0  0  0  0  0  0  0  0  0
   19.5344  -18.9101  -19.0315 N   0  0  0  0  0  0  0  0  0  0  0  0
   25.9428  -12.4938  -17.3379 C   0  0  1  0  0  0  0  0  0  0  0  0
   25.8854  -11.4462  -16.3467 C   0  0  0  0  0  0  0  0  0  0  0  0
   27.2711  -11.0274  -15.9237 S   0  0  0  0  0  0  0  0  0  0  0  0
   27.2349   -9.7770  -14.6291 C   0  0  0  0  0  0  0  0  0  0  0  0
   25.1694  -10.2650  -16.8958 O   0  0  0  0  0  0  0  0  0  0  0  0
   25.3946   -9.8434  -18.0764 N   0  0  0  0  0  0  0  0  0  0  0  0
   17.2121   -6.9021  -15.3747 C   0  0  0  0  0  0  0  0  0  0  0  0
   17.7919   -5.8814  -16.1634 N   0  0  0  0  0  0  0  0  0  0  0  0
   17.0580   -4.8985  -16.5524 N   0  0  0  0  0  0  0  0  0  0  0  0
   19.1670   -5.9696  -16.5038 C   0  0  0  0  0  0  0  0  0  0  0  0
   19.9072   -7.1308  -16.0913 C   0  0  0  0  0  0  0  0  0  0  0  0
   21.3378   -7.0913  -16.6738 C   0  0  0  0  0  0  0  0  0  0  0  0
   22.1453   -8.2323  -16.1189 C   0  0  2  0  0  0  0  0  0  0  0  0
   23.5013   -8.3669  -16.7136 N   0  0  0  0  0  0  0  0  0  0  0  0
   24.2057   -9.5342  -16.1689 C   0  0  0  0  0  0  0  0  0  0  0  0
   24.3196   -7.1946  -16.4095 O   0  0  0  0  0  0  0  0  0  0  0  0
   25.2043   -7.2506  -15.5276 O   0  0  0  0  0  0  0  0  0  0  0  0
  1  2  1  0
  2  4  1  0
  2  3  2  0
  4  5  1  0
  6  5  1  0
  7  6  1  0
  8  7  1  0
  8  9  1  1
 10  8  1  0
 10 12  1  0
 11 10  2  0
 13 16  1  0
 13 12  1  0
 13 14  1  6
 15 14  1  0
 16 17  2  0
 18 19  1  0
 19 21  1  0
 20 19  2  0
 21 22  1  0
 23 24  1  0
 23 22  1  0
 25 24  1  6
 25 27  1  0
 26 25  1  0
 26 16  1  0
 27 28  2  0
 27 29  1  0
M  END
$$$$
