RCR.pdb
     RDKit          3D

 29 28  0  0  1  0  0  0  0  0999 V2000
   21.1617  -22.7509   -7.2251 N   0  0  0  0  0  0  0  0  0  0  0  0
   20.0819  -22.7501   -8.1459 C   0  0  0  0  0  0  0  0  0  0  0  0
   18.9343  -23.1942   -7.7955 N   0  0  0  0  0  0  0  0  0  0  0  0
   20.2304  -22.2608   -9.4812 N   0  0  0  0  0  0  0  0  0  0  0  0
   21.4760  -21.6917   -9.9472 C   0  0  0  0  0  0  0  0  0  0  0  0
   21.9069  -20.6070   -9.0134 C   0  0  0  0  0  0  0  0  0  0  0  0
   23.1871  -19.9623   -9.3944 C   0  0  0  0  0  0  0  0  0  0  0  0
   24.3974  -20.8189   -9.4145 C   0  0  2  0  0  0  0  0  0  0  0  0
   25.2033  -20.8162   -8.2399 N   0  0  0  0  0  0  0  0  0  0  0  0
   25.1923  -20.4869  -10.6443 C   0  0  0  0  0  0  0  0  0  0  0  0
   25.9269  -19.4844  -10.6090 O   0  0  0  0  0  0  0  0  0  0  0  0
   18.1106  -23.2263   -8.4410 N   0  0  0  0  0  0  0  0  0  0  0  0
   25.1389  -21.2601  -11.8254 C   0  0  2  0  0  0  0  0  0  0  0  0
   25.7144  -20.8659  -13.0889 C   0  0  0  0  0  0  0  0  0  0  0  0
   26.5361  -21.9840  -13.6797 S   0  0  0  0  0  0  0  0  0  0  0  0
   27.1084  -21.5983  -15.3424 C   0  0  0  0  0  0  0  0  0  0  0  0
   24.6378  -20.4990  -14.0459 O   0  0  0  0  0  0  0  0  0  0  0  0
   23.6268  -21.2523  -14.2267 N   0  0  0  0  0  0  0  0  0  0  0  0
   23.5736  -15.9586  -21.3600 C   0  0  0  0  0  0  0  0  0  0  0  0
   24.6748  -16.6333  -20.7838 N   0  0  0  0  0  0  0  0  0  0  0  0
   25.6253  -17.0450  -21.5474 N   0  0  0  0  0  0  0  0  0  0  0  0
   24.7009  -16.8376  -19.3794 C   0  0  0  0  0  0  0  0  0  0  0  0
   23.6236  -16.3128  -18.5854 C   0  0  0  0  0  0  0  0  0  0  0  0
   23.0339  -17.4185  -17.6815 C   0  0  0  0  0  0  0  0  0  0  0  0
   24.0686  -17.8698  -16.6877 C   0  0  2  0  0  0  0  0  0  0  0  0
   23.6332  -18.9975  -15.8221 N   0  0  0  0  0  0  0  0  0  0  0  0
   24.6506  -19.3141  -14.8121 C   0  0  0  0  0  0  0  0  0  0  0  0
   23.4262  -20.2088  -16.6134 O   0  0  0  0  0  0  0  0  0  0  0  0
   22.2722  -20.6491  -16.8083 O   0  0  0  0  0  0  0  0  0  0  0  0
  1  2  1  0
  2  4  1  0
  2  3  2  0
  4  5  1  0
  6  5  1  0
  7  6  1  0
  8  7  1  0
  8  9  1  1
 10  8  1  0
 10 12  1  0
 11 10  2  0
 13 16  1  0
 13 12  1  0
 13 14  1  1
 15 14  1  0
 16 17  2  0
 18 19  1  0
 19 21  1  0
 20 19  2  0
 21 22  1  0
 23 24  1  0
 23 22  1  0
 25 24  1  1
 25 27  1  0
 26 25  1  0
 26 16  1  0
 27 28  2  0
 27 29  1  0
M  END
$$$$
