RCR.pdb
     RDKit          3D

 29 28  0  0  1  0  0  0  0  0999 V2000
   21.0764  -20.1652  -18.7088 N   0  0  0  0  0  0  0  0  0  0  0  0
   21.8532  -18.9847  -18.8393 C   0  0  0  0  0  0  0  0  0  0  0  0
   21.2824  -17.8445  -18.9442 N   0  0  0  0  0  0  0  0  0  0  0  0
   23.2824  -19.0213  -18.8585 N   0  0  0  0  0  0  0  0  0  0  0  0
   24.0091  -20.2702  -18.9282 C   0  0  0  0  0  0  0  0  0  0  0  0
   24.7414  -20.4913  -17.6439 C   0  0  0  0  0  0  0  0  0  0  0  0
   23.8930  -20.3391  -16.4369 C   0  0  0  0  0  0  0  0  0  0  0  0
   23.9717  -21.4097  -15.4139 C   0  0  2  0  0  0  0  0  0  0  0  0
   25.2529  -21.9920  -15.1939 N   0  0  0  0  0  0  0  0  0  0  0  0
   22.9291  -22.4433  -15.7286 C   0  0  0  0  0  0  0  0  0  0  0  0
   22.6328  -22.6257  -16.9223 O   0  0  0  0  0  0  0  0  0  0  0  0
   21.8018  -16.9610  -19.1586 N   0  0  0  0  0  0  0  0  0  0  0  0
   22.2799  -23.2074  -14.7335 C   0  0  1  0  0  0  0  0  0  0  0  0
   21.4259  -24.3404  -14.9981 C   0  0  0  0  0  0  0  0  0  0  0  0
   22.2073  -25.4717  -15.6180 S   0  0  0  0  0  0  0  0  0  0  0  0
   23.6010  -25.9727  -14.5946 C   0  0  0  0  0  0  0  0  0  0  0  0
   20.8061  -24.8165  -13.7337 O   0  0  0  0  0  0  0  0  0  0  0  0
   21.4211  -24.7325  -12.6215 N   0  0  0  0  0  0  0  0  0  0  0  0
   12.3610  -26.4260  -11.8619 C   0  0  0  0  0  0  0  0  0  0  0  0
   12.9247  -26.0402  -10.6237 N   0  0  0  0  0  0  0  0  0  0  0  0
   12.1490  -25.8565   -9.6134 N   0  0  0  0  0  0  0  0  0  0  0  0
   14.3303  -25.8663  -10.5298 C   0  0  0  0  0  0  0  0  0  0  0  0
   15.1333  -26.0901  -11.7008 C   0  0  0  0  0  0  0  0  0  0  0  0
   16.6187  -25.7895  -11.3996 C   0  0  0  0  0  0  0  0  0  0  0  0
   17.4618  -26.1402  -12.5946 C   0  0  2  0  0  0  0  0  0  0  0  0
   18.9130  -25.8684  -12.4191 N   0  0  0  0  0  0  0  0  0  0  0  0
   19.5167  -25.3860  -13.6674 C   0  0  0  0  0  0  0  0  0  0  0  0
   19.6271  -27.0870  -12.0430 O   0  0  0  0  0  0  0  0  0  0  0  0
   20.2479  -27.7490  -12.9032 O   0  0  0  0  0  0  0  0  0  0  0  0
  1  2  1  0
  2  4  1  0
  2  3  2  0
  4  5  1  0
  6  5  1  0
  7  6  1  0
  8  7  1  0
  8  9  1  6
 10  8  1  0
 10 12  1  0
 11 10  2  0
 13 16  1  0
 13 12  1  0
 13 14  1  6
 15 14  1  0
 16 17  2  0
 18 19  1  0
 19 21  1  0
 20 19  2  0
 21 22  1  0
 23 24  1  0
 23 22  1  0
 25 24  1  1
 25 27  1  0
 26 25  1  0
 26 16  1  0
 27 28  2  0
 27 29  1  0
M  END
$$$$
