RCR.pdb
     RDKit          3D

 29 28  0  0  1  0  0  0  0  0999 V2000
   17.8760  -30.9496   -4.3197 N   0  0  0  0  0  0  0  0  0  0  0  0
   18.1937  -31.0806   -2.9428 C   0  0  0  0  0  0  0  0  0  0  0  0
   19.1437  -31.8523   -2.5700 N   0  0  0  0  0  0  0  0  0  0  0  0
   17.4764  -30.3670   -1.9326 N   0  0  0  0  0  0  0  0  0  0  0  0
   16.4072  -29.4507   -2.2643 C   0  0  0  0  0  0  0  0  0  0  0  0
   16.9712  -28.2694   -2.9860 C   0  0  0  0  0  0  0  0  0  0  0  0
   15.9778  -27.2012   -3.2542 C   0  0  0  0  0  0  0  0  0  0  0  0
   16.3978  -26.0936   -4.1462 C   0  0  2  0  0  0  0  0  0  0  0  0
   17.7099  -26.1759   -4.6947 N   0  0  0  0  0  0  0  0  0  0  0  0
   16.1667  -24.7946   -3.4296 C   0  0  0  0  0  0  0  0  0  0  0  0
   17.0952  -24.3374   -2.7405 O   0  0  0  0  0  0  0  0  0  0  0  0
   19.4307  -31.9660   -1.5695 N   0  0  0  0  0  0  0  0  0  0  0  0
   14.9505  -24.0803   -3.5072 C   0  0  2  0  0  0  0  0  0  0  0  0
   14.7360  -22.7657   -2.9514 C   0  0  0  0  0  0  0  0  0  0  0  0
   13.7383  -21.9888   -3.7733 S   0  0  0  0  0  0  0  0  0  0  0  0
   12.1016  -22.7376   -3.7370 C   0  0  0  0  0  0  0  0  0  0  0  0
   14.2313  -22.8786   -1.5579 O   0  0  0  0  0  0  0  0  0  0  0  0
   13.5591  -23.8911   -1.1766 N   0  0  0  0  0  0  0  0  0  0  0  0
   17.1254  -19.4967    6.0932 C   0  0  0  0  0  0  0  0  0  0  0  0
   16.2473  -20.5436    6.4580 N   0  0  0  0  0  0  0  0  0  0  0  0
   16.2763  -20.9928    7.6636 N   0  0  0  0  0  0  0  0  0  0  0  0
   15.3587  -21.0696    5.4841 C   0  0  0  0  0  0  0  0  0  0  0  0
   15.6397  -20.8340    4.0942 C   0  0  0  0  0  0  0  0  0  0  0  0
   14.5564  -21.4886    3.2082 C   0  0  0  0  0  0  0  0  0  0  0  0
   14.9486  -21.3803    1.7603 C   0  0  2  0  0  0  0  0  0  0  0  0
   14.0015  -22.0359    0.8202 N   0  0  0  0  0  0  0  0  0  0  0  0
   14.4520  -21.8955   -0.5700 C   0  0  0  0  0  0  0  0  0  0  0  0
   12.6783  -21.4206    0.9041 O   0  0  0  0  0  0  0  0  0  0  0  0
   11.8566  -21.7998    1.7669 O   0  0  0  0  0  0  0  0  0  0  0  0
  1  2  1  0
  2  4  1  0
  2  3  2  0
  4  5  1  0
  6  5  1  0
  7  6  1  0
  8  7  1  0
  8  9  1  1
 10  8  1  0
 10 12  1  0
 11 10  2  0
 13 16  1  0
 13 12  1  0
 13 14  1  6
 15 14  1  0
 16 17  2  0
 18 19  1  0
 19 21  1  0
 20 19  2  0
 21 22  1  0
 23 24  1  0
 23 22  1  0
 25 24  1  1
 25 27  1  0
 26 25  1  0
 26 16  1  0
 27 28  2  0
 27 29  1  0
M  END
$$$$
