RCR.pdb
     RDKit          3D

 29 28  0  0  1  0  0  0  0  0999 V2000
   28.2696  -21.8639  -16.2090 N   0  0  0  0  0  0  0  0  0  0  0  0
   27.2218  -22.5491  -16.8771 C   0  0  0  0  0  0  0  0  0  0  0  0
   27.0841  -23.8133  -16.7358 N   0  0  0  0  0  0  0  0  0  0  0  0
   26.2925  -21.8655  -17.7217 N   0  0  0  0  0  0  0  0  0  0  0  0
   26.3445  -20.4313  -17.9035 C   0  0  0  0  0  0  0  0  0  0  0  0
   25.6040  -19.7621  -16.7907 C   0  0  0  0  0  0  0  0  0  0  0  0
   24.1531  -20.0686  -16.7675 C   0  0  0  0  0  0  0  0  0  0  0  0
   23.3170  -19.3167  -15.8008 C   0  0  2  0  0  0  0  0  0  0  0  0
   23.8976  -18.1512  -15.2232 N   0  0  0  0  0  0  0  0  0  0  0  0
   22.8207  -20.2756  -14.7575 C   0  0  0  0  0  0  0  0  0  0  0  0
   23.1685  -21.4659  -14.8490 O   0  0  0  0  0  0  0  0  0  0  0  0
   26.3104  -24.3591  -17.1827 N   0  0  0  0  0  0  0  0  0  0  0  0
   21.9845  -19.8829  -13.6888 C   0  0  1  0  0  0  0  0  0  0  0  0
   21.5531  -20.7555  -12.6232 C   0  0  0  0  0  0  0  0  0  0  0  0
   21.4793  -20.0116  -11.3133 S   0  0  0  0  0  0  0  0  0  0  0  0
   20.2869  -18.6639  -11.3662 C   0  0  0  0  0  0  0  0  0  0  0  0
   20.2130  -21.3172  -12.9366 O   0  0  0  0  0  0  0  0  0  0  0  0
   19.4150  -20.7232  -13.7320 N   0  0  0  0  0  0  0  0  0  0  0  0
   15.1799  -27.3170   -9.7351 C   0  0  0  0  0  0  0  0  0  0  0  0
   14.7639  -27.5245  -11.0707 N   0  0  0  0  0  0  0  0  0  0  0  0
   13.6107  -28.0510  -11.2919 N   0  0  0  0  0  0  0  0  0  0  0  0
   15.6299  -27.1464  -12.1297 C   0  0  0  0  0  0  0  0  0  0  0  0
   16.8720  -26.4984  -11.8078 C   0  0  0  0  0  0  0  0  0  0  0  0
   16.9385  -25.1042  -12.4704 C   0  0  0  0  0  0  0  0  0  0  0  0
   18.2653  -24.4615  -12.1728 C   0  0  2  0  0  0  0  0  0  0  0  0
   18.4102  -23.0826  -12.7096 N   0  0  0  0  0  0  0  0  0  0  0  0
   19.7303  -22.5253  -12.3902 C   0  0  0  0  0  0  0  0  0  0  0  0
   17.4156  -22.1891  -12.1189 O   0  0  0  0  0  0  0  0  0  0  0  0
   16.2804  -22.0773  -12.6311 O   0  0  0  0  0  0  0  0  0  0  0  0
  1  2  1  0
  2  4  1  0
  2  3  2  0
  4  5  1  0
  6  5  1  0
  7  6  1  0
  8  7  1  0
  8  9  1  1
 10  8  1  0
 10 12  1  0
 11 10  2  0
 13 16  1  0
 13 12  1  0
 13 14  1  6
 15 14  1  0
 16 17  2  0
 18 19  1  0
 19 21  1  0
 20 19  2  0
 21 22  1  0
 23 24  1  0
 23 22  1  0
 25 24  1  6
 25 27  1  0
 26 25  1  0
 26 16  1  0
 27 28  2  0
 27 29  1  0
M  END
$$$$
