WSY.pdb
     RDKit          3D

 33 35  0  0  1  0  0  0  0  0999 V2000
   27.6240  -22.2375  -14.6312 N   0  0  0  0  0  0  0  0  0  0  0  0
   26.5497  -21.7864  -13.8243 C   0  0  1  0  0  0  0  0  0  0  0  0
   26.8002  -20.5420  -13.0214 C   0  0  0  0  0  0  0  0  0  0  0  0
   27.8200  -20.6924  -11.9620 C   0  0  0  0  0  0  0  0  0  0  0  0
   29.1893  -20.4799  -12.0676 C   0  0  0  0  0  0  0  0  0  0  0  0
   29.7446  -20.7061  -10.8858 N   0  0  0  0  0  0  0  0  0  0  0  0
   28.8110  -21.0651   -9.9761 C   0  0  0  0  0  0  0  0  0  0  0  0
   28.9539  -21.3933   -8.6356 C   0  0  0  0  0  0  0  0  0  0  0  0
   27.7991  -21.7285   -7.9628 C   0  0  0  0  0  0  0  0  0  0  0  0
   26.5785  -21.7311   -8.6065 C   0  0  0  0  0  0  0  0  0  0  0  0
   26.4622  -21.4016   -9.9370 C   0  0  0  0  0  0  0  0  0  0  0  0
   27.6051  -21.0587  -10.6432 C   0  0  0  0  0  0  0  0  0  0  0  0
   25.3078  -21.5234  -14.6372 C   0  0  0  0  0  0  0  0  0  0  0  0
   25.3541  -20.7454  -15.6228 O   0  0  0  0  0  0  0  0  0  0  0  0
   21.8518  -23.5006  -13.6551 O   0  0  0  0  0  0  0  0  0  0  0  0
   22.0706  -23.2472  -15.0130 C   0  0  0  0  0  0  0  0  0  0  0  0
   22.8863  -21.9611  -15.1585 C   0  0  2  0  0  0  0  0  0  0  0  0
   24.0644  -22.1348  -14.3241 N   0  0  0  0  0  0  0  0  0  0  0  0
   22.0726  -20.8317  -14.6405 C   0  0  0  0  0  0  0  0  0  0  0  0
   22.5433  -20.0725  -13.7576 O   0  0  0  0  0  0  0  0  0  0  0  0
   17.7006  -13.6108  -13.5303 O   0  0  0  0  0  0  0  0  0  0  0  0
   18.4560  -14.7239  -13.8734 C   0  0  0  0  0  0  0  0  0  0  0  0
   19.2587  -15.3146  -12.9220 C   0  0  0  0  0  0  0  0  0  0  0  0
   20.0089  -16.4285  -13.2812 C   0  0  0  0  0  0  0  0  0  0  0  0
   19.9701  -16.9532  -14.5565 C   0  0  0  0  0  0  0  0  0  0  0  0
   20.8065  -18.1297  -14.8679 C   0  0  0  0  0  0  0  0  0  0  0  0
   20.0333  -19.3886  -14.6326 C   0  0  2  0  0  0  0  0  0  0  0  0
   20.7603  -20.5611  -15.1034 N   0  0  0  0  0  0  0  0  0  0  0  0
   18.6933  -19.4047  -15.2443 C   0  0  0  0  0  0  0  0  0  0  0  0
   17.6784  -19.1546  -14.5174 O   0  0  0  0  0  0  0  0  0  0  0  0
   19.1575  -16.3383  -15.4828 C   0  0  0  0  0  0  0  0  0  0  0  0
   18.4023  -15.2313  -15.1528 C   0  0  0  0  0  0  0  0  0  0  0  0
   18.4135  -19.6704  -16.5687 O   0  0  0  0  0  0  0  0  0  0  0  0
  2  1  1  6
  2 13  1  0
  2  3  1  0
  4  5  2  0
  4  3  1  0
  6  5  1  0
  7 12  2  0
  7  6  1  0
  8  7  1  0
  9 10  1  0
  9  8  2  0
 10 11  2  0
 11 12  1  0
 12  4  1  0
 13 14  2  0
 16 15  1  0
 17 16  1  1
 18 17  1  0
 18 13  1  0
 19 20  2  0
 19 17  1  0
 21 22  1  0
 22 23  2  0
 23 24  1  0
 25 26  1  0
 25 24  2  0
 27 26  1  6
 27 28  1  0
 28 19  1  0
 29 27  1  0
 29 33  1  0
 30 29  2  0
 31 25  1  0
 32 31  2  0
 32 22  1  0
M  END
$$$$
