WSY.pdb
     RDKit          3D

 33 35  0  0  1  0  0  0  0  0999 V2000
   28.6106  -13.7259  -20.3198 N   0  0  0  0  0  0  0  0  0  0  0  0
   28.2909  -14.3928  -19.1107 C   0  0  1  0  0  0  0  0  0  0  0  0
   28.5562  -13.6319  -17.8433 C   0  0  0  0  0  0  0  0  0  0  0  0
   29.8724  -12.9606  -17.7967 C   0  0  0  0  0  0  0  0  0  0  0  0
   31.1280  -13.5514  -17.8709 C   0  0  0  0  0  0  0  0  0  0  0  0
   32.0475  -12.5991  -17.8108 N   0  0  0  0  0  0  0  0  0  0  0  0
   31.4721  -11.3808  -17.6980 C   0  0  0  0  0  0  0  0  0  0  0  0
   32.0559  -10.1259  -17.6005 C   0  0  0  0  0  0  0  0  0  0  0  0
   31.1924   -9.0581  -17.4881 C   0  0  0  0  0  0  0  0  0  0  0  0
   29.8258   -9.2493  -17.4749 C   0  0  0  0  0  0  0  0  0  0  0  0
   29.2705  -10.5039  -17.5732 C   0  0  0  0  0  0  0  0  0  0  0  0
   30.1115  -11.6002  -17.6883 C   0  0  0  0  0  0  0  0  0  0  0  0
   26.8418  -14.8051  -19.0622 C   0  0  0  0  0  0  0  0  0  0  0  0
   25.9875  -14.1820  -19.7409 O   0  0  0  0  0  0  0  0  0  0  0  0
   23.5055  -17.3514  -19.8777 O   0  0  0  0  0  0  0  0  0  0  0  0
   24.8027  -16.8422  -19.7586 C   0  0  0  0  0  0  0  0  0  0  0  0
   25.0318  -16.3847  -18.3168 C   0  0  2  0  0  0  0  0  0  0  0  0
   26.3990  -15.8927  -18.2628 N   0  0  0  0  0  0  0  0  0  0  0  0
   24.8928  -17.5647  -17.4255 C   0  0  0  0  0  0  0  0  0  0  0  0
   25.8528  -18.3623  -17.2862 O   0  0  0  0  0  0  0  0  0  0  0  0
   17.4731  -17.4980  -15.6763 O   0  0  0  0  0  0  0  0  0  0  0  0
   18.8076  -17.7718  -15.4087 C   0  0  0  0  0  0  0  0  0  0  0  0
   19.1697  -19.0391  -15.0075 C   0  0  0  0  0  0  0  0  0  0  0  0
   20.5099  -19.2973  -14.7436 C   0  0  0  0  0  0  0  0  0  0  0  0
   21.4790  -18.3239  -14.8724 C   0  0  0  0  0  0  0  0  0  0  0  0
   22.8804  -18.6689  -14.5599 C   0  0  0  0  0  0  0  0  0  0  0  0
   23.6238  -18.9941  -15.8168 C   0  0  2  0  0  0  0  0  0  0  0  0
   23.7026  -17.8425  -16.7071 N   0  0  0  0  0  0  0  0  0  0  0  0
   23.0672  -20.1249  -16.5794 C   0  0  0  0  0  0  0  0  0  0  0  0
   23.1522  -21.2992  -16.0950 O   0  0  0  0  0  0  0  0  0  0  0  0
   21.0826  -17.0681  -15.2752 C   0  0  0  0  0  0  0  0  0  0  0  0
   19.7589  -16.7847  -15.5438 C   0  0  0  0  0  0  0  0  0  0  0  0
   22.4405  -20.0414  -17.8054 O   0  0  0  0  0  0  0  0  0  0  0  0
  2  1  1  6
  2 13  1  0
  2  3  1  0
  4  5  2  0
  4  3  1  0
  6  5  1  0
  7 12  2  0
  7  6  1  0
  8  7  1  0
  9 10  1  0
  9  8  2  0
 10 11  2  0
 11 12  1  0
 12  4  1  0
 13 14  2  0
 16 15  1  0
 17 16  1  6
 18 17  1  0
 18 13  1  0
 19 20  2  0
 19 17  1  0
 21 22  1  0
 22 23  2  0
 23 24  1  0
 25 26  1  0
 25 24  2  0
 27 26  1  1
 27 28  1  0
 28 19  1  0
 29 27  1  0
 29 33  1  0
 30 29  2  0
 31 25  1  0
 32 31  2  0
 32 22  1  0
M  END
$$$$
