WSY.pdb
     RDKit          3D

 33 35  0  0  1  0  0  0  0  0999 V2000
   23.2508  -20.1902  -18.9019 N   0  0  0  0  0  0  0  0  0  0  0  0
   23.9774  -19.5215  -17.8852 C   0  0  1  0  0  0  0  0  0  0  0  0
   23.1795  -18.6319  -16.9754 C   0  0  0  0  0  0  0  0  0  0  0  0
   22.3098  -17.6630  -17.6754 C   0  0  0  0  0  0  0  0  0  0  0  0
   22.6611  -16.7996  -18.7062 C   0  0  0  0  0  0  0  0  0  0  0  0
   21.5870  -16.1120  -19.0661 N   0  0  0  0  0  0  0  0  0  0  0  0
   20.5153  -16.4694  -18.3233 C   0  0  0  0  0  0  0  0  0  0  0  0
   19.2091  -16.0030  -18.3625 C   0  0  0  0  0  0  0  0  0  0  0  0
   18.3328  -16.5656  -17.4603 C   0  0  0  0  0  0  0  0  0  0  0  0
   18.7526  -17.5377  -16.5754 C   0  0  0  0  0  0  0  0  0  0  0  0
   20.0536  -17.9842  -16.5558 C   0  0  0  0  0  0  0  0  0  0  0  0
   20.9611  -17.4391  -17.4513 C   0  0  0  0  0  0  0  0  0  0  0  0
   24.7153  -20.4873  -16.9935 C   0  0  0  0  0  0  0  0  0  0  0  0
   24.1486  -21.5366  -16.5977 O   0  0  0  0  0  0  0  0  0  0  0  0
   28.7438  -20.0900  -16.4298 O   0  0  0  0  0  0  0  0  0  0  0  0
   28.1459  -21.3383  -16.2291 C   0  0  0  0  0  0  0  0  0  0  0  0
   26.7428  -21.1360  -15.6537 C   0  0  2  0  0  0  0  0  0  0  0  0
   26.0526  -20.2501  -16.5772 N   0  0  0  0  0  0  0  0  0  0  0  0
   26.8722  -20.4723  -14.3313 C   0  0  0  0  0  0  0  0  0  0  0  0
   27.1654  -19.2528  -14.2675 O   0  0  0  0  0  0  0  0  0  0  0  0
   20.5045  -21.0436  -12.4976 O   0  0  0  0  0  0  0  0  0  0  0  0
   21.8109  -20.6140  -12.3077 C   0  0  0  0  0  0  0  0  0  0  0  0
   22.4911  -20.0360  -13.3572 C   0  0  0  0  0  0  0  0  0  0  0  0
   23.7985  -19.6109  -13.1509 C   0  0  0  0  0  0  0  0  0  0  0  0
   24.4272  -19.7522  -11.9311 C   0  0  0  0  0  0  0  0  0  0  0  0
   25.8228  -19.2903  -11.7917 C   0  0  0  0  0  0  0  0  0  0  0  0
   26.7586  -20.4567  -11.8357 C   0  0  2  0  0  0  0  0  0  0  0  0
   26.6772  -21.1625  -13.1085 N   0  0  0  0  0  0  0  0  0  0  0  0
   26.5614  -21.4379  -10.7547 C   0  0  0  0  0  0  0  0  0  0  0  0
   26.6786  -21.0578   -9.5453 O   0  0  0  0  0  0  0  0  0  0  0  0
   23.7185  -20.3342  -10.9036 C   0  0  0  0  0  0  0  0  0  0  0  0
   22.4195  -20.7650  -11.0812 C   0  0  0  0  0  0  0  0  0  0  0  0
   26.2510  -22.7715  -10.9217 O   0  0  0  0  0  0  0  0  0  0  0  0
  2  1  1  6
  2 13  1  0
  2  3  1  0
  4  5  2  0
  4  3  1  0
  6  5  1  0
  7 12  2  0
  7  6  1  0
  8  7  1  0
  9 10  1  0
  9  8  2  0
 10 11  2  0
 11 12  1  0
 12  4  1  0
 13 14  2  0
 16 15  1  0
 17 16  1  6
 18 17  1  0
 18 13  1  0
 19 20  2  0
 19 17  1  0
 21 22  1  0
 22 23  2  0
 23 24  1  0
 25 26  1  0
 25 24  2  0
 27 26  1  6
 27 28  1  0
 28 19  1  0
 29 27  1  0
 29 33  1  0
 30 29  2  0
 31 25  1  0
 32 31  2  0
 32 22  1  0
M  END
$$$$
