WSY.pdb
     RDKit          3D

 33 35  0  0  1  0  0  0  0  0999 V2000
   34.2061  -30.9885  -19.8295 N   0  0  0  0  0  0  0  0  0  0  0  0
   32.8810  -30.6296  -20.1816 C   0  0  1  0  0  0  0  0  0  0  0  0
   32.1647  -31.5670  -21.1111 C   0  0  0  0  0  0  0  0  0  0  0  0
   32.7977  -31.7146  -22.4387 C   0  0  0  0  0  0  0  0  0  0  0  0
   33.8937  -32.5013  -22.7722 C   0  0  0  0  0  0  0  0  0  0  0  0
   34.1321  -32.3663  -24.0687 N   0  0  0  0  0  0  0  0  0  0  0  0
   33.2441  -31.5191  -24.6358 C   0  0  0  0  0  0  0  0  0  0  0  0
   33.1336  -31.0951  -25.9523 C   0  0  0  0  0  0  0  0  0  0  0  0
   32.1142  -30.2090  -26.2246 C   0  0  0  0  0  0  0  0  0  0  0  0
   31.2619  -29.7801  -25.2277 C   0  0  0  0  0  0  0  0  0  0  0  0
   31.3916  -30.2150  -23.9292 C   0  0  0  0  0  0  0  0  0  0  0  0
   32.4068  -31.1077  -23.6213 C   0  0  0  0  0  0  0  0  0  0  0  0
   31.9984  -30.4785  -18.9689 C   0  0  0  0  0  0  0  0  0  0  0  0
   32.1961  -31.1927  -17.9542 O   0  0  0  0  0  0  0  0  0  0  0  0
   28.8856  -27.8458  -19.1445 O   0  0  0  0  0  0  0  0  0  0  0  0
   29.4390  -28.0128  -17.8710 C   0  0  0  0  0  0  0  0  0  0  0  0
   30.0622  -29.4066  -17.7736 C   0  0  2  0  0  0  0  0  0  0  0  0
   30.9322  -29.5406  -18.9309 N   0  0  0  0  0  0  0  0  0  0  0  0
   28.9716  -30.4117  -17.8527 C   0  0  0  0  0  0  0  0  0  0  0  0
   28.6695  -30.9239  -18.9589 O   0  0  0  0  0  0  0  0  0  0  0  0
   24.0052  -34.5228  -21.6151 O   0  0  0  0  0  0  0  0  0  0  0  0
   24.8849  -34.1640  -20.6028 C   0  0  0  0  0  0  0  0  0  0  0  0
   26.0208  -33.4502  -20.9167 C   0  0  0  0  0  0  0  0  0  0  0  0
   26.8916  -33.0984  -19.8918 C   0  0  0  0  0  0  0  0  0  0  0  0
   26.6489  -33.4434  -18.5783 C   0  0  0  0  0  0  0  0  0  0  0  0
   27.6274  -33.0474  -17.5458 C   0  0  0  0  0  0  0  0  0  0  0  0
   27.1639  -31.8102  -16.8439 C   0  0  2  0  0  0  0  0  0  0  0  0
   28.2369  -30.8320  -16.7154 N   0  0  0  0  0  0  0  0  0  0  0  0
   26.5959  -32.0451  -15.5051 C   0  0  0  0  0  0  0  0  0  0  0  0
   25.5986  -32.8272  -15.3848 O   0  0  0  0  0  0  0  0  0  0  0  0
   25.5045  -34.1571  -18.2996 C   0  0  0  0  0  0  0  0  0  0  0  0
   24.6231  -34.5191  -19.2979 C   0  0  0  0  0  0  0  0  0  0  0  0
   27.0483  -31.4878  -14.3271 O   0  0  0  0  0  0  0  0  0  0  0  0
  2  1  1  1
  2 13  1  0
  2  3  1  0
  4  5  2  0
  4  3  1  0
  6  5  1  0
  7 12  2  0
  7  6  1  0
  8  7  1  0
  9 10  1  0
  9  8  2  0
 10 11  2  0
 11 12  1  0
 12  4  1  0
 13 14  2  0
 16 15  1  0
 17 16  1  6
 18 17  1  0
 18 13  1  0
 19 20  2  0
 19 17  1  0
 21 22  1  0
 22 23  2  0
 23 24  1  0
 25 26  1  0
 25 24  2  0
 27 26  1  1
 27 28  1  0
 28 19  1  0
 29 27  1  0
 29 33  1  0
 30 29  2  0
 31 25  1  0
 32 31  2  0
 32 22  1  0
M  END
$$$$
