WSY.pdb
     RDKit          3D

 33 35  0  0  1  0  0  0  0  0999 V2000
   26.9629  -22.7733  -12.0594 N   0  0  0  0  0  0  0  0  0  0  0  0
   26.3043  -21.5242  -11.9386 C   0  0  1  0  0  0  0  0  0  0  0  0
   27.1814  -20.3351  -11.6695 C   0  0  0  0  0  0  0  0  0  0  0  0
   28.0503  -20.4720  -10.4814 C   0  0  0  0  0  0  0  0  0  0  0  0
   29.4087  -20.7642  -10.4542 C   0  0  0  0  0  0  0  0  0  0  0  0
   29.8128  -20.7783   -9.1922 N   0  0  0  0  0  0  0  0  0  0  0  0
   28.7861  -20.5080   -8.3549 C   0  0  0  0  0  0  0  0  0  0  0  0
   28.7640  -20.4283   -6.9699 C   0  0  0  0  0  0  0  0  0  0  0  0
   27.5460  -20.1384   -6.3947 C   0  0  0  0  0  0  0  0  0  0  0  0
   26.4230  -19.9420   -7.1723 C   0  0  0  0  0  0  0  0  0  0  0  0
   26.4702  -20.0262   -8.5445 C   0  0  0  0  0  0  0  0  0  0  0  0
   27.6807  -20.3158   -9.1553 C   0  0  0  0  0  0  0  0  0  0  0  0
   25.5029  -21.1896  -13.1707 C   0  0  0  0  0  0  0  0  0  0  0  0
   26.0168  -20.5010  -14.0875 O   0  0  0  0  0  0  0  0  0  0  0  0
   22.7182  -23.7555  -14.1750 O   0  0  0  0  0  0  0  0  0  0  0  0
   23.3434  -22.9596  -15.1402 C   0  0  0  0  0  0  0  0  0  0  0  0
   23.4675  -21.5304  -14.6086 C   0  0  2  0  0  0  0  0  0  0  0  0
   24.1635  -21.6330  -13.3361 N   0  0  0  0  0  0  0  0  0  0  0  0
   22.0999  -20.9956  -14.3853 C   0  0  0  0  0  0  0  0  0  0  0  0
   21.3094  -20.8705  -15.3532 O   0  0  0  0  0  0  0  0  0  0  0  0
   15.0117  -17.0527  -11.2356 O   0  0  0  0  0  0  0  0  0  0  0  0
   16.2658  -17.6426  -11.3166 C   0  0  0  0  0  0  0  0  0  0  0  0
   17.3299  -16.9050  -11.7876 C   0  0  0  0  0  0  0  0  0  0  0  0
   18.5793  -17.5101  -11.8625 C   0  0  0  0  0  0  0  0  0  0  0  0
   18.7788  -18.8204  -11.4799 C   0  0  0  0  0  0  0  0  0  0  0  0
   20.1317  -19.3995  -11.6020 C   0  0  0  0  0  0  0  0  0  0  0  0
   20.2957  -20.0488  -12.9398 C   0  0  2  0  0  0  0  0  0  0  0  0
   21.6310  -20.6097  -13.1043 N   0  0  0  0  0  0  0  0  0  0  0  0
   20.0275  -19.1620  -14.0851 C   0  0  0  0  0  0  0  0  0  0  0  0
   20.9101  -18.3113  -14.4288 O   0  0  0  0  0  0  0  0  0  0  0  0
   17.6937  -19.5289  -11.0139 C   0  0  0  0  0  0  0  0  0  0  0  0
   16.4426  -18.9527  -10.9292 C   0  0  0  0  0  0  0  0  0  0  0  0
   18.8806  -19.1577  -14.8517 O   0  0  0  0  0  0  0  0  0  0  0  0
  2  1  1  6
  2 13  1  0
  2  3  1  0
  4  5  2  0
  4  3  1  0
  6  5  1  0
  7 12  2  0
  7  6  1  0
  8  7  1  0
  9 10  1  0
  9  8  2  0
 10 11  2  0
 11 12  1  0
 12  4  1  0
 13 14  2  0
 16 15  1  0
 17 16  1  1
 18 17  1  0
 18 13  1  0
 19 20  2  0
 19 17  1  0
 21 22  1  0
 22 23  2  0
 23 24  1  0
 25 26  1  0
 25 24  2  0
 27 26  1  1
 27 28  1  0
 28 19  1  0
 29 27  1  0
 29 33  1  0
 30 29  2  0
 31 25  1  0
 32 31  2  0
 32 22  1  0
M  END
$$$$
