WSY.pdb
     RDKit          3D

 33 35  0  0  1  0  0  0  0  0999 V2000
   18.2206   -5.8539  -11.5110 N   0  0  0  0  0  0  0  0  0  0  0  0
   16.9815   -6.3796  -11.0671 C   0  0  1  0  0  0  0  0  0  0  0  0
   15.8607   -5.3924  -10.9092 C   0  0  0  0  0  0  0  0  0  0  0  0
   16.0224   -4.4595   -9.7739 C   0  0  0  0  0  0  0  0  0  0  0  0
   16.5082   -3.1580   -9.8093 C   0  0  0  0  0  0  0  0  0  0  0  0
   16.4740   -2.6605   -8.5815 N   0  0  0  0  0  0  0  0  0  0  0  0
   15.9850   -3.5688   -7.7075 C   0  0  0  0  0  0  0  0  0  0  0  0
   15.7850   -3.4690   -6.3382 C   0  0  0  0  0  0  0  0  0  0  0  0
   15.2707   -4.5843   -5.7136 C   0  0  0  0  0  0  0  0  0  0  0  0
   14.9780   -5.7269   -6.4299 C   0  0  0  0  0  0  0  0  0  0  0  0
   15.1849   -5.8016   -7.7878 C   0  0  0  0  0  0  0  0  0  0  0  0
   15.7008   -4.6964   -8.4473 C   0  0  0  0  0  0  0  0  0  0  0  0
   16.4684   -7.4603  -11.9841 C   0  0  0  0  0  0  0  0  0  0  0  0
   16.1007   -7.1732  -13.1508 O   0  0  0  0  0  0  0  0  0  0  0  0
   17.6081  -11.1722  -12.0327 O   0  0  0  0  0  0  0  0  0  0  0  0
   16.7363  -10.6836  -13.0111 C   0  0  0  0  0  0  0  0  0  0  0  0
   15.6668   -9.8174  -12.3428 C   0  0  2  0  0  0  0  0  0  0  0  0
   16.3843   -8.8165  -11.5697 N   0  0  0  0  0  0  0  0  0  0  0  0
   14.8743  -10.6780  -11.4278 C   0  0  0  0  0  0  0  0  0  0  0  0
   15.1286  -10.6872  -10.1979 O   0  0  0  0  0  0  0  0  0  0  0  0
    7.8473   -8.8238  -11.8521 O   0  0  0  0  0  0  0  0  0  0  0  0
    8.9842   -9.4592  -11.3713 C   0  0  0  0  0  0  0  0  0  0  0  0
    8.9028  -10.7733  -10.9656 C   0  0  0  0  0  0  0  0  0  0  0  0
   10.0501  -11.3954  -10.4867 C   0  0  0  0  0  0  0  0  0  0  0  0
   11.2588  -10.7350  -10.4081 C   0  0  0  0  0  0  0  0  0  0  0  0
   12.4311  -11.4571   -9.8745 C   0  0  0  0  0  0  0  0  0  0  0  0
   13.0432  -12.3068  -10.9429 C   0  0  2  0  0  0  0  0  0  0  0  0
   13.8204  -11.5095  -11.8836 N   0  0  0  0  0  0  0  0  0  0  0  0
   12.0768  -13.1094  -11.7123 C   0  0  0  0  0  0  0  0  0  0  0  0
   11.8720  -12.8249  -12.9362 O   0  0  0  0  0  0  0  0  0  0  0  0
   11.3048   -9.4222  -10.8217 C   0  0  0  0  0  0  0  0  0  0  0  0
   10.1809   -8.7807  -11.3013 C   0  0  0  0  0  0  0  0  0  0  0  0
   11.3461  -14.1749  -11.2289 O   0  0  0  0  0  0  0  0  0  0  0  0
  2  1  1  6
  2 13  1  0
  2  3  1  0
  4  5  2  0
  4  3  1  0
  6  5  1  0
  7 12  2  0
  7  6  1  0
  8  7  1  0
  9 10  1  0
  9  8  2  0
 10 11  2  0
 11 12  1  0
 12  4  1  0
 13 14  2  0
 16 15  1  0
 17 16  1  1
 18 17  1  0
 18 13  1  0
 19 20  2  0
 19 17  1  0
 21 22  1  0
 22 23  2  0
 23 24  1  0
 25 26  1  0
 25 24  2  0
 27 26  1  1
 27 28  1  0
 28 19  1  0
 29 27  1  0
 29 33  1  0
 30 29  2  0
 31 25  1  0
 32 31  2  0
 32 22  1  0
M  END
$$$$
