WSY.pdb
     RDKit          3D

 33 35  0  0  1  0  0  0  0  0999 V2000
   27.7710  -22.6655  -14.0537 N   0  0  0  0  0  0  0  0  0  0  0  0
   26.7166  -21.9339  -13.4523 C   0  0  1  0  0  0  0  0  0  0  0  0
   27.0735  -20.5786  -12.9123 C   0  0  0  0  0  0  0  0  0  0  0  0
   27.9631  -20.6050  -11.7320 C   0  0  0  0  0  0  0  0  0  0  0  0
   29.3509  -20.6771  -11.7184 C   0  0  0  0  0  0  0  0  0  0  0  0
   29.7628  -20.6584  -10.4590 N   0  0  0  0  0  0  0  0  0  0  0  0
   28.7134  -20.5768   -9.6105 C   0  0  0  0  0  0  0  0  0  0  0  0
   28.6905  -20.5368   -8.2237 C   0  0  0  0  0  0  0  0  0  0  0  0
   27.4468  -20.4597   -7.6358 C   0  0  0  0  0  0  0  0  0  0  0  0
   26.3003  -20.4257   -8.4030 C   0  0  0  0  0  0  0  0  0  0  0  0
   26.3487  -20.4664   -9.7771 C   0  0  0  0  0  0  0  0  0  0  0  0
   27.5847  -20.5434  -10.4007 C   0  0  0  0  0  0  0  0  0  0  0  0
   25.5658  -21.7220  -14.4026 C   0  0  0  0  0  0  0  0  0  0  0  0
   25.7781  -21.6346  -15.6380 O   0  0  0  0  0  0  0  0  0  0  0  0
   22.8855  -24.1062  -14.1942 O   0  0  0  0  0  0  0  0  0  0  0  0
   23.1546  -23.2723  -15.2842 C   0  0  0  0  0  0  0  0  0  0  0  0
   23.0885  -21.8134  -14.8283 C   0  0  2  0  0  0  0  0  0  0  0  0
   24.2256  -21.6158  -13.9439 N   0  0  0  0  0  0  0  0  0  0  0  0
   21.8276  -21.6193  -14.0675 C   0  0  0  0  0  0  0  0  0  0  0  0
   21.7316  -22.0503  -12.8918 O   0  0  0  0  0  0  0  0  0  0  0  0
   20.4441  -15.9880  -18.0741 O   0  0  0  0  0  0  0  0  0  0  0  0
   20.2799  -16.7499  -16.9253 C   0  0  0  0  0  0  0  0  0  0  0  0
   19.0208  -17.1917  -16.5822 C   0  0  0  0  0  0  0  0  0  0  0  0
   18.8729  -17.9538  -15.4290 C   0  0  0  0  0  0  0  0  0  0  0  0
   19.9471  -18.2762  -14.6256 C   0  0  0  0  0  0  0  0  0  0  0  0
   19.7101  -19.0770  -13.4078 C   0  0  0  0  0  0  0  0  0  0  0  0
   19.6020  -20.5276  -13.7577 C   0  0  2  0  0  0  0  0  0  0  0  0
   20.7003  -20.9563  -14.6148 N   0  0  0  0  0  0  0  0  0  0  0  0
   18.3370  -20.9045  -14.4117 C   0  0  0  0  0  0  0  0  0  0  0  0
   17.2389  -20.6919  -13.8036 O   0  0  0  0  0  0  0  0  0  0  0  0
   21.1915  -17.8183  -14.9976 C   0  0  0  0  0  0  0  0  0  0  0  0
   21.3663  -17.0601  -16.1374 C   0  0  0  0  0  0  0  0  0  0  0  0
   18.2134  -21.4827  -15.6580 O   0  0  0  0  0  0  0  0  0  0  0  0
  2  1  1  6
  2 13  1  0
  2  3  1  0
  4  5  2  0
  4  3  1  0
  6  5  1  0
  7 12  2  0
  7  6  1  0
  8  7  1  0
  9 10  1  0
  9  8  2  0
 10 11  2  0
 11 12  1  0
 12  4  1  0
 13 14  2  0
 16 15  1  0
 17 16  1  1
 18 17  1  0
 18 13  1  0
 19 20  2  0
 19 17  1  0
 21 22  1  0
 22 23  2  0
 23 24  1  0
 25 26  1  0
 25 24  2  0
 27 26  1  6
 27 28  1  0
 28 19  1  0
 29 27  1  0
 29 33  1  0
 30 29  2  0
 31 25  1  0
 32 31  2  0
 32 22  1  0
M  END
$$$$
