WSY.pdb
     RDKit          3D

 33 35  0  0  1  0  0  0  0  0999 V2000
   15.9131  -15.6216    5.7816 N   0  0  0  0  0  0  0  0  0  0  0  0
   16.3712  -16.9613    5.8471 C   0  0  1  0  0  0  0  0  0  0  0  0
   16.9223  -17.5368    4.5740 C   0  0  0  0  0  0  0  0  0  0  0  0
   15.9298  -17.6821    3.4882 C   0  0  0  0  0  0  0  0  0  0  0  0
   15.2261  -16.6725    2.8426 C   0  0  0  0  0  0  0  0  0  0  0  0
   14.4513  -17.2217    1.9184 N   0  0  0  0  0  0  0  0  0  0  0  0
   14.5958  -18.5659    1.9057 C   0  0  0  0  0  0  0  0  0  0  0  0
   13.9779  -19.5205    1.1107 C   0  0  0  0  0  0  0  0  0  0  0  0
   14.3329  -20.8313    1.3435 C   0  0  0  0  0  0  0  0  0  0  0  0
   15.2540  -21.1543    2.3189 C   0  0  0  0  0  0  0  0  0  0  0  0
   15.8536  -20.1895    3.0948 C   0  0  0  0  0  0  0  0  0  0  0  0
   15.5192  -18.8602    2.8857 C   0  0  0  0  0  0  0  0  0  0  0  0
   17.4437  -17.1382    6.8914 C   0  0  0  0  0  0  0  0  0  0  0  0
   18.3990  -16.3245    6.9563 O   0  0  0  0  0  0  0  0  0  0  0  0
   17.4930  -17.0991   10.6498 O   0  0  0  0  0  0  0  0  0  0  0  0
   17.6708  -18.4062   10.1850 C   0  0  0  0  0  0  0  0  0  0  0  0
   18.4250  -18.3673    8.8544 C   0  0  2  0  0  0  0  0  0  0  0  0
   17.4129  -18.2110    7.8221 N   0  0  0  0  0  0  0  0  0  0  0  0
   19.1213  -19.6669    8.6749 C   0  0  0  0  0  0  0  0  0  0  0  0
   18.6054  -20.5616    7.9602 O   0  0  0  0  0  0  0  0  0  0  0  0
   17.4036  -23.6652    4.4601 O   0  0  0  0  0  0  0  0  0  0  0  0
   18.3998  -23.1274    5.2637 C   0  0  0  0  0  0  0  0  0  0  0  0
   18.9533  -21.9107    4.9300 C   0  0  0  0  0  0  0  0  0  0  0  0
   19.9497  -21.3856    5.7449 C   0  0  0  0  0  0  0  0  0  0  0  0
   20.3947  -22.0472    6.8708 C   0  0  0  0  0  0  0  0  0  0  0  0
   21.4672  -21.4339    7.6795 C   0  0  0  0  0  0  0  0  0  0  0  0
   21.0077  -21.2510    9.0914 C   0  0  2  0  0  0  0  0  0  0  0  0
   20.3684  -19.9553    9.2843 N   0  0  0  0  0  0  0  0  0  0  0  0
   22.0703  -21.3921   10.1018 C   0  0  0  0  0  0  0  0  0  0  0  0
   22.2790  -20.4372   10.9176 O   0  0  0  0  0  0  0  0  0  0  0  0
   19.8200  -23.2612    7.1751 C   0  0  0  0  0  0  0  0  0  0  0  0
   18.8292  -23.8051    6.3834 C   0  0  0  0  0  0  0  0  0  0  0  0
   22.8905  -22.4894   10.2631 O   0  0  0  0  0  0  0  0  0  0  0  0
  2  1  1  6
  2 13  1  0
  2  3  1  0
  4  5  2  0
  4  3  1  0
  6  5  1  0
  7 12  2  0
  7  6  1  0
  8  7  1  0
  9 10  1  0
  9  8  2  0
 10 11  2  0
 11 12  1  0
 12  4  1  0
 13 14  2  0
 16 15  1  0
 17 16  1  1
 18 17  1  0
 18 13  1  0
 19 20  2  0
 19 17  1  0
 21 22  1  0
 22 23  2  0
 23 24  1  0
 25 26  1  0
 25 24  2  0
 27 26  1  6
 27 28  1  0
 28 19  1  0
 29 27  1  0
 29 33  1  0
 30 29  2  0
 31 25  1  0
 32 31  2  0
 32 22  1  0
M  END
$$$$
