WSY.pdb
     RDKit          3D

 33 35  0  0  1  0  0  0  0  0999 V2000
   24.4150   -8.0934  -20.3721 N   0  0  0  0  0  0  0  0  0  0  0  0
   23.0227   -7.8476  -20.2724 C   0  0  1  0  0  0  0  0  0  0  0  0
   22.1380   -9.0596  -20.2095 C   0  0  0  0  0  0  0  0  0  0  0  0
   22.1917   -9.9195  -21.4107 C   0  0  0  0  0  0  0  0  0  0  0  0
   22.8096   -9.6423  -22.6243 C   0  0  0  0  0  0  0  0  0  0  0  0
   22.6415  -10.6802  -23.4309 N   0  0  0  0  0  0  0  0  0  0  0  0
   21.9335  -11.6560  -22.8188 C   0  0  0  0  0  0  0  0  0  0  0  0
   21.5306  -12.8956  -23.2942 C   0  0  0  0  0  0  0  0  0  0  0  0
   20.8034  -13.6766  -22.4226 C   0  0  0  0  0  0  0  0  0  0  0  0
   20.5035  -13.2304  -21.1516 C   0  0  0  0  0  0  0  0  0  0  0  0
   20.9145  -11.9968  -20.7029 C   0  0  0  0  0  0  0  0  0  0  0  0
   21.6489  -11.1860  -21.5548 C   0  0  0  0  0  0  0  0  0  0  0  0
   22.6843   -7.0126  -19.0640 C   0  0  0  0  0  0  0  0  0  0  0  0
   23.5777   -6.7234  -18.2290 O   0  0  0  0  0  0  0  0  0  0  0  0
   21.6115   -3.5072  -16.8567 O   0  0  0  0  0  0  0  0  0  0  0  0
   21.9216   -4.4202  -17.8698 C   0  0  0  0  0  0  0  0  0  0  0  0
   21.0498   -5.6667  -17.7060 C   0  0  2  0  0  0  0  0  0  0  0  0
   21.3682   -6.5316  -18.8307 N   0  0  0  0  0  0  0  0  0  0  0  0
   19.6254   -5.2533  -17.7848 C   0  0  0  0  0  0  0  0  0  0  0  0
   19.1542   -4.8295  -18.8690 O   0  0  0  0  0  0  0  0  0  0  0  0
   16.2381   -9.6635  -20.7327 O   0  0  0  0  0  0  0  0  0  0  0  0
   16.2681   -8.7393  -19.6971 C   0  0  0  0  0  0  0  0  0  0  0  0
   17.1598   -8.9143  -18.6615 C   0  0  0  0  0  0  0  0  0  0  0  0
   17.1777   -7.9800  -17.6322 C   0  0  0  0  0  0  0  0  0  0  0  0
   16.3314   -6.8905  -17.6218 C   0  0  0  0  0  0  0  0  0  0  0  0
   16.3979   -5.9483  -16.4867 C   0  0  0  0  0  0  0  0  0  0  0  0
   17.3722   -4.8523  -16.7829 C   0  0  2  0  0  0  0  0  0  0  0  0
   18.7502   -5.3143  -16.6711 N   0  0  0  0  0  0  0  0  0  0  0  0
   17.2204   -3.6561  -15.9367 C   0  0  0  0  0  0  0  0  0  0  0  0
   16.0894   -3.0736  -15.8861 O   0  0  0  0  0  0  0  0  0  0  0  0
   15.4526   -6.7461  -18.6722 C   0  0  0  0  0  0  0  0  0  0  0  0
   15.4140   -7.6586  -19.7067 C   0  0  0  0  0  0  0  0  0  0  0  0
   18.2095   -3.0819  -15.1655 O   0  0  0  0  0  0  0  0  0  0  0  0
  2  1  1  1
  2 13  1  0
  2  3  1  0
  4  5  2  0
  4  3  1  0
  6  5  1  0
  7 12  2  0
  7  6  1  0
  8  7  1  0
  9 10  1  0
  9  8  2  0
 10 11  2  0
 11 12  1  0
 12  4  1  0
 13 14  2  0
 16 15  1  0
 17 16  1  6
 18 17  1  0
 18 13  1  0
 19 20  2  0
 19 17  1  0
 21 22  1  0
 22 23  2  0
 23 24  1  0
 25 26  1  0
 25 24  2  0
 27 26  1  1
 27 28  1  0
 28 19  1  0
 29 27  1  0
 29 33  1  0
 30 29  2  0
 31 25  1  0
 32 31  2  0
 32 22  1  0
M  END
$$$$
