WSY.pdb
     RDKit          3D

 33 35  0  0  1  0  0  0  0  0999 V2000
   25.0822  -19.3474   -9.2494 N   0  0  0  0  0  0  0  0  0  0  0  0
   26.3554  -19.8073   -9.6692 C   0  0  1  0  0  0  0  0  0  0  0  0
   26.8159  -21.1114   -9.0834 C   0  0  0  0  0  0  0  0  0  0  0  0
   26.8849  -21.1285   -7.6069 C   0  0  0  0  0  0  0  0  0  0  0  0
   26.0264  -21.7750   -6.7259 C   0  0  0  0  0  0  0  0  0  0  0  0
   26.4471  -21.5560   -5.4885 N   0  0  0  0  0  0  0  0  0  0  0  0
   27.5582  -20.7856   -5.4871 C   0  0  0  0  0  0  0  0  0  0  0  0
   28.3152  -20.3167   -4.4230 C   0  0  0  0  0  0  0  0  0  0  0  0
   29.4034  -19.5355   -4.7457 C   0  0  0  0  0  0  0  0  0  0  0  0
   29.7051  -19.2478   -6.0612 C   0  0  0  0  0  0  0  0  0  0  0  0
   28.9390  -19.7248   -7.0994 C   0  0  0  0  0  0  0  0  0  0  0  0
   27.8370  -20.5146   -6.8093 C   0  0  0  0  0  0  0  0  0  0  0  0
   26.4306  -19.9650  -11.1664 C   0  0  0  0  0  0  0  0  0  0  0  0
   25.3920  -19.8491  -11.8641 O   0  0  0  0  0  0  0  0  0  0  0  0
   29.7059  -21.5302  -13.1751 O   0  0  0  0  0  0  0  0  0  0  0  0
   29.3055  -20.2440  -13.5512 C   0  0  0  0  0  0  0  0  0  0  0  0
   27.8115  -20.0799  -13.2657 C   0  0  2  0  0  0  0  0  0  0  0  0
   27.6554  -20.2446  -11.8294 N   0  0  0  0  0  0  0  0  0  0  0  0
   27.0800  -21.1623  -13.9724 C   0  0  0  0  0  0  0  0  0  0  0  0
   27.1817  -22.3501  -13.5770 O   0  0  0  0  0  0  0  0  0  0  0  0
   18.6908  -21.6288  -13.5081 O   0  0  0  0  0  0  0  0  0  0  0  0
   20.0440  -21.3336  -13.6031 C   0  0  0  0  0  0  0  0  0  0  0  0
   20.9546  -22.1136  -12.9246 C   0  0  0  0  0  0  0  0  0  0  0  0
   22.3060  -21.8052  -13.0301 C   0  0  0  0  0  0  0  0  0  0  0  0
   22.7547  -20.7457  -13.7914 C   0  0  0  0  0  0  0  0  0  0  0  0
   24.2045  -20.4702  -13.8434 C   0  0  0  0  0  0  0  0  0  0  0  0
   24.8159  -21.1488  -15.0283 C   0  0  2  0  0  0  0  0  0  0  0  0
   26.2533  -20.9165  -15.0975 N   0  0  0  0  0  0  0  0  0  0  0  0
   24.2272  -20.7639  -16.3226 C   0  0  0  0  0  0  0  0  0  0  0  0
   23.6052  -21.6408  -17.0045 O   0  0  0  0  0  0  0  0  0  0  0  0
   21.8177  -19.9866  -14.4564 C   0  0  0  0  0  0  0  0  0  0  0  0
   20.4701  -20.2709  -14.3689 C   0  0  0  0  0  0  0  0  0  0  0  0
   24.2800  -19.5086  -16.8922 O   0  0  0  0  0  0  0  0  0  0  0  0
  2  1  1  6
  2 13  1  0
  2  3  1  0
  4  5  2  0
  4  3  1  0
  6  5  1  0
  7 12  2  0
  7  6  1  0
  8  7  1  0
  9 10  1  0
  9  8  2  0
 10 11  2  0
 11 12  1  0
 12  4  1  0
 13 14  2  0
 16 15  1  0
 17 16  1  1
 18 17  1  0
 18 13  1  0
 19 20  2  0
 19 17  1  0
 21 22  1  0
 22 23  2  0
 23 24  1  0
 25 26  1  0
 25 24  2  0
 27 26  1  1
 27 28  1  0
 28 19  1  0
 29 27  1  0
 29 33  1  0
 30 29  2  0
 31 25  1  0
 32 31  2  0
 32 22  1  0
M  END
$$$$
