WSY.pdb
     RDKit          3D

 33 35  0  0  1  0  0  0  0  0999 V2000
   28.0494  -20.1268  -13.3743 N   0  0  0  0  0  0  0  0  0  0  0  0
   27.3590  -21.2692  -12.8978 C   0  0  1  0  0  0  0  0  0  0  0  0
   26.9249  -21.2302  -11.4605 C   0  0  0  0  0  0  0  0  0  0  0  0
   28.0260  -21.0338  -10.4939 C   0  0  0  0  0  0  0  0  0  0  0  0
   29.3833  -20.9169  -10.7679 C   0  0  0  0  0  0  0  0  0  0  0  0
   30.0308  -20.7333   -9.6263 N   0  0  0  0  0  0  0  0  0  0  0  0
   29.1716  -20.7201   -8.5824 C   0  0  0  0  0  0  0  0  0  0  0  0
   29.4203  -20.5629   -7.2265 C   0  0  0  0  0  0  0  0  0  0  0  0
   28.3217  -20.6031   -6.3958 C   0  0  0  0  0  0  0  0  0  0  0  0
   27.0532  -20.7906   -6.9058 C   0  0  0  0  0  0  0  0  0  0  0  0
   26.8319  -20.9440   -8.2548 C   0  0  0  0  0  0  0  0  0  0  0  0
   27.9159  -20.9079   -9.1186 C   0  0  0  0  0  0  0  0  0  0  0  0
   26.1200  -21.5556  -13.7072 C   0  0  0  0  0  0  0  0  0  0  0  0
   25.3963  -20.6089  -14.1058 O   0  0  0  0  0  0  0  0  0  0  0  0
   24.4742  -25.3287  -13.7757 O   0  0  0  0  0  0  0  0  0  0  0  0
   24.5062  -24.6797  -15.0141 C   0  0  0  0  0  0  0  0  0  0  0  0
   24.5187  -23.1667  -14.7875 C   0  0  2  0  0  0  0  0  0  0  0  0
   25.7340  -22.8810  -14.0421 N   0  0  0  0  0  0  0  0  0  0  0  0
   23.3352  -22.8085  -13.9646 C   0  0  0  0  0  0  0  0  0  0  0  0
   23.4822  -22.4951  -12.7573 O   0  0  0  0  0  0  0  0  0  0  0  0
   17.1251  -17.4246  -11.7845 O   0  0  0  0  0  0  0  0  0  0  0  0
   18.1640  -18.1939  -12.2907 C   0  0  0  0  0  0  0  0  0  0  0  0
   19.0513  -18.7874  -11.4197 C   0  0  0  0  0  0  0  0  0  0  0  0
   20.0861  -19.5547  -11.9422 C   0  0  0  0  0  0  0  0  0  0  0  0
   20.2456  -19.7354  -13.3006 C   0  0  0  0  0  0  0  0  0  0  0  0
   21.3778  -20.5520  -13.7820 C   0  0  0  0  0  0  0  0  0  0  0  0
   20.9767  -21.9908  -13.8661 C   0  0  2  0  0  0  0  0  0  0  0  0
   22.0168  -22.8027  -14.4856 N   0  0  0  0  0  0  0  0  0  0  0  0
   19.7164  -22.2312  -14.5900 C   0  0  0  0  0  0  0  0  0  0  0  0
   19.7153  -22.1856  -15.8623 O   0  0  0  0  0  0  0  0  0  0  0  0
   19.3411  -19.1280  -14.1429 C   0  0  0  0  0  0  0  0  0  0  0  0
   18.3047  -18.3610  -13.6508 C   0  0  0  0  0  0  0  0  0  0  0  0
   18.4950  -22.5117  -14.0133 O   0  0  0  0  0  0  0  0  0  0  0  0
  2  1  1  6
  2 13  1  0
  2  3  1  0
  4  5  2  0
  4  3  1  0
  6  5  1  0
  7 12  2  0
  7  6  1  0
  8  7  1  0
  9 10  1  0
  9  8  2  0
 10 11  2  0
 11 12  1  0
 12  4  1  0
 13 14  2  0
 16 15  1  0
 17 16  1  1
 18 17  1  0
 18 13  1  0
 19 20  2  0
 19 17  1  0
 21 22  1  0
 22 23  2  0
 23 24  1  0
 25 26  1  0
 25 24  2  0
 27 26  1  6
 27 28  1  0
 28 19  1  0
 29 27  1  0
 29 33  1  0
 30 29  2  0
 31 25  1  0
 32 31  2  0
 32 22  1  0
M  END
$$$$
