WSY.pdb
     RDKit          3D

 33 35  0  0  1  0  0  0  0  0999 V2000
   23.7053  -19.2992  -17.2938 N   0  0  0  0  0  0  0  0  0  0  0  0
   24.5060  -18.7943  -16.2389 C   0  0  1  0  0  0  0  0  0  0  0  0
   23.8710  -17.7508  -15.3652 C   0  0  0  0  0  0  0  0  0  0  0  0
   23.8606  -16.3910  -15.9450 C   0  0  0  0  0  0  0  0  0  0  0  0
   22.7942  -15.7354  -16.5485 C   0  0  0  0  0  0  0  0  0  0  0  0
   23.1949  -14.5272  -16.9172 N   0  0  0  0  0  0  0  0  0  0  0  0
   24.4920  -14.3297  -16.5908 C   0  0  0  0  0  0  0  0  0  0  0  0
   25.3031  -13.2227  -16.7953 C   0  0  0  0  0  0  0  0  0  0  0  0
   26.6031  -13.3282  -16.3511 C   0  0  0  0  0  0  0  0  0  0  0  0
   27.0525  -14.4808  -15.7395 C   0  0  0  0  0  0  0  0  0  0  0  0
   26.2288  -15.5657  -15.5478 C   0  0  0  0  0  0  0  0  0  0  0  0
   24.9142  -15.4922  -15.9826 C   0  0  0  0  0  0  0  0  0  0  0  0
   24.9771  -19.8898  -15.3169 C   0  0  0  0  0  0  0  0  0  0  0  0
   24.1577  -20.7301  -14.8682 O   0  0  0  0  0  0  0  0  0  0  0  0
   28.9059  -19.9562  -13.4538 O   0  0  0  0  0  0  0  0  0  0  0  0
   28.2839  -21.0633  -14.0399 C   0  0  0  0  0  0  0  0  0  0  0  0
   26.7679  -20.9266  -13.8868 C   0  0  2  0  0  0  0  0  0  0  0  0
   26.3387  -20.0091  -14.9299 N   0  0  0  0  0  0  0  0  0  0  0  0
   26.4853  -20.3323  -12.5552 C   0  0  0  0  0  0  0  0  0  0  0  0
   26.3964  -19.0857  -12.4307 O   0  0  0  0  0  0  0  0  0  0  0  0
   20.2564  -22.5267  -11.2913 O   0  0  0  0  0  0  0  0  0  0  0  0
   21.3982  -21.7994  -10.9835 C   0  0  0  0  0  0  0  0  0  0  0  0
   22.1827  -21.3098  -12.0047 C   0  0  0  0  0  0  0  0  0  0  0  0
   23.3227  -20.5834  -11.6800 C   0  0  0  0  0  0  0  0  0  0  0  0
   23.6853  -20.3424  -10.3709 C   0  0  0  0  0  0  0  0  0  0  0  0
   24.9184  -19.5753  -10.1035 C   0  0  0  0  0  0  0  0  0  0  0  0
   26.1021  -20.4901  -10.0916 C   0  0  2  0  0  0  0  0  0  0  0  0
   26.3070  -21.1200  -11.3901 N   0  0  0  0  0  0  0  0  0  0  0  0
   26.0421  -21.5518   -9.0721 C   0  0  0  0  0  0  0  0  0  0  0  0
   25.9295  -21.2269   -7.8464 O   0  0  0  0  0  0  0  0  0  0  0  0
   22.8789  -20.8464   -9.3748 C   0  0  0  0  0  0  0  0  0  0  0  0
   21.7417  -21.5707   -9.6693 C   0  0  0  0  0  0  0  0  0  0  0  0
   26.0956  -22.9086   -9.3155 O   0  0  0  0  0  0  0  0  0  0  0  0
  2  1  1  6
  2 13  1  0
  2  3  1  0
  4  5  2  0
  4  3  1  0
  6  5  1  0
  7 12  2  0
  7  6  1  0
  8  7  1  0
  9 10  1  0
  9  8  2  0
 10 11  2  0
 11 12  1  0
 12  4  1  0
 13 14  2  0
 16 15  1  0
 17 16  1  1
 18 17  1  0
 18 13  1  0
 19 20  2  0
 19 17  1  0
 21 22  1  0
 22 23  2  0
 23 24  1  0
 25 26  1  0
 25 24  2  0
 27 26  1  6
 27 28  1  0
 28 19  1  0
 29 27  1  0
 29 33  1  0
 30 29  2  0
 31 25  1  0
 32 31  2  0
 32 22  1  0
M  END
$$$$
