WSY.pdb
     RDKit          3D

 33 35  0  0  1  0  0  0  0  0999 V2000
   19.9717  -20.5278  -16.4985 N   0  0  0  0  0  0  0  0  0  0  0  0
   21.0824  -19.7123  -16.1665 C   0  0  1  0  0  0  0  0  0  0  0  0
   20.7870  -18.4938  -15.3396 C   0  0  0  0  0  0  0  0  0  0  0  0
   19.8151  -17.5616  -15.9492 C   0  0  0  0  0  0  0  0  0  0  0  0
   18.4561  -17.4577  -15.6783 C   0  0  0  0  0  0  0  0  0  0  0  0
   17.9495  -16.4864  -16.4241 N   0  0  0  0  0  0  0  0  0  0  0  0
   18.9065  -15.9219  -17.1944 C   0  0  0  0  0  0  0  0  0  0  0  0
   18.8135  -14.8883  -18.1154 C   0  0  0  0  0  0  0  0  0  0  0  0
   19.9805  -14.5365  -18.7578 C   0  0  0  0  0  0  0  0  0  0  0  0
   21.1651  -15.1895  -18.4850 C   0  0  0  0  0  0  0  0  0  0  0  0
   21.2322  -16.2118  -17.5670 C   0  0  0  0  0  0  0  0  0  0  0  0
   20.0758  -16.5903  -16.9022 C   0  0  0  0  0  0  0  0  0  0  0  0
   22.1430  -20.4827  -15.4223 C   0  0  0  0  0  0  0  0  0  0  0  0
   21.8127  -21.3437  -14.5687 O   0  0  0  0  0  0  0  0  0  0  0  0
   26.2318  -19.7315  -16.0481 O   0  0  0  0  0  0  0  0  0  0  0  0
   25.7547  -21.0454  -16.0040 C   0  0  0  0  0  0  0  0  0  0  0  0
   24.5516  -21.1111  -15.0611 C   0  0  2  0  0  0  0  0  0  0  0  0
   23.5276  -20.2671  -15.6553 N   0  0  0  0  0  0  0  0  0  0  0  0
   24.9576  -20.5497  -13.7473 C   0  0  0  0  0  0  0  0  0  0  0  0
   24.3606  -19.5476  -13.2818 O   0  0  0  0  0  0  0  0  0  0  0  0
   27.0063  -18.7431   -5.6786 O   0  0  0  0  0  0  0  0  0  0  0  0
   26.5634  -19.1592   -6.9268 C   0  0  0  0  0  0  0  0  0  0  0  0
   26.8691  -18.4042   -8.0381 C   0  0  0  0  0  0  0  0  0  0  0  0
   26.4184  -18.8344   -9.2808 C   0  0  0  0  0  0  0  0  0  0  0  0
   25.6784  -19.9894   -9.4282 C   0  0  0  0  0  0  0  0  0  0  0  0
   25.2217  -20.3747  -10.7785 C   0  0  0  0  0  0  0  0  0  0  0  0
   26.3918  -20.4993  -11.7024 C   0  0  2  0  0  0  0  0  0  0  0  0
   26.0101  -21.1011  -12.9740 N   0  0  0  0  0  0  0  0  0  0  0  0
   27.5229  -21.2672  -11.1538 C   0  0  0  0  0  0  0  0  0  0  0  0
   27.5713  -22.5239  -11.3516 O   0  0  0  0  0  0  0  0  0  0  0  0
   25.3906  -20.7200   -8.2969 C   0  0  0  0  0  0  0  0  0  0  0  0
   25.8257  -20.3158   -7.0511 C   0  0  0  0  0  0  0  0  0  0  0  0
   28.5724  -20.7487  -10.4240 O   0  0  0  0  0  0  0  0  0  0  0  0
  2  1  1  1
  2 13  1  0
  2  3  1  0
  4  5  2  0
  4  3  1  0
  6  5  1  0
  7 12  2  0
  7  6  1  0
  8  7  1  0
  9 10  1  0
  9  8  2  0
 10 11  2  0
 11 12  1  0
 12  4  1  0
 13 14  2  0
 16 15  1  0
 17 16  1  6
 18 17  1  0
 18 13  1  0
 19 20  2  0
 19 17  1  0
 21 22  1  0
 22 23  2  0
 23 24  1  0
 25 26  1  0
 25 24  2  0
 27 26  1  1
 27 28  1  0
 28 19  1  0
 29 27  1  0
 29 33  1  0
 30 29  2  0
 31 25  1  0
 32 31  2  0
 32 22  1  0
M  END
$$$$
