WSY.pdb
     RDKit          3D

 33 35  0  0  1  0  0  0  0  0999 V2000
   11.7699  -21.8164    2.1732 N   0  0  0  0  0  0  0  0  0  0  0  0
   12.6858  -22.1702    1.1511 C   0  0  1  0  0  0  0  0  0  0  0  0
   14.0392  -21.5226    1.2200 C   0  0  0  0  0  0  0  0  0  0  0  0
   14.0096  -20.0713    1.4991 C   0  0  0  0  0  0  0  0  0  0  0  0
   13.0274  -19.1582    1.1349 C   0  0  0  0  0  0  0  0  0  0  0  0
   13.3706  -17.9629    1.5928 N   0  0  0  0  0  0  0  0  0  0  0  0
   14.5478  -18.0210    2.2551 C   0  0  0  0  0  0  0  0  0  0  0  0
   15.2677  -17.0139    2.8817 C   0  0  0  0  0  0  0  0  0  0  0  0
   16.4544  -17.3890    3.4728 C   0  0  0  0  0  0  0  0  0  0  0  0
   16.8842  -18.6997    3.4318 C   0  0  0  0  0  0  0  0  0  0  0  0
   16.1524  -19.6811    2.8043 C   0  0  0  0  0  0  0  0  0  0  0  0
   14.9528  -19.3373    2.1998 C   0  0  0  0  0  0  0  0  0  0  0  0
   12.9293  -23.6571    1.1043 C   0  0  0  0  0  0  0  0  0  0  0  0
   13.0088  -24.3154    2.1716 O   0  0  0  0  0  0  0  0  0  0  0  0
   14.7030  -25.4105   -2.0671 O   0  0  0  0  0  0  0  0  0  0  0  0
   13.5760  -26.1224   -1.6442 C   0  0  0  0  0  0  0  0  0  0  0  0
   13.2937  -25.7902   -0.1778 C   0  0  2  0  0  0  0  0  0  0  0  0
   13.0743  -24.3538   -0.1251 N   0  0  0  0  0  0  0  0  0  0  0  0
   14.4975  -26.1386    0.6195 C   0  0  0  0  0  0  0  0  0  0  0  0
   15.3849  -25.2743    0.8259 O   0  0  0  0  0  0  0  0  0  0  0  0
   11.5958  -31.0425    5.2269 O   0  0  0  0  0  0  0  0  0  0  0  0
   12.5936  -30.1815    4.7905 C   0  0  0  0  0  0  0  0  0  0  0  0
   12.3003  -28.8486    4.6013 C   0  0  0  0  0  0  0  0  0  0  0  0
   13.3104  -27.9994    4.1641 C   0  0  0  0  0  0  0  0  0  0  0  0
   14.5892  -28.4541    3.9169 C   0  0  0  0  0  0  0  0  0  0  0  0
   15.6059  -27.4953    3.4401 C   0  0  0  0  0  0  0  0  0  0  0  0
   15.8764  -27.7120    1.9848 C   0  0  2  0  0  0  0  0  0  0  0  0
   14.7000  -27.4283    1.1721 N   0  0  0  0  0  0  0  0  0  0  0  0
   16.3502  -29.0655    1.6474 C   0  0  0  0  0  0  0  0  0  0  0  0
   17.3359  -29.5535    2.2886 O   0  0  0  0  0  0  0  0  0  0  0  0
   14.8479  -29.7920    4.1161 C   0  0  0  0  0  0  0  0  0  0  0  0
   13.8637  -30.6569    4.5496 C   0  0  0  0  0  0  0  0  0  0  0  0
   15.8183  -29.8884    0.6766 O   0  0  0  0  0  0  0  0  0  0  0  0
  2  1  1  1
  2 13  1  0
  2  3  1  0
  4  5  2  0
  4  3  1  0
  6  5  1  0
  7 12  2  0
  7  6  1  0
  8  7  1  0
  9 10  1  0
  9  8  2  0
 10 11  2  0
 11 12  1  0
 12  4  1  0
 13 14  2  0
 16 15  1  0
 17 16  1  6
 18 17  1  0
 18 13  1  0
 19 20  2  0
 19 17  1  0
 21 22  1  0
 22 23  2  0
 23 24  1  0
 25 26  1  0
 25 24  2  0
 27 26  1  1
 27 28  1  0
 28 19  1  0
 29 27  1  0
 29 33  1  0
 30 29  2  0
 31 25  1  0
 32 31  2  0
 32 22  1  0
M  END
$$$$
