HYI.pdb
     RDKit          3D

 31 32  0  0  1  0  0  0  0  0999 V2000
    9.1703  -15.8526   19.1977 N   0  0  0  0  0  0  0  0  0  0  0  0
    8.1744  -14.9730   19.7728 C   0  0  1  0  0  0  0  0  0  0  0  0
    6.9815  -14.9854   18.8525 C   0  0  0  0  0  0  0  0  0  0  0  0
    7.4400  -14.6194   17.4877 C   0  0  0  0  0  0  0  0  0  0  0  0
    8.0018  -13.4386   17.0358 C   0  0  0  0  0  0  0  0  0  0  0  0
    8.2775  -13.5097   15.7267 N   0  0  0  0  0  0  0  0  0  0  0  0
    7.8943  -14.7420   15.3214 C   0  0  0  0  0  0  0  0  0  0  0  0
    7.3951  -15.4041   16.3705 N   0  0  0  0  0  0  0  0  0  0  0  0
    7.8136  -15.3924   21.1529 C   0  0  0  0  0  0  0  0  0  0  0  0
    6.9697  -14.7198   21.7686 O   0  0  0  0  0  0  0  0  0  0  0  0
    7.7434  -19.7347   28.8224 O   0  0  0  0  0  0  0  0  0  0  0  0
    7.9777  -19.3682   27.5209 C   0  0  0  0  0  0  0  0  0  0  0  0
    9.2325  -18.9547   27.1280 C   0  0  0  0  0  0  0  0  0  0  0  0
    9.3832  -18.6020   25.7941 C   0  0  0  0  0  0  0  0  0  0  0  0
    8.3632  -18.6521   24.8989 C   0  0  0  0  0  0  0  0  0  0  0  0
    8.5452  -18.2710   23.4827 C   0  0  0  0  0  0  0  0  0  0  0  0
    8.0924  -16.8668   23.1718 C   0  0  2  0  0  0  0  0  0  0  0  0
    8.3815  -16.5124   21.7923 N   0  0  0  0  0  0  0  0  0  0  0  0
    8.6039  -15.8478   24.1133 C   0  0  0  0  0  0  0  0  0  0  0  0
    9.8302  -15.5839   24.1610 O   0  0  0  0  0  0  0  0  0  0  0  0
    7.1015  -19.0773   25.3338 C   0  0  0  0  0  0  0  0  0  0  0  0
    6.9020  -19.4351   26.6362 C   0  0  0  0  0  0  0  0  0  0  0  0
    6.6088  -10.7083   26.7573 C   0  0  0  0  0  0  0  0  0  0  0  0
    7.6132  -11.8349   26.8020 C   0  0  0  0  0  0  0  0  0  0  0  0
    7.2338  -12.9960   25.9495 C   0  0  2  0  0  0  0  0  0  0  0  0
    5.8808  -13.5040   26.3270 C   0  0  0  0  0  0  0  0  0  0  0  0
    8.2612  -14.0857   25.9077 C   0  0  2  0  0  0  0  0  0  0  0  0
    7.7609  -15.1229   24.9993 N   0  0  0  0  0  0  0  0  0  0  0  0
    8.4475  -14.7231   27.2353 C   0  0  0  0  0  0  0  0  0  0  0  0
    7.7882  -15.7535   27.5833 O   0  0  0  0  0  0  0  0  0  0  0  0
    9.3443  -14.2503   28.1875 O   0  0  0  0  0  0  0  0  0  0  0  0
  2  1  1  6
  2  3  1  0
  3  4  1  0
  4  8  1  0
  4  5  2  0
  5  6  1  0
  7  6  1  0
  8  7  2  0
  9  2  1  0
  9 10  2  0
 11 12  1  0
 12 13  2  0
 13 14  1  0
 15 16  1  0
 15 14  2  0
 17 18  1  0
 17 16  1  1
 18  9  1  0
 19 17  1  0
 20 19  2  0
 21 15  1  0
 22 21  2  0
 22 12  1  0
 23 24  1  0
 25 24  1  0
 25 27  1  0
 25 26  1  1
 27 28  1  6
 28 19  1  0
 29 27  1  0
 29 31  1  0
 30 29  2  0
M  END
$$$$
