HYI.pdb
     RDKit          3D

 31 32  0  0  1  0  0  0  0  0999 V2000
    6.3871  -17.0911   19.4478 N   0  0  0  0  0  0  0  0  0  0  0  0
    7.2686  -16.2083   20.1827 C   0  0  1  0  0  0  0  0  0  0  0  0
    6.9081  -14.7962   19.8003 C   0  0  0  0  0  0  0  0  0  0  0  0
    7.6254  -14.4541   18.5452 C   0  0  0  0  0  0  0  0  0  0  0  0
    8.5217  -15.2097   17.8104 C   0  0  0  0  0  0  0  0  0  0  0  0
    8.9476  -14.5350   16.7343 N   0  0  0  0  0  0  0  0  0  0  0  0
    8.3272  -13.3335   16.7658 C   0  0  0  0  0  0  0  0  0  0  0  0
    7.5389  -13.2844   17.8450 N   0  0  0  0  0  0  0  0  0  0  0  0
    7.1582  -16.4305   21.6487 C   0  0  0  0  0  0  0  0  0  0  0  0
    6.0921  -16.1259   22.2095 O   0  0  0  0  0  0  0  0  0  0  0  0
    8.3387  -19.6291   29.7272 O   0  0  0  0  0  0  0  0  0  0  0  0
    8.3687  -19.3696   28.3801 C   0  0  0  0  0  0  0  0  0  0  0  0
    7.2085  -19.4065   27.6368 C   0  0  0  0  0  0  0  0  0  0  0  0
    7.3275  -19.1318   26.2815 C   0  0  0  0  0  0  0  0  0  0  0  0
    8.5146  -18.8384   25.6907 C   0  0  0  0  0  0  0  0  0  0  0  0
    8.6193  -18.5498   24.2451 C   0  0  0  0  0  0  0  0  0  0  0  0
    8.0846  -17.1938   23.8593 C   0  0  2  0  0  0  0  0  0  0  0  0
    8.2018  -16.9679   22.4284 N   0  0  0  0  0  0  0  0  0  0  0  0
    8.6638  -16.0762   24.6350 C   0  0  0  0  0  0  0  0  0  0  0  0
    9.7881  -15.6067   24.3326 O   0  0  0  0  0  0  0  0  0  0  0  0
    9.6732  -18.8099   26.4772 C   0  0  0  0  0  0  0  0  0  0  0  0
    9.6087  -19.0730   27.8154 C   0  0  0  0  0  0  0  0  0  0  0  0
    5.7170  -11.9588   26.3807 C   0  0  0  0  0  0  0  0  0  0  0  0
    6.8768  -12.8123   25.9263 C   0  0  0  0  0  0  0  0  0  0  0  0
    7.5552  -13.5268   27.0433 C   0  0  2  0  0  0  0  0  0  0  0  0
    8.0377  -12.5560   28.0708 C   0  0  0  0  0  0  0  0  0  0  0  0
    8.6308  -14.4716   26.6015 C   0  0  2  0  0  0  0  0  0  0  0  0
    8.0008  -15.4796   25.7422 N   0  0  0  0  0  0  0  0  0  0  0  0
    9.2383  -15.1946   27.7467 C   0  0  0  0  0  0  0  0  0  0  0  0
    8.6856  -16.2164   28.2644 O   0  0  0  0  0  0  0  0  0  0  0  0
   10.4412  -14.8167   28.3338 O   0  0  0  0  0  0  0  0  0  0  0  0
  2  1  1  6
  2  3  1  0
  3  4  1  0
  4  8  1  0
  4  5  2  0
  5  6  1  0
  7  6  1  0
  8  7  2  0
  9  2  1  0
  9 10  2  0
 11 12  1  0
 12 13  2  0
 13 14  1  0
 15 16  1  0
 15 14  2  0
 17 18  1  0
 17 16  1  1
 18  9  1  0
 19 17  1  0
 20 19  2  0
 21 15  1  0
 22 21  2  0
 22 12  1  0
 23 24  1  0
 25 24  1  0
 25 27  1  0
 25 26  1  1
 27 28  1  6
 28 19  1  0
 29 27  1  0
 29 31  1  0
 30 29  2  0
M  END
$$$$
