HYI.pdb
     RDKit          3D

 31 32  0  0  1  0  0  0  0  0999 V2000
    9.2145  -15.8526   19.5356 N   0  0  0  0  0  0  0  0  0  0  0  0
    8.1242  -15.0668   20.0741 C   0  0  1  0  0  0  0  0  0  0  0  0
    7.0052  -15.1043   19.0658 C   0  0  0  0  0  0  0  0  0  0  0  0
    7.5367  -14.6367   17.7598 C   0  0  0  0  0  0  0  0  0  0  0  0
    8.1929  -13.4593   17.4480 C   0  0  0  0  0  0  0  0  0  0  0  0
    8.5106  -13.4182   16.1472 N   0  0  0  0  0  0  0  0  0  0  0  0
    8.0601  -14.5733   15.6065 C   0  0  0  0  0  0  0  0  0  0  0  0
    7.4795  -15.3002   16.5671 N   0  0  0  0  0  0  0  0  0  0  0  0
    7.6914  -15.5789   21.4011 C   0  0  0  0  0  0  0  0  0  0  0  0
    6.7297  -15.0240   21.9588 O   0  0  0  0  0  0  0  0  0  0  0  0
    7.7235  -19.8391   29.1070 O   0  0  0  0  0  0  0  0  0  0  0  0
    7.9396  -19.4865   27.7985 C   0  0  0  0  0  0  0  0  0  0  0  0
    9.2075  -19.1669   27.3626 C   0  0  0  0  0  0  0  0  0  0  0  0
    9.3382  -18.8217   26.0247 C   0  0  0  0  0  0  0  0  0  0  0  0
    8.2870  -18.7919   25.1654 C   0  0  0  0  0  0  0  0  0  0  0  0
    8.4480  -18.4204   23.7442 C   0  0  0  0  0  0  0  0  0  0  0  0
    8.0780  -16.9890   23.4480 C   0  0  2  0  0  0  0  0  0  0  0  0
    8.3182  -16.6596   22.0530 N   0  0  0  0  0  0  0  0  0  0  0  0
    8.7077  -16.0053   24.3548 C   0  0  0  0  0  0  0  0  0  0  0  0
    9.9099  -15.6776   24.2024 O   0  0  0  0  0  0  0  0  0  0  0  0
    7.0127  -19.1227   25.6434 C   0  0  0  0  0  0  0  0  0  0  0  0
    6.8320  -19.4693   26.9516 C   0  0  0  0  0  0  0  0  0  0  0  0
    5.7965  -11.7897   25.6710 C   0  0  0  0  0  0  0  0  0  0  0  0
    6.9408  -12.7244   25.3596 C   0  0  0  0  0  0  0  0  0  0  0  0
    7.5425  -13.3433   26.5735 C   0  0  2  0  0  0  0  0  0  0  0  0
    8.0048  -12.2891   27.5254 C   0  0  0  0  0  0  0  0  0  0  0  0
    8.6085  -14.3543   26.2802 C   0  0  2  0  0  0  0  0  0  0  0  0
    8.0092  -15.3859   25.4270 N   0  0  0  0  0  0  0  0  0  0  0  0
    9.0843  -15.0315   27.5125 C   0  0  0  0  0  0  0  0  0  0  0  0
    8.4719  -16.0297   28.0086 O   0  0  0  0  0  0  0  0  0  0  0  0
   10.2198  -14.6331   28.2098 O   0  0  0  0  0  0  0  0  0  0  0  0
  2  1  1  6
  2  3  1  0
  3  4  1  0
  4  8  1  0
  4  5  2  0
  5  6  1  0
  7  6  1  0
  8  7  2  0
  9  2  1  0
  9 10  2  0
 11 12  1  0
 12 13  2  0
 13 14  1  0
 15 16  1  0
 15 14  2  0
 17 18  1  0
 17 16  1  1
 18  9  1  0
 19 17  1  0
 20 19  2  0
 21 15  1  0
 22 21  2  0
 22 12  1  0
 23 24  1  0
 25 24  1  0
 25 27  1  0
 25 26  1  1
 27 28  1  6
 28 19  1  0
 29 27  1  0
 29 31  1  0
 30 29  2  0
M  END
$$$$
