HYI.pdb
     RDKit          3D

 31 32  0  0  1  0  0  0  0  0999 V2000
    6.7023  -19.2777   19.8848 N   0  0  0  0  0  0  0  0  0  0  0  0
    7.4589  -18.1436   20.3722 C   0  0  1  0  0  0  0  0  0  0  0  0
    7.5400  -17.1436   19.2482 C   0  0  0  0  0  0  0  0  0  0  0  0
    8.4424  -17.6886   18.2017 C   0  0  0  0  0  0  0  0  0  0  0  0
    9.7780  -18.0395   18.2876 C   0  0  0  0  0  0  0  0  0  0  0  0
   10.2304  -18.4937   17.1112 N   0  0  0  0  0  0  0  0  0  0  0  0
    9.1864  -18.4394   16.2529 C   0  0  0  0  0  0  0  0  0  0  0  0
    8.1202  -17.9596   16.9021 N   0  0  0  0  0  0  0  0  0  0  0  0
    6.8356  -17.5596   21.5893 C   0  0  0  0  0  0  0  0  0  0  0  0
    5.8389  -16.8317   21.4462 O   0  0  0  0  0  0  0  0  0  0  0  0
    9.9357  -21.6682   27.2340 O   0  0  0  0  0  0  0  0  0  0  0  0
    9.0101  -20.8384   26.6526 C   0  0  0  0  0  0  0  0  0  0  0  0
    8.6192  -21.0367   25.3458 C   0  0  0  0  0  0  0  0  0  0  0  0
    7.6790  -20.1524   24.8355 C   0  0  0  0  0  0  0  0  0  0  0  0
    7.1537  -19.1340   25.5642 C   0  0  0  0  0  0  0  0  0  0  0  0
    6.1540  -18.2028   25.0009 C   0  0  0  0  0  0  0  0  0  0  0  0
    6.7444  -17.1713   24.0729 C   0  0  2  0  0  0  0  0  0  0  0  0
    7.3204  -17.7921   22.8918 N   0  0  0  0  0  0  0  0  0  0  0  0
    7.7018  -16.2530   24.7259 C   0  0  0  0  0  0  0  0  0  0  0  0
    8.9356  -16.3739   24.5283 O   0  0  0  0  0  0  0  0  0  0  0  0
    7.5744  -18.9627   26.8891 C   0  0  0  0  0  0  0  0  0  0  0  0
    8.4972  -19.8063   27.4375 C   0  0  0  0  0  0  0  0  0  0  0  0
    5.6451  -11.4550   26.5524 C   0  0  0  0  0  0  0  0  0  0  0  0
    6.5685  -12.4469   25.8865 C   0  0  0  0  0  0  0  0  0  0  0  0
    7.4417  -13.1758   26.8481 C   0  0  2  0  0  0  0  0  0  0  0  0
    8.2927  -12.2170   27.6146 C   0  0  0  0  0  0  0  0  0  0  0  0
    8.2422  -14.2815   26.2306 C   0  0  2  0  0  0  0  0  0  0  0  0
    7.2953  -15.2039   25.5950 N   0  0  0  0  0  0  0  0  0  0  0  0
    8.9904  -15.0598   27.2492 C   0  0  0  0  0  0  0  0  0  0  0  0
    8.4482  -16.0081   27.9007 O   0  0  0  0  0  0  0  0  0  0  0  0
   10.3228  -14.8165   27.5656 O   0  0  0  0  0  0  0  0  0  0  0  0
  2  1  1  6
  2  3  1  0
  3  4  1  0
  4  8  1  0
  4  5  2  0
  5  6  1  0
  7  6  1  0
  8  7  2  0
  9  2  1  0
  9 10  2  0
 11 12  1  0
 12 13  2  0
 13 14  1  0
 15 16  1  0
 15 14  2  0
 17 18  1  0
 17 16  1  1
 18  9  1  0
 19 17  1  0
 20 19  2  0
 21 15  1  0
 22 21  2  0
 22 12  1  0
 23 24  1  0
 25 24  1  0
 25 27  1  0
 25 26  1  6
 27 28  1  1
 28 19  1  0
 29 27  1  0
 29 31  1  0
 30 29  2  0
M  END
$$$$
