HYI.pdb
     RDKit          3D

 31 32  0  0  1  0  0  0  0  0999 V2000
    9.2625  -15.9790   19.6628 N   0  0  0  0  0  0  0  0  0  0  0  0
    8.0917  -15.1870   19.9761 C   0  0  1  0  0  0  0  0  0  0  0  0
    7.0791  -15.4359   18.8885 C   0  0  0  0  0  0  0  0  0  0  0  0
    7.5677  -14.7968   17.6397 C   0  0  0  0  0  0  0  0  0  0  0  0
    8.7811  -14.1844   17.3816 C   0  0  0  0  0  0  0  0  0  0  0  0
    8.8302  -13.7306   16.1220 N   0  0  0  0  0  0  0  0  0  0  0  0
    7.6441  -14.0477   15.5546 C   0  0  0  0  0  0  0  0  0  0  0  0
    6.8909  -14.6833   16.4585 N   0  0  0  0  0  0  0  0  0  0  0  0
    7.5541  -15.5238   21.3209 C   0  0  0  0  0  0  0  0  0  0  0  0
    6.5411  -14.9222   21.7151 O   0  0  0  0  0  0  0  0  0  0  0  0
    4.1383  -21.0921   20.5390 O   0  0  0  0  0  0  0  0  0  0  0  0
    4.9656  -20.3765   21.3676 C   0  0  0  0  0  0  0  0  0  0  0  0
    4.4549  -19.7254   22.4700 C   0  0  0  0  0  0  0  0  0  0  0  0
    5.3602  -19.0249   23.2549 C   0  0  0  0  0  0  0  0  0  0  0  0
    6.6878  -18.9668   22.9748 C   0  0  0  0  0  0  0  0  0  0  0  0
    7.6347  -18.2141   23.8236 C   0  0  0  0  0  0  0  0  0  0  0  0
    7.6755  -16.7375   23.5208 C   0  0  2  0  0  0  0  0  0  0  0  0
    8.1375  -16.4893   22.1654 N   0  0  0  0  0  0  0  0  0  0  0  0
    8.4361  -15.9421   24.5083 C   0  0  0  0  0  0  0  0  0  0  0  0
    9.6615  -15.7256   24.3433 O   0  0  0  0  0  0  0  0  0  0  0  0
    7.1713  -19.6408   21.8462 C   0  0  0  0  0  0  0  0  0  0  0  0
    6.3210  -20.3440   21.0421 C   0  0  0  0  0  0  0  0  0  0  0  0
    6.2834  -11.5086   26.0386 C   0  0  0  0  0  0  0  0  0  0  0  0
    7.3032  -12.5792   25.7320 C   0  0  0  0  0  0  0  0  0  0  0  0
    7.7157  -13.3602   26.9313 C   0  0  2  0  0  0  0  0  0  0  0  0
    8.3266  -12.4627   27.9571 C   0  0  0  0  0  0  0  0  0  0  0  0
    8.5794  -14.5448   26.6225 C   0  0  2  0  0  0  0  0  0  0  0  0
    7.8423  -15.3877   25.6751 N   0  0  0  0  0  0  0  0  0  0  0  0
    8.8395  -15.3705   27.8283 C   0  0  0  0  0  0  0  0  0  0  0  0
    9.7126  -15.0403   28.6921 O   0  0  0  0  0  0  0  0  0  0  0  0
    8.1586  -16.5517   28.1033 O   0  0  0  0  0  0  0  0  0  0  0  0
  2  1  1  6
  2  3  1  0
  3  4  1  0
  4  8  1  0
  4  5  2  0
  5  6  1  0
  7  6  1  0
  8  7  2  0
  9  2  1  0
  9 10  2  0
 11 12  1  0
 12 13  2  0
 13 14  1  0
 15 16  1  0
 15 14  2  0
 17 18  1  0
 17 16  1  1
 18  9  1  0
 19 17  1  0
 20 19  2  0
 21 15  1  0
 22 21  2  0
 22 12  1  0
 23 24  1  0
 25 24  1  0
 25 27  1  0
 25 26  1  1
 27 28  1  6
 28 19  1  0
 29 27  1  0
 29 31  1  0
 30 29  2  0
M  END
$$$$
