HYI.pdb
     RDKit          3D

 31 32  0  0  1  0  0  0  0  0999 V2000
   10.5820  -17.2224   19.4887 N   0  0  0  0  0  0  0  0  0  0  0  0
   11.2851  -17.4918   20.7253 C   0  0  1  0  0  0  0  0  0  0  0  0
   12.7557  -17.3090   20.4529 C   0  0  0  0  0  0  0  0  0  0  0  0
   13.1422  -18.2178   19.3432 C   0  0  0  0  0  0  0  0  0  0  0  0
   13.1275  -19.6004   19.2930 C   0  0  0  0  0  0  0  0  0  0  0  0
   13.5557  -20.0409   18.1025 N   0  0  0  0  0  0  0  0  0  0  0  0
   13.8516  -18.9419   17.3716 C   0  0  0  0  0  0  0  0  0  0  0  0
   13.6053  -17.8548   18.1105 N   0  0  0  0  0  0  0  0  0  0  0  0
   10.8108  -16.6068   21.8219 C   0  0  0  0  0  0  0  0  0  0  0  0
   11.6177  -15.8018   22.3165 O   0  0  0  0  0  0  0  0  0  0  0  0
    5.8032  -12.0591   27.3806 O   0  0  0  0  0  0  0  0  0  0  0  0
    6.2239  -12.9367   26.4132 C   0  0  0  0  0  0  0  0  0  0  0  0
    5.9438  -14.2819   26.5223 C   0  0  0  0  0  0  0  0  0  0  0  0
    6.4057  -15.0997   25.5005 C   0  0  0  0  0  0  0  0  0  0  0  0
    7.1014  -14.6257   24.4349 C   0  0  0  0  0  0  0  0  0  0  0  0
    7.5852  -15.5144   23.3578 C   0  0  0  0  0  0  0  0  0  0  0  0
    9.0573  -15.8278   23.4485 C   0  0  2  0  0  0  0  0  0  0  0  0
    9.4945  -16.6382   22.3241 N   0  0  0  0  0  0  0  0  0  0  0  0
    9.4670  -16.4225   24.7388 C   0  0  0  0  0  0  0  0  0  0  0  0
    9.5589  -17.6681   24.8650 O   0  0  0  0  0  0  0  0  0  0  0  0
    7.3678  -13.2528   24.3571 C   0  0  0  0  0  0  0  0  0  0  0  0
    6.9347  -12.4065   25.3370 C   0  0  0  0  0  0  0  0  0  0  0  0
   11.0887  -12.7184   28.5635 C   0  0  0  0  0  0  0  0  0  0  0  0
   11.1007  -13.8643   27.5802 C   0  0  0  0  0  0  0  0  0  0  0  0
   10.4605  -15.1008   28.1091 C   0  0  2  0  0  0  0  0  0  0  0  0
   11.1272  -15.5374   29.3724 C   0  0  0  0  0  0  0  0  0  0  0  0
   10.3529  -16.2101   27.1079 C   0  0  2  0  0  0  0  0  0  0  0  0
    9.7742  -15.6412   25.8861 N   0  0  0  0  0  0  0  0  0  0  0  0
    9.4344  -17.2827   27.5657 C   0  0  0  0  0  0  0  0  0  0  0  0
    8.1718  -17.1775   27.4545 O   0  0  0  0  0  0  0  0  0  0  0  0
    9.8765  -18.4684   28.1429 O   0  0  0  0  0  0  0  0  0  0  0  0
  2  1  1  6
  2  3  1  0
  3  4  1  0
  4  8  1  0
  4  5  2  0
  5  6  1  0
  7  6  1  0
  8  7  2  0
  9  2  1  0
  9 10  2  0
 11 12  1  0
 12 13  2  0
 13 14  1  0
 15 16  1  0
 15 14  2  0
 17 18  1  0
 17 16  1  1
 18  9  1  0
 19 17  1  0
 20 19  2  0
 21 15  1  0
 22 21  2  0
 22 12  1  0
 23 24  1  0
 25 24  1  0
 25 27  1  0
 25 26  1  1
 27 28  1  6
 28 19  1  0
 29 27  1  0
 29 31  1  0
 30 29  2  0
M  END
$$$$
