HYI.pdb
     RDKit          3D

 31 32  0  0  1  0  0  0  0  0999 V2000
   11.9468  -16.9759   19.7317 N   0  0  0  0  0  0  0  0  0  0  0  0
   10.7923  -17.4812   20.4446 C   0  0  1  0  0  0  0  0  0  0  0  0
   11.1052  -18.8961   20.8571 C   0  0  0  0  0  0  0  0  0  0  0  0
   10.9230  -19.7786   19.6760 C   0  0  0  0  0  0  0  0  0  0  0  0
   11.8635  -20.2525   18.7788 C   0  0  0  0  0  0  0  0  0  0  0  0
   11.2898  -21.0258   17.8474 N   0  0  0  0  0  0  0  0  0  0  0  0
    9.9689  -21.0574   18.1369 C   0  0  0  0  0  0  0  0  0  0  0  0
    9.7494  -20.3142   19.2268 N   0  0  0  0  0  0  0  0  0  0  0  0
   10.4598  -16.6243   21.6134 C   0  0  0  0  0  0  0  0  0  0  0  0
   11.3960  -16.1244   22.2595 O   0  0  0  0  0  0  0  0  0  0  0  0
    6.0914  -11.6160   27.3542 O   0  0  0  0  0  0  0  0  0  0  0  0
    6.3920  -12.4866   26.3369 C   0  0  0  0  0  0  0  0  0  0  0  0
    5.9558  -13.7932   26.3855 C   0  0  0  0  0  0  0  0  0  0  0  0
    6.3036  -14.6066   25.3161 C   0  0  0  0  0  0  0  0  0  0  0  0
    7.0360  -14.1642   24.2616 C   0  0  0  0  0  0  0  0  0  0  0  0
    7.3964  -15.0477   23.1331 C   0  0  0  0  0  0  0  0  0  0  0  0
    8.8191  -15.5443   23.1848 C   0  0  2  0  0  0  0  0  0  0  0  0
    9.1382  -16.3538   22.0207 N   0  0  0  0  0  0  0  0  0  0  0  0
    9.1679  -16.2397   24.4423 C   0  0  0  0  0  0  0  0  0  0  0  0
    9.0195  -17.4819   24.5450 O   0  0  0  0  0  0  0  0  0  0  0  0
    7.4622  -12.8301   24.2459 C   0  0  0  0  0  0  0  0  0  0  0  0
    7.1459  -11.9897   25.2744 C   0  0  0  0  0  0  0  0  0  0  0  0
   11.1494  -12.9434   28.4648 C   0  0  0  0  0  0  0  0  0  0  0  0
   11.1079  -14.0334   27.4207 C   0  0  0  0  0  0  0  0  0  0  0  0
   10.3417  -15.2350   27.8541 C   0  0  2  0  0  0  0  0  0  0  0  0
   10.9321  -15.8128   29.0986 C   0  0  0  0  0  0  0  0  0  0  0  0
   10.1567  -16.2627   26.7799 C   0  0  2  0  0  0  0  0  0  0  0  0
    9.6794  -15.5623   25.5828 N   0  0  0  0  0  0  0  0  0  0  0  0
    9.1203  -17.2620   27.1415 C   0  0  0  0  0  0  0  0  0  0  0  0
    7.8826  -17.0471   26.9424 O   0  0  0  0  0  0  0  0  0  0  0  0
    9.4176  -18.4928   27.7171 O   0  0  0  0  0  0  0  0  0  0  0  0
  2  1  1  1
  2  3  1  0
  3  4  1  0
  4  8  1  0
  4  5  2  0
  5  6  1  0
  7  6  1  0
  8  7  2  0
  9  2  1  0
  9 10  2  0
 11 12  1  0
 12 13  2  0
 13 14  1  0
 15 16  1  0
 15 14  2  0
 17 18  1  0
 17 16  1  1
 18  9  1  0
 19 17  1  0
 20 19  2  0
 21 15  1  0
 22 21  2  0
 22 12  1  0
 23 24  1  0
 25 24  1  0
 25 27  1  0
 25 26  1  1
 27 28  1  6
 28 19  1  0
 29 27  1  0
 29 31  1  0
 30 29  2  0
M  END
$$$$
