HYI.pdb
     RDKit          3D

 31 32  0  0  1  0  0  0  0  0999 V2000
   11.9239  -17.0933   19.5252 N   0  0  0  0  0  0  0  0  0  0  0  0
   11.4943  -17.7878   20.7207 C   0  0  1  0  0  0  0  0  0  0  0  0
   12.6338  -18.6706   21.1591 C   0  0  0  0  0  0  0  0  0  0  0  0
   12.7333  -19.8106   20.2119 C   0  0  0  0  0  0  0  0  0  0  0  0
   11.7310  -20.4783   19.5309 C   0  0  0  0  0  0  0  0  0  0  0  0
   12.2389  -21.4565   18.7694 N   0  0  0  0  0  0  0  0  0  0  0  0
   13.5787  -21.4281   18.9534 C   0  0  0  0  0  0  0  0  0  0  0  0
   13.8742  -20.4473   19.8131 N   0  0  0  0  0  0  0  0  0  0  0  0
   11.0918  -16.8327   21.7868 C   0  0  0  0  0  0  0  0  0  0  0  0
   11.8602  -15.8934   22.0534 O   0  0  0  0  0  0  0  0  0  0  0  0
    6.8547  -13.0790   18.4860 O   0  0  0  0  0  0  0  0  0  0  0  0
    7.1526  -13.6651   19.6905 C   0  0  0  0  0  0  0  0  0  0  0  0
    7.7172  -12.9237   20.7061 C   0  0  0  0  0  0  0  0  0  0  0  0
    7.9867  -13.5937   21.8913 C   0  0  0  0  0  0  0  0  0  0  0  0
    7.7182  -14.9130   22.0694 C   0  0  0  0  0  0  0  0  0  0  0  0
    8.0141  -15.6076   23.3397 C   0  0  0  0  0  0  0  0  0  0  0  0
    9.4678  -15.9726   23.5045 C   0  0  2  0  0  0  0  0  0  0  0  0
    9.8849  -16.9426   22.5058 N   0  0  0  0  0  0  0  0  0  0  0  0
    9.8266  -16.4106   24.8704 C   0  0  0  0  0  0  0  0  0  0  0  0
   10.1729  -17.5974   25.0880 O   0  0  0  0  0  0  0  0  0  0  0  0
    7.1443  -15.6350   21.0153 C   0  0  0  0  0  0  0  0  0  0  0  0
    6.8601  -15.0214   19.8292 C   0  0  0  0  0  0  0  0  0  0  0  0
    9.8275  -12.3408   28.6367 C   0  0  0  0  0  0  0  0  0  0  0  0
   10.3171  -13.4641   27.7544 C   0  0  0  0  0  0  0  0  0  0  0  0
    9.9516  -14.8151   28.2640 C   0  0  2  0  0  0  0  0  0  0  0  0
   10.5227  -15.0339   29.6268 C   0  0  0  0  0  0  0  0  0  0  0  0
   10.2786  -15.9333   27.3221 C   0  0  2  0  0  0  0  0  0  0  0  0
    9.8024  -15.5377   25.9924 N   0  0  0  0  0  0  0  0  0  0  0  0
    9.5702  -17.1869   27.6827 C   0  0  0  0  0  0  0  0  0  0  0  0
   10.0734  -18.0345   28.4866 O   0  0  0  0  0  0  0  0  0  0  0  0
    8.3199  -17.5270   27.1774 O   0  0  0  0  0  0  0  0  0  0  0  0
  2  1  1  6
  2  3  1  0
  3  4  1  0
  4  8  1  0
  4  5  2  0
  5  6  1  0
  7  6  1  0
  8  7  2  0
  9  2  1  0
  9 10  2  0
 11 12  1  0
 12 13  2  0
 13 14  1  0
 15 16  1  0
 15 14  2  0
 17 18  1  0
 17 16  1  1
 18  9  1  0
 19 17  1  0
 20 19  2  0
 21 15  1  0
 22 21  2  0
 22 12  1  0
 23 24  1  0
 25 24  1  0
 25 27  1  0
 25 26  1  1
 27 28  1  6
 28 19  1  0
 29 27  1  0
 29 31  1  0
 30 29  2  0
M  END
$$$$
