HYI.pdb
     RDKit          3D

 31 32  0  0  1  0  0  0  0  0999 V2000
   11.4789  -16.5464   19.2275 N   0  0  0  0  0  0  0  0  0  0  0  0
   10.9793  -17.3431   20.3284 C   0  0  1  0  0  0  0  0  0  0  0  0
   12.0626  -18.3222   20.6999 C   0  0  0  0  0  0  0  0  0  0  0  0
   11.9472  -19.5067   19.8109 C   0  0  0  0  0  0  0  0  0  0  0  0
   12.0927  -19.5935   18.4378 C   0  0  0  0  0  0  0  0  0  0  0  0
   11.9079  -20.8512   18.0151 N   0  0  0  0  0  0  0  0  0  0  0  0
   11.6406  -21.5896   19.1164 C   0  0  0  0  0  0  0  0  0  0  0  0
   11.6638  -20.7889   20.1873 N   0  0  0  0  0  0  0  0  0  0  0  0
   10.5860  -16.4890   21.4801 C   0  0  0  0  0  0  0  0  0  0  0  0
   11.3582  -15.5794   21.8266 O   0  0  0  0  0  0  0  0  0  0  0  0
    5.8579  -12.2164   27.4996 O   0  0  0  0  0  0  0  0  0  0  0  0
    6.2885  -12.9751   26.4403 C   0  0  0  0  0  0  0  0  0  0  0  0
    6.9692  -12.3897   25.3944 C   0  0  0  0  0  0  0  0  0  0  0  0
    7.3690  -13.2288   24.3636 C   0  0  0  0  0  0  0  0  0  0  0  0
    7.1157  -14.5630   24.3593 C   0  0  0  0  0  0  0  0  0  0  0  0
    7.5496  -15.4385   23.2507 C   0  0  0  0  0  0  0  0  0  0  0  0
    9.0050  -15.8263   23.3210 C   0  0  2  0  0  0  0  0  0  0  0  0
    9.3835  -16.6623   22.1940 N   0  0  0  0  0  0  0  0  0  0  0  0
    9.4033  -16.4361   24.6078 C   0  0  0  0  0  0  0  0  0  0  0  0
    9.5519  -17.6788   24.7044 O   0  0  0  0  0  0  0  0  0  0  0  0
    6.4214  -15.1234   25.4390 C   0  0  0  0  0  0  0  0  0  0  0  0
    6.0068  -14.3402   26.4776 C   0  0  0  0  0  0  0  0  0  0  0  0
   10.4233  -12.7873   28.6961 C   0  0  0  0  0  0  0  0  0  0  0  0
   10.6800  -13.8665   27.6717 C   0  0  0  0  0  0  0  0  0  0  0  0
   10.1407  -15.1966   28.0700 C   0  0  2  0  0  0  0  0  0  0  0  0
   10.7519  -15.6467   29.3564 C   0  0  0  0  0  0  0  0  0  0  0  0
   10.2329  -16.2398   26.9987 C   0  0  2  0  0  0  0  0  0  0  0  0
    9.6365  -15.6729   25.7845 N   0  0  0  0  0  0  0  0  0  0  0  0
    9.4522  -17.4554   27.3400 C   0  0  0  0  0  0  0  0  0  0  0  0
    8.2030  -17.5356   27.1148 O   0  0  0  0  0  0  0  0  0  0  0  0
   10.0176  -18.5842   27.9235 O   0  0  0  0  0  0  0  0  0  0  0  0
  2  1  1  6
  2  3  1  0
  3  4  1  0
  4  8  1  0
  4  5  2  0
  5  6  1  0
  7  6  1  0
  8  7  2  0
  9  2  1  0
  9 10  2  0
 11 12  1  0
 12 13  2  0
 13 14  1  0
 15 16  1  0
 15 14  2  0
 17 18  1  0
 17 16  1  1
 18  9  1  0
 19 17  1  0
 20 19  2  0
 21 15  1  0
 22 21  2  0
 22 12  1  0
 23 24  1  0
 25 24  1  0
 25 27  1  0
 25 26  1  1
 27 28  1  6
 28 19  1  0
 29 27  1  0
 29 31  1  0
 30 29  2  0
M  END
$$$$
