HYI.pdb
     RDKit          3D

 31 32  0  0  1  0  0  0  0  0999 V2000
    8.1815  -20.6630   24.1089 N   0  0  0  0  0  0  0  0  0  0  0  0
    9.5642  -20.2614   23.9570 C   0  0  1  0  0  0  0  0  0  0  0  0
   10.2282  -21.2739   23.0603 C   0  0  0  0  0  0  0  0  0  0  0  0
   10.1225  -22.6087   23.7036 C   0  0  0  0  0  0  0  0  0  0  0  0
    9.9637  -22.9311   25.0396 C   0  0  0  0  0  0  0  0  0  0  0  0
    9.9124  -24.2591   25.2090 N   0  0  0  0  0  0  0  0  0  0  0  0
   10.0383  -24.8069   23.9787 C   0  0  0  0  0  0  0  0  0  0  0  0
   10.1636  -23.8238   23.0807 N   0  0  0  0  0  0  0  0  0  0  0  0
    9.6708  -18.8829   23.4101 C   0  0  0  0  0  0  0  0  0  0  0  0
   10.7841  -18.4900   23.0229 O   0  0  0  0  0  0  0  0  0  0  0  0
    7.8362  -11.2771   19.5436 O   0  0  0  0  0  0  0  0  0  0  0  0
    7.7328  -12.4819   20.1922 C   0  0  0  0  0  0  0  0  0  0  0  0
    7.9016  -13.6626   19.5013 C   0  0  0  0  0  0  0  0  0  0  0  0
    7.7805  -14.8358   20.2329 C   0  0  0  0  0  0  0  0  0  0  0  0
    7.5098  -14.8496   21.5637 C   0  0  0  0  0  0  0  0  0  0  0  0
    7.3839  -16.1106   22.3239 C   0  0  0  0  0  0  0  0  0  0  0  0
    8.6969  -16.6321   22.8509 C   0  0  2  0  0  0  0  0  0  0  0  0
    8.5729  -18.0051   23.3109 N   0  0  0  0  0  0  0  0  0  0  0  0
    9.3178  -15.7688   23.8783 C   0  0  0  0  0  0  0  0  0  0  0  0
   10.3263  -15.0744   23.6014 O   0  0  0  0  0  0  0  0  0  0  0  0
    7.3444  -13.6305   22.2332 C   0  0  0  0  0  0  0  0  0  0  0  0
    7.4539  -12.4489   21.5580 C   0  0  0  0  0  0  0  0  0  0  0  0
    6.9118  -11.9778   25.8698 C   0  0  0  0  0  0  0  0  0  0  0  0
    7.9627  -12.9872   25.4735 C   0  0  0  0  0  0  0  0  0  0  0  0
    8.4799  -13.7807   26.6230 C   0  0  2  0  0  0  0  0  0  0  0  0
    9.0101  -12.8773   27.6878 C   0  0  0  0  0  0  0  0  0  0  0  0
    9.4602  -14.8465   26.2388 C   0  0  2  0  0  0  0  0  0  0  0  0
    8.8242  -15.6740   25.2082 N   0  0  0  0  0  0  0  0  0  0  0  0
    9.7809  -15.7417   27.3786 C   0  0  0  0  0  0  0  0  0  0  0  0
    9.0612  -16.7513   27.6620 O   0  0  0  0  0  0  0  0  0  0  0  0
   10.8772  -15.5491   28.2127 O   0  0  0  0  0  0  0  0  0  0  0  0
  2  1  1  6
  2  3  1  0
  3  4  1  0
  4  8  1  0
  4  5  2  0
  5  6  1  0
  7  6  1  0
  8  7  2  0
  9  2  1  0
  9 10  2  0
 11 12  1  0
 12 13  2  0
 13 14  1  0
 15 16  1  0
 15 14  2  0
 17 18  1  0
 17 16  1  1
 18  9  1  0
 19 17  1  0
 20 19  2  0
 21 15  1  0
 22 21  2  0
 22 12  1  0
 23 24  1  0
 25 24  1  0
 25 27  1  0
 25 26  1  1
 27 28  1  6
 28 19  1  0
 29 27  1  0
 29 31  1  0
 30 29  2  0
M  END
$$$$
