HYI.pdb
     RDKit          3D

 31 32  0  0  1  0  0  0  0  0999 V2000
    6.5431  -16.9220   19.4430 N   0  0  0  0  0  0  0  0  0  0  0  0
    7.3308  -16.0395   20.2780 C   0  0  1  0  0  0  0  0  0  0  0  0
    6.8736  -14.6316   19.9971 C   0  0  0  0  0  0  0  0  0  0  0  0
    7.5880  -14.1398   18.7911 C   0  0  0  0  0  0  0  0  0  0  0  0
    8.2840  -12.9593   18.6014 C   0  0  0  0  0  0  0  0  0  0  0  0
    8.7854  -12.8929   17.3609 N   0  0  0  0  0  0  0  0  0  0  0  0
    8.4157  -14.0348   16.7372 C   0  0  0  0  0  0  0  0  0  0  0  0
    7.7019  -14.7786   17.5890 N   0  0  0  0  0  0  0  0  0  0  0  0
    7.1937  -16.3897   21.7165 C   0  0  0  0  0  0  0  0  0  0  0  0
    6.0845  -16.2356   22.2546 O   0  0  0  0  0  0  0  0  0  0  0  0
    8.3639  -19.6179   29.7687 O   0  0  0  0  0  0  0  0  0  0  0  0
    8.4161  -19.3375   28.4264 C   0  0  0  0  0  0  0  0  0  0  0  0
    7.2685  -19.3631   27.6634 C   0  0  0  0  0  0  0  0  0  0  0  0
    7.4098  -19.0674   26.3148 C   0  0  0  0  0  0  0  0  0  0  0  0
    8.6064  -18.7646   25.7484 C   0  0  0  0  0  0  0  0  0  0  0  0
    8.7350  -18.4536   24.3094 C   0  0  0  0  0  0  0  0  0  0  0  0
    8.1521  -17.1170   23.9256 C   0  0  2  0  0  0  0  0  0  0  0  0
    8.2585  -16.8862   22.4946 N   0  0  0  0  0  0  0  0  0  0  0  0
    8.6930  -15.9802   24.7010 C   0  0  0  0  0  0  0  0  0  0  0  0
    9.7973  -15.4683   24.3940 O   0  0  0  0  0  0  0  0  0  0  0  0
    9.7518  -18.7481   26.5544 C   0  0  0  0  0  0  0  0  0  0  0  0
    9.6651  -19.0319   27.8871 C   0  0  0  0  0  0  0  0  0  0  0  0
    5.7575  -11.8259   25.8616 C   0  0  0  0  0  0  0  0  0  0  0  0
    6.9585  -12.7086   25.6198 C   0  0  0  0  0  0  0  0  0  0  0  0
    7.4919  -13.3308   26.8636 C   0  0  2  0  0  0  0  0  0  0  0  0
    7.8885  -12.2795   27.8477 C   0  0  0  0  0  0  0  0  0  0  0  0
    8.5812  -14.3320   26.6282 C   0  0  2  0  0  0  0  0  0  0  0  0
    8.0138  -15.4113   25.8130 N   0  0  0  0  0  0  0  0  0  0  0  0
    9.0533  -14.9457   27.8947 C   0  0  0  0  0  0  0  0  0  0  0  0
    9.8482  -14.3375   28.6795 O   0  0  0  0  0  0  0  0  0  0  0  0
    8.6686  -16.2143   28.3155 O   0  0  0  0  0  0  0  0  0  0  0  0
  2  1  1  6
  2  3  1  0
  3  4  1  0
  4  8  1  0
  4  5  2  0
  5  6  1  0
  7  6  1  0
  8  7  2  0
  9  2  1  0
  9 10  2  0
 11 12  1  0
 12 13  2  0
 13 14  1  0
 15 16  1  0
 15 14  2  0
 17 18  1  0
 17 16  1  6
 18  9  1  0
 19 17  1  0
 20 19  2  0
 21 15  1  0
 22 21  2  0
 22 12  1  0
 23 24  1  0
 25 24  1  0
 25 27  1  0
 25 26  1  1
 27 28  1  6
 28 19  1  0
 29 27  1  0
 29 31  1  0
 30 29  2  0
M  END
$$$$
