HYI.pdb
     RDKit          3D

 31 32  0  0  1  0  0  0  0  0999 V2000
    9.8329  -16.6160   20.3503 N   0  0  0  0  0  0  0  0  0  0  0  0
    9.7841  -15.6175   21.3976 C   0  0  1  0  0  0  0  0  0  0  0  0
    8.4407  -14.9412   21.3088 C   0  0  0  0  0  0  0  0  0  0  0  0
    8.3405  -14.2723   19.9862 C   0  0  0  0  0  0  0  0  0  0  0  0
    9.0034  -13.1535   19.5139 C   0  0  0  0  0  0  0  0  0  0  0  0
    8.6293  -12.8691   18.2594 N   0  0  0  0  0  0  0  0  0  0  0  0
    7.7182  -13.8058   17.9102 C   0  0  0  0  0  0  0  0  0  0  0  0
    7.5454  -14.6426   18.9389 N   0  0  0  0  0  0  0  0  0  0  0  0
   10.0110  -16.2247   22.7357 C   0  0  0  0  0  0  0  0  0  0  0  0
    9.4244  -17.2863   23.0053 O   0  0  0  0  0  0  0  0  0  0  0  0
   11.6865  -16.1921   31.4150 O   0  0  0  0  0  0  0  0  0  0  0  0
   11.6772  -15.9365   30.0668 C   0  0  0  0  0  0  0  0  0  0  0  0
   12.1323  -16.8832   29.1744 C   0  0  0  0  0  0  0  0  0  0  0  0
   12.0883  -16.5440   27.8293 C   0  0  0  0  0  0  0  0  0  0  0  0
   11.6253  -15.3467   27.3862 C   0  0  0  0  0  0  0  0  0  0  0  0
   11.5880  -15.0051   25.9489 C   0  0  0  0  0  0  0  0  0  0  0  0
   10.7310  -15.9359   25.1286 C   0  0  2  0  0  0  0  0  0  0  0  0
   10.8568  -15.6548   23.7083 N   0  0  0  0  0  0  0  0  0  0  0  0
    9.3146  -15.9779   25.5509 C   0  0  0  0  0  0  0  0  0  0  0  0
    8.9126  -16.8646   26.3433 O   0  0  0  0  0  0  0  0  0  0  0  0
   11.1707  -14.4087   28.3218 C   0  0  0  0  0  0  0  0  0  0  0  0
   11.1934  -14.6947   29.6566 C   0  0  0  0  0  0  0  0  0  0  0  0
    6.8876  -11.0828   24.9534 C   0  0  0  0  0  0  0  0  0  0  0  0
    7.3603  -12.3611   25.6035 C   0  0  0  0  0  0  0  0  0  0  0  0
    6.5012  -13.5357   25.2862 C   0  0  2  0  0  0  0  0  0  0  0  0
    5.1020  -13.3042   25.7551 C   0  0  0  0  0  0  0  0  0  0  0  0
    7.0535  -14.8442   25.7631 C   0  0  2  0  0  0  0  0  0  0  0  0
    8.3457  -15.0413   25.0977 N   0  0  0  0  0  0  0  0  0  0  0  0
    6.1867  -15.9856   25.3766 C   0  0  0  0  0  0  0  0  0  0  0  0
    6.3043  -16.5665   24.2513 O   0  0  0  0  0  0  0  0  0  0  0  0
    5.1936  -16.5010   26.2027 O   0  0  0  0  0  0  0  0  0  0  0  0
  2  1  1  6
  2  3  1  0
  3  4  1  0
  4  8  1  0
  4  5  2  0
  5  6  1  0
  7  6  1  0
  8  7  2  0
  9  2  1  0
  9 10  2  0
 11 12  1  0
 12 13  2  0
 13 14  1  0
 15 16  1  0
 15 14  2  0
 17 18  1  0
 17 16  1  1
 18  9  1  0
 19 17  1  0
 20 19  2  0
 21 15  1  0
 22 21  2  0
 22 12  1  0
 23 24  1  0
 25 24  1  0
 25 27  1  0
 25 26  1  1
 27 28  1  6
 28 19  1  0
 29 27  1  0
 29 31  1  0
 30 29  2  0
M  END
$$$$
