HYI.pdb
     RDKit          3D

 31 32  0  0  1  0  0  0  0  0999 V2000
    8.1504  -17.4034   19.3191 N   0  0  0  0  0  0  0  0  0  0  0  0
    8.4866  -16.2892   20.1804 C   0  0  1  0  0  0  0  0  0  0  0  0
    7.4166  -15.2441   19.9981 C   0  0  0  0  0  0  0  0  0  0  0  0
    7.8047  -14.3710   18.8607 C   0  0  0  0  0  0  0  0  0  0  0  0
    8.9026  -14.4540   18.0229 C   0  0  0  0  0  0  0  0  0  0  0  0
    8.8888  -13.4678   17.1163 N   0  0  0  0  0  0  0  0  0  0  0  0
    7.7775  -12.7372   17.3625 C   0  0  0  0  0  0  0  0  0  0  0  0
    7.1307  -13.2749   18.4022 N   0  0  0  0  0  0  0  0  0  0  0  0
    8.6059  -16.7181   21.5990 C   0  0  0  0  0  0  0  0  0  0  0  0
    7.6232  -17.2595   22.1327 O   0  0  0  0  0  0  0  0  0  0  0  0
    9.7779  -22.9795   21.8320 O   0  0  0  0  0  0  0  0  0  0  0  0
   10.0876  -21.7356   22.3219 C   0  0  0  0  0  0  0  0  0  0  0  0
   10.7778  -20.8315   21.5435 C   0  0  0  0  0  0  0  0  0  0  0  0
   11.0501  -19.5966   22.1155 C   0  0  0  0  0  0  0  0  0  0  0  0
   10.6679  -19.2684   23.3767 C   0  0  0  0  0  0  0  0  0  0  0  0
   10.9691  -17.9477   23.9672 C   0  0  0  0  0  0  0  0  0  0  0  0
    9.8764  -16.9296   23.7597 C   0  0  2  0  0  0  0  0  0  0  0  0
    9.7764  -16.5400   22.3631 N   0  0  0  0  0  0  0  0  0  0  0  0
    9.9766  -15.7509   24.6468 C   0  0  0  0  0  0  0  0  0  0  0  0
   10.7964  -14.8338   24.3967 O   0  0  0  0  0  0  0  0  0  0  0  0
    9.9680  -20.2124   24.1388 C   0  0  0  0  0  0  0  0  0  0  0  0
    9.6757  -21.4415   23.6212 C   0  0  0  0  0  0  0  0  0  0  0  0
    5.9926  -12.7919   25.9109 C   0  0  0  0  0  0  0  0  0  0  0  0
    7.3761  -13.3586   25.6990 C   0  0  0  0  0  0  0  0  0  0  0  0
    8.0128  -13.8429   26.9555 C   0  0  2  0  0  0  0  0  0  0  0  0
    8.0492  -12.7549   27.9783 C   0  0  0  0  0  0  0  0  0  0  0  0
    9.3526  -14.4827   26.7552 C   0  0  2  0  0  0  0  0  0  0  0  0
    9.1718  -15.5874   25.8073 N   0  0  0  0  0  0  0  0  0  0  0  0
    9.8799  -15.0702   28.0123 C   0  0  0  0  0  0  0  0  0  0  0  0
    9.6192  -16.2670   28.3546 O   0  0  0  0  0  0  0  0  0  0  0  0
   10.6880  -14.3681   28.9002 O   0  0  0  0  0  0  0  0  0  0  0  0
  2  1  1  6
  2  3  1  0
  3  4  1  0
  4  8  1  0
  4  5  2  0
  5  6  1  0
  7  6  1  0
  8  7  2  0
  9  2  1  0
  9 10  2  0
 11 12  1  0
 12 13  2  0
 13 14  1  0
 15 16  1  0
 15 14  2  0
 17 18  1  0
 17 16  1  6
 18  9  1  0
 19 17  1  0
 20 19  2  0
 21 15  1  0
 22 21  2  0
 22 12  1  0
 23 24  1  0
 25 24  1  0
 25 27  1  0
 25 26  1  1
 27 28  1  6
 28 19  1  0
 29 27  1  0
 29 31  1  0
 30 29  2  0
M  END
$$$$
