RRF.pdb
     RDKit          3D

 34 34  0  0  1  0  0  0  0  0999 V2000
   30.7459  -25.5858  -16.1411 N   0  0  0  0  0  0  0  0  0  0  0  0
   29.6246  -26.2102  -16.7700 C   0  0  0  0  0  0  0  0  0  0  0  0
   29.4778  -27.4698  -16.5764 N   0  0  0  0  0  0  0  0  0  0  0  0
   28.7531  -25.4276  -17.5573 N   0  0  0  0  0  0  0  0  0  0  0  0
   28.4415  -24.0576  -17.1153 C   0  0  0  0  0  0  0  0  0  0  0  0
   29.4282  -23.6902  -16.0654 C   0  0  0  0  0  0  0  0  0  0  0  0
   29.1297  -22.3862  -15.4176 C   0  0  0  0  0  0  0  0  0  0  0  0
   28.5479  -21.3315  -16.3045 C   0  0  2  0  0  0  0  0  0  0  0  0
   29.4835  -20.4251  -16.8784 N   0  0  0  0  0  0  0  0  0  0  0  0
   27.5095  -20.6034  -15.5141 C   0  0  0  0  0  0  0  0  0  0  0  0
   27.8832  -19.7519  -14.6832 O   0  0  0  0  0  0  0  0  0  0  0  0
   28.7247  -28.0291  -16.9967 N   0  0  0  0  0  0  0  0  0  0  0  0
   19.0919  -17.8223  -13.3090 C   0  0  0  0  0  0  0  0  0  0  0  0
   19.5632  -17.9041  -14.6493 N   0  0  0  0  0  0  0  0  0  0  0  0
   18.7815  -18.2402  -15.6202 N   0  0  0  0  0  0  0  0  0  0  0  0
   20.9106  -17.6214  -15.0020 C   0  0  0  0  0  0  0  0  0  0  0  0
   21.7185  -18.5912  -15.6735 C   0  0  0  0  0  0  0  0  0  0  0  0
   22.9994  -18.8980  -14.9257 C   0  0  0  0  0  0  0  0  0  0  0  0
   23.9849  -19.6444  -15.7778 C   0  0  1  0  0  0  0  0  0  0  0  0
   25.1449  -20.1024  -14.9629 N   0  0  0  0  0  0  0  0  0  0  0  0
   26.1325  -20.8564  -15.6859 C   0  0  0  0  0  0  0  0  0  0  0  0
   24.6734  -20.8687  -13.7493 O   0  0  0  0  0  0  0  0  0  0  0  0
   24.1859  -22.0248  -13.8385 N   0  0  0  0  0  0  0  0  0  0  0  0
   19.2215  -18.3988  -16.5538 C   0  0  1  0  0  0  0  0  0  0  0  0
   24.7649  -20.3036  -12.4482 C   0  0  0  0  0  0  0  0  0  0  0  0
   24.2743  -20.9982  -11.2806 C   0  0  0  0  0  0  0  0  0  0  0  0
   24.6868  -20.3110  -10.0011 C   0  0  0  0  0  0  0  0  0  0  0  0
   26.1584  -20.2633   -9.8461 C   0  0  0  0  0  0  0  0  0  0  0  0
   26.7189  -19.1593   -9.2377 C   0  0  0  0  0  0  0  0  0  0  0  0
   28.0800  -19.0319   -9.0466 C   0  0  0  0  0  0  0  0  0  0  0  0
   28.8758  -20.0871   -9.5038 C   0  0  0  0  0  0  0  0  0  0  0  0
   28.3146  -21.1893  -10.1115 C   0  0  0  0  0  0  0  0  0  0  0  0
   26.9465  -21.2970  -10.2933 O   0  0  0  0  0  0  0  0  0  0  0  0
   22.8021  -21.1763  -11.3681 O   0  0  0  0  0  0  0  0  0  0  0  0
  2  1  1  0
  2  3  2  0
  4  2  1  0
  5  4  1  0
  6  5  1  0
  7  8  1  0
  7  6  1  0
  8  9  1  1
 10 20  1  0
 10  8  1  0
 11 10  2  0
 13 12  1  0
 14 13  2  0
 15 13  1  0
 16 15  1  0
 17 18  1  0
 17 16  1  0
 19 18  1  6
 19 21  1  0
 19 20  1  0
 21 22  2  0
 23 24  1  0
 23 21  1  0
 24 25  1  1
 25 26  1  0
 26 31  2  0
 27 26  1  0
 27 28  2  0
 28 29  1  0
 29 30  2  0
 31 30  1  0
 32 24  1  0
 33 32  1  0
 34 32  2  0
M  END
$$$$
