RRF.pdb
     RDKit          3D

 34 34  0  0  1  0  0  0  0  0999 V2000
   25.8039  -17.3625  -15.9065 N   0  0  0  0  0  0  0  0  0  0  0  0
   24.9446  -17.4048  -17.0478 C   0  0  0  0  0  0  0  0  0  0  0  0
   24.6915  -16.2878  -17.6255 N   0  0  0  0  0  0  0  0  0  0  0  0
   24.4266  -18.6467  -17.4736 N   0  0  0  0  0  0  0  0  0  0  0  0
   25.0185  -19.8815  -16.9310 C   0  0  0  0  0  0  0  0  0  0  0  0
   26.3631  -20.0413  -17.5454 C   0  0  0  0  0  0  0  0  0  0  0  0
   27.4490  -20.1803  -16.5401 C   0  0  0  0  0  0  0  0  0  0  0  0
   27.7131  -21.5679  -16.0479 C   0  0  2  0  0  0  0  0  0  0  0  0
   27.3072  -22.6176  -16.9194 N   0  0  0  0  0  0  0  0  0  0  0  0
   27.0637  -21.6999  -14.7085 C   0  0  0  0  0  0  0  0  0  0  0  0
   26.0846  -22.4638  -14.5949 O   0  0  0  0  0  0  0  0  0  0  0  0
   24.0661  -16.1916  -18.4356 N   0  0  0  0  0  0  0  0  0  0  0  0
   32.5903  -21.3110   -9.3938 C   0  0  0  0  0  0  0  0  0  0  0  0
   32.1187  -22.1951  -10.4045 N   0  0  0  0  0  0  0  0  0  0  0  0
   32.9290  -22.9311  -11.0889 N   0  0  0  0  0  0  0  0  0  0  0  0
   30.7392  -22.3252  -10.7203 C   0  0  0  0  0  0  0  0  0  0  0  0
   29.7588  -21.4792  -10.1145 C   0  0  0  0  0  0  0  0  0  0  0  0
   28.3486  -21.8212  -10.5488 C   0  0  0  0  0  0  0  0  0  0  0  0
   27.6393  -20.6388  -11.1434 C   0  0  2  0  0  0  0  0  0  0  0  0
   26.8335  -21.0489  -12.3274 N   0  0  0  0  0  0  0  0  0  0  0  0
   27.5294  -20.9870  -13.5838 C   0  0  0  0  0  0  0  0  0  0  0  0
   25.5454  -20.2624  -12.3929 O   0  0  0  0  0  0  0  0  0  0  0  0
   25.4187  -19.2502  -13.1289 N   0  0  0  0  0  0  0  0  0  0  0  0
   32.5116  -23.5420  -11.8258 C   0  0  1  0  0  0  0  0  0  0  0  0
   24.4176  -20.6427  -11.6158 C   0  0  0  0  0  0  0  0  0  0  0  0
   23.0752  -20.2554  -11.9825 C   0  0  0  0  0  0  0  0  0  0  0  0
   22.7159  -20.7163  -13.3747 C   0  0  0  0  0  0  0  0  0  0  0  0
   21.3330  -20.3387  -13.7448 C   0  0  0  0  0  0  0  0  0  0  0  0
   20.3404  -21.2900  -13.6324 C   0  0  0  0  0  0  0  0  0  0  0  0
   19.0235  -21.0255  -13.9502 C   0  0  0  0  0  0  0  0  0  0  0  0
   18.7372  -19.7317  -14.3973 C   0  0  0  0  0  0  0  0  0  0  0  0
   19.7298  -18.7823  -14.5093 C   0  0  0  0  0  0  0  0  0  0  0  0
   21.0448  -19.0687  -14.1852 O   0  0  0  0  0  0  0  0  0  0  0  0
   22.1043  -20.7389  -10.9674 O   0  0  0  0  0  0  0  0  0  0  0  0
  2  1  1  0
  2  3  2  0
  4  2  1  0
  5  4  1  0
  6  5  1  0
  7  8  1  0
  7  6  1  0
  8  9  1  6
 10 20  1  0
 10  8  1  0
 11 10  2  0
 13 12  1  0
 14 13  2  0
 15 13  1  0
 16 15  1  0
 17 18  1  0
 17 16  1  0
 19 18  1  1
 19 21  1  0
 19 20  1  0
 21 22  2  0
 23 24  1  0
 23 21  1  0
 24 25  1  1
 25 26  1  0
 26 31  2  0
 27 26  1  0
 27 28  2  0
 28 29  1  0
 29 30  2  0
 31 30  1  0
 32 24  1  0
 33 32  1  0
 34 32  2  0
M  END
$$$$
