RRF.pdb
     RDKit          3D

 34 34  0  0  1  0  0  0  0  0999 V2000
   42.7293  -10.8058   -9.1759 N   0  0  0  0  0  0  0  0  0  0  0  0
   42.4122  -12.1980   -9.1118 C   0  0  0  0  0  0  0  0  0  0  0  0
   41.2175  -12.5365   -9.4334 N   0  0  0  0  0  0  0  0  0  0  0  0
   43.4074  -13.1125   -8.7053 N   0  0  0  0  0  0  0  0  0  0  0  0
   44.7812  -12.6192   -8.5091 C   0  0  0  0  0  0  0  0  0  0  0  0
   45.6697  -13.8051   -8.3852 C   0  0  0  0  0  0  0  0  0  0  0  0
   45.7592  -14.3219   -6.9945 C   0  0  0  0  0  0  0  0  0  0  0  0
   47.0698  -14.9273   -6.6032 C   0  0  2  0  0  0  0  0  0  0  0  0
   48.1963  -14.0609   -6.6833 N   0  0  0  0  0  0  0  0  0  0  0  0
   47.2691  -16.1471   -7.4432 C   0  0  0  0  0  0  0  0  0  0  0  0
   48.0781  -16.0912   -8.3906 O   0  0  0  0  0  0  0  0  0  0  0  0
   40.8780  -13.5067   -9.4324 N   0  0  0  0  0  0  0  0  0  0  0  0
   45.2199  -24.5464   -5.9852 C   0  0  0  0  0  0  0  0  0  0  0  0
   45.2397  -23.2276   -5.4506 N   0  0  0  0  0  0  0  0  0  0  0  0
   44.7651  -22.9673   -4.2786 N   0  0  0  0  0  0  0  0  0  0  0  0
   45.7803  -22.1239   -6.1645 C   0  0  0  0  0  0  0  0  0  0  0  0
   46.3629  -22.2941   -7.4589 C   0  0  0  0  0  0  0  0  0  0  0  0
   46.9003  -20.9978   -8.0287 C   0  0  0  0  0  0  0  0  0  0  0  0
   46.3190  -19.7958   -7.3417 C   0  0  2  0  0  0  0  0  0  0  0  0
   46.8486  -18.5391   -7.9413 N   0  0  0  0  0  0  0  0  0  0  0  0
   46.5695  -17.3456   -7.1901 C   0  0  0  0  0  0  0  0  0  0  0  0
   46.3786  -18.3914   -9.3694 O   0  0  0  0  0  0  0  0  0  0  0  0
   46.7957  -19.1405  -10.2896 N   0  0  0  0  0  0  0  0  0  0  0  0
   44.8435  -21.9825   -3.9402 C   0  0  1  0  0  0  0  0  0  0  0  0
   45.4372  -17.3885   -9.7280 C   0  0  0  0  0  0  0  0  0  0  0  0
   44.8433  -17.3380  -11.0438 C   0  0  0  0  0  0  0  0  0  0  0  0
   43.3418  -17.4881  -10.9906 C   0  0  0  0  0  0  0  0  0  0  0  0
   42.9346  -18.8281  -10.5102 C   0  0  0  0  0  0  0  0  0  0  0  0
   42.8864  -19.8646  -11.4193 C   0  0  0  0  0  0  0  0  0  0  0  0
   42.5229  -21.1468  -11.0599 C   0  0  0  0  0  0  0  0  0  0  0  0
   42.2014  -21.3502   -9.7142 C   0  0  0  0  0  0  0  0  0  0  0  0
   42.2499  -20.3138   -8.8071 C   0  0  0  0  0  0  0  0  0  0  0  0
   42.6172  -19.0349   -9.1888 O   0  0  0  0  0  0  0  0  0  0  0  0
   45.2546  -16.0958  -11.7471 O   0  0  0  0  0  0  0  0  0  0  0  0
  2  1  1  0
  2  3  2  0
  4  2  1  0
  5  4  1  0
  6  5  1  0
  7  8  1  0
  7  6  1  0
  8  9  1  6
 10 20  1  0
 10  8  1  0
 11 10  2  0
 13 12  1  0
 14 13  2  0
 15 13  1  0
 16 15  1  0
 17 18  1  0
 17 16  1  0
 19 18  1  1
 19 21  1  0
 19 20  1  0
 21 22  2  0
 23 24  1  0
 23 21  1  0
 24 25  1  1
 25 26  1  0
 26 31  2  0
 27 26  1  0
 27 28  2  0
 28 29  1  0
 29 30  2  0
 31 30  1  0
 32 24  1  0
 33 32  1  0
 34 32  2  0
M  END
$$$$
