RRF.pdb
     RDKit          3D

 34 34  0  0  1  0  0  0  0  0999 V2000
   24.3927  -15.0515  -16.8137 N   0  0  0  0  0  0  0  0  0  0  0  0
   25.2494  -15.7652  -17.7079 C   0  0  0  0  0  0  0  0  0  0  0  0
   25.0091  -15.6446  -18.9621 N   0  0  0  0  0  0  0  0  0  0  0  0
   26.2947  -16.5520  -17.1785 N   0  0  0  0  0  0  0  0  0  0  0  0
   26.4829  -16.5849  -15.7180 C   0  0  0  0  0  0  0  0  0  0  0  0
   27.7271  -17.3515  -15.4439 C   0  0  0  0  0  0  0  0  0  0  0  0
   27.8727  -18.5522  -16.3078 C   0  0  0  0  0  0  0  0  0  0  0  0
   28.1537  -19.8393  -15.5995 C   0  0  2  0  0  0  0  0  0  0  0  0
   28.6066  -20.9087  -16.4226 N   0  0  0  0  0  0  0  0  0  0  0  0
   26.9155  -20.2213  -14.8550 C   0  0  0  0  0  0  0  0  0  0  0  0
   25.8092  -19.9842  -15.3795 O   0  0  0  0  0  0  0  0  0  0  0  0
   25.5837  -16.0736  -19.6985 N   0  0  0  0  0  0  0  0  0  0  0  0
   23.2917  -23.5600  -17.2200 C   0  0  0  0  0  0  0  0  0  0  0  0
   22.9968  -24.2246  -15.9966 N   0  0  0  0  0  0  0  0  0  0  0  0
   21.8142  -24.6754  -15.7416 N   0  0  0  0  0  0  0  0  0  0  0  0
   23.9759  -24.4349  -14.9882 C   0  0  0  0  0  0  0  0  0  0  0  0
   25.3720  -24.3422  -15.2820 C   0  0  0  0  0  0  0  0  0  0  0  0
   26.0305  -23.1582  -14.6049 C   0  0  0  0  0  0  0  0  0  0  0  0
   25.0725  -22.4061  -13.7266 C   0  0  1  0  0  0  0  0  0  0  0  0
   25.7835  -21.3465  -12.9580 N   0  0  0  0  0  0  0  0  0  0  0  0
   26.9714  -20.8365  -13.5869 C   0  0  0  0  0  0  0  0  0  0  0  0
   26.0846  -21.8181  -11.5547 O   0  0  0  0  0  0  0  0  0  0  0  0
   26.1994  -23.0383  -11.2715 N   0  0  0  0  0  0  0  0  0  0  0  0
   21.6975  -25.2439  -14.8735 C   0  0  2  0  0  0  0  0  0  0  0  0
   26.2507  -20.8887  -10.4921 C   0  0  0  0  0  0  0  0  0  0  0  0
   25.3826  -20.8897   -9.3376 C   0  0  0  0  0  0  0  0  0  0  0  0
   25.6361  -19.7019   -8.4406 C   0  0  0  0  0  0  0  0  0  0  0  0
   27.0029  -19.7175   -7.8718 C   0  0  0  0  0  0  0  0  0  0  0  0
   27.2484  -18.9788   -6.7330 C   0  0  0  0  0  0  0  0  0  0  0  0
   28.4900  -18.9385   -6.1313 C   0  0  0  0  0  0  0  0  0  0  0  0
   29.5015  -19.6908   -6.7366 C   0  0  0  0  0  0  0  0  0  0  0  0
   29.2549  -20.4283   -7.8745 C   0  0  0  0  0  0  0  0  0  0  0  0
   28.0018  -20.4548   -8.4620 O   0  0  0  0  0  0  0  0  0  0  0  0
   23.9615  -20.9744   -9.7620 O   0  0  0  0  0  0  0  0  0  0  0  0
  2  1  1  0
  2  3  2  0
  4  2  1  0
  5  4  1  0
  6  5  1  0
  7  8  1  0
  7  6  1  0
  8  9  1  6
 10 20  1  0
 10  8  1  0
 11 10  2  0
 13 12  1  0
 14 13  2  0
 15 13  1  0
 16 15  1  0
 17 18  1  0
 17 16  1  0
 19 18  1  6
 19 21  1  0
 19 20  1  0
 21 22  2  0
 23 24  1  0
 23 21  1  0
 24 25  1  1
 25 26  1  0
 26 31  2  0
 27 26  1  0
 27 28  2  0
 28 29  1  0
 29 30  2  0
 31 30  1  0
 32 24  1  0
 33 32  1  0
 34 32  2  0
M  END
$$$$
