RRF.pdb
     RDKit          3D

 34 34  0  0  1  0  0  0  0  0999 V2000
   27.8090  -26.8051  -16.4633 N   0  0  0  0  0  0  0  0  0  0  0  0
   27.6488  -25.9437  -17.5925 C   0  0  0  0  0  0  0  0  0  0  0  0
   28.0351  -26.3977  -18.7282 N   0  0  0  0  0  0  0  0  0  0  0  0
   27.0864  -24.6626  -17.4065 N   0  0  0  0  0  0  0  0  0  0  0  0
   26.5149  -24.3271  -16.0912 C   0  0  0  0  0  0  0  0  0  0  0  0
   26.0189  -22.9271  -16.1621 C   0  0  0  0  0  0  0  0  0  0  0  0
   24.5976  -22.7920  -15.7488 C   0  0  0  0  0  0  0  0  0  0  0  0
   23.5784  -23.2215  -16.7558 C   0  0  2  0  0  0  0  0  0  0  0  0
   23.3010  -22.2830  -17.7895 N   0  0  0  0  0  0  0  0  0  0  0  0
   22.3350  -23.5825  -16.0097 C   0  0  0  0  0  0  0  0  0  0  0  0
   21.4703  -22.7014  -15.8331 O   0  0  0  0  0  0  0  0  0  0  0  0
   27.9480  -25.8789  -19.6113 N   0  0  0  0  0  0  0  0  0  0  0  0
   19.7248  -28.1949  -10.3203 C   0  0  0  0  0  0  0  0  0  0  0  0
   18.4450  -28.3990  -10.9082 N   0  0  0  0  0  0  0  0  0  0  0  0
   17.3794  -28.5008  -10.1864 N   0  0  0  0  0  0  0  0  0  0  0  0
   18.2591  -28.5005  -12.3135 C   0  0  0  0  0  0  0  0  0  0  0  0
   19.3482  -28.3075  -13.2194 C   0  0  0  0  0  0  0  0  0  0  0  0
   19.6855  -26.8444  -13.4186 C   0  0  0  0  0  0  0  0  0  0  0  0
   20.7645  -26.6490  -14.4444 C   0  0  1  0  0  0  0  0  0  0  0  0
   20.9366  -25.2030  -14.7587 N   0  0  0  0  0  0  0  0  0  0  0  0
   22.1217  -24.8831  -15.5068 C   0  0  0  0  0  0  0  0  0  0  0  0
   20.8615  -24.3720  -13.4993 O   0  0  0  0  0  0  0  0  0  0  0  0
   21.8430  -24.2481  -12.7226 N   0  0  0  0  0  0  0  0  0  0  0  0
   16.4820  -28.6915  -10.6852 C   0  0  2  0  0  0  0  0  0  0  0  0
   19.6646  -23.6927  -13.1433 C   0  0  0  0  0  0  0  0  0  0  0  0
   19.6704  -22.5598  -12.2472 C   0  0  0  0  0  0  0  0  0  0  0  0
   20.6632  -21.5064  -12.6767 C   0  0  0  0  0  0  0  0  0  0  0  0
   20.6443  -20.3277  -11.7810 C   0  0  0  0  0  0  0  0  0  0  0  0
   21.4270  -20.3537  -10.6453 C   0  0  0  0  0  0  0  0  0  0  0  0
   21.4756  -19.2987   -9.7566 C   0  0  0  0  0  0  0  0  0  0  0  0
   20.6847  -18.1871  -10.0638 C   0  0  0  0  0  0  0  0  0  0  0  0
   19.9030  -18.1625  -11.1986 C   0  0  0  0  0  0  0  0  0  0  0  0
   19.8690  -19.2318  -12.0770 O   0  0  0  0  0  0  0  0  0  0  0  0
   18.2984  -22.0080  -12.1060 O   0  0  0  0  0  0  0  0  0  0  0  0
  2  1  1  0
  2  3  2  0
  4  2  1  0
  5  4  1  0
  6  5  1  0
  7  8  1  0
  7  6  1  0
  8  9  1  6
 10 20  1  0
 10  8  1  0
 11 10  2  0
 13 12  1  0
 14 13  2  0
 15 13  1  0
 16 15  1  0
 17 18  1  0
 17 16  1  0
 19 18  1  6
 19 21  1  0
 19 20  1  0
 21 22  2  0
 23 24  1  0
 23 21  1  0
 24 25  1  1
 25 26  1  0
 26 31  2  0
 27 26  1  0
 27 28  2  0
 28 29  1  0
 29 30  2  0
 31 30  1  0
 32 24  1  0
 33 32  1  0
 34 32  2  0
M  END
$$$$
