RRF.pdb
     RDKit          3D

 34 34  0  0  1  0  0  0  0  0999 V2000
   18.1759  -17.8774  -13.1951 N   0  0  0  0  0  0  0  0  0  0  0  0
   18.1307  -16.8612  -14.1992 C   0  0  0  0  0  0  0  0  0  0  0  0
   16.9695  -16.4510  -14.5580 N   0  0  0  0  0  0  0  0  0  0  0  0
   19.3400  -16.3700  -14.7361 N   0  0  0  0  0  0  0  0  0  0  0  0
   20.5928  -17.0738  -14.4130 C   0  0  0  0  0  0  0  0  0  0  0  0
   20.6550  -18.2916  -15.2639 C   0  0  0  0  0  0  0  0  0  0  0  0
   20.7675  -19.5467  -14.4758 C   0  0  0  0  0  0  0  0  0  0  0  0
   20.8111  -20.8156  -15.2665 C   0  0  2  0  0  0  0  0  0  0  0  0
   19.7057  -21.6934  -15.0830 N   0  0  0  0  0  0  0  0  0  0  0  0
   22.1001  -21.5002  -14.9453 C   0  0  0  0  0  0  0  0  0  0  0  0
   22.1767  -22.1588  -13.8892 O   0  0  0  0  0  0  0  0  0  0  0  0
   16.8140  -15.6578  -15.1930 N   0  0  0  0  0  0  0  0  0  0  0  0
   29.2646  -23.4182  -17.2345 C   0  0  0  0  0  0  0  0  0  0  0  0
   29.0541  -24.6421  -16.5396 N   0  0  0  0  0  0  0  0  0  0  0  0
   30.0399  -25.3246  -16.0610 N   0  0  0  0  0  0  0  0  0  0  0  0
   27.7578  -25.1851  -16.3277 C   0  0  0  0  0  0  0  0  0  0  0  0
   26.5819  -24.4455  -16.6658 C   0  0  0  0  0  0  0  0  0  0  0  0
   26.6062  -23.0338  -16.1175 C   0  0  0  0  0  0  0  0  0  0  0  0
   25.4176  -22.2338  -16.5668 C   0  0  2  0  0  0  0  0  0  0  0  0
   24.4775  -22.0059  -15.4339 N   0  0  0  0  0  0  0  0  0  0  0  0
   23.2183  -21.4176  -15.8013 C   0  0  0  0  0  0  0  0  0  0  0  0
   25.1436  -21.2001  -14.3434 O   0  0  0  0  0  0  0  0  0  0  0  0
   25.2477  -19.9483  -14.4081 N   0  0  0  0  0  0  0  0  0  0  0  0
   29.8075  -26.2098  -15.5581 C   0  0  2  0  0  0  0  0  0  0  0  0
   25.6828  -21.8356  -13.1919 C   0  0  0  0  0  0  0  0  0  0  0  0
   26.5039  -21.1208  -12.2425 C   0  0  0  0  0  0  0  0  0  0  0  0
   26.6106  -21.8525  -10.9261 C   0  0  0  0  0  0  0  0  0  0  0  0
   27.3222  -21.0534   -9.9029 C   0  0  0  0  0  0  0  0  0  0  0  0
   28.6891  -21.2003   -9.7891 C   0  0  0  0  0  0  0  0  0  0  0  0
   29.4346  -20.4929   -8.8676 C   0  0  0  0  0  0  0  0  0  0  0  0
   28.7317  -19.6084   -8.0433 C   0  0  0  0  0  0  0  0  0  0  0  0
   27.3661  -19.4628   -8.1579 C   0  0  0  0  0  0  0  0  0  0  0  0
   26.6374  -20.1823   -9.0894 O   0  0  0  0  0  0  0  0  0  0  0  0
   27.8377  -20.8327  -12.8296 O   0  0  0  0  0  0  0  0  0  0  0  0
  2  1  1  0
  2  3  2  0
  4  2  1  0
  5  4  1  0
  6  5  1  0
  7  8  1  0
  7  6  1  0
  8  9  1  1
 10 20  1  0
 10  8  1  0
 11 10  2  0
 13 12  1  0
 14 13  2  0
 15 13  1  0
 16 15  1  0
 17 18  1  0
 17 16  1  0
 19 18  1  6
 19 21  1  0
 19 20  1  0
 21 22  2  0
 23 24  1  0
 23 21  1  0
 24 25  1  6
 25 26  1  0
 26 31  2  0
 27 26  1  0
 27 28  2  0
 28 29  1  0
 29 30  2  0
 31 30  1  0
 32 24  1  0
 33 32  1  0
 34 32  2  0
M  END
$$$$
