RRF.pdb
     RDKit          3D

 34 34  0  0  1  0  0  0  0  0999 V2000
   27.4493  -37.9567  -17.5056 N   0  0  0  0  0  0  0  0  0  0  0  0
   28.3880  -37.0926  -18.1497 C   0  0  0  0  0  0  0  0  0  0  0  0
   28.6618  -37.3450  -19.3772 N   0  0  0  0  0  0  0  0  0  0  0  0
   28.9566  -36.0273  -17.4190 N   0  0  0  0  0  0  0  0  0  0  0  0
   28.4092  -35.7130  -16.0883 C   0  0  0  0  0  0  0  0  0  0  0  0
   29.2181  -34.6011  -15.5222 C   0  0  0  0  0  0  0  0  0  0  0  0
   28.7477  -34.1636  -14.1819 C   0  0  0  0  0  0  0  0  0  0  0  0
   27.4832  -33.3650  -14.1594 C   0  0  2  0  0  0  0  0  0  0  0  0
   27.5327  -32.1146  -14.8380 N   0  0  0  0  0  0  0  0  0  0  0  0
   27.0918  -33.1848  -12.7285 C   0  0  0  0  0  0  0  0  0  0  0  0
   27.6800  -32.3149  -12.0559 O   0  0  0  0  0  0  0  0  0  0  0  0
   29.3234  -36.7957  -19.9403 N   0  0  0  0  0  0  0  0  0  0  0  0
   20.0279  -32.6793  -12.9121 C   0  0  0  0  0  0  0  0  0  0  0  0
   21.0355  -33.6843  -12.9271 N   0  0  0  0  0  0  0  0  0  0  0  0
   21.2595  -34.3996  -13.9782 N   0  0  0  0  0  0  0  0  0  0  0  0
   21.8532  -33.9607  -11.7980 C   0  0  0  0  0  0  0  0  0  0  0  0
   22.7893  -32.9970  -11.3092 C   0  0  0  0  0  0  0  0  0  0  0  0
   23.4735  -33.4466  -10.0349 C   0  0  0  0  0  0  0  0  0  0  0  0
   24.5189  -34.4927  -10.2950 C   0  0  2  0  0  0  0  0  0  0  0  0
   25.7987  -33.8628  -10.7248 N   0  0  0  0  0  0  0  0  0  0  0  0
   26.0835  -33.9690  -12.1299 C   0  0  0  0  0  0  0  0  0  0  0  0
   26.9532  -34.3910   -9.9061 O   0  0  0  0  0  0  0  0  0  0  0  0
   27.6126  -35.4027  -10.2581 N   0  0  0  0  0  0  0  0  0  0  0  0
   21.9512  -35.1767  -13.8877 C   0  0  1  0  0  0  0  0  0  0  0  0
   27.3398  -33.7560   -8.6945 C   0  0  0  0  0  0  0  0  0  0  0  0
   28.4816  -34.2035   -7.9315 C   0  0  0  0  0  0  0  0  0  0  0  0
   29.3425  -33.0498   -7.4759 C   0  0  0  0  0  0  0  0  0  0  0  0
   30.4922  -33.5031   -6.6607 C   0  0  0  0  0  0  0  0  0  0  0  0
   30.3083  -33.6744   -5.3043 C   0  0  0  0  0  0  0  0  0  0  0  0
   31.3217  -34.0985   -4.4685 C   0  0  0  0  0  0  0  0  0  0  0  0
   32.5602  -34.3501   -5.0673 C   0  0  0  0  0  0  0  0  0  0  0  0
   32.7426  -34.1784   -6.4225 C   0  0  0  0  0  0  0  0  0  0  0  0
   31.7124  -33.7521   -7.2429 O   0  0  0  0  0  0  0  0  0  0  0  0
   28.0408  -35.0528   -6.7952 O   0  0  0  0  0  0  0  0  0  0  0  0
  2  1  1  0
  2  3  2  0
  4  2  1  0
  5  4  1  0
  6  5  1  0
  7  8  1  0
  7  6  1  0
  8  9  1  1
 10 20  1  0
 10  8  1  0
 11 10  2  0
 13 12  1  0
 14 13  2  0
 15 13  1  0
 16 15  1  0
 17 18  1  0
 17 16  1  0
 19 18  1  6
 19 21  1  0
 19 20  1  0
 21 22  2  0
 23 24  1  0
 23 21  1  0
 24 25  1  1
 25 26  1  0
 26 31  2  0
 27 26  1  0
 27 28  2  0
 28 29  1  0
 29 30  2  0
 31 30  1  0
 32 24  1  0
 33 32  1  0
 34 32  2  0
M  END
$$$$
