RRF.pdb
     RDKit          3D

 34 34  0  0  1  0  0  0  0  0999 V2000
   27.6135  -27.1440  -15.7817 N   0  0  0  0  0  0  0  0  0  0  0  0
   27.5267  -27.2397  -17.2051 C   0  0  0  0  0  0  0  0  0  0  0  0
   27.9665  -28.3183  -17.7421 N   0  0  0  0  0  0  0  0  0  0  0  0
   26.9743  -26.1652  -17.9347 N   0  0  0  0  0  0  0  0  0  0  0  0
   26.5015  -24.9809  -17.1976 C   0  0  0  0  0  0  0  0  0  0  0  0
   27.6970  -24.1817  -16.8195 C   0  0  0  0  0  0  0  0  0  0  0  0
   27.6874  -22.8122  -17.3970 C   0  0  0  0  0  0  0  0  0  0  0  0
   28.9170  -21.9933  -17.1628 C   0  0  2  0  0  0  0  0  0  0  0  0
   30.1474  -22.7086  -17.1912 N   0  0  0  0  0  0  0  0  0  0  0  0
   28.7398  -21.2800  -15.8616 C   0  0  0  0  0  0  0  0  0  0  0  0
   29.5118  -21.5562  -14.9220 O   0  0  0  0  0  0  0  0  0  0  0  0
   28.0420  -28.4624  -18.7571 N   0  0  0  0  0  0  0  0  0  0  0  0
   21.6138  -18.9672  -13.9887 C   0  0  0  0  0  0  0  0  0  0  0  0
   22.0922  -19.3538  -15.2721 N   0  0  0  0  0  0  0  0  0  0  0  0
   21.3633  -20.0434  -16.0844 N   0  0  0  0  0  0  0  0  0  0  0  0
   23.3892  -19.0068  -15.7383 C   0  0  0  0  0  0  0  0  0  0  0  0
   24.4857  -18.8594  -14.8328 C   0  0  0  0  0  0  0  0  0  0  0  0
   25.7521  -18.3992  -15.5245 C   0  0  0  0  0  0  0  0  0  0  0  0
   26.9021  -18.2696  -14.5677 C   0  0  1  0  0  0  0  0  0  0  0  0
   27.6421  -19.5578  -14.4562 N   0  0  0  0  0  0  0  0  0  0  0  0
   27.7297  -20.3130  -15.6762 C   0  0  0  0  0  0  0  0  0  0  0  0
   27.0695  -20.4060  -13.3449 O   0  0  0  0  0  0  0  0  0  0  0  0
   26.2732  -21.3529  -13.5714 N   0  0  0  0  0  0  0  0  0  0  0  0
   21.7763  -20.2769  -17.0146 C   0  0  1  0  0  0  0  0  0  0  0  0
   27.4145  -20.1611  -11.9878 C   0  0  0  0  0  0  0  0  0  0  0  0
   26.8748  -20.9569  -10.9099 C   0  0  0  0  0  0  0  0  0  0  0  0
   27.7845  -20.9649   -9.7049 C   0  0  0  0  0  0  0  0  0  0  0  0
   29.1525  -21.4174  -10.0451 C   0  0  0  0  0  0  0  0  0  0  0  0
   30.2060  -20.5593   -9.8069 C   0  0  0  0  0  0  0  0  0  0  0  0
   31.5141  -20.8987  -10.0881 C   0  0  0  0  0  0  0  0  0  0  0  0
   31.7258  -22.1693  -10.6328 C   0  0  0  0  0  0  0  0  0  0  0  0
   30.6724  -23.0255  -10.8704 C   0  0  0  0  0  0  0  0  0  0  0  0
   29.3676  -22.6650  -10.5809 O   0  0  0  0  0  0  0  0  0  0  0  0
   25.5028  -20.5000  -10.5695 O   0  0  0  0  0  0  0  0  0  0  0  0
  2  1  1  0
  2  3  2  0
  4  2  1  0
  5  4  1  0
  6  5  1  0
  7  8  1  0
  7  6  1  0
  8  9  1  1
 10 20  1  0
 10  8  1  0
 11 10  2  0
 13 12  1  0
 14 13  2  0
 15 13  1  0
 16 15  1  0
 17 18  1  0
 17 16  1  0
 19 18  1  6
 19 21  1  0
 19 20  1  0
 21 22  2  0
 23 24  1  0
 23 21  1  0
 24 25  1  6
 25 26  1  0
 26 31  2  0
 27 26  1  0
 27 28  2  0
 28 29  1  0
 29 30  2  0
 31 30  1  0
 32 24  1  0
 33 32  1  0
 34 32  2  0
M  END
$$$$
