RRF.pdb
     RDKit          3D

 34 34  0  0  1  0  0  0  0  0999 V2000
   26.8386  -28.4305  -17.5148 N   0  0  0  0  0  0  0  0  0  0  0  0
   28.1854  -28.6001  -17.0673 C   0  0  0  0  0  0  0  0  0  0  0  0
   28.6494  -29.7960  -17.0637 N   0  0  0  0  0  0  0  0  0  0  0  0
   28.9227  -27.4681  -16.6590 N   0  0  0  0  0  0  0  0  0  0  0  0
   28.2453  -26.1608  -16.6212 C   0  0  0  0  0  0  0  0  0  0  0  0
   29.2505  -25.1471  -16.2055 C   0  0  0  0  0  0  0  0  0  0  0  0
   28.6985  -23.7681  -16.1532 C   0  0  0  0  0  0  0  0  0  0  0  0
   28.2521  -23.1907  -17.4588 C   0  0  2  0  0  0  0  0  0  0  0  0
   29.2347  -22.4465  -18.1707 N   0  0  0  0  0  0  0  0  0  0  0  0
   27.0389  -22.3604  -17.1907 C   0  0  0  0  0  0  0  0  0  0  0  0
   27.1943  -21.1612  -16.8857 O   0  0  0  0  0  0  0  0  0  0  0  0
   29.5725  -30.0502  -16.6897 N   0  0  0  0  0  0  0  0  0  0  0  0
   22.1907  -17.9658  -16.8618 C   0  0  0  0  0  0  0  0  0  0  0  0
   21.0741  -18.7285  -17.3056 N   0  0  0  0  0  0  0  0  0  0  0  0
   19.9933  -18.8132  -16.6047 N   0  0  0  0  0  0  0  0  0  0  0  0
   21.0762  -19.4367  -18.5378 C   0  0  0  0  0  0  0  0  0  0  0  0
   22.1100  -20.3734  -18.8507 C   0  0  0  0  0  0  0  0  0  0  0  0
   22.3071  -21.4063  -17.7605 C   0  0  0  0  0  0  0  0  0  0  0  0
   23.4681  -22.3143  -18.0472 C   0  0  1  0  0  0  0  0  0  0  0  0
   24.5792  -22.0679  -17.0860 N   0  0  0  0  0  0  0  0  0  0  0  0
   25.7375  -22.8983  -17.2740 C   0  0  0  0  0  0  0  0  0  0  0  0
   24.0822  -22.1618  -15.6625 O   0  0  0  0  0  0  0  0  0  0  0  0
   24.0328  -23.2560  -15.0441 N   0  0  0  0  0  0  0  0  0  0  0  0
   19.2042  -19.3645  -17.0096 C   0  0  1  0  0  0  0  0  0  0  0  0
   23.6475  -21.0031  -14.9631 C   0  0  0  0  0  0  0  0  0  0  0  0
   23.2098  -21.0637  -13.5879 C   0  0  0  0  0  0  0  0  0  0  0  0
   23.8628  -19.9979  -12.7410 C   0  0  0  0  0  0  0  0  0  0  0  0
   25.3361  -20.1403  -12.7081 C   0  0  0  0  0  0  0  0  0  0  0  0
   25.8893  -21.0350  -11.8156 C   0  0  0  0  0  0  0  0  0  0  0  0
   27.2514  -21.2366  -11.7193 C   0  0  0  0  0  0  0  0  0  0  0  0
   28.0562  -20.4825  -12.5792 C   0  0  0  0  0  0  0  0  0  0  0  0
   27.5022  -19.5889  -13.4702 C   0  0  0  0  0  0  0  0  0  0  0  0
   26.1330  -19.4021  -13.5505 O   0  0  0  0  0  0  0  0  0  0  0  0
   21.7273  -21.0021  -13.5161 O   0  0  0  0  0  0  0  0  0  0  0  0
  2  1  1  0
  2  3  2  0
  4  2  1  0
  5  4  1  0
  6  5  1  0
  7  8  1  0
  7  6  1  0
  8  9  1  1
 10 20  1  0
 10  8  1  0
 11 10  2  0
 13 12  1  0
 14 13  2  0
 15 13  1  0
 16 15  1  0
 17 18  1  0
 17 16  1  0
 19 18  1  6
 19 21  1  0
 19 20  1  0
 21 22  2  0
 23 24  1  0
 23 21  1  0
 24 25  1  1
 25 26  1  0
 26 31  2  0
 27 26  1  0
 27 28  2  0
 28 29  1  0
 29 30  2  0
 31 30  1  0
 32 24  1  0
 33 32  1  0
 34 32  2  0
M  END
$$$$
