RRF.pdb
     RDKit          3D

 34 34  0  0  1  0  0  0  0  0999 V2000
   29.4278  -22.0871  -19.9300 N   0  0  0  0  0  0  0  0  0  0  0  0
   29.1896  -20.9520  -20.7653 C   0  0  0  0  0  0  0  0  0  0  0  0
   28.9192  -21.1847  -21.9974 N   0  0  0  0  0  0  0  0  0  0  0  0
   29.2630  -19.6583  -20.2059 N   0  0  0  0  0  0  0  0  0  0  0  0
   29.1921  -19.5177  -18.7415 C   0  0  0  0  0  0  0  0  0  0  0  0
   27.7596  -19.6030  -18.3521 C   0  0  0  0  0  0  0  0  0  0  0  0
   27.5531  -19.5567  -16.8809 C   0  0  0  0  0  0  0  0  0  0  0  0
   28.0749  -20.7266  -16.1086 C   0  0  2  0  0  0  0  0  0  0  0  0
   28.5220  -21.8296  -16.8894 N   0  0  0  0  0  0  0  0  0  0  0  0
   27.0067  -21.1442  -15.1505 C   0  0  0  0  0  0  0  0  0  0  0  0
   26.0467  -21.8116  -15.5841 O   0  0  0  0  0  0  0  0  0  0  0  0
   28.7518  -20.4488  -22.6952 N   0  0  0  0  0  0  0  0  0  0  0  0
   22.3118  -20.4343   -9.9025 C   0  0  0  0  0  0  0  0  0  0  0  0
   22.7747  -21.0497   -8.7057 N   0  0  0  0  0  0  0  0  0  0  0  0
   21.9593  -21.6088   -7.8755 N   0  0  0  0  0  0  0  0  0  0  0  0
   24.1507  -21.0902   -8.3524 C   0  0  0  0  0  0  0  0  0  0  0  0
   25.1524  -20.5478   -9.2163 C   0  0  0  0  0  0  0  0  0  0  0  0
   25.0203  -21.0433  -10.6415 C   0  0  0  0  0  0  0  0  0  0  0  0
   26.0995  -20.4967  -11.5309 C   0  0  2  0  0  0  0  0  0  0  0  0
   25.9120  -20.9624  -12.9336 N   0  0  0  0  0  0  0  0  0  0  0  0
   27.0609  -20.8029  -13.7829 C   0  0  0  0  0  0  0  0  0  0  0  0
   24.6977  -20.3111  -13.5527 O   0  0  0  0  0  0  0  0  0  0  0  0
   24.6563  -19.0791  -13.8028 N   0  0  0  0  0  0  0  0  0  0  0  0
   22.3744  -22.0602   -7.0302 C   0  0  2  0  0  0  0  0  0  0  0  0
   23.5450  -21.0766  -13.8784 C   0  0  0  0  0  0  0  0  0  0  0  0
   22.2954  -20.4519  -14.2453 C   0  0  0  0  0  0  0  0  0  0  0  0
   21.9375  -20.7124  -15.6889 C   0  0  0  0  0  0  0  0  0  0  0  0
   22.7883  -19.9373  -16.6202 C   0  0  0  0  0  0  0  0  0  0  0  0
   22.4624  -18.6193  -16.8646 C   0  0  0  0  0  0  0  0  0  0  0  0
   23.2012  -17.8203  -17.7137 C   0  0  0  0  0  0  0  0  0  0  0  0
   24.3102  -18.4155  -18.3233 C   0  0  0  0  0  0  0  0  0  0  0  0
   24.6345  -19.7324  -18.0784 C   0  0  0  0  0  0  0  0  0  0  0  0
   23.8797  -20.5163  -17.2229 O   0  0  0  0  0  0  0  0  0  0  0  0
   21.2155  -20.8768  -13.3179 O   0  0  0  0  0  0  0  0  0  0  0  0
  2  1  1  0
  2  3  2  0
  4  2  1  0
  5  4  1  0
  6  5  1  0
  7  8  1  0
  7  6  1  0
  8  9  1  6
 10 20  1  0
 10  8  1  0
 11 10  2  0
 13 12  1  0
 14 13  2  0
 15 13  1  0
 16 15  1  0
 17 18  1  0
 17 16  1  0
 19 18  1  1
 19 21  1  0
 19 20  1  0
 21 22  2  0
 23 24  1  0
 23 21  1  0
 24 25  1  6
 25 26  1  0
 26 31  2  0
 27 26  1  0
 27 28  2  0
 28 29  1  0
 29 30  2  0
 31 30  1  0
 32 24  1  0
 33 32  1  0
 34 32  2  0
M  END
$$$$
