RRF.pdb
     RDKit          3D

 34 34  0  0  1  0  0  0  0  0999 V2000
   20.0394  -21.6339  -16.2695 N   0  0  0  0  0  0  0  0  0  0  0  0
   19.1700  -20.5721  -15.8700 C   0  0  0  0  0  0  0  0  0  0  0  0
   18.1073  -20.3987  -16.5672 N   0  0  0  0  0  0  0  0  0  0  0  0
   19.5164  -19.7825  -14.7527 N   0  0  0  0  0  0  0  0  0  0  0  0
   20.8583  -19.9397  -14.1663 C   0  0  0  0  0  0  0  0  0  0  0  0
   21.5368  -18.6187  -14.2394 C   0  0  0  0  0  0  0  0  0  0  0  0
   22.9387  -18.6569  -13.7469 C   0  0  0  0  0  0  0  0  0  0  0  0
   23.9731  -19.0707  -14.7450 C   0  0  2  0  0  0  0  0  0  0  0  0
   23.4717  -19.5967  -15.9689 N   0  0  0  0  0  0  0  0  0  0  0  0
   24.8805  -20.0484  -14.0713 C   0  0  0  0  0  0  0  0  0  0  0  0
   24.4797  -21.2182  -13.9098 O   0  0  0  0  0  0  0  0  0  0  0  0
   17.4121  -19.6657  -16.3776 N   0  0  0  0  0  0  0  0  0  0  0  0
   31.1391  -24.6210  -14.6015 C   0  0  0  0  0  0  0  0  0  0  0  0
   30.6712  -23.5802  -15.4519 N   0  0  0  0  0  0  0  0  0  0  0  0
   30.3901  -23.7980  -16.6930 N   0  0  0  0  0  0  0  0  0  0  0  0
   30.4829  -22.2482  -14.9936 C   0  0  0  0  0  0  0  0  0  0  0  0
   30.5985  -21.9198  -13.6070 C   0  0  0  0  0  0  0  0  0  0  0  0
   29.2513  -21.7390  -12.9389 C   0  0  0  0  0  0  0  0  0  0  0  0
   28.3859  -20.7546  -13.6716 C   0  0  1  0  0  0  0  0  0  0  0  0
   27.0474  -20.6478  -13.0264 N   0  0  0  0  0  0  0  0  0  0  0  0
   26.1651  -19.6802  -13.6196 C   0  0  0  0  0  0  0  0  0  0  0  0
   27.1897  -20.3997  -11.5431 O   0  0  0  0  0  0  0  0  0  0  0  0
   27.9472  -19.5056  -11.0862 N   0  0  0  0  0  0  0  0  0  0  0  0
   30.0540  -22.9851  -17.2556 C   0  0  2  0  0  0  0  0  0  0  0  0
   26.4642  -21.1773  -10.6000 C   0  0  0  0  0  0  0  0  0  0  0  0
   26.6394  -21.0055   -9.1765 C   0  0  0  0  0  0  0  0  0  0  0  0
   27.3949  -19.7396   -8.8503 C   0  0  0  0  0  0  0  0  0  0  0  0
   27.6470  -19.6022   -7.3978 C   0  0  0  0  0  0  0  0  0  0  0  0
   27.6782  -20.7452   -6.6260 C   0  0  0  0  0  0  0  0  0  0  0  0
   27.9111  -20.7127   -5.2659 C   0  0  0  0  0  0  0  0  0  0  0  0
   28.1170  -19.4514   -4.6980 C   0  0  0  0  0  0  0  0  0  0  0  0
   28.0854  -18.3103   -5.4702 C   0  0  0  0  0  0  0  0  0  0  0  0
   27.8500  -18.3654   -6.8332 O   0  0  0  0  0  0  0  0  0  0  0  0
   25.3259  -21.0645   -8.4851 O   0  0  0  0  0  0  0  0  0  0  0  0
  2  1  1  0
  2  3  2  0
  4  2  1  0
  5  4  1  0
  6  5  1  0
  7  8  1  0
  7  6  1  0
  8  9  1  6
 10 20  1  0
 10  8  1  0
 11 10  2  0
 13 12  1  0
 14 13  2  0
 15 13  1  0
 16 15  1  0
 17 18  1  0
 17 16  1  0
 19 18  1  6
 19 21  1  0
 19 20  1  0
 21 22  2  0
 23 24  1  0
 23 21  1  0
 24 25  1  6
 25 26  1  0
 26 31  2  0
 27 26  1  0
 27 28  2  0
 28 29  1  0
 29 30  2  0
 31 30  1  0
 32 24  1  0
 33 32  1  0
 34 32  2  0
M  END
$$$$
