RRF.pdb
     RDKit          3D

 34 34  0  0  1  0  0  0  0  0999 V2000
   16.6378  -24.1058   -9.4335 N   0  0  0  0  0  0  0  0  0  0  0  0
   17.8308  -24.0356   -8.6495 C   0  0  0  0  0  0  0  0  0  0  0  0
   17.9679  -24.9107   -7.7217 N   0  0  0  0  0  0  0  0  0  0  0  0
   18.7788  -23.0276   -8.9275 N   0  0  0  0  0  0  0  0  0  0  0  0
   18.5070  -22.0879  -10.0286 C   0  0  0  0  0  0  0  0  0  0  0  0
   19.1606  -22.6279  -11.2501 C   0  0  0  0  0  0  0  0  0  0  0  0
   20.3083  -21.8024  -11.7090 C   0  0  0  0  0  0  0  0  0  0  0  0
   20.3658  -21.5175  -13.1762 C   0  0  2  0  0  0  0  0  0  0  0  0
   19.5783  -22.3703  -14.0001 N   0  0  0  0  0  0  0  0  0  0  0  0
   21.8030  -21.5533  -13.5842 C   0  0  0  0  0  0  0  0  0  0  0  0
   22.4171  -22.6357  -13.5043 O   0  0  0  0  0  0  0  0  0  0  0  0
   18.7716  -24.9449   -7.0819 N   0  0  0  0  0  0  0  0  0  0  0  0
   26.1162  -15.0626  -15.1086 C   0  0  0  0  0  0  0  0  0  0  0  0
   25.9296  -15.7288  -16.3523 N   0  0  0  0  0  0  0  0  0  0  0  0
   26.8315  -15.6994  -17.2755 N   0  0  0  0  0  0  0  0  0  0  0  0
   24.7512  -16.4639  -16.6538 C   0  0  0  0  0  0  0  0  0  0  0  0
   23.9453  -17.0277  -15.6162 C   0  0  0  0  0  0  0  0  0  0  0  0
   24.6417  -18.1604  -14.8908 C   0  0  0  0  0  0  0  0  0  0  0  0
   24.2835  -19.5014  -15.4635 C   0  0  1  0  0  0  0  0  0  0  0  0
   23.8692  -20.4412  -14.3844 N   0  0  0  0  0  0  0  0  0  0  0  0
   22.4712  -20.4023  -14.0517 C   0  0  0  0  0  0  0  0  0  0  0  0
   24.7161  -20.2405  -13.1496 O   0  0  0  0  0  0  0  0  0  0  0  0
   24.2735  -19.6621  -12.1241 N   0  0  0  0  0  0  0  0  0  0  0  0
   26.5820  -16.1173  -18.1994 C   0  0  2  0  0  0  0  0  0  0  0  0
   26.0592  -20.7035  -13.1025 C   0  0  0  0  0  0  0  0  0  0  0  0
   26.8938  -20.5005  -11.9411 C   0  0  0  0  0  0  0  0  0  0  0  0
   26.7276  -21.6069  -10.9272 C   0  0  0  0  0  0  0  0  0  0  0  0
   27.5286  -21.3653   -9.7057 C   0  0  0  0  0  0  0  0  0  0  0  0
   26.9199  -20.7467   -8.6333 C   0  0  0  0  0  0  0  0  0  0  0  0
   27.5875  -20.4862   -7.4536 C   0  0  0  0  0  0  0  0  0  0  0  0
   28.9271  -20.8833   -7.3939 C   0  0  0  0  0  0  0  0  0  0  0  0
   29.5340  -21.5011   -8.4660 C   0  0  0  0  0  0  0  0  0  0  0  0
   28.8458  -21.7531   -9.6403 O   0  0  0  0  0  0  0  0  0  0  0  0
   28.3115  -20.3272  -12.3496 O   0  0  0  0  0  0  0  0  0  0  0  0
  2  1  1  0
  2  3  2  0
  4  2  1  0
  5  4  1  0
  6  5  1  0
  7  8  1  0
  7  6  1  0
  8  9  1  6
 10 20  1  0
 10  8  1  0
 11 10  2  0
 13 12  1  0
 14 13  2  0
 15 13  1  0
 16 15  1  0
 17 18  1  0
 17 16  1  0
 19 18  1  6
 19 21  1  0
 19 20  1  0
 21 22  2  0
 23 24  1  0
 23 21  1  0
 24 25  1  1
 25 26  1  0
 26 31  2  0
 27 26  1  0
 27 28  2  0
 28 29  1  0
 29 30  2  0
 31 30  1  0
 32 24  1  0
 33 32  1  0
 34 32  2  0
M  END
$$$$
