RRF.pdb
     RDKit          3D

 34 34  0  0  1  0  0  0  0  0999 V2000
   23.4414  -34.1827  -17.0463 N   0  0  0  0  0  0  0  0  0  0  0  0
   22.9674  -34.4320  -18.3714 C   0  0  0  0  0  0  0  0  0  0  0  0
   22.5186  -35.6086  -18.6154 N   0  0  0  0  0  0  0  0  0  0  0  0
   23.0163  -33.3940  -19.3265 N   0  0  0  0  0  0  0  0  0  0  0  0
   23.6204  -32.1075  -18.9401 C   0  0  0  0  0  0  0  0  0  0  0  0
   22.6171  -31.3666  -18.1305 C   0  0  0  0  0  0  0  0  0  0  0  0
   23.0567  -29.9919  -17.7756 C   0  0  0  0  0  0  0  0  0  0  0  0
   23.9489  -29.8770  -16.5806 C   0  0  2  0  0  0  0  0  0  0  0  0
   23.4464  -30.4528  -15.3797 N   0  0  0  0  0  0  0  0  0  0  0  0
   24.2616  -28.4279  -16.3920 C   0  0  0  0  0  0  0  0  0  0  0  0
   23.4936  -27.7400  -15.6905 O   0  0  0  0  0  0  0  0  0  0  0  0
   22.1164  -35.8916  -19.5181 N   0  0  0  0  0  0  0  0  0  0  0  0
   32.0268  -25.1375  -17.8358 C   0  0  0  0  0  0  0  0  0  0  0  0
   31.6945  -26.4995  -17.5913 N   0  0  0  0  0  0  0  0  0  0  0  0
   32.5757  -27.4376  -17.6918 N   0  0  0  0  0  0  0  0  0  0  0  0
   30.3850  -26.9101  -17.2220 C   0  0  0  0  0  0  0  0  0  0  0  0
   29.3776  -25.9534  -16.8842 C   0  0  0  0  0  0  0  0  0  0  0  0
   28.0326  -26.5964  -16.6169 C   0  0  0  0  0  0  0  0  0  0  0  0
   26.9300  -25.9436  -17.3997 C   0  0  2  0  0  0  0  0  0  0  0  0
   25.5979  -26.4076  -16.9205 N   0  0  0  0  0  0  0  0  0  0  0  0
   25.3934  -27.8292  -16.9840 C   0  0  0  0  0  0  0  0  0  0  0  0
   24.4890  -25.6775  -17.6412 O   0  0  0  0  0  0  0  0  0  0  0  0
   24.2938  -25.8132  -18.8763 N   0  0  0  0  0  0  0  0  0  0  0  0
   32.2586  -28.4129  -17.4952 C   0  0  1  0  0  0  0  0  0  0  0  0
   23.6167  -24.8006  -16.9407 C   0  0  0  0  0  0  0  0  0  0  0  0
   22.5409  -24.1045  -17.6075 C   0  0  0  0  0  0  0  0  0  0  0  0
   21.2612  -24.9057  -17.6005 C   0  0  0  0  0  0  0  0  0  0  0  0
   20.6912  -25.0295  -16.2397 C   0  0  0  0  0  0  0  0  0  0  0  0
   19.6727  -24.1738  -15.8744 C   0  0  0  0  0  0  0  0  0  0  0  0
   19.0789  -24.2204  -14.6292 C   0  0  0  0  0  0  0  0  0  0  0  0
   19.5630  -25.1877  -13.7428 C   0  0  0  0  0  0  0  0  0  0  0  0
   20.5807  -26.0418  -14.1090 C   0  0  0  0  0  0  0  0  0  0  0  0
   21.1626  -25.9780  -15.3634 O   0  0  0  0  0  0  0  0  0  0  0  0
   22.3564  -22.7543  -17.0160 O   0  0  0  0  0  0  0  0  0  0  0  0
  2  1  1  0
  2  3  2  0
  4  2  1  0
  5  4  1  0
  6  5  1  0
  7  8  1  0
  7  6  1  0
  8  9  1  1
 10 20  1  0
 10  8  1  0
 11 10  2  0
 13 12  1  0
 14 13  2  0
 15 13  1  0
 16 15  1  0
 17 18  1  0
 17 16  1  0
 19 18  1  1
 19 21  1  0
 19 20  1  0
 21 22  2  0
 23 24  1  0
 23 21  1  0
 24 25  1  1
 25 26  1  0
 26 31  2  0
 27 26  1  0
 27 28  2  0
 28 29  1  0
 29 30  2  0
 31 30  1  0
 32 24  1  0
 33 32  1  0
 34 32  2  0
M  END
$$$$
