RRF.pdb
     RDKit          3D

 34 34  0  0  1  0  0  0  0  0999 V2000
   31.5741  -25.0017  -15.5510 N   0  0  0  0  0  0  0  0  0  0  0  0
   32.0956  -24.3738  -16.7243 C   0  0  0  0  0  0  0  0  0  0  0  0
   32.9958  -25.0156  -17.3747 N   0  0  0  0  0  0  0  0  0  0  0  0
   31.6059  -23.1049  -17.1012 N   0  0  0  0  0  0  0  0  0  0  0  0
   30.1592  -22.8479  -16.9988 C   0  0  0  0  0  0  0  0  0  0  0  0
   29.7792  -22.9895  -15.5683 C   0  0  0  0  0  0  0  0  0  0  0  0
   29.0267  -21.8182  -15.0477 C   0  0  0  0  0  0  0  0  0  0  0  0
   27.6037  -21.7023  -15.4938 C   0  0  2  0  0  0  0  0  0  0  0  0
   27.4032  -21.0711  -16.7538 N   0  0  0  0  0  0  0  0  0  0  0  0
   26.8510  -20.9961  -14.4130 C   0  0  0  0  0  0  0  0  0  0  0  0
   26.7467  -19.7550  -14.4742 O   0  0  0  0  0  0  0  0  0  0  0  0
   33.5179  -24.6225  -18.1680 N   0  0  0  0  0  0  0  0  0  0  0  0
   20.3745  -18.5513  -12.6429 C   0  0  0  0  0  0  0  0  0  0  0  0
   20.5836  -19.7978  -13.2970 N   0  0  0  0  0  0  0  0  0  0  0  0
   20.1215  -20.0244  -14.4809 N   0  0  0  0  0  0  0  0  0  0  0  0
   21.3093  -20.8617  -12.6959 C   0  0  0  0  0  0  0  0  0  0  0  0
   21.8057  -20.7559  -11.3593 C   0  0  0  0  0  0  0  0  0  0  0  0
   23.3027  -20.5303  -11.3120 C   0  0  0  0  0  0  0  0  0  0  0  0
   24.0185  -21.2641  -12.4092 C   0  0  1  0  0  0  0  0  0  0  0  0
   25.4847  -21.0083  -12.3444 N   0  0  0  0  0  0  0  0  0  0  0  0
   26.2635  -21.6957  -13.3382 C   0  0  0  0  0  0  0  0  0  0  0  0
   26.0146  -21.2970  -10.9594 O   0  0  0  0  0  0  0  0  0  0  0  0
   26.2058  -22.4707  -10.5497 N   0  0  0  0  0  0  0  0  0  0  0  0
   20.3065  -20.9660  -14.8930 C   0  0  2  0  0  0  0  0  0  0  0  0
   26.3193  -20.2397  -10.0594 C   0  0  0  0  0  0  0  0  0  0  0  0
   26.8280  -20.4936   -8.7315 C   0  0  0  0  0  0  0  0  0  0  0  0
   27.6418  -19.3344   -8.2084 C   0  0  0  0  0  0  0  0  0  0  0  0
   28.0585  -19.5383   -6.8025 C   0  0  0  0  0  0  0  0  0  0  0  0
   29.1988  -20.2745   -6.5560 C   0  0  0  0  0  0  0  0  0  0  0  0
   29.6644  -20.5109   -5.2783 C   0  0  0  0  0  0  0  0  0  0  0  0
   28.9176  -19.9627   -4.2306 C   0  0  0  0  0  0  0  0  0  0  0  0
   27.7785  -19.2276   -4.4783 C   0  0  0  0  0  0  0  0  0  0  0  0
   27.3289  -19.0024   -5.7679 O   0  0  0  0  0  0  0  0  0  0  0  0
   25.7162  -20.8530   -7.8141 O   0  0  0  0  0  0  0  0  0  0  0  0
  2  1  1  0
  2  3  2  0
  4  2  1  0
  5  4  1  0
  6  5  1  0
  7  8  1  0
  7  6  1  0
  8  9  1  6
 10 20  1  0
 10  8  1  0
 11 10  2  0
 13 12  1  0
 14 13  2  0
 15 13  1  0
 16 15  1  0
 17 18  1  0
 17 16  1  0
 19 18  1  6
 19 21  1  0
 19 20  1  0
 21 22  2  0
 23 24  1  0
 23 21  1  0
 24 25  1  1
 25 26  1  0
 26 31  2  0
 27 26  1  0
 27 28  2  0
 28 29  1  0
 29 30  2  0
 31 30  1  0
 32 24  1  0
 33 32  1  0
 34 32  2  0
M  END
$$$$
