SFY.pdb
     RDKit          3D

 30 31  0  0  1  0  0  0  0  0999 V2000
   10.3980  -18.8197   19.4937 O   0  0  0  0  0  0  0  0  0  0  0  0
    9.2275  -18.2447   19.0032 C   0  0  0  0  0  0  0  0  0  0  0  0
    9.3484  -16.7389   18.9719 C   0  0  2  0  0  0  0  0  0  0  0  0
   10.4938  -16.2864   18.2489 N   0  0  0  0  0  0  0  0  0  0  0  0
    9.3515  -16.1474   20.3193 C   0  0  0  0  0  0  0  0  0  0  0  0
   10.4649  -15.8184   20.8023 O   0  0  0  0  0  0  0  0  0  0  0  0
    8.1924  -15.9309   21.0909 N   0  0  0  0  0  0  0  0  0  0  0  0
    8.2972  -15.2994   22.3859 C   0  0  1  0  0  0  0  0  0  0  0  0
    6.9035  -14.9291   22.8887 C   0  0  0  0  0  0  0  0  0  0  0  0
    6.9078  -14.2128   24.1600 C   0  0  0  0  0  0  0  0  0  0  0  0
    6.4897  -14.8205   25.3242 C   0  0  0  0  0  0  0  0  0  0  0  0
    6.4990  -14.1156   26.5350 C   0  0  0  0  0  0  0  0  0  0  0  0
    6.9261  -12.8097   26.5717 C   0  0  0  0  0  0  0  0  0  0  0  0
    7.3415  -12.2048   25.4173 C   0  0  0  0  0  0  0  0  0  0  0  0
    7.3267  -12.9088   24.2373 C   0  0  0  0  0  0  0  0  0  0  0  0
    8.9721  -16.1602   23.3541 C   0  0  0  0  0  0  0  0  0  0  0  0
    8.7975  -17.4245   23.2720 O   0  0  0  0  0  0  0  0  0  0  0  0
    9.8969  -14.7916   31.0212 O   0  0  0  0  0  0  0  0  0  0  0  0
   10.3681  -15.0116   29.7262 C   0  0  0  0  0  0  0  0  0  0  0  0
   10.7785  -16.2884   29.3778 C   0  0  0  0  0  0  0  0  0  0  0  0
   11.2471  -16.5142   28.0951 C   0  0  0  0  0  0  0  0  0  0  0  0
   11.3209  -15.5184   27.1520 C   0  0  0  0  0  0  0  0  0  0  0  0
   11.8332  -15.8414   25.8012 C   0  0  0  0  0  0  0  0  0  0  0  0
   10.8282  -16.6426   24.9804 C   0  0  2  0  0  0  0  0  0  0  0  0
    9.8280  -15.7334   24.4043 N   0  0  0  0  0  0  0  0  0  0  0  0
   10.1400  -17.6459   25.7833 C   0  0  0  0  0  0  0  0  0  0  0  0
   10.6159  -18.7194   26.2191 O   0  0  0  0  0  0  0  0  0  0  0  0
   10.9119  -14.2543   27.5050 C   0  0  0  0  0  0  0  0  0  0  0  0
   10.4385  -14.0096   28.7893 C   0  0  0  0  0  0  0  0  0  0  0  0
    8.7945  -17.3965   26.1135 O   0  0  0  0  0  0  0  0  0  0  0  0
  1  2  1  0
  2  3  1  0
  3  5  1  0
  3  4  1  1
  5  6  2  0
  7  5  1  0
  7  8  1  0
  8  9  1  1
  9 10  1  0
 10 15  2  0
 11 12  2  0
 11 10  1  0
 12 13  1  0
 13 14  2  0
 15 14  1  0
 16  8  1  0
 16 17  2  0
 18 19  1  0
 19 29  2  0
 19 20  1  0
 20 21  2  0
 21 22  1  0
 22 23  1  0
 24 23  1  1
 24 26  1  0
 24 25  1  0
 25 16  1  0
 26 30  1  0
 27 26  2  0
 28 22  2  0
 29 28  1  0
M  END
$$$$
