SFY.pdb
     RDKit          3D

 30 31  0  0  1  0  0  0  0  0999 V2000
   11.1062  -19.5381   18.5823 O   0  0  0  0  0  0  0  0  0  0  0  0
    9.8297  -19.0670   18.2825 C   0  0  0  0  0  0  0  0  0  0  0  0
    9.8696  -17.5902   17.9655 C   0  0  2  0  0  0  0  0  0  0  0  0
   10.7796  -17.2704   16.9124 N   0  0  0  0  0  0  0  0  0  0  0  0
   10.1771  -16.7700   19.1479 C   0  0  0  0  0  0  0  0  0  0  0  0
   11.3517  -16.3350   19.2586 O   0  0  0  0  0  0  0  0  0  0  0  0
    9.2424  -16.4473   20.1518 N   0  0  0  0  0  0  0  0  0  0  0  0
    9.6627  -15.6978   21.3130 C   0  0  1  0  0  0  0  0  0  0  0  0
    8.4601  -14.9794   21.9211 C   0  0  0  0  0  0  0  0  0  0  0  0
    7.9199  -13.9187   21.0772 C   0  0  0  0  0  0  0  0  0  0  0  0
    8.4306  -12.6394   21.1225 C   0  0  0  0  0  0  0  0  0  0  0  0
    7.8972  -11.6335   20.3059 C   0  0  0  0  0  0  0  0  0  0  0  0
    6.8582  -11.9149   19.4514 C   0  0  0  0  0  0  0  0  0  0  0  0
    6.3498  -13.1840   19.4050 C   0  0  0  0  0  0  0  0  0  0  0  0
    6.8832  -14.1602   20.2119 C   0  0  0  0  0  0  0  0  0  0  0  0
   10.2965  -16.5566   22.3103 C   0  0  0  0  0  0  0  0  0  0  0  0
    9.9803  -17.7955   22.3378 O   0  0  0  0  0  0  0  0  0  0  0  0
   16.5762  -14.6981   20.4629 O   0  0  0  0  0  0  0  0  0  0  0  0
   15.6472  -15.5053   21.1208 C   0  0  0  0  0  0  0  0  0  0  0  0
   15.8855  -15.8496   22.4417 C   0  0  0  0  0  0  0  0  0  0  0  0
   14.9684  -16.6500   23.1007 C   0  0  0  0  0  0  0  0  0  0  0  0
   13.8283  -17.1171   22.4937 C   0  0  0  0  0  0  0  0  0  0  0  0
   12.8964  -17.9679   23.2677 C   0  0  0  0  0  0  0  0  0  0  0  0
   11.9385  -17.1440   24.1218 C   0  0  2  0  0  0  0  0  0  0  0  0
   11.2553  -16.1540   23.2780 N   0  0  0  0  0  0  0  0  0  0  0  0
   12.6277  -16.4439   25.1987 C   0  0  0  0  0  0  0  0  0  0  0  0
   12.6694  -15.2065   25.3884 O   0  0  0  0  0  0  0  0  0  0  0  0
   13.5988  -16.7714   21.1832 C   0  0  0  0  0  0  0  0  0  0  0  0
   14.5095  -15.9681   20.5059 C   0  0  0  0  0  0  0  0  0  0  0  0
   13.3265  -17.2287   26.1354 O   0  0  0  0  0  0  0  0  0  0  0  0
  1  2  1  0
  2  3  1  0
  3  5  1  0
  3  4  1  6
  5  6  2  0
  7  5  1  0
  7  8  1  0
  8  9  1  1
  9 10  1  0
 10 15  2  0
 11 12  2  0
 11 10  1  0
 12 13  1  0
 13 14  2  0
 15 14  1  0
 16  8  1  0
 16 17  2  0
 18 19  1  0
 19 29  2  0
 19 20  1  0
 20 21  2  0
 21 22  1  0
 22 23  1  0
 24 23  1  6
 24 26  1  0
 24 25  1  0
 25 16  1  0
 26 30  1  0
 27 26  2  0
 28 22  2  0
 29 28  1  0
M  END
$$$$
