SFY.pdb
     RDKit          3D

 30 31  0  0  1  0  0  0  0  0999 V2000
    9.2188  -19.1295   19.2869 O   0  0  0  0  0  0  0  0  0  0  0  0
    9.2393  -18.3531   20.4437 C   0  0  0  0  0  0  0  0  0  0  0  0
    9.2672  -16.8830   20.0960 C   0  0  2  0  0  0  0  0  0  0  0  0
   10.3217  -16.5430   19.1949 N   0  0  0  0  0  0  0  0  0  0  0  0
    9.3432  -16.0249   21.2889 C   0  0  0  0  0  0  0  0  0  0  0  0
   10.4888  -15.7117   21.7022 O   0  0  0  0  0  0  0  0  0  0  0  0
    8.2196  -15.5393   21.9871 N   0  0  0  0  0  0  0  0  0  0  0  0
    8.3979  -14.8215   23.2280 C   0  0  1  0  0  0  0  0  0  0  0  0
    7.1386  -14.0150   23.5380 C   0  0  0  0  0  0  0  0  0  0  0  0
    7.1516  -13.3870   24.8550 C   0  0  0  0  0  0  0  0  0  0  0  0
    6.3741  -13.8706   25.8851 C   0  0  0  0  0  0  0  0  0  0  0  0
    6.3984  -13.2527   27.1423 C   0  0  0  0  0  0  0  0  0  0  0  0
    7.1994  -12.1571   27.3591 C   0  0  0  0  0  0  0  0  0  0  0  0
    7.9718  -11.6756   26.3380 C   0  0  0  0  0  0  0  0  0  0  0  0
    7.9375  -12.2920   25.1103 C   0  0  0  0  0  0  0  0  0  0  0  0
    8.7060  -15.7237   24.3348 C   0  0  0  0  0  0  0  0  0  0  0  0
    7.9424  -16.7306   24.5318 O   0  0  0  0  0  0  0  0  0  0  0  0
   15.9161  -16.0377   23.7927 O   0  0  0  0  0  0  0  0  0  0  0  0
   14.6540  -16.4583   24.2143 C   0  0  0  0  0  0  0  0  0  0  0  0
   14.4903  -16.8439   25.5351 C   0  0  0  0  0  0  0  0  0  0  0  0
   13.2414  -17.2623   25.9604 C   0  0  0  0  0  0  0  0  0  0  0  0
   12.1552  -17.3100   25.1211 C   0  0  0  0  0  0  0  0  0  0  0  0
   10.8523  -17.7686   25.6534 C   0  0  0  0  0  0  0  0  0  0  0  0
   10.0447  -16.6271   26.2621 C   0  0  2  0  0  0  0  0  0  0  0  0
    9.7945  -15.6022   25.2394 N   0  0  0  0  0  0  0  0  0  0  0  0
   10.7339  -16.0064   27.3867 C   0  0  0  0  0  0  0  0  0  0  0  0
   11.0585  -14.8020   27.5005 O   0  0  0  0  0  0  0  0  0  0  0  0
   12.3253  -16.9259   23.8121 C   0  0  0  0  0  0  0  0  0  0  0  0
   13.5731  -16.5028   23.3678 C   0  0  0  0  0  0  0  0  0  0  0  0
   11.0788  -16.8364   28.4701 O   0  0  0  0  0  0  0  0  0  0  0  0
  1  2  1  0
  2  3  1  0
  3  5  1  0
  3  4  1  6
  5  6  2  0
  7  5  1  0
  7  8  1  0
  8  9  1  1
  9 10  1  0
 10 15  2  0
 11 12  2  0
 11 10  1  0
 12 13  1  0
 13 14  2  0
 15 14  1  0
 16  8  1  0
 16 17  2  0
 18 19  1  0
 19 29  2  0
 19 20  1  0
 20 21  2  0
 21 22  1  0
 22 23  1  0
 24 23  1  6
 24 26  1  0
 24 25  1  0
 25 16  1  0
 26 30  1  0
 27 26  2  0
 28 22  2  0
 29 28  1  0
M  END
$$$$
