SFY.pdb
     RDKit          3D

 30 31  0  0  1  0  0  0  0  0999 V2000
    9.5812  -16.0727   17.4694 O   0  0  0  0  0  0  0  0  0  0  0  0
   10.5713  -16.7686   18.1598 C   0  0  0  0  0  0  0  0  0  0  0  0
   10.0139  -17.3617   19.4328 C   0  0  2  0  0  0  0  0  0  0  0  0
    8.7686  -18.0327   19.2367 N   0  0  0  0  0  0  0  0  0  0  0  0
    9.8712  -16.3619   20.5030 C   0  0  0  0  0  0  0  0  0  0  0  0
   10.9145  -15.7735   20.8857 O   0  0  0  0  0  0  0  0  0  0  0  0
    8.6471  -16.0293   21.1168 N   0  0  0  0  0  0  0  0  0  0  0  0
    8.6205  -15.0709   22.1974 C   0  0  1  0  0  0  0  0  0  0  0  0
    7.1943  -14.9362   22.7267 C   0  0  0  0  0  0  0  0  0  0  0  0
    7.0838  -14.0918   23.9115 C   0  0  0  0  0  0  0  0  0  0  0  0
    6.5606  -14.5786   25.0899 C   0  0  0  0  0  0  0  0  0  0  0  0
    6.4606  -13.7518   26.2166 C   0  0  0  0  0  0  0  0  0  0  0  0
    6.8844  -12.4458   26.1558 C   0  0  0  0  0  0  0  0  0  0  0  0
    7.4041  -11.9606   24.9871 C   0  0  0  0  0  0  0  0  0  0  0  0
    7.4958  -12.7835   23.8903 C   0  0  0  0  0  0  0  0  0  0  0  0
    9.5274  -15.4496   23.2781 C   0  0  0  0  0  0  0  0  0  0  0  0
   10.5940  -14.7645   23.4476 O   0  0  0  0  0  0  0  0  0  0  0  0
   11.8969  -15.6433   31.5475 O   0  0  0  0  0  0  0  0  0  0  0  0
   11.4228  -15.5906   30.2360 C   0  0  0  0  0  0  0  0  0  0  0  0
   10.2084  -14.9686   29.9942 C   0  0  0  0  0  0  0  0  0  0  0  0
    9.7319  -14.9126   28.6959 C   0  0  0  0  0  0  0  0  0  0  0  0
   10.4186  -15.4512   27.6354 C   0  0  0  0  0  0  0  0  0  0  0  0
    9.8414  -15.3490   26.2761 C   0  0  0  0  0  0  0  0  0  0  0  0
   10.1159  -16.5936   25.4386 C   0  0  2  0  0  0  0  0  0  0  0  0
    9.3463  -16.5246   24.1888 N   0  0  0  0  0  0  0  0  0  0  0  0
    9.7556  -17.8185   26.1420 C   0  0  0  0  0  0  0  0  0  0  0  0
   10.5331  -18.6140   26.7179 O   0  0  0  0  0  0  0  0  0  0  0  0
   11.6226  -16.0667   27.8831 C   0  0  0  0  0  0  0  0  0  0  0  0
   12.1163  -16.1322   29.1813 C   0  0  0  0  0  0  0  0  0  0  0  0
    8.3904  -18.1583   26.1884 O   0  0  0  0  0  0  0  0  0  0  0  0
  1  2  1  0
  2  3  1  0
  3  5  1  0
  3  4  1  6
  5  6  2  0
  7  5  1  0
  7  8  1  0
  8  9  1  1
  9 10  1  0
 10 15  2  0
 11 12  2  0
 11 10  1  0
 12 13  1  0
 13 14  2  0
 15 14  1  0
 16  8  1  0
 16 17  2  0
 18 19  1  0
 19 29  2  0
 19 20  1  0
 20 21  2  0
 21 22  1  0
 22 23  1  0
 24 23  1  1
 24 26  1  0
 24 25  1  0
 25 16  1  0
 26 30  1  0
 27 26  2  0
 28 22  2  0
 29 28  1  0
M  END
$$$$
