SFY.pdb
     RDKit          3D

 30 31  0  0  1  0  0  0  0  0999 V2000
    9.9811  -18.5831   20.7711 O   0  0  0  0  0  0  0  0  0  0  0  0
   11.1769  -17.9774   20.3908 C   0  0  0  0  0  0  0  0  0  0  0  0
   11.0074  -16.4788   20.2993 C   0  0  2  0  0  0  0  0  0  0  0  0
   12.2062  -15.8045   19.9153 N   0  0  0  0  0  0  0  0  0  0  0  0
   10.4922  -15.8945   21.5477 C   0  0  0  0  0  0  0  0  0  0  0  0
   11.3091  -15.7353   22.4903 O   0  0  0  0  0  0  0  0  0  0  0  0
    9.1518  -15.5074   21.7459 N   0  0  0  0  0  0  0  0  0  0  0  0
    8.7265  -15.0206   23.0378 C   0  0  1  0  0  0  0  0  0  0  0  0
    7.5316  -14.0855   22.8641 C   0  0  0  0  0  0  0  0  0  0  0  0
    7.0972  -13.4496   24.1035 C   0  0  0  0  0  0  0  0  0  0  0  0
    6.0316  -13.9433   24.8248 C   0  0  0  0  0  0  0  0  0  0  0  0
    5.6279  -13.3176   26.0116 C   0  0  0  0  0  0  0  0  0  0  0  0
    6.2926  -12.2041   26.4672 C   0  0  0  0  0  0  0  0  0  0  0  0
    7.3505  -11.7126   25.7527 C   0  0  0  0  0  0  0  0  0  0  0  0
    7.7349  -12.3369   24.5904 C   0  0  0  0  0  0  0  0  0  0  0  0
    8.3846  -16.1157   23.9422 C   0  0  0  0  0  0  0  0  0  0  0  0
    7.9124  -17.1943   23.4430 O   0  0  0  0  0  0  0  0  0  0  0  0
   12.9229  -14.9175   29.7420 O   0  0  0  0  0  0  0  0  0  0  0  0
   11.7384  -15.4462   29.2272 C   0  0  0  0  0  0  0  0  0  0  0  0
   10.7769  -14.5729   28.7447 C   0  0  0  0  0  0  0  0  0  0  0  0
    9.5996  -15.0901   28.2326 C   0  0  0  0  0  0  0  0  0  0  0  0
    9.3473  -16.4394   28.1843 C   0  0  0  0  0  0  0  0  0  0  0  0
    8.0633  -16.9130   27.6204 C   0  0  0  0  0  0  0  0  0  0  0  0
    8.1879  -17.3014   26.1509 C   0  0  2  0  0  0  0  0  0  0  0  0
    8.5269  -16.1133   25.3555 N   0  0  0  0  0  0  0  0  0  0  0  0
    6.9543  -17.8765   25.6289 C   0  0  0  0  0  0  0  0  0  0  0  0
    6.1229  -17.3205   24.8750 O   0  0  0  0  0  0  0  0  0  0  0  0
   10.3060  -17.2995   28.6649 C   0  0  0  0  0  0  0  0  0  0  0  0
   11.4946  -16.7973   29.1828 C   0  0  0  0  0  0  0  0  0  0  0  0
    6.6499  -19.1990   26.0030 O   0  0  0  0  0  0  0  0  0  0  0  0
  1  2  1  0
  2  3  1  0
  3  5  1  0
  3  4  1  1
  5  6  2  0
  7  5  1  0
  7  8  1  0
  8  9  1  6
  9 10  1  0
 10 15  2  0
 11 12  2  0
 11 10  1  0
 12 13  1  0
 13 14  2  0
 15 14  1  0
 16  8  1  0
 16 17  2  0
 18 19  1  0
 19 29  2  0
 19 20  1  0
 20 21  2  0
 21 22  1  0
 22 23  1  0
 24 23  1  1
 24 26  1  0
 24 25  1  0
 25 16  1  0
 26 30  1  0
 27 26  2  0
 28 22  2  0
 29 28  1  0
M  END
$$$$
