SFY.pdb
     RDKit          3D

 30 31  0  0  1  0  0  0  0  0999 V2000
   10.2701  -19.0030   20.1341 O   0  0  0  0  0  0  0  0  0  0  0  0
    8.9694  -18.7410   19.7088 C   0  0  0  0  0  0  0  0  0  0  0  0
    8.8342  -17.3016   19.2699 C   0  0  2  0  0  0  0  0  0  0  0  0
    9.7632  -16.9408   18.2472 N   0  0  0  0  0  0  0  0  0  0  0  0
    8.9484  -16.3585   20.3937 C   0  0  0  0  0  0  0  0  0  0  0  0
   10.0607  -15.7977   20.5653 O   0  0  0  0  0  0  0  0  0  0  0  0
    7.8957  -16.0509   21.2785 N   0  0  0  0  0  0  0  0  0  0  0  0
    8.1353  -15.1837   22.4088 C   0  0  1  0  0  0  0  0  0  0  0  0
    6.8058  -14.8249   23.0691 C   0  0  0  0  0  0  0  0  0  0  0  0
    6.9354  -13.8921   24.1837 C   0  0  0  0  0  0  0  0  0  0  0  0
    7.3747  -12.6006   23.9875 C   0  0  0  0  0  0  0  0  0  0  0  0
    7.4948  -11.7201   25.0706 C   0  0  0  0  0  0  0  0  0  0  0  0
    7.1747  -12.1379   26.3403 C   0  0  0  0  0  0  0  0  0  0  0  0
    6.7385  -13.4194   26.5371 C   0  0  0  0  0  0  0  0  0  0  0  0
    6.6259  -14.2716   25.4651 C   0  0  0  0  0  0  0  0  0  0  0  0
    9.0334  -15.8000   23.3821 C   0  0  0  0  0  0  0  0  0  0  0  0
    8.6892  -16.9125   23.9109 O   0  0  0  0  0  0  0  0  0  0  0  0
   11.2175  -15.9989   31.5527 O   0  0  0  0  0  0  0  0  0  0  0  0
   10.8135  -15.8774   30.2224 C   0  0  0  0  0  0  0  0  0  0  0  0
   10.7803  -14.6150   29.6521 C   0  0  0  0  0  0  0  0  0  0  0  0
   10.3807  -14.4867   28.3331 C   0  0  0  0  0  0  0  0  0  0  0  0
   10.0149  -15.5658   27.5661 C   0  0  0  0  0  0  0  0  0  0  0  0
    9.6003  -15.3450   26.1623 C   0  0  0  0  0  0  0  0  0  0  0  0
   10.7606  -15.5095   25.1863 C   0  0  2  0  0  0  0  0  0  0  0  0
   10.2845  -15.2848   23.8145 N   0  0  0  0  0  0  0  0  0  0  0  0
   11.3571  -16.8374   25.2621 C   0  0  0  0  0  0  0  0  0  0  0  0
   12.4122  -17.1575   25.8564 O   0  0  0  0  0  0  0  0  0  0  0  0
   10.0504  -16.8150   28.1388 C   0  0  0  0  0  0  0  0  0  0  0  0
   10.4493  -16.9622   29.4627 C   0  0  0  0  0  0  0  0  0  0  0  0
   10.6871  -17.8845   24.6015 O   0  0  0  0  0  0  0  0  0  0  0  0
  1  2  1  0
  2  3  1  0
  3  5  1  0
  3  4  1  6
  5  6  2  0
  7  5  1  0
  7  8  1  0
  8  9  1  1
  9 10  1  0
 10 15  2  0
 11 12  2  0
 11 10  1  0
 12 13  1  0
 13 14  2  0
 15 14  1  0
 16  8  1  0
 16 17  2  0
 18 19  1  0
 19 29  2  0
 19 20  1  0
 20 21  2  0
 21 22  1  0
 22 23  1  0
 24 23  1  1
 24 26  1  0
 24 25  1  0
 25 16  1  0
 26 30  1  0
 27 26  2  0
 28 22  2  0
 29 28  1  0
M  END
$$$$
