SFY.pdb
     RDKit          3D

 30 31  0  0  1  0  0  0  0  0999 V2000
   10.4075  -19.0622   19.8742 O   0  0  0  0  0  0  0  0  0  0  0  0
    9.0846  -18.7832   19.5376 C   0  0  0  0  0  0  0  0  0  0  0  0
    8.9368  -17.3395   19.1172 C   0  0  2  0  0  0  0  0  0  0  0  0
    9.8563  -16.9603   18.0924 N   0  0  0  0  0  0  0  0  0  0  0  0
    9.0529  -16.4094   20.2515 C   0  0  0  0  0  0  0  0  0  0  0  0
   10.1796  -15.8912   20.4597 O   0  0  0  0  0  0  0  0  0  0  0  0
    7.9870  -16.0695   21.1083 N   0  0  0  0  0  0  0  0  0  0  0  0
    8.2187  -15.1935   22.2333 C   0  0  1  0  0  0  0  0  0  0  0  0
    6.8815  -14.7851   22.8476 C   0  0  0  0  0  0  0  0  0  0  0  0
    7.0090  -13.8879   23.9913 C   0  0  0  0  0  0  0  0  0  0  0  0
    6.6325  -14.2845   25.2563 C   0  0  0  0  0  0  0  0  0  0  0  0
    6.7604  -13.4080   26.3418 C   0  0  0  0  0  0  0  0  0  0  0  0
    7.2636  -12.1429   26.1536 C   0  0  0  0  0  0  0  0  0  0  0  0
    7.6379  -11.7473   24.8988 C   0  0  0  0  0  0  0  0  0  0  0  0
    7.5065  -12.6180   23.8438 C   0  0  0  0  0  0  0  0  0  0  0  0
    9.0678  -15.8223   23.2421 C   0  0  0  0  0  0  0  0  0  0  0  0
    8.6619  -16.9023   23.7939 O   0  0  0  0  0  0  0  0  0  0  0  0
   10.9844  -15.9080   31.4715 O   0  0  0  0  0  0  0  0  0  0  0  0
   10.6413  -15.7727   30.1256 C   0  0  0  0  0  0  0  0  0  0  0  0
   10.6395  -14.5051   29.5658 C   0  0  0  0  0  0  0  0  0  0  0  0
   10.3003  -14.3631   28.2315 C   0  0  0  0  0  0  0  0  0  0  0  0
    9.9646  -15.4334   27.4389 C   0  0  0  0  0  0  0  0  0  0  0  0
    9.6146  -15.1981   26.0200 C   0  0  0  0  0  0  0  0  0  0  0  0
   10.7631  -15.5446   25.0783 C   0  0  2  0  0  0  0  0  0  0  0  0
   10.3326  -15.3527   23.6866 N   0  0  0  0  0  0  0  0  0  0  0  0
   11.2109  -16.9221   25.2430 C   0  0  0  0  0  0  0  0  0  0  0  0
   10.6454  -17.9550   24.8163 O   0  0  0  0  0  0  0  0  0  0  0  0
    9.9686  -16.6879   28.0012 C   0  0  0  0  0  0  0  0  0  0  0  0
   10.3068  -16.8489   29.3403 C   0  0  0  0  0  0  0  0  0  0  0  0
   12.4065  -17.1311   25.9560 O   0  0  0  0  0  0  0  0  0  0  0  0
  1  2  1  0
  2  3  1  0
  3  5  1  0
  3  4  1  6
  5  6  2  0
  7  5  1  0
  7  8  1  0
  8  9  1  1
  9 10  1  0
 10 15  2  0
 11 12  2  0
 11 10  1  0
 12 13  1  0
 13 14  2  0
 15 14  1  0
 16  8  1  0
 16 17  2  0
 18 19  1  0
 19 29  2  0
 19 20  1  0
 20 21  2  0
 21 22  1  0
 22 23  1  0
 24 23  1  1
 24 26  1  0
 24 25  1  0
 25 16  1  0
 26 30  1  0
 27 26  2  0
 28 22  2  0
 29 28  1  0
M  END
$$$$
