SFY.pdb
     RDKit          3D

 30 31  0  0  1  0  0  0  0  0999 V2000
    6.3231  -19.8938   21.1019 O   0  0  0  0  0  0  0  0  0  0  0  0
    5.4913  -20.0493   22.2088 C   0  0  0  0  0  0  0  0  0  0  0  0
    4.6280  -18.8242   22.4004 C   0  0  2  0  0  0  0  0  0  0  0  0
    3.8802  -18.4809   21.2332 N   0  0  0  0  0  0  0  0  0  0  0  0
    5.4019  -17.6563   22.8504 C   0  0  0  0  0  0  0  0  0  0  0  0
    5.7147  -16.8022   21.9822 O   0  0  0  0  0  0  0  0  0  0  0  0
    5.8082  -17.4420   24.1826 N   0  0  0  0  0  0  0  0  0  0  0  0
    6.5232  -16.2364   24.5322 C   0  0  1  0  0  0  0  0  0  0  0  0
    6.3526  -15.9548   26.0234 C   0  0  0  0  0  0  0  0  0  0  0  0
    6.8396  -14.6418   26.4336 C   0  0  0  0  0  0  0  0  0  0  0  0
    8.1111  -14.4770   26.9391 C   0  0  0  0  0  0  0  0  0  0  0  0
    8.5600  -13.2085   27.3297 C   0  0  0  0  0  0  0  0  0  0  0  0
    7.7345  -12.1160   27.2116 C   0  0  0  0  0  0  0  0  0  0  0  0
    6.4721  -12.2776   26.7101 C   0  0  0  0  0  0  0  0  0  0  0  0
    6.0457  -13.5278   26.3313 C   0  0  0  0  0  0  0  0  0  0  0  0
    7.9412  -16.3318   24.1943 C   0  0  0  0  0  0  0  0  0  0  0  0
    8.5034  -17.4796   24.2405 O   0  0  0  0  0  0  0  0  0  0  0  0
    6.8878  -13.7977   17.9381 O   0  0  0  0  0  0  0  0  0  0  0  0
    7.7528  -13.9008   19.0284 C   0  0  0  0  0  0  0  0  0  0  0  0
    8.7247  -14.8884   19.0129 C   0  0  0  0  0  0  0  0  0  0  0  0
    9.5862  -14.9966   20.0908 C   0  0  0  0  0  0  0  0  0  0  0  0
    9.5143  -14.1604   21.1781 C   0  0  0  0  0  0  0  0  0  0  0  0
   10.4735  -14.3408   22.2910 C   0  0  0  0  0  0  0  0  0  0  0  0
   10.0967  -15.5121   23.1920 C   0  0  2  0  0  0  0  0  0  0  0  0
    8.7862  -15.2581   23.8060 N   0  0  0  0  0  0  0  0  0  0  0  0
   11.0751  -15.7264   24.2512 C   0  0  0  0  0  0  0  0  0  0  0  0
   12.2903  -15.9960   24.1120 O   0  0  0  0  0  0  0  0  0  0  0  0
    8.5475  -13.1832   21.1863 C   0  0  0  0  0  0  0  0  0  0  0  0
    7.6736  -13.0601   20.1118 C   0  0  0  0  0  0  0  0  0  0  0  0
   10.6213  -15.6223   25.5796 O   0  0  0  0  0  0  0  0  0  0  0  0
  1  2  1  0
  2  3  1  0
  3  5  1  0
  3  4  1  6
  5  6  2  0
  7  5  1  0
  7  8  1  0
  8  9  1  1
  9 10  1  0
 10 15  2  0
 11 12  2  0
 11 10  1  0
 12 13  1  0
 13 14  2  0
 15 14  1  0
 16  8  1  0
 16 17  2  0
 18 19  1  0
 19 29  2  0
 19 20  1  0
 20 21  2  0
 21 22  1  0
 22 23  1  0
 24 23  1  1
 24 26  1  0
 24 25  1  0
 25 16  1  0
 26 30  1  0
 27 26  2  0
 28 22  2  0
 29 28  1  0
M  END
$$$$
