SFY.pdb
     RDKit          3D

 30 31  0  0  1  0  0  0  0  0999 V2000
    9.7433  -18.8229   21.4799 O   0  0  0  0  0  0  0  0  0  0  0  0
    9.0291  -18.0145   20.5981 C   0  0  0  0  0  0  0  0  0  0  0  0
    9.6531  -16.6410   20.5131 C   0  0  2  0  0  0  0  0  0  0  0  0
   11.0003  -16.6690   20.0402 N   0  0  0  0  0  0  0  0  0  0  0  0
    9.5957  -15.9176   21.7932 C   0  0  0  0  0  0  0  0  0  0  0  0
   10.6664  -15.8106   22.4439 O   0  0  0  0  0  0  0  0  0  0  0  0
    8.4239  -15.3444   22.3261 N   0  0  0  0  0  0  0  0  0  0  0  0
    8.4647  -14.6856   23.6111 C   0  0  1  0  0  0  0  0  0  0  0  0
    7.1510  -13.9437   23.8475 C   0  0  0  0  0  0  0  0  0  0  0  0
    7.1010  -13.2257   25.1168 C   0  0  0  0  0  0  0  0  0  0  0  0
    6.2545  -13.6222   26.1295 C   0  0  0  0  0  0  0  0  0  0  0  0
    6.2192  -12.9187   27.3406 C   0  0  0  0  0  0  0  0  0  0  0  0
    7.0301  -11.8251   27.5291 C   0  0  0  0  0  0  0  0  0  0  0  0
    7.8710  -11.4298   26.5251 C   0  0  0  0  0  0  0  0  0  0  0  0
    7.8946  -12.1297   25.3428 C   0  0  0  0  0  0  0  0  0  0  0  0
    8.7136  -15.6318   24.6959 C   0  0  0  0  0  0  0  0  0  0  0  0
    7.9569  -16.6579   24.7960 O   0  0  0  0  0  0  0  0  0  0  0  0
   15.6899  -15.4454   24.1813 O   0  0  0  0  0  0  0  0  0  0  0  0
   14.5162  -15.9846   24.7096 C   0  0  0  0  0  0  0  0  0  0  0  0
   13.4947  -16.3301   23.8393 C   0  0  0  0  0  0  0  0  0  0  0  0
   12.3276  -16.8656   24.3561 C   0  0  0  0  0  0  0  0  0  0  0  0
   12.1429  -17.0680   25.7020 C   0  0  0  0  0  0  0  0  0  0  0  0
   10.8652  -17.6465   26.1753 C   0  0  0  0  0  0  0  0  0  0  0  0
    9.9075  -16.5798   26.6956 C   0  0  2  0  0  0  0  0  0  0  0  0
    9.7360  -15.5345   25.6772 N   0  0  0  0  0  0  0  0  0  0  0  0
   10.3908  -15.9607   27.9236 C   0  0  0  0  0  0  0  0  0  0  0  0
   10.5999  -14.7418   28.1221 O   0  0  0  0  0  0  0  0  0  0  0  0
   13.1607  -16.7227   26.5591 C   0  0  0  0  0  0  0  0  0  0  0  0
   14.3400  -16.1836   26.0572 C   0  0  0  0  0  0  0  0  0  0  0  0
   10.6558  -16.8107   29.0140 O   0  0  0  0  0  0  0  0  0  0  0  0
  1  2  1  0
  2  3  1  0
  3  5  1  0
  3  4  1  1
  5  6  2  0
  7  5  1  0
  7  8  1  0
  8  9  1  1
  9 10  1  0
 10 15  2  0
 11 12  2  0
 11 10  1  0
 12 13  1  0
 13 14  2  0
 15 14  1  0
 16  8  1  0
 16 17  2  0
 18 19  1  0
 19 29  2  0
 19 20  1  0
 20 21  2  0
 21 22  1  0
 22 23  1  0
 24 23  1  6
 24 26  1  0
 24 25  1  0
 25 16  1  0
 26 30  1  0
 27 26  2  0
 28 22  2  0
 29 28  1  0
M  END
$$$$
