SFY.pdb
     RDKit          3D

 30 31  0  0  1  0  0  0  0  0999 V2000
   10.0825  -18.8000   22.2158 O   0  0  0  0  0  0  0  0  0  0  0  0
   10.8996  -18.1063   21.3256 C   0  0  0  0  0  0  0  0  0  0  0  0
   10.3725  -16.7084   21.1003 C   0  0  2  0  0  0  0  0  0  0  0  0
   11.1638  -15.9557   20.1801 N   0  0  0  0  0  0  0  0  0  0  0  0
   10.2261  -15.9541   22.3553 C   0  0  0  0  0  0  0  0  0  0  0  0
   11.2692  -15.4660   22.8601 O   0  0  0  0  0  0  0  0  0  0  0  0
    8.9987  -15.7493   23.0166 N   0  0  0  0  0  0  0  0  0  0  0  0
    8.9652  -15.0181   24.2621 C   0  0  1  0  0  0  0  0  0  0  0  0
    7.5214  -14.6567   24.6044 C   0  0  0  0  0  0  0  0  0  0  0  0
    7.3984  -13.6963   25.6960 C   0  0  0  0  0  0  0  0  0  0  0  0
    6.1719  -13.1885   26.0664 C   0  0  0  0  0  0  0  0  0  0  0  0
    6.0741  -12.2655   27.1159 C   0  0  0  0  0  0  0  0  0  0  0  0
    7.2028  -11.8581   27.7861 C   0  0  0  0  0  0  0  0  0  0  0  0
    8.4211  -12.3609   27.4200 C   0  0  0  0  0  0  0  0  0  0  0  0
    8.5014  -13.2655   26.3886 C   0  0  0  0  0  0  0  0  0  0  0  0
    9.5681  -15.7803   25.3527 C   0  0  0  0  0  0  0  0  0  0  0  0
    9.2349  -17.0066   25.4969 O   0  0  0  0  0  0  0  0  0  0  0  0
   14.5220  -19.9646   23.5897 O   0  0  0  0  0  0  0  0  0  0  0  0
   14.0419  -19.0027   24.4796 C   0  0  0  0  0  0  0  0  0  0  0  0
   13.6662  -19.4046   25.7514 C   0  0  0  0  0  0  0  0  0  0  0  0
   13.1890  -18.4561   26.6394 C   0  0  0  0  0  0  0  0  0  0  0  0
   13.0734  -17.1284   26.3072 C   0  0  0  0  0  0  0  0  0  0  0  0
   12.5547  -16.1758   27.3145 C   0  0  0  0  0  0  0  0  0  0  0  0
   11.0305  -16.1614   27.3624 C   0  0  2  0  0  0  0  0  0  0  0  0
   10.5134  -15.2942   26.2949 N   0  0  0  0  0  0  0  0  0  0  0  0
   10.5264  -15.6782   28.6421 C   0  0  0  0  0  0  0  0  0  0  0  0
    9.8976  -14.6156   28.8523 O   0  0  0  0  0  0  0  0  0  0  0  0
   13.4481  -16.7373   25.0437 C   0  0  0  0  0  0  0  0  0  0  0  0
   13.9296  -17.6768   24.1388 C   0  0  0  0  0  0  0  0  0  0  0  0
   10.7634  -16.4811   29.7738 O   0  0  0  0  0  0  0  0  0  0  0  0
  1  2  1  0
  2  3  1  0
  3  5  1  0
  3  4  1  6
  5  6  2  0
  7  5  1  0
  7  8  1  0
  8  9  1  1
  9 10  1  0
 10 15  2  0
 11 12  2  0
 11 10  1  0
 12 13  1  0
 13 14  2  0
 15 14  1  0
 16  8  1  0
 16 17  2  0
 18 19  1  0
 19 29  2  0
 19 20  1  0
 20 21  2  0
 21 22  1  0
 22 23  1  0
 24 23  1  1
 24 26  1  0
 24 25  1  0
 25 16  1  0
 26 30  1  0
 27 26  2  0
 28 22  2  0
 29 28  1  0
M  END
$$$$
