SFY.pdb
     RDKit          3D

 30 31  0  0  1  0  0  0  0  0999 V2000
    9.6770  -19.1011   19.9708 O   0  0  0  0  0  0  0  0  0  0  0  0
    8.6596  -18.5052   19.2286 C   0  0  0  0  0  0  0  0  0  0  0  0
    8.9581  -17.0423   18.9972 C   0  0  2  0  0  0  0  0  0  0  0  0
   10.1203  -16.8305   18.1947 N   0  0  0  0  0  0  0  0  0  0  0  0
    9.0844  -16.2889   20.2549 C   0  0  0  0  0  0  0  0  0  0  0  0
   10.2190  -15.8274   20.5396 O   0  0  0  0  0  0  0  0  0  0  0  0
    8.0198  -16.0572   21.1486 N   0  0  0  0  0  0  0  0  0  0  0  0
    8.2301  -15.2429   22.3232 C   0  0  1  0  0  0  0  0  0  0  0  0
    6.8822  -14.7858   22.8768 C   0  0  0  0  0  0  0  0  0  0  0  0
    6.9859  -13.9911   24.0962 C   0  0  0  0  0  0  0  0  0  0  0  0
    6.5804  -14.4938   25.3136 C   0  0  0  0  0  0  0  0  0  0  0  0
    6.6858  -13.7147   26.4733 C   0  0  0  0  0  0  0  0  0  0  0  0
    7.1956  -12.4401   26.4062 C   0  0  0  0  0  0  0  0  0  0  0  0
    7.5987  -11.9392   25.1987 C   0  0  0  0  0  0  0  0  0  0  0  0
    7.4891  -12.7152   24.0699 C   0  0  0  0  0  0  0  0  0  0  0  0
    8.9819  -15.9597   23.3503 C   0  0  0  0  0  0  0  0  0  0  0  0
    8.3959  -16.8980   23.9920 O   0  0  0  0  0  0  0  0  0  0  0  0
   11.0625  -15.8146   31.5343 O   0  0  0  0  0  0  0  0  0  0  0  0
   10.8755  -15.6130   30.1661 C   0  0  0  0  0  0  0  0  0  0  0  0
    9.9661  -14.6514   29.7556 C   0  0  0  0  0  0  0  0  0  0  0  0
    9.7754  -14.4460   28.4002 C   0  0  0  0  0  0  0  0  0  0  0  0
   10.4548  -15.1606   27.4440 C   0  0  0  0  0  0  0  0  0  0  0  0
   10.1946  -14.8803   26.0140 C   0  0  0  0  0  0  0  0  0  0  0  0
   10.7873  -15.9481   25.1006 C   0  0  2  0  0  0  0  0  0  0  0  0
   10.3324  -15.7230   23.7217 N   0  0  0  0  0  0  0  0  0  0  0  0
   10.4000  -17.2936   25.5064 C   0  0  0  0  0  0  0  0  0  0  0  0
   11.1366  -18.1687   26.0167 O   0  0  0  0  0  0  0  0  0  0  0  0
   11.3552  -16.1129   27.8589 C   0  0  0  0  0  0  0  0  0  0  0  0
   11.5594  -16.3325   29.2167 C   0  0  0  0  0  0  0  0  0  0  0  0
    9.0565  -17.6653   25.3105 O   0  0  0  0  0  0  0  0  0  0  0  0
  1  2  1  0
  2  3  1  0
  3  5  1  0
  3  4  1  1
  5  6  2  0
  7  5  1  0
  7  8  1  0
  8  9  1  1
  9 10  1  0
 10 15  2  0
 11 12  2  0
 11 10  1  0
 12 13  1  0
 13 14  2  0
 15 14  1  0
 16  8  1  0
 16 17  2  0
 18 19  1  0
 19 29  2  0
 19 20  1  0
 20 21  2  0
 21 22  1  0
 22 23  1  0
 24 23  1  1
 24 26  1  0
 24 25  1  0
 25 16  1  0
 26 30  1  0
 27 26  2  0
 28 22  2  0
 29 28  1  0
M  END
$$$$
