SFY.pdb
     RDKit          3D

 30 31  0  0  1  0  0  0  0  0999 V2000
    7.2664  -20.6269   23.5230 O   0  0  0  0  0  0  0  0  0  0  0  0
    6.1727  -20.4413   24.3660 C   0  0  0  0  0  0  0  0  0  0  0  0
    5.3246  -19.2855   23.8887 C   0  0  2  0  0  0  0  0  0  0  0  0
    4.6986  -19.5358   22.6297 N   0  0  0  0  0  0  0  0  0  0  0  0
    6.0803  -18.0247   23.8206 C   0  0  0  0  0  0  0  0  0  0  0  0
    6.4621  -17.6415   22.6854 O   0  0  0  0  0  0  0  0  0  0  0  0
    6.3972  -17.2308   24.9409 N   0  0  0  0  0  0  0  0  0  0  0  0
    7.2791  -16.0962   24.7931 C   0  0  1  0  0  0  0  0  0  0  0  0
    6.8988  -15.0174   25.8049 C   0  0  0  0  0  0  0  0  0  0  0  0
    7.9584  -14.7052   26.7582 C   0  0  0  0  0  0  0  0  0  0  0  0
    8.1499  -15.4688   27.8895 C   0  0  0  0  0  0  0  0  0  0  0  0
    9.1715  -15.1520   28.7944 C   0  0  0  0  0  0  0  0  0  0  0  0
    9.9927  -14.0749   28.5610 C   0  0  0  0  0  0  0  0  0  0  0  0
    9.8043  -13.3157   27.4387 C   0  0  0  0  0  0  0  0  0  0  0  0
    8.7981  -13.6387   26.5603 C   0  0  0  0  0  0  0  0  0  0  0  0
    8.6800  -16.4751   24.9601 C   0  0  0  0  0  0  0  0  0  0  0  0
    9.2034  -16.3791   26.1230 O   0  0  0  0  0  0  0  0  0  0  0  0
    7.0773  -13.8261   17.8860 O   0  0  0  0  0  0  0  0  0  0  0  0
    7.6800  -14.0809   19.1186 C   0  0  0  0  0  0  0  0  0  0  0  0
    7.5004  -13.1683   20.1458 C   0  0  0  0  0  0  0  0  0  0  0  0
    8.0951  -13.4143   21.3712 C   0  0  0  0  0  0  0  0  0  0  0  0
    8.8584  -14.5313   21.6085 C   0  0  0  0  0  0  0  0  0  0  0  0
    9.4600  -14.7223   22.9475 C   0  0  0  0  0  0  0  0  0  0  0  0
   10.2464  -16.0253   23.0452 C   0  0  2  0  0  0  0  0  0  0  0  0
    9.5473  -16.9551   23.9427 N   0  0  0  0  0  0  0  0  0  0  0  0
   11.5971  -15.8141   23.5513 C   0  0  0  0  0  0  0  0  0  0  0  0
   12.5697  -15.3320   22.9265 O   0  0  0  0  0  0  0  0  0  0  0  0
    9.0320  -15.4320   20.5846 C   0  0  0  0  0  0  0  0  0  0  0  0
    8.4418  -15.2007   19.3471 C   0  0  0  0  0  0  0  0  0  0  0  0
   11.8524  -16.1869   24.8845 O   0  0  0  0  0  0  0  0  0  0  0  0
  1  2  1  0
  2  3  1  0
  3  5  1  0
  3  4  1  6
  5  6  2  0
  7  5  1  0
  7  8  1  0
  8  9  1  1
  9 10  1  0
 10 15  2  0
 11 12  2  0
 11 10  1  0
 12 13  1  0
 13 14  2  0
 15 14  1  0
 16  8  1  0
 16 17  2  0
 18 19  1  0
 19 29  2  0
 19 20  1  0
 20 21  2  0
 21 22  1  0
 22 23  1  0
 24 23  1  1
 24 26  1  0
 24 25  1  0
 25 16  1  0
 26 30  1  0
 27 26  2  0
 28 22  2  0
 29 28  1  0
M  END
$$$$
