SFY.pdb
     RDKit          3D

 30 31  0  0  1  0  0  0  0  0999 V2000
   11.5524  -19.1722   13.5517 O   0  0  0  0  0  0  0  0  0  0  0  0
   11.6304  -18.3286   14.6579 C   0  0  0  0  0  0  0  0  0  0  0  0
   11.0426  -16.9745   14.3354 C   0  0  2  0  0  0  0  0  0  0  0  0
   11.8051  -16.2517   13.3682 N   0  0  0  0  0  0  0  0  0  0  0  0
   10.8547  -16.1435   15.5351 C   0  0  0  0  0  0  0  0  0  0  0  0
   11.8030  -15.3877   15.8677 O   0  0  0  0  0  0  0  0  0  0  0  0
    9.6870  -16.1455   16.3239 N   0  0  0  0  0  0  0  0  0  0  0  0
    9.5757  -15.2447   17.4478 C   0  0  1  0  0  0  0  0  0  0  0  0
    8.1051  -15.0724   17.8217 C   0  0  0  0  0  0  0  0  0  0  0  0
    7.8846  -14.1532   18.9333 C   0  0  0  0  0  0  0  0  0  0  0  0
    7.4276  -14.6033   20.1531 C   0  0  0  0  0  0  0  0  0  0  0  0
    7.2198  -13.7050   21.2081 C   0  0  0  0  0  0  0  0  0  0  0  0
    7.4704  -12.3648   21.0347 C   0  0  0  0  0  0  0  0  0  0  0  0
    7.9240  -11.9160   19.8247 C   0  0  0  0  0  0  0  0  0  0  0  0
    8.1231  -12.8089   18.7993 C   0  0  0  0  0  0  0  0  0  0  0  0
   10.3381  -15.7207   18.5994 C   0  0  0  0  0  0  0  0  0  0  0  0
   10.4545  -16.9822   18.7748 O   0  0  0  0  0  0  0  0  0  0  0  0
   16.7184  -14.4361   16.7982 O   0  0  0  0  0  0  0  0  0  0  0  0
   15.8125  -14.5051   17.8576 C   0  0  0  0  0  0  0  0  0  0  0  0
   14.6095  -13.8264   17.7468 C   0  0  0  0  0  0  0  0  0  0  0  0
   13.7061  -13.8904   18.7934 C   0  0  0  0  0  0  0  0  0  0  0  0
   13.9571  -14.6027   19.9407 C   0  0  0  0  0  0  0  0  0  0  0  0
   12.9386  -14.6220   21.0147 C   0  0  0  0  0  0  0  0  0  0  0  0
   11.7530  -15.5164   20.6681 C   0  0  2  0  0  0  0  0  0  0  0  0
   10.9852  -14.9114   19.5711 N   0  0  0  0  0  0  0  0  0  0  0  0
   10.8642  -15.7147   21.8064 C   0  0  0  0  0  0  0  0  0  0  0  0
    9.6586  -15.3854   21.8882 O   0  0  0  0  0  0  0  0  0  0  0  0
   15.1528  -15.2733   20.0433 C   0  0  0  0  0  0  0  0  0  0  0  0
   16.0720  -15.2200   19.0014 C   0  0  0  0  0  0  0  0  0  0  0  0
   11.4038  -16.3430   22.9447 O   0  0  0  0  0  0  0  0  0  0  0  0
  1  2  1  0
  2  3  1  0
  3  5  1  0
  3  4  1  6
  5  6  2  0
  7  5  1  0
  7  8  1  0
  8  9  1  1
  9 10  1  0
 10 15  2  0
 11 12  2  0
 11 10  1  0
 12 13  1  0
 13 14  2  0
 15 14  1  0
 16  8  1  0
 16 17  2  0
 18 19  1  0
 19 29  2  0
 19 20  1  0
 20 21  2  0
 21 22  1  0
 22 23  1  0
 24 23  1  1
 24 26  1  0
 24 25  1  0
 25 16  1  0
 26 30  1  0
 27 26  2  0
 28 22  2  0
 29 28  1  0
M  END
$$$$
