HYV.pdb
     RDKit          3D

 30 31  0  0  1  0  0  0  0  0999 V2000
    8.8147  -17.2195   19.7295 N   0  0  0  0  0  0  0  0  0  0  0  0
    8.5994  -15.9959   20.4668 C   0  0  1  0  0  0  0  0  0  0  0  0
    7.3637  -15.2450   19.9819 C   0  0  0  0  0  0  0  0  0  0  0  0
    7.7154  -14.4226   18.7923 C   0  0  0  0  0  0  0  0  0  0  0  0
    8.4161  -13.2262   18.8207 C   0  0  0  0  0  0  0  0  0  0  0  0
    8.5377  -12.7828   17.5493 N   0  0  0  0  0  0  0  0  0  0  0  0
    7.9269  -13.6832   16.7524 C   0  0  0  0  0  0  0  0  0  0  0  0
    7.4207  -14.6897   17.5020 N   0  0  0  0  0  0  0  0  0  0  0  0
    8.5205  -16.2401   21.9215 C   0  0  0  0  0  0  0  0  0  0  0  0
    7.4731  -16.7139   22.4329 O   0  0  0  0  0  0  0  0  0  0  0  0
   10.9776  -22.2776   23.0736 O   0  0  0  0  0  0  0  0  0  0  0  0
   10.9151  -20.9382   23.4877 C   0  0  0  0  0  0  0  0  0  0  0  0
   10.0970  -20.5178   24.5080 C   0  0  0  0  0  0  0  0  0  0  0  0
   10.0119  -19.2127   24.9383 C   0  0  0  0  0  0  0  0  0  0  0  0
   10.7822  -18.2560   24.3251 C   0  0  0  0  0  0  0  0  0  0  0  0
   10.7607  -16.8221   24.7153 C   0  0  0  0  0  0  0  0  0  0  0  0
    9.4704  -16.1528   24.2247 C   0  0  2  0  0  0  0  0  0  0  0  0
    9.5897  -15.9635   22.8037 N   0  0  0  0  0  0  0  0  0  0  0  0
    9.3300  -14.8875   24.9649 C   0  0  0  0  0  0  0  0  0  0  0  0
   10.1736  -13.9632   24.7881 O   0  0  0  0  0  0  0  0  0  0  0  0
   11.6126  -18.6510   23.2975 C   0  0  0  0  0  0  0  0  0  0  0  0
   11.6866  -19.9640   22.8778 C   0  0  0  0  0  0  0  0  0  0  0  0
    6.0180  -12.7098   25.4710 C   0  0  0  0  0  0  0  0  0  0  0  0
    6.7492  -12.9023   26.7832 C   0  0  2  0  0  0  0  0  0  0  0  0
    6.5987  -11.6674   27.6013 C   0  0  0  0  0  0  0  0  0  0  0  0
    8.1734  -13.3332   26.5880 C   0  0  2  0  0  0  0  0  0  0  0  0
    8.2947  -14.6000   25.8945 N   0  0  0  0  0  0  0  0  0  0  0  0
    8.8905  -13.4821   27.8819 C   0  0  0  0  0  0  0  0  0  0  0  0
    9.0239  -14.6239   28.3822 O   0  0  0  0  0  0  0  0  0  0  0  0
    9.4297  -12.4095   28.5792 O   0  0  0  0  0  0  0  0  0  0  0  0
  2  1  1  6
  2  3  1  0
  3  4  1  0
  4  5  2  0
  5  6  1  0
  7  6  1  0
  8  4  1  0
  8  7  2  0
  9  2  1  0
  9 18  1  0
 10  9  2  0
 12 22  2  0
 12 11  1  0
 13 12  1  0
 14 13  2  0
 15 14  1  0
 15 21  2  0
 17 16  1  1
 16 15  1  0
 17 18  1  0
 19 17  1  0
 20 19  2  0
 21 22  1  0
 24 23  1  6
 24 26  1  0
 25 24  1  0
 26 27  1  1
 26 28  1  0
 27 19  1  0
 28 30  1  0
 29 28  2  0
M  END
$$$$
