HYV.pdb
     RDKit          3D

 30 31  0  0  1  0  0  0  0  0999 V2000
   10.8895  -16.3906   17.0965 N   0  0  0  0  0  0  0  0  0  0  0  0
   10.2545  -16.1123   18.3641 C   0  0  1  0  0  0  0  0  0  0  0  0
    8.7337  -16.1725   18.2681 C   0  0  0  0  0  0  0  0  0  0  0  0
    8.2691  -15.2932   17.1607 C   0  0  0  0  0  0  0  0  0  0  0  0
    8.3104  -13.9070   17.1636 C   0  0  0  0  0  0  0  0  0  0  0  0
    7.8029  -13.4715   15.9886 N   0  0  0  0  0  0  0  0  0  0  0  0
    7.4556  -14.5618   15.2750 C   0  0  0  0  0  0  0  0  0  0  0  0
    7.7363  -15.6809   15.9822 N   0  0  0  0  0  0  0  0  0  0  0  0
   10.7431  -17.0107   19.4300 C   0  0  0  0  0  0  0  0  0  0  0  0
   11.6792  -17.8200   19.2026 O   0  0  0  0  0  0  0  0  0  0  0  0
   15.4573  -14.2325   17.9966 O   0  0  0  0  0  0  0  0  0  0  0  0
   14.3891  -14.4142   18.8884 C   0  0  0  0  0  0  0  0  0  0  0  0
   13.2006  -13.7364   18.7655 C   0  0  0  0  0  0  0  0  0  0  0  0
   12.1341  -13.8912   19.6224 C   0  0  0  0  0  0  0  0  0  0  0  0
   12.2421  -14.7710   20.6707 C   0  0  0  0  0  0  0  0  0  0  0  0
   11.1491  -15.0072   21.6496 C   0  0  0  0  0  0  0  0  0  0  0  0
   10.9384  -16.5116   21.8645 C   0  0  2  0  0  0  0  0  0  0  0  0
   10.2023  -17.0150   20.7358 N   0  0  0  0  0  0  0  0  0  0  0  0
   10.2189  -16.6706   23.1394 C   0  0  0  0  0  0  0  0  0  0  0  0
   10.0223  -15.6626   23.8760 O   0  0  0  0  0  0  0  0  0  0  0  0
   13.4248  -15.4648   20.8173 C   0  0  0  0  0  0  0  0  0  0  0  0
   14.4852  -15.2983   19.9493 C   0  0  0  0  0  0  0  0  0  0  0  0
   10.8890  -20.2102   22.2504 C   0  0  0  0  0  0  0  0  0  0  0  0
   11.5240  -19.5497   23.4563 C   0  0  2  0  0  0  0  0  0  0  0  0
   12.3693  -20.5520   24.1620 C   0  0  0  0  0  0  0  0  0  0  0  0
   10.5144  -18.8757   24.3386 C   0  0  2  0  0  0  0  0  0  0  0  0
    9.7063  -17.8992   23.6360 N   0  0  0  0  0  0  0  0  0  0  0  0
   11.1575  -18.1632   25.4741 C   0  0  0  0  0  0  0  0  0  0  0  0
   12.0841  -17.3508   25.2436 O   0  0  0  0  0  0  0  0  0  0  0  0
   10.7833  -18.3504   26.7979 O   0  0  0  0  0  0  0  0  0  0  0  0
  2  1  1  6
  2  3  1  0
  3  4  1  0
  4  5  2  0
  5  6  1  0
  7  6  1  0
  8  4  1  0
  8  7  2  0
  9  2  1  0
  9 18  1  0
 10  9  2  0
 12 22  2  0
 12 11  1  0
 13 12  1  0
 14 13  2  0
 15 14  1  0
 15 21  2  0
 17 16  1  6
 16 15  1  0
 17 18  1  0
 19 17  1  0
 20 19  2  0
 21 22  1  0
 24 23  1  6
 24 26  1  0
 25 24  1  0
 26 27  1  6
 26 28  1  0
 27 19  1  0
 28 30  1  0
 29 28  2  0
M  END
$$$$
