HYV.pdb
     RDKit          3D

 30 31  0  0  1  0  0  0  0  0999 V2000
   10.2101  -15.3837   19.9991 N   0  0  0  0  0  0  0  0  0  0  0  0
    9.2422  -14.8405   20.9242 C   0  0  1  0  0  0  0  0  0  0  0  0
    7.8106  -15.0421   20.4389 C   0  0  0  0  0  0  0  0  0  0  0  0
    7.6327  -14.3746   19.1206 C   0  0  0  0  0  0  0  0  0  0  0  0
    7.8720  -13.0338   18.8596 C   0  0  0  0  0  0  0  0  0  0  0  0
    7.5975  -12.8065   17.5554 N   0  0  0  0  0  0  0  0  0  0  0  0
    7.1977  -13.9785   17.0214 C   0  0  0  0  0  0  0  0  0  0  0  0
    7.2155  -14.9439   17.9695 N   0  0  0  0  0  0  0  0  0  0  0  0
    9.4126  -15.3950   22.2827 C   0  0  0  0  0  0  0  0  0  0  0  0
    9.9352  -16.5274   22.4486 O   0  0  0  0  0  0  0  0  0  0  0  0
   10.7979  -15.6979   30.9367 O   0  0  0  0  0  0  0  0  0  0  0  0
   10.3875  -15.2743   29.6634 C   0  0  0  0  0  0  0  0  0  0  0  0
    9.3199  -14.4309   29.4738 C   0  0  0  0  0  0  0  0  0  0  0  0
    8.8917  -13.9968   28.2393 C   0  0  0  0  0  0  0  0  0  0  0  0
    9.5567  -14.4197   27.1153 C   0  0  0  0  0  0  0  0  0  0  0  0
    9.1713  -14.0090   25.7399 C   0  0  0  0  0  0  0  0  0  0  0  0
    9.3335  -15.1826   24.7653 C   0  0  2  0  0  0  0  0  0  0  0  0
    9.0091  -14.7042   23.4480 N   0  0  0  0  0  0  0  0  0  0  0  0
    8.4365  -16.2557   25.2260 C   0  0  0  0  0  0  0  0  0  0  0  0
    7.1847  -16.0926   25.1658 O   0  0  0  0  0  0  0  0  0  0  0  0
   10.6324  -15.2671   27.2771 C   0  0  0  0  0  0  0  0  0  0  0  0
   11.0495  -15.6933   28.5221 C   0  0  0  0  0  0  0  0  0  0  0  0
    8.7264  -20.1537   24.3316 C   0  0  0  0  0  0  0  0  0  0  0  0
    7.5514  -19.4254   24.9500 C   0  0  2  0  0  0  0  0  0  0  0  0
    6.8304  -18.6831   23.8795 C   0  0  0  0  0  0  0  0  0  0  0  0
    7.9556  -18.5718   26.1162 C   0  0  2  0  0  0  0  0  0  0  0  0
    8.8653  -17.5041   25.7517 N   0  0  0  0  0  0  0  0  0  0  0  0
    8.6292  -19.3655   27.1779 C   0  0  0  0  0  0  0  0  0  0  0  0
    9.8668  -19.2484   27.3402 O   0  0  0  0  0  0  0  0  0  0  0  0
    7.9531  -20.2440   28.0137 O   0  0  0  0  0  0  0  0  0  0  0  0
  2  1  1  6
  2  3  1  0
  3  4  1  0
  4  5  2  0
  5  6  1  0
  7  6  1  0
  8  4  1  0
  8  7  2  0
  9  2  1  0
  9 18  1  0
 10  9  2  0
 12 22  2  0
 12 11  1  0
 13 12  1  0
 14 13  2  0
 15 14  1  0
 15 21  2  0
 17 16  1  1
 16 15  1  0
 17 18  1  0
 19 17  1  0
 20 19  2  0
 21 22  1  0
 24 23  1  6
 24 26  1  0
 25 24  1  0
 26 27  1  6
 26 28  1  0
 27 19  1  0
 28 30  1  0
 29 28  2  0
M  END
$$$$
