HYV.pdb
     RDKit          3D

 30 31  0  0  1  0  0  0  0  0999 V2000
    8.6621  -16.3578   20.0775 N   0  0  0  0  0  0  0  0  0  0  0  0
    7.9422  -15.2158   20.5923 C   0  0  1  0  0  0  0  0  0  0  0  0
    6.7872  -14.8095   19.6830 C   0  0  0  0  0  0  0  0  0  0  0  0
    7.2885  -14.6233   18.2940 C   0  0  0  0  0  0  0  0  0  0  0  0
    8.0371  -13.5448   17.8473 C   0  0  0  0  0  0  0  0  0  0  0  0
    8.3001  -13.7337   16.5347 N   0  0  0  0  0  0  0  0  0  0  0  0
    7.7281  -14.9014   16.1769 C   0  0  0  0  0  0  0  0  0  0  0  0
    7.1069  -15.4536   17.2449 N   0  0  0  0  0  0  0  0  0  0  0  0
    7.4614  -15.4475   21.9698 C   0  0  0  0  0  0  0  0  0  0  0  0
    6.4277  -14.8667   22.3906 O   0  0  0  0  0  0  0  0  0  0  0  0
    4.8788  -21.6441   21.7788 O   0  0  0  0  0  0  0  0  0  0  0  0
    5.6392  -20.7149   22.5052 C   0  0  0  0  0  0  0  0  0  0  0  0
    5.1476  -20.0584   23.6072 C   0  0  0  0  0  0  0  0  0  0  0  0
    5.8665  -19.1419   24.3413 C   0  0  0  0  0  0  0  0  0  0  0  0
    7.1550  -18.8505   23.9680 C   0  0  0  0  0  0  0  0  0  0  0  0
    8.0110  -17.8760   24.6936 C   0  0  0  0  0  0  0  0  0  0  0  0
    7.6933  -16.4444   24.2428 C   0  0  2  0  0  0  0  0  0  0  0  0
    8.1169  -16.3134   22.8743 N   0  0  0  0  0  0  0  0  0  0  0  0
    8.4050  -15.5345   25.1561 C   0  0  0  0  0  0  0  0  0  0  0  0
    9.6584  -15.4055   25.0584 O   0  0  0  0  0  0  0  0  0  0  0  0
    7.6734  -19.4956   22.8650 C   0  0  0  0  0  0  0  0  0  0  0  0
    6.9395  -20.4123   22.1392 C   0  0  0  0  0  0  0  0  0  0  0  0
    6.4312  -12.8623   28.0362 C   0  0  0  0  0  0  0  0  0  0  0  0
    7.7186  -12.5682   27.2947 C   0  0  2  0  0  0  0  0  0  0  0  0
    7.4017  -11.7553   26.0882 C   0  0  0  0  0  0  0  0  0  0  0  0
    8.5077  -13.8106   27.0014 C   0  0  2  0  0  0  0  0  0  0  0  0
    7.7888  -14.7596   26.1751 N   0  0  0  0  0  0  0  0  0  0  0  0
    8.8930  -14.5297   28.2445 C   0  0  0  0  0  0  0  0  0  0  0  0
    8.3159  -15.6037   28.5365 O   0  0  0  0  0  0  0  0  0  0  0  0
    9.8724  -14.0707   29.1149 O   0  0  0  0  0  0  0  0  0  0  0  0
  2  1  1  6
  2  3  1  0
  3  4  1  0
  4  5  2  0
  5  6  1  0
  7  6  1  0
  8  4  1  0
  8  7  2  0
  9  2  1  0
  9 18  1  0
 10  9  2  0
 12 22  2  0
 12 11  1  0
 13 12  1  0
 14 13  2  0
 15 14  1  0
 15 21  2  0
 17 16  1  1
 16 15  1  0
 17 18  1  0
 19 17  1  0
 20 19  2  0
 21 22  1  0
 24 23  1  6
 24 26  1  0
 25 24  1  0
 26 27  1  6
 26 28  1  0
 27 19  1  0
 28 30  1  0
 29 28  2  0
M  END
$$$$
