HYV.pdb
     RDKit          3D

 30 31  0  0  1  0  0  0  0  0999 V2000
    6.1611  -18.7839   20.6560 N   0  0  0  0  0  0  0  0  0  0  0  0
    6.0145  -17.6245   21.5055 C   0  0  1  0  0  0  0  0  0  0  0  0
    5.3641  -17.9713   22.8405 C   0  0  0  0  0  0  0  0  0  0  0  0
    3.9785  -18.4621   22.6071 C   0  0  0  0  0  0  0  0  0  0  0  0
    3.3955  -18.6636   21.3650 C   0  0  0  0  0  0  0  0  0  0  0  0
    2.1353  -19.1115   21.5626 N   0  0  0  0  0  0  0  0  0  0  0  0
    1.9423  -19.1858   22.8952 C   0  0  0  0  0  0  0  0  0  0  0  0
    3.0628  -18.7910   23.5433 N   0  0  0  0  0  0  0  0  0  0  0  0
    7.3041  -16.9365   21.7198 C   0  0  0  0  0  0  0  0  0  0  0  0
    8.3832  -17.5830   21.6978 O   0  0  0  0  0  0  0  0  0  0  0  0
    8.2644  -13.6511   15.9896 O   0  0  0  0  0  0  0  0  0  0  0  0
    8.3640  -13.6138   17.3889 C   0  0  0  0  0  0  0  0  0  0  0  0
    9.5590  -13.7677   18.0489 C   0  0  0  0  0  0  0  0  0  0  0  0
    9.6912  -13.7365   19.4189 C   0  0  0  0  0  0  0  0  0  0  0  0
    8.5745  -13.5412   20.1932 C   0  0  0  0  0  0  0  0  0  0  0  0
    8.6130  -13.4932   21.6781 C   0  0  0  0  0  0  0  0  0  0  0  0
    8.6559  -14.9126   22.2588 C   0  0  2  0  0  0  0  0  0  0  0  0
    7.4005  -15.5463   21.9562 N   0  0  0  0  0  0  0  0  0  0  0  0
    8.9018  -14.7819   23.7048 C   0  0  0  0  0  0  0  0  0  0  0  0
    9.9973  -14.3001   24.1114 O   0  0  0  0  0  0  0  0  0  0  0  0
    7.3617  -13.3838   19.5561 C   0  0  0  0  0  0  0  0  0  0  0  0
    7.2458  -13.4175   18.1809 C   0  0  0  0  0  0  0  0  0  0  0  0
    6.9127  -12.7029   25.7996 C   0  0  0  0  0  0  0  0  0  0  0  0
    7.1171  -13.9273   26.6671 C   0  0  2  0  0  0  0  0  0  0  0  0
    7.3617  -13.4866   28.0681 C   0  0  0  0  0  0  0  0  0  0  0  0
    8.1739  -14.8443   26.1243 C   0  0  2  0  0  0  0  0  0  0  0  0
    7.9865  -15.1620   24.7228 N   0  0  0  0  0  0  0  0  0  0  0  0
    8.2149  -16.1381   26.8557 C   0  0  0  0  0  0  0  0  0  0  0  0
    7.5088  -17.0931   26.4543 O   0  0  0  0  0  0  0  0  0  0  0  0
    9.0046  -16.3518   27.9775 O   0  0  0  0  0  0  0  0  0  0  0  0
  2  1  1  1
  2  3  1  0
  3  4  1  0
  4  5  2  0
  5  6  1  0
  7  6  1  0
  8  4  1  0
  8  7  2  0
  9  2  1  0
  9 18  1  0
 10  9  2  0
 12 22  2  0
 12 11  1  0
 13 12  1  0
 14 13  2  0
 15 14  1  0
 15 21  2  0
 17 16  1  6
 16 15  1  0
 17 18  1  0
 19 17  1  0
 20 19  2  0
 21 22  1  0
 24 23  1  6
 24 26  1  0
 25 24  1  0
 26 27  1  6
 26 28  1  0
 27 19  1  0
 28 30  1  0
 29 28  2  0
M  END
$$$$
