HYV.pdb
     RDKit          3D

 30 31  0  0  1  0  0  0  0  0999 V2000
    9.9934  -16.6298   18.5990 N   0  0  0  0  0  0  0  0  0  0  0  0
    8.9381  -16.9424   19.5351 C   0  0  1  0  0  0  0  0  0  0  0  0
    8.7941  -18.4446   19.7549 C   0  0  0  0  0  0  0  0  0  0  0  0
    7.7266  -18.9782   18.8654 C   0  0  0  0  0  0  0  0  0  0  0  0
    6.9835  -18.2312   17.9639 C   0  0  0  0  0  0  0  0  0  0  0  0
    6.1179  -19.0646   17.3440 N   0  0  0  0  0  0  0  0  0  0  0  0
    6.3202  -20.2983   17.8496 C   0  0  0  0  0  0  0  0  0  0  0  0
    7.3015  -20.2570   18.7805 N   0  0  0  0  0  0  0  0  0  0  0  0
    9.1254  -16.2450   20.8238 C   0  0  0  0  0  0  0  0  0  0  0  0
   10.2692  -16.1553   21.3401 O   0  0  0  0  0  0  0  0  0  0  0  0
    7.4679  -11.8434   28.3021 O   0  0  0  0  0  0  0  0  0  0  0  0
    7.3369  -12.4499   27.0434 C   0  0  0  0  0  0  0  0  0  0  0  0
    6.6368  -13.6167   26.8548 C   0  0  0  0  0  0  0  0  0  0  0  0
    6.4894  -14.2372   25.6346 C   0  0  0  0  0  0  0  0  0  0  0  0
    7.0687  -13.6740   24.5248 C   0  0  0  0  0  0  0  0  0  0  0  0
    6.9682  -14.2670   23.1658 C   0  0  0  0  0  0  0  0  0  0  0  0
    8.2536  -15.0286   22.8175 C   0  0  2  0  0  0  0  0  0  0  0  0
    8.0582  -15.6519   21.5358 N   0  0  0  0  0  0  0  0  0  0  0  0
    8.4895  -15.9986   23.9001 C   0  0  0  0  0  0  0  0  0  0  0  0
    7.6212  -16.8832   24.1467 O   0  0  0  0  0  0  0  0  0  0  0  0
    7.7774  -12.5022   24.6860 C   0  0  0  0  0  0  0  0  0  0  0  0
    7.9160  -11.8921   25.9166 C   0  0  0  0  0  0  0  0  0  0  0  0
   12.3972  -16.7571   25.5861 C   0  0  0  0  0  0  0  0  0  0  0  0
   11.2498  -17.7401   25.4812 C   0  0  2  0  0  0  0  0  0  0  0  0
   11.3712  -18.4829   24.1965 C   0  0  0  0  0  0  0  0  0  0  0  0
    9.9143  -17.0858   25.6821 C   0  0  2  0  0  0  0  0  0  0  0  0
    9.6468  -16.0322   24.7236 N   0  0  0  0  0  0  0  0  0  0  0  0
    9.7920  -16.4776   27.0334 C   0  0  0  0  0  0  0  0  0  0  0  0
    9.8580  -15.2315   27.1541 O   0  0  0  0  0  0  0  0  0  0  0  0
    9.6058  -17.2249   28.1886 O   0  0  0  0  0  0  0  0  0  0  0  0
  2  1  1  6
  2  3  1  0
  3  4  1  0
  4  5  2  0
  5  6  1  0
  7  6  1  0
  8  4  1  0
  8  7  2  0
  9  2  1  0
  9 18  1  0
 10  9  2  0
 12 22  2  0
 12 11  1  0
 13 12  1  0
 14 13  2  0
 15 14  1  0
 15 21  2  0
 17 16  1  1
 16 15  1  0
 17 18  1  0
 19 17  1  0
 20 19  2  0
 21 22  1  0
 24 23  1  6
 24 26  1  0
 25 24  1  0
 26 27  1  6
 26 28  1  0
 27 19  1  0
 28 30  1  0
 29 28  2  0
M  END
$$$$
