HYV.pdb
     RDKit          3D

 30 31  0  0  1  0  0  0  0  0999 V2000
    6.0140  -17.7898   20.4463 N   0  0  0  0  0  0  0  0  0  0  0  0
    6.7371  -16.6840   21.0309 C   0  0  1  0  0  0  0  0  0  0  0  0
    6.3306  -15.3471   20.4202 C   0  0  0  0  0  0  0  0  0  0  0  0
    7.4965  -14.7452   19.7176 C   0  0  0  0  0  0  0  0  0  0  0  0
    7.5288  -13.4792   19.1526 C   0  0  0  0  0  0  0  0  0  0  0  0
    8.7533  -13.2948   18.6099 N   0  0  0  0  0  0  0  0  0  0  0  0
    9.4625  -14.4198   18.8335 C   0  0  0  0  0  0  0  0  0  0  0  0
    8.7038  -15.3132   19.5099 N   0  0  0  0  0  0  0  0  0  0  0  0
    6.5897  -16.6495   22.5004 C   0  0  0  0  0  0  0  0  0  0  0  0
    5.4502  -16.5520   23.0249 O   0  0  0  0  0  0  0  0  0  0  0  0
    6.1792  -22.8767   24.9429 O   0  0  0  0  0  0  0  0  0  0  0  0
    6.7268  -21.5920   25.0810 C   0  0  0  0  0  0  0  0  0  0  0  0
    6.2964  -20.7042   26.0368 C   0  0  0  0  0  0  0  0  0  0  0  0
    6.8117  -19.4378   26.1988 C   0  0  0  0  0  0  0  0  0  0  0  0
    7.8175  -19.0146   25.3658 C   0  0  0  0  0  0  0  0  0  0  0  0
    8.4377  -17.6672   25.4593 C   0  0  0  0  0  0  0  0  0  0  0  0
    7.5317  -16.6143   24.8081 C   0  0  2  0  0  0  0  0  0  0  0  0
    7.6915  -16.7222   23.3826 N   0  0  0  0  0  0  0  0  0  0  0  0
    7.9424  -15.3026   25.3366 C   0  0  0  0  0  0  0  0  0  0  0  0
    9.0276  -14.7843   24.9479 O   0  0  0  0  0  0  0  0  0  0  0  0
    8.2685  -19.8862   24.3971 C   0  0  0  0  0  0  0  0  0  0  0  0
    7.7413  -21.1533   24.2476 C   0  0  0  0  0  0  0  0  0  0  0  0
    5.2676  -12.3211   26.5399 C   0  0  0  0  0  0  0  0  0  0  0  0
    6.4971  -12.4695   27.4116 C   0  0  2  0  0  0  0  0  0  0  0  0
    6.8973  -11.1242   27.9087 C   0  0  0  0  0  0  0  0  0  0  0  0
    7.6011  -13.2171   26.7229 C   0  0  2  0  0  0  0  0  0  0  0  0
    7.2033  -14.5379   26.2786 N   0  0  0  0  0  0  0  0  0  0  0  0
    8.7830  -13.3995   27.6063 C   0  0  0  0  0  0  0  0  0  0  0  0
    8.8740  -14.4374   28.3037 O   0  0  0  0  0  0  0  0  0  0  0  0
    9.8090  -12.4693   27.7042 O   0  0  0  0  0  0  0  0  0  0  0  0
  2  1  1  6
  2  3  1  0
  3  4  1  0
  4  5  2  0
  5  6  1  0
  7  6  1  0
  8  4  1  0
  8  7  2  0
  9  2  1  0
  9 18  1  0
 10  9  2  0
 12 22  2  0
 12 11  1  0
 13 12  1  0
 14 13  2  0
 15 14  1  0
 15 21  2  0
 17 16  1  1
 16 15  1  0
 17 18  1  0
 19 17  1  0
 20 19  2  0
 21 22  1  0
 24 23  1  6
 24 26  1  0
 25 24  1  0
 26 27  1  1
 26 28  1  0
 27 19  1  0
 28 30  1  0
 29 28  2  0
M  END
$$$$
