ALV.pdb
     RDKit          3D

 21 20  0  0  1  0  0  0  0  0999 V2000
   18.5151   -8.7281  -19.4427 C   0  0  0  0  0  0  0  0  0  0  0  0
   19.4849   -9.7977  -18.9811 C   0  0  2  0  0  0  0  0  0  0  0  0
   18.7201  -11.0225  -18.8289 N   0  0  0  0  0  0  0  0  0  0  0  0
   20.0628   -9.3736  -17.6876 C   0  0  0  0  0  0  0  0  0  0  0  0
   19.2769   -9.0322  -16.7669 O   0  0  0  0  0  0  0  0  0  0  0  0
   24.3436  -11.8859  -15.2982 C   0  0  0  0  0  0  0  0  0  0  0  0
   22.9370  -11.3314  -15.6177 C   0  0  1  0  0  0  0  0  0  0  0  0
   22.0949  -11.7426  -14.4274 C   0  0  0  0  0  0  0  0  0  0  0  0
   23.1295   -9.8389  -15.6694 C   0  0  0  0  0  0  0  0  0  0  0  0
   21.9559   -9.0379  -16.1104 C   0  0  2  0  0  0  0  0  0  0  0  0
   21.4510   -9.3270  -17.4182 N   0  0  0  0  0  0  0  0  0  0  0  0
   22.0507   -7.6008  -15.9342 C   0  0  0  0  0  0  0  0  0  0  0  0
   22.6725   -6.9248  -16.7933 O   0  0  0  0  0  0  0  0  0  0  0  0
   20.1964   -4.7528  -16.4456 C   0  0  0  0  0  0  0  0  0  0  0  0
   20.4526   -4.6895  -14.9720 C   0  0  1  0  0  0  0  0  0  0  0  0
   19.2941   -5.1548  -14.1464 C   0  0  0  0  0  0  0  0  0  0  0  0
   21.7205   -5.4612  -14.6627 C   0  0  2  0  0  0  0  0  0  0  0  0
   21.4955   -6.8620  -14.8581 N   0  0  0  0  0  0  0  0  0  0  0  0
   22.0687   -5.2445  -13.2316 C   0  0  0  0  0  0  0  0  0  0  0  0
   21.8309   -6.1578  -12.4068 O   0  0  0  0  0  0  0  0  0  0  0  0
   22.6429   -4.0714  -12.7917 O   0  0  0  0  0  0  0  0  0  0  0  0
  2  1  1  1
  3  2  1  0
  4 11  1  0
  4  2  1  0
  5  4  2  0
  7  8  1  1
  7  6  1  0
 10  9  1  6
  9  7  1  0
 10 12  1  0
 10 11  1  0
 12 18  1  0
 13 12  2  0
 15 14  1  6
 15 16  1  0
 17 15  1  0
 17 18  1  1
 19 21  1  0
 19 17  1  0
 20 19  2  0
M  END
$$$$
