ALV.pdb
     RDKit          3D

 21 20  0  0  1  0  0  0  0  0999 V2000
   17.9555  -10.7543  -14.3358 C   0  0  0  0  0  0  0  0  0  0  0  0
   16.9939  -11.1218  -13.2231 C   0  0  2  0  0  0  0  0  0  0  0  0
   15.9793  -11.9793  -13.8093 N   0  0  0  0  0  0  0  0  0  0  0  0
   16.3924   -9.8767  -12.6990 C   0  0  0  0  0  0  0  0  0  0  0  0
   15.5309   -9.2889  -13.4021 O   0  0  0  0  0  0  0  0  0  0  0  0
   13.8052   -6.9426   -9.2085 C   0  0  0  0  0  0  0  0  0  0  0  0
   15.3186   -6.7176   -8.9919 C   0  0  1  0  0  0  0  0  0  0  0  0
   15.4643   -6.5829   -7.4899 C   0  0  0  0  0  0  0  0  0  0  0  0
   15.9582   -7.9833   -9.4980 C   0  0  0  0  0  0  0  0  0  0  0  0
   16.0890   -8.1109  -10.9745 C   0  0  2  0  0  0  0  0  0  0  0  0
   16.7259   -9.3012  -11.4503 N   0  0  0  0  0  0  0  0  0  0  0  0
   16.6241   -6.9604  -11.6782 C   0  0  0  0  0  0  0  0  0  0  0  0
   17.8719   -6.8304  -11.7659 O   0  0  0  0  0  0  0  0  0  0  0  0
   14.6027   -4.8734  -14.5357 C   0  0  0  0  0  0  0  0  0  0  0  0
   16.0877   -4.7580  -14.3858 C   0  0  1  0  0  0  0  0  0  0  0  0
   16.6648   -3.5650  -15.0813 C   0  0  0  0  0  0  0  0  0  0  0  0
   16.4332   -4.7808  -12.9097 C   0  0  2  0  0  0  0  0  0  0  0  0
   15.8571   -5.9388  -12.2946 N   0  0  0  0  0  0  0  0  0  0  0  0
   15.8428   -3.5745  -12.2673 C   0  0  0  0  0  0  0  0  0  0  0  0
   16.4288   -2.4739  -12.3950 O   0  0  0  0  0  0  0  0  0  0  0  0
   14.6743   -3.6358  -11.5392 O   0  0  0  0  0  0  0  0  0  0  0  0
  2  1  1  6
  3  2  1  0
  4 11  1  0
  4  2  1  0
  5  4  2  0
  7  8  1  1
  7  6  1  0
 10  9  1  1
  9  7  1  0
 10 12  1  0
 10 11  1  0
 12 18  1  0
 13 12  2  0
 15 14  1  1
 15 16  1  0
 17 15  1  0
 17 18  1  1
 19 21  1  0
 19 17  1  0
 20 19  2  0
M  END
$$$$
