ALV.pdb
     RDKit          3D

 21 20  0  0  1  0  0  0  0  0999 V2000
   20.0860  -32.9283   -7.0235 C   0  0  0  0  0  0  0  0  0  0  0  0
   20.9327  -33.3607   -8.2041 C   0  0  2  0  0  0  0  0  0  0  0  0
   20.3012  -34.5417   -8.7653 N   0  0  0  0  0  0  0  0  0  0  0  0
   22.2913  -33.6740   -7.7112 C   0  0  0  0  0  0  0  0  0  0  0  0
   22.4900  -34.7991   -7.1853 O   0  0  0  0  0  0  0  0  0  0  0  0
   26.2233  -33.9929   -9.8085 C   0  0  0  0  0  0  0  0  0  0  0  0
   26.9092  -33.3149   -8.6011 C   0  0  1  0  0  0  0  0  0  0  0  0
   28.0144  -32.4830   -9.2189 C   0  0  0  0  0  0  0  0  0  0  0  0
   25.8338  -32.4479   -8.0020 C   0  0  0  0  0  0  0  0  0  0  0  0
   24.6980  -33.1588   -7.3554 C   0  0  2  0  0  0  0  0  0  0  0  0
   23.3881  -32.7840   -7.7940 N   0  0  0  0  0  0  0  0  0  0  0  0
   24.7216  -33.2321   -5.9065 C   0  0  0  0  0  0  0  0  0  0  0  0
   24.2482  -32.2738   -5.2437 O   0  0  0  0  0  0  0  0  0  0  0  0
   24.4869  -35.6767   -1.7721 C   0  0  0  0  0  0  0  0  0  0  0  0
   24.4187  -35.5810   -3.2645 C   0  0  1  0  0  0  0  0  0  0  0  0
   23.0203  -35.5898   -3.7978 C   0  0  0  0  0  0  0  0  0  0  0  0
   25.1926  -34.3563   -3.7116 C   0  0  2  0  0  0  0  0  0  0  0  0
   25.2405  -34.3084   -5.1421 N   0  0  0  0  0  0  0  0  0  0  0  0
   26.5883  -34.4684   -3.2061 C   0  0  0  0  0  0  0  0  0  0  0  0
   27.4112  -35.1594   -3.8515 O   0  0  0  0  0  0  0  0  0  0  0  0
   26.9978  -33.8354   -2.0524 O   0  0  0  0  0  0  0  0  0  0  0  0
  2  1  1  1
  3  2  1  0
  4 11  1  0
  4  2  1  0
  5  4  2  0
  7  8  1  6
  7  6  1  0
 10  9  1  1
  9  7  1  0
 10 12  1  0
 10 11  1  0
 12 18  1  0
 13 12  2  0
 15 14  1  1
 15 16  1  0
 17 15  1  0
 17 18  1  6
 19 21  1  0
 19 17  1  0
 20 19  2  0
M  END
$$$$
