ALV.pdb
     RDKit          3D

 21 20  0  0  1  0  0  0  0  0999 V2000
   19.7912  -33.3795   -4.7079 C   0  0  0  0  0  0  0  0  0  0  0  0
   20.2265  -33.3671   -6.1598 C   0  0  2  0  0  0  0  0  0  0  0  0
   19.3749  -34.3098   -6.8630 N   0  0  0  0  0  0  0  0  0  0  0  0
   21.6427  -33.7877   -6.2236 C   0  0  0  0  0  0  0  0  0  0  0  0
   21.9156  -34.9971   -6.0115 O   0  0  0  0  0  0  0  0  0  0  0  0
   26.1248  -34.3967   -8.6752 C   0  0  0  0  0  0  0  0  0  0  0  0
   26.3476  -33.2320   -7.6843 C   0  0  1  0  0  0  0  0  0  0  0  0
   27.2617  -32.2797   -8.4277 C   0  0  0  0  0  0  0  0  0  0  0  0
   24.9757  -32.6427   -7.4899 C   0  0  0  0  0  0  0  0  0  0  0  0
   24.0712  -33.3709   -6.5599 C   0  0  2  0  0  0  0  0  0  0  0  0
   22.7164  -32.9118   -6.5097 N   0  0  0  0  0  0  0  0  0  0  0  0
   24.5626  -33.5797   -5.2107 C   0  0  0  0  0  0  0  0  0  0  0  0
   24.3514  -32.6922   -4.3450 O   0  0  0  0  0  0  0  0  0  0  0  0
   26.0650  -36.3756   -1.5342 C   0  0  0  0  0  0  0  0  0  0  0  0
   25.3383  -36.1591   -2.8250 C   0  0  1  0  0  0  0  0  0  0  0  0
   23.8493  -36.2244   -2.6874 C   0  0  0  0  0  0  0  0  0  0  0  0
   25.7987  -34.8479   -3.4312 C   0  0  2  0  0  0  0  0  0  0  0  0
   25.2779  -34.7181   -4.7589 N   0  0  0  0  0  0  0  0  0  0  0  0
   27.2849  -34.8629   -3.5173 C   0  0  0  0  0  0  0  0  0  0  0  0
   27.8302  -35.5107   -4.4414 O   0  0  0  0  0  0  0  0  0  0  0  0
   28.0733  -34.1864   -2.6118 O   0  0  0  0  0  0  0  0  0  0  0  0
  2  1  1  1
  3  2  1  0
  4 11  1  0
  4  2  1  0
  5  4  2  0
  7  8  1  6
  7  6  1  0
 10  9  1  1
  9  7  1  0
 10 12  1  0
 10 11  1  0
 12 18  1  0
 13 12  2  0
 15 14  1  1
 15 16  1  0
 17 15  1  0
 17 18  1  6
 19 21  1  0
 19 17  1  0
 20 19  2  0
M  END
$$$$
