ALV.pdb
     RDKit          3D

 21 20  0  0  1  0  0  0  0  0999 V2000
   21.0639  -30.4330  -17.0061 C   0  0  0  0  0  0  0  0  0  0  0  0
   22.5117  -29.9846  -17.0200 C   0  0  2  0  0  0  0  0  0  0  0  0
   23.3131  -31.1368  -16.6475 N   0  0  0  0  0  0  0  0  0  0  0  0
   22.6693  -28.8930  -16.0349 C   0  0  0  0  0  0  0  0  0  0  0  0
   22.7152  -29.1934  -14.8144 O   0  0  0  0  0  0  0  0  0  0  0  0
   25.6046  -23.6985  -15.3254 C   0  0  0  0  0  0  0  0  0  0  0  0
   24.4135  -24.4797  -14.7264 C   0  0  1  0  0  0  0  0  0  0  0  0
   23.3127  -23.4459  -14.6052 C   0  0  0  0  0  0  0  0  0  0  0  0
   24.0867  -25.5154  -15.7694 C   0  0  0  0  0  0  0  0  0  0  0  0
   23.0529  -26.5194  -15.4001 C   0  0  2  0  0  0  0  0  0  0  0  0
   22.7722  -27.5246  -16.3796 N   0  0  0  0  0  0  0  0  0  0  0  0
   21.8070  -25.9994  -14.8685 C   0  0  0  0  0  0  0  0  0  0  0  0
   20.9190  -25.6154  -15.6719 O   0  0  0  0  0  0  0  0  0  0  0  0
   18.6714  -25.3406  -11.1225 C   0  0  0  0  0  0  0  0  0  0  0  0
   19.9758  -25.8909  -11.6088 C   0  0  1  0  0  0  0  0  0  0  0  0
   20.0640  -27.3821  -11.5157 C   0  0  0  0  0  0  0  0  0  0  0  0
   20.2216  -25.3914  -13.0191 C   0  0  2  0  0  0  0  0  0  0  0  0
   21.4824  -25.8779  -13.4930 N   0  0  0  0  0  0  0  0  0  0  0  0
   20.2817  -23.9041  -12.9901 C   0  0  0  0  0  0  0  0  0  0  0  0
   21.3039  -23.3495  -12.5227 O   0  0  0  0  0  0  0  0  0  0  0  0
   19.2476  -23.1246  -13.4615 O   0  0  0  0  0  0  0  0  0  0  0  0
  2  1  1  1
  3  2  1  0
  4 11  1  0
  4  2  1  0
  5  4  2  0
  7  8  1  6
  7  6  1  0
 10  9  1  6
  9  7  1  0
 10 12  1  0
 10 11  1  0
 12 18  1  0
 13 12  2  0
 15 14  1  6
 15 16  1  0
 17 15  1  0
 17 18  1  1
 19 21  1  0
 19 17  1  0
 20 19  2  0
M  END
$$$$
