ALV.pdb
     RDKit          3D

 21 20  0  0  1  0  0  0  0  0999 V2000
   18.9296   -9.0271  -19.5068 C   0  0  0  0  0  0  0  0  0  0  0  0
   19.9967   -9.9923  -19.0301 C   0  0  2  0  0  0  0  0  0  0  0  0
   19.3553  -11.2855  -18.8731 N   0  0  0  0  0  0  0  0  0  0  0  0
   20.5204   -9.5037  -17.7363 C   0  0  0  0  0  0  0  0  0  0  0  0
   19.7201   -9.3951  -16.7721 O   0  0  0  0  0  0  0  0  0  0  0  0
   25.0546  -11.1751  -15.2228 C   0  0  0  0  0  0  0  0  0  0  0  0
   23.5891  -10.8221  -15.5629 C   0  0  1  0  0  0  0  0  0  0  0  0
   22.8122  -11.2238  -14.3259 C   0  0  0  0  0  0  0  0  0  0  0  0
   23.6006   -9.3277  -15.7474 C   0  0  0  0  0  0  0  0  0  0  0  0
   22.3344   -8.7135  -16.2300 C   0  0  2  0  0  0  0  0  0  0  0  0
   21.8716   -9.1487  -17.5127 N   0  0  0  0  0  0  0  0  0  0  0  0
   22.2443   -7.2677  -16.1471 C   0  0  0  0  0  0  0  0  0  0  0  0
   22.6938   -6.5772  -17.0973 O   0  0  0  0  0  0  0  0  0  0  0  0
   19.7804   -4.8730  -16.6000 C   0  0  0  0  0  0  0  0  0  0  0  0
   20.2126   -4.6266  -15.1881 C   0  0  1  0  0  0  0  0  0  0  0  0
   19.2958   -5.2315  -14.1713 C   0  0  0  0  0  0  0  0  0  0  0  0
   21.6420   -5.1046  -15.0240 C   0  0  2  0  0  0  0  0  0  0  0  0
   21.6832   -6.5354  -15.0697 N   0  0  0  0  0  0  0  0  0  0  0  0
   22.1352   -4.6706  -13.6880 C   0  0  0  0  0  0  0  0  0  0  0  0
   22.1705   -5.5076  -12.7557 O   0  0  0  0  0  0  0  0  0  0  0  0
   22.5521   -3.3787  -13.4504 O   0  0  0  0  0  0  0  0  0  0  0  0
  2  1  1  1
  3  2  1  0
  4 11  1  0
  4  2  1  0
  5  4  2  0
  7  8  1  1
  7  6  1  0
 10  9  1  6
  9  7  1  0
 10 12  1  0
 10 11  1  0
 12 18  1  0
 13 12  2  0
 15 14  1  6
 15 16  1  0
 17 15  1  0
 17 18  1  1
 19 21  1  0
 19 17  1  0
 20 19  2  0
M  END
$$$$
