ALV.pdb
     RDKit          3D

 21 20  0  0  1  0  0  0  0  0999 V2000
   27.8144  -19.4045  -15.8253 C   0  0  0  0  0  0  0  0  0  0  0  0
   28.1360  -20.4290  -14.7554 C   0  0  2  0  0  0  0  0  0  0  0  0
   28.5874  -21.6267  -15.4412 N   0  0  0  0  0  0  0  0  0  0  0  0
   26.9034  -20.6970  -13.9836 C   0  0  0  0  0  0  0  0  0  0  0  0
   26.1238  -21.5930  -14.3976 O   0  0  0  0  0  0  0  0  0  0  0  0
   26.2325  -19.8317   -8.3664 C   0  0  0  0  0  0  0  0  0  0  0  0
   26.3824  -20.5867   -9.7064 C   0  0  1  0  0  0  0  0  0  0  0  0
   25.9855  -22.0114   -9.3780 C   0  0  0  0  0  0  0  0  0  0  0  0
   25.3793  -19.9294  -10.6169 C   0  0  0  0  0  0  0  0  0  0  0  0
   25.3899  -20.3713  -12.0375 C   0  0  2  0  0  0  0  0  0  0  0  0
   26.5431  -20.0061  -12.8026 N   0  0  0  0  0  0  0  0  0  0  0  0
   24.1909  -20.0997  -12.8082 C   0  0  0  0  0  0  0  0  0  0  0  0
   24.0785  -18.9859  -13.3814 O   0  0  0  0  0  0  0  0  0  0  0  0
   20.4518  -21.5257  -15.5326 C   0  0  0  0  0  0  0  0  0  0  0  0
   21.7010  -21.8233  -14.7633 C   0  0  1  0  0  0  0  0  0  0  0  0
   22.8866  -22.0941  -15.6358 C   0  0  0  0  0  0  0  0  0  0  0  0
   21.9563  -20.6903  -13.7886 C   0  0  2  0  0  0  0  0  0  0  0  0
   23.1022  -20.9917  -12.9841 N   0  0  0  0  0  0  0  0  0  0  0  0
   20.7781  -20.5678  -12.8870 C   0  0  0  0  0  0  0  0  0  0  0  0
   20.6702  -21.3608  -11.9224 O   0  0  0  0  0  0  0  0  0  0  0  0
   19.8072  -19.6098  -13.0840 O   0  0  0  0  0  0  0  0  0  0  0  0
  2  1  1  6
  3  2  1  0
  4 11  1  0
  4  2  1  0
  5  4  2  0
  7  8  1  1
  7  6  1  0
 10  9  1  1
  9  7  1  0
 10 12  1  0
 10 11  1  0
 12 18  1  0
 13 12  2  0
 15 14  1  6
 15 16  1  0
 17 15  1  0
 17 18  1  1
 19 21  1  0
 19 17  1  0
 20 19  2  0
M  END
$$$$
