ALV.pdb
     RDKit          3D

 21 20  0  0  1  0  0  0  0  0999 V2000
   21.0376   -8.6764   10.2576 C   0  0  0  0  0  0  0  0  0  0  0  0
   19.8621   -8.8553    9.3174 C   0  0  2  0  0  0  0  0  0  0  0  0
   18.6707   -8.4760   10.0557 N   0  0  0  0  0  0  0  0  0  0  0  0
   19.8018  -10.2769    8.9147 C   0  0  0  0  0  0  0  0  0  0  0  0
   19.2213  -11.0891    9.6797 O   0  0  0  0  0  0  0  0  0  0  0  0
   19.0773  -12.3424    3.7693 C   0  0  0  0  0  0  0  0  0  0  0  0
   18.8571  -12.0430    5.2692 C   0  0  1  0  0  0  0  0  0  0  0  0
   17.6957  -12.9337    5.6606 C   0  0  0  0  0  0  0  0  0  0  0  0
   20.1377  -12.4834    5.9275 C   0  0  0  0  0  0  0  0  0  0  0  0
   20.2753  -12.1721    7.3758 C   0  0  2  0  0  0  0  0  0  0  0  0
   20.3585  -10.7845    7.7170 N   0  0  0  0  0  0  0  0  0  0  0  0
   21.2900  -12.9117    8.1027 C   0  0  0  0  0  0  0  0  0  0  0  0
   22.4633  -12.4599    8.1338 O   0  0  0  0  0  0  0  0  0  0  0  0
   22.8681  -15.7007   11.6394 C   0  0  0  0  0  0  0  0  0  0  0  0
   21.9838  -14.6976   10.9665 C   0  0  1  0  0  0  0  0  0  0  0  0
   22.2260  -13.2920   11.4204 C   0  0  0  0  0  0  0  0  0  0  0  0
   22.1309  -14.8459    9.4648 C   0  0  2  0  0  0  0  0  0  0  0  0
   21.0836  -14.1286    8.8018 N   0  0  0  0  0  0  0  0  0  0  0  0
   21.9959  -16.2871    9.1167 C   0  0  0  0  0  0  0  0  0  0  0  0
   22.9716  -17.0496    9.3105 O   0  0  0  0  0  0  0  0  0  0  0  0
   20.8318  -16.8026    8.5892 O   0  0  0  0  0  0  0  0  0  0  0  0
  2  1  1  1
  3  2  1  0
  4 11  1  0
  4  2  1  0
  5  4  2  0
  7  8  1  1
  7  6  1  0
 10  9  1  6
  9  7  1  0
 10 12  1  0
 10 11  1  0
 12 18  1  0
 13 12  2  0
 15 14  1  1
 15 16  1  0
 17 15  1  0
 17 18  1  6
 19 21  1  0
 19 17  1  0
 20 19  2  0
M  END
$$$$
