ALV.pdb
     RDKit          3D

 21 20  0  0  1  0  0  0  0  0999 V2000
   18.1218  -22.6564  -19.0981 C   0  0  0  0  0  0  0  0  0  0  0  0
   19.5215  -22.3211  -18.6227 C   0  0  2  0  0  0  0  0  0  0  0  0
   20.4300  -23.2050  -19.3311 N   0  0  0  0  0  0  0  0  0  0  0  0
   19.5860  -22.5583  -17.1645 C   0  0  0  0  0  0  0  0  0  0  0  0
   19.7647  -23.7355  -16.7594 O   0  0  0  0  0  0  0  0  0  0  0  0
   21.8021  -20.0663  -12.1791 C   0  0  0  0  0  0  0  0  0  0  0  0
   20.8400  -21.1865  -12.6346 C   0  0  1  0  0  0  0  0  0  0  0  0
   19.6348  -21.0337  -11.7295 C   0  0  0  0  0  0  0  0  0  0  0  0
   20.5087  -20.8339  -14.0605 C   0  0  0  0  0  0  0  0  0  0  0  0
   19.6511  -21.8016  -14.7965 C   0  0  2  0  0  0  0  0  0  0  0  0
   19.4589  -21.5399  -16.1906 N   0  0  0  0  0  0  0  0  0  0  0  0
   18.3775  -22.1322  -14.1852 C   0  0  0  0  0  0  0  0  0  0  0  0
   17.4609  -21.2711  -14.1913 O   0  0  0  0  0  0  0  0  0  0  0  0
   16.3708  -25.4693  -14.5660 C   0  0  0  0  0  0  0  0  0  0  0  0
   16.4656  -25.1239  -13.1125 C   0  0  1  0  0  0  0  0  0  0  0  0
   17.4413  -25.9747  -12.3613 C   0  0  0  0  0  0  0  0  0  0  0  0
   16.7771  -23.6459  -12.9807 C   0  0  2  0  0  0  0  0  0  0  0  0
   18.0548  -23.3658  -13.5638 N   0  0  0  0  0  0  0  0  0  0  0  0
   16.8449  -23.3043  -11.5333 C   0  0  0  0  0  0  0  0  0  0  0  0
   17.9657  -23.2652  -10.9734 O   0  0  0  0  0  0  0  0  0  0  0  0
   15.7131  -23.0312  -10.7960 O   0  0  0  0  0  0  0  0  0  0  0  0
  2  1  1  6
  3  2  1  0
  4 11  1  0
  4  2  1  0
  5  4  2  0
  7  8  1  1
  7  6  1  0
 10  9  1  1
  9  7  1  0
 10 12  1  0
 10 11  1  0
 12 18  1  0
 13 12  2  0
 15 14  1  6
 15 16  1  0
 17 15  1  0
 17 18  1  1
 19 21  1  0
 19 17  1  0
 20 19  2  0
M  END
$$$$
