ALV.pdb
     RDKit          3D

 21 20  0  0  1  0  0  0  0  0999 V2000
   19.8286  -23.6799  -10.9481 C   0  0  0  0  0  0  0  0  0  0  0  0
   20.3298  -22.8213   -9.8038 C   0  0  2  0  0  0  0  0  0  0  0  0
   19.1599  -22.2415   -9.1684 N   0  0  0  0  0  0  0  0  0  0  0  0
   21.2028  -21.7665  -10.3624 C   0  0  0  0  0  0  0  0  0  0  0  0
   20.6738  -20.6837  -10.7227 O   0  0  0  0  0  0  0  0  0  0  0  0
   26.5058  -20.5146   -8.9236 C   0  0  0  0  0  0  0  0  0  0  0  0
   24.9748  -20.5018   -9.1329 C   0  0  1  0  0  0  0  0  0  0  0  0
   24.5591  -19.0940   -8.7583 C   0  0  0  0  0  0  0  0  0  0  0  0
   24.7996  -20.7562  -10.6066 C   0  0  0  0  0  0  0  0  0  0  0  0
   23.3983  -20.8578  -11.0959 C   0  0  2  0  0  0  0  0  0  0  0  0
   22.6029  -21.8982  -10.5183 N   0  0  0  0  0  0  0  0  0  0  0  0
   23.2135  -20.8486  -12.5350 C   0  0  0  0  0  0  0  0  0  0  0  0
   23.3862  -21.9175  -13.1748 O   0  0  0  0  0  0  0  0  0  0  0  0
   21.5801  -18.6111  -16.6144 C   0  0  0  0  0  0  0  0  0  0  0  0
   21.5931  -18.7328  -15.1224 C   0  0  1  0  0  0  0  0  0  0  0  0
   20.2449  -19.0154  -14.5369 C   0  0  0  0  0  0  0  0  0  0  0  0
   22.6179  -19.7776  -14.7263 C   0  0  2  0  0  0  0  0  0  0  0  0
   22.8469  -19.7211  -13.3137 N   0  0  0  0  0  0  0  0  0  0  0  0
   23.9006  -19.4667  -15.4150 C   0  0  0  0  0  0  0  0  0  0  0  0
   24.6697  -18.6181  -14.9058 O   0  0  0  0  0  0  0  0  0  0  0  0
   24.2630  -20.0845  -16.5924 O   0  0  0  0  0  0  0  0  0  0  0  0
  2  1  1  6
  3  2  1  0
  4 11  1  0
  4  2  1  0
  5  4  2  0
  7  8  1  6
  7  6  1  0
 10  9  1  6
  9  7  1  0
 10 12  1  0
 10 11  1  0
 12 18  1  0
 13 12  2  0
 15 14  1  6
 15 16  1  0
 17 15  1  0
 17 18  1  1
 19 21  1  0
 19 17  1  0
 20 19  2  0
M  END
$$$$
