TGT.pdb
     RDKit          3D

 19 18  0  0  1  0  0  0  0  0999 V2000
   19.2838  -13.9090  -18.9455 C   0  0  0  0  0  0  0  0  0  0  0  0
   19.1653  -13.0273  -17.7181 C   0  0  1  0  0  0  0  0  0  0  0  0
   20.2908  -13.2197  -16.9482 O   0  0  0  0  0  0  0  0  0  0  0  0
   19.0332  -11.5622  -18.1429 C   0  0  2  0  0  0  0  0  0  0  0  0
   20.1489  -11.2620  -18.9917 N   0  0  0  0  0  0  0  0  0  0  0  0
   19.0077  -10.6969  -16.9546 C   0  0  0  0  0  0  0  0  0  0  0  0
   18.0617  -10.8247  -16.1193 O   0  0  0  0  0  0  0  0  0  0  0  0
   19.9770   -9.7058  -16.6561 N   0  0  0  0  0  0  0  0  0  0  0  0
   20.0072   -9.0289  -15.3946 C   0  0  0  0  0  0  0  0  0  0  0  0
   21.0816   -7.9859  -15.3424 C   0  0  0  0  0  0  0  0  0  0  0  0
   22.1450   -8.1219  -16.0011 O   0  0  0  0  0  0  0  0  0  0  0  0
   20.7034   -4.5336  -16.4872 C   0  0  0  0  0  0  0  0  0  0  0  0
   21.1267   -4.4409  -15.0547 C   0  0  1  0  0  0  0  0  0  0  0  0
   20.0448   -4.1245  -14.2346 O   0  0  0  0  0  0  0  0  0  0  0  0
   21.7715   -5.7045  -14.5447 C   0  0  2  0  0  0  0  0  0  0  0  0
   20.8904   -6.8295  -14.5357 N   0  0  0  0  0  0  0  0  0  0  0  0
   22.3270   -5.3971  -13.1869 C   0  0  0  0  0  0  0  0  0  0  0  0
   23.3879   -4.5448  -12.9824 O   0  0  0  0  0  0  0  0  0  0  0  0
   21.7532   -5.9779  -12.2193 O   0  0  0  0  0  0  0  0  0  0  0  0
  2  1  1  6
  2  3  1  0
  4  2  1  0
  4  5  1  6
  6  8  1  0
  6  4  1  0
  7  6  2  0
  9 10  1  0
  9  8  1  0
 10 16  1  0
 11 10  2  0
 13 14  1  0
 13 12  1  6
 13 15  1  0
 15 17  1  0
 15 16  1  1
 17 19  2  0
 17 18  1  0
M  END
$$$$
