TGT.pdb
     RDKit          3D

 19 18  0  0  1  0  0  0  0  0999 V2000
   19.1090  -11.9983  -20.6539 C   0  0  0  0  0  0  0  0  0  0  0  0
   19.9430  -10.8640  -20.0919 C   0  0  1  0  0  0  0  0  0  0  0  0
   19.1036   -9.7984  -19.8547 O   0  0  0  0  0  0  0  0  0  0  0  0
   20.6339  -11.3177  -18.8029 C   0  0  2  0  0  0  0  0  0  0  0  0
   19.6062  -11.7097  -17.8835 N   0  0  0  0  0  0  0  0  0  0  0  0
   21.4553  -10.2241  -18.2639 C   0  0  0  0  0  0  0  0  0  0  0  0
   22.6917  -10.1854  -18.5452 O   0  0  0  0  0  0  0  0  0  0  0  0
   20.9690   -9.1818  -17.4344 N   0  0  0  0  0  0  0  0  0  0  0  0
   21.8359   -8.1868  -16.8785 C   0  0  0  0  0  0  0  0  0  0  0  0
   21.0968   -7.2274  -15.9963 C   0  0  0  0  0  0  0  0  0  0  0  0
   19.9311   -6.8523  -16.2853 O   0  0  0  0  0  0  0  0  0  0  0  0
   19.8216   -7.9420  -12.8265 C   0  0  0  0  0  0  0  0  0  0  0  0
   20.7400   -6.7886  -12.5699 C   0  0  1  0  0  0  0  0  0  0  0  0
   21.9389   -7.2218  -12.0059 O   0  0  0  0  0  0  0  0  0  0  0  0
   21.0463   -5.9882  -13.8102 C   0  0  2  0  0  0  0  0  0  0  0  0
   21.7271   -6.7384  -14.8180 N   0  0  0  0  0  0  0  0  0  0  0  0
   21.8165   -4.7788  -13.3734 C   0  0  0  0  0  0  0  0  0  0  0  0
   21.2721   -3.7767  -12.6033 O   0  0  0  0  0  0  0  0  0  0  0  0
   23.0208   -4.7306  -13.7611 O   0  0  0  0  0  0  0  0  0  0  0  0
  2  1  1  1
  2  3  1  0
  4  2  1  0
  4  5  1  1
  6  8  1  0
  6  4  1  0
  7  6  2  0
  9 10  1  0
  9  8  1  0
 10 16  1  0
 11 10  2  0
 13 14  1  0
 13 12  1  6
 13 15  1  0
 15 17  1  0
 15 16  1  6
 17 19  2  0
 17 18  1  0
M  END
$$$$
