TGT.pdb
     RDKit          3D

 19 18  0  0  1  0  0  0  0  0999 V2000
   14.5894  -14.4536  -16.8041 C   0  0  0  0  0  0  0  0  0  0  0  0
   15.5820  -14.6840  -15.6818 C   0  0  1  0  0  0  0  0  0  0  0  0
   15.2900  -15.8978  -15.1007 O   0  0  0  0  0  0  0  0  0  0  0  0
   17.0079  -14.6699  -16.2397 C   0  0  2  0  0  0  0  0  0  0  0  0
   17.8795  -15.1186  -15.1937 N   0  0  0  0  0  0  0  0  0  0  0  0
   17.3553  -13.3146  -16.6909 C   0  0  0  0  0  0  0  0  0  0  0  0
   16.7958  -12.8482  -17.7295 O   0  0  0  0  0  0  0  0  0  0  0  0
   18.2875  -12.4626  -16.0458 N   0  0  0  0  0  0  0  0  0  0  0  0
   18.5607  -11.1391  -16.5194 C   0  0  0  0  0  0  0  0  0  0  0  0
   19.5264  -10.4135  -15.6329 C   0  0  0  0  0  0  0  0  0  0  0  0
   19.7912  -10.8426  -14.4800 O   0  0  0  0  0  0  0  0  0  0  0  0
   23.0660   -9.2241  -16.9692 C   0  0  0  0  0  0  0  0  0  0  0  0
   22.3176   -8.0957  -16.3317 C   0  0  1  0  0  0  0  0  0  0  0  0
   21.7799   -7.2458  -17.2969 O   0  0  0  0  0  0  0  0  0  0  0  0
   21.2103   -8.5598  -15.4200 C   0  0  2  0  0  0  0  0  0  0  0  0
   20.1483   -9.2248  -16.1070 N   0  0  0  0  0  0  0  0  0  0  0  0
   20.7392   -7.3600  -14.6551 C   0  0  0  0  0  0  0  0  0  0  0  0
   21.4957   -6.7384  -13.6881 O   0  0  0  0  0  0  0  0  0  0  0  0
   19.5823   -6.9424  -14.9552 O   0  0  0  0  0  0  0  0  0  0  0  0
  2  1  1  6
  2  3  1  0
  4  2  1  0
  4  5  1  1
  6  8  1  0
  6  4  1  0
  7  6  2  0
  9 10  1  0
  9  8  1  0
 10 16  1  0
 11 10  2  0
 13 14  1  0
 13 12  1  6
 13 15  1  0
 15 17  1  0
 15 16  1  6
 17 19  2  0
 17 18  1  0
M  END
$$$$
