TGT.pdb
     RDKit          3D

 19 18  0  0  1  0  0  0  0  0999 V2000
   21.7194  -14.6432  -16.1604 C   0  0  0  0  0  0  0  0  0  0  0  0
   22.9863  -14.0567  -15.5697 C   0  0  1  0  0  0  0  0  0  0  0  0
   23.9330  -15.0556  -15.5215 O   0  0  0  0  0  0  0  0  0  0  0  0
   23.4660  -12.8852  -16.4311 C   0  0  2  0  0  0  0  0  0  0  0  0
   24.7739  -12.5235  -15.9688 N   0  0  0  0  0  0  0  0  0  0  0  0
   22.5224  -11.7634  -16.3203 C   0  0  0  0  0  0  0  0  0  0  0  0
   21.2989  -11.9577  -16.5932 O   0  0  0  0  0  0  0  0  0  0  0  0
   22.8741  -10.4481  -15.9237 N   0  0  0  0  0  0  0  0  0  0  0  0
   21.9094   -9.3921  -15.8553 C   0  0  0  0  0  0  0  0  0  0  0  0
   22.5072   -8.1175  -15.3426 C   0  0  0  0  0  0  0  0  0  0  0  0
   23.7044   -8.0757  -14.9576 O   0  0  0  0  0  0  0  0  0  0  0  0
   21.7016   -4.7012  -17.2841 C   0  0  0  0  0  0  0  0  0  0  0  0
   21.5479   -4.5461  -15.8035 C   0  0  1  0  0  0  0  0  0  0  0  0
   20.2019   -4.5023  -15.4439 O   0  0  0  0  0  0  0  0  0  0  0  0
   22.2262   -5.6408  -15.0198 C   0  0  2  0  0  0  0  0  0  0  0  0
   21.7053   -6.9431  -15.2933 N   0  0  0  0  0  0  0  0  0  0  0  0
   22.1234   -5.2720  -13.5707 C   0  0  0  0  0  0  0  0  0  0  0  0
   22.7635   -4.1837  -13.0232 O   0  0  0  0  0  0  0  0  0  0  0  0
   21.3996   -6.0339  -12.8647 O   0  0  0  0  0  0  0  0  0  0  0  0
  2  1  1  6
  2  3  1  0
  4  2  1  0
  4  5  1  1
  6  8  1  0
  6  4  1  0
  7  6  2  0
  9 10  1  0
  9  8  1  0
 10 16  1  0
 11 10  2  0
 13 14  1  0
 13 12  1  6
 13 15  1  0
 15 17  1  0
 15 16  1  1
 17 19  2  0
 17 18  1  0
M  END
$$$$
