TGT.pdb
     RDKit          3D

 19 18  0  0  1  0  0  0  0  0999 V2000
   24.4988  -16.7864  -17.4233 C   0  0  0  0  0  0  0  0  0  0  0  0
   25.4565  -15.6540  -17.1095 C   0  0  1  0  0  0  0  0  0  0  0  0
   24.7634  -14.4695  -17.2225 O   0  0  0  0  0  0  0  0  0  0  0  0
   26.0207  -15.8287  -15.6968 C   0  0  2  0  0  0  0  0  0  0  0  0
   26.6895  -14.6088  -15.3509 N   0  0  0  0  0  0  0  0  0  0  0  0
   26.9369  -16.9779  -15.6624 C   0  0  0  0  0  0  0  0  0  0  0  0
   27.9863  -16.9511  -16.3747 O   0  0  0  0  0  0  0  0  0  0  0  0
   26.7412  -18.1440  -14.8796 N   0  0  0  0  0  0  0  0  0  0  0  0
   27.7074  -19.1999  -14.8355 C   0  0  0  0  0  0  0  0  0  0  0  0
   27.2822  -20.3127  -13.9267 C   0  0  0  0  0  0  0  0  0  0  0  0
   27.9731  -21.3590  -13.8212 O   0  0  0  0  0  0  0  0  0  0  0  0
   26.8492  -21.3094  -10.4935 C   0  0  0  0  0  0  0  0  0  0  0  0
   25.4597  -21.2224  -11.0424 C   0  0  1  0  0  0  0  0  0  0  0  0
   24.8257  -20.0578  -10.6122 O   0  0  0  0  0  0  0  0  0  0  0  0
   25.4135  -21.2745  -12.5483 C   0  0  2  0  0  0  0  0  0  0  0  0
   26.0806  -20.1780  -13.1765 N   0  0  0  0  0  0  0  0  0  0  0  0
   23.9700  -21.3714  -12.9404 C   0  0  0  0  0  0  0  0  0  0  0  0
   23.1877  -22.4702  -12.6679 O   0  0  0  0  0  0  0  0  0  0  0  0
   23.5020  -20.3646  -13.5487 O   0  0  0  0  0  0  0  0  0  0  0  0
  2  1  1  1
  2  3  1  0
  4  2  1  0
  4  5  1  6
  6  8  1  0
  6  4  1  0
  7  6  2  0
  9 10  1  0
  9  8  1  0
 10 16  1  0
 11 10  2  0
 13 14  1  0
 13 12  1  6
 13 15  1  0
 15 17  1  0
 15 16  1  6
 17 19  2  0
 17 18  1  0
M  END
$$$$
