TGT.pdb
     RDKit          3D

 19 18  0  0  1  0  0  0  0  0999 V2000
   16.0838  -11.0342  -17.4582 C   0  0  0  0  0  0  0  0  0  0  0  0
   17.1203  -12.0487  -17.0173 C   0  0  1  0  0  0  0  0  0  0  0  0
   16.9366  -13.1926  -17.7616 O   0  0  0  0  0  0  0  0  0  0  0  0
   18.5258  -11.4775  -17.2243 C   0  0  2  0  0  0  0  0  0  0  0  0
   19.4552  -12.5526  -17.0356 N   0  0  0  0  0  0  0  0  0  0  0  0
   18.7652  -10.3809  -16.2747 C   0  0  0  0  0  0  0  0  0  0  0  0
   18.0626   -9.3281  -16.3590 O   0  0  0  0  0  0  0  0  0  0  0  0
   19.7408  -10.4019  -15.2458 N   0  0  0  0  0  0  0  0  0  0  0  0
   19.8495   -9.3494  -14.2810 C   0  0  0  0  0  0  0  0  0  0  0  0
   20.9321   -8.3749  -14.6325 C   0  0  0  0  0  0  0  0  0  0  0  0
   21.9992   -8.7639  -15.1738 O   0  0  0  0  0  0  0  0  0  0  0  0
   20.3404   -5.3331  -16.8433 C   0  0  0  0  0  0  0  0  0  0  0  0
   20.9453   -4.8654  -15.5568 C   0  0  1  0  0  0  0  0  0  0  0  0
   19.9819   -4.2807  -14.7364 O   0  0  0  0  0  0  0  0  0  0  0  0
   21.6337   -5.9666  -14.7912 C   0  0  2  0  0  0  0  0  0  0  0  0
   20.7443   -6.9935  -14.3477 N   0  0  0  0  0  0  0  0  0  0  0  0
   22.3748   -5.3189  -13.6608 C   0  0  0  0  0  0  0  0  0  0  0  0
   23.4466   -4.4761  -13.8477 O   0  0  0  0  0  0  0  0  0  0  0  0
   21.9503   -5.5967  -12.5009 O   0  0  0  0  0  0  0  0  0  0  0  0
  2  1  1  6
  2  3  1  0
  4  2  1  0
  4  5  1  1
  6  8  1  0
  6  4  1  0
  7  6  2  0
  9 10  1  0
  9  8  1  0
 10 16  1  0
 11 10  2  0
 13 14  1  0
 13 12  1  6
 13 15  1  0
 15 17  1  0
 15 16  1  1
 17 19  2  0
 17 18  1  0
M  END
$$$$
