TGT.pdb
     RDKit          3D

 19 18  0  0  1  0  0  0  0  0999 V2000
   15.5068  -12.3318  -15.6563 C   0  0  0  0  0  0  0  0  0  0  0  0
   16.9938  -12.6146  -15.5729 C   0  0  1  0  0  0  0  0  0  0  0  0
   17.2269  -13.8345  -16.1676 O   0  0  0  0  0  0  0  0  0  0  0  0
   17.7737  -11.5011  -16.2775 C   0  0  2  0  0  0  0  0  0  0  0  0
   19.1123  -11.9756  -16.4724 N   0  0  0  0  0  0  0  0  0  0  0  0
   17.7454  -10.2776  -15.4628 C   0  0  0  0  0  0  0  0  0  0  0  0
   16.6250   -9.7822  -15.1333 O   0  0  0  0  0  0  0  0  0  0  0  0
   18.8951   -9.5870  -15.0024 N   0  0  0  0  0  0  0  0  0  0  0  0
   18.8002   -8.4084  -14.1947 C   0  0  0  0  0  0  0  0  0  0  0  0
   20.1464   -7.9182  -13.7559 C   0  0  0  0  0  0  0  0  0  0  0  0
   21.0312   -8.7241  -13.3679 O   0  0  0  0  0  0  0  0  0  0  0  0
   21.5287   -5.5466  -16.3487 C   0  0  0  0  0  0  0  0  0  0  0  0
   22.3506   -6.1512  -15.2539 C   0  0  1  0  0  0  0  0  0  0  0  0
   23.6371   -5.6149  -15.2420 O   0  0  0  0  0  0  0  0  0  0  0  0
   21.7374   -5.9769  -13.8878 C   0  0  2  0  0  0  0  0  0  0  0  0
   20.4208   -6.5222  -13.7811 N   0  0  0  0  0  0  0  0  0  0  0  0
   21.7819   -4.5128  -13.5699 C   0  0  0  0  0  0  0  0  0  0  0  0
   22.9539   -3.8233  -13.3582 O   0  0  0  0  0  0  0  0  0  0  0  0
   20.6573   -3.9348  -13.5058 O   0  0  0  0  0  0  0  0  0  0  0  0
  2  1  1  6
  2  3  1  0
  4  2  1  0
  4  5  1  1
  6  8  1  0
  6  4  1  0
  7  6  2  0
  9 10  1  0
  9  8  1  0
 10 16  1  0
 11 10  2  0
 13 14  1  0
 13 12  1  6
 13 15  1  0
 15 17  1  0
 15 16  1  6
 17 19  2  0
 17 18  1  0
M  END
$$$$
