TGT.pdb
     RDKit          3D

 19 18  0  0  1  0  0  0  0  0999 V2000
   20.6892  -11.6343  -20.1283 C   0  0  0  0  0  0  0  0  0  0  0  0
   21.3407  -11.1640  -18.8429 C   0  0  1  0  0  0  0  0  0  0  0  0
   21.8560   -9.9064  -19.0647 O   0  0  0  0  0  0  0  0  0  0  0  0
   20.3059  -11.1434  -17.7144 C   0  0  2  0  0  0  0  0  0  0  0  0
   19.2281  -10.2991  -18.1396 N   0  0  0  0  0  0  0  0  0  0  0  0
   20.9256  -10.6493  -16.4762 C   0  0  0  0  0  0  0  0  0  0  0  0
   21.8385  -11.3376  -15.9265 O   0  0  0  0  0  0  0  0  0  0  0  0
   20.5796   -9.4364  -15.8279 N   0  0  0  0  0  0  0  0  0  0  0  0
   21.3689   -8.8921  -14.7643 C   0  0  0  0  0  0  0  0  0  0  0  0
   22.0849   -7.6429  -15.1788 C   0  0  0  0  0  0  0  0  0  0  0  0
   23.0091   -7.6821  -16.0317 O   0  0  0  0  0  0  0  0  0  0  0  0
   22.0469   -5.4912  -17.5051 C   0  0  0  0  0  0  0  0  0  0  0  0
   21.6269   -4.6635  -16.3310 C   0  0  1  0  0  0  0  0  0  0  0  0
   20.2385   -4.6386  -16.2098 O   0  0  0  0  0  0  0  0  0  0  0  0
   22.2212   -5.1377  -15.0293 C   0  0  2  0  0  0  0  0  0  0  0  0
   21.7100   -6.3999  -14.5965 N   0  0  0  0  0  0  0  0  0  0  0  0
   21.9979   -4.0500  -14.0224 C   0  0  0  0  0  0  0  0  0  0  0  0
   22.6136   -2.8212  -14.0920 O   0  0  0  0  0  0  0  0  0  0  0  0
   21.1945   -4.3316  -13.0854 O   0  0  0  0  0  0  0  0  0  0  0  0
  2  1  1  6
  2  3  1  0
  4  2  1  0
  4  5  1  6
  6  8  1  0
  6  4  1  0
  7  6  2  0
  9 10  1  0
  9  8  1  0
 10 16  1  0
 11 10  2  0
 13 14  1  0
 13 12  1  6
 13 15  1  0
 15 17  1  0
 15 16  1  1
 17 19  2  0
 17 18  1  0
M  END
$$$$
