TGT.pdb
     RDKit          3D

 19 18  0  0  1  0  0  0  0  0999 V2000
   28.6931  -12.6922  -17.3056 C   0  0  0  0  0  0  0  0  0  0  0  0
   27.3364  -12.0202  -17.3811 C   0  0  1  0  0  0  0  0  0  0  0  0
   26.8637  -11.8748  -16.0959 O   0  0  0  0  0  0  0  0  0  0  0  0
   27.4685  -10.6620  -18.0756 C   0  0  2  0  0  0  0  0  0  0  0  0
   28.4568   -9.9107  -17.3587 N   0  0  0  0  0  0  0  0  0  0  0  0
   26.1681   -9.9764  -18.0854 C   0  0  0  0  0  0  0  0  0  0  0  0
   25.2291  -10.4457  -18.7977 O   0  0  0  0  0  0  0  0  0  0  0  0
   25.8673   -8.8041  -17.3464 N   0  0  0  0  0  0  0  0  0  0  0  0
   24.5795   -8.1806  -17.4026 C   0  0  0  0  0  0  0  0  0  0  0  0
   24.5037   -6.9680  -16.5257 C   0  0  0  0  0  0  0  0  0  0  0  0
   25.4686   -6.6465  -15.7849 O   0  0  0  0  0  0  0  0  0  0  0  0
   23.1007   -3.5440  -17.9501 C   0  0  0  0  0  0  0  0  0  0  0  0
   22.4500   -3.8816  -16.6453 C   0  0  1  0  0  0  0  0  0  0  0  0
   21.1432   -4.3257  -16.8400 O   0  0  0  0  0  0  0  0  0  0  0  0
   23.2059   -4.9217  -15.8583 C   0  0  2  0  0  0  0  0  0  0  0  0
   23.3227   -6.1744  -16.5358 N   0  0  0  0  0  0  0  0  0  0  0  0
   22.5250   -5.0473  -14.5289 C   0  0  0  0  0  0  0  0  0  0  0  0
   22.4984   -4.0345  -13.5976 O   0  0  0  0  0  0  0  0  0  0  0  0
   21.9643   -6.1605  -14.3070 O   0  0  0  0  0  0  0  0  0  0  0  0
  2  1  1  1
  2  3  1  0
  4  2  1  0
  4  5  1  1
  6  8  1  0
  6  4  1  0
  7  6  2  0
  9 10  1  0
  9  8  1  0
 10 16  1  0
 11 10  2  0
 13 14  1  0
 13 12  1  6
 13 15  1  0
 15 17  1  0
 15 16  1  6
 17 19  2  0
 17 18  1  0
M  END
$$$$
