TGT.pdb
     RDKit          3D

 19 18  0  0  1  0  0  0  0  0999 V2000
   17.7313  -14.3913  -17.0900 C   0  0  0  0  0  0  0  0  0  0  0  0
   17.6229  -13.1078  -16.2908 C   0  0  1  0  0  0  0  0  0  0  0  0
   18.0490  -13.3704  -15.0079 O   0  0  0  0  0  0  0  0  0  0  0  0
   18.4783  -12.0176  -16.9423 C   0  0  2  0  0  0  0  0  0  0  0  0
   19.8324  -12.4883  -16.9544 N   0  0  0  0  0  0  0  0  0  0  0  0
   18.3476  -10.7620  -16.1889 C   0  0  0  0  0  0  0  0  0  0  0  0
   17.2096  -10.2074  -16.1077 O   0  0  0  0  0  0  0  0  0  0  0  0
   19.4145  -10.1016  -15.5281 N   0  0  0  0  0  0  0  0  0  0  0  0
   19.2445   -8.8269  -14.8983 C   0  0  0  0  0  0  0  0  0  0  0  0
   20.5527   -8.2286  -14.4792 C   0  0  0  0  0  0  0  0  0  0  0  0
   21.4307   -8.9298  -13.9130 O   0  0  0  0  0  0  0  0  0  0  0  0
   22.9778   -6.5725  -16.7978 C   0  0  0  0  0  0  0  0  0  0  0  0
   22.6497   -5.5811  -15.7258 C   0  0  1  0  0  0  0  0  0  0  0  0
   21.7698   -4.6087  -16.1984 O   0  0  0  0  0  0  0  0  0  0  0  0
   22.0580   -6.2158  -14.4931 C   0  0  2  0  0  0  0  0  0  0  0  0
   20.7987   -6.8493  -14.7277 N   0  0  0  0  0  0  0  0  0  0  0  0
   21.9790   -5.1482  -13.4441 C   0  0  0  0  0  0  0  0  0  0  0  0
   23.0879   -4.6089  -12.8332 O   0  0  0  0  0  0  0  0  0  0  0  0
   20.8104   -4.7628  -13.1459 O   0  0  0  0  0  0  0  0  0  0  0  0
  2  1  1  6
  2  3  1  0
  4  2  1  0
  4  5  1  1
  6  8  1  0
  6  4  1  0
  7  6  2  0
  9 10  1  0
  9  8  1  0
 10 16  1  0
 11 10  2  0
 13 14  1  0
 13 12  1  6
 13 15  1  0
 15 17  1  0
 15 16  1  6
 17 19  2  0
 17 18  1  0
M  END
$$$$
