TGT.pdb
     RDKit          3D

 19 18  0  0  1  0  0  0  0  0999 V2000
   25.9103  -15.0424  -18.5087 C   0  0  0  0  0  0  0  0  0  0  0  0
   24.6173  -14.5305  -19.1121 C   0  0  1  0  0  0  0  0  0  0  0  0
   24.2783  -15.3627  -20.1556 O   0  0  0  0  0  0  0  0  0  0  0  0
   23.5193  -14.5107  -18.0451 C   0  0  2  0  0  0  0  0  0  0  0  0
   22.2773  -14.2602  -18.7158 N   0  0  0  0  0  0  0  0  0  0  0  0
   23.8132  -13.4751  -17.0439 C   0  0  0  0  0  0  0  0  0  0  0  0
   24.6029  -13.7472  -16.0891 O   0  0  0  0  0  0  0  0  0  0  0  0
   23.2741  -12.1636  -17.0560 N   0  0  0  0  0  0  0  0  0  0  0  0
   23.5738  -11.2099  -16.0307 C   0  0  0  0  0  0  0  0  0  0  0  0
   22.8739   -9.9044  -16.2560 C   0  0  0  0  0  0  0  0  0  0  0  0
   23.0756   -9.2368  -17.3033 O   0  0  0  0  0  0  0  0  0  0  0  0
   19.4424   -9.4923  -16.9564 C   0  0  0  0  0  0  0  0  0  0  0  0
   19.6540   -8.7233  -15.6901 C   0  0  1  0  0  0  0  0  0  0  0  0
   19.2266   -9.4564  -14.5843 O   0  0  0  0  0  0  0  0  0  0  0  0
   21.0894   -8.3144  -15.4784 C   0  0  2  0  0  0  0  0  0  0  0  0
   21.9710   -9.4194  -15.2690 N   0  0  0  0  0  0  0  0  0  0  0  0
   21.1054   -7.3409  -14.3388 C   0  0  0  0  0  0  0  0  0  0  0  0
   20.5841   -6.0703  -14.4262 O   0  0  0  0  0  0  0  0  0  0  0  0
   21.6364   -7.7625  -13.2696 O   0  0  0  0  0  0  0  0  0  0  0  0
  2  1  1  1
  2  3  1  0
  4  2  1  0
  4  5  1  6
  6  8  1  0
  6  4  1  0
  7  6  2  0
  9 10  1  0
  9  8  1  0
 10 16  1  0
 11 10  2  0
 13 14  1  0
 13 12  1  6
 13 15  1  0
 15 17  1  0
 15 16  1  1
 17 19  2  0
 17 18  1  0
M  END
$$$$
