TGT.pdb
     RDKit          3D

 19 18  0  0  1  0  0  0  0  0999 V2000
   25.2110  -19.5071  -18.7619 C   0  0  0  0  0  0  0  0  0  0  0  0
   26.6544  -19.9489  -18.9010 C   0  0  1  0  0  0  0  0  0  0  0  0
   26.9303  -20.0778  -20.2440 O   0  0  0  0  0  0  0  0  0  0  0  0
   27.5777  -18.9177  -18.2463 C   0  0  2  0  0  0  0  0  0  0  0  0
   28.9231  -19.2649  -18.5993 N   0  0  0  0  0  0  0  0  0  0  0  0
   27.3809  -18.9235  -16.7894 C   0  0  0  0  0  0  0  0  0  0  0  0
   28.1151  -19.6679  -16.0711 O   0  0  0  0  0  0  0  0  0  0  0  0
   26.4140  -18.1468  -16.1018 N   0  0  0  0  0  0  0  0  0  0  0  0
   26.2964  -18.1702  -14.6748 C   0  0  0  0  0  0  0  0  0  0  0  0
   25.4618  -19.3198  -14.1988 C   0  0  0  0  0  0  0  0  0  0  0  0
   24.7534  -19.9791  -15.0031 O   0  0  0  0  0  0  0  0  0  0  0  0
   26.6281  -21.4157  -10.6542 C   0  0  0  0  0  0  0  0  0  0  0  0
   25.1780  -21.1007  -10.8483 C   0  0  1  0  0  0  0  0  0  0  0  0
   24.7954  -20.0119  -10.0665 O   0  0  0  0  0  0  0  0  0  0  0  0
   24.8206  -20.8181  -12.2854 C   0  0  2  0  0  0  0  0  0  0  0  0
   25.4750  -19.6650  -12.8185 N   0  0  0  0  0  0  0  0  0  0  0  0
   23.3268  -20.7161  -12.3546 C   0  0  0  0  0  0  0  0  0  0  0  0
   22.6642  -19.5433  -12.6363 O   0  0  0  0  0  0  0  0  0  0  0  0
   22.6965  -21.7919  -12.1348 O   0  0  0  0  0  0  0  0  0  0  0  0
  2  1  1  6
  2  3  1  0
  4  2  1  0
  4  5  1  1
  6  8  1  0
  6  4  1  0
  7  6  2  0
  9 10  1  0
  9  8  1  0
 10 16  1  0
 11 10  2  0
 13 14  1  0
 13 12  1  6
 13 15  1  0
 15 17  1  0
 15 16  1  1
 17 19  2  0
 17 18  1  0
M  END
$$$$
