TGT.pdb
     RDKit          3D

 19 18  0  0  1  0  0  0  0  0999 V2000
   19.4059  -10.2808  -19.4308 C   0  0  0  0  0  0  0  0  0  0  0  0
   19.4991  -11.7594  -19.1097 C   0  0  1  0  0  0  0  0  0  0  0  0
   19.2451  -12.4609  -20.2671 O   0  0  0  0  0  0  0  0  0  0  0  0
   20.8922  -12.0846  -18.5637 C   0  0  2  0  0  0  0  0  0  0  0  0
   20.9742  -13.5091  -18.4255 N   0  0  0  0  0  0  0  0  0  0  0  0
   21.0974  -11.4024  -17.2777 C   0  0  0  0  0  0  0  0  0  0  0  0
   21.0104  -12.0722  -16.2038 O   0  0  0  0  0  0  0  0  0  0  0  0
   21.3920  -10.0229  -17.1330 N   0  0  0  0  0  0  0  0  0  0  0  0
   21.4888   -9.3978  -15.8483 C   0  0  0  0  0  0  0  0  0  0  0  0
   21.8247   -7.9416  -15.9561 C   0  0  0  0  0  0  0  0  0  0  0  0
   22.4113   -7.4885  -16.9729 O   0  0  0  0  0  0  0  0  0  0  0  0
   19.5027   -5.3009  -16.3272 C   0  0  0  0  0  0  0  0  0  0  0  0
   20.2511   -4.9439  -15.0814 C   0  0  1  0  0  0  0  0  0  0  0  0
   19.4947   -5.2304  -13.9461 O   0  0  0  0  0  0  0  0  0  0  0  0
   21.5821   -5.6428  -14.9692 C   0  0  2  0  0  0  0  0  0  0  0  0
   21.4730   -7.0656  -14.8914 N   0  0  0  0  0  0  0  0  0  0  0  0
   22.2892   -5.0539  -13.7861 C   0  0  0  0  0  0  0  0  0  0  0  0
   22.7764   -3.7671  -13.7636 O   0  0  0  0  0  0  0  0  0  0  0  0
   22.4153   -5.8230  -12.7884 O   0  0  0  0  0  0  0  0  0  0  0  0
  2  1  1  6
  2  3  1  0
  4  2  1  0
  4  5  1  1
  6  8  1  0
  6  4  1  0
  7  6  2  0
  9 10  1  0
  9  8  1  0
 10 16  1  0
 11 10  2  0
 13 14  1  0
 13 12  1  6
 13 15  1  0
 15 17  1  0
 15 16  1  1
 17 19  2  0
 17 18  1  0
M  END
$$$$
