TGT.pdb
     RDKit          3D

 19 18  0  0  1  0  0  0  0  0999 V2000
   15.2873  -11.6358  -17.3846 C   0  0  0  0  0  0  0  0  0  0  0  0
   15.4924  -11.8134  -15.8932 C   0  0  1  0  0  0  0  0  0  0  0  0
   15.0490  -13.0716  -15.5516 O   0  0  0  0  0  0  0  0  0  0  0  0
   16.9744  -11.6401  -15.5493 C   0  0  2  0  0  0  0  0  0  0  0  0
   17.1436  -12.0340  -14.1813 N   0  0  0  0  0  0  0  0  0  0  0  0
   17.3781  -10.2431  -15.7652 C   0  0  0  0  0  0  0  0  0  0  0  0
   17.4477   -9.7977  -16.9509 O   0  0  0  0  0  0  0  0  0  0  0  0
   17.7048   -9.3279  -14.7324 N   0  0  0  0  0  0  0  0  0  0  0  0
   18.1129   -7.9837  -15.0102 C   0  0  0  0  0  0  0  0  0  0  0  0
   19.4439   -7.6636  -14.4009 C   0  0  0  0  0  0  0  0  0  0  0  0
   19.8946   -8.3429  -13.4425 O   0  0  0  0  0  0  0  0  0  0  0  0
   23.9398   -6.1326  -15.3032 C   0  0  0  0  0  0  0  0  0  0  0  0
   22.5130   -6.3266  -15.7113 C   0  0  1  0  0  0  0  0  0  0  0  0
   22.3522   -7.5227  -16.4088 O   0  0  0  0  0  0  0  0  0  0  0  0
   21.5563   -6.3095  -14.5463 C   0  0  2  0  0  0  0  0  0  0  0  0
   20.2024   -6.5763  -14.9177 N   0  0  0  0  0  0  0  0  0  0  0  0
   21.7163   -4.9836  -13.8660 C   0  0  0  0  0  0  0  0  0  0  0  0
   22.5917   -4.7716  -12.8256 O   0  0  0  0  0  0  0  0  0  0  0  0
   20.9855   -4.0508  -14.3118 O   0  0  0  0  0  0  0  0  0  0  0  0
  2  1  1  6
  2  3  1  0
  4  2  1  0
  4  5  1  1
  6  8  1  0
  6  4  1  0
  7  6  2  0
  9 10  1  0
  9  8  1  0
 10 16  1  0
 11 10  2  0
 13 14  1  0
 13 12  1  1
 13 15  1  0
 15 17  1  0
 15 16  1  6
 17 19  2  0
 17 18  1  0
M  END
$$$$
