TGT.pdb
     RDKit          3D

 19 18  0  0  1  0  0  0  0  0999 V2000
   19.3742  -13.2091  -19.7908 C   0  0  0  0  0  0  0  0  0  0  0  0
   19.5157  -12.2480  -18.6271 C   0  0  1  0  0  0  0  0  0  0  0  0
   18.2986  -12.1758  -17.9870 O   0  0  0  0  0  0  0  0  0  0  0  0
   20.6090  -12.7426  -17.6761 C   0  0  2  0  0  0  0  0  0  0  0  0
   20.3034  -14.1039  -17.3462 N   0  0  0  0  0  0  0  0  0  0  0  0
   20.6530  -11.8913  -16.4783 C   0  0  0  0  0  0  0  0  0  0  0  0
   20.2492  -12.3626  -15.3719 O   0  0  0  0  0  0  0  0  0  0  0  0
   21.1212  -10.5530  -16.4552 N   0  0  0  0  0  0  0  0  0  0  0  0
   21.1246   -9.7703  -15.2561 C   0  0  0  0  0  0  0  0  0  0  0  0
   21.5928   -8.3684  -15.5017 C   0  0  0  0  0  0  0  0  0  0  0  0
   22.2056   -8.0690  -16.5590 O   0  0  0  0  0  0  0  0  0  0  0  0
   19.6915   -5.4929  -16.2517 C   0  0  0  0  0  0  0  0  0  0  0  0
   20.3811   -5.1504  -14.9683 C   0  0  1  0  0  0  0  0  0  0  0  0
   19.5164   -5.2929  -13.8843 O   0  0  0  0  0  0  0  0  0  0  0  0
   21.6151   -5.9799  -14.7194 C   0  0  2  0  0  0  0  0  0  0  0  0
   21.3377   -7.3679  -14.5226 N   0  0  0  0  0  0  0  0  0  0  0  0
   22.3304   -5.3647  -13.5548 C   0  0  0  0  0  0  0  0  0  0  0  0
   22.9455   -4.1350  -13.6128 O   0  0  0  0  0  0  0  0  0  0  0  0
   22.3366   -6.0545  -12.4932 O   0  0  0  0  0  0  0  0  0  0  0  0
  2  1  1  6
  2  3  1  0
  4  2  1  0
  4  5  1  1
  6  8  1  0
  6  4  1  0
  7  6  2  0
  9 10  1  0
  9  8  1  0
 10 16  1  0
 11 10  2  0
 13 14  1  0
 13 12  1  6
 13 15  1  0
 15 17  1  0
 15 16  1  1
 17 19  2  0
 17 18  1  0
M  END
$$$$
