TGT.pdb
     RDKit          3D

 19 18  0  0  1  0  0  0  0  0999 V2000
   14.1075  -11.2908  -15.3071 C   0  0  0  0  0  0  0  0  0  0  0  0
   15.3365  -11.8395  -14.6097 C   0  0  1  0  0  0  0  0  0  0  0  0
   15.1895  -13.2046  -14.5040 O   0  0  0  0  0  0  0  0  0  0  0  0
   16.5909  -11.4817  -15.4117 C   0  0  2  0  0  0  0  0  0  0  0  0
   17.6790  -12.2343  -14.8597 N   0  0  0  0  0  0  0  0  0  0  0  0
   16.8383  -10.0346  -15.3345 C   0  0  0  0  0  0  0  0  0  0  0  0
   15.9982   -9.2371  -15.8516 O   0  0  0  0  0  0  0  0  0  0  0  0
   17.9665   -9.4399  -14.7145 N   0  0  0  0  0  0  0  0  0  0  0  0
   18.1398   -8.0197  -14.6553 C   0  0  0  0  0  0  0  0  0  0  0  0
   19.3720   -7.6355  -13.8945 C   0  0  0  0  0  0  0  0  0  0  0  0
   19.6765   -8.2194  -12.8224 O   0  0  0  0  0  0  0  0  0  0  0  0
   22.6998   -8.0906  -15.2875 C   0  0  0  0  0  0  0  0  0  0  0  0
   22.5978   -6.6376  -14.9435 C   0  0  1  0  0  0  0  0  0  0  0  0
   22.3552   -5.8715  -16.0825 O   0  0  0  0  0  0  0  0  0  0  0  0
   21.5284   -6.3445  -13.9222 C   0  0  2  0  0  0  0  0  0  0  0  0
   20.2041   -6.5960  -14.3966 N   0  0  0  0  0  0  0  0  0  0  0  0
   21.7215   -4.9258  -13.4788 C   0  0  0  0  0  0  0  0  0  0  0  0
   22.7744   -4.5195  -12.6913 O   0  0  0  0  0  0  0  0  0  0  0  0
   20.8433   -4.1059  -13.8780 O   0  0  0  0  0  0  0  0  0  0  0  0
  2  1  1  6
  2  3  1  0
  4  2  1  0
  4  5  1  1
  6  8  1  0
  6  4  1  0
  7  6  2  0
  9 10  1  0
  9  8  1  0
 10 16  1  0
 11 10  2  0
 13 14  1  0
 13 12  1  6
 13 15  1  0
 15 17  1  0
 15 16  1  6
 17 19  2  0
 17 18  1  0
M  END
$$$$
