TGT.pdb
     RDKit          3D

 19 18  0  0  1  0  0  0  0  0999 V2000
   29.3101  -21.5957  -10.2782 C   0  0  0  0  0  0  0  0  0  0  0  0
   28.5962  -21.1823  -11.5499 C   0  0  1  0  0  0  0  0  0  0  0  0
   27.8683  -22.2623  -11.9972 O   0  0  0  0  0  0  0  0  0  0  0  0
   27.6856  -19.9842  -11.2672 C   0  0  2  0  0  0  0  0  0  0  0  0
   26.6304  -20.4429  -10.4119 N   0  0  0  0  0  0  0  0  0  0  0  0
   27.1630  -19.4438  -12.5306 C   0  0  0  0  0  0  0  0  0  0  0  0
   27.9730  -18.9422  -13.3683 O   0  0  0  0  0  0  0  0  0  0  0  0
   25.7943  -19.4358  -12.9012 N   0  0  0  0  0  0  0  0  0  0  0  0
   25.3423  -18.8452  -14.1248 C   0  0  0  0  0  0  0  0  0  0  0  0
   23.8485  -18.8636  -14.2393 C   0  0  0  0  0  0  0  0  0  0  0  0
   23.1241  -18.9501  -13.2141 O   0  0  0  0  0  0  0  0  0  0  0  0
   21.8595  -16.5546  -17.1101 C   0  0  0  0  0  0  0  0  0  0  0  0
   21.4865  -18.0027  -17.0499 C   0  0  1  0  0  0  0  0  0  0  0  0
   22.0921  -18.7168  -18.0825 O   0  0  0  0  0  0  0  0  0  0  0  0
   21.8405  -18.6513  -15.7359 C   0  0  2  0  0  0  0  0  0  0  0  0
   23.2481  -18.7820  -15.5267 N   0  0  0  0  0  0  0  0  0  0  0  0
   21.1267  -19.9684  -15.6898 C   0  0  0  0  0  0  0  0  0  0  0  0
   19.7609  -20.0809  -15.5638 O   0  0  0  0  0  0  0  0  0  0  0  0
   21.8665  -20.9923  -15.7751 O   0  0  0  0  0  0  0  0  0  0  0  0
  2  1  1  1
  2  3  1  0
  4  2  1  0
  4  5  1  1
  6  8  1  0
  6  4  1  0
  7  6  2  0
  9 10  1  0
  9  8  1  0
 10 16  1  0
 11 10  2  0
 13 14  1  0
 13 12  1  1
 13 15  1  0
 15 17  1  0
 15 16  1  6
 17 19  2  0
 17 18  1  0
M  END
$$$$
