TGT.pdb
     RDKit          3D

 19 18  0  0  1  0  0  0  0  0999 V2000
   13.9139  -11.9164  -14.2052 C   0  0  0  0  0  0  0  0  0  0  0  0
   15.3244  -12.4407  -14.0224 C   0  0  1  0  0  0  0  0  0  0  0  0
   15.2614  -13.8152  -13.9659 O   0  0  0  0  0  0  0  0  0  0  0  0
   16.2045  -11.9777  -15.1867 C   0  0  2  0  0  0  0  0  0  0  0  0
   17.4052  -12.7602  -15.1511 N   0  0  0  0  0  0  0  0  0  0  0  0
   16.4896  -10.5412  -15.0582 C   0  0  0  0  0  0  0  0  0  0  0  0
   15.5241   -9.7183  -15.0633 O   0  0  0  0  0  0  0  0  0  0  0  0
   17.7867   -9.9837  -14.9255 N   0  0  0  0  0  0  0  0  0  0  0  0
   17.9992   -8.5714  -14.8217 C   0  0  0  0  0  0  0  0  0  0  0  0
   19.4381   -8.2368  -14.5719 C   0  0  0  0  0  0  0  0  0  0  0  0
   20.2316   -9.1008  -14.1168 O   0  0  0  0  0  0  0  0  0  0  0  0
   23.2486   -5.6073  -15.9762 C   0  0  0  0  0  0  0  0  0  0  0  0
   21.7566   -5.6765  -15.8816 C   0  0  1  0  0  0  0  0  0  0  0  0
   21.2038   -6.1605  -17.0662 O   0  0  0  0  0  0  0  0  0  0  0  0
   21.2748   -6.5288  -14.7352 C   0  0  2  0  0  0  0  0  0  0  0  0
   19.9066   -6.9234  -14.8551 N   0  0  0  0  0  0  0  0  0  0  0  0
   21.5452   -5.7636  -13.4751 C   0  0  0  0  0  0  0  0  0  0  0  0
   22.6653   -5.9602  -12.7002 O   0  0  0  0  0  0  0  0  0  0  0  0
   20.6668   -4.9090  -13.1576 O   0  0  0  0  0  0  0  0  0  0  0  0
  2  1  1  6
  2  3  1  0
  4  2  1  0
  4  5  1  1
  6  8  1  0
  6  4  1  0
  7  6  2  0
  9 10  1  0
  9  8  1  0
 10 16  1  0
 11 10  2  0
 13 14  1  0
 13 12  1  6
 13 15  1  0
 15 17  1  0
 15 16  1  6
 17 19  2  0
 17 18  1  0
M  END
$$$$
