RNT.pdb
     RDKit          3D

 27 26  0  0  1  0  0  0  0  0999 V2000
   28.0425  -18.0031   -6.4791 N   0  0  0  0  0  0  0  0  0  0  0  0
   28.3837  -19.2012   -5.7942 C   0  0  0  0  0  0  0  0  0  0  0  0
   28.9001  -19.2027   -4.6081 N   0  0  0  0  0  0  0  0  0  0  0  0
   28.1573  -20.4668   -6.4235 N   0  0  0  0  0  0  0  0  0  0  0  0
   27.8884  -20.4918   -7.8495 C   0  0  0  0  0  0  0  0  0  0  0  0
   26.5130  -19.9617   -8.0892 C   0  0  0  0  0  0  0  0  0  0  0  0
   25.7236  -20.8442   -8.9712 C   0  0  0  0  0  0  0  0  0  0  0  0
   26.0929  -20.9059  -10.4054 C   0  0  2  0  0  0  0  0  0  0  0  0
   26.6147  -19.7224  -10.9967 N   0  0  0  0  0  0  0  0  0  0  0  0
   24.9449  -21.3636  -11.2675 C   0  0  0  0  0  0  0  0  0  0  0  0
   24.4882  -22.5337  -11.2063 O   0  0  0  0  0  0  0  0  0  0  0  0
   29.1480  -20.1334   -4.2070 N   0  0  0  0  0  0  0  0  0  0  0  0
   20.5762  -21.5701  -13.8533 C   0  0  0  0  0  0  0  0  0  0  0  0
   20.7436  -21.1772  -12.4737 O   0  0  0  0  0  0  0  0  0  0  0  0
   19.6798  -21.1940  -11.8145 C   0  0  0  0  0  0  0  0  0  0  0  0
   22.0579  -20.8081  -11.9653 C   0  0  2  0  0  0  0  0  0  0  0  0
   23.1563  -20.8563  -12.9995 N   0  0  0  0  0  0  0  0  0  0  0  0
   24.3573  -20.4697  -12.1706 C   0  0  0  0  0  0  0  0  0  0  0  0
   23.0752  -19.7579  -13.9855 O   0  0  0  0  0  0  0  0  0  0  0  0
   23.2071  -18.5618  -13.5427 C   0  0  0  0  0  0  0  0  0  0  0  0
   23.1091  -20.2346  -18.2001 C   0  0  2  0  0  0  0  0  0  0  0  0
   23.8292  -19.1086  -17.4569 O   0  0  0  0  0  0  0  0  0  0  0  0
   23.8667  -18.0306  -18.3291 C   0  0  1  0  0  0  0  0  0  0  0  0
   22.9826  -18.7757  -16.2423 N   0  0  0  0  0  0  0  0  0  0  0  0
   22.8705  -19.9390  -15.3637 C   0  0  0  0  0  0  0  0  0  0  0  0
   21.6031  -18.4065  -16.6559 O   0  0  0  0  0  0  0  0  0  0  0  0
   20.6355  -19.1367  -16.3898 O   0  0  0  0  0  0  0  0  0  0  0  0
  2  1  1  0
  3  2  2  0
  4  2  1  0
  5  4  1  0
  6  5  1  0
  7  8  1  0
  7  6  1  0
  8  9  1  6
 10  8  1  0
 10 17  1  0
 11 10  2  0
 13 12  1  0
 14 13  2  0
 16 15  1  1
 15 13  1  0
 16 17  1  0
 18 16  1  0
 19 18  2  0
 21 20  1  6
 21 22  1  0
 23 21  1  0
 23 24  1  1
 24 18  1  0
 25 23  1  0
 26 25  2  0
 27 25  1  0
M  END
$$$$
