RNT.pdb
     RDKit          3D

 27 26  0  0  1  0  0  0  0  0999 V2000
   21.2835  -20.9213   -8.5809 N   0  0  0  0  0  0  0  0  0  0  0  0
   22.3081  -21.3321   -7.6852 C   0  0  0  0  0  0  0  0  0  0  0  0
   22.0892  -21.5500   -6.4291 N   0  0  0  0  0  0  0  0  0  0  0  0
   23.6422  -21.5162   -8.1704 N   0  0  0  0  0  0  0  0  0  0  0  0
   24.4496  -20.3401   -8.4371 C   0  0  0  0  0  0  0  0  0  0  0  0
   25.8354  -20.7760   -8.7832 C   0  0  0  0  0  0  0  0  0  0  0  0
   26.0127  -20.9604  -10.2373 C   0  0  0  0  0  0  0  0  0  0  0  0
   25.2158  -20.1062  -11.1497 C   0  0  2  0  0  0  0  0  0  0  0  0
   23.8223  -20.3743  -11.2443 N   0  0  0  0  0  0  0  0  0  0  0  0
   25.7645  -20.1090  -12.5532 C   0  0  0  0  0  0  0  0  0  0  0  0
   26.9364  -19.7345  -12.8133 O   0  0  0  0  0  0  0  0  0  0  0  0
   22.9088  -21.8473   -5.8560 N   0  0  0  0  0  0  0  0  0  0  0  0
   27.8388  -21.7358  -15.7583 C   0  0  0  0  0  0  0  0  0  0  0  0
   26.6387  -22.5387  -15.7282 O   0  0  0  0  0  0  0  0  0  0  0  0
   26.8406  -23.7519  -15.9607 C   0  0  0  0  0  0  0  0  0  0  0  0
   25.3473  -21.9262  -15.4472 C   0  0  2  0  0  0  0  0  0  0  0  0
   25.4269  -20.4736  -15.0450 N   0  0  0  0  0  0  0  0  0  0  0  0
   24.9562  -20.5393  -13.6121 C   0  0  0  0  0  0  0  0  0  0  0  0
   24.3933  -19.6348  -15.6880 O   0  0  0  0  0  0  0  0  0  0  0  0
   23.2074  -19.6917  -15.2037 C   0  0  0  0  0  0  0  0  0  0  0  0
   22.9608  -15.8563  -18.4504 C   0  0  2  0  0  0  0  0  0  0  0  0
   24.1232  -16.7890  -18.1078 O   0  0  0  0  0  0  0  0  0  0  0  0
   25.0657  -16.0095  -17.4535 C   0  0  1  0  0  0  0  0  0  0  0  0
   23.5721  -17.8480  -17.1712 N   0  0  0  0  0  0  0  0  0  0  0  0
   24.6260  -18.7833  -16.7812 C   0  0  0  0  0  0  0  0  0  0  0  0
   22.5134  -18.6414  -17.8495 O   0  0  0  0  0  0  0  0  0  0  0  0
   22.7995  -19.5080  -18.6906 O   0  0  0  0  0  0  0  0  0  0  0  0
  2  1  1  0
  3  2  2  0
  4  2  1  0
  5  4  1  0
  6  5  1  0
  7  8  1  0
  7  6  1  0
  8  9  1  6
 10  8  1  0
 10 17  1  0
 11 10  2  0
 13 12  1  0
 14 13  2  0
 16 15  1  1
 15 13  1  0
 16 17  1  0
 18 16  1  0
 19 18  2  0
 21 20  1  6
 21 22  1  0
 23 21  1  0
 23 24  1  6
 24 18  1  0
 25 23  1  0
 26 25  2  0
 27 25  1  0
M  END
$$$$
