RNT.pdb
     RDKit          3D

 27 26  0  0  1  0  0  0  0  0999 V2000
   27.3499  -20.8691  -12.7139 N   0  0  0  0  0  0  0  0  0  0  0  0
   26.8745  -21.5920  -11.5859 C   0  0  0  0  0  0  0  0  0  0  0  0
   27.0989  -21.2121  -10.3699 N   0  0  0  0  0  0  0  0  0  0  0  0
   26.1171  -22.7911  -11.7800 N   0  0  0  0  0  0  0  0  0  0  0  0
   25.4251  -22.9752  -13.0423 C   0  0  0  0  0  0  0  0  0  0  0  0
   24.0439  -22.4206  -12.9193 C   0  0  0  0  0  0  0  0  0  0  0  0
   23.4168  -22.1949  -14.2366 C   0  0  0  0  0  0  0  0  0  0  0  0
   23.9724  -21.1240  -15.0980 C   0  0  2  0  0  0  0  0  0  0  0  0
   24.7394  -20.1081  -14.4637 N   0  0  0  0  0  0  0  0  0  0  0  0
   22.9038  -20.4342  -15.9059 C   0  0  0  0  0  0  0  0  0  0  0  0
   22.1214  -21.0682  -16.6590 O   0  0  0  0  0  0  0  0  0  0  0  0
   26.7556  -21.8418   -9.6122 N   0  0  0  0  0  0  0  0  0  0  0  0
   19.1587  -19.4309  -16.7764 C   0  0  0  0  0  0  0  0  0  0  0  0
   19.4497  -18.5498  -15.6697 O   0  0  0  0  0  0  0  0  0  0  0  0
   18.5004  -18.4264  -14.8633 C   0  0  0  0  0  0  0  0  0  0  0  0
   20.7487  -17.8987  -15.5660 C   0  0  2  0  0  0  0  0  0  0  0  0
   21.7300  -18.3033  -16.6392 N   0  0  0  0  0  0  0  0  0  0  0  0
   22.7651  -19.0434  -15.8267 C   0  0  0  0  0  0  0  0  0  0  0  0
   22.4986  -17.1639  -17.1837 O   0  0  0  0  0  0  0  0  0  0  0  0
   22.0478  -16.6074  -18.2472 C   0  0  0  0  0  0  0  0  0  0  0  0
   25.9481  -15.5032  -15.4299 C   0  0  2  0  0  0  0  0  0  0  0  0
   24.9774  -14.6189  -16.2137 O   0  0  0  0  0  0  0  0  0  0  0  0
   25.7507  -13.6460  -16.8298 C   0  0  1  0  0  0  0  0  0  0  0  0
   24.3198  -15.5071  -17.2536 N   0  0  0  0  0  0  0  0  0  0  0  0
   23.6766  -16.6532  -16.6129 C   0  0  0  0  0  0  0  0  0  0  0  0
   25.3370  -16.0468  -18.1940 O   0  0  0  0  0  0  0  0  0  0  0  0
   25.6778  -17.2396  -18.1566 O   0  0  0  0  0  0  0  0  0  0  0  0
  2  1  1  0
  3  2  2  0
  4  2  1  0
  5  4  1  0
  6  5  1  0
  7  8  1  0
  7  6  1  0
  8  9  1  1
 10  8  1  0
 10 17  1  0
 11 10  2  0
 13 12  1  0
 14 13  2  0
 16 15  1  6
 15 13  1  0
 16 17  1  0
 18 16  1  0
 19 18  2  0
 21 20  1  1
 21 22  1  0
 23 21  1  0
 23 24  1  1
 24 18  1  0
 25 23  1  0
 26 25  2  0
 27 25  1  0
M  END
$$$$
