RNT.pdb
     RDKit          3D

 27 26  0  0  1  0  0  0  0  0999 V2000
   17.5003  -15.4598  -16.1989 N   0  0  0  0  0  0  0  0  0  0  0  0
   18.2340  -15.6625  -17.3995 C   0  0  0  0  0  0  0  0  0  0  0  0
   18.4490  -16.8381  -17.8945 N   0  0  0  0  0  0  0  0  0  0  0  0
   18.7664  -14.5358  -18.1040 N   0  0  0  0  0  0  0  0  0  0  0  0
   18.3027  -13.2099  -17.7390 C   0  0  0  0  0  0  0  0  0  0  0  0
   19.0388  -12.7614  -16.5194 C   0  0  0  0  0  0  0  0  0  0  0  0
   18.6739  -11.3863  -16.1249 C   0  0  0  0  0  0  0  0  0  0  0  0
   17.6693  -11.2141  -15.0486 C   0  0  2  0  0  0  0  0  0  0  0  0
   16.3237  -11.5621  -15.3498 N   0  0  0  0  0  0  0  0  0  0  0  0
   17.6535   -9.8080  -14.5071 C   0  0  0  0  0  0  0  0  0  0  0  0
   16.9043   -8.9170  -14.9827 O   0  0  0  0  0  0  0  0  0  0  0  0
   18.9717  -16.8775  -18.7966 N   0  0  0  0  0  0  0  0  0  0  0  0
   15.8238   -8.4455  -11.9352 C   0  0  0  0  0  0  0  0  0  0  0  0
   16.8836   -8.5934  -10.9652 O   0  0  0  0  0  0  0  0  0  0  0  0
   16.4753   -8.8624   -9.8130 C   0  0  0  0  0  0  0  0  0  0  0  0
   18.2758   -8.4304  -11.3618 C   0  0  2  0  0  0  0  0  0  0  0  0
   18.4670   -8.0910  -12.8200 N   0  0  0  0  0  0  0  0  0  0  0  0
   18.4940   -9.4669  -13.4408 C   0  0  0  0  0  0  0  0  0  0  0  0
   19.8173   -7.5714  -13.1238 O   0  0  0  0  0  0  0  0  0  0  0  0
   20.8168   -8.2492  -12.6930 C   0  0  0  0  0  0  0  0  0  0  0  0
   21.6140   -7.3741  -16.1991 C   0  0  2  0  0  0  0  0  0  0  0  0
   21.6744   -5.9490  -15.6477 O   0  0  0  0  0  0  0  0  0  0  0  0
   20.6247   -5.2603  -16.2375 C   0  0  2  0  0  0  0  0  0  0  0  0
   21.4623   -6.0514  -14.1486 N   0  0  0  0  0  0  0  0  0  0  0  0
   20.0730   -6.3972  -13.8520 C   0  0  0  0  0  0  0  0  0  0  0  0
   21.7361   -4.7447  -13.4947 O   0  0  0  0  0  0  0  0  0  0  0  0
   20.8117   -4.0258  -13.0834 O   0  0  0  0  0  0  0  0  0  0  0  0
  2  1  1  0
  3  2  2  0
  4  2  1  0
  5  4  1  0
  6  5  1  0
  7  8  1  0
  7  6  1  0
  8  9  1  6
 10  8  1  0
 10 17  1  0
 11 10  2  0
 13 12  1  0
 14 13  2  0
 16 15  1  6
 15 13  1  0
 16 17  1  0
 18 16  1  0
 19 18  2  0
 21 20  1  6
 21 22  1  0
 23 21  1  0
 23 24  1  1
 24 18  1  0
 25 23  1  0
 26 25  2  0
 27 25  1  0
M  END
$$$$
