RNT.pdb
     RDKit          3D

 27 26  0  0  1  0  0  0  0  0999 V2000
   25.5549  -21.5158   -9.9141 N   0  0  0  0  0  0  0  0  0  0  0  0
   24.1723  -21.3149   -9.6518 C   0  0  0  0  0  0  0  0  0  0  0  0
   23.6524  -21.4925   -8.4807 N   0  0  0  0  0  0  0  0  0  0  0  0
   23.3025  -20.9015  -10.7109 N   0  0  0  0  0  0  0  0  0  0  0  0
   23.7933  -20.9689  -12.0750 C   0  0  0  0  0  0  0  0  0  0  0  0
   24.6357  -19.7653  -12.3435 C   0  0  0  0  0  0  0  0  0  0  0  0
   25.7155  -20.0476  -13.3099 C   0  0  0  0  0  0  0  0  0  0  0  0
   25.4075  -19.9220  -14.7544 C   0  0  2  0  0  0  0  0  0  0  0  0
   24.4963  -20.8610  -15.3117 N   0  0  0  0  0  0  0  0  0  0  0  0
   26.6514  -19.9526  -15.6044 C   0  0  0  0  0  0  0  0  0  0  0  0
   27.6484  -19.2276  -15.3562 O   0  0  0  0  0  0  0  0  0  0  0  0
   22.6194  -21.3670   -8.4036 N   0  0  0  0  0  0  0  0  0  0  0  0
   29.0637  -22.4934  -15.4622 C   0  0  0  0  0  0  0  0  0  0  0  0
   28.5464  -23.1848  -16.6199 O   0  0  0  0  0  0  0  0  0  0  0  0
   28.6047  -24.4317  -16.5273 C   0  0  0  0  0  0  0  0  0  0  0  0
   28.0216  -22.4360  -17.7539 C   0  0  2  0  0  0  0  0  0  0  0  0
   27.9696  -20.9431  -17.5376 N   0  0  0  0  0  0  0  0  0  0  0  0
   26.7145  -20.8099  -16.7093 C   0  0  0  0  0  0  0  0  0  0  0  0
   27.6309  -20.1895  -18.7635 O   0  0  0  0  0  0  0  0  0  0  0  0
   26.4302  -20.2916  -19.2015 C   0  0  0  0  0  0  0  0  0  0  0  0
   27.8803  -16.5235  -19.3475 C   0  0  2  0  0  0  0  0  0  0  0  0
   28.5367  -17.1821  -20.5616 O   0  0  0  0  0  0  0  0  0  0  0  0
   29.9026  -17.1646  -20.3206 C   0  0  2  0  0  0  0  0  0  0  0  0
   28.0278  -18.6107  -20.6119 N   0  0  0  0  0  0  0  0  0  0  0  0
   28.5300  -19.3722  -19.4692 C   0  0  0  0  0  0  0  0  0  0  0  0
   28.5156  -19.2930  -21.8394 O   0  0  0  0  0  0  0  0  0  0  0  0
   29.3090  -20.2452  -21.7731 O   0  0  0  0  0  0  0  0  0  0  0  0
  2  1  1  0
  3  2  2  0
  4  2  1  0
  5  4  1  0
  6  5  1  0
  7  8  1  0
  7  6  1  0
  8  9  1  6
 10  8  1  0
 10 17  1  0
 11 10  2  0
 13 12  1  0
 14 13  2  0
 16 15  1  1
 15 13  1  0
 16 17  1  0
 18 16  1  0
 19 18  2  0
 21 20  1  6
 21 22  1  0
 23 21  1  0
 23 24  1  6
 24 18  1  0
 25 23  1  0
 26 25  2  0
 27 25  1  0
M  END
$$$$
