RNT.pdb
     RDKit          3D

 27 26  0  0  1  0  0  0  0  0999 V2000
   31.9113  -24.9185  -17.6203 N   0  0  0  0  0  0  0  0  0  0  0  0
   31.1046  -24.2004  -18.5447 C   0  0  0  0  0  0  0  0  0  0  0  0
   31.5435  -23.8130  -19.6981 N   0  0  0  0  0  0  0  0  0  0  0  0
   29.7509  -23.8812  -18.2058 N   0  0  0  0  0  0  0  0  0  0  0  0
   29.2331  -24.3328  -16.9274 C   0  0  0  0  0  0  0  0  0  0  0  0
   29.0486  -23.1480  -16.0372 C   0  0  0  0  0  0  0  0  0  0  0  0
   27.6921  -23.0953  -15.4569 C   0  0  0  0  0  0  0  0  0  0  0  0
   26.6326  -22.3994  -16.2254 C   0  0  2  0  0  0  0  0  0  0  0  0
   26.8211  -21.0150  -16.4909 N   0  0  0  0  0  0  0  0  0  0  0  0
   25.2768  -22.5478  -15.5848 C   0  0  0  0  0  0  0  0  0  0  0  0
   24.8481  -23.6575  -15.1772 O   0  0  0  0  0  0  0  0  0  0  0  0
   30.8604  -23.3277  -20.3197 N   0  0  0  0  0  0  0  0  0  0  0  0
   20.8756  -21.3720  -13.0876 C   0  0  0  0  0  0  0  0  0  0  0  0
   22.0121  -20.5243  -12.8126 O   0  0  0  0  0  0  0  0  0  0  0  0
   21.8597  -19.7900  -11.8105 C   0  0  0  0  0  0  0  0  0  0  0  0
   23.1924  -20.5720  -13.6650 C   0  0  2  0  0  0  0  0  0  0  0  0
   23.0764  -21.5273  -14.8279 N   0  0  0  0  0  0  0  0  0  0  0  0
   24.4563  -21.4240  -15.4316 C   0  0  0  0  0  0  0  0  0  0  0  0
   22.2089  -21.0205  -15.9123 O   0  0  0  0  0  0  0  0  0  0  0  0
   22.5698  -19.9358  -16.4932 C   0  0  0  0  0  0  0  0  0  0  0  0
   20.8353  -22.8910  -18.9763 C   0  0  2  0  0  0  0  0  0  0  0  0
   19.6765  -22.1323  -18.3281 O   0  0  0  0  0  0  0  0  0  0  0  0
   19.0009  -23.0544  -17.5424 C   0  0  2  0  0  0  0  0  0  0  0  0
   20.2934  -21.0510  -17.4604 N   0  0  0  0  0  0  0  0  0  0  0  0
   21.0292  -21.6480  -16.3468 C   0  0  0  0  0  0  0  0  0  0  0  0
   19.2341  -20.1898  -16.8719 O   0  0  0  0  0  0  0  0  0  0  0  0
   19.0164  -20.1833  -15.6500 O   0  0  0  0  0  0  0  0  0  0  0  0
  2  1  1  0
  3  2  2  0
  4  2  1  0
  5  4  1  0
  6  5  1  0
  7  8  1  0
  7  6  1  0
  8  9  1  1
 10  8  1  0
 10 17  1  0
 11 10  2  0
 13 12  1  0
 14 13  2  0
 16 15  1  1
 15 13  1  0
 16 17  1  0
 18 16  1  0
 19 18  2  0
 21 20  1  6
 21 22  1  0
 23 21  1  0
 23 24  1  6
 24 18  1  0
 25 23  1  0
 26 25  2  0
 27 25  1  0
M  END
$$$$
