RNT.pdb
     RDKit          3D

 27 26  0  0  1  0  0  0  0  0999 V2000
   23.0479  -19.8752   -8.1390 N   0  0  0  0  0  0  0  0  0  0  0  0
   23.2173  -21.2793   -7.9946 C   0  0  0  0  0  0  0  0  0  0  0  0
   22.2744  -22.0543   -7.5660 N   0  0  0  0  0  0  0  0  0  0  0  0
   24.4728  -21.8801   -8.3290 N   0  0  0  0  0  0  0  0  0  0  0  0
   25.3394  -21.1936   -9.2692 C   0  0  0  0  0  0  0  0  0  0  0  0
   24.4996  -20.5976  -10.3509 C   0  0  0  0  0  0  0  0  0  0  0  0
   25.3173  -19.9482  -11.3946 C   0  0  0  0  0  0  0  0  0  0  0  0
   25.3376  -20.5603  -12.7444 C   0  0  2  0  0  0  0  0  0  0  0  0
   26.3767  -21.4903  -13.0240 N   0  0  0  0  0  0  0  0  0  0  0  0
   25.3644  -19.5232  -13.8373 C   0  0  0  0  0  0  0  0  0  0  0  0
   24.8261  -18.3950  -13.7013 O   0  0  0  0  0  0  0  0  0  0  0  0
   22.4984  -23.0712   -7.5001 N   0  0  0  0  0  0  0  0  0  0  0  0
   29.1917  -18.5199  -18.3452 C   0  0  0  0  0  0  0  0  0  0  0  0
   28.1515  -18.0326  -17.4697 O   0  0  0  0  0  0  0  0  0  0  0  0
   27.7362  -16.8909  -17.7707 C   0  0  0  0  0  0  0  0  0  0  0  0
   27.6790  -18.8482  -16.3590 C   0  0  2  0  0  0  0  0  0  0  0  0
   26.1925  -18.7565  -16.1139 N   0  0  0  0  0  0  0  0  0  0  0  0
   26.0050  -19.8098  -15.0486 C   0  0  0  0  0  0  0  0  0  0  0  0
   25.3848  -19.2816  -17.2352 O   0  0  0  0  0  0  0  0  0  0  0  0
   25.5869  -20.4989  -17.5836 C   0  0  0  0  0  0  0  0  0  0  0  0
   21.8468  -17.5745  -18.6155 C   0  0  2  0  0  0  0  0  0  0  0  0
   22.1391  -19.0750  -18.6561 O   0  0  0  0  0  0  0  0  0  0  0  0
   21.3843  -19.5888  -19.7003 C   0  0  1  0  0  0  0  0  0  0  0  0
   23.6199  -19.2236  -18.9523 N   0  0  0  0  0  0  0  0  0  0  0  0
   24.4155  -18.5413  -17.9329 C   0  0  0  0  0  0  0  0  0  0  0  0
   23.9539  -18.5970  -20.2585 O   0  0  0  0  0  0  0  0  0  0  0  0
   24.6070  -17.5432  -20.3172 O   0  0  0  0  0  0  0  0  0  0  0  0
  2  1  1  0
  3  2  2  0
  4  2  1  0
  5  4  1  0
  6  5  1  0
  7  8  1  0
  7  6  1  0
  8  9  1  1
 10  8  1  0
 10 17  1  0
 11 10  2  0
 13 12  1  0
 14 13  2  0
 16 15  1  1
 15 13  1  0
 16 17  1  0
 18 16  1  0
 19 18  2  0
 21 20  1  1
 21 22  1  0
 23 21  1  0
 23 24  1  1
 24 18  1  0
 25 23  1  0
 26 25  2  0
 27 25  1  0
M  END
$$$$
