RNT.pdb
     RDKit          3D

 27 26  0  0  1  0  0  0  0  0999 V2000
   20.2329  -21.5137   -9.6585 N   0  0  0  0  0  0  0  0  0  0  0  0
   20.7581  -20.2262   -9.9543 C   0  0  0  0  0  0  0  0  0  0  0  0
   20.0343  -19.2757  -10.4501 N   0  0  0  0  0  0  0  0  0  0  0  0
   22.1399  -19.9494   -9.7033 N   0  0  0  0  0  0  0  0  0  0  0  0
   23.1047  -21.0167   -9.8936 C   0  0  0  0  0  0  0  0  0  0  0  0
   24.4416  -20.5468   -9.4220 C   0  0  0  0  0  0  0  0  0  0  0  0
   25.3740  -20.3108  -10.5421 C   0  0  0  0  0  0  0  0  0  0  0  0
   25.4501  -21.3338  -11.6121 C   0  0  2  0  0  0  0  0  0  0  0  0
   26.4997  -22.2897  -11.5279 N   0  0  0  0  0  0  0  0  0  0  0  0
   25.5221  -20.7153  -12.9843 C   0  0  0  0  0  0  0  0  0  0  0  0
   26.5021  -20.0187  -13.3527 O   0  0  0  0  0  0  0  0  0  0  0  0
   20.5156  -18.3683  -10.6338 N   0  0  0  0  0  0  0  0  0  0  0  0
   26.8595  -20.3979  -16.8847 C   0  0  0  0  0  0  0  0  0  0  0  0
   26.0736  -21.6084  -16.8316 O   0  0  0  0  0  0  0  0  0  0  0  0
   26.5691  -22.5573  -17.4803 C   0  0  0  0  0  0  0  0  0  0  0  0
   24.8298  -21.6487  -16.0744 C   0  0  2  0  0  0  0  0  0  0  0  0
   24.5353  -20.3856  -15.3024 N   0  0  0  0  0  0  0  0  0  0  0  0
   24.4725  -20.9130  -13.8892 C   0  0  0  0  0  0  0  0  0  0  0  0
   23.1644  -19.8772  -15.5204 O   0  0  0  0  0  0  0  0  0  0  0  0
   22.1941  -20.6430  -15.1794 C   0  0  0  0  0  0  0  0  0  0  0  0
   21.4957  -19.5651  -18.4021 C   0  0  2  0  0  0  0  0  0  0  0  0
   21.1937  -18.1891  -17.8072 O   0  0  0  0  0  0  0  0  0  0  0  0
   19.8479  -17.9512  -18.0445 C   0  0  1  0  0  0  0  0  0  0  0  0
   21.4569  -18.2905  -16.3162 N   0  0  0  0  0  0  0  0  0  0  0  0
   22.8596  -18.6190  -16.0665 C   0  0  0  0  0  0  0  0  0  0  0  0
   20.6403  -19.3790  -15.7174 O   0  0  0  0  0  0  0  0  0  0  0  0
   21.0920  -20.5286  -15.5961 O   0  0  0  0  0  0  0  0  0  0  0  0
  2  1  1  0
  3  2  2  0
  4  2  1  0
  5  4  1  0
  6  5  1  0
  7  8  1  0
  7  6  1  0
  8  9  1  1
 10  8  1  0
 10 17  1  0
 11 10  2  0
 13 12  1  0
 14 13  2  0
 16 15  1  1
 15 13  1  0
 16 17  1  0
 18 16  1  0
 19 18  2  0
 21 20  1  6
 21 22  1  0
 23 21  1  0
 23 24  1  6
 24 18  1  0
 25 23  1  0
 26 25  2  0
 27 25  1  0
M  END
$$$$
