RNT.pdb
     RDKit          3D

 27 26  0  0  1  0  0  0  0  0999 V2000
   29.1151  -23.3230  -16.4027 N   0  0  0  0  0  0  0  0  0  0  0  0
   28.0043  -22.8289  -17.1395 C   0  0  0  0  0  0  0  0  0  0  0  0
   28.1356  -22.0107  -18.1328 N   0  0  0  0  0  0  0  0  0  0  0  0
   26.6793  -23.2383  -16.7846 N   0  0  0  0  0  0  0  0  0  0  0  0
   25.6591  -22.2181  -16.6276 C   0  0  0  0  0  0  0  0  0  0  0  0
   25.8372  -21.5598  -15.2989 C   0  0  0  0  0  0  0  0  0  0  0  0
   24.7650  -21.9226  -14.3512 C   0  0  0  0  0  0  0  0  0  0  0  0
   23.4305  -22.2559  -14.9039 C   0  0  2  0  0  0  0  0  0  0  0  0
   23.1659  -21.8719  -16.2475 N   0  0  0  0  0  0  0  0  0  0  0  0
   22.3122  -21.7061  -14.0568 C   0  0  0  0  0  0  0  0  0  0  0  0
   22.3921  -21.6432  -12.8034 O   0  0  0  0  0  0  0  0  0  0  0  0
   27.2575  -21.7048  -18.6061 N   0  0  0  0  0  0  0  0  0  0  0  0
   20.2100  -20.2316  -11.0964 C   0  0  0  0  0  0  0  0  0  0  0  0
   20.7149  -19.1968  -11.9683 O   0  0  0  0  0  0  0  0  0  0  0  0
   21.1991  -18.2177  -11.3572 C   0  0  0  0  0  0  0  0  0  0  0  0
   20.6344  -19.3460  -13.4151 C   0  0  2  0  0  0  0  0  0  0  0  0
   20.0116  -20.6439  -13.8687 N   0  0  0  0  0  0  0  0  0  0  0  0
   21.1403  -21.2470  -14.6697 C   0  0  0  0  0  0  0  0  0  0  0  0
   18.9551  -20.4577  -14.8858 O   0  0  0  0  0  0  0  0  0  0  0  0
   19.2506  -19.7534  -15.9158 C   0  0  0  0  0  0  0  0  0  0  0  0
   16.2666  -23.0502  -16.3886 C   0  0  2  0  0  0  0  0  0  0  0  0
   15.6144  -21.7527  -15.9093 O   0  0  0  0  0  0  0  0  0  0  0  0
   15.1401  -22.0066  -14.6308 C   0  0  2  0  0  0  0  0  0  0  0  0
   16.7094  -20.7031  -15.8673 N   0  0  0  0  0  0  0  0  0  0  0  0
   17.6627  -21.0023  -14.7998 C   0  0  0  0  0  0  0  0  0  0  0  0
   16.1342  -19.3635  -15.5759 O   0  0  0  0  0  0  0  0  0  0  0  0
   16.3773  -18.7781  -14.5089 O   0  0  0  0  0  0  0  0  0  0  0  0
  2  1  1  0
  3  2  2  0
  4  2  1  0
  5  4  1  0
  6  5  1  0
  7  8  1  0
  7  6  1  0
  8  9  1  6
 10  8  1  0
 10 17  1  0
 11 10  2  0
 13 12  1  0
 14 13  2  0
 16 15  1  1
 15 13  1  0
 16 17  1  0
 18 16  1  0
 19 18  2  0
 21 20  1  6
 21 22  1  0
 23 21  1  0
 23 24  1  6
 24 18  1  0
 25 23  1  0
 26 25  2  0
 27 25  1  0
M  END
$$$$
