RNT.pdb
     RDKit          3D

 27 26  0  0  1  0  0  0  0  0999 V2000
   24.4693  -20.2803  -12.6071 N   0  0  0  0  0  0  0  0  0  0  0  0
   25.2667  -20.6671  -11.4956 C   0  0  0  0  0  0  0  0  0  0  0  0
   24.7598  -21.1618  -10.4131 N   0  0  0  0  0  0  0  0  0  0  0  0
   26.6884  -20.5101  -11.5539 N   0  0  0  0  0  0  0  0  0  0  0  0
   27.2535  -19.7242  -12.6352 C   0  0  0  0  0  0  0  0  0  0  0  0
   28.1645  -20.5942  -13.4375 C   0  0  0  0  0  0  0  0  0  0  0  0
   27.4339  -21.6750  -14.1286 C   0  0  0  0  0  0  0  0  0  0  0  0
   27.5997  -21.7996  -15.5963 C   0  0  2  0  0  0  0  0  0  0  0  0
   28.9260  -21.7673  -16.1086 N   0  0  0  0  0  0  0  0  0  0  0  0
   26.8086  -20.7596  -16.3468 C   0  0  0  0  0  0  0  0  0  0  0  0
   27.3244  -19.6819  -16.7390 O   0  0  0  0  0  0  0  0  0  0  0  0
   25.4336  -21.4527   -9.6715 N   0  0  0  0  0  0  0  0  0  0  0  0
   24.4645  -18.3660  -19.7006 C   0  0  0  0  0  0  0  0  0  0  0  0
   24.4755  -19.7967  -19.8978 O   0  0  0  0  0  0  0  0  0  0  0  0
   24.4128  -20.1380  -21.1004 C   0  0  0  0  0  0  0  0  0  0  0  0
   24.5536  -20.6988  -18.7568 C   0  0  2  0  0  0  0  0  0  0  0  0
   24.6349  -20.0003  -17.4213 N   0  0  0  0  0  0  0  0  0  0  0  0
   25.4551  -20.9855  -16.6239 C   0  0  0  0  0  0  0  0  0  0  0  0
   23.3481  -19.9853  -16.6937 O   0  0  0  0  0  0  0  0  0  0  0  0
   22.9284  -21.1012  -16.2218 C   0  0  0  0  0  0  0  0  0  0  0  0
   20.5607  -16.8201  -16.5889 C   0  0  2  0  0  0  0  0  0  0  0  0
   20.8157  -17.6021  -15.2996 O   0  0  0  0  0  0  0  0  0  0  0  0
   19.5862  -17.7203  -14.6685 C   0  0  1  0  0  0  0  0  0  0  0  0
   21.3308  -18.9685  -15.7122 N   0  0  0  0  0  0  0  0  0  0  0  0
   22.5661  -18.8370  -16.4832 C   0  0  0  0  0  0  0  0  0  0  0  0
   20.3422  -19.6545  -16.5853 O   0  0  0  0  0  0  0  0  0  0  0  0
   20.4947  -19.7000  -17.8162 O   0  0  0  0  0  0  0  0  0  0  0  0
  2  1  1  0
  3  2  2  0
  4  2  1  0
  5  4  1  0
  6  5  1  0
  7  8  1  0
  7  6  1  0
  8  9  1  1
 10  8  1  0
 10 17  1  0
 11 10  2  0
 13 12  1  0
 14 13  2  0
 16 15  1  6
 15 13  1  0
 16 17  1  0
 18 16  1  0
 19 18  2  0
 21 20  1  1
 21 22  1  0
 23 21  1  0
 23 24  1  1
 24 18  1  0
 25 23  1  0
 26 25  2  0
 27 25  1  0
M  END
$$$$
