RNT.pdb
     RDKit          3D

 27 26  0  0  1  0  0  0  0  0999 V2000
   26.1222  -21.0133   -8.1684 N   0  0  0  0  0  0  0  0  0  0  0  0
   24.8664  -20.8683   -8.8188 C   0  0  0  0  0  0  0  0  0  0  0  0
   23.7406  -20.9607   -8.1884 N   0  0  0  0  0  0  0  0  0  0  0  0
   24.8224  -20.6115  -10.2264 N   0  0  0  0  0  0  0  0  0  0  0  0
   25.4816  -21.5453  -11.1207 C   0  0  0  0  0  0  0  0  0  0  0  0
   26.7033  -20.8943  -11.6810 C   0  0  0  0  0  0  0  0  0  0  0  0
   26.3708  -19.8005  -12.6152 C   0  0  0  0  0  0  0  0  0  0  0  0
   25.4932  -20.1124  -13.7684 C   0  0  2  0  0  0  0  0  0  0  0  0
   24.8782  -21.3945  -13.7928 N   0  0  0  0  0  0  0  0  0  0  0  0
   26.2033  -19.9357  -15.0857 C   0  0  0  0  0  0  0  0  0  0  0  0
   26.8613  -18.8989  -15.3564 O   0  0  0  0  0  0  0  0  0  0  0  0
   22.8746  -20.8342   -8.7565 N   0  0  0  0  0  0  0  0  0  0  0  0
   28.8632  -21.7417  -15.6627 C   0  0  0  0  0  0  0  0  0  0  0  0
   28.3843  -22.6453  -16.6825 O   0  0  0  0  0  0  0  0  0  0  0  0
   28.9636  -23.7548  -16.6821 C   0  0  0  0  0  0  0  0  0  0  0  0
   27.3233  -22.2359  -17.5928 C   0  0  2  0  0  0  0  0  0  0  0  0
   26.8384  -20.8224  -17.3806 N   0  0  0  0  0  0  0  0  0  0  0  0
   26.1376  -20.9490  -16.0494 C   0  0  0  0  0  0  0  0  0  0  0  0
   25.7382  -20.4422  -18.2918 O   0  0  0  0  0  0  0  0  0  0  0  0
   24.8901  -21.3535  -18.5992 C   0  0  0  0  0  0  0  0  0  0  0  0
   22.9824  -17.9625  -17.9358 C   0  0  2  0  0  0  0  0  0  0  0  0
   23.6813  -17.6490  -19.2594 O   0  0  0  0  0  0  0  0  0  0  0  0
   24.5985  -16.6452  -18.9850 C   0  0  2  0  0  0  0  0  0  0  0  0
   24.3980  -18.9167  -19.6859 N   0  0  0  0  0  0  0  0  0  0  0  0
   25.5606  -19.1576  -18.8327 C   0  0  0  0  0  0  0  0  0  0  0  0
   24.8987  -18.7866  -21.0796 O   0  0  0  0  0  0  0  0  0  0  0  0
   26.1073  -18.6321  -21.3163 O   0  0  0  0  0  0  0  0  0  0  0  0
  2  1  1  0
  3  2  2  0
  4  2  1  0
  5  4  1  0
  6  5  1  0
  7  8  1  0
  7  6  1  0
  8  9  1  1
 10  8  1  0
 10 17  1  0
 11 10  2  0
 13 12  1  0
 14 13  2  0
 16 15  1  1
 15 13  1  0
 16 17  1  0
 18 16  1  0
 19 18  2  0
 21 20  1  6
 21 22  1  0
 23 21  1  0
 23 24  1  6
 24 18  1  0
 25 23  1  0
 26 25  2  0
 27 25  1  0
M  END
$$$$
