RNT.pdb
     RDKit          3D

 27 26  0  0  1  0  0  0  0  0999 V2000
   12.0013  -19.6790   -2.8846 N   0  0  0  0  0  0  0  0  0  0  0  0
   11.4511  -19.4908   -4.1818 C   0  0  0  0  0  0  0  0  0  0  0  0
   10.2480  -19.0551   -4.3718 N   0  0  0  0  0  0  0  0  0  0  0  0
   12.2410  -19.7907   -5.3374 N   0  0  0  0  0  0  0  0  0  0  0  0
   12.6279  -21.1697   -5.5718 C   0  0  0  0  0  0  0  0  0  0  0  0
   13.0398  -21.7814   -4.2731 C   0  0  0  0  0  0  0  0  0  0  0  0
   13.4131  -23.2019   -4.4221 C   0  0  0  0  0  0  0  0  0  0  0  0
   14.4412  -23.5495   -5.4318 C   0  0  2  0  0  0  0  0  0  0  0  0
   14.0165  -23.6599   -6.7846 N   0  0  0  0  0  0  0  0  0  0  0  0
   15.1650  -24.8258   -5.0883 C   0  0  0  0  0  0  0  0  0  0  0  0
   15.0156  -25.8797   -5.7578 O   0  0  0  0  0  0  0  0  0  0  0  0
    9.9154  -19.0154   -5.3599 N   0  0  0  0  0  0  0  0  0  0  0  0
   18.5709  -27.8484   -2.3325 C   0  0  0  0  0  0  0  0  0  0  0  0
   19.0622  -26.8002   -3.1961 O   0  0  0  0  0  0  0  0  0  0  0  0
   20.3018  -26.8302   -3.3665 C   0  0  0  0  0  0  0  0  0  0  0  0
   18.1429  -25.8322   -3.7792 C   0  0  1  0  0  0  0  0  0  0  0  0
   16.6855  -26.1373   -3.5314 N   0  0  0  0  0  0  0  0  0  0  0  0
   16.0347  -24.8552   -3.9918 C   0  0  0  0  0  0  0  0  0  0  0  0
   16.3366  -26.1811   -2.0956 O   0  0  0  0  0  0  0  0  0  0  0  0
   16.3413  -25.0692   -1.4570 C   0  0  0  0  0  0  0  0  0  0  0  0
   14.5366  -28.2504    1.9495 C   0  0  2  0  0  0  0  0  0  0  0  0
   14.8253  -28.4366    0.4593 O   0  0  0  0  0  0  0  0  0  0  0  0
   13.5925  -28.4418   -0.1766 C   0  0  1  0  0  0  0  0  0  0  0  0
   15.6412  -27.2353    0.0191 N   0  0  0  0  0  0  0  0  0  0  0  0
   15.9980  -27.3505   -1.3941 C   0  0  0  0  0  0  0  0  0  0  0  0
   16.9129  -27.1618    0.7857 O   0  0  0  0  0  0  0  0  0  0  0  0
   17.8342  -27.9678    0.5808 O   0  0  0  0  0  0  0  0  0  0  0  0
  2  1  1  0
  3  2  2  0
  4  2  1  0
  5  4  1  0
  6  5  1  0
  7  8  1  0
  7  6  1  0
  8  9  1  6
 10  8  1  0
 10 17  1  0
 11 10  2  0
 13 12  1  0
 14 13  2  0
 16 15  1  6
 15 13  1  0
 16 17  1  0
 18 16  1  0
 19 18  2  0
 21 20  1  1
 21 22  1  0
 23 21  1  0
 23 24  1  6
 24 18  1  0
 25 23  1  0
 26 25  2  0
 27 25  1  0
M  END
$$$$
