GRA.pdb
     RDKit          3D

 21 20  0  0  1  0  0  0  0  0999 V2000
   32.9790  -32.7606  -16.4373 N   0  0  0  0  0  0  0  0  0  0  0  0
   32.0610  -32.1275  -17.3399 C   0  0  0  0  0  0  0  0  0  0  0  0
   30.8065  -31.8184  -16.5728 C   0  0  0  0  0  0  0  0  0  0  0  0
   30.6895  -32.0954  -15.3638 O   0  0  0  0  0  0  0  0  0  0  0  0
   25.2516  -25.5557  -16.0536 N   0  0  0  0  0  0  0  0  0  0  0  0
   26.6100  -25.5821  -16.4696 C   0  0  0  0  0  0  0  0  0  0  0  0
   27.4155  -24.6308  -16.1036 N   0  0  0  0  0  0  0  0  0  0  0  0
   27.0996  -26.6309  -17.2781 N   0  0  0  0  0  0  0  0  0  0  0  0
   26.2642  -27.7815  -17.5121 C   0  0  0  0  0  0  0  0  0  0  0  0
   26.7477  -28.9541  -16.6940 C   0  0  0  0  0  0  0  0  0  0  0  0
   28.0061  -29.5404  -17.2355 C   0  0  0  0  0  0  0  0  0  0  0  0
   28.5239  -30.7571  -16.5392 C   0  0  2  0  0  0  0  0  0  0  0  0
   29.7468  -31.1964  -17.2672 N   0  0  0  0  0  0  0  0  0  0  0  0
   27.6132  -31.8994  -16.4579 C   0  0  0  0  0  0  0  0  0  0  0  0
   27.5008  -32.6330  -17.5091 O   0  0  0  0  0  0  0  0  0  0  0  0
   28.3873  -24.5842  -16.4777 C   0  0  0  0  0  0  0  0  0  0  0  0
   25.6630  -33.9202  -13.9300 C   0  0  1  0  0  0  0  0  0  0  0  0
   26.0634  -33.5299  -15.3246 N   0  0  0  0  0  0  0  0  0  0  0  0
   26.8359  -32.3090  -15.3662 C   0  0  0  0  0  0  0  0  0  0  0  0
   24.8203  -33.3281  -16.1077 O   0  0  0  0  0  0  0  0  0  0  0  0
   24.4941  -32.1688  -16.4333 O   0  0  0  0  0  0  0  0  0  0  0  0
  1  2  1  0
  2  3  1  0
  3  4  2  0
  6  8  1  0
  6  5  1  0
  7  6  2  0
  9 10  1  0
  9  8  1  0
 10 11  1  0
 12 11  1  6
 12 14  1  0
 13  3  1  0
 13 12  1  0
 14 18  1  0
 14 15  2  0
 17 16  1  1
 17 19  1  0
 18 17  1  0
 19 21  1  0
 20 19  2  0
M  END
$$$$
