GRA.pdb
     RDKit          3D

 21 20  0  0  1  0  0  0  0  0999 V2000
   17.3233  -20.3317  -13.6184 N   0  0  0  0  0  0  0  0  0  0  0  0
   18.3640  -21.0432  -14.3033 C   0  0  0  0  0  0  0  0  0  0  0  0
   19.6487  -20.2953  -14.0847 C   0  0  0  0  0  0  0  0  0  0  0  0
   19.6626  -19.0980  -13.7405 O   0  0  0  0  0  0  0  0  0  0  0  0
   27.7226  -20.7859  -13.8201 N   0  0  0  0  0  0  0  0  0  0  0  0
   27.3812  -20.8030  -12.4410 C   0  0  0  0  0  0  0  0  0  0  0  0
   28.1133  -21.4738  -11.6033 N   0  0  0  0  0  0  0  0  0  0  0  0
   26.2535  -20.0990  -11.9652 N   0  0  0  0  0  0  0  0  0  0  0  0
   24.9513  -20.7051  -12.0807 C   0  0  0  0  0  0  0  0  0  0  0  0
   24.5697  -20.8522  -13.5335 C   0  0  0  0  0  0  0  0  0  0  0  0
   23.1674  -21.3264  -13.7043 C   0  0  0  0  0  0  0  0  0  0  0  0
   22.1659  -20.2983  -14.1206 C   0  0  2  0  0  0  0  0  0  0  0  0
   20.8589  -20.9940  -14.2821 N   0  0  0  0  0  0  0  0  0  0  0  0
   22.4488  -19.5770  -15.3617 C   0  0  0  0  0  0  0  0  0  0  0  0
   22.2549  -20.2122  -16.4639 O   0  0  0  0  0  0  0  0  0  0  0  0
   27.8939  -21.4696  -10.5843 C   0  0  0  0  0  0  0  0  0  0  0  0
   23.5341  -16.1793  -16.6546 C   0  0  1  0  0  0  0  0  0  0  0  0
   23.2158  -17.6423  -16.7807 N   0  0  0  0  0  0  0  0  0  0  0  0
   22.9082  -18.2616  -15.5115 C   0  0  0  0  0  0  0  0  0  0  0  0
   24.4076  -18.3120  -17.3554 O   0  0  0  0  0  0  0  0  0  0  0  0
   25.0811  -19.0715  -16.6302 O   0  0  0  0  0  0  0  0  0  0  0  0
  1  2  1  0
  2  3  1  0
  3  4  2  0
  6  8  1  0
  6  5  1  0
  7  6  2  0
  9 10  1  0
  9  8  1  0
 10 11  1  0
 12 11  1  6
 12 14  1  0
 13  3  1  0
 13 12  1  0
 14 18  1  0
 14 15  2  0
 17 16  1  6
 17 19  1  0
 18 17  1  0
 19 21  1  0
 20 19  2  0
M  END
$$$$
