GRA.pdb
     RDKit          3D

 21 20  0  0  1  0  0  0  0  0999 V2000
   26.1198  -24.2776  -15.9398 N   0  0  0  0  0  0  0  0  0  0  0  0
   25.1728  -23.4128  -15.2966 C   0  0  0  0  0  0  0  0  0  0  0  0
   25.0422  -22.1738  -16.1366 C   0  0  0  0  0  0  0  0  0  0  0  0
   25.7712  -21.9699  -17.1261 O   0  0  0  0  0  0  0  0  0  0  0  0
   17.9593  -17.8208  -14.8887 N   0  0  0  0  0  0  0  0  0  0  0  0
   18.8311  -16.9312  -15.5723 C   0  0  0  0  0  0  0  0  0  0  0  0
   18.4374  -15.7232  -15.8435 N   0  0  0  0  0  0  0  0  0  0  0  0
   20.1243  -17.3419  -15.9630 N   0  0  0  0  0  0  0  0  0  0  0  0
   20.2585  -18.3935  -16.9391 C   0  0  0  0  0  0  0  0  0  0  0  0
   21.7158  -18.6424  -17.2428 C   0  0  0  0  0  0  0  0  0  0  0  0
   22.2910  -19.7290  -16.4009 C   0  0  0  0  0  0  0  0  0  0  0  0
   23.7061  -20.1131  -16.6898 C   0  0  2  0  0  0  0  0  0  0  0  0
   24.0572  -21.2315  -15.7709 N   0  0  0  0  0  0  0  0  0  0  0  0
   24.7129  -19.0639  -16.5280 C   0  0  0  0  0  0  0  0  0  0  0  0
   24.9073  -18.6196  -15.3360 O   0  0  0  0  0  0  0  0  0  0  0  0
   19.0734  -15.0529  -16.3260 C   0  0  0  0  0  0  0  0  0  0  0  0
   27.6550  -17.4789  -18.1861 C   0  0  1  0  0  0  0  0  0  0  0  0
   26.4645  -17.4136  -17.2717 N   0  0  0  0  0  0  0  0  0  0  0  0
   25.5096  -18.4706  -17.5164 C   0  0  0  0  0  0  0  0  0  0  0  0
   25.7945  -16.1106  -17.5012 O   0  0  0  0  0  0  0  0  0  0  0  0
   26.4498  -15.0602  -17.3478 O   0  0  0  0  0  0  0  0  0  0  0  0
  1  2  1  0
  2  3  1  0
  3  4  2  0
  6  8  1  0
  6  5  1  0
  7  6  2  0
  9 10  1  0
  9  8  1  0
 10 11  1  0
 12 11  1  1
 12 14  1  0
 13  3  1  0
 13 12  1  0
 14 18  1  0
 14 15  2  0
 17 16  1  1
 17 19  1  0
 18 17  1  0
 19 21  1  0
 20 19  2  0
M  END
$$$$
