GRA.pdb
     RDKit          3D

 21 20  0  0  1  0  0  0  0  0999 V2000
   18.4902   -5.2245  -21.4669 N   0  0  0  0  0  0  0  0  0  0  0  0
   19.7477   -5.0521  -20.7981 C   0  0  0  0  0  0  0  0  0  0  0  0
   19.6401   -5.7035  -19.4484 C   0  0  0  0  0  0  0  0  0  0  0  0
   18.6601   -5.5143  -18.7027 O   0  0  0  0  0  0  0  0  0  0  0  0
   24.3034  -12.7898  -15.8730 N   0  0  0  0  0  0  0  0  0  0  0  0
   22.9515  -12.5652  -15.4980 C   0  0  0  0  0  0  0  0  0  0  0  0
   22.2007  -13.5696  -15.1583 N   0  0  0  0  0  0  0  0  0  0  0  0
   22.4094  -11.2615  -15.4889 N   0  0  0  0  0  0  0  0  0  0  0  0
   22.2955  -10.5431  -16.7328 C   0  0  0  0  0  0  0  0  0  0  0  0
   21.5890   -9.2275  -16.5144 C   0  0  0  0  0  0  0  0  0  0  0  0
   21.4863   -8.4263  -17.7667 C   0  0  0  0  0  0  0  0  0  0  0  0
   20.6790   -7.1713  -17.6866 C   0  0  2  0  0  0  0  0  0  0  0  0
   20.6937   -6.5489  -19.0396 N   0  0  0  0  0  0  0  0  0  0  0  0
   21.1294   -6.1663  -16.7233 C   0  0  0  0  0  0  0  0  0  0  0  0
   22.2338   -5.5599  -16.9849 O   0  0  0  0  0  0  0  0  0  0  0  0
   21.2024  -13.4221  -14.8970 C   0  0  0  0  0  0  0  0  0  0  0  0
   20.0607   -4.3337  -13.5895 C   0  0  1  0  0  0  0  0  0  0  0  0
   21.0667   -4.8295  -14.5893 N   0  0  0  0  0  0  0  0  0  0  0  0
   20.5044   -5.7676  -15.5341 C   0  0  0  0  0  0  0  0  0  0  0  0
   22.1484   -5.5097  -13.8367 O   0  0  0  0  0  0  0  0  0  0  0  0
   22.8586   -4.8378  -13.0617 O   0  0  0  0  0  0  0  0  0  0  0  0
  1  2  1  0
  2  3  1  0
  3  4  2  0
  6  8  1  0
  6  5  1  0
  7  6  2  0
  9 10  1  0
  9  8  1  0
 10 11  1  0
 12 11  1  6
 12 14  1  0
 13  3  1  0
 13 12  1  0
 14 18  1  0
 14 15  2  0
 17 16  1  6
 17 19  1  0
 18 17  1  0
 19 21  1  0
 20 19  2  0
M  END
$$$$
