GRA.pdb
     RDKit          3D

 21 20  0  0  1  0  0  0  0  0999 V2000
   16.2158  -17.5005  -17.1617 N   0  0  0  0  0  0  0  0  0  0  0  0
   16.3404  -16.2758  -17.8985 C   0  0  0  0  0  0  0  0  0  0  0  0
   17.4463  -15.4757  -17.2702 C   0  0  0  0  0  0  0  0  0  0  0  0
   17.4436  -15.1882  -16.0580 O   0  0  0  0  0  0  0  0  0  0  0  0
   24.8373  -14.3047  -16.3063 N   0  0  0  0  0  0  0  0  0  0  0  0
   24.8707  -15.6649  -15.8972 C   0  0  0  0  0  0  0  0  0  0  0  0
   25.6880  -16.0365  -14.9582 N   0  0  0  0  0  0  0  0  0  0  0  0
   24.0256  -16.6231  -16.4985 N   0  0  0  0  0  0  0  0  0  0  0  0
   23.1286  -16.2047  -17.5457 C   0  0  0  0  0  0  0  0  0  0  0  0
   21.9392  -15.4844  -16.9589 C   0  0  0  0  0  0  0  0  0  0  0  0
   20.9018  -15.1781  -17.9839 C   0  0  0  0  0  0  0  0  0  0  0  0
   19.7121  -14.4059  -17.5131 C   0  0  2  0  0  0  0  0  0  0  0  0
   18.5052  -15.0510  -18.1010 N   0  0  0  0  0  0  0  0  0  0  0  0
   19.6777  -12.9849  -17.8600 C   0  0  0  0  0  0  0  0  0  0  0  0
   19.3970  -12.6880  -19.0802 O   0  0  0  0  0  0  0  0  0  0  0  0
   25.7590  -17.0390  -14.6817 C   0  0  0  0  0  0  0  0  0  0  0  0
   19.7533   -9.5479  -16.2837 C   0  0  1  0  0  0  0  0  0  0  0  0
   19.8119  -10.5048  -17.4406 N   0  0  0  0  0  0  0  0  0  0  0  0
   19.9111  -11.8851  -17.0235 C   0  0  0  0  0  0  0  0  0  0  0  0
   21.0138  -10.1667  -18.2410 O   0  0  0  0  0  0  0  0  0  0  0  0
   21.9481  -10.9911  -18.3039 O   0  0  0  0  0  0  0  0  0  0  0  0
  1  2  1  0
  2  3  1  0
  3  4  2  0
  6  8  1  0
  6  5  1  0
  7  6  2  0
  9 10  1  0
  9  8  1  0
 10 11  1  0
 12 11  1  6
 12 14  1  0
 13  3  1  0
 13 12  1  0
 14 18  1  0
 14 15  2  0
 17 16  1  1
 17 19  1  0
 18 17  1  0
 19 21  1  0
 20 19  2  0
M  END
$$$$
