GRA.pdb
     RDKit          3D

 21 20  0  0  1  0  0  0  0  0999 V2000
   28.8383  -21.8669  -17.8886 N   0  0  0  0  0  0  0  0  0  0  0  0
   28.5179  -20.8689  -16.9090 C   0  0  0  0  0  0  0  0  0  0  0  0
   27.3973  -21.4032  -16.0626 C   0  0  0  0  0  0  0  0  0  0  0  0
   26.7184  -22.3869  -16.4144 O   0  0  0  0  0  0  0  0  0  0  0  0
   23.2131  -19.9783  -10.1911 N   0  0  0  0  0  0  0  0  0  0  0  0
   23.6953  -20.7569   -9.1048 C   0  0  0  0  0  0  0  0  0  0  0  0
   22.9028  -21.0474   -8.1172 N   0  0  0  0  0  0  0  0  0  0  0  0
   25.0284  -21.2215   -9.0822 N   0  0  0  0  0  0  0  0  0  0  0  0
   25.9432  -20.7703  -10.1001 C   0  0  0  0  0  0  0  0  0  0  0  0
   25.5169  -21.2867  -11.4527 C   0  0  0  0  0  0  0  0  0  0  0  0
   26.4301  -20.8392  -12.5419 C   0  0  0  0  0  0  0  0  0  0  0  0
   26.0707  -21.2698  -13.9271 C   0  0  2  0  0  0  0  0  0  0  0  0
   27.1283  -20.7525  -14.8394 N   0  0  0  0  0  0  0  0  0  0  0  0
   24.7758  -20.8170  -14.4358 C   0  0  0  0  0  0  0  0  0  0  0  0
   24.6435  -19.5562  -14.6572 O   0  0  0  0  0  0  0  0  0  0  0  0
   23.2416  -21.6201   -7.3149 C   0  0  0  0  0  0  0  0  0  0  0  0
   21.7746  -22.0012  -16.2640 C   0  0  1  0  0  0  0  0  0  0  0  0
   22.4151  -21.0649  -15.2788 N   0  0  0  0  0  0  0  0  0  0  0  0
   23.6416  -21.5887  -14.7217 C   0  0  0  0  0  0  0  0  0  0  0  0
   21.4501  -20.8485  -14.1738 O   0  0  0  0  0  0  0  0  0  0  0  0
   21.6738  -21.3762  -13.0657 O   0  0  0  0  0  0  0  0  0  0  0  0
  1  2  1  0
  2  3  1  0
  3  4  2  0
  6  8  1  0
  6  5  1  0
  7  6  2  0
  9 10  1  0
  9  8  1  0
 10 11  1  0
 12 11  1  1
 12 14  1  0
 13  3  1  0
 13 12  1  0
 14 18  1  0
 14 15  2  0
 17 16  1  6
 17 19  1  0
 18 17  1  0
 19 21  1  0
 20 19  2  0
M  END
$$$$
