GRA.pdb
     RDKit          3D

 21 20  0  0  1  0  0  0  0  0999 V2000
   21.7838  -12.2392  -16.8446 N   0  0  0  0  0  0  0  0  0  0  0  0
   21.6566  -11.9239  -15.4508 C   0  0  0  0  0  0  0  0  0  0  0  0
   20.7781  -10.7103  -15.3356 C   0  0  0  0  0  0  0  0  0  0  0  0
   20.2417  -10.1894  -16.3321 O   0  0  0  0  0  0  0  0  0  0  0  0
   17.6723   -6.3635   -9.2506 N   0  0  0  0  0  0  0  0  0  0  0  0
   16.3928   -6.5422   -9.8419 C   0  0  0  0  0  0  0  0  0  0  0  0
   15.4654   -5.6519   -9.6546 N   0  0  0  0  0  0  0  0  0  0  0  0
   16.1128   -7.6774  -10.6335 N   0  0  0  0  0  0  0  0  0  0  0  0
   17.1699   -8.6184  -10.9046 C   0  0  0  0  0  0  0  0  0  0  0  0
   17.8390   -8.2896  -12.2169 C   0  0  0  0  0  0  0  0  0  0  0  0
   18.8669   -9.2997  -12.5959 C   0  0  0  0  0  0  0  0  0  0  0  0
   19.6281   -9.0314  -13.8536 C   0  0  2  0  0  0  0  0  0  0  0  0
   20.5725  -10.1663  -14.0497 N   0  0  0  0  0  0  0  0  0  0  0  0
   20.4008   -7.7896  -13.8962 C   0  0  0  0  0  0  0  0  0  0  0  0
   21.3956   -7.6925  -13.0858 O   0  0  0  0  0  0  0  0  0  0  0  0
   14.5062   -5.7955  -10.0365 C   0  0  0  0  0  0  0  0  0  0  0  0
   20.8130   -4.6042  -15.8917 C   0  0  1  0  0  0  0  0  0  0  0  0
   21.0013   -5.4723  -14.6799 N   0  0  0  0  0  0  0  0  0  0  0  0
   20.1989   -6.6738  -14.7196 C   0  0  0  0  0  0  0  0  0  0  0  0
   20.6019   -4.6777  -13.4932 O   0  0  0  0  0  0  0  0  0  0  0  0
   19.5726   -5.0034  -12.8678 O   0  0  0  0  0  0  0  0  0  0  0  0
  1  2  1  0
  2  3  1  0
  3  4  2  0
  6  8  1  0
  6  5  1  0
  7  6  2  0
  9 10  1  0
  9  8  1  0
 10 11  1  0
 12 11  1  1
 12 14  1  0
 13  3  1  0
 13 12  1  0
 14 18  1  0
 14 15  2  0
 17 16  1  6
 17 19  1  0
 18 17  1  0
 19 21  1  0
 20 19  2  0
M  END
$$$$
