GRA.pdb
     RDKit          3D

 21 20  0  0  1  0  0  0  0  0999 V2000
   29.2360  -19.1296  -17.7825 N   0  0  0  0  0  0  0  0  0  0  0  0
   28.5694  -18.6061  -16.6249 C   0  0  0  0  0  0  0  0  0  0  0  0
   28.0030  -19.7685  -15.8596 C   0  0  0  0  0  0  0  0  0  0  0  0
   28.2987  -20.9463  -16.1379 O   0  0  0  0  0  0  0  0  0  0  0  0
   22.8991  -19.6432   -9.1533 N   0  0  0  0  0  0  0  0  0  0  0  0
   23.6778  -20.7346   -8.6830 C   0  0  0  0  0  0  0  0  0  0  0  0
   23.2479  -21.4533   -7.6898 N   0  0  0  0  0  0  0  0  0  0  0  0
   24.9170  -21.0512   -9.2811 N   0  0  0  0  0  0  0  0  0  0  0  0
   25.4803  -20.1410  -10.2458 C   0  0  0  0  0  0  0  0  0  0  0  0
   25.8152  -20.8730  -11.5224 C   0  0  0  0  0  0  0  0  0  0  0  0
   26.3687  -19.9649  -12.5661 C   0  0  0  0  0  0  0  0  0  0  0  0
   26.6463  -20.5790  -13.9000 C   0  0  2  0  0  0  0  0  0  0  0  0
   27.1132  -19.4884  -14.8005 N   0  0  0  0  0  0  0  0  0  0  0  0
   25.5247  -21.2539  -14.5535 C   0  0  0  0  0  0  0  0  0  0  0  0
   24.5872  -20.5079  -15.0231 O   0  0  0  0  0  0  0  0  0  0  0  0
   23.7736  -22.2979   -7.3785 C   0  0  0  0  0  0  0  0  0  0  0  0
   24.5090  -24.6208  -15.9197 C   0  0  1  0  0  0  0  0  0  0  0  0
   24.2368  -23.2097  -15.4816 N   0  0  0  0  0  0  0  0  0  0  0  0
   25.3346  -22.6295  -14.7418 C   0  0  0  0  0  0  0  0  0  0  0  0
   23.0399  -23.2354  -14.6062 O   0  0  0  0  0  0  0  0  0  0  0  0
   23.1589  -22.8956  -13.4117 O   0  0  0  0  0  0  0  0  0  0  0  0
  1  2  1  0
  2  3  1  0
  3  4  2  0
  6  8  1  0
  6  5  1  0
  7  6  2  0
  9 10  1  0
  9  8  1  0
 10 11  1  0
 12 11  1  1
 12 14  1  0
 13  3  1  0
 13 12  1  0
 14 18  1  0
 14 15  2  0
 17 16  1  6
 17 19  1  0
 18 17  1  0
 19 21  1  0
 20 19  2  0
M  END
$$$$
