GRA.pdb
     RDKit          3D

 21 20  0  0  1  0  0  0  0  0999 V2000
   28.5247  -12.0798  -16.3578 N   0  0  0  0  0  0  0  0  0  0  0  0
   27.4024  -12.2142  -15.4741 C   0  0  0  0  0  0  0  0  0  0  0  0
   26.1880  -11.7051  -16.1978 C   0  0  0  0  0  0  0  0  0  0  0  0
   26.2558  -11.2438  -17.3531 O   0  0  0  0  0  0  0  0  0  0  0  0
   18.2335  -15.1077  -15.8831 N   0  0  0  0  0  0  0  0  0  0  0  0
   18.0355  -13.9364  -16.6627 C   0  0  0  0  0  0  0  0  0  0  0  0
   16.8939  -13.7375  -17.2500 N   0  0  0  0  0  0  0  0  0  0  0  0
   19.0650  -12.9812  -16.8093 N   0  0  0  0  0  0  0  0  0  0  0  0
   20.3147  -13.1896  -16.1228 C   0  0  0  0  0  0  0  0  0  0  0  0
   21.3046  -12.1148  -16.5004 C   0  0  0  0  0  0  0  0  0  0  0  0
   22.6436  -12.3385  -15.8861 C   0  0  0  0  0  0  0  0  0  0  0  0
   23.6985  -11.3307  -16.2101 C   0  0  2  0  0  0  0  0  0  0  0  0
   24.9485  -11.7633  -15.5253 N   0  0  0  0  0  0  0  0  0  0  0  0
   23.4237   -9.9489  -15.8157 C   0  0  0  0  0  0  0  0  0  0  0  0
   23.6240   -9.6425  -14.5820 O   0  0  0  0  0  0  0  0  0  0  0  0
   16.7089  -12.8505  -17.7653 C   0  0  0  0  0  0  0  0  0  0  0  0
   22.3604   -6.5956  -17.2334 C   0  0  1  0  0  0  0  0  0  0  0  0
   22.6437   -7.5744  -16.1292 N   0  0  0  0  0  0  0  0  0  0  0  0
   22.9659   -8.8956  -16.6187 C   0  0  0  0  0  0  0  0  0  0  0  0
   21.4249   -7.6672  -15.2894 O   0  0  0  0  0  0  0  0  0  0  0  0
   20.6023   -8.5768  -15.5185 O   0  0  0  0  0  0  0  0  0  0  0  0
  1  2  1  0
  2  3  1  0
  3  4  2  0
  6  8  1  0
  6  5  1  0
  7  6  2  0
  9 10  1  0
  9  8  1  0
 10 11  1  0
 12 11  1  1
 12 14  1  0
 13  3  1  0
 13 12  1  0
 14 18  1  0
 14 15  2  0
 17 16  1  6
 17 19  1  0
 18 17  1  0
 19 21  1  0
 20 19  2  0
M  END
$$$$
