GRA.pdb
     RDKit          3D

 21 20  0  0  1  0  0  0  0  0999 V2000
   24.3474  -25.6696  -15.9388 N   0  0  0  0  0  0  0  0  0  0  0  0
   25.3513  -24.6454  -15.9797 C   0  0  0  0  0  0  0  0  0  0  0  0
   24.8027  -23.4399  -15.2701 C   0  0  0  0  0  0  0  0  0  0  0  0
   23.5777  -23.2526  -15.1421 O   0  0  0  0  0  0  0  0  0  0  0  0
   25.7949  -20.9367   -8.7329 N   0  0  0  0  0  0  0  0  0  0  0  0
   24.3823  -20.9709   -8.8823 C   0  0  0  0  0  0  0  0  0  0  0  0
   23.6282  -21.1689   -7.8431 N   0  0  0  0  0  0  0  0  0  0  0  0
   23.7833  -20.7923  -10.1483 N   0  0  0  0  0  0  0  0  0  0  0  0
   24.4361  -21.3342  -11.3131 C   0  0  0  0  0  0  0  0  0  0  0  0
   25.5274  -20.4029  -11.7819 C   0  0  0  0  0  0  0  0  0  0  0  0
   26.1701  -20.8739  -13.0411 C   0  0  0  0  0  0  0  0  0  0  0  0
   25.2492  -21.2222  -14.1655 C   0  0  2  0  0  0  0  0  0  0  0  0
   25.7246  -22.5098  -14.7438 N   0  0  0  0  0  0  0  0  0  0  0  0
   25.1506  -20.2487  -15.2533 C   0  0  0  0  0  0  0  0  0  0  0  0
   26.0838  -20.2660  -16.1392 O   0  0  0  0  0  0  0  0  0  0  0  0
   22.5906  -21.2008   -7.9380 C   0  0  0  0  0  0  0  0  0  0  0  0
   24.3865  -19.1708  -17.9063 C   0  0  1  0  0  0  0  0  0  0  0  0
   24.0686  -18.4400  -16.6326 N   0  0  0  0  0  0  0  0  0  0  0  0
   24.1550  -19.2852  -15.4633 C   0  0  0  0  0  0  0  0  0  0  0  0
   22.6806  -17.9295  -16.7436 O   0  0  0  0  0  0  0  0  0  0  0  0
   21.8203  -18.3415  -15.9395 O   0  0  0  0  0  0  0  0  0  0  0  0
  1  2  1  0
  2  3  1  0
  3  4  2  0
  6  8  1  0
  6  5  1  0
  7  6  2  0
  9 10  1  0
  9  8  1  0
 10 11  1  0
 12 11  1  1
 12 14  1  0
 13  3  1  0
 13 12  1  0
 14 18  1  0
 14 15  2  0
 17 16  1  1
 17 19  1  0
 18 17  1  0
 19 21  1  0
 20 19  2  0
M  END
$$$$
