GRA.pdb
     RDKit          3D

 21 20  0  0  1  0  0  0  0  0999 V2000
   18.6991  -22.9971  -10.6377 N   0  0  0  0  0  0  0  0  0  0  0  0
   19.3954  -23.1795  -11.8788 C   0  0  0  0  0  0  0  0  0  0  0  0
   20.3317  -22.0171  -12.0520 C   0  0  0  0  0  0  0  0  0  0  0  0
   20.1682  -20.9439  -11.4407 O   0  0  0  0  0  0  0  0  0  0  0  0
   26.8124  -21.7321  -15.8174 N   0  0  0  0  0  0  0  0  0  0  0  0
   27.4875  -20.7195  -15.0842 C   0  0  0  0  0  0  0  0  0  0  0  0
   28.3339  -19.9408  -15.6886 N   0  0  0  0  0  0  0  0  0  0  0  0
   27.2515  -20.5459  -13.7030 N   0  0  0  0  0  0  0  0  0  0  0  0
   26.1964  -21.2993  -13.0741 C   0  0  0  0  0  0  0  0  0  0  0  0
   24.8502  -20.7358  -13.4590 C   0  0  0  0  0  0  0  0  0  0  0  0
   23.7235  -21.5005  -12.8538 C   0  0  0  0  0  0  0  0  0  0  0  0
   22.3457  -21.0384  -13.2025 C   0  0  2  0  0  0  0  0  0  0  0  0
   21.4185  -22.1738  -12.9387 N   0  0  0  0  0  0  0  0  0  0  0  0
   22.1354  -20.5958  -14.5811 C   0  0  0  0  0  0  0  0  0  0  0  0
   22.0936  -21.5081  -15.4876 O   0  0  0  0  0  0  0  0  0  0  0  0
   28.8095  -19.1705  -15.1720 C   0  0  0  0  0  0  0  0  0  0  0  0
   21.2433  -17.5292  -16.6083 C   0  0  1  0  0  0  0  0  0  0  0  0
   21.7309  -18.9398  -16.4355 N   0  0  0  0  0  0  0  0  0  0  0  0
   21.9675  -19.2869  -15.0525 C   0  0  0  0  0  0  0  0  0  0  0  0
   23.0082  -19.0664  -17.1784 O   0  0  0  0  0  0  0  0  0  0  0  0
   24.0689  -19.2016  -16.5357 O   0  0  0  0  0  0  0  0  0  0  0  0
  1  2  1  0
  2  3  1  0
  3  4  2  0
  6  8  1  0
  6  5  1  0
  7  6  2  0
  9 10  1  0
  9  8  1  0
 10 11  1  0
 12 11  1  6
 12 14  1  0
 13  3  1  0
 13 12  1  0
 14 18  1  0
 14 15  2  0
 17 16  1  1
 17 19  1  0
 18 17  1  0
 19 21  1  0
 20 19  2  0
M  END
$$$$
