TQD.pdb
     RDKit          3D

 25 24  0  0  1  0  0  0  0  0999 V2000
   25.6513  -13.5606  -15.8960 C   0  0  0  0  0  0  0  0  0  0  0  0
   24.8771  -12.3060  -16.1385 C   0  0  1  0  0  0  0  0  0  0  0  0
   25.4219  -11.6925  -17.2789 O   0  0  0  0  0  0  0  0  0  0  0  0
   23.4333  -12.6062  -16.4910 C   0  0  2  0  0  0  0  0  0  0  0  0
   23.5114  -13.1606  -17.8679 N   0  0  0  0  0  0  0  0  0  0  0  0
   22.6209  -11.3774  -16.6199 C   0  0  0  0  0  0  0  0  0  0  0  0
   22.5649  -10.7644  -17.7437 O   0  0  0  0  0  0  0  0  0  0  0  0
   17.2087  -10.2781  -14.5083 N   0  0  0  0  0  0  0  0  0  0  0  0
   17.5908  -11.0218  -15.6533 C   0  0  0  0  0  0  0  0  0  0  0  0
   16.8135  -11.8473  -16.1666 O   0  0  0  0  0  0  0  0  0  0  0  0
   18.9471  -10.7996  -16.2387 C   0  0  0  0  0  0  0  0  0  0  0  0
   19.6921   -9.8678  -15.3403 C   0  0  0  0  0  0  0  0  0  0  0  0
   21.1000   -9.5400  -15.8153 C   0  0  2  0  0  0  0  0  0  0  0  0
   21.8572  -10.7730  -15.5931 N   0  0  0  0  0  0  0  0  0  0  0  0
   21.6858   -8.3637  -15.1846 C   0  0  0  0  0  0  0  0  0  0  0  0
   22.3485   -8.4175  -14.0992 O   0  0  0  0  0  0  0  0  0  0  0  0
   21.5301   -7.0855  -15.7814 N   0  0  0  0  0  0  0  0  0  0  0  0
   22.0835   -5.8841  -15.1674 C   0  0  1  0  0  0  0  0  0  0  0  0
   22.0324   -4.7374  -16.1474 C   0  0  0  0  0  0  0  0  0  0  0  0
   22.5503   -3.4796  -15.5584 C   0  0  0  0  0  0  0  0  0  0  0  0
   23.2206   -3.4467  -14.4957 O   0  0  0  0  0  0  0  0  0  0  0  0
   21.2743   -5.5589  -13.9628 C   0  0  0  0  0  0  0  0  0  0  0  0
   20.0290   -5.7281  -13.9266 O   0  0  0  0  0  0  0  0  0  0  0  0
   22.2752   -2.2972  -16.2196 O   0  0  0  0  0  0  0  0  0  0  0  0
   21.8757   -5.0500  -12.8209 O   0  0  0  0  0  0  0  0  0  0  0  0
  2  1  1  6
  3  2  1  0
  4  6  1  0
  4  2  1  0
  4  5  1  6
  6 14  1  0
  6  7  2  0
  9 10  2  0
  9  8  1  0
 11  9  1  0
 12 11  1  0
 13 12  1  1
 14 13  1  0
 15 17  1  0
 15 13  1  0
 16 15  2  0
 18 22  1  0
 18 17  1  0
 18 19  1  6
 19 20  1  0
 20 24  1  0
 21 20  2  0
 22 25  1  0
 23 22  2  0
M  END
$$$$
