TQD.pdb
     RDKit          3D

 25 24  0  0  1  0  0  0  0  0999 V2000
   26.4423  -10.6449  -14.9762 C   0  0  0  0  0  0  0  0  0  0  0  0
   26.9111  -10.7140  -16.3931 C   0  0  1  0  0  0  0  0  0  0  0  0
   28.0005  -11.6003  -16.4301 O   0  0  0  0  0  0  0  0  0  0  0  0
   25.8584  -11.3286  -17.2948 C   0  0  2  0  0  0  0  0  0  0  0  0
   26.4521  -11.2287  -18.6538 N   0  0  0  0  0  0  0  0  0  0  0  0
   24.6269  -10.5125  -17.3556 C   0  0  0  0  0  0  0  0  0  0  0  0
   24.6159   -9.4229  -18.0298 O   0  0  0  0  0  0  0  0  0  0  0  0
   18.9718  -12.3970  -17.1955 N   0  0  0  0  0  0  0  0  0  0  0  0
   18.6411  -11.0291  -17.0224 C   0  0  0  0  0  0  0  0  0  0  0  0
   17.4552  -10.6519  -17.0427 O   0  0  0  0  0  0  0  0  0  0  0  0
   19.7422  -10.0412  -16.8143 C   0  0  0  0  0  0  0  0  0  0  0  0
   21.0403  -10.7779  -16.8624 C   0  0  0  0  0  0  0  0  0  0  0  0
   22.2664   -9.8840  -16.7475 C   0  0  2  0  0  0  0  0  0  0  0  0
   23.3963  -10.8145  -16.7250 N   0  0  0  0  0  0  0  0  0  0  0  0
   22.2334   -8.9654  -15.6163 C   0  0  0  0  0  0  0  0  0  0  0  0
   22.5257   -9.3183  -14.4288 O   0  0  0  0  0  0  0  0  0  0  0  0
   21.8640   -7.6092  -15.8127 N   0  0  0  0  0  0  0  0  0  0  0  0
   21.8391   -6.6574  -14.7081 C   0  0  1  0  0  0  0  0  0  0  0  0
   22.5711   -5.3973  -15.1005 C   0  0  0  0  0  0  0  0  0  0  0  0
   22.5239   -4.3715  -14.0315 C   0  0  0  0  0  0  0  0  0  0  0  0
   22.8766   -4.6007  -12.8470 O   0  0  0  0  0  0  0  0  0  0  0  0
   20.4200   -6.3431  -14.3932 C   0  0  0  0  0  0  0  0  0  0  0  0
   20.0223   -6.1480  -13.2165 O   0  0  0  0  0  0  0  0  0  0  0  0
   22.0691   -3.1102  -14.3681 O   0  0  0  0  0  0  0  0  0  0  0  0
   19.4729   -6.2532  -15.4029 O   0  0  0  0  0  0  0  0  0  0  0  0
  2  1  1  1
  3  2  1  0
  4  6  1  0
  4  2  1  0
  4  5  1  6
  6 14  1  0
  6  7  2  0
  9 10  2  0
  9  8  1  0
 11  9  1  0
 12 11  1  0
 13 12  1  1
 14 13  1  0
 15 17  1  0
 15 13  1  0
 16 15  2  0
 18 22  1  0
 18 17  1  0
 18 19  1  6
 19 20  1  0
 20 24  1  0
 21 20  2  0
 22 25  1  0
 23 22  2  0
M  END
$$$$
