TQD.pdb
     RDKit          3D

 25 24  0  0  1  0  0  0  0  0999 V2000
   25.2715  -11.3785  -15.9806 C   0  0  0  0  0  0  0  0  0  0  0  0
   24.7689  -12.0934  -17.1924 C   0  0  1  0  0  0  0  0  0  0  0  0
   25.5065  -13.2831  -17.3119 O   0  0  0  0  0  0  0  0  0  0  0  0
   23.3262  -12.5272  -17.0203 C   0  0  2  0  0  0  0  0  0  0  0  0
   22.9982  -13.1902  -18.3095 N   0  0  0  0  0  0  0  0  0  0  0  0
   22.4013  -11.3766  -16.9368 C   0  0  0  0  0  0  0  0  0  0  0  0
   22.2308  -10.6195  -17.9564 O   0  0  0  0  0  0  0  0  0  0  0  0
   16.2092  -11.2038  -15.6732 N   0  0  0  0  0  0  0  0  0  0  0  0
   17.4706  -11.4116  -15.0599 C   0  0  0  0  0  0  0  0  0  0  0  0
   17.5501  -11.8107  -13.8837 O   0  0  0  0  0  0  0  0  0  0  0  0
   18.7100  -11.1434  -15.8496 C   0  0  0  0  0  0  0  0  0  0  0  0
   19.5510  -10.1802  -15.0781 C   0  0  0  0  0  0  0  0  0  0  0  0
   20.8379   -9.7765  -15.7826 C   0  0  2  0  0  0  0  0  0  0  0  0
   21.6424  -10.9994  -15.8033 N   0  0  0  0  0  0  0  0  0  0  0  0
   21.5146   -8.6327  -15.1839 C   0  0  0  0  0  0  0  0  0  0  0  0
   22.2942   -8.7353  -14.1830 O   0  0  0  0  0  0  0  0  0  0  0  0
   21.3183   -7.3321  -15.7168 N   0  0  0  0  0  0  0  0  0  0  0  0
   22.0956   -6.1903  -15.2487 C   0  0  1  0  0  0  0  0  0  0  0  0
   22.0248   -5.0726  -16.2603 C   0  0  0  0  0  0  0  0  0  0  0  0
   22.6955   -3.8423  -15.7768 C   0  0  0  0  0  0  0  0  0  0  0  0
   23.9438   -3.7399  -15.6709 O   0  0  0  0  0  0  0  0  0  0  0  0
   21.5271   -5.7376  -13.9512 C   0  0  0  0  0  0  0  0  0  0  0  0
   20.3173   -5.9074  -13.6542 O   0  0  0  0  0  0  0  0  0  0  0  0
   21.8984   -2.7672  -15.4305 O   0  0  0  0  0  0  0  0  0  0  0  0
   22.3251   -5.1028  -13.0105 O   0  0  0  0  0  0  0  0  0  0  0  0
  2  1  1  1
  3  2  1  0
  4  6  1  0
  4  2  1  0
  4  5  1  6
  6 14  1  0
  6  7  2  0
  9 10  2  0
  9  8  1  0
 11  9  1  0
 12 11  1  0
 13 12  1  1
 14 13  1  0
 15 17  1  0
 15 13  1  0
 16 15  2  0
 18 22  1  0
 18 17  1  0
 18 19  1  6
 19 20  1  0
 20 24  1  0
 21 20  2  0
 22 25  1  0
 23 22  2  0
M  END
$$$$
