TQD.pdb
     RDKit          3D

 25 24  0  0  1  0  0  0  0  0999 V2000
   30.7361  -22.5987   -9.7777 C   0  0  0  0  0  0  0  0  0  0  0  0
   29.5661  -22.0512  -10.5284 C   0  0  1  0  0  0  0  0  0  0  0  0
   29.1293  -20.9050   -9.8434 O   0  0  0  0  0  0  0  0  0  0  0  0
   29.9703  -21.5689  -11.9078 C   0  0  2  0  0  0  0  0  0  0  0  0
   31.0756  -20.6118  -11.6401 N   0  0  0  0  0  0  0  0  0  0  0  0
   28.9126  -20.7601  -12.5509 C   0  0  0  0  0  0  0  0  0  0  0  0
   29.1383  -19.5342  -12.8479 O   0  0  0  0  0  0  0  0  0  0  0  0
   28.7741  -19.5630  -17.1669 N   0  0  0  0  0  0  0  0  0  0  0  0
   27.5130  -18.9209  -17.0790 C   0  0  0  0  0  0  0  0  0  0  0  0
   27.1120  -18.1746  -17.9907 O   0  0  0  0  0  0  0  0  0  0  0  0
   26.6673  -19.1539  -15.8697 C   0  0  0  0  0  0  0  0  0  0  0  0
   27.4244  -20.0440  -14.9398 C   0  0  0  0  0  0  0  0  0  0  0  0
   26.6826  -20.3720  -13.6524 C   0  0  2  0  0  0  0  0  0  0  0  0
   27.6156  -21.2091  -12.8960 N   0  0  0  0  0  0  0  0  0  0  0  0
   25.3729  -20.9789  -13.8542 C   0  0  0  0  0  0  0  0  0  0  0  0
   25.2100  -22.2263  -14.0484 O   0  0  0  0  0  0  0  0  0  0  0  0
   24.2056  -20.1718  -13.8386 N   0  0  0  0  0  0  0  0  0  0  0  0
   22.8818  -20.7482  -13.6333 C   0  0  1  0  0  0  0  0  0  0  0  0
   22.0459  -19.8228  -12.7832 C   0  0  0  0  0  0  0  0  0  0  0  0
   20.7062  -20.3892  -12.4975 C   0  0  0  0  0  0  0  0  0  0  0  0
   19.7902  -19.7329  -11.9407 O   0  0  0  0  0  0  0  0  0  0  0  0
   22.2411  -20.9342  -14.9624 C   0  0  0  0  0  0  0  0  0  0  0  0
   21.1429  -21.5307  -15.0991 O   0  0  0  0  0  0  0  0  0  0  0  0
   20.4688  -21.7003  -12.8661 O   0  0  0  0  0  0  0  0  0  0  0  0
   22.8431  -20.4480  -16.1139 O   0  0  0  0  0  0  0  0  0  0  0  0
  2  1  1  1
  3  2  1  0
  4  6  1  0
  4  2  1  0
  4  5  1  1
  6 14  1  0
  6  7  2  0
  9 10  2  0
  9  8  1  0
 11  9  1  0
 12 11  1  0
 13 12  1  6
 14 13  1  0
 15 17  1  0
 15 13  1  0
 16 15  2  0
 18 22  1  0
 18 17  1  0
 18 19  1  1
 19 20  1  0
 20 24  1  0
 21 20  2  0
 22 25  1  0
 23 22  2  0
M  END
$$$$
