TQD.pdb
     RDKit          3D

 25 24  0  0  1  0  0  0  0  0999 V2000
   19.0894  -10.9498  -18.3852 C   0  0  0  0  0  0  0  0  0  0  0  0
   19.0304  -12.1180  -17.4557 C   0  0  1  0  0  0  0  0  0  0  0  0
   18.5484  -13.2136  -18.1912 O   0  0  0  0  0  0  0  0  0  0  0  0
   20.4145  -12.5225  -16.9869 C   0  0  2  0  0  0  0  0  0  0  0  0
   20.1626  -13.6872  -16.0986 N   0  0  0  0  0  0  0  0  0  0  0  0
   21.0305  -11.5017  -16.1123 C   0  0  0  0  0  0  0  0  0  0  0  0
   20.4197  -11.1151  -15.0543 O   0  0  0  0  0  0  0  0  0  0  0  0
   26.8253  -10.7073  -14.8553 N   0  0  0  0  0  0  0  0  0  0  0  0
   26.5423  -10.0028  -16.0527 C   0  0  0  0  0  0  0  0  0  0  0  0
   27.4568   -9.6702  -16.8286 O   0  0  0  0  0  0  0  0  0  0  0  0
   25.1230   -9.6631  -16.3720 C   0  0  0  0  0  0  0  0  0  0  0  0
   24.2653  -10.1620  -15.2560 C   0  0  0  0  0  0  0  0  0  0  0  0
   22.7871   -9.8384  -15.4162 C   0  0  2  0  0  0  0  0  0  0  0  0
   22.2820  -10.8740  -16.3193 N   0  0  0  0  0  0  0  0  0  0  0  0
   22.5174   -8.4783  -15.8654 C   0  0  0  0  0  0  0  0  0  0  0  0
   22.6535   -8.1089  -17.0759 O   0  0  0  0  0  0  0  0  0  0  0  0
   22.0810   -7.4968  -14.9378 N   0  0  0  0  0  0  0  0  0  0  0  0
   21.8003   -6.1269  -15.3516 C   0  0  1  0  0  0  0  0  0  0  0  0
   20.3291   -5.8330  -15.1877 C   0  0  0  0  0  0  0  0  0  0  0  0
   19.9932   -4.4432  -15.5784 C   0  0  0  0  0  0  0  0  0  0  0  0
   20.3692   -3.9267  -16.6609 O   0  0  0  0  0  0  0  0  0  0  0  0
   22.5998   -5.2074  -14.4990 C   0  0  0  0  0  0  0  0  0  0  0  0
   22.6057   -3.9630  -14.6780 O   0  0  0  0  0  0  0  0  0  0  0  0
   19.2310   -3.6936  -14.7020 O   0  0  0  0  0  0  0  0  0  0  0  0
   23.3781   -5.6996  -13.4613 O   0  0  0  0  0  0  0  0  0  0  0  0
  2  1  1  6
  3  2  1  0
  4  6  1  0
  4  2  1  0
  4  5  1  1
  6 14  1  0
  6  7  2  0
  9 10  2  0
  9  8  1  0
 11  9  1  0
 12 11  1  0
 13 12  1  6
 14 13  1  0
 15 17  1  0
 15 13  1  0
 16 15  2  0
 18 22  1  0
 18 17  1  0
 18 19  1  1
 19 20  1  0
 20 24  1  0
 21 20  2  0
 22 25  1  0
 23 22  2  0
M  END
$$$$
