TQD.pdb
     RDKit          3D

 25 24  0  0  1  0  0  0  0  0999 V2000
   14.3948  -10.0996  -17.6074 C   0  0  0  0  0  0  0  0  0  0  0  0
   14.1129  -11.0339  -16.4761 C   0  0  1  0  0  0  0  0  0  0  0  0
   13.4481  -12.1498  -17.0113 O   0  0  0  0  0  0  0  0  0  0  0  0
   15.3944  -11.5763  -15.8741 C   0  0  2  0  0  0  0  0  0  0  0  0
   14.9267  -12.4180  -14.7418 N   0  0  0  0  0  0  0  0  0  0  0  0
   16.2125  -10.5154  -15.2484 C   0  0  0  0  0  0  0  0  0  0  0  0
   15.7400   -9.8403  -14.2671 O   0  0  0  0  0  0  0  0  0  0  0  0
   22.2233  -10.2182  -15.1710 N   0  0  0  0  0  0  0  0  0  0  0  0
   22.0228   -8.9310  -14.6113 C   0  0  0  0  0  0  0  0  0  0  0  0
   22.9846   -8.2592  -14.1958 O   0  0  0  0  0  0  0  0  0  0  0  0
   20.6332   -8.3893  -14.5266 C   0  0  0  0  0  0  0  0  0  0  0  0
   19.6958   -9.4390  -15.0263 C   0  0  0  0  0  0  0  0  0  0  0  0
   18.2300   -9.0330  -14.9857 C   0  0  2  0  0  0  0  0  0  0  0  0
   17.5249  -10.1444  -15.6265 N   0  0  0  0  0  0  0  0  0  0  0  0
   17.9522   -7.7327  -15.5829 C   0  0  0  0  0  0  0  0  0  0  0  0
   17.8416   -7.5568  -16.8387 O   0  0  0  0  0  0  0  0  0  0  0  0
   17.7914   -6.5906  -14.7559 N   0  0  0  0  0  0  0  0  0  0  0  0
   17.4902   -5.2786  -15.3169 C   0  0  1  0  0  0  0  0  0  0  0  0
   16.4351   -4.5942  -14.4825 C   0  0  0  0  0  0  0  0  0  0  0  0
   16.0991   -3.2487  -15.0059 C   0  0  0  0  0  0  0  0  0  0  0  0
   16.3766   -2.8803  -16.1751 O   0  0  0  0  0  0  0  0  0  0  0  0
   18.7395   -4.4718  -15.3171 C   0  0  0  0  0  0  0  0  0  0  0  0
   19.7709   -4.8338  -14.6959 O   0  0  0  0  0  0  0  0  0  0  0  0
   15.4510   -2.3705  -14.1576 O   0  0  0  0  0  0  0  0  0  0  0  0
   18.8098   -3.2740  -16.0137 O   0  0  0  0  0  0  0  0  0  0  0  0
  2  1  1  6
  3  2  1  0
  4  6  1  0
  4  2  1  0
  4  5  1  1
  6 14  1  0
  6  7  2  0
  9 10  2  0
  9  8  1  0
 11  9  1  0
 12 11  1  0
 13 12  1  6
 14 13  1  0
 15 17  1  0
 15 13  1  0
 16 15  2  0
 18 22  1  0
 18 17  1  0
 18 19  1  1
 19 20  1  0
 20 24  1  0
 21 20  2  0
 22 25  1  0
 23 22  2  0
M  END
$$$$
