TQD.pdb
     RDKit          3D

 25 24  0  0  1  0  0  0  0  0999 V2000
   16.9845  -10.2362  -16.2049 C   0  0  0  0  0  0  0  0  0  0  0  0
   17.3201  -11.0678  -15.0100 C   0  0  1  0  0  0  0  0  0  0  0  0
   18.3890  -11.9052  -15.3704 O   0  0  0  0  0  0  0  0  0  0  0  0
   17.8410  -10.2141  -13.8704 C   0  0  2  0  0  0  0  0  0  0  0  0
   18.3695  -11.2050  -12.8967 N   0  0  0  0  0  0  0  0  0  0  0  0
   16.7541   -9.5152  -13.1516 C   0  0  0  0  0  0  0  0  0  0  0  0
   16.0419   -8.6433  -13.7634 O   0  0  0  0  0  0  0  0  0  0  0  0
   12.9752  -11.6668   -9.1265 N   0  0  0  0  0  0  0  0  0  0  0  0
   12.9129  -11.7684  -10.5393 C   0  0  0  0  0  0  0  0  0  0  0  0
   12.2194  -12.6455  -11.0860 O   0  0  0  0  0  0  0  0  0  0  0  0
   13.6958  -10.8026  -11.3676 C   0  0  0  0  0  0  0  0  0  0  0  0
   14.4690   -9.9206  -10.4432 C   0  0  0  0  0  0  0  0  0  0  0  0
   15.3550   -8.9052  -11.1498 C   0  0  2  0  0  0  0  0  0  0  0  0
   16.3904   -9.7119  -11.7980 N   0  0  0  0  0  0  0  0  0  0  0  0
   15.8778   -7.8591  -10.2798 C   0  0  0  0  0  0  0  0  0  0  0  0
   16.8145   -8.0593   -9.4415 O   0  0  0  0  0  0  0  0  0  0  0  0
   15.3417   -6.5466  -10.3451 N   0  0  0  0  0  0  0  0  0  0  0  0
   15.8790   -5.4614   -9.5325 C   0  0  1  0  0  0  0  0  0  0  0  0
   15.7658   -4.1558  -10.2810 C   0  0  0  0  0  0  0  0  0  0  0  0
   16.6095   -4.1390  -11.4996 C   0  0  0  0  0  0  0  0  0  0  0  0
   17.4007   -5.0692  -11.7971 O   0  0  0  0  0  0  0  0  0  0  0  0
   15.0976   -5.3918   -8.2691 C   0  0  0  0  0  0  0  0  0  0  0  0
   14.0687   -6.0887   -8.0784 O   0  0  0  0  0  0  0  0  0  0  0  0
   16.5103   -3.0437  -12.3372 O   0  0  0  0  0  0  0  0  0  0  0  0
   15.4837   -4.5421   -7.2426 O   0  0  0  0  0  0  0  0  0  0  0  0
  2  1  1  6
  3  2  1  0
  4  6  1  0
  4  2  1  0
  4  5  1  1
  6 14  1  0
  6  7  2  0
  9 10  2  0
  9  8  1  0
 11  9  1  0
 12 11  1  0
 13 12  1  1
 14 13  1  0
 15 17  1  0
 15 13  1  0
 16 15  2  0
 18 22  1  0
 18 17  1  0
 18 19  1  6
 19 20  1  0
 20 24  1  0
 21 20  2  0
 22 25  1  0
 23 22  2  0
M  END
$$$$
