TQD.pdb
     RDKit          3D

 25 24  0  0  1  0  0  0  0  0999 V2000
   17.4948   -9.2427  -17.6005 C   0  0  0  0  0  0  0  0  0  0  0  0
   16.9664  -10.0954  -16.4934 C   0  0  1  0  0  0  0  0  0  0  0  0
   15.8420  -10.7758  -16.9900 O   0  0  0  0  0  0  0  0  0  0  0  0
   17.9562  -11.1771  -16.1074 C   0  0  2  0  0  0  0  0  0  0  0  0
   17.2759  -11.9042  -15.0039 N   0  0  0  0  0  0  0  0  0  0  0  0
   19.1840  -10.6218  -15.4986 C   0  0  0  0  0  0  0  0  0  0  0  0
   19.1053   -9.9227  -14.4277 O   0  0  0  0  0  0  0  0  0  0  0  0
   24.8953  -12.3658  -16.6750 N   0  0  0  0  0  0  0  0  0  0  0  0
   25.2498  -11.2014  -15.9479 C   0  0  0  0  0  0  0  0  0  0  0  0
   26.4431  -10.9280  -15.7233 O   0  0  0  0  0  0  0  0  0  0  0  0
   24.1649  -10.3019  -15.4521 C   0  0  0  0  0  0  0  0  0  0  0  0
   22.8527  -10.9160  -15.8143 C   0  0  0  0  0  0  0  0  0  0  0  0
   21.6440  -10.1024  -15.3757 C   0  0  2  0  0  0  0  0  0  0  0  0
   20.5024  -10.7856  -15.9865 N   0  0  0  0  0  0  0  0  0  0  0  0
   21.7277   -8.6839  -15.6999 C   0  0  0  0  0  0  0  0  0  0  0  0
   21.6757   -8.2417  -16.8924 O   0  0  0  0  0  0  0  0  0  0  0  0
   21.8731   -7.7253  -14.6634 N   0  0  0  0  0  0  0  0  0  0  0  0
   21.9088   -6.2951  -14.9461 C   0  0  1  0  0  0  0  0  0  0  0  0
   20.6088   -5.8653  -15.5809 C   0  0  0  0  0  0  0  0  0  0  0  0
   20.5879   -4.4128  -15.8758 C   0  0  0  0  0  0  0  0  0  0  0  0
   21.6179   -3.7625  -16.1858 O   0  0  0  0  0  0  0  0  0  0  0  0
   22.1120   -5.5696  -13.6639 C   0  0  0  0  0  0  0  0  0  0  0  0
   22.2603   -4.3220  -13.6163 O   0  0  0  0  0  0  0  0  0  0  0  0
   19.3729   -3.7576  -15.8022 O   0  0  0  0  0  0  0  0  0  0  0  0
   22.1452   -6.2558  -12.4586 O   0  0  0  0  0  0  0  0  0  0  0  0
  2  1  1  6
  3  2  1  0
  4  6  1  0
  4  2  1  0
  4  5  1  1
  6 14  1  0
  6  7  2  0
  9 10  2  0
  9  8  1  0
 11  9  1  0
 12 11  1  0
 13 12  1  6
 14 13  1  0
 15 17  1  0
 15 13  1  0
 16 15  2  0
 18 22  1  0
 18 17  1  0
 18 19  1  1
 19 20  1  0
 20 24  1  0
 21 20  2  0
 22 25  1  0
 23 22  2  0
M  END
$$$$
