TQD.pdb
     RDKit          3D

 25 24  0  0  1  0  0  0  0  0999 V2000
   20.1473   -9.6479  -19.9100 C   0  0  0  0  0  0  0  0  0  0  0  0
   19.9539  -10.9326  -19.1721 C   0  0  1  0  0  0  0  0  0  0  0  0
   19.4290  -11.8634  -20.0841 O   0  0  0  0  0  0  0  0  0  0  0  0
   21.2782  -11.5141  -18.7172 C   0  0  2  0  0  0  0  0  0  0  0  0
   20.8991  -12.7964  -18.0681 N   0  0  0  0  0  0  0  0  0  0  0  0
   21.9027  -10.7126  -17.6430 C   0  0  0  0  0  0  0  0  0  0  0  0
   21.2346  -10.4305  -16.5866 O   0  0  0  0  0  0  0  0  0  0  0  0
   27.8075  -10.0788  -16.7590 N   0  0  0  0  0  0  0  0  0  0  0  0
   27.0454  -11.1460  -16.2201 C   0  0  0  0  0  0  0  0  0  0  0  0
   27.5941  -12.2031  -15.8590 O   0  0  0  0  0  0  0  0  0  0  0  0
   25.5660  -10.9832  -16.0909 C   0  0  0  0  0  0  0  0  0  0  0  0
   25.2124   -9.6003  -16.5300 C   0  0  0  0  0  0  0  0  0  0  0  0
   23.7162   -9.3279  -16.5798 C   0  0  2  0  0  0  0  0  0  0  0  0
   23.2214  -10.1988  -17.6474 N   0  0  0  0  0  0  0  0  0  0  0  0
   23.3690   -7.9229  -16.7532 C   0  0  0  0  0  0  0  0  0  0  0  0
   23.6654   -7.2602  -17.7988 O   0  0  0  0  0  0  0  0  0  0  0  0
   22.6681   -7.2325  -15.7303 N   0  0  0  0  0  0  0  0  0  0  0  0
   22.3775   -5.8071  -15.8326 C   0  0  1  0  0  0  0  0  0  0  0  0
   20.9373   -5.6051  -16.2361 C   0  0  0  0  0  0  0  0  0  0  0  0
   20.5656   -4.1706  -16.2695 C   0  0  0  0  0  0  0  0  0  0  0  0
   20.0008   -3.5874  -15.3100 O   0  0  0  0  0  0  0  0  0  0  0  0
   22.6255   -5.1826  -14.5059 C   0  0  0  0  0  0  0  0  0  0  0  0
   22.6345   -3.9359  -14.3435 O   0  0  0  0  0  0  0  0  0  0  0  0
   20.8601   -3.4550  -17.4151 O   0  0  0  0  0  0  0  0  0  0  0  0
   22.8588   -5.9669  -13.3856 O   0  0  0  0  0  0  0  0  0  0  0  0
  2  1  1  6
  3  2  1  0
  4  6  1  0
  4  2  1  0
  4  5  1  1
  6 14  1  0
  6  7  2  0
  9 10  2  0
  9  8  1  0
 11  9  1  0
 12 11  1  0
 13 12  1  6
 14 13  1  0
 15 17  1  0
 15 13  1  0
 16 15  2  0
 18 22  1  0
 18 17  1  0
 18 19  1  1
 19 20  1  0
 20 24  1  0
 21 20  2  0
 22 25  1  0
 23 22  2  0
M  END
$$$$
