TQD.pdb
     RDKit          3D

 25 24  0  0  1  0  0  0  0  0999 V2000
   18.7792   -9.6681  -18.9833 C   0  0  0  0  0  0  0  0  0  0  0  0
   18.7284  -10.9601  -18.2348 C   0  0  1  0  0  0  0  0  0  0  0  0
   18.1955  -11.9263  -19.1044 O   0  0  0  0  0  0  0  0  0  0  0  0
   20.1194  -11.4525  -17.8861 C   0  0  2  0  0  0  0  0  0  0  0  0
   19.8750  -12.7376  -17.1803 N   0  0  0  0  0  0  0  0  0  0  0  0
   20.7854  -10.5893  -16.8873 C   0  0  0  0  0  0  0  0  0  0  0  0
   20.2829  -10.4646  -15.7152 O   0  0  0  0  0  0  0  0  0  0  0  0
   26.6481   -9.7663  -15.9333 N   0  0  0  0  0  0  0  0  0  0  0  0
   25.8440  -10.8712  -15.5550 C   0  0  0  0  0  0  0  0  0  0  0  0
   26.3623  -11.9467  -15.2033 O   0  0  0  0  0  0  0  0  0  0  0  0
   24.3575  -10.7258  -15.5847 C   0  0  0  0  0  0  0  0  0  0  0  0
   24.0368   -9.3447  -16.0538 C   0  0  0  0  0  0  0  0  0  0  0  0
   22.5522   -9.0116  -16.0353 C   0  0  2  0  0  0  0  0  0  0  0  0
   21.9761   -9.8508  -17.0873 N   0  0  0  0  0  0  0  0  0  0  0  0
   22.2554   -7.5921  -16.1814 C   0  0  0  0  0  0  0  0  0  0  0  0
   22.3986   -6.9640  -17.2792 O   0  0  0  0  0  0  0  0  0  0  0  0
   21.7829   -6.8467  -15.0699 N   0  0  0  0  0  0  0  0  0  0  0  0
   21.5304   -5.4135  -15.1639 C   0  0  1  0  0  0  0  0  0  0  0  0
   20.0651   -5.1348  -14.9339 C   0  0  0  0  0  0  0  0  0  0  0  0
   19.7445   -3.6946  -15.0754 C   0  0  0  0  0  0  0  0  0  0  0  0
   20.3204   -2.9433  -15.9023 O   0  0  0  0  0  0  0  0  0  0  0  0
   22.3467   -4.7257  -14.1284 C   0  0  0  0  0  0  0  0  0  0  0  0
   22.7915   -5.3267  -13.1177 O   0  0  0  0  0  0  0  0  0  0  0  0
   18.7653   -3.1684  -14.2536 O   0  0  0  0  0  0  0  0  0  0  0  0
   22.6494   -3.3768  -14.2448 O   0  0  0  0  0  0  0  0  0  0  0  0
  2  1  1  6
  3  2  1  0
  4  6  1  0
  4  2  1  0
  4  5  1  1
  6 14  1  0
  6  7  2  0
  9 10  2  0
  9  8  1  0
 11  9  1  0
 12 11  1  0
 13 12  1  6
 14 13  1  0
 15 17  1  0
 15 13  1  0
 16 15  2  0
 18 22  1  0
 18 17  1  0
 18 19  1  1
 19 20  1  0
 20 24  1  0
 21 20  2  0
 22 25  1  0
 23 22  2  0
M  END
$$$$
