TQD.pdb
     RDKit          3D

 25 24  0  0  1  0  0  0  0  0999 V2000
   21.7899  -12.9807  -21.5870 C   0  0  0  0  0  0  0  0  0  0  0  0
   22.0972  -12.0052  -20.4979 C   0  0  1  0  0  0  0  0  0  0  0  0
   20.9488  -11.8989  -19.6957 O   0  0  0  0  0  0  0  0  0  0  0  0
   23.1857  -12.5258  -19.5798 C   0  0  2  0  0  0  0  0  0  0  0  0
   22.5668  -13.7115  -18.9313 N   0  0  0  0  0  0  0  0  0  0  0  0
   23.4767  -11.5926  -18.4703 C   0  0  0  0  0  0  0  0  0  0  0  0
   22.7083  -11.5603  -17.4454 O   0  0  0  0  0  0  0  0  0  0  0  0
   28.9628   -9.4899  -17.0290 N   0  0  0  0  0  0  0  0  0  0  0  0
   28.4823  -10.7970  -16.7629 C   0  0  0  0  0  0  0  0  0  0  0  0
   29.2673  -11.7194  -16.4767 O   0  0  0  0  0  0  0  0  0  0  0  0
   27.0121  -11.0534  -16.8312 C   0  0  0  0  0  0  0  0  0  0  0  0
   26.3313   -9.7621  -17.1465 C   0  0  0  0  0  0  0  0  0  0  0  0
   24.8149   -9.8624  -17.2245 C   0  0  2  0  0  0  0  0  0  0  0  0
   24.5635  -10.6883  -18.4068 N   0  0  0  0  0  0  0  0  0  0  0  0
   24.1303   -8.5758  -17.2446 C   0  0  0  0  0  0  0  0  0  0  0  0
   23.9832   -7.8860  -18.3042 O   0  0  0  0  0  0  0  0  0  0  0  0
   23.5906   -8.0391  -16.0467 N   0  0  0  0  0  0  0  0  0  0  0  0
   22.9623   -6.7234  -16.0151 C   0  0  1  0  0  0  0  0  0  0  0  0
   21.9051   -6.6859  -14.9387 C   0  0  0  0  0  0  0  0  0  0  0  0
   21.3468   -5.3251  -14.7553 C   0  0  0  0  0  0  0  0  0  0  0  0
   20.9713   -4.6045  -15.7142 O   0  0  0  0  0  0  0  0  0  0  0  0
   24.0127   -5.7099  -15.7305 C   0  0  0  0  0  0  0  0  0  0  0  0
   23.7950   -4.4752  -15.8235 O   0  0  0  0  0  0  0  0  0  0  0  0
   21.2406   -4.8405  -13.4650 O   0  0  0  0  0  0  0  0  0  0  0  0
   25.2880   -6.0990  -15.3468 O   0  0  0  0  0  0  0  0  0  0  0  0
  2  1  1  6
  3  2  1  0
  4  6  1  0
  4  2  1  0
  4  5  1  1
  6 14  1  0
  6  7  2  0
  9 10  2  0
  9  8  1  0
 11  9  1  0
 12 11  1  0
 13 12  1  6
 14 13  1  0
 15 17  1  0
 15 13  1  0
 16 15  2  0
 18 22  1  0
 18 17  1  0
 18 19  1  1
 19 20  1  0
 20 24  1  0
 21 20  2  0
 22 25  1  0
 23 22  2  0
M  END
$$$$
