TQD.pdb
     RDKit          3D

 25 24  0  0  1  0  0  0  0  0999 V2000
   19.1769  -11.3575  -19.2494 C   0  0  0  0  0  0  0  0  0  0  0  0
   18.8612  -12.1802  -18.0429 C   0  0  1  0  0  0  0  0  0  0  0  0
   19.2710  -13.4961  -18.3153 O   0  0  0  0  0  0  0  0  0  0  0  0
   19.6795  -11.7413  -16.8444 C   0  0  2  0  0  0  0  0  0  0  0  0
   19.4612  -12.8235  -15.8493 N   0  0  0  0  0  0  0  0  0  0  0  0
   19.1336  -10.5229  -16.2089 C   0  0  0  0  0  0  0  0  0  0  0  0
   19.0445   -9.4367  -16.8829 O   0  0  0  0  0  0  0  0  0  0  0  0
   15.8619  -10.3701  -11.1078 N   0  0  0  0  0  0  0  0  0  0  0  0
   15.2766  -10.5740  -12.3830 C   0  0  0  0  0  0  0  0  0  0  0  0
   14.1885  -11.1672  -12.4982 O   0  0  0  0  0  0  0  0  0  0  0  0
   15.9882  -10.0641  -13.5936 C   0  0  0  0  0  0  0  0  0  0  0  0
   17.3135   -9.5292  -13.1604 C   0  0  0  0  0  0  0  0  0  0  0  0
   18.2314   -9.1389  -14.3096 C   0  0  2  0  0  0  0  0  0  0  0  0
   18.6719  -10.4152  -14.8754 N   0  0  0  0  0  0  0  0  0  0  0  0
   19.3234   -8.2518  -13.9286 C   0  0  0  0  0  0  0  0  0  0  0  0
   20.1812   -8.5525  -13.0376 O   0  0  0  0  0  0  0  0  0  0  0  0
   19.4665   -6.9890  -14.5603 N   0  0  0  0  0  0  0  0  0  0  0  0
   20.4925   -6.0396  -14.1445 C   0  0  1  0  0  0  0  0  0  0  0  0
   21.5731   -5.9598  -15.1950 C   0  0  0  0  0  0  0  0  0  0  0  0
   22.5954   -4.9387  -14.8641 C   0  0  0  0  0  0  0  0  0  0  0  0
   23.0582   -4.7838  -13.7058 O   0  0  0  0  0  0  0  0  0  0  0  0
   19.8545   -4.7076  -13.9702 C   0  0  0  0  0  0  0  0  0  0  0  0
   18.7446   -4.4235  -14.4880 O   0  0  0  0  0  0  0  0  0  0  0  0
   23.0506   -4.1274  -15.8867 O   0  0  0  0  0  0  0  0  0  0  0  0
   20.4722   -3.7185  -13.2186 O   0  0  0  0  0  0  0  0  0  0  0  0
  2  1  1  6
  3  2  1  0
  4  6  1  0
  4  2  1  0
  4  5  1  1
  6 14  1  0
  6  7  2  0
  9 10  2  0
  9  8  1  0
 11  9  1  0
 12 11  1  0
 13 12  1  1
 14 13  1  0
 15 17  1  0
 15 13  1  0
 16 15  2  0
 18 22  1  0
 18 17  1  0
 18 19  1  6
 19 20  1  0
 20 24  1  0
 21 20  2  0
 22 25  1  0
 23 22  2  0
M  END
$$$$
