TQD.pdb
     RDKit          3D

 25 24  0  0  1  0  0  0  0  0999 V2000
   24.5974  -10.5000  -15.2818 C   0  0  0  0  0  0  0  0  0  0  0  0
   24.4484  -11.2966  -16.5369 C   0  0  1  0  0  0  0  0  0  0  0  0
   25.3636  -12.3603  -16.4680 O   0  0  0  0  0  0  0  0  0  0  0  0
   23.0803  -11.9446  -16.6220 C   0  0  2  0  0  0  0  0  0  0  0  0
   23.0868  -12.6161  -17.9479 N   0  0  0  0  0  0  0  0  0  0  0  0
   21.9920  -10.9470  -16.7049 C   0  0  0  0  0  0  0  0  0  0  0  0
   21.8405  -10.2550  -17.7726 O   0  0  0  0  0  0  0  0  0  0  0  0
   16.3151  -10.9400  -14.8809 N   0  0  0  0  0  0  0  0  0  0  0  0
   16.9225  -11.5704  -15.9963 C   0  0  0  0  0  0  0  0  0  0  0  0
   16.3477  -12.4966  -16.5969 O   0  0  0  0  0  0  0  0  0  0  0  0
   18.2698  -11.1048  -16.4431 C   0  0  0  0  0  0  0  0  0  0  0  0
   18.7669  -10.1055  -15.4509 C   0  0  0  0  0  0  0  0  0  0  0  0
   20.1310   -9.5214  -15.7876 C   0  0  2  0  0  0  0  0  0  0  0  0
   21.0493  -10.6573  -15.6897 N   0  0  0  0  0  0  0  0  0  0  0  0
   20.5124   -8.3793  -14.9663 C   0  0  0  0  0  0  0  0  0  0  0  0
   21.2309   -8.4870  -13.9212 O   0  0  0  0  0  0  0  0  0  0  0  0
   20.0810   -7.0742  -15.3196 N   0  0  0  0  0  0  0  0  0  0  0  0
   20.4897   -5.9020  -14.5543 C   0  0  1  0  0  0  0  0  0  0  0  0
   21.9915   -5.7590  -14.5984 C   0  0  0  0  0  0  0  0  0  0  0  0
   22.4527   -4.5271  -13.9151 C   0  0  0  0  0  0  0  0  0  0  0  0
   22.7953   -3.4884  -14.5344 O   0  0  0  0  0  0  0  0  0  0  0  0
   19.8477   -4.7031  -15.1559 C   0  0  0  0  0  0  0  0  0  0  0  0
   19.6178   -4.6139  -16.3888 O   0  0  0  0  0  0  0  0  0  0  0  0
   22.5028   -4.5366  -12.5337 O   0  0  0  0  0  0  0  0  0  0  0  0
   19.4750   -3.6262  -14.3647 O   0  0  0  0  0  0  0  0  0  0  0  0
  2  1  1  1
  3  2  1  0
  4  6  1  0
  4  2  1  0
  4  5  1  6
  6 14  1  0
  6  7  2  0
  9 10  2  0
  9  8  1  0
 11  9  1  0
 12 11  1  0
 13 12  1  1
 14 13  1  0
 15 17  1  0
 15 13  1  0
 16 15  2  0
 18 22  1  0
 18 17  1  0
 18 19  1  6
 19 20  1  0
 20 24  1  0
 21 20  2  0
 22 25  1  0
 23 22  2  0
M  END
$$$$
