TQD.pdb
     RDKit          3D

 25 24  0  0  1  0  0  0  0  0999 V2000
   20.2289   -9.7897  -20.7055 C   0  0  0  0  0  0  0  0  0  0  0  0
   19.5499  -10.9324  -20.0234 C   0  0  1  0  0  0  0  0  0  0  0  0
   18.9366  -11.7095  -21.0202 O   0  0  0  0  0  0  0  0  0  0  0  0
   20.5525  -11.8515  -19.3533 C   0  0  2  0  0  0  0  0  0  0  0  0
   19.7088  -12.9081  -18.7360 N   0  0  0  0  0  0  0  0  0  0  0  0
   21.2387  -11.1992  -18.2175 C   0  0  0  0  0  0  0  0  0  0  0  0
   20.5756  -10.8826  -17.1678 O   0  0  0  0  0  0  0  0  0  0  0  0
   27.0573  -11.6323  -16.7443 N   0  0  0  0  0  0  0  0  0  0  0  0
   26.7892  -10.5484  -15.8705 C   0  0  0  0  0  0  0  0  0  0  0  0
   27.6619  -10.1278  -15.0891 O   0  0  0  0  0  0  0  0  0  0  0  0
   25.4368   -9.9144  -15.9008 C   0  0  0  0  0  0  0  0  0  0  0  0
   24.6196  -10.6163  -16.9352 C   0  0  0  0  0  0  0  0  0  0  0  0
   23.1809  -10.1294  -17.0257 C   0  0  2  0  0  0  0  0  0  0  0  0
   22.6140  -10.8714  -18.1532 N   0  0  0  0  0  0  0  0  0  0  0  0
   23.0446   -8.6828  -17.1407 C   0  0  0  0  0  0  0  0  0  0  0  0
   23.5591   -8.0121  -18.0923 O   0  0  0  0  0  0  0  0  0  0  0  0
   22.3110   -7.9583  -16.1653 N   0  0  0  0  0  0  0  0  0  0  0  0
   22.1287   -6.5148  -16.2642 C   0  0  1  0  0  0  0  0  0  0  0  0
   20.6627   -6.1743  -16.1517 C   0  0  0  0  0  0  0  0  0  0  0  0
   19.9170   -6.5141  -17.3869 C   0  0  0  0  0  0  0  0  0  0  0  0
   20.4349   -6.4754  -18.5315 O   0  0  0  0  0  0  0  0  0  0  0  0
   22.8858   -5.8706  -15.1580 C   0  0  0  0  0  0  0  0  0  0  0  0
   23.0052   -4.6224  -15.0659 O   0  0  0  0  0  0  0  0  0  0  0  0
   18.5926   -6.8887  -17.2578 O   0  0  0  0  0  0  0  0  0  0  0  0
   23.4952   -6.6374  -14.1754 O   0  0  0  0  0  0  0  0  0  0  0  0
  2  1  1  6
  3  2  1  0
  4  6  1  0
  4  2  1  0
  4  5  1  1
  6 14  1  0
  6  7  2  0
  9 10  2  0
  9  8  1  0
 11  9  1  0
 12 11  1  0
 13 12  1  6
 14 13  1  0
 15 17  1  0
 15 13  1  0
 16 15  2  0
 18 22  1  0
 18 17  1  0
 18 19  1  1
 19 20  1  0
 20 24  1  0
 21 20  2  0
 22 25  1  0
 23 22  2  0
M  END
$$$$
