VTW.pdb
     RDKit          3D

 29 30  0  0  1  0  0  0  0  0999 V2000
    7.6313  -15.0208   17.6896 C   0  0  0  0  0  0  0  0  0  0  0  0
    7.3385  -13.9024   18.7150 C   0  0  2  0  0  0  0  0  0  0  0  0
    7.0376  -12.6842   17.8741 C   0  0  0  0  0  0  0  0  0  0  0  0
    8.5557  -13.8056   19.5608 C   0  0  2  0  0  0  0  0  0  0  0  0
    9.6543  -13.4403   18.6560 N   0  0  0  0  0  0  0  0  0  0  0  0
    8.9026  -14.9709   20.3685 C   0  0  0  0  0  0  0  0  0  0  0  0
    8.0525  -15.3135   21.2690 O   0  0  0  0  0  0  0  0  0  0  0  0
   11.6683  -18.8327   21.7567 C   0  0  0  0  0  0  0  0  0  0  0  0
   11.4832  -17.6719   20.8024 C   0  0  1  0  0  0  0  0  0  0  0  0
   11.2688  -18.1866   19.5491 O   0  0  0  0  0  0  0  0  0  0  0  0
   10.3508  -16.7762   21.2688 C   0  0  2  0  0  0  0  0  0  0  0  0
   10.0665  -15.7695   20.2732 N   0  0  0  0  0  0  0  0  0  0  0  0
   10.6625  -16.2631   22.6040 C   0  0  0  0  0  0  0  0  0  0  0  0
   11.1871  -15.1128   22.6849 O   0  0  0  0  0  0  0  0  0  0  0  0
   10.4311  -16.9370   23.8204 N   0  0  0  0  0  0  0  0  0  0  0  0
   10.0225  -16.2223   25.0378 C   0  0  1  0  0  0  0  0  0  0  0  0
    8.7496  -15.4647   24.8228 C   0  0  0  0  0  0  0  0  0  0  0  0
    8.4019  -14.7347   26.0625 C   0  0  0  0  0  0  0  0  0  0  0  0
    8.5587  -15.2219   27.3616 C   0  0  0  0  0  0  0  0  0  0  0  0
    8.1394  -14.2829   28.2270 N   0  0  0  0  0  0  0  0  0  0  0  0
    7.7078  -13.1862   27.5691 C   0  0  0  0  0  0  0  0  0  0  0  0
    7.1946  -11.9866   28.0056 C   0  0  0  0  0  0  0  0  0  0  0  0
    6.8357  -11.0438   27.0581 C   0  0  0  0  0  0  0  0  0  0  0  0
    7.0001  -11.3288   25.7219 C   0  0  0  0  0  0  0  0  0  0  0  0
    7.5112  -12.5231   25.2844 C   0  0  0  0  0  0  0  0  0  0  0  0
    7.8767  -13.4806   26.2182 C   0  0  0  0  0  0  0  0  0  0  0  0
    9.8806  -17.2354   26.1396 C   0  0  0  0  0  0  0  0  0  0  0  0
   10.4932  -17.0559   27.3588 O   0  0  0  0  0  0  0  0  0  0  0  0
    9.1929  -18.2804   25.9724 O   0  0  0  0  0  0  0  0  0  0  0  0
  2  1  1  6
  2  3  1  0
  4  2  1  0
  4  5  1  6
  6  4  1  0
  7  6  2  0
  9 11  1  0
  9  8  1  1
 10  9  1  0
 11 12  1  6
 12  6  1  0
 13 15  1  0
 13 11  1  0
 14 13  2  0
 16 15  1  0
 16 17  1  6
 17 18  1  0
 18 26  1  0
 18 19  2  0
 19 20  1  0
 21 20  1  0
 21 22  2  0
 23 22  1  0
 24 23  2  0
 25 26  2  0
 25 24  1  0
 26 21  1  0
 27 28  1  0
 27 16  1  0
 29 27  2  0
M  END
$$$$
