VTW.pdb
     RDKit          3D

 29 30  0  0  1  0  0  0  0  0999 V2000
    8.7871  -12.2899   20.3707 C   0  0  0  0  0  0  0  0  0  0  0  0
    8.0069  -12.9105   19.1899 C   0  0  2  0  0  0  0  0  0  0  0  0
    6.5753  -12.9697   19.6687 C   0  0  0  0  0  0  0  0  0  0  0  0
    8.6462  -14.2266   18.9348 C   0  0  2  0  0  0  0  0  0  0  0  0
    8.0750  -14.7213   17.6746 N   0  0  0  0  0  0  0  0  0  0  0  0
    8.5494  -15.2321   19.9885 C   0  0  0  0  0  0  0  0  0  0  0  0
    7.8138  -16.2546   19.7345 O   0  0  0  0  0  0  0  0  0  0  0  0
    9.0186  -17.8979   20.1305 C   0  0  0  0  0  0  0  0  0  0  0  0
    9.7946  -17.5592   21.3857 C   0  0  1  0  0  0  0  0  0  0  0  0
   11.0956  -17.3169   21.0244 O   0  0  0  0  0  0  0  0  0  0  0  0
    9.1577  -16.3836   22.1030 C   0  0  2  0  0  0  0  0  0  0  0  0
    9.1743  -15.2129   21.2576 N   0  0  0  0  0  0  0  0  0  0  0  0
    9.7925  -16.2177   23.4116 C   0  0  0  0  0  0  0  0  0  0  0  0
   10.7601  -15.4045   23.4976 O   0  0  0  0  0  0  0  0  0  0  0  0
    9.4237  -16.8858   24.5969 N   0  0  0  0  0  0  0  0  0  0  0  0
    9.9307  -16.4695   25.9120 C   0  0  1  0  0  0  0  0  0  0  0  0
    8.8559  -16.5251   26.9522 C   0  0  0  0  0  0  0  0  0  0  0  0
    7.7567  -15.6121   26.5663 C   0  0  0  0  0  0  0  0  0  0  0  0
    6.5354  -16.0018   26.0131 C   0  0  0  0  0  0  0  0  0  0  0  0
    5.7912  -14.9038   25.7964 N   0  0  0  0  0  0  0  0  0  0  0  0
    6.4564  -13.7932   26.1785 C   0  0  0  0  0  0  0  0  0  0  0  0
    6.1212  -12.4591   26.1557 C   0  0  0  0  0  0  0  0  0  0  0  0
    7.0447  -11.5432   26.6287 C   0  0  0  0  0  0  0  0  0  0  0  0
    8.2578  -11.9870   27.1032 C   0  0  0  0  0  0  0  0  0  0  0  0
    8.5942  -13.3156   27.1271 C   0  0  0  0  0  0  0  0  0  0  0  0
    7.6825  -14.2487   26.6575 C   0  0  0  0  0  0  0  0  0  0  0  0
   11.0847  -17.3665   26.2645 C   0  0  0  0  0  0  0  0  0  0  0  0
   11.9684  -17.0341   27.2657 O   0  0  0  0  0  0  0  0  0  0  0  0
   11.2720  -18.4516   25.6477 O   0  0  0  0  0  0  0  0  0  0  0  0
  2  1  1  1
  2  3  1  0
  4  2  1  0
  4  5  1  6
  6  4  1  0
  7  6  2  0
  9 11  1  0
  9  8  1  6
 10  9  1  0
 11 12  1  6
 12  6  1  0
 13 15  1  0
 13 11  1  0
 14 13  2  0
 16 15  1  0
 16 17  1  1
 17 18  1  0
 18 26  1  0
 18 19  2  0
 19 20  1  0
 21 20  1  0
 21 22  2  0
 23 22  1  0
 24 23  2  0
 25 26  2  0
 25 24  1  0
 26 21  1  0
 27 28  1  0
 27 16  1  0
 29 27  2  0
M  END
$$$$
