VTW.pdb
     RDKit          3D

 29 30  0  0  1  0  0  0  0  0999 V2000
    5.4691  -17.2229   21.9501 C   0  0  0  0  0  0  0  0  0  0  0  0
    6.1053  -16.0859   21.1191 C   0  0  2  0  0  0  0  0  0  0  0  0
    5.0240  -15.6727   20.1486 C   0  0  0  0  0  0  0  0  0  0  0  0
    7.3221  -16.6731   20.5022 C   0  0  2  0  0  0  0  0  0  0  0  0
    6.8517  -17.7292   19.5953 N   0  0  0  0  0  0  0  0  0  0  0  0
    8.3540  -17.1738   21.4051 C   0  0  0  0  0  0  0  0  0  0  0  0
    8.1941  -18.3704   21.8453 O   0  0  0  0  0  0  0  0  0  0  0  0
   12.7126  -17.8179   23.3258 C   0  0  0  0  0  0  0  0  0  0  0  0
   11.8154  -17.0942   22.3442 C   0  0  1  0  0  0  0  0  0  0  0  0
   11.9533  -17.7000   21.1212 O   0  0  0  0  0  0  0  0  0  0  0  0
   10.3806  -17.0921   22.8379 C   0  0  2  0  0  0  0  0  0  0  0  0
    9.5125  -16.4949   21.8504 N   0  0  0  0  0  0  0  0  0  0  0  0
   10.3302  -16.4787   24.1661 C   0  0  0  0  0  0  0  0  0  0  0  0
   10.4694  -15.2217   24.2396 O   0  0  0  0  0  0  0  0  0  0  0  0
   10.1394  -17.1637   25.3833 N   0  0  0  0  0  0  0  0  0  0  0  0
   10.3001  -16.4962   26.6828 C   0  0  1  0  0  0  0  0  0  0  0  0
    9.0405  -16.5630   27.4885 C   0  0  0  0  0  0  0  0  0  0  0  0
    8.0363  -15.6491   26.8993 C   0  0  0  0  0  0  0  0  0  0  0  0
    6.8980  -16.0420   26.1927 C   0  0  0  0  0  0  0  0  0  0  0  0
    6.2255  -14.9418   25.8137 N   0  0  0  0  0  0  0  0  0  0  0  0
    6.8598  -13.8266   26.2331 C   0  0  0  0  0  0  0  0  0  0  0  0
    6.5703  -12.4888   26.0939 C   0  0  0  0  0  0  0  0  0  0  0  0
    7.4411  -11.5685   26.6511 C   0  0  0  0  0  0  0  0  0  0  0  0
    8.5586  -12.0117   27.3207 C   0  0  0  0  0  0  0  0  0  0  0  0
    8.8492  -13.3439   27.4609 C   0  0  0  0  0  0  0  0  0  0  0  0
    7.9891  -14.2814   26.9098 C   0  0  0  0  0  0  0  0  0  0  0  0
   11.4469  -17.1543   27.3987 C   0  0  0  0  0  0  0  0  0  0  0  0
   12.0905  -18.2470   26.8642 O   0  0  0  0  0  0  0  0  0  0  0  0
   11.8491  -16.7185   28.5128 O   0  0  0  0  0  0  0  0  0  0  0  0
  2  1  1  1
  2  3  1  0
  4  2  1  0
  4  5  1  6
  6  4  1  0
  7  6  2  0
  9 11  1  0
  9  8  1  1
 10  9  1  0
 11 12  1  6
 12  6  1  0
 13 15  1  0
 13 11  1  0
 14 13  2  0
 16 15  1  0
 16 17  1  1
 17 18  1  0
 18 26  1  0
 18 19  2  0
 19 20  1  0
 21 20  1  0
 21 22  2  0
 23 22  1  0
 24 23  2  0
 25 26  2  0
 25 24  1  0
 26 21  1  0
 27 28  1  0
 27 16  1  0
 29 27  2  0
M  END
$$$$
