VTW.pdb
     RDKit          3D

 29 30  0  0  1  0  0  0  0  0999 V2000
    7.5412  -12.9217   20.2850 C   0  0  0  0  0  0  0  0  0  0  0  0
    8.7192  -13.2990   19.3587 C   0  0  2  0  0  0  0  0  0  0  0  0
    8.5992  -12.3543   18.1861 C   0  0  0  0  0  0  0  0  0  0  0  0
    8.5317  -14.7371   19.0377 C   0  0  2  0  0  0  0  0  0  0  0  0
    7.3455  -14.8118   18.1737 N   0  0  0  0  0  0  0  0  0  0  0  0
    8.4262  -15.6642   20.1602 C   0  0  0  0  0  0  0  0  0  0  0  0
    7.2570  -15.8061   20.6739 O   0  0  0  0  0  0  0  0  0  0  0  0
    8.9819  -19.2811   20.5157 C   0  0  0  0  0  0  0  0  0  0  0  0
    9.6971  -18.6537   21.6935 C   0  0  1  0  0  0  0  0  0  0  0  0
   11.0456  -18.7166   21.4500 O   0  0  0  0  0  0  0  0  0  0  0  0
    9.2083  -17.2349   21.9175 C   0  0  2  0  0  0  0  0  0  0  0  0
    9.4625  -16.4275   20.7473 N   0  0  0  0  0  0  0  0  0  0  0  0
    9.7766  -16.7219   23.1652 C   0  0  0  0  0  0  0  0  0  0  0  0
   10.7078  -15.8672   23.0803 O   0  0  0  0  0  0  0  0  0  0  0  0
    9.3803  -17.0948   24.4657 N   0  0  0  0  0  0  0  0  0  0  0  0
   10.0805  -16.6038   25.6609 C   0  0  1  0  0  0  0  0  0  0  0  0
    9.8280  -15.1447   25.8787 C   0  0  0  0  0  0  0  0  0  0  0  0
    8.3847  -14.9321   26.1287 C   0  0  0  0  0  0  0  0  0  0  0  0
    7.3972  -15.9173   26.0665 C   0  0  0  0  0  0  0  0  0  0  0  0
    6.2104  -15.3558   26.3538 N   0  0  0  0  0  0  0  0  0  0  0  0
    6.3545  -14.0377   26.6064 C   0  0  0  0  0  0  0  0  0  0  0  0
    5.4517  -13.0545   26.9395 C   0  0  0  0  0  0  0  0  0  0  0  0
    5.9257  -11.7692   27.1368 C   0  0  0  0  0  0  0  0  0  0  0  0
    7.2705  -11.5134   26.9961 C   0  0  0  0  0  0  0  0  0  0  0  0
    8.1720  -12.4912   26.6644 C   0  0  0  0  0  0  0  0  0  0  0  0
    7.7168  -13.7853   26.4626 C   0  0  0  0  0  0  0  0  0  0  0  0
    9.6180  -17.4234   26.8335 C   0  0  0  0  0  0  0  0  0  0  0  0
   10.1805  -17.2686   28.0799 O   0  0  0  0  0  0  0  0  0  0  0  0
    8.6982  -18.2776   26.7026 O   0  0  0  0  0  0  0  0  0  0  0  0
  2  1  1  1
  2  3  1  0
  4  2  1  0
  4  5  1  1
  6  4  1  0
  7  6  2  0
  9 11  1  0
  9  8  1  6
 10  9  1  0
 11 12  1  6
 12  6  1  0
 13 15  1  0
 13 11  1  0
 14 13  2  0
 16 15  1  0
 16 17  1  1
 17 18  1  0
 18 26  1  0
 18 19  2  0
 19 20  1  0
 21 20  1  0
 21 22  2  0
 23 22  1  0
 24 23  2  0
 25 26  2  0
 25 24  1  0
 26 21  1  0
 27 28  1  0
 27 16  1  0
 29 27  2  0
M  END
$$$$
