VTW.pdb
     RDKit          3D

 29 30  0  0  1  0  0  0  0  0999 V2000
    3.4992  -17.8177   21.0227 C   0  0  0  0  0  0  0  0  0  0  0  0
    3.4234  -19.2519   20.4524 C   0  0  2  0  0  0  0  0  0  0  0  0
    1.9819  -19.6615   20.6424 C   0  0  0  0  0  0  0  0  0  0  0  0
    4.4156  -20.0431   21.2243 C   0  0  2  0  0  0  0  0  0  0  0  0
    3.9460  -20.0411   22.6166 N   0  0  0  0  0  0  0  0  0  0  0  0
    5.8128  -19.6295   21.1382 C   0  0  0  0  0  0  0  0  0  0  0  0
    6.5549  -20.2945   20.3269 O   0  0  0  0  0  0  0  0  0  0  0  0
    7.6339  -19.4198   19.4267 C   0  0  0  0  0  0  0  0  0  0  0  0
    8.1523  -18.1981   20.1556 C   0  0  1  0  0  0  0  0  0  0  0  0
    7.5936  -17.0900   19.5711 O   0  0  0  0  0  0  0  0  0  0  0  0
    7.8463  -18.2947   21.6386 C   0  0  2  0  0  0  0  0  0  0  0  0
    6.4451  -18.5784   21.8430 N   0  0  0  0  0  0  0  0  0  0  0  0
    8.3448  -17.0941   22.3115 C   0  0  0  0  0  0  0  0  0  0  0  0
    7.6763  -16.0259   22.1814 O   0  0  0  0  0  0  0  0  0  0  0  0
    9.5116  -17.0151   23.0986 N   0  0  0  0  0  0  0  0  0  0  0  0
    9.8836  -15.7861   23.8135 C   0  0  1  0  0  0  0  0  0  0  0  0
    8.9466  -14.6642   23.4912 C   0  0  0  0  0  0  0  0  0  0  0  0
    7.9606  -14.5233   24.5860 C   0  0  0  0  0  0  0  0  0  0  0  0
    7.0899  -15.5219   25.0267 C   0  0  0  0  0  0  0  0  0  0  0  0
    6.3473  -15.0318   26.0340 N   0  0  0  0  0  0  0  0  0  0  0  0
    6.6788  -13.7488   26.2909 C   0  0  0  0  0  0  0  0  0  0  0  0
    6.2102  -12.8373   27.2087 C   0  0  0  0  0  0  0  0  0  0  0  0
    6.7688  -11.5710   27.2187 C   0  0  0  0  0  0  0  0  0  0  0  0
    7.7655  -11.2626   26.3213 C   0  0  0  0  0  0  0  0  0  0  0  0
    8.2342  -12.1690   25.4059 C   0  0  0  0  0  0  0  0  0  0  0  0
    7.6873  -13.4428   25.3801 C   0  0  0  0  0  0  0  0  0  0  0  0
    9.8877  -16.0940   25.2852 C   0  0  0  0  0  0  0  0  0  0  0  0
    9.4280  -17.2994   25.7644 O   0  0  0  0  0  0  0  0  0  0  0  0
   10.3150  -15.2503   26.1210 O   0  0  0  0  0  0  0  0  0  0  0  0
  2  1  1  1
  2  3  1  0
  4  2  1  0
  4  5  1  1
  6  4  1  0
  7  6  2  0
  9 11  1  0
  9  8  1  6
 10  9  1  0
 11 12  1  6
 12  6  1  0
 13 15  1  0
 13 11  1  0
 14 13  2  0
 16 15  1  0
 16 17  1  1
 17 18  1  0
 18 26  1  0
 18 19  2  0
 19 20  1  0
 21 20  1  0
 21 22  2  0
 23 22  1  0
 24 23  2  0
 25 26  2  0
 25 24  1  0
 26 21  1  0
 27 28  1  0
 27 16  1  0
 29 27  2  0
M  END
$$$$
