VTW.pdb
     RDKit          3D

 29 30  0  0  1  0  0  0  0  0999 V2000
    7.1606  -13.4598   19.9159 C   0  0  0  0  0  0  0  0  0  0  0  0
    8.2713  -13.3586   18.8462 C   0  0  2  0  0  0  0  0  0  0  0  0
    7.6771  -12.4915   17.7613 C   0  0  0  0  0  0  0  0  0  0  0  0
    8.5726  -14.7573   18.4478 C   0  0  2  0  0  0  0  0  0  0  0  0
    7.4635  -15.1842   17.5836 N   0  0  0  0  0  0  0  0  0  0  0  0
    8.8085  -15.7211   19.5184 C   0  0  0  0  0  0  0  0  0  0  0  0
    7.7642  -16.2049   20.0897 O   0  0  0  0  0  0  0  0  0  0  0  0
   10.8407  -18.9080   19.7544 C   0  0  0  0  0  0  0  0  0  0  0  0
   11.1437  -18.1121   21.0063 C   0  0  1  0  0  0  0  0  0  0  0  0
   12.4281  -17.6412   20.9058 O   0  0  0  0  0  0  0  0  0  0  0  0
   10.1258  -17.0018   21.1891 C   0  0  2  0  0  0  0  0  0  0  0  0
   10.0549  -16.1870   19.9989 N   0  0  0  0  0  0  0  0  0  0  0  0
   10.4227  -16.2764   22.4255 C   0  0  0  0  0  0  0  0  0  0  0  0
   10.6488  -15.0329   22.3385 O   0  0  0  0  0  0  0  0  0  0  0  0
   10.4812  -16.8386   23.7169 N   0  0  0  0  0  0  0  0  0  0  0  0
   10.0667  -16.0869   24.9099 C   0  0  1  0  0  0  0  0  0  0  0  0
    8.6761  -15.5536   24.7612 C   0  0  0  0  0  0  0  0  0  0  0  0
    8.2994  -14.8250   25.9933 C   0  0  0  0  0  0  0  0  0  0  0  0
    8.4511  -15.3030   27.2964 C   0  0  0  0  0  0  0  0  0  0  0  0
    8.0030  -14.3687   28.1524 N   0  0  0  0  0  0  0  0  0  0  0  0
    7.5568  -13.2840   27.4844 C   0  0  0  0  0  0  0  0  0  0  0  0
    7.0145  -12.0932   27.9091 C   0  0  0  0  0  0  0  0  0  0  0  0
    6.6474  -11.1622   26.9530 C   0  0  0  0  0  0  0  0  0  0  0  0
    6.8329  -11.4500   25.6202 C   0  0  0  0  0  0  0  0  0  0  0  0
    7.3731  -12.6356   25.1943 C   0  0  0  0  0  0  0  0  0  0  0  0
    7.7472  -13.5812   26.1369 C   0  0  0  0  0  0  0  0  0  0  0  0
   10.1800  -17.0060   26.0944 C   0  0  0  0  0  0  0  0  0  0  0  0
   10.0189  -18.3663   25.9615 O   0  0  0  0  0  0  0  0  0  0  0  0
   10.4267  -16.5501   27.2452 O   0  0  0  0  0  0  0  0  0  0  0  0
  2  1  1  1
  2  3  1  0
  4  2  1  0
  4  5  1  1
  6  4  1  0
  7  6  2  0
  9 11  1  0
  9  8  1  6
 10  9  1  0
 11 12  1  6
 12  6  1  0
 13 15  1  0
 13 11  1  0
 14 13  2  0
 16 15  1  0
 16 17  1  6
 17 18  1  0
 18 26  1  0
 18 19  2  0
 19 20  1  0
 21 20  1  0
 21 22  2  0
 23 22  1  0
 24 23  2  0
 25 26  2  0
 25 24  1  0
 26 21  1  0
 27 28  1  0
 27 16  1  0
 29 27  2  0
M  END
$$$$
