VTW.pdb
     RDKit          3D

 29 30  0  0  1  0  0  0  0  0999 V2000
    7.8299  -12.4220   18.6228 C   0  0  0  0  0  0  0  0  0  0  0  0
    7.6184  -13.3555   19.8360 C   0  0  2  0  0  0  0  0  0  0  0  0
    8.1418  -12.5709   21.0159 C   0  0  0  0  0  0  0  0  0  0  0  0
    8.3651  -14.5998   19.5190 C   0  0  2  0  0  0  0  0  0  0  0  0
    7.7168  -15.1746   18.3323 N   0  0  0  0  0  0  0  0  0  0  0  0
    8.4935  -15.5913   20.5825 C   0  0  0  0  0  0  0  0  0  0  0  0
    7.4240  -16.2296   20.8986 O   0  0  0  0  0  0  0  0  0  0  0  0
    9.9758  -18.8236   20.8012 C   0  0  0  0  0  0  0  0  0  0  0  0
   10.4992  -18.0987   22.0231 C   0  0  1  0  0  0  0  0  0  0  0  0
   11.7961  -17.7298   21.7710 O   0  0  0  0  0  0  0  0  0  0  0  0
    9.6097  -16.9169   22.3612 C   0  0  2  0  0  0  0  0  0  0  0  0
    9.6608  -15.9337   21.3048 N   0  0  0  0  0  0  0  0  0  0  0  0
    9.9565  -16.4200   23.6938 C   0  0  0  0  0  0  0  0  0  0  0  0
   10.7655  -15.4479   23.7674 O   0  0  0  0  0  0  0  0  0  0  0  0
    9.4692  -16.9279   24.9152 N   0  0  0  0  0  0  0  0  0  0  0  0
    9.9739  -16.4509   26.2105 C   0  0  1  0  0  0  0  0  0  0  0  0
    8.8729  -16.3482   27.2192 C   0  0  0  0  0  0  0  0  0  0  0  0
    7.8077  -15.4675   26.6897 C   0  0  0  0  0  0  0  0  0  0  0  0
    6.6437  -15.8974   26.0496 C   0  0  0  0  0  0  0  0  0  0  0  0
    5.9156  -14.8196   25.7109 N   0  0  0  0  0  0  0  0  0  0  0  0
    6.5370  -13.6842   26.0941 C   0  0  0  0  0  0  0  0  0  0  0  0
    6.1973  -12.3566   25.9729 C   0  0  0  0  0  0  0  0  0  0  0  0
    7.0688  -11.4083   26.4797 C   0  0  0  0  0  0  0  0  0  0  0  0
    8.2367  -11.8148   27.0834 C   0  0  0  0  0  0  0  0  0  0  0  0
    8.5774  -13.1369   27.2055 C   0  0  0  0  0  0  0  0  0  0  0  0
    7.7174  -14.1020   26.7041 C   0  0  0  0  0  0  0  0  0  0  0  0
   11.0481  -17.4007   26.6630 C   0  0  0  0  0  0  0  0  0  0  0  0
   11.9152  -17.0676   27.6784 O   0  0  0  0  0  0  0  0  0  0  0  0
   11.1814  -18.5322   26.1199 O   0  0  0  0  0  0  0  0  0  0  0  0
  2  1  1  6
  2  3  1  0
  4  2  1  0
  4  5  1  6
  6  4  1  0
  7  6  2  0
  9 11  1  0
  9  8  1  6
 10  9  1  0
 11 12  1  6
 12  6  1  0
 13 15  1  0
 13 11  1  0
 14 13  2  0
 16 15  1  0
 16 17  1  1
 17 18  1  0
 18 26  1  0
 18 19  2  0
 19 20  1  0
 21 20  1  0
 21 22  2  0
 23 22  1  0
 24 23  2  0
 25 26  2  0
 25 24  1  0
 26 21  1  0
 27 28  1  0
 27 16  1  0
 29 27  2  0
M  END
$$$$
