VTW.pdb
     RDKit          3D

 29 30  0  0  1  0  0  0  0  0999 V2000
    7.1249  -12.4059   19.5795 C   0  0  0  0  0  0  0  0  0  0  0  0
    7.3429  -13.2623   20.8472 C   0  0  2  0  0  0  0  0  0  0  0  0
    8.2622  -12.4334   21.7131 C   0  0  0  0  0  0  0  0  0  0  0  0
    7.9098  -14.5491   20.3690 C   0  0  2  0  0  0  0  0  0  0  0  0
    6.9397  -15.0912   19.4076 N   0  0  0  0  0  0  0  0  0  0  0  0
    8.2614  -15.5413   21.3801 C   0  0  0  0  0  0  0  0  0  0  0  0
    7.2882  -16.2160   21.8789 O   0  0  0  0  0  0  0  0  0  0  0  0
   10.8524  -18.9405   23.5773 C   0  0  0  0  0  0  0  0  0  0  0  0
   10.7827  -17.8325   22.5478 C   0  0  1  0  0  0  0  0  0  0  0  0
   10.5473  -18.4076   21.3248 O   0  0  0  0  0  0  0  0  0  0  0  0
    9.7221  -16.8173   22.9310 C   0  0  2  0  0  0  0  0  0  0  0  0
    9.5512  -15.8488   21.8735 N   0  0  0  0  0  0  0  0  0  0  0  0
   10.0452  -16.2572   24.2443 C   0  0  0  0  0  0  0  0  0  0  0  0
   10.8376  -15.2696   24.2843 O   0  0  0  0  0  0  0  0  0  0  0  0
    9.5517  -16.7194   25.4813 N   0  0  0  0  0  0  0  0  0  0  0  0
   10.2204  -16.4020   26.7509 C   0  0  1  0  0  0  0  0  0  0  0  0
    9.3630  -15.5307   27.6147 C   0  0  0  0  0  0  0  0  0  0  0  0
    8.1532  -15.1354   26.8592 C   0  0  0  0  0  0  0  0  0  0  0  0
    7.2071  -16.0131   26.3262 C   0  0  0  0  0  0  0  0  0  0  0  0
    6.2515  -15.2948   25.7119 N   0  0  0  0  0  0  0  0  0  0  0  0
    6.5118  -13.9738   25.8074 C   0  0  0  0  0  0  0  0  0  0  0  0
    5.8432  -12.8627   25.3480 C   0  0  0  0  0  0  0  0  0  0  0  0
    6.3824  -11.6163   25.6152 C   0  0  0  0  0  0  0  0  0  0  0  0
    7.5580  -11.5242   26.3246 C   0  0  0  0  0  0  0  0  0  0  0  0
    8.2260  -12.6296   26.7836 C   0  0  0  0  0  0  0  0  0  0  0  0
    7.7019  -13.8871   26.5260 C   0  0  0  0  0  0  0  0  0  0  0  0
   10.5498  -17.7003   27.4339 C   0  0  0  0  0  0  0  0  0  0  0  0
   10.0906  -18.9018   26.9446 O   0  0  0  0  0  0  0  0  0  0  0  0
   11.2590  -17.7200   28.4778 O   0  0  0  0  0  0  0  0  0  0  0  0
  2  1  1  6
  2  3  1  0
  4  2  1  0
  4  5  1  6
  6  4  1  0
  7  6  2  0
  9 11  1  0
  9  8  1  1
 10  9  1  0
 11 12  1  6
 12  6  1  0
 13 15  1  0
 13 11  1  0
 14 13  2  0
 16 15  1  0
 16 17  1  1
 17 18  1  0
 18 26  1  0
 18 19  2  0
 19 20  1  0
 21 20  1  0
 21 22  2  0
 23 22  1  0
 24 23  2  0
 25 26  2  0
 25 24  1  0
 26 21  1  0
 27 28  1  0
 27 16  1  0
 29 27  2  0
M  END
$$$$
