VTW.pdb
     RDKit          3D

 29 30  0  0  1  0  0  0  0  0999 V2000
    7.6057  -12.8573   20.7255 C   0  0  0  0  0  0  0  0  0  0  0  0
    8.6933  -13.1946   19.6807 C   0  0  2  0  0  0  0  0  0  0  0  0
    8.4626  -12.2091   18.5593 C   0  0  0  0  0  0  0  0  0  0  0  0
    8.4799  -14.6212   19.3266 C   0  0  2  0  0  0  0  0  0  0  0  0
    7.2440  -14.6651   18.5331 N   0  0  0  0  0  0  0  0  0  0  0  0
    8.4369  -15.5829   20.4238 C   0  0  0  0  0  0  0  0  0  0  0  0
    7.2861  -15.7869   20.9578 O   0  0  0  0  0  0  0  0  0  0  0  0
    9.0601  -19.2019   20.7628 C   0  0  0  0  0  0  0  0  0  0  0  0
    9.8427  -18.5471   21.8814 C   0  0  1  0  0  0  0  0  0  0  0  0
   11.1701  -18.5697   21.5365 O   0  0  0  0  0  0  0  0  0  0  0  0
    9.3284  -17.1428   22.1381 C   0  0  2  0  0  0  0  0  0  0  0  0
    9.5159  -16.3193   20.9667 N   0  0  0  0  0  0  0  0  0  0  0  0
    9.9330  -16.6267   23.3673 C   0  0  0  0  0  0  0  0  0  0  0  0
   10.9596  -15.8929   23.2552 O   0  0  0  0  0  0  0  0  0  0  0  0
    9.4746  -16.8730   24.6775 N   0  0  0  0  0  0  0  0  0  0  0  0
   10.2477  -16.4660   25.8593 C   0  0  1  0  0  0  0  0  0  0  0  0
    9.9343  -15.0573   26.2561 C   0  0  0  0  0  0  0  0  0  0  0  0
    8.4784  -14.8263   26.1234 C   0  0  0  0  0  0  0  0  0  0  0  0
    7.5155  -15.8165   25.9186 C   0  0  0  0  0  0  0  0  0  0  0  0
    6.3064  -15.2336   25.8504 N   0  0  0  0  0  0  0  0  0  0  0  0
    6.4120  -13.8963   26.0000 C   0  0  0  0  0  0  0  0  0  0  0  0
    5.4759  -12.8882   26.0040 C   0  0  0  0  0  0  0  0  0  0  0  0
    5.9141  -11.5877   26.1841 C   0  0  0  0  0  0  0  0  0  0  0  0
    7.2577  -11.3422   26.3521 C   0  0  0  0  0  0  0  0  0  0  0  0
    8.1924  -12.3448   26.3486 C   0  0  0  0  0  0  0  0  0  0  0  0
    7.7733  -13.6543   26.1697 C   0  0  0  0  0  0  0  0  0  0  0  0
    9.9352  -17.4325   26.9679 C   0  0  0  0  0  0  0  0  0  0  0  0
   10.6022  -17.3805   28.1705 O   0  0  0  0  0  0  0  0  0  0  0  0
    9.0493  -18.3195   26.8217 O   0  0  0  0  0  0  0  0  0  0  0  0
  2  1  1  1
  2  3  1  0
  4  2  1  0
  4  5  1  1
  6  4  1  0
  7  6  2  0
  9 11  1  0
  9  8  1  6
 10  9  1  0
 11 12  1  6
 12  6  1  0
 13 15  1  0
 13 11  1  0
 14 13  2  0
 16 15  1  0
 16 17  1  1
 17 18  1  0
 18 26  1  0
 18 19  2  0
 19 20  1  0
 21 20  1  0
 21 22  2  0
 23 22  1  0
 24 23  2  0
 25 26  2  0
 25 24  1  0
 26 21  1  0
 27 28  1  0
 27 16  1  0
 29 27  2  0
M  END
$$$$
