VTW.pdb
     RDKit          3D

 29 30  0  0  1  0  0  0  0  0999 V2000
    7.2809  -14.7711   18.6739 C   0  0  0  0  0  0  0  0  0  0  0  0
    7.5705  -13.4273   19.3798 C   0  0  2  0  0  0  0  0  0  0  0  0
    7.7747  -12.4418   18.2533 C   0  0  0  0  0  0  0  0  0  0  0  0
    8.7610  -13.6716   20.2336 C   0  0  2  0  0  0  0  0  0  0  0  0
    9.8869  -13.8853   19.3140 N   0  0  0  0  0  0  0  0  0  0  0  0
    8.6698  -14.7482   21.2151 C   0  0  0  0  0  0  0  0  0  0  0  0
    7.7120  -14.6626   22.0674 O   0  0  0  0  0  0  0  0  0  0  0  0
    9.2284  -18.7803   20.7825 C   0  0  0  0  0  0  0  0  0  0  0  0
    9.9222  -18.1828   21.9883 C   0  0  1  0  0  0  0  0  0  0  0  0
   11.2552  -18.0588   21.6891 O   0  0  0  0  0  0  0  0  0  0  0  0
    9.2822  -16.8606   22.3683 C   0  0  2  0  0  0  0  0  0  0  0  0
    9.5130  -15.8778   21.3356 N   0  0  0  0  0  0  0  0  0  0  0  0
    9.7317  -16.4763   23.7074 C   0  0  0  0  0  0  0  0  0  0  0  0
   10.7104  -15.6764   23.7929 O   0  0  0  0  0  0  0  0  0  0  0  0
    9.1712  -16.9182   24.9231 N   0  0  0  0  0  0  0  0  0  0  0  0
    9.7965  -16.6203   26.2194 C   0  0  1  0  0  0  0  0  0  0  0  0
    8.7665  -16.4095   27.2848 C   0  0  0  0  0  0  0  0  0  0  0  0
    7.7399  -15.4651   26.7898 C   0  0  0  0  0  0  0  0  0  0  0  0
    6.5335  -15.8228   26.1848 C   0  0  0  0  0  0  0  0  0  0  0  0
    5.8607  -14.7025   25.8706 N   0  0  0  0  0  0  0  0  0  0  0  0
    6.5598  -13.6074   26.2368 C   0  0  0  0  0  0  0  0  0  0  0  0
    6.2960  -12.2615   26.1287 C   0  0  0  0  0  0  0  0  0  0  0  0
    7.2373  -11.3685   26.6104 C   0  0  0  0  0  0  0  0  0  0  0  0
    8.3969  -11.8458   27.1773 C   0  0  0  0  0  0  0  0  0  0  0  0
    8.6620  -13.1863   27.2863 C   0  0  0  0  0  0  0  0  0  0  0  0
    7.7314  -14.0968   26.8096 C   0  0  0  0  0  0  0  0  0  0  0  0
   10.7147  -17.7612   26.5596 C   0  0  0  0  0  0  0  0  0  0  0  0
   11.5941  -17.6805   27.6151 O   0  0  0  0  0  0  0  0  0  0  0  0
   10.7013  -18.8260   25.8822 O   0  0  0  0  0  0  0  0  0  0  0  0
  2  1  1  6
  2  3  1  0
  4  2  1  0
  4  5  1  6
  6  4  1  0
  7  6  2  0
  9 11  1  0
  9  8  1  6
 10  9  1  0
 11 12  1  6
 12  6  1  0
 13 15  1  0
 13 11  1  0
 14 13  2  0
 16 15  1  0
 16 17  1  1
 17 18  1  0
 18 26  1  0
 18 19  2  0
 19 20  1  0
 21 20  1  0
 21 22  2  0
 23 22  1  0
 24 23  2  0
 25 26  2  0
 25 24  1  0
 26 21  1  0
 27 28  1  0
 27 16  1  0
 29 27  2  0
M  END
$$$$
