VTW.pdb
     RDKit          3D

 29 30  0  0  1  0  0  0  0  0999 V2000
    6.9460  -13.3146   21.1665 C   0  0  0  0  0  0  0  0  0  0  0  0
    8.2326  -13.1802   20.3212 C   0  0  2  0  0  0  0  0  0  0  0  0
    7.8976  -12.1369   19.2814 C   0  0  0  0  0  0  0  0  0  0  0  0
    8.5076  -14.5401   19.7910 C   0  0  2  0  0  0  0  0  0  0  0  0
    7.4001  -14.8547   18.8780 N   0  0  0  0  0  0  0  0  0  0  0  0
    8.7086  -15.6089   20.7646 C   0  0  0  0  0  0  0  0  0  0  0  0
    7.6665  -16.2865   21.0900 O   0  0  0  0  0  0  0  0  0  0  0  0
   10.8623  -19.2899   22.9255 C   0  0  0  0  0  0  0  0  0  0  0  0
   10.9605  -18.0985   21.9962 C   0  0  1  0  0  0  0  0  0  0  0  0
   10.8002  -18.5518   20.7114 O   0  0  0  0  0  0  0  0  0  0  0  0
    9.9389  -17.0429   22.3761 C   0  0  2  0  0  0  0  0  0  0  0  0
    9.9195  -15.9876   21.3904 N   0  0  0  0  0  0  0  0  0  0  0  0
   10.1863  -16.6076   23.7518 C   0  0  0  0  0  0  0  0  0  0  0  0
   11.0332  -15.6832   23.9333 O   0  0  0  0  0  0  0  0  0  0  0  0
    9.5636  -17.1271   24.9049 N   0  0  0  0  0  0  0  0  0  0  0  0
    9.8946  -16.6401   26.2515 C   0  0  1  0  0  0  0  0  0  0  0  0
    8.6807  -16.5901   27.1258 C   0  0  0  0  0  0  0  0  0  0  0  0
    7.6993  -15.6476   26.5432 C   0  0  0  0  0  0  0  0  0  0  0  0
    6.5194  -16.0071   25.8891 C   0  0  0  0  0  0  0  0  0  0  0  0
    5.8852  -14.8881   25.4992 N   0  0  0  0  0  0  0  0  0  0  0  0
    6.5850  -13.7921   25.8613 C   0  0  0  0  0  0  0  0  0  0  0  0
    6.3529  -12.4469   25.6902 C   0  0  0  0  0  0  0  0  0  0  0  0
    7.2847  -11.5526   26.1878 C   0  0  0  0  0  0  0  0  0  0  0  0
    8.4040  -12.0281   26.8320 C   0  0  0  0  0  0  0  0  0  0  0  0
    8.6376  -13.3678   27.0038 C   0  0  0  0  0  0  0  0  0  0  0  0
    7.7158  -14.2796   26.5124 C   0  0  0  0  0  0  0  0  0  0  0  0
   10.9473  -17.5489   26.8229 C   0  0  0  0  0  0  0  0  0  0  0  0
   11.7075  -17.1698   27.9056 O   0  0  0  0  0  0  0  0  0  0  0  0
   11.1606  -18.6871   26.3209 O   0  0  0  0  0  0  0  0  0  0  0  0
  2  1  1  1
  2  3  1  0
  4  2  1  0
  4  5  1  6
  6  4  1  0
  7  6  2  0
  9 11  1  0
  9  8  1  1
 10  9  1  0
 11 12  1  6
 12  6  1  0
 13 15  1  0
 13 11  1  0
 14 13  2  0
 16 15  1  0
 16 17  1  1
 17 18  1  0
 18 26  1  0
 18 19  2  0
 19 20  1  0
 21 20  1  0
 21 22  2  0
 23 22  1  0
 24 23  2  0
 25 26  2  0
 25 24  1  0
 26 21  1  0
 27 28  1  0
 27 16  1  0
 29 27  2  0
M  END
$$$$
