VTW.pdb
     RDKit          3D

 29 30  0  0  1  0  0  0  0  0999 V2000
    7.1725  -13.0741   20.8769 C   0  0  0  0  0  0  0  0  0  0  0  0
    8.4572  -13.0616   20.0181 C   0  0  2  0  0  0  0  0  0  0  0  0
    8.1726  -12.0623   18.9217 C   0  0  0  0  0  0  0  0  0  0  0  0
    8.6504  -14.4631   19.5658 C   0  0  2  0  0  0  0  0  0  0  0  0
    7.6111  -14.7144   18.5579 N   0  0  0  0  0  0  0  0  0  0  0  0
    8.6531  -15.5019   20.5912 C   0  0  0  0  0  0  0  0  0  0  0  0
    7.5061  -15.9734   20.9277 O   0  0  0  0  0  0  0  0  0  0  0  0
    9.6900  -18.9745   20.8063 C   0  0  0  0  0  0  0  0  0  0  0  0
   10.3211  -18.2990   22.0053 C   0  0  1  0  0  0  0  0  0  0  0  0
   11.6510  -18.1069   21.7294 O   0  0  0  0  0  0  0  0  0  0  0  0
    9.5974  -17.0049   22.3279 C   0  0  2  0  0  0  0  0  0  0  0  0
    9.7735  -16.0526   21.2566 N   0  0  0  0  0  0  0  0  0  0  0  0
   10.0131  -16.5389   23.6519 C   0  0  0  0  0  0  0  0  0  0  0  0
   10.8732  -15.6103   23.7059 O   0  0  0  0  0  0  0  0  0  0  0  0
    9.5407  -17.0325   24.8850 N   0  0  0  0  0  0  0  0  0  0  0  0
    9.9737  -16.4597   26.1673 C   0  0  1  0  0  0  0  0  0  0  0  0
    8.8291  -16.3404   27.1243 C   0  0  0  0  0  0  0  0  0  0  0  0
    7.7713  -15.5023   26.5166 C   0  0  0  0  0  0  0  0  0  0  0  0
    6.6198  -15.9797   25.8877 C   0  0  0  0  0  0  0  0  0  0  0  0
    5.8952  -14.9306   25.4625 N   0  0  0  0  0  0  0  0  0  0  0  0
    6.5071  -13.7692   25.7766 C   0  0  0  0  0  0  0  0  0  0  0  0
    6.1665  -12.4544   25.5578 C   0  0  0  0  0  0  0  0  0  0  0  0
    7.0267  -11.4701   26.0125 C   0  0  0  0  0  0  0  0  0  0  0  0
    8.1848  -11.8296   26.6632 C   0  0  0  0  0  0  0  0  0  0  0  0
    8.5264  -13.1388   26.8826 C   0  0  0  0  0  0  0  0  0  0  0  0
    7.6776  -14.1395   26.4346 C   0  0  0  0  0  0  0  0  0  0  0  0
   11.0627  -17.3378   26.7184 C   0  0  0  0  0  0  0  0  0  0  0  0
   11.4498  -18.4884   26.0700 O   0  0  0  0  0  0  0  0  0  0  0  0
   11.6511  -17.0398   27.7944 O   0  0  0  0  0  0  0  0  0  0  0  0
  2  1  1  1
  2  3  1  0
  4  2  1  0
  4  5  1  6
  6  4  1  0
  7  6  2  0
  9 11  1  0
  9  8  1  6
 10  9  1  0
 11 12  1  6
 12  6  1  0
 13 15  1  0
 13 11  1  0
 14 13  2  0
 16 15  1  0
 16 17  1  1
 17 18  1  0
 18 26  1  0
 18 19  2  0
 19 20  1  0
 21 20  1  0
 21 22  2  0
 23 22  1  0
 24 23  2  0
 25 26  2  0
 25 24  1  0
 26 21  1  0
 27 28  1  0
 27 16  1  0
 29 27  2  0
M  END
$$$$
