VTW.pdb
     RDKit          3D

 29 30  0  0  1  0  0  0  0  0999 V2000
    8.2448  -12.2573   18.3971 C   0  0  0  0  0  0  0  0  0  0  0  0
    7.9213  -13.1475   19.6181 C   0  0  2  0  0  0  0  0  0  0  0  0
    8.5580  -12.4350   20.7881 C   0  0  0  0  0  0  0  0  0  0  0  0
    8.4894  -14.4830   19.3022 C   0  0  2  0  0  0  0  0  0  0  0  0
    7.7639  -14.9665   18.1194 N   0  0  0  0  0  0  0  0  0  0  0  0
    8.4849  -15.4803   20.3680 C   0  0  0  0  0  0  0  0  0  0  0  0
    7.3387  -15.9611   20.6937 O   0  0  0  0  0  0  0  0  0  0  0  0
    9.3872  -18.8894   20.6004 C   0  0  0  0  0  0  0  0  0  0  0  0
   10.0771  -18.2568   21.7904 C   0  0  1  0  0  0  0  0  0  0  0  0
   11.4060  -18.1152   21.4810 O   0  0  0  0  0  0  0  0  0  0  0  0
    9.4159  -16.9391   22.1491 C   0  0  2  0  0  0  0  0  0  0  0  0
    9.5978  -15.9816   21.0833 N   0  0  0  0  0  0  0  0  0  0  0  0
    9.8895  -16.5061   23.4648 C   0  0  0  0  0  0  0  0  0  0  0  0
   10.8147  -15.6415   23.5022 O   0  0  0  0  0  0  0  0  0  0  0  0
    9.4071  -16.9666   24.7068 N   0  0  0  0  0  0  0  0  0  0  0  0
    9.9560  -16.4811   25.9807 C   0  0  1  0  0  0  0  0  0  0  0  0
    8.8969  -16.4040   27.0356 C   0  0  0  0  0  0  0  0  0  0  0  0
    7.7755  -15.5746   26.5403 C   0  0  0  0  0  0  0  0  0  0  0  0
    6.6075  -16.0599   25.9488 C   0  0  0  0  0  0  0  0  0  0  0  0
    5.8215  -15.0174   25.6296 N   0  0  0  0  0  0  0  0  0  0  0  0
    6.4076  -13.8529   25.9795 C   0  0  0  0  0  0  0  0  0  0  0  0
    6.0069  -12.5422   25.8609 C   0  0  0  0  0  0  0  0  0  0  0  0
    6.8555  -11.5528   26.3263 C   0  0  0  0  0  0  0  0  0  0  0  0
    8.0619  -11.9033   26.8880 C   0  0  0  0  0  0  0  0  0  0  0  0
    8.4635  -13.2085   27.0074 C   0  0  0  0  0  0  0  0  0  0  0  0
    7.6273  -14.2142   26.5472 C   0  0  0  0  0  0  0  0  0  0  0  0
   11.0687  -17.4081   26.3847 C   0  0  0  0  0  0  0  0  0  0  0  0
   12.0283  -17.0201   27.2916 O   0  0  0  0  0  0  0  0  0  0  0  0
   11.1501  -18.5703   25.8995 O   0  0  0  0  0  0  0  0  0  0  0  0
  2  1  1  6
  2  3  1  0
  4  2  1  0
  4  5  1  6
  6  4  1  0
  7  6  2  0
  9 11  1  0
  9  8  1  6
 10  9  1  0
 11 12  1  6
 12  6  1  0
 13 15  1  0
 13 11  1  0
 14 13  2  0
 16 15  1  0
 16 17  1  1
 17 18  1  0
 18 26  1  0
 18 19  2  0
 19 20  1  0
 21 20  1  0
 21 22  2  0
 23 22  1  0
 24 23  2  0
 25 26  2  0
 25 24  1  0
 26 21  1  0
 27 28  1  0
 27 16  1  0
 29 27  2  0
M  END
$$$$
