RNL.pdb
     RDKit          3D

 28 27  0  0  1  0  0  0  0  0999 V2000
    9.8847  -12.7181   19.5437 N   0  0  0  0  0  0  0  0  0  0  0  0
    8.8292  -13.0269   18.6317 C   0  0  0  0  0  0  0  0  0  0  0  0
    9.0199  -12.8622   17.3691 N   0  0  0  0  0  0  0  0  0  0  0  0
    7.5753  -13.5094   19.0689 N   0  0  0  0  0  0  0  0  0  0  0  0
    7.2933  -13.7236   20.4990 C   0  0  0  0  0  0  0  0  0  0  0  0
    7.9666  -15.0108   20.8881 C   0  0  0  0  0  0  0  0  0  0  0  0
    7.2004  -16.2520   20.6330 C   0  0  0  0  0  0  0  0  0  0  0  0
    7.8454  -17.5420   20.9989 C   0  0  2  0  0  0  0  0  0  0  0  0
    6.9955  -18.6386   20.5917 N   0  0  0  0  0  0  0  0  0  0  0  0
    8.1691  -17.6247   22.4539 C   0  0  0  0  0  0  0  0  0  0  0  0
    7.2309  -17.9293   23.2303 O   0  0  0  0  0  0  0  0  0  0  0  0
    8.2701  -13.0384   16.6708 N   0  0  0  0  0  0  0  0  0  0  0  0
   11.5751  -20.3201   23.3054 C   0  0  0  0  0  0  0  0  0  0  0  0
   10.8091  -19.6788   24.2878 O   0  0  0  0  0  0  0  0  0  0  0  0
    9.9312  -20.3886   24.8713 C   0  0  0  0  0  0  0  0  0  0  0  0
   10.9380  -18.2780   24.6889 C   0  0  2  0  0  0  0  0  0  0  0  0
    9.7371  -17.4369   24.3615 N   0  0  0  0  0  0  0  0  0  0  0  0
    9.4754  -17.3733   22.9576 C   0  0  0  0  0  0  0  0  0  0  0  0
    9.8067  -16.0942   24.9975 O   0  0  0  0  0  0  0  0  0  0  0  0
   10.7584  -15.3110   24.7510 C   0  0  0  0  0  0  0  0  0  0  0  0
    5.8412  -12.3578   26.1111 C   0  0  1  0  0  0  0  0  0  0  0  0
    7.1384  -13.0831   25.8633 C   0  0  0  0  0  0  0  0  0  0  0  0
    8.0536  -12.2214   25.0283 C   0  0  0  0  0  0  0  0  0  0  0  0
    7.7555  -13.7172   27.0292 C   0  0  2  0  0  0  0  0  0  0  0  0
    8.9822  -14.5427   26.8406 N   0  0  0  0  0  0  0  0  0  0  0  0
    8.8267  -15.6304   25.8973 C   0  0  0  0  0  0  0  0  0  0  0  0
    9.7168  -14.8849   28.0487 O   0  0  0  0  0  0  0  0  0  0  0  0
   10.4356  -14.0244   28.8650 O   0  0  0  0  0  0  0  0  0  0  0  0
  1  2  1  0
  2  4  1  0
  3  2  2  0
  4  5  1  0
  5  6  1  0
  7  6  1  0
  8  9  1  1
  8  7  1  0
 10  8  1  0
 10 11  2  0
 13 12  1  0
 13 15  1  0
 14 13  2  0
 16 15  1  1
 16 17  1  0
 16 18  1  0
 17 10  1  0
 18 25  1  0
 19 18  2  0
 21 20  1  6
 21 23  1  0
 22 21  1  0
 24 23  1  6
 24 26  1  0
 25 24  1  0
 26 28  2  0
 26 27  1  0
M  END
$$$$
