RNL.pdb
     RDKit          3D

 28 27  0  0  1  0  0  0  0  0999 V2000
    8.2933  -13.1837   17.3153 N   0  0  0  0  0  0  0  0  0  0  0  0
    8.7184  -14.4233   16.7462 C   0  0  0  0  0  0  0  0  0  0  0  0
    9.6990  -14.4296   15.9120 N   0  0  0  0  0  0  0  0  0  0  0  0
    8.0966  -15.6505   17.0681 N   0  0  0  0  0  0  0  0  0  0  0  0
    6.8442  -15.6946   17.8427 C   0  0  0  0  0  0  0  0  0  0  0  0
    6.6681  -17.1143   18.3064 C   0  0  0  0  0  0  0  0  0  0  0  0
    7.6644  -17.6111   19.2828 C   0  0  0  0  0  0  0  0  0  0  0  0
    7.5274  -17.1552   20.6925 C   0  0  2  0  0  0  0  0  0  0  0  0
    6.6821  -15.9831   20.7403 N   0  0  0  0  0  0  0  0  0  0  0  0
    8.8479  -16.8920   21.3373 C   0  0  0  0  0  0  0  0  0  0  0  0
    9.6307  -17.8666   21.4522 O   0  0  0  0  0  0  0  0  0  0  0  0
   10.0214  -15.3017   15.4469 N   0  0  0  0  0  0  0  0  0  0  0  0
   11.4250  -13.4638   19.6168 C   0  0  0  0  0  0  0  0  0  0  0  0
   11.6941  -14.3649   20.6555 O   0  0  0  0  0  0  0  0  0  0  0  0
   12.4037  -15.3757   20.3558 C   0  0  0  0  0  0  0  0  0  0  0  0
   11.2298  -14.2360   22.0366 C   0  0  2  0  0  0  0  0  0  0  0  0
   10.4414  -15.4167   22.5277 N   0  0  0  0  0  0  0  0  0  0  0  0
    9.2209  -15.6022   21.8070 C   0  0  0  0  0  0  0  0  0  0  0  0
   10.2423  -15.3804   24.0012 O   0  0  0  0  0  0  0  0  0  0  0  0
   11.2236  -15.3244   24.7846 C   0  0  0  0  0  0  0  0  0  0  0  0
    5.9311  -12.6664   26.1444 C   0  0  1  0  0  0  0  0  0  0  0  0
    7.3122  -13.2574   26.0288 C   0  0  0  0  0  0  0  0  0  0  0  0
    8.3198  -12.3275   26.6592 C   0  0  0  0  0  0  0  0  0  0  0  0
    7.4415  -14.6698   26.3905 C   0  0  2  0  0  0  0  0  0  0  0  0
    8.6833  -15.4033   26.0144 N   0  0  0  0  0  0  0  0  0  0  0  0
    8.9643  -15.4059   24.5937 C   0  0  0  0  0  0  0  0  0  0  0  0
    8.9017  -16.6781   26.6805 O   0  0  0  0  0  0  0  0  0  0  0  0
    9.2802  -16.8809   27.9992 O   0  0  0  0  0  0  0  0  0  0  0  0
  1  2  1  0
  2  4  1  0
  3  2  2  0
  4  5  1  0
  5  6  1  0
  7  6  1  0
  8  9  1  6
  8  7  1  0
 10  8  1  0
 10 11  2  0
 13 12  1  0
 13 15  1  0
 14 13  2  0
 16 15  1  6
 16 17  1  0
 16 18  1  0
 17 10  1  0
 18 25  1  0
 19 18  2  0
 21 20  1  6
 21 23  1  0
 22 21  1  0
 24 23  1  1
 24 26  1  0
 25 24  1  0
 26 28  2  0
 26 27  1  0
M  END
$$$$
