RNL.pdb
     RDKit          3D

 28 27  0  0  1  0  0  0  0  0999 V2000
    9.0177  -14.8788   17.4708 N   0  0  0  0  0  0  0  0  0  0  0  0
    8.3420  -13.6256   17.3510 C   0  0  0  0  0  0  0  0  0  0  0  0
    8.0873  -13.1572   16.1792 N   0  0  0  0  0  0  0  0  0  0  0  0
    7.9411  -12.8770   18.4802 N   0  0  0  0  0  0  0  0  0  0  0  0
    8.0940  -13.4090   19.8455 C   0  0  0  0  0  0  0  0  0  0  0  0
    7.0927  -14.5211   19.9947 C   0  0  0  0  0  0  0  0  0  0  0  0
    7.0340  -15.1736   21.3228 C   0  0  0  0  0  0  0  0  0  0  0  0
    7.3981  -16.6146   21.3941 C   0  0  2  0  0  0  0  0  0  0  0  0
    6.2205  -17.4214   21.1633 N   0  0  0  0  0  0  0  0  0  0  0  0
    8.0506  -16.9742   22.6878 C   0  0  0  0  0  0  0  0  0  0  0  0
    7.2949  -17.1960   23.6653 O   0  0  0  0  0  0  0  0  0  0  0  0
    7.6628  -12.2183   16.0411 N   0  0  0  0  0  0  0  0  0  0  0  0
   11.1888  -18.6166   26.4565 C   0  0  0  0  0  0  0  0  0  0  0  0
   11.8424  -18.6867   25.2192 O   0  0  0  0  0  0  0  0  0  0  0  0
   12.9719  -19.2692   25.2099 C   0  0  0  0  0  0  0  0  0  0  0  0
   11.3352  -18.1505   23.9562 C   0  0  2  0  0  0  0  0  0  0  0  0
   10.0491  -17.3858   24.0911 N   0  0  0  0  0  0  0  0  0  0  0  0
    9.4632  -17.0664   22.8269 C   0  0  0  0  0  0  0  0  0  0  0  0
   10.1961  -16.1994   24.9759 O   0  0  0  0  0  0  0  0  0  0  0  0
   11.0899  -15.3416   24.7634 C   0  0  0  0  0  0  0  0  0  0  0  0
    6.4242  -12.7859   25.8806 C   0  0  1  0  0  0  0  0  0  0  0  0
    7.8638  -13.2270   25.9348 C   0  0  0  0  0  0  0  0  0  0  0  0
    8.7668  -12.0647   25.6012 C   0  0  0  0  0  0  0  0  0  0  0  0
    8.2532  -14.0152   27.1050 C   0  0  2  0  0  0  0  0  0  0  0  0
    9.4659  -14.8783   27.0266 N   0  0  0  0  0  0  0  0  0  0  0  0
    9.3562  -15.9723   26.0841 C   0  0  0  0  0  0  0  0  0  0  0  0
   10.0877  -15.2271   28.2947 O   0  0  0  0  0  0  0  0  0  0  0  0
   10.5076  -16.4836   28.7050 O   0  0  0  0  0  0  0  0  0  0  0  0
  1  2  1  0
  2  4  1  0
  3  2  2  0
  4  5  1  0
  5  6  1  0
  7  6  1  0
  8  9  1  1
  8  7  1  0
 10  8  1  0
 10 11  2  0
 13 12  1  0
 13 15  1  0
 14 13  2  0
 16 15  1  1
 16 17  1  0
 16 18  1  0
 17 10  1  0
 18 25  1  0
 19 18  2  0
 21 20  1  6
 21 23  1  0
 22 21  1  0
 24 23  1  6
 24 26  1  0
 25 24  1  0
 26 28  2  0
 26 27  1  0
M  END
$$$$
