RNL.pdb
     RDKit          3D

 28 27  0  0  1  0  0  0  0  0999 V2000
    7.9118  -12.9344   14.3311 N   0  0  0  0  0  0  0  0  0  0  0  0
    8.6161  -14.0533   14.8726 C   0  0  0  0  0  0  0  0  0  0  0  0
    9.3266  -14.7885   14.0902 N   0  0  0  0  0  0  0  0  0  0  0  0
    8.5601  -14.3840   16.2451 N   0  0  0  0  0  0  0  0  0  0  0  0
    7.4083  -15.1066   16.8124 C   0  0  0  0  0  0  0  0  0  0  0  0
    7.7305  -15.3751   18.2566 C   0  0  0  0  0  0  0  0  0  0  0  0
    7.2387  -14.3757   19.2324 C   0  0  0  0  0  0  0  0  0  0  0  0
    8.1081  -14.0756   20.4020 C   0  0  2  0  0  0  0  0  0  0  0  0
    9.4760  -13.9222   19.9591 N   0  0  0  0  0  0  0  0  0  0  0  0
    8.0027  -15.1119   21.4714 C   0  0  0  0  0  0  0  0  0  0  0  0
    6.8694  -15.2930   21.9801 O   0  0  0  0  0  0  0  0  0  0  0  0
    9.8006  -15.6514   14.4244 N   0  0  0  0  0  0  0  0  0  0  0  0
   11.8110  -16.6684   22.3542 C   0  0  0  0  0  0  0  0  0  0  0  0
   11.1482  -17.8991   22.2578 O   0  0  0  0  0  0  0  0  0  0  0  0
   11.8439  -18.8849   21.8589 C   0  0  0  0  0  0  0  0  0  0  0  0
    9.7399  -18.1354   22.5753 C   0  0  1  0  0  0  0  0  0  0  0  0
    8.9705  -16.8870   22.9014 N   0  0  0  0  0  0  0  0  0  0  0  0
    9.1239  -15.8703   21.9083 C   0  0  0  0  0  0  0  0  0  0  0  0
    9.2570  -16.3989   24.2768 O   0  0  0  0  0  0  0  0  0  0  0  0
    9.3409  -17.1994   25.2422 C   0  0  0  0  0  0  0  0  0  0  0  0
    7.7833  -11.9799   27.3797 C   0  0  2  0  0  0  0  0  0  0  0  0
    6.9611  -12.9907   26.6232 C   0  0  0  0  0  0  0  0  0  0  0  0
    5.5951  -12.4205   26.3291 C   0  0  0  0  0  0  0  0  0  0  0  0
    7.6263  -13.6519   25.4994 C   0  0  1  0  0  0  0  0  0  0  0  0
    8.9322  -14.3326   25.7291 N   0  0  0  0  0  0  0  0  0  0  0  0
    9.4477  -15.0344   24.5720 C   0  0  0  0  0  0  0  0  0  0  0  0
    9.0684  -15.0504   26.9871 O   0  0  0  0  0  0  0  0  0  0  0  0
    9.5267  -16.3469   27.1673 O   0  0  0  0  0  0  0  0  0  0  0  0
  1  2  1  0
  2  4  1  0
  3  2  2  0
  4  5  1  0
  5  6  1  0
  7  6  1  0
  8  9  1  6
  8  7  1  0
 10  8  1  0
 10 11  2  0
 13 12  1  0
 13 15  1  0
 14 13  2  0
 16 15  1  6
 16 17  1  0
 16 18  1  0
 17 10  1  0
 18 25  1  0
 19 18  2  0
 21 20  1  1
 21 23  1  0
 22 21  1  0
 24 23  1  6
 24 26  1  0
 25 24  1  0
 26 28  2  0
 26 27  1  0
M  END
$$$$
