RNL.pdb
     RDKit          3D

 28 27  0  0  1  0  0  0  0  0999 V2000
    8.1253  -11.8666   18.8800 N   0  0  0  0  0  0  0  0  0  0  0  0
    7.9475  -13.1937   18.3815 C   0  0  0  0  0  0  0  0  0  0  0  0
    7.9548  -13.3946   17.1098 N   0  0  0  0  0  0  0  0  0  0  0  0
    7.7624  -14.3005   19.2398 N   0  0  0  0  0  0  0  0  0  0  0  0
    8.0840  -14.2188   20.6752 C   0  0  0  0  0  0  0  0  0  0  0  0
    6.8084  -14.4904   21.4240 C   0  0  0  0  0  0  0  0  0  0  0  0
    6.3731  -15.9046   21.4816 C   0  0  0  0  0  0  0  0  0  0  0  0
    7.3907  -16.9469   21.1783 C   0  0  2  0  0  0  0  0  0  0  0  0
    6.7286  -18.2057   20.9180 N   0  0  0  0  0  0  0  0  0  0  0  0
    8.4040  -17.0876   22.2656 C   0  0  0  0  0  0  0  0  0  0  0  0
    8.1061  -17.8347   23.2294 O   0  0  0  0  0  0  0  0  0  0  0  0
    7.8846  -14.3483   16.7020 N   0  0  0  0  0  0  0  0  0  0  0  0
   13.7429  -15.4069   24.5454 C   0  0  0  0  0  0  0  0  0  0  0  0
   13.0472  -16.3902   23.8294 O   0  0  0  0  0  0  0  0  0  0  0  0
   13.3604  -17.5965   24.0776 C   0  0  0  0  0  0  0  0  0  0  0  0
   12.0047  -16.1415   22.8339 C   0  0  2  0  0  0  0  0  0  0  0  0
   10.6580  -16.6901   23.2112 N   0  0  0  0  0  0  0  0  0  0  0  0
    9.6562  -16.4137   22.2296 C   0  0  0  0  0  0  0  0  0  0  0  0
   10.2526  -16.2790   24.5819 O   0  0  0  0  0  0  0  0  0  0  0  0
    9.8340  -17.1243   25.4127 C   0  0  0  0  0  0  0  0  0  0  0  0
    6.1522  -13.7314   26.7793 C   0  0  2  0  0  0  0  0  0  0  0  0
    7.3911  -12.9411   26.4468 C   0  0  0  0  0  0  0  0  0  0  0  0
    8.0072  -12.4005   27.7139 C   0  0  0  0  0  0  0  0  0  0  0  0
    8.3226  -13.5672   25.5072 C   0  0  2  0  0  0  0  0  0  0  0  0
    9.4796  -14.3406   26.0409 N   0  0  0  0  0  0  0  0  0  0  0  0
   10.3134  -14.9416   25.0208 C   0  0  0  0  0  0  0  0  0  0  0  0
    9.2059  -15.1959   27.1854 O   0  0  0  0  0  0  0  0  0  0  0  0
    9.7888  -15.1270   28.4420 O   0  0  0  0  0  0  0  0  0  0  0  0
  1  2  1  0
  2  4  1  0
  3  2  2  0
  4  5  1  0
  5  6  1  0
  7  6  1  0
  8  9  1  1
  8  7  1  0
 10  8  1  0
 10 11  2  0
 13 12  1  0
 13 15  1  0
 14 13  2  0
 16 15  1  6
 16 17  1  0
 16 18  1  0
 17 10  1  0
 18 25  1  0
 19 18  2  0
 21 20  1  6
 21 23  1  0
 22 21  1  0
 24 23  1  6
 24 26  1  0
 25 24  1  0
 26 28  2  0
 26 27  1  0
M  END
$$$$
