RNL.pdb
     RDKit          3D

 28 27  0  0  1  0  0  0  0  0999 V2000
    8.4100  -12.2721   17.2781 N   0  0  0  0  0  0  0  0  0  0  0  0
    8.5160  -12.4208   18.6952 C   0  0  0  0  0  0  0  0  0  0  0  0
    8.5912  -11.3696   19.4346 N   0  0  0  0  0  0  0  0  0  0  0  0
    8.5416  -13.6888   19.3179 N   0  0  0  0  0  0  0  0  0  0  0  0
    8.3460  -14.9266   18.5433 C   0  0  0  0  0  0  0  0  0  0  0  0
    7.1380  -15.6140   19.1177 C   0  0  0  0  0  0  0  0  0  0  0  0
    7.1723  -15.8880   20.5725 C   0  0  0  0  0  0  0  0  0  0  0  0
    8.3821  -16.5646   21.1133 C   0  0  2  0  0  0  0  0  0  0  0  0
    8.5882  -17.8142   20.4157 N   0  0  0  0  0  0  0  0  0  0  0  0
    8.3034  -16.7795   22.5886 C   0  0  0  0  0  0  0  0  0  0  0  0
    7.3080  -16.2977   23.1827 O   0  0  0  0  0  0  0  0  0  0  0  0
    8.8067  -11.4243   20.4502 N   0  0  0  0  0  0  0  0  0  0  0  0
   10.9296  -19.3144   27.5520 C   0  0  0  0  0  0  0  0  0  0  0  0
    9.8658  -18.9627   26.7107 O   0  0  0  0  0  0  0  0  0  0  0  0
    8.7448  -18.7590   27.2735 C   0  0  0  0  0  0  0  0  0  0  0  0
    9.9425  -18.8136   25.2575 C   0  0  2  0  0  0  0  0  0  0  0  0
    9.2392  -17.5948   24.7315 N   0  0  0  0  0  0  0  0  0  0  0  0
    9.3011  -17.4951   23.3069 C   0  0  0  0  0  0  0  0  0  0  0  0
    9.6870  -16.3533   25.4174 O   0  0  0  0  0  0  0  0  0  0  0  0
   10.8661  -15.9360   25.2935 C   0  0  0  0  0  0  0  0  0  0  0  0
    6.4001  -11.9584   25.9266 C   0  0  1  0  0  0  0  0  0  0  0  0
    7.5511  -12.9220   25.7972 C   0  0  0  0  0  0  0  0  0  0  0  0
    8.4994  -12.4437   24.7252 C   0  0  0  0  0  0  0  0  0  0  0  0
    8.1759  -13.3520   27.0491 C   0  0  2  0  0  0  0  0  0  0  0  0
    9.2081  -14.4267   27.0120 N   0  0  0  0  0  0  0  0  0  0  0  0
    8.8301  -15.5864   26.2315 C   0  0  0  0  0  0  0  0  0  0  0  0
    9.8635  -14.7300   28.2748 O   0  0  0  0  0  0  0  0  0  0  0  0
   10.6545  -13.8807   29.0341 O   0  0  0  0  0  0  0  0  0  0  0  0
  1  2  1  0
  2  4  1  0
  3  2  2  0
  4  5  1  0
  5  6  1  0
  7  6  1  0
  8  9  1  6
  8  7  1  0
 10  8  1  0
 10 11  2  0
 13 12  1  0
 13 15  1  0
 14 13  2  0
 16 15  1  6
 16 17  1  0
 16 18  1  0
 17 10  1  0
 18 25  1  0
 19 18  2  0
 21 20  1  6
 21 23  1  0
 22 21  1  0
 24 23  1  6
 24 26  1  0
 25 24  1  0
 26 28  2  0
 26 27  1  0
M  END
$$$$
