RNL.pdb
     RDKit          3D

 28 27  0  0  1  0  0  0  0  0999 V2000
    9.3814  -13.1554   17.0400 N   0  0  0  0  0  0  0  0  0  0  0  0
   10.0087  -13.2098   18.3225 C   0  0  0  0  0  0  0  0  0  0  0  0
   11.1516  -13.7906   18.4401 N   0  0  0  0  0  0  0  0  0  0  0  0
    9.4154  -12.6453   19.4739 N   0  0  0  0  0  0  0  0  0  0  0  0
    8.0068  -12.2139   19.4764 C   0  0  0  0  0  0  0  0  0  0  0  0
    7.1687  -13.4614   19.4205 C   0  0  0  0  0  0  0  0  0  0  0  0
    7.1184  -14.2707   20.6595 C   0  0  0  0  0  0  0  0  0  0  0  0
    7.4551  -15.7157   20.5473 C   0  0  2  0  0  0  0  0  0  0  0  0
    6.2754  -16.4572   20.1614 N   0  0  0  0  0  0  0  0  0  0  0  0
    8.0459  -16.2625   21.8046 C   0  0  0  0  0  0  0  0  0  0  0  0
    7.2450  -16.6133   22.7054 O   0  0  0  0  0  0  0  0  0  0  0  0
   11.6201  -13.9041   19.3613 N   0  0  0  0  0  0  0  0  0  0  0  0
   12.3474  -18.2116   20.9697 C   0  0  0  0  0  0  0  0  0  0  0  0
   11.5543  -18.3430   22.1173 O   0  0  0  0  0  0  0  0  0  0  0  0
   10.9392  -19.4465   22.2548 C   0  0  0  0  0  0  0  0  0  0  0  0
   11.3809  -17.3256   23.1540 C   0  0  2  0  0  0  0  0  0  0  0  0
    9.9802  -16.7927   23.2573 N   0  0  0  0  0  0  0  0  0  0  0  0
    9.4503  -16.3882   21.9928 C   0  0  0  0  0  0  0  0  0  0  0  0
    9.8607  -15.7368   24.2980 O   0  0  0  0  0  0  0  0  0  0  0  0
    9.7199  -14.5290   23.9799 C   0  0  0  0  0  0  0  0  0  0  0  0
    6.7851  -12.3530   26.1254 C   0  0  1  0  0  0  0  0  0  0  0  0
    8.1170  -13.0574   26.1244 C   0  0  0  0  0  0  0  0  0  0  0  0
    9.1066  -12.2794   26.9568 C   0  0  0  0  0  0  0  0  0  0  0  0
    8.0834  -14.5006   26.3660 C   0  0  2  0  0  0  0  0  0  0  0  0
    9.3453  -15.2033   26.7339 N   0  0  0  0  0  0  0  0  0  0  0  0
    9.8976  -16.0246   25.6768 C   0  0  0  0  0  0  0  0  0  0  0  0
    9.3799  -15.8086   28.0563 O   0  0  0  0  0  0  0  0  0  0  0  0
    9.8223  -15.2251   29.2342 O   0  0  0  0  0  0  0  0  0  0  0  0
  1  2  1  0
  2  4  1  0
  3  2  2  0
  4  5  1  0
  5  6  1  0
  7  6  1  0
  8  9  1  1
  8  7  1  0
 10  8  1  0
 10 11  2  0
 13 12  1  0
 13 15  1  0
 14 13  2  0
 16 15  1  6
 16 17  1  0
 16 18  1  0
 17 10  1  0
 18 25  1  0
 19 18  2  0
 21 20  1  6
 21 23  1  0
 22 21  1  0
 24 23  1  6
 24 26  1  0
 25 24  1  0
 26 28  2  0
 26 27  1  0
M  END
$$$$
