RNL.pdb
     RDKit          3D

 28 27  0  0  1  0  0  0  0  0999 V2000
    8.4427  -12.8587   17.4296 N   0  0  0  0  0  0  0  0  0  0  0  0
    8.5460  -13.0959   18.8348 C   0  0  0  0  0  0  0  0  0  0  0  0
    8.8164  -12.1128   19.6209 N   0  0  0  0  0  0  0  0  0  0  0  0
    8.3611  -14.3793   19.3960 N   0  0  0  0  0  0  0  0  0  0  0  0
    7.9682  -15.5297   18.5637 C   0  0  0  0  0  0  0  0  0  0  0  0
    6.6200  -15.9817   19.0534 C   0  0  0  0  0  0  0  0  0  0  0  0
    6.6227  -16.9537   20.1705 C   0  0  0  0  0  0  0  0  0  0  0  0
    6.2006  -16.4595   21.5089 C   0  0  2  0  0  0  0  0  0  0  0  0
    6.9274  -15.2509   21.8279 N   0  0  0  0  0  0  0  0  0  0  0  0
    6.3738  -17.4882   22.5769 C   0  0  0  0  0  0  0  0  0  0  0  0
    5.5810  -18.4615   22.5650 O   0  0  0  0  0  0  0  0  0  0  0  0
    8.9827  -12.2499   20.6379 N   0  0  0  0  0  0  0  0  0  0  0  0
    5.4728  -21.3987   24.2643 C   0  0  0  0  0  0  0  0  0  0  0  0
    6.5444  -20.6694   24.7963 O   0  0  0  0  0  0  0  0  0  0  0  0
    6.7524  -20.8006   26.0431 C   0  0  0  0  0  0  0  0  0  0  0  0
    7.4293  -19.7824   24.0413 C   0  0  2  0  0  0  0  0  0  0  0  0
    7.5045  -18.3856   24.5891 N   0  0  0  0  0  0  0  0  0  0  0  0
    7.3851  -17.3881   23.5721 C   0  0  0  0  0  0  0  0  0  0  0  0
    8.6990  -18.1892   25.4533 O   0  0  0  0  0  0  0  0  0  0  0  0
    9.8532  -18.4501   25.0295 C   0  0  0  0  0  0  0  0  0  0  0  0
   10.7043  -13.7168   27.5956 C   0  0  2  0  0  0  0  0  0  0  0  0
    9.8660  -14.5567   28.5240 C   0  0  0  0  0  0  0  0  0  0  0  0
    9.2171  -13.6760   29.5636 C   0  0  0  0  0  0  0  0  0  0  0  0
    8.9862  -15.5385   27.8879 C   0  0  1  0  0  0  0  0  0  0  0  0
    9.5592  -16.8367   27.4318 N   0  0  0  0  0  0  0  0  0  0  0  0
    8.6073  -17.7076   26.7742 C   0  0  0  0  0  0  0  0  0  0  0  0
   10.4534  -17.5057   28.3642 O   0  0  0  0  0  0  0  0  0  0  0  0
   11.8386  -17.4413   28.3901 O   0  0  0  0  0  0  0  0  0  0  0  0
  1  2  1  0
  2  4  1  0
  3  2  2  0
  4  5  1  0
  5  6  1  0
  7  6  1  0
  8  9  1  1
  8  7  1  0
 10  8  1  0
 10 11  2  0
 13 12  1  0
 13 15  1  0
 14 13  2  0
 16 15  1  1
 16 17  1  0
 16 18  1  0
 17 10  1  0
 18 25  1  0
 19 18  2  0
 21 20  1  1
 21 23  1  0
 22 21  1  0
 24 23  1  6
 24 26  1  0
 25 24  1  0
 26 28  2  0
 26 27  1  0
M  END
$$$$
