RNL.pdb
     RDKit          3D

 28 27  0  0  1  0  0  0  0  0999 V2000
    9.0799  -12.8040   17.3683 N   0  0  0  0  0  0  0  0  0  0  0  0
    8.9256  -12.3435   18.7120 C   0  0  0  0  0  0  0  0  0  0  0  0
    9.8623  -11.6421   19.2486 N   0  0  0  0  0  0  0  0  0  0  0  0
    7.7741  -12.6328   19.4780 N   0  0  0  0  0  0  0  0  0  0  0  0
    6.7073  -13.5054   18.9575 C   0  0  0  0  0  0  0  0  0  0  0  0
    7.2509  -14.9075   18.9600 C   0  0  0  0  0  0  0  0  0  0  0  0
    7.6287  -15.4594   20.2812 C   0  0  0  0  0  0  0  0  0  0  0  0
    8.1826  -16.8400   20.3133 C   0  0  2  0  0  0  0  0  0  0  0  0
    7.1519  -17.7819   19.9375 N   0  0  0  0  0  0  0  0  0  0  0  0
    8.7700  -17.1877   21.6410 C   0  0  0  0  0  0  0  0  0  0  0  0
    7.9793  -17.6027   22.5233 O   0  0  0  0  0  0  0  0  0  0  0  0
    9.8041  -11.3031   20.2297 N   0  0  0  0  0  0  0  0  0  0  0  0
   13.3212  -18.9017   21.4469 C   0  0  0  0  0  0  0  0  0  0  0  0
   12.4443  -18.8147   22.5363 O   0  0  0  0  0  0  0  0  0  0  0  0
   11.8939  -19.8990   22.9056 C   0  0  0  0  0  0  0  0  0  0  0  0
   12.1174  -17.5928   23.2711 C   0  0  2  0  0  0  0  0  0  0  0  0
   10.6584  -17.2358   23.2423 N   0  0  0  0  0  0  0  0  0  0  0  0
   10.1603  -17.0614   21.9138 C   0  0  0  0  0  0  0  0  0  0  0  0
   10.3486  -16.0842   24.1312 O   0  0  0  0  0  0  0  0  0  0  0  0
   10.8283  -14.9449   23.9037 C   0  0  0  0  0  0  0  0  0  0  0  0
    8.2803  -12.0637   26.7245 C   0  0  2  0  0  0  0  0  0  0  0  0
    7.4814  -13.3405   26.7626 C   0  0  0  0  0  0  0  0  0  0  0  0
    6.0072  -13.0222   26.7087 C   0  0  0  0  0  0  0  0  0  0  0  0
    7.9310  -14.4094   25.8695 C   0  0  1  0  0  0  0  0  0  0  0  0
    9.1874  -15.1433   26.1928 N   0  0  0  0  0  0  0  0  0  0  0  0
    9.5137  -16.2019   25.2601 C   0  0  0  0  0  0  0  0  0  0  0  0
    9.3899  -15.4818   27.5931 O   0  0  0  0  0  0  0  0  0  0  0  0
    9.9817  -14.6939   28.5691 O   0  0  0  0  0  0  0  0  0  0  0  0
  1  2  1  0
  2  4  1  0
  3  2  2  0
  4  5  1  0
  5  6  1  0
  7  6  1  0
  8  9  1  1
  8  7  1  0
 10  8  1  0
 10 11  2  0
 13 12  1  0
 13 15  1  0
 14 13  2  0
 16 15  1  6
 16 17  1  0
 16 18  1  0
 17 10  1  0
 18 25  1  0
 19 18  2  0
 21 20  1  1
 21 23  1  0
 22 21  1  0
 24 23  1  6
 24 26  1  0
 25 24  1  0
 26 28  2  0
 26 27  1  0
M  END
$$$$
