RNL.pdb
     RDKit          3D

 28 27  0  0  1  0  0  0  0  0999 V2000
    8.5886  -15.4792   17.1406 N   0  0  0  0  0  0  0  0  0  0  0  0
    8.1576  -14.1171   17.1260 C   0  0  0  0  0  0  0  0  0  0  0  0
    8.1837  -13.4604   16.0190 N   0  0  0  0  0  0  0  0  0  0  0  0
    7.7010  -13.4607   18.2910 N   0  0  0  0  0  0  0  0  0  0  0  0
    8.0997  -13.9178   19.6336 C   0  0  0  0  0  0  0  0  0  0  0  0
    6.9754  -14.7688   20.1561 C   0  0  0  0  0  0  0  0  0  0  0  0
    7.1987  -15.4105   21.4719 C   0  0  0  0  0  0  0  0  0  0  0  0
    7.9996  -16.6643   21.4948 C   0  0  2  0  0  0  0  0  0  0  0  0
    7.3174  -17.6862   20.7325 N   0  0  0  0  0  0  0  0  0  0  0  0
    8.2870  -17.1316   22.8833 C   0  0  0  0  0  0  0  0  0  0  0  0
    7.8399  -18.2584   23.2096 O   0  0  0  0  0  0  0  0  0  0  0  0
    7.8859  -12.4660   15.9608 N   0  0  0  0  0  0  0  0  0  0  0  0
   11.7813  -15.2453   22.9156 C   0  0  0  0  0  0  0  0  0  0  0  0
   11.9244  -16.6391   22.9010 O   0  0  0  0  0  0  0  0  0  0  0  0
   12.8230  -17.1060   22.1332 C   0  0  0  0  0  0  0  0  0  0  0  0
   11.1331  -17.5849   23.6879 C   0  0  1  0  0  0  0  0  0  0  0  0
   10.0977  -16.9353   24.5612 N   0  0  0  0  0  0  0  0  0  0  0  0
    9.0318  -16.3503   23.8096 C   0  0  0  0  0  0  0  0  0  0  0  0
   10.7042  -15.9896   25.5358 O   0  0  0  0  0  0  0  0  0  0  0  0
   11.8830  -16.1480   25.9421 C   0  0  0  0  0  0  0  0  0  0  0  0
    6.1577  -12.9371   26.4687 C   0  0  1  0  0  0  0  0  0  0  0  0
    7.6107  -13.3307   26.4049 C   0  0  0  0  0  0  0  0  0  0  0  0
    8.4614  -12.1065   26.1700 C   0  0  0  0  0  0  0  0  0  0  0  0
    8.0803  -14.2358   27.4550 C   0  0  2  0  0  0  0  0  0  0  0  0
    9.4763  -14.7546   27.3935 N   0  0  0  0  0  0  0  0  0  0  0  0
   10.0044  -14.8804   26.0510 C   0  0  0  0  0  0  0  0  0  0  0  0
    9.7857  -15.8686   28.2764 O   0  0  0  0  0  0  0  0  0  0  0  0
   10.6264  -15.8558   29.3794 O   0  0  0  0  0  0  0  0  0  0  0  0
  1  2  1  0
  2  4  1  0
  3  2  2  0
  4  5  1  0
  5  6  1  0
  7  6  1  0
  8  9  1  6
  8  7  1  0
 10  8  1  0
 10 11  2  0
 13 12  1  0
 13 15  1  0
 14 13  2  0
 16 15  1  1
 16 17  1  0
 16 18  1  0
 17 10  1  0
 18 25  1  0
 19 18  2  0
 21 20  1  6
 21 23  1  0
 22 21  1  0
 24 23  1  1
 24 26  1  0
 25 24  1  0
 26 28  2  0
 26 27  1  0
M  END
$$$$
