RNL.pdb
     RDKit          3D

 28 27  0  0  1  0  0  0  0  0999 V2000
    8.7393  -12.9193   16.7192 N   0  0  0  0  0  0  0  0  0  0  0  0
    7.5965  -13.4703   17.3763 C   0  0  0  0  0  0  0  0  0  0  0  0
    6.6780  -12.6796   17.8107 N   0  0  0  0  0  0  0  0  0  0  0  0
    7.4376  -14.8611   17.5679 N   0  0  0  0  0  0  0  0  0  0  0  0
    7.9860  -15.5381   18.7560 C   0  0  0  0  0  0  0  0  0  0  0  0
    7.0200  -15.2930   19.8822 C   0  0  0  0  0  0  0  0  0  0  0  0
    7.3822  -15.8792   21.1929 C   0  0  0  0  0  0  0  0  0  0  0  0
    7.9187  -17.2670   21.1972 C   0  0  2  0  0  0  0  0  0  0  0  0
    6.8220  -18.2077   21.2539 N   0  0  0  0  0  0  0  0  0  0  0  0
    8.8852  -17.5010   22.3107 C   0  0  0  0  0  0  0  0  0  0  0  0
    8.5312  -18.2960   23.2154 O   0  0  0  0  0  0  0  0  0  0  0  0
    5.8407  -13.0323   18.3160 N   0  0  0  0  0  0  0  0  0  0  0  0
   13.4125  -17.3196   20.7718 C   0  0  0  0  0  0  0  0  0  0  0  0
   12.9064  -17.7685   21.9989 O   0  0  0  0  0  0  0  0  0  0  0  0
   12.8183  -19.0277   22.1462 C   0  0  0  0  0  0  0  0  0  0  0  0
   12.4779  -16.9152   23.1070 C   0  0  2  0  0  0  0  0  0  0  0  0
   11.0295  -17.0725   23.4731 N   0  0  0  0  0  0  0  0  0  0  0  0
   10.1547  -16.8614   22.3624 C   0  0  0  0  0  0  0  0  0  0  0  0
   10.6626  -16.2555   24.6607 O   0  0  0  0  0  0  0  0  0  0  0  0
   11.2147  -16.4485   25.7733 C   0  0  0  0  0  0  0  0  0  0  0  0
    7.8901  -12.0881   27.2136 C   0  0  2  0  0  0  0  0  0  0  0  0
    7.1111  -13.1827   26.5318 C   0  0  0  0  0  0  0  0  0  0  0  0
    5.7223  -12.6923   26.2029 C   0  0  0  0  0  0  0  0  0  0  0  0
    7.8033  -13.8922   25.4547 C   0  0  1  0  0  0  0  0  0  0  0  0
    9.1044  -14.5587   25.7454 N   0  0  0  0  0  0  0  0  0  0  0  0
    9.6920  -15.2357   24.6080 C   0  0  0  0  0  0  0  0  0  0  0  0
    9.1824  -15.2938   26.9983 O   0  0  0  0  0  0  0  0  0  0  0  0
    8.4834  -16.4413   27.3421 O   0  0  0  0  0  0  0  0  0  0  0  0
  1  2  1  0
  2  4  1  0
  3  2  2  0
  4  5  1  0
  5  6  1  0
  7  6  1  0
  8  9  1  1
  8  7  1  0
 10  8  1  0
 10 11  2  0
 13 12  1  0
 13 15  1  0
 14 13  2  0
 16 15  1  6
 16 17  1  0
 16 18  1  0
 17 10  1  0
 18 25  1  0
 19 18  2  0
 21 20  1  1
 21 23  1  0
 22 21  1  0
 24 23  1  6
 24 26  1  0
 25 24  1  0
 26 28  2  0
 26 27  1  0
M  END
$$$$
