RNL.pdb
     RDKit          3D

 28 27  0  0  1  0  0  0  0  0999 V2000
    7.9390  -12.3217   17.3843 N   0  0  0  0  0  0  0  0  0  0  0  0
    8.8889  -13.0743   18.1409 C   0  0  0  0  0  0  0  0  0  0  0  0
    9.7411  -12.4521   18.8786 N   0  0  0  0  0  0  0  0  0  0  0  0
    8.9269  -14.4863   18.1080 N   0  0  0  0  0  0  0  0  0  0  0  0
    7.8305  -15.2952   18.6683 C   0  0  0  0  0  0  0  0  0  0  0  0
    7.7736  -14.9925   20.1403 C   0  0  0  0  0  0  0  0  0  0  0  0
    6.7931  -15.7719   20.9302 C   0  0  0  0  0  0  0  0  0  0  0  0
    7.1084  -17.2021   21.1934 C   0  0  2  0  0  0  0  0  0  0  0  0
    6.3408  -17.6640   22.3284 N   0  0  0  0  0  0  0  0  0  0  0  0
    8.5682  -17.4349   21.4015 C   0  0  0  0  0  0  0  0  0  0  0  0
    9.3112  -17.3322   20.3948 O   0  0  0  0  0  0  0  0  0  0  0  0
   10.4662  -12.9556   19.4276 N   0  0  0  0  0  0  0  0  0  0  0  0
   13.1151  -16.4368   23.5820 C   0  0  0  0  0  0  0  0  0  0  0  0
   12.5563  -16.3392   22.3008 O   0  0  0  0  0  0  0  0  0  0  0  0
   13.3136  -15.8825   21.3882 C   0  0  0  0  0  0  0  0  0  0  0  0
   11.1906  -16.7158   21.9362 C   0  0  2  0  0  0  0  0  0  0  0  0
   10.3667  -17.2136   23.0895 N   0  0  0  0  0  0  0  0  0  0  0  0
    9.1124  -17.7597   22.6750 C   0  0  0  0  0  0  0  0  0  0  0  0
   10.2256  -16.1882   24.1575 O   0  0  0  0  0  0  0  0  0  0  0  0
   11.2364  -15.6348   24.6596 C   0  0  0  0  0  0  0  0  0  0  0  0
    8.3150  -11.9594   26.8934 C   0  0  2  0  0  0  0  0  0  0  0  0
    7.2392  -12.9570   26.5505 C   0  0  0  0  0  0  0  0  0  0  0  0
    5.9221  -12.2441   26.3649 C   0  0  0  0  0  0  0  0  0  0  0  0
    7.5768  -13.9411   25.5208 C   0  0  1  0  0  0  0  0  0  0  0  0
    8.7487  -14.8375   25.7318 N   0  0  0  0  0  0  0  0  0  0  0  0
    8.9725  -15.7848   24.6595 C   0  0  0  0  0  0  0  0  0  0  0  0
    8.9040  -15.3855   27.0705 O   0  0  0  0  0  0  0  0  0  0  0  0
    9.1341  -16.7096   27.4130 O   0  0  0  0  0  0  0  0  0  0  0  0
  1  2  1  0
  2  4  1  0
  3  2  2  0
  4  5  1  0
  5  6  1  0
  7  6  1  0
  8  9  1  1
  8  7  1  0
 10  8  1  0
 10 11  2  0
 13 12  1  0
 13 15  1  0
 14 13  2  0
 16 15  1  6
 16 17  1  0
 16 18  1  0
 17 10  1  0
 18 25  1  0
 19 18  2  0
 21 20  1  1
 21 23  1  0
 22 21  1  0
 24 23  1  6
 24 26  1  0
 25 24  1  0
 26 28  2  0
 26 27  1  0
M  END
$$$$
