RNL.pdb
     RDKit          3D

 28 27  0  0  1  0  0  0  0  0999 V2000
    8.5636  -13.0341   17.6912 N   0  0  0  0  0  0  0  0  0  0  0  0
    8.4505  -12.4664   18.9974 C   0  0  0  0  0  0  0  0  0  0  0  0
    9.3439  -11.6318   19.4006 N   0  0  0  0  0  0  0  0  0  0  0  0
    7.3862  -12.7909   19.8683 N   0  0  0  0  0  0  0  0  0  0  0  0
    6.3843  -13.8088   19.5072 C   0  0  0  0  0  0  0  0  0  0  0  0
    7.1065  -15.1261   19.4384 C   0  0  0  0  0  0  0  0  0  0  0  0
    7.3919  -15.7832   20.7344 C   0  0  0  0  0  0  0  0  0  0  0  0
    8.0187  -17.1321   20.6946 C   0  0  2  0  0  0  0  0  0  0  0  0
    6.9900  -18.1377   20.5500 N   0  0  0  0  0  0  0  0  0  0  0  0
    8.8686  -17.4012   21.8921 C   0  0  0  0  0  0  0  0  0  0  0  0
    8.3950  -18.1670   22.7669 O   0  0  0  0  0  0  0  0  0  0  0  0
    9.3584  -11.2673   20.3742 N   0  0  0  0  0  0  0  0  0  0  0  0
   13.5280  -18.6010   24.5534 C   0  0  0  0  0  0  0  0  0  0  0  0
   13.2751  -17.3055   24.0832 O   0  0  0  0  0  0  0  0  0  0  0  0
   13.8368  -16.3564   24.7147 C   0  0  0  0  0  0  0  0  0  0  0  0
   12.4284  -16.9643   22.9402 C   0  0  1  0  0  0  0  0  0  0  0  0
   10.9588  -17.1434   23.1949 N   0  0  0  0  0  0  0  0  0  0  0  0
   10.1593  -16.8256   22.0533 C   0  0  0  0  0  0  0  0  0  0  0  0
   10.5159  -16.4353   24.4255 O   0  0  0  0  0  0  0  0  0  0  0  0
   10.8303  -16.8620   25.5652 C   0  0  0  0  0  0  0  0  0  0  0  0
    7.8502  -11.9543   26.8589 C   0  0  2  0  0  0  0  0  0  0  0  0
    7.2006  -13.2315   26.3931 C   0  0  0  0  0  0  0  0  0  0  0  0
    5.7157  -13.0185   26.2286 C   0  0  0  0  0  0  0  0  0  0  0  0
    7.8658  -13.9288   25.2914 C   0  0  1  0  0  0  0  0  0  0  0  0
    9.1948  -14.5598   25.5306 N   0  0  0  0  0  0  0  0  0  0  0  0
    9.7319  -15.2653   24.3857 C   0  0  0  0  0  0  0  0  0  0  0  0
    9.3580  -15.2485   26.8016 O   0  0  0  0  0  0  0  0  0  0  0  0
    9.6508  -16.5901   26.9967 O   0  0  0  0  0  0  0  0  0  0  0  0
  1  2  1  0
  2  4  1  0
  3  2  2  0
  4  5  1  0
  5  6  1  0
  7  6  1  0
  8  9  1  1
  8  7  1  0
 10  8  1  0
 10 11  2  0
 13 12  1  0
 13 15  1  0
 14 13  2  0
 16 15  1  6
 16 17  1  0
 16 18  1  0
 17 10  1  0
 18 25  1  0
 19 18  2  0
 21 20  1  1
 21 23  1  0
 22 21  1  0
 24 23  1  6
 24 26  1  0
 25 24  1  0
 26 28  2  0
 26 27  1  0
M  END
$$$$
