LPW.pdb
     RDKit          3D

 30 32  0  0  1  0  0  0  0  0999 V2000
   25.5705  -21.0157  -19.2508 C   0  0  0  0  0  0  0  0  0  0  0  0
   25.5883  -22.0881  -18.1893 C   0  0  1  0  0  0  0  0  0  0  0  0
   24.3297  -22.9382  -18.4096 C   0  0  0  0  0  0  0  0  0  0  0  0
   26.8092  -22.9244  -18.2075 C   0  0  0  0  0  0  0  0  0  0  0  0
   28.0607  -22.1544  -17.7980 C   0  0  2  0  0  0  0  0  0  0  0  0
   29.1112  -23.2153  -17.8212 N   0  0  0  0  0  0  0  0  0  0  0  0
   27.9896  -21.7464  -16.3712 C   0  0  0  0  0  0  0  0  0  0  0  0
   28.1833  -22.6914  -15.5140 O   0  0  0  0  0  0  0  0  0  0  0  0
   27.7344  -20.4330  -15.9141 N   0  0  0  0  0  0  0  0  0  0  0  0
   27.4588  -19.2634  -16.6984 C   0  0  0  0  0  0  0  0  0  0  0  0
   28.0936  -18.1265  -15.9194 C   0  0  0  0  0  0  0  0  0  0  0  0
   27.8714  -18.5473  -14.4928 C   0  0  0  0  0  0  0  0  0  0  0  0
   27.7366  -20.0317  -14.5046 C   0  0  1  0  0  0  0  0  0  0  0  0
   26.5013  -20.4931  -13.8252 C   0  0  0  0  0  0  0  0  0  0  0  0
   25.4146  -20.5251  -14.4586 O   0  0  0  0  0  0  0  0  0  0  0  0
   26.5740  -20.8889  -12.4726 N   0  0  0  0  0  0  0  0  0  0  0  0
   25.4263  -21.4593  -11.7632 C   0  0  1  0  0  0  0  0  0  0  0  0
   25.8347  -22.0719  -10.4841 C   0  0  0  0  0  0  0  0  0  0  0  0
   26.3201  -21.0852   -9.5024 C   0  0  0  0  0  0  0  0  0  0  0  0
   25.5777  -19.9951   -8.9960 C   0  0  0  0  0  0  0  0  0  0  0  0
   26.3497  -19.2840   -8.1614 N   0  0  0  0  0  0  0  0  0  0  0  0
   27.5684  -19.8203   -8.0666 C   0  0  0  0  0  0  0  0  0  0  0  0
   28.7075  -19.5118   -7.3535 C   0  0  0  0  0  0  0  0  0  0  0  0
   29.8557  -20.3047   -7.4455 C   0  0  0  0  0  0  0  0  0  0  0  0
   29.8277  -21.3978   -8.2604 C   0  0  0  0  0  0  0  0  0  0  0  0
   28.6908  -21.6941   -8.9648 C   0  0  0  0  0  0  0  0  0  0  0  0
   27.5471  -20.9328   -8.8955 C   0  0  0  0  0  0  0  0  0  0  0  0
   24.4232  -20.4224  -11.6094 C   0  0  0  0  0  0  0  0  0  0  0  0
   23.1056  -20.7620  -11.3497 O   0  0  0  0  0  0  0  0  0  0  0  0
   24.6774  -19.2016  -11.6990 O   0  0  0  0  0  0  0  0  0  0  0  0
  2  3  1  6
  2  1  1  0
  4  2  1  0
  5  4  1  0
  5  6  1  1
  7  5  1  0
  8  7  2  0
  9  7  1  0
  9 13  1  0
 10  9  1  0
 11 10  1  0
 11 12  1  0
 12 13  1  0
 13 14  1  6
 14 15  2  0
 16 14  1  0
 17 16  1  0
 17 28  1  0
 17 18  1  1
 19 18  1  0
 20 19  2  0
 21 22  1  0
 21 20  1  0
 22 27  2  0
 23 22  1  0
 23 24  2  0
 24 25  1  0
 25 26  2  0
 27 19  1  0
 27 26  1  0
 28 30  2  0
 28 29  1  0
M  END
$$$$
