LPW.pdb
     RDKit          3D

 30 32  0  0  1  0  0  0  0  0999 V2000
   28.0959  -24.1215  -16.5488 C   0  0  0  0  0  0  0  0  0  0  0  0
   27.3178  -22.8304  -16.6167 C   0  0  1  0  0  0  0  0  0  0  0  0
   25.8371  -23.2206  -16.7198 C   0  0  0  0  0  0  0  0  0  0  0  0
   27.5555  -21.9301  -15.4663 C   0  0  0  0  0  0  0  0  0  0  0  0
   26.7088  -20.6624  -15.5215 C   0  0  2  0  0  0  0  0  0  0  0  0
   27.6967  -19.6371  -15.9714 N   0  0  0  0  0  0  0  0  0  0  0  0
   26.3250  -20.2207  -14.1560 C   0  0  0  0  0  0  0  0  0  0  0  0
   27.2315  -19.5691  -13.5087 O   0  0  0  0  0  0  0  0  0  0  0  0
   25.0716  -20.4607  -13.5473 N   0  0  0  0  0  0  0  0  0  0  0  0
   23.9137  -21.0803  -14.1257 C   0  0  0  0  0  0  0  0  0  0  0  0
   22.7402  -20.3614  -13.4868 C   0  0  0  0  0  0  0  0  0  0  0  0
   23.2414  -20.0972  -12.0937 C   0  0  0  0  0  0  0  0  0  0  0  0
   24.7295  -20.0744  -12.1757 C   0  0  1  0  0  0  0  0  0  0  0  0
   25.3642  -20.9918  -11.1979 C   0  0  0  0  0  0  0  0  0  0  0  0
   25.5843  -22.1890  -11.5161 O   0  0  0  0  0  0  0  0  0  0  0  0
   25.7094  -20.4963   -9.9224 N   0  0  0  0  0  0  0  0  0  0  0  0
   26.2236  -21.3645   -8.8605 C   0  0  1  0  0  0  0  0  0  0  0  0
   27.6271  -21.0438   -8.5356 C   0  0  0  0  0  0  0  0  0  0  0  0
   27.7548  -19.9972   -7.5054 C   0  0  0  0  0  0  0  0  0  0  0  0
   27.1565  -18.7183   -7.5537 C   0  0  0  0  0  0  0  0  0  0  0  0
   27.5261  -18.0162   -6.4726 N   0  0  0  0  0  0  0  0  0  0  0  0
   28.3358  -18.7350   -5.6919 C   0  0  0  0  0  0  0  0  0  0  0  0
   28.9678  -18.5098   -4.4873 C   0  0  0  0  0  0  0  0  0  0  0  0
   29.7540  -19.4982   -3.8868 C   0  0  0  0  0  0  0  0  0  0  0  0
   29.8851  -20.6989   -4.5200 C   0  0  0  0  0  0  0  0  0  0  0  0
   29.2534  -20.9110   -5.7169 C   0  0  0  0  0  0  0  0  0  0  0  0
   28.4750  -19.9580   -6.3321 C   0  0  0  0  0  0  0  0  0  0  0  0
   25.3328  -21.2666   -7.7193 C   0  0  0  0  0  0  0  0  0  0  0  0
   25.4516  -22.1578   -6.6655 O   0  0  0  0  0  0  0  0  0  0  0  0
   24.4347  -20.4025   -7.6207 O   0  0  0  0  0  0  0  0  0  0  0  0
  2  3  1  1
  2  1  1  0
  4  2  1  0
  5  4  1  0
  5  6  1  1
  7  5  1  0
  8  7  2  0
  9  7  1  0
  9 13  1  0
 10  9  1  0
 11 10  1  0
 11 12  1  0
 12 13  1  0
 13 14  1  1
 14 15  2  0
 16 14  1  0
 17 16  1  0
 17 28  1  0
 17 18  1  1
 19 18  1  0
 20 19  2  0
 21 22  1  0
 21 20  1  0
 22 27  2  0
 23 22  1  0
 23 24  2  0
 24 25  1  0
 25 26  2  0
 27 19  1  0
 27 26  1  0
 28 30  2  0
 28 29  1  0
M  END
$$$$
