LPW.pdb
     RDKit          3D

 30 32  0  0  1  0  0  0  0  0999 V2000
   28.4184  -17.6455  -16.4956 C   0  0  0  0  0  0  0  0  0  0  0  0
   27.5301  -18.1012  -17.6271 C   0  0  1  0  0  0  0  0  0  0  0  0
   28.2776  -19.2395  -18.3347 C   0  0  0  0  0  0  0  0  0  0  0  0
   26.1840  -18.5345  -17.1906 C   0  0  0  0  0  0  0  0  0  0  0  0
   25.2817  -18.9284  -18.3558 C   0  0  2  0  0  0  0  0  0  0  0  0
   24.9467  -17.6057  -18.9624 N   0  0  0  0  0  0  0  0  0  0  0  0
   23.9769  -19.4430  -17.8662 C   0  0  0  0  0  0  0  0  0  0  0  0
   23.1769  -18.5541  -17.3814 O   0  0  0  0  0  0  0  0  0  0  0  0
   23.5738  -20.7978  -17.9011 N   0  0  0  0  0  0  0  0  0  0  0  0
   24.2354  -21.8994  -18.5396 C   0  0  0  0  0  0  0  0  0  0  0  0
   23.1069  -22.7969  -19.0122 C   0  0  0  0  0  0  0  0  0  0  0  0
   22.0860  -22.6365  -17.9197 C   0  0  0  0  0  0  0  0  0  0  0  0
   22.3474  -21.3129  -17.2860 C   0  0  1  0  0  0  0  0  0  0  0  0
   22.4992  -21.4106  -15.8137 C   0  0  0  0  0  0  0  0  0  0  0  0
   23.6384  -21.6001  -15.3142 O   0  0  0  0  0  0  0  0  0  0  0  0
   21.3527  -21.2877  -15.0001 N   0  0  0  0  0  0  0  0  0  0  0  0
   21.4238  -21.3380  -13.5379 C   0  0  1  0  0  0  0  0  0  0  0  0
   21.7758  -20.0216  -12.9708 C   0  0  0  0  0  0  0  0  0  0  0  0
   21.8616  -20.0331  -11.4993 C   0  0  0  0  0  0  0  0  0  0  0  0
   20.8088  -19.7177  -10.6116 C   0  0  0  0  0  0  0  0  0  0  0  0
   21.2583  -19.7877   -9.3500 N   0  0  0  0  0  0  0  0  0  0  0  0
   22.5478  -20.1312   -9.3223 C   0  0  0  0  0  0  0  0  0  0  0  0
   23.4662  -20.3586   -8.3193 C   0  0  0  0  0  0  0  0  0  0  0  0
   24.7777  -20.7450   -8.6131 C   0  0  0  0  0  0  0  0  0  0  0  0
   25.1344  -20.8940   -9.9209 C   0  0  0  0  0  0  0  0  0  0  0  0
   24.2138  -20.6644  -10.9091 C   0  0  0  0  0  0  0  0  0  0  0  0
   22.9177  -20.2824  -10.6510 C   0  0  0  0  0  0  0  0  0  0  0  0
   20.1668  -21.8618  -13.0373 C   0  0  0  0  0  0  0  0  0  0  0  0
   18.9880  -21.6136  -13.7213 O   0  0  0  0  0  0  0  0  0  0  0  0
   20.0735  -22.5449  -11.9945 O   0  0  0  0  0  0  0  0  0  0  0  0
  2  3  1  1
  2  1  1  0
  4  2  1  0
  5  4  1  0
  5  6  1  6
  7  5  1  0
  8  7  2  0
  9  7  1  0
  9 13  1  0
 10  9  1  0
 11 10  1  0
 11 12  1  0
 12 13  1  0
 13 14  1  1
 14 15  2  0
 16 14  1  0
 17 16  1  0
 17 28  1  0
 17 18  1  1
 19 18  1  0
 20 19  2  0
 21 22  1  0
 21 20  1  0
 22 27  2  0
 23 22  1  0
 23 24  2  0
 24 25  1  0
 25 26  2  0
 27 19  1  0
 27 26  1  0
 28 30  2  0
 28 29  1  0
M  END
$$$$
