LPW.pdb
     RDKit          3D

 30 32  0  0  1  0  0  0  0  0999 V2000
   25.5953  -20.2816   -9.5292 C   0  0  0  0  0  0  0  0  0  0  0  0
   26.4398  -20.0600  -10.7599 C   0  0  1  0  0  0  0  0  0  0  0  0
   27.7238  -20.8761  -10.5582 C   0  0  0  0  0  0  0  0  0  0  0  0
   25.7623  -20.4309  -12.0223 C   0  0  0  0  0  0  0  0  0  0  0  0
   26.6323  -20.1947  -13.2529 C   0  0  2  0  0  0  0  0  0  0  0  0
   26.7223  -18.7050  -13.3001 N   0  0  0  0  0  0  0  0  0  0  0  0
   25.9017  -20.5529  -14.4959 C   0  0  0  0  0  0  0  0  0  0  0  0
   24.9157  -19.7787  -14.8022 O   0  0  0  0  0  0  0  0  0  0  0  0
   26.2126  -21.6490  -15.3332 N   0  0  0  0  0  0  0  0  0  0  0  0
   27.3741  -22.4905  -15.2908 C   0  0  0  0  0  0  0  0  0  0  0  0
   27.6372  -22.8466  -16.7420 C   0  0  0  0  0  0  0  0  0  0  0  0
   26.2476  -22.9517  -17.3071 C   0  0  0  0  0  0  0  0  0  0  0  0
   25.3741  -22.1057  -16.4450 C   0  0  1  0  0  0  0  0  0  0  0  0
   24.1904  -22.8442  -15.9413 C   0  0  0  0  0  0  0  0  0  0  0  0
   24.3003  -23.5862  -14.9310 O   0  0  0  0  0  0  0  0  0  0  0  0
   22.9579  -22.6965  -16.6124 N   0  0  0  0  0  0  0  0  0  0  0  0
   21.7183  -23.2928  -16.1090 C   0  0  1  0  0  0  0  0  0  0  0  0
   21.0775  -22.4290  -15.0983 C   0  0  0  0  0  0  0  0  0  0  0  0
   20.6142  -21.1431  -15.6503 C   0  0  0  0  0  0  0  0  0  0  0  0
   19.4962  -20.9661  -16.4957 C   0  0  0  0  0  0  0  0  0  0  0  0
   19.4018  -19.6733  -16.8391 N   0  0  0  0  0  0  0  0  0  0  0  0
   20.3823  -18.9596  -16.2813 C   0  0  0  0  0  0  0  0  0  0  0  0
   20.7304  -17.6255  -16.2869 C   0  0  0  0  0  0  0  0  0  0  0  0
   21.8311  -17.1618  -15.5595 C   0  0  0  0  0  0  0  0  0  0  0  0
   22.5599  -18.0612  -14.8387 C   0  0  0  0  0  0  0  0  0  0  0  0
   22.2054  -19.3844  -14.8413 C   0  0  0  0  0  0  0  0  0  0  0  0
   21.1292  -19.8699  -15.5475 C   0  0  0  0  0  0  0  0  0  0  0  0
   20.8600  -23.5863  -17.2414 C   0  0  0  0  0  0  0  0  0  0  0  0
   21.2135  -23.1601  -18.5111 O   0  0  0  0  0  0  0  0  0  0  0  0
   19.7863  -24.2192  -17.1441 O   0  0  0  0  0  0  0  0  0  0  0  0
  2  3  1  1
  2  1  1  0
  4  2  1  0
  5  4  1  0
  5  6  1  6
  7  5  1  0
  8  7  2  0
  9  7  1  0
  9 13  1  0
 10  9  1  0
 11 10  1  0
 11 12  1  0
 12 13  1  0
 13 14  1  1
 14 15  2  0
 16 14  1  0
 17 16  1  0
 17 28  1  0
 17 18  1  1
 19 18  1  0
 20 19  2  0
 21 22  1  0
 21 20  1  0
 22 27  2  0
 23 22  1  0
 23 24  2  0
 24 25  1  0
 25 26  2  0
 27 19  1  0
 27 26  1  0
 28 30  2  0
 28 29  1  0
M  END
$$$$
