LPW.pdb
     RDKit          3D

 30 32  0  0  1  0  0  0  0  0999 V2000
   23.1787  -22.9942  -17.8540 C   0  0  0  0  0  0  0  0  0  0  0  0
   24.3555  -22.0524  -17.9254 C   0  0  1  0  0  0  0  0  0  0  0  0
   23.7886  -20.6767  -18.3014 C   0  0  0  0  0  0  0  0  0  0  0  0
   25.1409  -21.9838  -16.6728 C   0  0  0  0  0  0  0  0  0  0  0  0
   26.3632  -21.0786  -16.7889 C   0  0  2  0  0  0  0  0  0  0  0  0
   27.3681  -21.9784  -17.4293 N   0  0  0  0  0  0  0  0  0  0  0  0
   26.9379  -20.7887  -15.4499 C   0  0  0  0  0  0  0  0  0  0  0  0
   27.6887  -21.7151  -14.9565 O   0  0  0  0  0  0  0  0  0  0  0  0
   26.7214  -19.6016  -14.7131 N   0  0  0  0  0  0  0  0  0  0  0  0
   25.9919  -18.4333  -15.1160 C   0  0  0  0  0  0  0  0  0  0  0  0
   26.7336  -17.2805  -14.4656 C   0  0  0  0  0  0  0  0  0  0  0  0
   27.1803  -17.8779  -13.1597 C   0  0  0  0  0  0  0  0  0  0  0  0
   27.2529  -19.3517  -13.3704 C   0  0  1  0  0  0  0  0  0  0  0  0
   26.4835  -20.1075  -12.3520 C   0  0  0  0  0  0  0  0  0  0  0  0
   25.2859  -20.4197  -12.5784 O   0  0  0  0  0  0  0  0  0  0  0  0
   27.1180  -20.4620  -11.1424 N   0  0  0  0  0  0  0  0  0  0  0  0
   26.4396  -21.2415  -10.1041 C   0  0  1  0  0  0  0  0  0  0  0  0
   27.3689  -21.6196   -9.0217 C   0  0  0  0  0  0  0  0  0  0  0  0
   27.4691  -20.5963   -7.9653 C   0  0  0  0  0  0  0  0  0  0  0  0
   26.8746  -19.3153   -8.0023 C   0  0  0  0  0  0  0  0  0  0  0  0
   27.2145  -18.6381   -6.8959 N   0  0  0  0  0  0  0  0  0  0  0  0
   28.0005  -19.3757   -6.1086 C   0  0  0  0  0  0  0  0  0  0  0  0
   28.5983  -19.1786   -4.8819 C   0  0  0  0  0  0  0  0  0  0  0  0
   29.3654  -20.1819   -4.2812 C   0  0  0  0  0  0  0  0  0  0  0  0
   29.5124  -21.3686   -4.9369 C   0  0  0  0  0  0  0  0  0  0  0  0
   28.9147  -21.5528   -6.1556 C   0  0  0  0  0  0  0  0  0  0  0  0
   28.1557  -20.5847   -6.7715 C   0  0  0  0  0  0  0  0  0  0  0  0
   25.2939  -20.4826   -9.6388 C   0  0  0  0  0  0  0  0  0  0  0  0
   25.2396  -19.1127   -9.8372 O   0  0  0  0  0  0  0  0  0  0  0  0
   24.3196  -21.0002   -9.0507 O   0  0  0  0  0  0  0  0  0  0  0  0
  2  3  1  1
  2  1  1  0
  4  2  1  0
  5  4  1  0
  5  6  1  6
  7  5  1  0
  8  7  2  0
  9  7  1  0
  9 13  1  0
 10  9  1  0
 11 10  1  0
 11 12  1  0
 12 13  1  0
 13 14  1  1
 14 15  2  0
 16 14  1  0
 17 16  1  0
 17 28  1  0
 17 18  1  1
 19 18  1  0
 20 19  2  0
 21 22  1  0
 21 20  1  0
 22 27  2  0
 23 22  1  0
 23 24  2  0
 24 25  1  0
 25 26  2  0
 27 19  1  0
 27 26  1  0
 28 30  2  0
 28 29  1  0
M  END
$$$$
