LPW.pdb
     RDKit          3D

 30 32  0  0  1  0  0  0  0  0999 V2000
   26.2282  -17.2352  -21.0236 C   0  0  0  0  0  0  0  0  0  0  0  0
   25.9700  -18.3093  -19.9957 C   0  0  1  0  0  0  0  0  0  0  0  0
   24.8834  -19.2202  -20.5828 C   0  0  0  0  0  0  0  0  0  0  0  0
   27.1763  -19.0836  -19.6270 C   0  0  0  0  0  0  0  0  0  0  0  0
   28.1011  -18.3244  -18.6808 C   0  0  2  0  0  0  0  0  0  0  0  0
   29.3317  -19.1702  -18.6891 N   0  0  0  0  0  0  0  0  0  0  0  0
   27.6130  -18.4092  -17.2802 C   0  0  0  0  0  0  0  0  0  0  0  0
   27.9239  -19.4910  -16.6492 O   0  0  0  0  0  0  0  0  0  0  0  0
   26.8586  -17.4111  -16.6216 N   0  0  0  0  0  0  0  0  0  0  0  0
   26.5029  -16.1087  -17.1078 C   0  0  0  0  0  0  0  0  0  0  0  0
   26.5104  -15.2279  -15.8724 C   0  0  0  0  0  0  0  0  0  0  0  0
   26.0010  -16.1592  -14.8071 C   0  0  0  0  0  0  0  0  0  0  0  0
   26.3172  -17.5417  -15.2660 C   0  0  1  0  0  0  0  0  0  0  0  0
   25.1265  -18.4264  -15.2590 C   0  0  0  0  0  0  0  0  0  0  0  0
   24.5203  -18.6666  -16.3351 O   0  0  0  0  0  0  0  0  0  0  0  0
   24.6975  -18.9829  -14.0353 N   0  0  0  0  0  0  0  0  0  0  0  0
   23.6849  -20.0394  -13.9704 C   0  0  1  0  0  0  0  0  0  0  0  0
   24.2595  -21.3057  -13.4758 C   0  0  0  0  0  0  0  0  0  0  0  0
   25.0190  -21.1427  -12.2230 C   0  0  0  0  0  0  0  0  0  0  0  0
   24.4589  -20.9344  -10.9429 C   0  0  0  0  0  0  0  0  0  0  0  0
   25.4459  -20.7837  -10.0476 N   0  0  0  0  0  0  0  0  0  0  0  0
   26.6406  -20.8770  -10.6357 C   0  0  0  0  0  0  0  0  0  0  0  0
   27.9442  -20.8209  -10.1902 C   0  0  0  0  0  0  0  0  0  0  0  0
   29.0177  -20.9868  -11.0712 C   0  0  0  0  0  0  0  0  0  0  0  0
   28.7488  -21.2068  -12.3899 C   0  0  0  0  0  0  0  0  0  0  0  0
   27.4497  -21.2596  -12.8212 C   0  0  0  0  0  0  0  0  0  0  0  0
   26.3738  -21.0992  -11.9790 C   0  0  0  0  0  0  0  0  0  0  0  0
   22.5753  -19.5597  -13.1679 C   0  0  0  0  0  0  0  0  0  0  0  0
   22.6856  -18.3684  -12.4698 O   0  0  0  0  0  0  0  0  0  0  0  0
   21.4900  -20.1708  -13.0608 O   0  0  0  0  0  0  0  0  0  0  0  0
  2  3  1  6
  2  1  1  0
  4  2  1  0
  5  4  1  0
  5  6  1  1
  7  5  1  0
  8  7  2  0
  9  7  1  0
  9 13  1  0
 10  9  1  0
 11 10  1  0
 11 12  1  0
 12 13  1  0
 13 14  1  6
 14 15  2  0
 16 14  1  0
 17 16  1  0
 17 28  1  0
 17 18  1  1
 19 18  1  0
 20 19  2  0
 21 22  1  0
 21 20  1  0
 22 27  2  0
 23 22  1  0
 23 24  2  0
 24 25  1  0
 25 26  2  0
 27 19  1  0
 27 26  1  0
 28 30  2  0
 28 29  1  0
M  END
$$$$
