LPW.pdb
     RDKit          3D

 30 32  0  0  1  0  0  0  0  0999 V2000
   21.0855  -20.2093  -20.7135 C   0  0  0  0  0  0  0  0  0  0  0  0
   20.7634  -21.2611  -19.6806 C   0  0  1  0  0  0  0  0  0  0  0  0
   21.0204  -22.6187  -20.3484 C   0  0  0  0  0  0  0  0  0  0  0  0
   21.5408  -21.1245  -18.4285 C   0  0  0  0  0  0  0  0  0  0  0  0
   21.2585  -22.2436  -17.4311 C   0  0  2  0  0  0  0  0  0  0  0  0
   19.9758  -21.8008  -16.8079 N   0  0  0  0  0  0  0  0  0  0  0  0
   22.2341  -22.2146  -16.3110 C   0  0  0  0  0  0  0  0  0  0  0  0
   21.9890  -21.3505  -15.3844 O   0  0  0  0  0  0  0  0  0  0  0  0
   23.3710  -23.0482  -16.2029 N   0  0  0  0  0  0  0  0  0  0  0  0
   23.7783  -24.1043  -17.0849 C   0  0  0  0  0  0  0  0  0  0  0  0
   24.4219  -25.1323  -16.1732 C   0  0  0  0  0  0  0  0  0  0  0  0
   25.0911  -24.2725  -15.1365 C   0  0  0  0  0  0  0  0  0  0  0  0
   24.3452  -22.9823  -15.1100 C   0  0  1  0  0  0  0  0  0  0  0  0
   25.2382  -21.8090  -15.2725 C   0  0  0  0  0  0  0  0  0  0  0  0
   25.2338  -21.1654  -16.3536 O   0  0  0  0  0  0  0  0  0  0  0  0
   26.0794  -21.4386  -14.2016 N   0  0  0  0  0  0  0  0  0  0  0  0
   26.9138  -20.2354  -14.2443 C   0  0  1  0  0  0  0  0  0  0  0  0
   26.4180  -19.2034  -13.3130 C   0  0  0  0  0  0  0  0  0  0  0  0
   26.2728  -19.6967  -11.9315 C   0  0  0  0  0  0  0  0  0  0  0  0
   27.3301  -19.9103  -11.0192 C   0  0  0  0  0  0  0  0  0  0  0  0
   26.8342  -20.4056   -9.8758 N   0  0  0  0  0  0  0  0  0  0  0  0
   25.5085  -20.5416   -9.9512 C   0  0  0  0  0  0  0  0  0  0  0  0
   24.5298  -20.9709   -9.0800 C   0  0  0  0  0  0  0  0  0  0  0  0
   23.1813  -20.9725   -9.4505 C   0  0  0  0  0  0  0  0  0  0  0  0
   22.8496  -20.5379  -10.6999 C   0  0  0  0  0  0  0  0  0  0  0  0
   23.8305  -20.1146  -11.5573 C   0  0  0  0  0  0  0  0  0  0  0  0
   25.1646  -20.1027  -11.2217 C   0  0  0  0  0  0  0  0  0  0  0  0
   28.2888  -20.6242  -13.9921 C   0  0  0  0  0  0  0  0  0  0  0  0
   29.3224  -19.7443  -14.2683 O   0  0  0  0  0  0  0  0  0  0  0  0
   28.6137  -21.7382  -13.5268 O   0  0  0  0  0  0  0  0  0  0  0  0
  2  3  1  6
  2  1  1  0
  4  2  1  0
  5  4  1  0
  5  6  1  1
  7  5  1  0
  8  7  2  0
  9  7  1  0
  9 13  1  0
 10  9  1  0
 11 10  1  0
 11 12  1  0
 12 13  1  0
 13 14  1  6
 14 15  2  0
 16 14  1  0
 17 16  1  0
 17 28  1  0
 17 18  1  1
 19 18  1  0
 20 19  2  0
 21 22  1  0
 21 20  1  0
 22 27  2  0
 23 22  1  0
 23 24  2  0
 24 25  1  0
 25 26  2  0
 27 19  1  0
 27 26  1  0
 28 30  2  0
 28 29  1  0
M  END
$$$$
