LPW.pdb
     RDKit          3D

 30 32  0  0  1  0  0  0  0  0999 V2000
   30.1529  -16.4185  -16.1950 C   0  0  0  0  0  0  0  0  0  0  0  0
   29.4085  -17.3140  -17.1546 C   0  0  1  0  0  0  0  0  0  0  0  0
   30.4732  -18.1163  -17.9148 C   0  0  0  0  0  0  0  0  0  0  0  0
   28.4308  -18.2098  -16.4974 C   0  0  0  0  0  0  0  0  0  0  0  0
   27.7423  -19.1553  -17.4766 C   0  0  2  0  0  0  0  0  0  0  0  0
   26.8104  -18.2416  -18.2022 N   0  0  0  0  0  0  0  0  0  0  0  0
   26.8425  -20.0968  -16.7616 C   0  0  0  0  0  0  0  0  0  0  0  0
   25.7491  -19.5826  -16.3084 O   0  0  0  0  0  0  0  0  0  0  0  0
   27.1022  -21.4716  -16.5582 N   0  0  0  0  0  0  0  0  0  0  0  0
   28.2103  -22.2422  -17.0456 C   0  0  0  0  0  0  0  0  0  0  0  0
   27.6281  -23.6183  -17.3093 C   0  0  0  0  0  0  0  0  0  0  0  0
   26.6170  -23.7596  -16.2050 C   0  0  0  0  0  0  0  0  0  0  0  0
   26.2292  -22.3769  -15.8058 C   0  0  1  0  0  0  0  0  0  0  0  0
   26.3687  -22.1490  -14.3467 C   0  0  0  0  0  0  0  0  0  0  0  0
   27.5146  -22.0836  -13.8314 O   0  0  0  0  0  0  0  0  0  0  0  0
   25.2031  -22.0097  -13.5636 N   0  0  0  0  0  0  0  0  0  0  0  0
   25.2566  -21.7737  -12.1189 C   0  0  1  0  0  0  0  0  0  0  0  0
   26.3481  -20.8453  -11.7654 C   0  0  0  0  0  0  0  0  0  0  0  0
   26.3351  -20.4562  -10.3437 C   0  0  0  0  0  0  0  0  0  0  0  0
   25.2396  -19.8873   -9.6567 C   0  0  0  0  0  0  0  0  0  0  0  0
   25.6006  -19.6198   -8.3932 N   0  0  0  0  0  0  0  0  0  0  0  0
   26.8701  -19.9708   -8.1762 C   0  0  0  0  0  0  0  0  0  0  0  0
   27.7093  -19.9356   -7.0828 C   0  0  0  0  0  0  0  0  0  0  0  0
   29.0203  -20.4162   -7.1611 C   0  0  0  0  0  0  0  0  0  0  0  0
   29.4568  -20.9245   -8.3489 C   0  0  0  0  0  0  0  0  0  0  0  0
   28.6145  -20.9536   -9.4288 C   0  0  0  0  0  0  0  0  0  0  0  0
   27.3210  -20.4874   -9.3824 C   0  0  0  0  0  0  0  0  0  0  0  0
   23.9503  -21.3178  -11.6820 C   0  0  0  0  0  0  0  0  0  0  0  0
   23.4479  -21.7189  -10.4550 O   0  0  0  0  0  0  0  0  0  0  0  0
   23.2233  -20.5618  -12.3624 O   0  0  0  0  0  0  0  0  0  0  0  0
  2  3  1  1
  2  1  1  0
  4  2  1  0
  5  4  1  0
  5  6  1  6
  7  5  1  0
  8  7  2  0
  9  7  1  0
  9 13  1  0
 10  9  1  0
 11 10  1  0
 11 12  1  0
 12 13  1  0
 13 14  1  1
 14 15  2  0
 16 14  1  0
 17 16  1  0
 17 28  1  0
 17 18  1  6
 19 18  1  0
 20 19  2  0
 21 22  1  0
 21 20  1  0
 22 27  2  0
 23 22  1  0
 23 24  2  0
 24 25  1  0
 25 26  2  0
 27 19  1  0
 27 26  1  0
 28 30  2  0
 28 29  1  0
M  END
$$$$
