RHD.pdb
     RDKit          3D

 30 30  0  0  1  0  0  0  0  0999 V2000
   18.5492  -14.2739   17.7176 N   0  0  0  0  0  0  0  0  0  0  0  0
   17.8191  -13.5591   16.7197 C   0  0  0  0  0  0  0  0  0  0  0  0
   18.2676  -13.4277   15.5190 N   0  0  0  0  0  0  0  0  0  0  0  0
   16.5712  -12.9775   17.0509 N   0  0  0  0  0  0  0  0  0  0  0  0
   15.7612  -13.6547   18.0683 C   0  0  0  0  0  0  0  0  0  0  0  0
   14.7492  -14.5057   17.3597 C   0  0  0  0  0  0  0  0  0  0  0  0
   13.9598  -15.3224   18.3423 C   0  0  0  0  0  0  0  0  0  0  0  0
   12.4876  -15.1907   18.0552 C   0  0  2  0  0  0  0  0  0  0  0  0
   12.2726  -14.1127   17.1072 N   0  0  0  0  0  0  0  0  0  0  0  0
   11.7291  -14.8942   19.3112 C   0  0  0  0  0  0  0  0  0  0  0  0
   11.8958  -13.7653   19.8141 O   0  0  0  0  0  0  0  0  0  0  0  0
   17.7847  -12.8481   14.8119 N   0  0  0  0  0  0  0  0  0  0  0  0
   10.8774  -15.8681   19.8694 C   0  0  1  0  0  0  0  0  0  0  0  0
   10.1159  -15.5357   21.0886 C   0  0  0  0  0  0  0  0  0  0  0  0
    8.6707  -15.5590   20.6943 C   0  0  0  0  0  0  0  0  0  0  0  0
    8.2719  -14.4711   19.7879 C   0  0  0  0  0  0  0  0  0  0  0  0
    7.9286  -13.1682   19.9876 N   0  0  0  0  0  0  0  0  0  0  0  0
    7.7035  -12.6057   18.7770 C   0  0  0  0  0  0  0  0  0  0  0  0
    7.9008  -13.5277   17.8438 N   0  0  0  0  0  0  0  0  0  0  0  0
    8.2481  -14.6704   18.4400 C   0  0  0  0  0  0  0  0  0  0  0  0
   10.3758  -16.7136   21.9994 O   0  0  0  0  0  0  0  0  0  0  0  0
   10.8029  -17.8201   21.6012 N   0  0  0  0  0  0  0  0  0  0  0  0
   10.1356  -16.6002   23.3843 C   0  0  1  0  0  0  0  0  0  0  0  0
   10.8196  -17.4989   24.3316 C   0  0  0  0  0  0  0  0  0  0  0  0
   12.2726  -17.2783   24.1140 C   0  0  0  0  0  0  0  0  0  0  0  0
   13.2044  -18.2151   24.7047 O   0  0  0  0  0  0  0  0  0  0  0  0
   14.2964  -17.8744   25.1926 C   0  0  0  0  0  0  0  0  0  0  0  0
   10.3176  -17.2903   25.6840 O   0  0  0  0  0  0  0  0  0  0  0  0
   10.6487  -18.0125   26.6355 O   0  0  0  0  0  0  0  0  0  0  0  0
   12.8835  -19.5658   24.7388 O   0  0  0  0  0  0  0  0  0  0  0  0
  2  3  2  0
  2  1  1  0
  4  2  1  0
  5  4  1  0
  6  5  1  0
  7  6  1  0
  8  7  1  0
  8  9  1  6
 10 11  2  0
 10  8  1  0
 12 10  1  0
 13 20  1  0
 13 12  1  0
 13 14  1  1
 15 14  1  0
 16 15  2  0
 17 18  1  0
 17 16  1  0
 18 19  2  0
 19 15  1  0
 20 21  2  0
 22 23  1  0
 22 20  1  0
 23 24  1  1
 24 25  1  0
 25 26  2  0
 25 29  1  0
 27 23  1  0
 28 27  2  0
 30 27  1  0
M  END
$$$$
