RHD.pdb
     RDKit          3D

 30 30  0  0  1  0  0  0  0  0999 V2000
    9.6474  -14.7858   14.9172 N   0  0  0  0  0  0  0  0  0  0  0  0
    9.2665  -16.0964   14.4967 C   0  0  0  0  0  0  0  0  0  0  0  0
    8.1632  -16.3096   13.8661 N   0  0  0  0  0  0  0  0  0  0  0  0
   10.1170  -17.1935   14.7764 N   0  0  0  0  0  0  0  0  0  0  0  0
   11.1918  -16.9814   15.7509 C   0  0  0  0  0  0  0  0  0  0  0  0
   10.7687  -17.6077   17.0467 C   0  0  0  0  0  0  0  0  0  0  0  0
   11.8705  -17.5213   18.0637 C   0  0  0  0  0  0  0  0  0  0  0  0
   11.4278  -18.1536   19.3565 C   0  0  2  0  0  0  0  0  0  0  0  0
   10.1576  -18.8273   19.1574 N   0  0  0  0  0  0  0  0  0  0  0  0
   11.2678  -17.1164   20.4239 C   0  0  0  0  0  0  0  0  0  0  0  0
   12.2928  -16.4867   20.7525 O   0  0  0  0  0  0  0  0  0  0  0  0
    7.9087  -17.2438   13.5036 N   0  0  0  0  0  0  0  0  0  0  0  0
   10.0050  -16.8903   21.0064 C   0  0  1  0  0  0  0  0  0  0  0  0
    9.8872  -15.8981   22.0922 C   0  0  0  0  0  0  0  0  0  0  0  0
    8.5432  -15.2577   21.9249 C   0  0  0  0  0  0  0  0  0  0  0  0
    8.4534  -14.3238   20.7918 C   0  0  0  0  0  0  0  0  0  0  0  0
    9.3307  -13.9478   19.8201 N   0  0  0  0  0  0  0  0  0  0  0  0
    8.6931  -13.0868   18.9927 C   0  0  0  0  0  0  0  0  0  0  0  0
    7.4512  -12.9273   19.4308 N   0  0  0  0  0  0  0  0  0  0  0  0
    7.2861  -13.6730   20.5256 C   0  0  0  0  0  0  0  0  0  0  0  0
    9.8540  -16.7459   23.3431 O   0  0  0  0  0  0  0  0  0  0  0  0
    8.9107  -17.5127   23.6391 N   0  0  0  0  0  0  0  0  0  0  0  0
   10.9282  -16.6985   24.2553 C   0  0  1  0  0  0  0  0  0  0  0  0
   10.9425  -17.5877   25.4309 C   0  0  0  0  0  0  0  0  0  0  0  0
   12.2553  -18.2821   25.3911 C   0  0  0  0  0  0  0  0  0  0  0  0
   12.2676  -19.7135   25.1767 O   0  0  0  0  0  0  0  0  0  0  0  0
   11.4947  -20.4963   25.7569 C   0  0  0  0  0  0  0  0  0  0  0  0
   10.6317  -16.8368   26.6409 O   0  0  0  0  0  0  0  0  0  0  0  0
   10.6667  -15.5984   26.6831 O   0  0  0  0  0  0  0  0  0  0  0  0
   13.1790  -20.2611   24.2834 O   0  0  0  0  0  0  0  0  0  0  0  0
  2  3  2  0
  2  1  1  0
  4  2  1  0
  5  4  1  0
  6  5  1  0
  7  6  1  0
  8  7  1  0
  8  9  1  6
 10 11  2  0
 10  8  1  0
 12 10  1  0
 13 20  1  0
 13 12  1  0
 13 14  1  6
 15 14  1  0
 16 15  2  0
 17 18  1  0
 17 16  1  0
 18 19  2  0
 19 15  1  0
 20 21  2  0
 22 23  1  0
 22 20  1  0
 23 24  1  1
 24 25  1  0
 25 26  2  0
 25 29  1  0
 27 23  1  0
 28 27  2  0
 30 27  1  0
M  END
$$$$
