RHD.pdb
     RDKit          3D

 30 30  0  0  1  0  0  0  0  0999 V2000
   13.3744  -20.6712   13.5071 N   0  0  0  0  0  0  0  0  0  0  0  0
   12.0121  -20.6690   13.0784 C   0  0  0  0  0  0  0  0  0  0  0  0
   11.6369  -21.2962   12.0172 N   0  0  0  0  0  0  0  0  0  0  0  0
   11.0444  -19.9622   13.8329 N   0  0  0  0  0  0  0  0  0  0  0  0
   11.5305  -19.1109   14.9232 C   0  0  0  0  0  0  0  0  0  0  0  0
   10.3412  -18.4564   15.5617 C   0  0  0  0  0  0  0  0  0  0  0  0
   10.7729  -17.5101   16.6450 C   0  0  0  0  0  0  0  0  0  0  0  0
   10.6600  -18.1804   17.9886 C   0  0  2  0  0  0  0  0  0  0  0  0
    9.3292  -18.7394   18.1417 N   0  0  0  0  0  0  0  0  0  0  0  0
   10.9064  -17.1984   19.0910 C   0  0  0  0  0  0  0  0  0  0  0  0
   12.0364  -16.6725   19.1318 O   0  0  0  0  0  0  0  0  0  0  0  0
   10.6867  -21.1912   11.6234 N   0  0  0  0  0  0  0  0  0  0  0  0
    9.8873  -16.9072   20.0194 C   0  0  1  0  0  0  0  0  0  0  0  0
   10.1836  -15.9971   21.1423 C   0  0  0  0  0  0  0  0  0  0  0  0
    8.8569  -15.5358   21.6635 C   0  0  0  0  0  0  0  0  0  0  0  0
    8.1874  -14.5359   20.8173 C   0  0  0  0  0  0  0  0  0  0  0  0
    8.5422  -13.8983   19.6671 N   0  0  0  0  0  0  0  0  0  0  0  0
    7.5079  -13.1100   19.2909 C   0  0  0  0  0  0  0  0  0  0  0  0
    6.5313  -13.2491   20.1779 N   0  0  0  0  0  0  0  0  0  0  0  0
    6.9263  -14.1138   21.1150 C   0  0  0  0  0  0  0  0  0  0  0  0
   10.8078  -16.9048   22.1772 O   0  0  0  0  0  0  0  0  0  0  0  0
   10.9916  -18.1306   22.0075 N   0  0  0  0  0  0  0  0  0  0  0  0
   11.2201  -16.3790   23.4190 C   0  0  1  0  0  0  0  0  0  0  0  0
   12.2669  -17.0601   24.2019 C   0  0  0  0  0  0  0  0  0  0  0  0
   13.5523  -16.4650   23.7539 C   0  0  0  0  0  0  0  0  0  0  0  0
   14.7843  -17.0414   24.2489 O   0  0  0  0  0  0  0  0  0  0  0  0
   14.8192  -18.0217   25.0134 C   0  0  0  0  0  0  0  0  0  0  0  0
   11.9677  -16.9842   25.6264 O   0  0  0  0  0  0  0  0  0  0  0  0
   12.5444  -17.6907   26.4661 O   0  0  0  0  0  0  0  0  0  0  0  0
   15.9985  -16.4884   23.8639 O   0  0  0  0  0  0  0  0  0  0  0  0
  2  3  2  0
  2  1  1  0
  4  2  1  0
  5  4  1  0
  6  5  1  0
  7  6  1  0
  8  7  1  0
  8  9  1  1
 10 11  2  0
 10  8  1  0
 12 10  1  0
 13 20  1  0
 13 12  1  0
 13 14  1  6
 15 14  1  0
 16 15  2  0
 17 18  1  0
 17 16  1  0
 18 19  2  0
 19 15  1  0
 20 21  2  0
 22 23  1  0
 22 20  1  0
 23 24  1  1
 24 25  1  0
 25 26  2  0
 25 29  1  0
 27 23  1  0
 28 27  2  0
 30 27  1  0
M  END
$$$$
