RHD.pdb
     RDKit          3D

 30 30  0  0  1  0  0  0  0  0999 V2000
    7.0603  -13.3955   13.5328 N   0  0  0  0  0  0  0  0  0  0  0  0
    8.3872  -13.4705   14.0556 C   0  0  0  0  0  0  0  0  0  0  0  0
    9.4033  -13.6816   13.2919 N   0  0  0  0  0  0  0  0  0  0  0  0
    8.5991  -13.3102   15.4466 N   0  0  0  0  0  0  0  0  0  0  0  0
    8.1558  -14.3971   16.3252 C   0  0  0  0  0  0  0  0  0  0  0  0
    7.3766  -13.7884   17.4534 C   0  0  0  0  0  0  0  0  0  0  0  0
    8.2494  -13.5984   18.6607 C   0  0  0  0  0  0  0  0  0  0  0  0
    8.4424  -14.9135   19.3680 C   0  0  2  0  0  0  0  0  0  0  0  0
    7.1938  -15.6538   19.3654 N   0  0  0  0  0  0  0  0  0  0  0  0
    8.8758  -14.6930   20.7837 C   0  0  0  0  0  0  0  0  0  0  0  0
    9.8793  -13.9734   20.9577 O   0  0  0  0  0  0  0  0  0  0  0  0
   10.3552  -13.8235   13.6697 N   0  0  0  0  0  0  0  0  0  0  0  0
    8.1602  -15.2860   21.8427 C   0  0  1  0  0  0  0  0  0  0  0  0
    8.6322  -15.0816   23.2256 C   0  0  0  0  0  0  0  0  0  0  0  0
    7.4201  -15.1954   24.0988 C   0  0  0  0  0  0  0  0  0  0  0  0
    7.0097  -13.9335   24.7338 C   0  0  0  0  0  0  0  0  0  0  0  0
    7.4880  -12.6595   24.6741 N   0  0  0  0  0  0  0  0  0  0  0  0
    6.6823  -11.8755   25.4283 C   0  0  0  0  0  0  0  0  0  0  0  0
    5.7250  -12.6342   25.9457 N   0  0  0  0  0  0  0  0  0  0  0  0
    5.9073  -13.8908   25.5338 C   0  0  0  0  0  0  0  0  0  0  0  0
    9.5119  -16.2841   23.4799 O   0  0  0  0  0  0  0  0  0  0  0  0
    9.3938  -17.3730   22.8753 N   0  0  0  0  0  0  0  0  0  0  0  0
   10.5364  -16.2161   24.4466 C   0  0  1  0  0  0  0  0  0  0  0  0
   11.3928  -17.3881   24.7031 C   0  0  0  0  0  0  0  0  0  0  0  0
   12.7606  -16.9823   24.2885 C   0  0  0  0  0  0  0  0  0  0  0  0
   13.8602  -17.8755   24.5848 O   0  0  0  0  0  0  0  0  0  0  0  0
   13.8815  -19.0692   24.2366 C   0  0  0  0  0  0  0  0  0  0  0  0
   11.2305  -17.8462   26.0772 O   0  0  0  0  0  0  0  0  0  0  0  0
   11.7798  -18.8713   26.5063 O   0  0  0  0  0  0  0  0  0  0  0  0
   14.9557  -17.3970   25.2914 O   0  0  0  0  0  0  0  0  0  0  0  0
  2  3  2  0
  2  1  1  0
  4  2  1  0
  5  4  1  0
  6  5  1  0
  7  6  1  0
  8  7  1  0
  8  9  1  1
 10 11  2  0
 10  8  1  0
 12 10  1  0
 13 20  1  0
 13 12  1  0
 13 14  1  1
 15 14  1  0
 16 15  2  0
 17 18  1  0
 17 16  1  0
 18 19  2  0
 19 15  1  0
 20 21  2  0
 22 23  1  0
 22 20  1  0
 23 24  1  1
 24 25  1  0
 25 26  2  0
 25 29  1  0
 27 23  1  0
 28 27  2  0
 30 27  1  0
M  END
$$$$
