RHD.pdb
     RDKit          3D

 30 30  0  0  1  0  0  0  0  0999 V2000
   10.2826  -16.6780   13.5585 N   0  0  0  0  0  0  0  0  0  0  0  0
    8.9640  -17.1192   13.8848 C   0  0  0  0  0  0  0  0  0  0  0  0
    8.3413  -17.9819   13.1582 N   0  0  0  0  0  0  0  0  0  0  0  0
    8.3189  -16.5998   15.0334 N   0  0  0  0  0  0  0  0  0  0  0  0
    9.0952  -15.7017   15.8939 C   0  0  0  0  0  0  0  0  0  0  0  0
    9.6652  -16.5180   17.0161 C   0  0  0  0  0  0  0  0  0  0  0  0
   10.8382  -15.8179   17.6403 C   0  0  0  0  0  0  0  0  0  0  0  0
   11.2607  -16.5390   18.8927 C   0  0  2  0  0  0  0  0  0  0  0  0
   10.4570  -17.7364   19.0579 N   0  0  0  0  0  0  0  0  0  0  0  0
   11.0819  -15.6622   20.0927 C   0  0  0  0  0  0  0  0  0  0  0  0
   11.7394  -14.6029   20.1165 O   0  0  0  0  0  0  0  0  0  0  0  0
    7.3708  -18.2745   13.3622 N   0  0  0  0  0  0  0  0  0  0  0  0
   10.2045  -16.0476   21.1256 C   0  0  1  0  0  0  0  0  0  0  0  0
   10.1277  -15.2181   22.3434 C   0  0  0  0  0  0  0  0  0  0  0  0
    8.6892  -14.8252   22.4877 C   0  0  0  0  0  0  0  0  0  0  0  0
    8.2057  -13.9023   21.4491 C   0  0  0  0  0  0  0  0  0  0  0  0
    8.8097  -13.2793   20.3991 N   0  0  0  0  0  0  0  0  0  0  0  0
    7.8646  -12.5775   19.7306 C   0  0  0  0  0  0  0  0  0  0  0  0
    6.7007  -12.7552   20.3417 N   0  0  0  0  0  0  0  0  0  0  0  0
    6.8881  -13.5594   21.3906 C   0  0  0  0  0  0  0  0  0  0  0  0
   10.4660  -16.1873   23.4528 O   0  0  0  0  0  0  0  0  0  0  0  0
   10.2062  -15.9822   24.6593 N   0  0  0  0  0  0  0  0  0  0  0  0
   11.1122  -17.4043   23.1527 C   0  0  1  0  0  0  0  0  0  0  0  0
   11.5275  -18.3107   24.2384 C   0  0  0  0  0  0  0  0  0  0  0  0
   10.7620  -19.5661   24.0260 C   0  0  0  0  0  0  0  0  0  0  0  0
   10.3303  -20.3113   25.1893 O   0  0  0  0  0  0  0  0  0  0  0  0
   10.5799  -19.9589   26.3556 C   0  0  0  0  0  0  0  0  0  0  0  0
   12.9801  -18.4246   24.2789 O   0  0  0  0  0  0  0  0  0  0  0  0
   13.5693  -19.1304   25.1102 O   0  0  0  0  0  0  0  0  0  0  0  0
    9.6003  -21.4801   25.0179 O   0  0  0  0  0  0  0  0  0  0  0  0
  2  3  2  0
  2  1  1  0
  4  2  1  0
  5  4  1  0
  6  5  1  0
  7  6  1  0
  8  7  1  0
  8  9  1  1
 10 11  2  0
 10  8  1  0
 12 10  1  0
 13 20  1  0
 13 12  1  0
 13 14  1  6
 15 14  1  0
 16 15  2  0
 17 18  1  0
 17 16  1  0
 18 19  2  0
 19 15  1  0
 20 21  2  0
 22 23  1  0
 22 20  1  0
 23 24  1  1
 24 25  1  0
 25 26  2  0
 25 29  1  0
 27 23  1  0
 28 27  2  0
 30 27  1  0
M  END
$$$$
