RHD.pdb
     RDKit          3D

 30 30  0  0  1  0  0  0  0  0999 V2000
    8.9313  -16.0618   14.7500 N   0  0  0  0  0  0  0  0  0  0  0  0
    8.6611  -14.7929   15.3470 C   0  0  0  0  0  0  0  0  0  0  0  0
    9.0117  -13.6908   14.7789 N   0  0  0  0  0  0  0  0  0  0  0  0
    7.9920  -14.7367   16.5937 N   0  0  0  0  0  0  0  0  0  0  0  0
    7.8135  -13.4154   17.2036 C   0  0  0  0  0  0  0  0  0  0  0  0
    7.1317  -13.6070   18.5261 C   0  0  0  0  0  0  0  0  0  0  0  0
    8.0989  -13.4044   19.6571 C   0  0  0  0  0  0  0  0  0  0  0  0
    8.5554  -14.7373   20.1883 C   0  0  2  0  0  0  0  0  0  0  0  0
    7.4555  -15.6831   20.1361 N   0  0  0  0  0  0  0  0  0  0  0  0
    9.0221  -14.6095   21.6048 C   0  0  0  0  0  0  0  0  0  0  0  0
    9.9319  -13.7852   21.8236 O   0  0  0  0  0  0  0  0  0  0  0  0
    8.7448  -12.7670   15.1591 N   0  0  0  0  0  0  0  0  0  0  0  0
    8.4383  -15.3987   22.6155 C   0  0  1  0  0  0  0  0  0  0  0  0
    9.0355  -15.3868   23.9647 C   0  0  0  0  0  0  0  0  0  0  0  0
    7.8914  -15.4959   24.9258 C   0  0  0  0  0  0  0  0  0  0  0  0
    7.2817  -14.2079   25.2912 C   0  0  0  0  0  0  0  0  0  0  0  0
    7.6071  -12.9122   25.0255 N   0  0  0  0  0  0  0  0  0  0  0  0
    6.6539  -12.1219   25.5728 C   0  0  0  0  0  0  0  0  0  0  0  0
    5.7552  -12.8982   26.1640 N   0  0  0  0  0  0  0  0  0  0  0  0
    6.1202  -14.1721   26.0030 C   0  0  0  0  0  0  0  0  0  0  0  0
    9.8194  -16.6782   24.0152 O   0  0  0  0  0  0  0  0  0  0  0  0
    9.4741  -17.7253   23.4239 N   0  0  0  0  0  0  0  0  0  0  0  0
   11.0140  -16.7487   24.7611 C   0  0  1  0  0  0  0  0  0  0  0  0
   11.7860  -18.0036   24.8079 C   0  0  0  0  0  0  0  0  0  0  0  0
   13.1682  -17.6381   24.4040 C   0  0  0  0  0  0  0  0  0  0  0  0
   14.1945  -18.6564   24.4725 O   0  0  0  0  0  0  0  0  0  0  0  0
   14.0319  -19.8170   24.0564 C   0  0  0  0  0  0  0  0  0  0  0  0
   11.6286  -18.6500   26.1047 O   0  0  0  0  0  0  0  0  0  0  0  0
   11.1303  -18.0709   27.0809 O   0  0  0  0  0  0  0  0  0  0  0  0
   15.4291  -18.3437   25.0262 O   0  0  0  0  0  0  0  0  0  0  0  0
  2  3  2  0
  2  1  1  0
  4  2  1  0
  5  4  1  0
  6  5  1  0
  7  6  1  0
  8  7  1  0
  8  9  1  1
 10 11  2  0
 10  8  1  0
 12 10  1  0
 13 20  1  0
 13 12  1  0
 13 14  1  1
 15 14  1  0
 16 15  2  0
 17 18  1  0
 17 16  1  0
 18 19  2  0
 19 15  1  0
 20 21  2  0
 22 23  1  0
 22 20  1  0
 23 24  1  1
 24 25  1  0
 25 26  2  0
 25 29  1  0
 27 23  1  0
 28 27  2  0
 30 27  1  0
M  END
$$$$
