RHD.pdb
     RDKit          3D

 30 30  0  0  1  0  0  0  0  0999 V2000
   17.4770  -12.0217   16.1776 N   0  0  0  0  0  0  0  0  0  0  0  0
   17.4565  -12.7514   17.4051 C   0  0  0  0  0  0  0  0  0  0  0  0
   18.4283  -12.6822   18.2483 N   0  0  0  0  0  0  0  0  0  0  0  0
   16.3444  -13.5735   17.7095 N   0  0  0  0  0  0  0  0  0  0  0  0
   15.8986  -14.5135   16.6763 C   0  0  0  0  0  0  0  0  0  0  0  0
   15.0390  -15.5502   17.3371 C   0  0  0  0  0  0  0  0  0  0  0  0
   14.2533  -14.9482   18.4666 C   0  0  0  0  0  0  0  0  0  0  0  0
   12.8149  -15.3854   18.3829 C   0  0  2  0  0  0  0  0  0  0  0  0
   12.1666  -14.7113   17.2729 N   0  0  0  0  0  0  0  0  0  0  0  0
   12.0874  -15.0524   19.6480 C   0  0  0  0  0  0  0  0  0  0  0  0
   12.4580  -14.0283   20.2555 O   0  0  0  0  0  0  0  0  0  0  0  0
   18.4498  -13.2523   19.1106 N   0  0  0  0  0  0  0  0  0  0  0  0
   11.0396  -15.8791   20.0997 C   0  0  1  0  0  0  0  0  0  0  0  0
   10.3661  -15.5478   21.3700 C   0  0  0  0  0  0  0  0  0  0  0  0
    8.8960  -15.5966   21.0851 C   0  0  0  0  0  0  0  0  0  0  0  0
    8.4140  -14.5246   20.2004 C   0  0  0  0  0  0  0  0  0  0  0  0
    7.9037  -14.5151   18.9375 N   0  0  0  0  0  0  0  0  0  0  0  0
    7.5704  -13.2391   18.6318 C   0  0  0  0  0  0  0  0  0  0  0  0
    7.8616  -12.4696   19.6723 N   0  0  0  0  0  0  0  0  0  0  0  0
    8.3761  -13.2345   20.6378 C   0  0  0  0  0  0  0  0  0  0  0  0
   10.7121  -16.7136   22.2676 O   0  0  0  0  0  0  0  0  0  0  0  0
   11.2415  -17.7717   21.8610 N   0  0  0  0  0  0  0  0  0  0  0  0
   10.4381  -16.6449   23.6492 C   0  0  1  0  0  0  0  0  0  0  0  0
   11.0387  -17.6232   24.5739 C   0  0  0  0  0  0  0  0  0  0  0  0
   12.5083  -17.4636   24.4256 C   0  0  0  0  0  0  0  0  0  0  0  0
   13.3731  -18.2550   25.2747 O   0  0  0  0  0  0  0  0  0  0  0  0
   13.9705  -17.7901   26.2614 C   0  0  0  0  0  0  0  0  0  0  0  0
   10.4909  -17.4593   25.9146 O   0  0  0  0  0  0  0  0  0  0  0  0
   10.1374  -16.3574   26.3590 O   0  0  0  0  0  0  0  0  0  0  0  0
   13.5589  -19.6018   24.9920 O   0  0  0  0  0  0  0  0  0  0  0  0
  2  3  2  0
  2  1  1  0
  4  2  1  0
  5  4  1  0
  6  5  1  0
  7  6  1  0
  8  7  1  0
  8  9  1  6
 10 11  2  0
 10  8  1  0
 12 10  1  0
 13 20  1  0
 13 12  1  0
 13 14  1  1
 15 14  1  0
 16 15  2  0
 17 18  1  0
 17 16  1  0
 18 19  2  0
 19 15  1  0
 20 21  2  0
 22 23  1  0
 22 20  1  0
 23 24  1  1
 24 25  1  0
 25 26  2  0
 25 29  1  0
 27 23  1  0
 28 27  2  0
 30 27  1  0
M  END
$$$$
