RHD.pdb
     RDKit          3D

 30 30  0  0  1  0  0  0  0  0999 V2000
    9.7953  -14.4011   15.6282 N   0  0  0  0  0  0  0  0  0  0  0  0
    8.4284  -14.0508   15.4075 C   0  0  0  0  0  0  0  0  0  0  0  0
    7.9261  -14.0036   14.2219 N   0  0  0  0  0  0  0  0  0  0  0  0
    7.5990  -13.7462   16.5141 N   0  0  0  0  0  0  0  0  0  0  0  0
    8.2221  -13.7387   17.8412 C   0  0  0  0  0  0  0  0  0  0  0  0
    7.1477  -13.4688   18.8528 C   0  0  0  0  0  0  0  0  0  0  0  0
    7.7309  -13.3648   20.2329 C   0  0  0  0  0  0  0  0  0  0  0  0
    8.4356  -14.6462   20.5915 C   0  0  2  0  0  0  0  0  0  0  0  0
    7.5233  -15.7635   20.4292 N   0  0  0  0  0  0  0  0  0  0  0  0
    8.9123  -14.6077   22.0099 C   0  0  0  0  0  0  0  0  0  0  0  0
    9.6238  -13.6370   22.3365 O   0  0  0  0  0  0  0  0  0  0  0  0
    6.9224  -13.8187   14.0569 N   0  0  0  0  0  0  0  0  0  0  0  0
    8.5544  -15.6359   22.9043 C   0  0  1  0  0  0  0  0  0  0  0  0
    9.0743  -15.5943   24.2844 C   0  0  0  0  0  0  0  0  0  0  0  0
    7.8743  -15.6250   25.1809 C   0  0  0  0  0  0  0  0  0  0  0  0
    7.3883  -14.2978   25.5889 C   0  0  0  0  0  0  0  0  0  0  0  0
    7.7988  -13.0283   25.3145 N   0  0  0  0  0  0  0  0  0  0  0  0
    6.9419  -12.1727   25.9197 C   0  0  0  0  0  0  0  0  0  0  0  0
    6.0192  -12.8836   26.5547 N   0  0  0  0  0  0  0  0  0  0  0  0
    6.2740  -14.1800   26.3645 C   0  0  0  0  0  0  0  0  0  0  0  0
    9.8038  -16.9105   24.4267 O   0  0  0  0  0  0  0  0  0  0  0  0
    9.3707  -17.9975   23.9838 N   0  0  0  0  0  0  0  0  0  0  0  0
   11.0468  -16.9591   25.0908 C   0  0  1  0  0  0  0  0  0  0  0  0
   11.7074  -18.2542   25.3340 C   0  0  0  0  0  0  0  0  0  0  0  0
   13.1261  -18.0602   24.9377 C   0  0  0  0  0  0  0  0  0  0  0  0
   13.4023  -17.4692   23.6456 O   0  0  0  0  0  0  0  0  0  0  0  0
   14.2365  -16.5627   23.4751 C   0  0  0  0  0  0  0  0  0  0  0  0
   11.4609  -18.7030   26.6987 O   0  0  0  0  0  0  0  0  0  0  0  0
   11.8578  -19.7989   27.1208 O   0  0  0  0  0  0  0  0  0  0  0  0
   12.7136  -17.9217   22.5279 O   0  0  0  0  0  0  0  0  0  0  0  0
  2  3  2  0
  2  1  1  0
  4  2  1  0
  5  4  1  0
  6  5  1  0
  7  6  1  0
  8  7  1  0
  8  9  1  1
 10 11  2  0
 10  8  1  0
 12 10  1  0
 13 20  1  0
 13 12  1  0
 13 14  1  1
 15 14  1  0
 16 15  2  0
 17 18  1  0
 17 16  1  0
 18 19  2  0
 19 15  1  0
 20 21  2  0
 22 23  1  0
 22 20  1  0
 23 24  1  1
 24 25  1  0
 25 26  2  0
 25 29  1  0
 27 23  1  0
 28 27  2  0
 30 27  1  0
M  END
$$$$
