RHD.pdb
     RDKit          3D

 30 30  0  0  1  0  0  0  0  0999 V2000
   17.0409  -20.2518   16.5502 N   0  0  0  0  0  0  0  0  0  0  0  0
   15.9652  -19.7383   15.7636 C   0  0  0  0  0  0  0  0  0  0  0  0
   15.6624  -20.2469   14.6191 N   0  0  0  0  0  0  0  0  0  0  0  0
   15.2085  -18.6432   16.2468 N   0  0  0  0  0  0  0  0  0  0  0  0
   14.3541  -17.9384   15.2861 C   0  0  0  0  0  0  0  0  0  0  0  0
   12.9541  -17.9431   15.8249 C   0  0  0  0  0  0  0  0  0  0  0  0
   12.8329  -17.0133   16.9981 C   0  0  0  0  0  0  0  0  0  0  0  0
   11.4267  -17.0441   17.5356 C   0  0  2  0  0  0  0  0  0  0  0  0
   10.5105  -16.5437   16.5271 N   0  0  0  0  0  0  0  0  0  0  0  0
   11.3119  -16.1952   18.7632 C   0  0  0  0  0  0  0  0  0  0  0  0
   12.0113  -15.1634   18.7992 O   0  0  0  0  0  0  0  0  0  0  0  0
   14.8536  -19.9156   14.0668 N   0  0  0  0  0  0  0  0  0  0  0  0
   10.4453  -16.5752   19.8071 C   0  0  1  0  0  0  0  0  0  0  0  0
   10.3702  -15.7313   21.0151 C   0  0  0  0  0  0  0  0  0  0  0  0
    8.9136  -15.4694   21.2482 C   0  0  0  0  0  0  0  0  0  0  0  0
    8.3350  -14.4393   20.3717 C   0  0  0  0  0  0  0  0  0  0  0  0
    8.8459  -13.6728   19.3683 N   0  0  0  0  0  0  0  0  0  0  0  0
    7.8393  -12.9218   18.8630 C   0  0  0  0  0  0  0  0  0  0  0  0
    6.7282  -13.2088   19.5284 N   0  0  0  0  0  0  0  0  0  0  0  0
    7.0099  -14.1313   20.4512 C   0  0  0  0  0  0  0  0  0  0  0  0
   10.8678  -16.6424   22.1137 O   0  0  0  0  0  0  0  0  0  0  0  0
   10.5986  -17.8623   22.1813 N   0  0  0  0  0  0  0  0  0  0  0  0
   11.6848  -16.1267   23.1409 C   0  0  1  0  0  0  0  0  0  0  0  0
   12.2055  -17.0187   24.1926 C   0  0  0  0  0  0  0  0  0  0  0  0
   13.5663  -16.5130   24.5082 C   0  0  0  0  0  0  0  0  0  0  0  0
   14.5664  -16.5368   23.4622 O   0  0  0  0  0  0  0  0  0  0  0  0
   14.3751  -17.0550   22.3480 C   0  0  0  0  0  0  0  0  0  0  0  0
   11.2621  -17.1047   25.3003 O   0  0  0  0  0  0  0  0  0  0  0  0
   10.2343  -16.4138   25.3542 O   0  0  0  0  0  0  0  0  0  0  0  0
   15.8076  -15.9582   23.6926 O   0  0  0  0  0  0  0  0  0  0  0  0
  2  3  2  0
  2  1  1  0
  4  2  1  0
  5  4  1  0
  6  5  1  0
  7  6  1  0
  8  7  1  0
  8  9  1  6
 10 11  2  0
 10  8  1  0
 12 10  1  0
 13 20  1  0
 13 12  1  0
 13 14  1  6
 15 14  1  0
 16 15  2  0
 17 18  1  0
 17 16  1  0
 18 19  2  0
 19 15  1  0
 20 21  2  0
 22 23  1  0
 22 20  1  0
 23 24  1  1
 24 25  1  0
 25 26  2  0
 25 29  1  0
 27 23  1  0
 28 27  2  0
 30 27  1  0
M  END
$$$$
