RHD.pdb
     RDKit          3D

 30 30  0  0  1  0  0  0  0  0999 V2000
    7.7853  -12.3874   19.9690 N   0  0  0  0  0  0  0  0  0  0  0  0
    8.2321  -12.7647   18.6660 C   0  0  0  0  0  0  0  0  0  0  0  0
    8.8273  -11.9281   17.8875 N   0  0  0  0  0  0  0  0  0  0  0  0
    8.0189  -14.0888   18.2116 N   0  0  0  0  0  0  0  0  0  0  0  0
    7.4211  -15.0373   19.1565 C   0  0  0  0  0  0  0  0  0  0  0  0
    8.2713  -16.2732   19.1683 C   0  0  0  0  0  0  0  0  0  0  0  0
    9.4966  -16.0674   20.0121 C   0  0  0  0  0  0  0  0  0  0  0  0
    9.6413  -17.2000   20.9936 C   0  0  2  0  0  0  0  0  0  0  0  0
    8.4338  -18.0055   20.9866 N   0  0  0  0  0  0  0  0  0  0  0  0
    9.8690  -16.6744   22.3765 C   0  0  0  0  0  0  0  0  0  0  0  0
   10.8060  -15.8644   22.5217 O   0  0  0  0  0  0  0  0  0  0  0  0
    9.0677  -12.1622   16.9095 N   0  0  0  0  0  0  0  0  0  0  0  0
    9.0446  -17.0970   23.4382 C   0  0  1  0  0  0  0  0  0  0  0  0
    9.3061  -16.5787   24.7947 C   0  0  0  0  0  0  0  0  0  0  0  0
    7.9679  -16.2284   25.3700 C   0  0  0  0  0  0  0  0  0  0  0  0
    7.5724  -14.8251   25.1743 C   0  0  0  0  0  0  0  0  0  0  0  0
    8.1847  -13.7545   24.5961 N   0  0  0  0  0  0  0  0  0  0  0  0
    7.3297  -12.7062   24.6486 C   0  0  0  0  0  0  0  0  0  0  0  0
    6.2124  -13.1066   25.2411 N   0  0  0  0  0  0  0  0  0  0  0  0
    6.3410  -14.3944   25.5682 C   0  0  0  0  0  0  0  0  0  0  0  0
    9.8383  -17.7834   25.5364 O   0  0  0  0  0  0  0  0  0  0  0  0
    9.5266  -18.9635   25.2614 N   0  0  0  0  0  0  0  0  0  0  0  0
   10.7399  -17.6104   26.6067 C   0  0  1  0  0  0  0  0  0  0  0  0
   11.2634  -18.7820   27.3321 C   0  0  0  0  0  0  0  0  0  0  0  0
   12.7379  -18.7354   27.1559 C   0  0  0  0  0  0  0  0  0  0  0  0
   13.3477  -19.6672   26.2312 O   0  0  0  0  0  0  0  0  0  0  0  0
   12.9458  -19.8326   25.0660 C   0  0  0  0  0  0  0  0  0  0  0  0
   10.7645  -18.7975   28.7016 O   0  0  0  0  0  0  0  0  0  0  0  0
   10.2105  -17.8168   29.2192 O   0  0  0  0  0  0  0  0  0  0  0  0
   14.4364  -20.4237   26.6446 O   0  0  0  0  0  0  0  0  0  0  0  0
  2  3  2  0
  2  1  1  0
  4  2  1  0
  5  4  1  0
  6  5  1  0
  7  6  1  0
  8  7  1  0
  8  9  1  1
 10 11  2  0
 10  8  1  0
 12 10  1  0
 13 20  1  0
 13 12  1  0
 13 14  1  1
 15 14  1  0
 16 15  2  0
 17 18  1  0
 17 16  1  0
 18 19  2  0
 19 15  1  0
 20 21  2  0
 22 23  1  0
 22 20  1  0
 23 24  1  1
 24 25  1  0
 25 26  2  0
 25 29  1  0
 27 23  1  0
 28 27  2  0
 30 27  1  0
M  END
$$$$
