RHD.pdb
     RDKit          3D

 30 30  0  0  1  0  0  0  0  0999 V2000
   13.3464  -18.9927   14.0218 N   0  0  0  0  0  0  0  0  0  0  0  0
   13.7579  -19.8433   15.0928 C   0  0  0  0  0  0  0  0  0  0  0  0
   13.5191  -21.1094   15.0798 N   0  0  0  0  0  0  0  0  0  0  0  0
   14.4455  -19.2885   16.1995 N   0  0  0  0  0  0  0  0  0  0  0  0
   13.9215  -18.0396   16.7610 C   0  0  0  0  0  0  0  0  0  0  0  0
   12.5319  -18.3060   17.2594 C   0  0  0  0  0  0  0  0  0  0  0  0
   12.2828  -17.5827   18.5518 C   0  0  0  0  0  0  0  0  0  0  0  0
   11.7872  -16.1884   18.2736 C   0  0  2  0  0  0  0  0  0  0  0  0
   12.7793  -15.4664   17.4981 N   0  0  0  0  0  0  0  0  0  0  0  0
   11.5372  -15.4519   19.5526 C   0  0  0  0  0  0  0  0  0  0  0  0
   12.3421  -14.5452   19.8445 O   0  0  0  0  0  0  0  0  0  0  0  0
   13.7367  -21.7183   15.8865 N   0  0  0  0  0  0  0  0  0  0  0  0
   10.4357  -15.7941   20.3619 C   0  0  2  0  0  0  0  0  0  0  0  0
   10.0310  -14.8744   21.4423 C   0  0  0  0  0  0  0  0  0  0  0  0
    8.6044  -14.5106   21.1647 C   0  0  0  0  0  0  0  0  0  0  0  0
    8.3972  -13.7935   19.8970 C   0  0  0  0  0  0  0  0  0  0  0  0
    8.9765  -12.6929   19.3416 N   0  0  0  0  0  0  0  0  0  0  0  0
    8.4285  -12.5056   18.1179 C   0  0  0  0  0  0  0  0  0  0  0  0
    7.5321  -13.4612   17.9100 N   0  0  0  0  0  0  0  0  0  0  0  0
    7.4990  -14.2556   18.9822 C   0  0  0  0  0  0  0  0  0  0  0  0
   10.0645  -15.7445   22.6778 O   0  0  0  0  0  0  0  0  0  0  0  0
    9.6330  -15.3833   23.7952 N   0  0  0  0  0  0  0  0  0  0  0  0
   10.6057  -17.0449   22.6095 C   0  0  2  0  0  0  0  0  0  0  0  0
   11.5541  -17.5084   23.6383 C   0  0  0  0  0  0  0  0  0  0  0  0
   12.8152  -16.7657   23.3833 C   0  0  0  0  0  0  0  0  0  0  0  0
   13.9358  -16.9920   24.2710 O   0  0  0  0  0  0  0  0  0  0  0  0
   15.1216  -16.8720   23.9161 C   0  0  0  0  0  0  0  0  0  0  0  0
   10.9692  -17.3754   24.9667 O   0  0  0  0  0  0  0  0  0  0  0  0
   10.3298  -16.3721   25.3150 O   0  0  0  0  0  0  0  0  0  0  0  0
   13.6979  -17.3620   25.5882 O   0  0  0  0  0  0  0  0  0  0  0  0
  2  3  2  0
  2  1  1  0
  4  2  1  0
  5  4  1  0
  6  5  1  0
  7  6  1  0
  8  7  1  0
  8  9  1  6
 10 11  2  0
 10  8  1  0
 12 10  1  0
 13 20  1  0
 13 12  1  0
 13 14  1  6
 15 14  1  0
 16 15  2  0
 17 18  1  0
 17 16  1  0
 18 19  2  0
 19 15  1  0
 20 21  2  0
 22 23  1  0
 22 20  1  0
 23 24  1  6
 24 25  1  0
 25 26  2  0
 25 29  1  0
 27 23  1  0
 28 27  2  0
 30 27  1  0
M  END
$$$$
