HGM.pdb
     RDKit          3D

 23 23  0  0  1  0  0  0  0  0999 V2000
   19.1667   -9.1671  -13.6018 N   0  0  0  0  0  0  0  0  0  0  0  0
   19.8107   -8.6176  -12.4494 C   0  0  1  0  0  0  0  0  0  0  0  0
   21.0317   -7.8499  -12.8949 C   0  0  0  0  0  0  0  0  0  0  0  0
   21.9477   -8.6490  -13.7261 C   0  0  0  0  0  0  0  0  0  0  0  0
   22.4387   -9.8955  -13.4693 C   0  0  0  0  0  0  0  0  0  0  0  0
   23.2366  -10.2472  -14.4889 N   0  0  0  0  0  0  0  0  0  0  0  0
   23.2413   -9.2396  -15.3613 C   0  0  0  0  0  0  0  0  0  0  0  0
   22.4553   -8.2575  -14.9025 N   0  0  0  0  0  0  0  0  0  0  0  0
   18.8650   -7.7389  -11.6924 C   0  0  0  0  0  0  0  0  0  0  0  0
   18.1899   -6.8657  -12.3045 O   0  0  0  0  0  0  0  0  0  0  0  0
   18.7463   -7.9083  -10.2863 N   0  0  0  0  0  0  0  0  0  0  0  0
   17.9266   -7.0519   -9.4916 C   0  0  0  0  0  0  0  0  0  0  0  0
   16.4809   -7.3509   -9.6032 C   0  0  0  0  0  0  0  0  0  0  0  0
   15.9972   -8.3066  -10.2570 O   0  0  0  0  0  0  0  0  0  0  0  0
   12.7456   -2.9422   -5.1491 C   0  0  0  0  0  0  0  0  0  0  0  0
   12.5416   -4.6097   -5.7841 S   0  0  0  0  0  0  0  0  0  0  0  0
   13.5737   -4.9321   -7.2235 C   0  0  0  0  0  0  0  0  0  0  0  0
   13.3902   -6.3074   -7.7337 C   0  0  0  0  0  0  0  0  0  0  0  0
   14.1383   -6.7043   -8.9549 C   0  0  2  0  0  0  0  0  0  0  0  0
   15.5637   -6.4959   -8.9213 N   0  0  0  0  0  0  0  0  0  0  0  0
   13.5574   -5.9586  -10.1017 C   0  0  0  0  0  0  0  0  0  0  0  0
   14.2119   -5.0228  -10.6097 O   0  0  0  0  0  0  0  0  0  0  0  0
   12.3057   -6.2707  -10.6278 O   0  0  0  0  0  0  0  0  0  0  0  0
  2  1  1  6
  2  9  1  0
  3  2  1  0
  4  3  1  0
  5  4  2  0
  6  7  1  0
  6  5  1  0
  7  8  2  0
  8  4  1  0
  9 10  2  0
 11  9  1  0
 11 12  1  0
 12 13  1  0
 13 14  2  0
 16 15  1  0
 17 16  1  0
 18 17  1  0
 19 18  1  1
 20 19  1  0
 20 13  1  0
 21 19  1  0
 22 21  2  0
 23 21  1  0
M  END
$$$$
