HGM.pdb
     RDKit          3D

 23 23  0  0  1  0  0  0  0  0999 V2000
   17.8535  -22.0778  -12.2838 N   0  0  0  0  0  0  0  0  0  0  0  0
   18.3287  -23.4264  -12.2955 C   0  0  1  0  0  0  0  0  0  0  0  0
   19.8360  -23.4111  -12.2142 C   0  0  0  0  0  0  0  0  0  0  0  0
   20.4742  -22.8065  -13.3956 C   0  0  0  0  0  0  0  0  0  0  0  0
   20.8896  -23.4319  -14.5344 C   0  0  0  0  0  0  0  0  0  0  0  0
   21.4147  -22.5058  -15.3506 N   0  0  0  0  0  0  0  0  0  0  0  0
   21.3273  -21.3288  -14.7314 C   0  0  0  0  0  0  0  0  0  0  0  0
   20.7531  -21.5035  -13.5346 N   0  0  0  0  0  0  0  0  0  0  0  0
   17.7331  -24.1994  -11.1608 C   0  0  0  0  0  0  0  0  0  0  0  0
   17.9552  -25.4374  -11.0571 O   0  0  0  0  0  0  0  0  0  0  0  0
   16.9220  -23.5157  -10.2149 N   0  0  0  0  0  0  0  0  0  0  0  0
   16.1952  -24.2125   -9.2036 C   0  0  0  0  0  0  0  0  0  0  0  0
   17.0536  -25.0411   -8.3269 C   0  0  0  0  0  0  0  0  0  0  0  0
   18.1047  -25.6192   -8.6955 O   0  0  0  0  0  0  0  0  0  0  0  0
   18.2561  -27.2674   -0.7278 C   0  0  0  0  0  0  0  0  0  0  0  0
   17.3837  -26.2545   -1.9271 S   0  0  0  0  0  0  0  0  0  0  0  0
   17.7112  -26.7572   -3.6246 C   0  0  0  0  0  0  0  0  0  0  0  0
   17.0714  -25.8484   -4.5994 C   0  0  0  0  0  0  0  0  0  0  0  0
   17.4026  -26.0227   -6.0375 C   0  0  2  0  0  0  0  0  0  0  0  0
   16.6656  -25.1993   -6.9624 N   0  0  0  0  0  0  0  0  0  0  0  0
   17.1948  -27.4545   -6.3777 C   0  0  0  0  0  0  0  0  0  0  0  0
   16.1037  -27.8067   -6.8754 O   0  0  0  0  0  0  0  0  0  0  0  0
   18.1789  -28.4159   -6.1588 O   0  0  0  0  0  0  0  0  0  0  0  0
  2  1  1  1
  2  9  1  0
  3  2  1  0
  4  3  1  0
  5  4  2  0
  6  7  1  0
  6  5  1  0
  7  8  2  0
  8  4  1  0
  9 10  2  0
 11  9  1  0
 11 12  1  0
 12 13  1  0
 13 14  2  0
 16 15  1  0
 17 16  1  0
 18 17  1  0
 19 18  1  1
 20 19  1  0
 20 13  1  0
 21 19  1  0
 22 21  2  0
 23 21  1  0
M  END
$$$$
