HGM.pdb
     RDKit          3D

 23 23  0  0  1  0  0  0  0  0999 V2000
   15.0944  -12.2243  -15.9450 N   0  0  0  0  0  0  0  0  0  0  0  0
   16.4972  -12.1171  -16.2008 C   0  0  1  0  0  0  0  0  0  0  0  0
   16.8222  -12.8877  -17.4574 C   0  0  0  0  0  0  0  0  0  0  0  0
   16.4520  -14.3107  -17.3770 C   0  0  0  0  0  0  0  0  0  0  0  0
   15.3707  -14.9270  -17.9354 C   0  0  0  0  0  0  0  0  0  0  0  0
   15.4198  -16.2282  -17.6123 N   0  0  0  0  0  0  0  0  0  0  0  0
   16.5095  -16.4164  -16.8683 C   0  0  0  0  0  0  0  0  0  0  0  0
   17.1470  -15.2485  -16.7193 N   0  0  0  0  0  0  0  0  0  0  0  0
   16.8961  -10.6803  -16.3282 C   0  0  0  0  0  0  0  0  0  0  0  0
   16.0351   -9.8134  -16.6441 O   0  0  0  0  0  0  0  0  0  0  0  0
   18.2497  -10.3195  -16.0883 N   0  0  0  0  0  0  0  0  0  0  0  0
   18.6799   -8.9588  -16.1036 C   0  0  0  0  0  0  0  0  0  0  0  0
   18.9370   -8.4075  -14.7538 C   0  0  0  0  0  0  0  0  0  0  0  0
   18.1809   -8.5595  -13.7638 O   0  0  0  0  0  0  0  0  0  0  0  0
   23.2618   -8.4908   -8.6261 C   0  0  0  0  0  0  0  0  0  0  0  0
   22.8501   -8.9192  -10.3209 S   0  0  0  0  0  0  0  0  0  0  0  0
   21.7876   -7.6952  -11.1045 C   0  0  0  0  0  0  0  0  0  0  0  0
   21.4427   -8.0748  -12.4910 C   0  0  0  0  0  0  0  0  0  0  0  0
   20.5396   -7.1763  -13.2564 C   0  0  2  0  0  0  0  0  0  0  0  0
   20.1283   -7.6469  -14.5548 N   0  0  0  0  0  0  0  0  0  0  0  0
   21.2245   -5.8653  -13.4007 C   0  0  0  0  0  0  0  0  0  0  0  0
   21.2631   -5.0908  -12.4203 O   0  0  0  0  0  0  0  0  0  0  0  0
   21.8247   -5.4730  -14.5951 O   0  0  0  0  0  0  0  0  0  0  0  0
  2  1  1  6
  2  9  1  0
  3  2  1  0
  4  3  1  0
  5  4  2  0
  6  7  1  0
  6  5  1  0
  7  8  2  0
  8  4  1  0
  9 10  2  0
 11  9  1  0
 11 12  1  0
 12 13  1  0
 13 14  2  0
 16 15  1  0
 17 16  1  0
 18 17  1  0
 19 18  1  6
 20 19  1  0
 20 13  1  0
 21 19  1  0
 22 21  2  0
 23 21  1  0
M  END
$$$$
