HGM.pdb
     RDKit          3D

 23 23  0  0  1  0  0  0  0  0999 V2000
   13.2474  -23.8535   -5.6252 N   0  0  0  0  0  0  0  0  0  0  0  0
   12.4898  -22.6955   -5.2648 C   0  0  1  0  0  0  0  0  0  0  0  0
   11.1248  -22.7902   -5.9024 C   0  0  0  0  0  0  0  0  0  0  0  0
   11.1589  -22.6545   -7.3682 C   0  0  0  0  0  0  0  0  0  0  0  0
   11.2052  -23.6498   -8.3000 C   0  0  0  0  0  0  0  0  0  0  0  0
   11.2230  -23.0822   -9.5154 N   0  0  0  0  0  0  0  0  0  0  0  0
   11.1884  -21.7612   -9.3423 C   0  0  0  0  0  0  0  0  0  0  0  0
   11.1490  -21.4906   -8.0316 N   0  0  0  0  0  0  0  0  0  0  0  0
   12.3855  -22.5828   -3.7761 C   0  0  0  0  0  0  0  0  0  0  0  0
   11.8066  -21.5877   -3.2590 O   0  0  0  0  0  0  0  0  0  0  0  0
   12.9464  -23.6091   -2.9686 N   0  0  0  0  0  0  0  0  0  0  0  0
   12.8890  -23.5614   -1.5435 C   0  0  0  0  0  0  0  0  0  0  0  0
   14.2119  -23.3693   -0.9071 C   0  0  0  0  0  0  0  0  0  0  0  0
   15.3137  -23.5403   -1.4832 O   0  0  0  0  0  0  0  0  0  0  0  0
   19.1976  -18.7051    2.2223 C   0  0  0  0  0  0  0  0  0  0  0  0
   17.6158  -19.1447    1.4942 S   0  0  0  0  0  0  0  0  0  0  0  0
   17.2275  -20.8920    1.6883 C   0  0  0  0  0  0  0  0  0  0  0  0
   15.9401  -21.2422    1.0517 C   0  0  0  0  0  0  0  0  0  0  0  0
   15.4757  -22.6507    1.1455 C   0  0  2  0  0  0  0  0  0  0  0  0
   14.2465  -22.9603    0.4599 N   0  0  0  0  0  0  0  0  0  0  0  0
   15.3342  -22.9838    2.5870 C   0  0  0  0  0  0  0  0  0  0  0  0
   14.1910  -23.1741    3.0553 O   0  0  0  0  0  0  0  0  0  0  0  0
   16.4365  -23.0903    3.4321 O   0  0  0  0  0  0  0  0  0  0  0  0
  2  1  1  1
  2  9  1  0
  3  2  1  0
  4  3  1  0
  5  4  2  0
  6  7  1  0
  6  5  1  0
  7  8  2  0
  8  4  1  0
  9 10  2  0
 11  9  1  0
 11 12  1  0
 12 13  1  0
 13 14  2  0
 16 15  1  0
 17 16  1  0
 18 17  1  0
 19 18  1  1
 20 19  1  0
 20 13  1  0
 21 19  1  0
 22 21  2  0
 23 21  1  0
M  END
$$$$
