HGM.pdb
     RDKit          3D

 23 23  0  0  1  0  0  0  0  0999 V2000
   24.8031  -20.5137  -16.0203 N   0  0  0  0  0  0  0  0  0  0  0  0
   24.6122  -19.4908  -15.0395 C   0  0  1  0  0  0  0  0  0  0  0  0
   23.1992  -19.5776  -14.5156 C   0  0  0  0  0  0  0  0  0  0  0  0
   22.1815  -19.3096  -15.5455 C   0  0  0  0  0  0  0  0  0  0  0  0
   21.2318  -20.1630  -16.0258 C   0  0  0  0  0  0  0  0  0  0  0  0
   20.5154  -19.5099  -16.9531 N   0  0  0  0  0  0  0  0  0  0  0  0
   21.0099  -18.2758  -17.0470 C   0  0  0  0  0  0  0  0  0  0  0  0
   22.0295  -18.1445  -16.1893 N   0  0  0  0  0  0  0  0  0  0  0  0
   25.6097  -19.6360  -13.9333 C   0  0  0  0  0  0  0  0  0  0  0  0
   25.6225  -18.8048  -12.9838 O   0  0  0  0  0  0  0  0  0  0  0  0
   26.5305  -20.7179  -13.9764 N   0  0  0  0  0  0  0  0  0  0  0  0
   27.5476  -20.8803  -12.9886 C   0  0  0  0  0  0  0  0  0  0  0  0
   27.0198  -21.2471  -11.6549 C   0  0  0  0  0  0  0  0  0  0  0  0
   26.2928  -22.2435  -11.4232 O   0  0  0  0  0  0  0  0  0  0  0  0
   28.0548  -19.7674   -3.8577 C   0  0  0  0  0  0  0  0  0  0  0  0
   28.3119  -19.2833   -5.5680 S   0  0  0  0  0  0  0  0  0  0  0  0
   27.3395  -20.2690   -6.7187 C   0  0  0  0  0  0  0  0  0  0  0  0
   27.7213  -20.0088   -8.1230 C   0  0  0  0  0  0  0  0  0  0  0  0
   26.9915  -20.7397   -9.1915 C   0  0  2  0  0  0  0  0  0  0  0  0
   27.3569  -20.4132  -10.5466 N   0  0  0  0  0  0  0  0  0  0  0  0
   25.5394  -20.4894   -8.9979 C   0  0  0  0  0  0  0  0  0  0  0  0
   24.9416  -19.7405   -9.8005 O   0  0  0  0  0  0  0  0  0  0  0  0
   24.8242  -21.0639   -7.9495 O   0  0  0  0  0  0  0  0  0  0  0  0
  2  1  1  6
  2  9  1  0
  3  2  1  0
  4  3  1  0
  5  4  2  0
  6  7  1  0
  6  5  1  0
  7  8  2  0
  8  4  1  0
  9 10  2  0
 11  9  1  0
 11 12  1  0
 12 13  1  0
 13 14  2  0
 16 15  1  0
 17 16  1  0
 18 17  1  0
 19 18  1  1
 20 19  1  0
 20 13  1  0
 21 19  1  0
 22 21  2  0
 23 21  1  0
M  END
$$$$
