HGM.pdb
     RDKit          3D

 23 23  0  0  1  0  0  0  0  0999 V2000
   15.7654  -14.2896  -16.1938 N   0  0  0  0  0  0  0  0  0  0  0  0
   17.1262  -13.9563  -15.9079 C   0  0  1  0  0  0  0  0  0  0  0  0
   18.0253  -14.9635  -16.5830 C   0  0  0  0  0  0  0  0  0  0  0  0
   17.7629  -16.3497  -16.1610 C   0  0  0  0  0  0  0  0  0  0  0  0
   18.1262  -16.9516  -14.9920 C   0  0  0  0  0  0  0  0  0  0  0  0
   17.6855  -18.2184  -15.0211 N   0  0  0  0  0  0  0  0  0  0  0  0
   17.0612  -18.3998  -16.1846 C   0  0  0  0  0  0  0  0  0  0  0  0
   17.1038  -17.2615  -16.8883 N   0  0  0  0  0  0  0  0  0  0  0  0
   17.4303  -12.5650  -16.3677 C   0  0  0  0  0  0  0  0  0  0  0  0
   16.8163  -12.0808  -17.3583 O   0  0  0  0  0  0  0  0  0  0  0  0
   18.4141  -11.8113  -15.6720 N   0  0  0  0  0  0  0  0  0  0  0  0
   18.7091  -10.4584  -16.0172 C   0  0  0  0  0  0  0  0  0  0  0  0
   19.6838   -9.8173  -15.1057 C   0  0  0  0  0  0  0  0  0  0  0  0
   19.9116  -10.1873  -13.9283 O   0  0  0  0  0  0  0  0  0  0  0  0
   26.7720  -10.7018  -14.4649 C   0  0  0  0  0  0  0  0  0  0  0  0
   25.1066  -10.8729  -15.1148 S   0  0  0  0  0  0  0  0  0  0  0  0
   24.1292   -9.3744  -14.9141 C   0  0  0  0  0  0  0  0  0  0  0  0
   22.7488   -9.5482  -15.4138 C   0  0  0  0  0  0  0  0  0  0  0  0
   21.7846   -8.4375  -15.2014 C   0  0  2  0  0  0  0  0  0  0  0  0
   20.4221   -8.6969  -15.5924 N   0  0  0  0  0  0  0  0  0  0  0  0
   22.2928   -7.2520  -15.9397 C   0  0  0  0  0  0  0  0  0  0  0  0
   21.9899   -7.1131  -17.1444 O   0  0  0  0  0  0  0  0  0  0  0  0
   23.0963   -6.2910  -15.3302 O   0  0  0  0  0  0  0  0  0  0  0  0
  2  1  1  6
  2  9  1  0
  3  2  1  0
  4  3  1  0
  5  4  2  0
  6  7  1  0
  6  5  1  0
  7  8  2  0
  8  4  1  0
  9 10  2  0
 11  9  1  0
 11 12  1  0
 12 13  1  0
 13 14  2  0
 16 15  1  0
 17 16  1  0
 18 17  1  0
 19 18  1  6
 20 19  1  0
 20 13  1  0
 21 19  1  0
 22 21  2  0
 23 21  1  0
M  END
$$$$
