HGM.pdb
     RDKit          3D

 23 23  0  0  1  0  0  0  0  0999 V2000
   23.6562  -21.7684  -15.2948 N   0  0  0  0  0  0  0  0  0  0  0  0
   23.3780  -20.6305  -14.4748 C   0  0  1  0  0  0  0  0  0  0  0  0
   22.0914  -20.8753  -13.7243 C   0  0  0  0  0  0  0  0  0  0  0  0
   20.9636  -21.2230  -14.6049 C   0  0  0  0  0  0  0  0  0  0  0  0
   20.8597  -22.2882  -15.4508 C   0  0  0  0  0  0  0  0  0  0  0  0
   19.6666  -22.2213  -16.0606 N   0  0  0  0  0  0  0  0  0  0  0  0
   19.0419  -21.1366  -15.6028 C   0  0  0  0  0  0  0  0  0  0  0  0
   19.8282  -20.5198  -14.7118 N   0  0  0  0  0  0  0  0  0  0  0  0
   24.5135  -20.3751  -13.5340 C   0  0  0  0  0  0  0  0  0  0  0  0
   24.4824  -19.3737  -12.7666 O   0  0  0  0  0  0  0  0  0  0  0  0
   25.6136  -21.2749  -13.5250 N   0  0  0  0  0  0  0  0  0  0  0  0
   26.7523  -21.0632  -12.6912 C   0  0  0  0  0  0  0  0  0  0  0  0
   26.4833  -21.3026  -11.2552 C   0  0  0  0  0  0  0  0  0  0  0  0
   25.9862  -22.3557  -10.7871 O   0  0  0  0  0  0  0  0  0  0  0  0
   28.7535  -19.6427   -4.0599 C   0  0  0  0  0  0  0  0  0  0  0  0
   28.8119  -19.5557   -5.8527 S   0  0  0  0  0  0  0  0  0  0  0  0
   27.1731  -19.4913   -6.5952 C   0  0  0  0  0  0  0  0  0  0  0  0
   27.2415  -19.3421   -8.0643 C   0  0  0  0  0  0  0  0  0  0  0  0
   26.6804  -20.4329   -8.9034 C   0  0  2  0  0  0  0  0  0  0  0  0
   26.8094  -20.2667  -10.3290 N   0  0  0  0  0  0  0  0  0  0  0  0
   25.2439  -20.5789   -8.5515 C   0  0  0  0  0  0  0  0  0  0  0  0
   24.3813  -20.0858   -9.3099 O   0  0  0  0  0  0  0  0  0  0  0  0
   24.8294  -21.2484   -7.4023 O   0  0  0  0  0  0  0  0  0  0  0  0
  2  1  1  1
  2  9  1  0
  3  2  1  0
  4  3  1  0
  5  4  2  0
  6  7  1  0
  6  5  1  0
  7  8  2  0
  8  4  1  0
  9 10  2  0
 11  9  1  0
 11 12  1  0
 12 13  1  0
 13 14  2  0
 16 15  1  0
 17 16  1  0
 18 17  1  0
 19 18  1  1
 20 19  1  0
 20 13  1  0
 21 19  1  0
 22 21  2  0
 23 21  1  0
M  END
$$$$
