HGM.pdb
     RDKit          3D

 23 23  0  0  1  0  0  0  0  0999 V2000
   23.3242  -17.6798  -19.6152 N   0  0  0  0  0  0  0  0  0  0  0  0
   22.0160  -17.7128  -19.0388 C   0  0  1  0  0  0  0  0  0  0  0  0
   21.2669  -18.8965  -19.6014 C   0  0  0  0  0  0  0  0  0  0  0  0
   21.0727  -18.8202  -21.0591 C   0  0  0  0  0  0  0  0  0  0  0  0
   21.4358  -19.7378  -22.0009 C   0  0  0  0  0  0  0  0  0  0  0  0
   21.0701  -19.2680  -23.2031 N   0  0  0  0  0  0  0  0  0  0  0  0
   20.4916  -18.0826  -23.0121 C   0  0  0  0  0  0  0  0  0  0  0  0
   20.4889  -17.8007  -21.7032 N   0  0  0  0  0  0  0  0  0  0  0  0
   22.1049  -17.7877  -17.5468 C   0  0  0  0  0  0  0  0  0  0  0  0
   23.2323  -17.7546  -16.9807 O   0  0  0  0  0  0  0  0  0  0  0  0
   20.9055  -17.8957  -16.7918 N   0  0  0  0  0  0  0  0  0  0  0  0
   20.9006  -17.7945  -15.3683 C   0  0  0  0  0  0  0  0  0  0  0  0
   21.3250  -19.0390  -14.6881 C   0  0  0  0  0  0  0  0  0  0  0  0
   21.2846  -20.1835  -15.2014 O   0  0  0  0  0  0  0  0  0  0  0  0
   26.1563  -22.5141  -10.1328 C   0  0  0  0  0  0  0  0  0  0  0  0
   25.4561  -21.1433  -11.0580 S   0  0  0  0  0  0  0  0  0  0  0  0
   23.7368  -20.8260  -10.6280 C   0  0  0  0  0  0  0  0  0  0  0  0
   23.1703  -19.7117  -11.4172 C   0  0  0  0  0  0  0  0  0  0  0  0
   22.4542  -20.0421  -12.6768 C   0  0  2  0  0  0  0  0  0  0  0  0
   21.8171  -18.9399  -13.3519 N   0  0  0  0  0  0  0  0  0  0  0  0
   21.4388  -21.0798  -12.3593 C   0  0  0  0  0  0  0  0  0  0  0  0
   21.8205  -22.2415  -12.1000 O   0  0  0  0  0  0  0  0  0  0  0  0
   20.0748  -20.7975  -12.3417 O   0  0  0  0  0  0  0  0  0  0  0  0
  2  1  1  6
  2  9  1  0
  3  2  1  0
  4  3  1  0
  5  4  2  0
  6  7  1  0
  6  5  1  0
  7  8  2  0
  8  4  1  0
  9 10  2  0
 11  9  1  0
 11 12  1  0
 12 13  1  0
 13 14  2  0
 16 15  1  0
 17 16  1  0
 18 17  1  0
 19 18  1  1
 20 19  1  0
 20 13  1  0
 21 19  1  0
 22 21  2  0
 23 21  1  0
M  END
$$$$
