HGM.pdb
     RDKit          3D

 23 23  0  0  1  0  0  0  0  0999 V2000
    9.1589  -15.0802    3.8848 N   0  0  0  0  0  0  0  0  0  0  0  0
   10.2486  -14.4515    3.2051 C   0  0  1  0  0  0  0  0  0  0  0  0
    9.8568  -13.0335    2.8664 C   0  0  0  0  0  0  0  0  0  0  0  0
    8.8589  -12.9498    1.7869 C   0  0  0  0  0  0  0  0  0  0  0  0
    7.7718  -12.1290    1.7139 C   0  0  0  0  0  0  0  0  0  0  0  0
    7.1348  -12.3826    0.5608 N   0  0  0  0  0  0  0  0  0  0  0  0
    7.8125  -13.3415   -0.0699 C   0  0  0  0  0  0  0  0  0  0  0  0
    8.8689  -13.6945    0.6732 N   0  0  0  0  0  0  0  0  0  0  0  0
   11.4814  -14.4848    4.0529 C   0  0  0  0  0  0  0  0  0  0  0  0
   12.5125  -13.8542    3.6899 O   0  0  0  0  0  0  0  0  0  0  0  0
   11.4642  -15.2336    5.2609 N   0  0  0  0  0  0  0  0  0  0  0  0
   12.6047  -15.3099    6.1154 C   0  0  0  0  0  0  0  0  0  0  0  0
   13.7139  -16.1089    5.5469 C   0  0  0  0  0  0  0  0  0  0  0  0
   13.6125  -16.8649    4.5503 O   0  0  0  0  0  0  0  0  0  0  0  0
   18.2062  -13.0951    2.1326 C   0  0  0  0  0  0  0  0  0  0  0  0
   18.4863  -14.1561    3.5542 S   0  0  0  0  0  0  0  0  0  0  0  0
   17.0354  -15.1311    3.9853 C   0  0  0  0  0  0  0  0  0  0  0  0
   17.2720  -15.9684    5.1805 C   0  0  0  0  0  0  0  0  0  0  0  0
   16.1359  -16.7677    5.7085 C   0  0  2  0  0  0  0  0  0  0  0  0
   14.9945  -16.0193    6.1708 N   0  0  0  0  0  0  0  0  0  0  0  0
   16.6548  -17.6111    6.8168 C   0  0  0  0  0  0  0  0  0  0  0  0
   16.3673  -17.3075    7.9948 O   0  0  0  0  0  0  0  0  0  0  0  0
   17.4517  -18.7296    6.5830 O   0  0  0  0  0  0  0  0  0  0  0  0
  2  1  1  1
  2  9  1  0
  3  2  1  0
  4  3  1  0
  5  4  2  0
  6  7  1  0
  6  5  1  0
  7  8  2  0
  8  4  1  0
  9 10  2  0
 11  9  1  0
 11 12  1  0
 12 13  1  0
 13 14  2  0
 16 15  1  0
 17 16  1  0
 18 17  1  0
 19 18  1  1
 20 19  1  0
 20 13  1  0
 21 19  1  0
 22 21  2  0
 23 21  1  0
M  END
$$$$
