HGM.pdb
     RDKit          3D

 23 23  0  0  1  0  0  0  0  0999 V2000
   17.9443  -13.2963  -15.2082 N   0  0  0  0  0  0  0  0  0  0  0  0
   18.6095  -12.3981  -16.1001 C   0  0  1  0  0  0  0  0  0  0  0  0
   18.0111  -12.5493  -17.4776 C   0  0  0  0  0  0  0  0  0  0  0  0
   18.0241  -13.9384  -17.9662 C   0  0  0  0  0  0  0  0  0  0  0  0
   19.1070  -14.6985  -18.2984 C   0  0  0  0  0  0  0  0  0  0  0  0
   18.6656  -15.9019  -18.6944 N   0  0  0  0  0  0  0  0  0  0  0  0
   17.3356  -15.8897  -18.6099 C   0  0  0  0  0  0  0  0  0  0  0  0
   16.9346  -14.6921  -18.1652 N   0  0  0  0  0  0  0  0  0  0  0  0
   18.4884  -10.9897  -15.6087 C   0  0  0  0  0  0  0  0  0  0  0  0
   17.5661  -10.6804  -14.8047 O   0  0  0  0  0  0  0  0  0  0  0  0
   19.4241  -10.0210  -16.0626 N   0  0  0  0  0  0  0  0  0  0  0  0
   19.3481   -8.6542  -15.6591 C   0  0  0  0  0  0  0  0  0  0  0  0
   20.6465   -8.0984  -15.2151 C   0  0  0  0  0  0  0  0  0  0  0  0
   21.7530   -8.6763  -15.3442 O   0  0  0  0  0  0  0  0  0  0  0  0
   25.9295   -3.7724  -17.5248 C   0  0  0  0  0  0  0  0  0  0  0  0
   24.3997   -4.7130  -17.5085 S   0  0  0  0  0  0  0  0  0  0  0  0
   23.7229   -4.9030  -15.8511 C   0  0  0  0  0  0  0  0  0  0  0  0
   22.4736   -5.6933  -15.8555 C   0  0  0  0  0  0  0  0  0  0  0  0
   21.8225   -5.9767  -14.5501 C   0  0  2  0  0  0  0  0  0  0  0  0
   20.6498   -6.8130  -14.5945 N   0  0  0  0  0  0  0  0  0  0  0  0
   21.4756   -4.6729  -13.9268 C   0  0  0  0  0  0  0  0  0  0  0  0
   20.3285   -4.2064  -14.0968 O   0  0  0  0  0  0  0  0  0  0  0  0
   22.3897   -3.9549  -13.1589 O   0  0  0  0  0  0  0  0  0  0  0  0
  2  1  1  1
  2  9  1  0
  3  2  1  0
  4  3  1  0
  5  4  2  0
  6  7  1  0
  6  5  1  0
  7  8  2  0
  8  4  1  0
  9 10  2  0
 11  9  1  0
 11 12  1  0
 12 13  1  0
 13 14  2  0
 16 15  1  0
 17 16  1  0
 18 17  1  0
 19 18  1  6
 20 19  1  0
 20 13  1  0
 21 19  1  0
 22 21  2  0
 23 21  1  0
M  END
$$$$
