HGM.pdb
     RDKit          3D

 23 23  0  0  1  0  0  0  0  0999 V2000
   19.2989  -21.9396  -16.3744 N   0  0  0  0  0  0  0  0  0  0  0  0
   18.7469  -22.2238  -15.0863 C   0  0  1  0  0  0  0  0  0  0  0  0
   17.6536  -23.2529  -15.2425 C   0  0  0  0  0  0  0  0  0  0  0  0
   16.5437  -22.7948  -16.0950 C   0  0  0  0  0  0  0  0  0  0  0  0
   16.2180  -23.2251  -17.3478 C   0  0  0  0  0  0  0  0  0  0  0  0
   15.1379  -22.5417  -17.7554 N   0  0  0  0  0  0  0  0  0  0  0  0
   14.7995  -21.7039  -16.7757 C   0  0  0  0  0  0  0  0  0  0  0  0
   15.6542  -21.8521  -15.7559 N   0  0  0  0  0  0  0  0  0  0  0  0
   19.8152  -22.7058  -14.1556 C   0  0  0  0  0  0  0  0  0  0  0  0
   19.5251  -23.0028  -12.9638 O   0  0  0  0  0  0  0  0  0  0  0  0
   21.1469  -22.8199  -14.6389 N   0  0  0  0  0  0  0  0  0  0  0  0
   22.2227  -23.2236  -13.7925 C   0  0  0  0  0  0  0  0  0  0  0  0
   22.1413  -24.6409  -13.3725 C   0  0  0  0  0  0  0  0  0  0  0  0
   22.2816  -25.0460  -12.1929 O   0  0  0  0  0  0  0  0  0  0  0  0
   19.2096  -27.5242   -9.1549 C   0  0  0  0  0  0  0  0  0  0  0  0
   19.0869  -27.6575  -10.9416 S   0  0  0  0  0  0  0  0  0  0  0  0
   20.6486  -27.3142  -11.7690 C   0  0  0  0  0  0  0  0  0  0  0  0
   20.5111  -27.3556  -13.2403 C   0  0  0  0  0  0  0  0  0  0  0  0
   21.7027  -27.0197  -14.0623 C   0  0  2  0  0  0  0  0  0  0  0  0
   21.8851  -25.6247  -14.3744 N   0  0  0  0  0  0  0  0  0  0  0  0
   21.6147  -27.8003  -15.3239 C   0  0  0  0  0  0  0  0  0  0  0  0
   21.4202  -27.1936  -16.3993 O   0  0  0  0  0  0  0  0  0  0  0  0
   21.7424  -29.1874  -15.3446 O   0  0  0  0  0  0  0  0  0  0  0  0
  2  1  1  6
  2  9  1  0
  3  2  1  0
  4  3  1  0
  5  4  2  0
  6  7  1  0
  6  5  1  0
  7  8  2  0
  8  4  1  0
  9 10  2  0
 11  9  1  0
 11 12  1  0
 12 13  1  0
 13 14  2  0
 16 15  1  0
 17 16  1  0
 18 17  1  0
 19 18  1  6
 20 19  1  0
 20 13  1  0
 21 19  1  0
 22 21  2  0
 23 21  1  0
M  END
$$$$
