HGM.pdb
     RDKit          3D

 23 23  0  0  1  0  0  0  0  0999 V2000
   24.6205  -19.4106  -16.6649 N   0  0  0  0  0  0  0  0  0  0  0  0
   25.4867  -18.3866  -16.1689 C   0  0  1  0  0  0  0  0  0  0  0  0
   25.0010  -17.0509  -16.6775 C   0  0  0  0  0  0  0  0  0  0  0  0
   24.9734  -16.9653  -18.1473 C   0  0  0  0  0  0  0  0  0  0  0  0
   23.9434  -17.2793  -18.9848 C   0  0  0  0  0  0  0  0  0  0  0  0
   24.3466  -17.0533  -20.2442 N   0  0  0  0  0  0  0  0  0  0  0  0
   25.6016  -16.6078  -20.1902 C   0  0  0  0  0  0  0  0  0  0  0  0
   25.9931  -16.5509  -18.9111 N   0  0  0  0  0  0  0  0  0  0  0  0
   25.5252  -18.4150  -14.6732 C   0  0  0  0  0  0  0  0  0  0  0  0
   24.4486  -18.3961  -14.0150 O   0  0  0  0  0  0  0  0  0  0  0  0
   26.7863  -18.4632  -14.0194 N   0  0  0  0  0  0  0  0  0  0  0  0
   26.8953  -18.5180  -12.5975 C   0  0  0  0  0  0  0  0  0  0  0  0
   26.2600  -19.7163  -12.0040 C   0  0  0  0  0  0  0  0  0  0  0  0
   25.9238  -20.7398  -12.6478 O   0  0  0  0  0  0  0  0  0  0  0  0
   29.1432  -19.6385   -6.3178 C   0  0  0  0  0  0  0  0  0  0  0  0
   27.4768  -19.5302   -6.9785 S   0  0  0  0  0  0  0  0  0  0  0  0
   27.0160  -20.9855   -7.9331 C   0  0  0  0  0  0  0  0  0  0  0  0
   25.6318  -20.8917   -8.4433 C   0  0  0  0  0  0  0  0  0  0  0  0
   25.4321  -20.8467   -9.9152 C   0  0  2  0  0  0  0  0  0  0  0  0
   26.0078  -19.7165  -10.5992 N   0  0  0  0  0  0  0  0  0  0  0  0
   23.9690  -20.8868  -10.1731 C   0  0  0  0  0  0  0  0  0  0  0  0
   23.4267  -19.9129  -10.7387 O   0  0  0  0  0  0  0  0  0  0  0  0
   23.1835  -21.9765   -9.8038 O   0  0  0  0  0  0  0  0  0  0  0  0
  2  1  1  1
  2  9  1  0
  3  2  1  0
  4  3  1  0
  5  4  2  0
  6  7  1  0
  6  5  1  0
  7  8  2  0
  8  4  1  0
  9 10  2  0
 11  9  1  0
 11 12  1  0
 12 13  1  0
 13 14  2  0
 16 15  1  0
 17 16  1  0
 18 17  1  0
 19 18  1  1
 20 19  1  0
 20 13  1  0
 21 19  1  0
 22 21  2  0
 23 21  1  0
M  END
$$$$
