HGM.pdb
     RDKit          3D

 23 23  0  0  1  0  0  0  0  0999 V2000
   26.0214  -18.7391  -17.1660 N   0  0  0  0  0  0  0  0  0  0  0  0
   27.1593  -18.6490  -16.3048 C   0  0  1  0  0  0  0  0  0  0  0  0
   28.0424  -17.5219  -16.7829 C   0  0  0  0  0  0  0  0  0  0  0  0
   28.4679  -17.6733  -18.1845 C   0  0  0  0  0  0  0  0  0  0  0  0
   29.0914  -18.7418  -18.7592 C   0  0  0  0  0  0  0  0  0  0  0  0
   29.2956  -18.4581  -20.0544 N   0  0  0  0  0  0  0  0  0  0  0  0
   28.8089  -17.2380  -20.2798 C   0  0  0  0  0  0  0  0  0  0  0  0
   28.3005  -16.7504  -19.1412 N   0  0  0  0  0  0  0  0  0  0  0  0
   26.7261  -18.4340  -14.8886 C   0  0  0  0  0  0  0  0  0  0  0  0
   25.8034  -17.6127  -14.6301 O   0  0  0  0  0  0  0  0  0  0  0  0
   27.3697  -19.1668  -13.8547 N   0  0  0  0  0  0  0  0  0  0  0  0
   27.0676  -18.9484  -12.4772 C   0  0  0  0  0  0  0  0  0  0  0  0
   26.2954  -20.0516  -11.8617 C   0  0  0  0  0  0  0  0  0  0  0  0
   25.8663  -21.0556  -12.4805 O   0  0  0  0  0  0  0  0  0  0  0  0
   28.7873  -19.6567   -6.3501 C   0  0  0  0  0  0  0  0  0  0  0  0
   27.2635  -19.4622   -7.2805 S   0  0  0  0  0  0  0  0  0  0  0  0
   26.4126  -21.0261   -7.5476 C   0  0  0  0  0  0  0  0  0  0  0  0
   25.1542  -20.8445   -8.3018 C   0  0  0  0  0  0  0  0  0  0  0  0
   25.2059  -20.9556   -9.7828 C   0  0  2  0  0  0  0  0  0  0  0  0
   26.0140  -19.9764  -10.4644 N   0  0  0  0  0  0  0  0  0  0  0  0
   23.8106  -20.8829  -10.2893 C   0  0  0  0  0  0  0  0  0  0  0  0
   23.4686  -19.9014  -10.9836 O   0  0  0  0  0  0  0  0  0  0  0  0
   22.8722  -21.8751  -10.0139 O   0  0  0  0  0  0  0  0  0  0  0  0
  2  1  1  6
  2  9  1  0
  3  2  1  0
  4  3  1  0
  5  4  2  0
  6  7  1  0
  6  5  1  0
  7  8  2  0
  8  4  1  0
  9 10  2  0
 11  9  1  0
 11 12  1  0
 12 13  1  0
 13 14  2  0
 16 15  1  0
 17 16  1  0
 18 17  1  0
 19 18  1  1
 20 19  1  0
 20 13  1  0
 21 19  1  0
 22 21  2  0
 23 21  1  0
M  END
$$$$
