HGM.pdb
     RDKit          3D

 23 23  0  0  1  0  0  0  0  0999 V2000
   20.2680  -24.5813  -18.1505 N   0  0  0  0  0  0  0  0  0  0  0  0
   21.2833  -23.6497  -17.7684 C   0  0  1  0  0  0  0  0  0  0  0  0
   21.0845  -22.3695  -18.5430 C   0  0  0  0  0  0  0  0  0  0  0  0
   21.3403  -22.5188  -19.9855 C   0  0  0  0  0  0  0  0  0  0  0  0
   22.5447  -22.5206  -20.6260 C   0  0  0  0  0  0  0  0  0  0  0  0
   22.3185  -22.6837  -21.9382 N   0  0  0  0  0  0  0  0  0  0  0  0
   21.0003  -22.7811  -22.1095 C   0  0  0  0  0  0  0  0  0  0  0  0
   20.3941  -22.6814  -20.9199 N   0  0  0  0  0  0  0  0  0  0  0  0
   21.2364  -23.4028  -16.2930 C   0  0  0  0  0  0  0  0  0  0  0  0
   21.9992  -22.5417  -15.7742 O   0  0  0  0  0  0  0  0  0  0  0  0
   20.3246  -24.1511  -15.5001 N   0  0  0  0  0  0  0  0  0  0  0  0
   20.2250  -23.9637  -14.0888 C   0  0  0  0  0  0  0  0  0  0  0  0
   20.1304  -22.5414  -13.6890 C   0  0  0  0  0  0  0  0  0  0  0  0
   19.0594  -21.8929  -13.6028 O   0  0  0  0  0  0  0  0  0  0  0  0
   24.1178  -20.7794   -8.1425 C   0  0  0  0  0  0  0  0  0  0  0  0
   24.0760  -20.2021   -9.8426 S   0  0  0  0  0  0  0  0  0  0  0  0
   22.5422  -20.6330  -10.6811 C   0  0  0  0  0  0  0  0  0  0  0  0
   22.4983  -20.0936  -12.0568 C   0  0  0  0  0  0  0  0  0  0  0  0
   21.3547  -20.4822  -12.9226 C   0  0  2  0  0  0  0  0  0  0  0  0
   21.3393  -21.8496  -13.3771 N   0  0  0  0  0  0  0  0  0  0  0  0
   21.3487  -19.5716  -14.0971 C   0  0  0  0  0  0  0  0  0  0  0  0
   21.8500  -19.9661  -15.1721 O   0  0  0  0  0  0  0  0  0  0  0  0
   20.8016  -18.2919  -14.0367 O   0  0  0  0  0  0  0  0  0  0  0  0
  2  1  1  6
  2  9  1  0
  3  2  1  0
  4  3  1  0
  5  4  2  0
  6  7  1  0
  6  5  1  0
  7  8  2  0
  8  4  1  0
  9 10  2  0
 11  9  1  0
 11 12  1  0
 12 13  1  0
 13 14  2  0
 16 15  1  0
 17 16  1  0
 18 17  1  0
 19 18  1  6
 20 19  1  0
 20 13  1  0
 21 19  1  0
 22 21  2  0
 23 21  1  0
M  END
$$$$
