TAM.pdb
     RDKit          3D

 21 20  0  0  1  0  0  0  0  0999 V2000
   16.8009  -12.7111  -18.4678 C   0  0  0  0  0  0  0  0  0  0  0  0
   17.5012  -11.4965  -17.8971 C   0  0  1  0  0  0  0  0  0  0  0  0
   18.6528  -11.8452  -17.1926 O   0  0  0  0  0  0  0  0  0  0  0  0
   17.8480  -10.5862  -19.0549 C   0  0  2  0  0  0  0  0  0  0  0  0
   18.7549  -11.3049  -19.9293 N   0  0  0  0  0  0  0  0  0  0  0  0
   18.5122   -9.3377  -18.6205 C   0  0  0  0  0  0  0  0  0  0  0  0
   19.7662   -9.2612  -18.5763 O   0  0  0  0  0  0  0  0  0  0  0  0
   17.3048   -5.9199  -17.4434 C   0  0  0  0  0  0  0  0  0  0  0  0
   18.3668   -6.9753  -17.7836 C   0  0  2  0  0  0  0  0  0  0  0  0
   17.7382   -8.1962  -18.2431 N   0  0  0  0  0  0  0  0  0  0  0  0
   19.1300   -7.1959  -16.5282 C   0  0  0  0  0  0  0  0  0  0  0  0
   18.6013   -7.9289  -15.6552 O   0  0  0  0  0  0  0  0  0  0  0  0
   23.3266  -11.2320  -13.4748 C   0  0  0  0  0  0  0  0  0  0  0  0
   24.0154   -9.8150  -14.3822 S   0  0  0  0  0  0  0  0  0  0  0  0
   23.0327   -8.3387  -14.1436 C   0  0  0  0  0  0  0  0  0  0  0  0
   22.1231   -8.0734  -15.3085 C   0  0  0  0  0  0  0  0  0  0  0  0
   21.1877   -6.9307  -15.0617 C   0  0  2  0  0  0  0  0  0  0  0  0
   20.3889   -6.6419  -16.2637 N   0  0  0  0  0  0  0  0  0  0  0  0
   21.8704   -5.6672  -14.7225 C   0  0  0  0  0  0  0  0  0  0  0  0
   22.3994   -5.4035  -13.4684 O   0  0  0  0  0  0  0  0  0  0  0  0
   21.9960   -4.7646  -15.5882 O   0  0  0  0  0  0  0  0  0  0  0  0
  2  1  1  6
  3  2  1  0
  4  2  1  0
  4  5  1  6
  6  4  1  0
  6 10  1  0
  7  6  2  0
  9  8  1  1
  9 10  1  0
  9 11  1  0
 11 18  1  0
 12 11  2  0
 14 13  1  0
 15 14  1  0
 16 15  1  0
 17 19  1  0
 17 16  1  6
 18 17  1  0
 19 20  1  0
 21 19  2  0
M  END
$$$$
