TAM.pdb
     RDKit          3D

 21 20  0  0  1  0  0  0  0  0999 V2000
   18.2705  -18.1484  -14.4904 C   0  0  0  0  0  0  0  0  0  0  0  0
   19.5908  -18.8198  -14.1782 C   0  0  1  0  0  0  0  0  0  0  0  0
   19.9895  -18.5925  -12.8616 O   0  0  0  0  0  0  0  0  0  0  0  0
   19.4167  -20.3021  -14.4269 C   0  0  2  0  0  0  0  0  0  0  0  0
   18.5470  -20.8274  -13.3919 N   0  0  0  0  0  0  0  0  0  0  0  0
   20.6963  -21.0431  -14.3798 C   0  0  0  0  0  0  0  0  0  0  0  0
   21.1283  -21.5067  -13.2941 O   0  0  0  0  0  0  0  0  0  0  0  0
   23.0701  -22.4404  -16.9827 C   0  0  0  0  0  0  0  0  0  0  0  0
   22.6879  -22.0176  -15.5570 C   0  0  2  0  0  0  0  0  0  0  0  0
   21.4636  -21.2444  -15.5694 N   0  0  0  0  0  0  0  0  0  0  0  0
   23.8330  -21.2147  -15.0558 C   0  0  0  0  0  0  0  0  0  0  0  0
   23.7704  -19.9685  -15.2050 O   0  0  0  0  0  0  0  0  0  0  0  0
   24.3128  -20.9718   -8.6145 C   0  0  0  0  0  0  0  0  0  0  0  0
   25.5669  -21.5658   -9.7892 S   0  0  0  0  0  0  0  0  0  0  0  0
   25.2745  -20.9377  -11.4392 C   0  0  0  0  0  0  0  0  0  0  0  0
   26.3034  -21.4259  -12.4179 C   0  0  0  0  0  0  0  0  0  0  0  0
   26.0361  -20.9610  -13.8158 C   0  0  2  0  0  0  0  0  0  0  0  0
   24.9644  -21.7581  -14.4343 N   0  0  0  0  0  0  0  0  0  0  0  0
   27.1984  -21.0873  -14.7161 C   0  0  0  0  0  0  0  0  0  0  0  0
   28.2448  -20.1781  -14.7363 O   0  0  0  0  0  0  0  0  0  0  0  0
   27.2759  -22.0535  -15.5163 O   0  0  0  0  0  0  0  0  0  0  0  0
  2  1  1  1
  3  2  1  0
  4  2  1  0
  4  5  1  1
  6  4  1  0
  6 10  1  0
  7  6  2  0
  9  8  1  6
  9 10  1  0
  9 11  1  0
 11 18  1  0
 12 11  2  0
 14 13  1  0
 15 14  1  0
 16 15  1  0
 17 19  1  0
 17 16  1  1
 18 17  1  0
 19 20  1  0
 21 19  2  0
M  END
$$$$
