TAM.pdb
     RDKit          3D

 21 20  0  0  1  0  0  0  0  0999 V2000
   16.5532  -11.3353  -10.1518 C   0  0  0  0  0  0  0  0  0  0  0  0
   15.1481  -11.5371  -10.6776 C   0  0  1  0  0  0  0  0  0  0  0  0
   14.7182  -12.8536  -10.5168 O   0  0  0  0  0  0  0  0  0  0  0  0
   14.2403  -10.5910   -9.9225 C   0  0  2  0  0  0  0  0  0  0  0  0
   12.8795  -10.8363  -10.3603 N   0  0  0  0  0  0  0  0  0  0  0  0
   14.5609   -9.1689  -10.1746 C   0  0  0  0  0  0  0  0  0  0  0  0
   14.4391   -8.6792  -11.3259 O   0  0  0  0  0  0  0  0  0  0  0  0
   15.7200   -6.2371   -8.0422 C   0  0  0  0  0  0  0  0  0  0  0  0
   15.4979   -6.9854   -9.3643 C   0  0  2  0  0  0  0  0  0  0  0  0
   15.0153   -8.3271   -9.1118 N   0  0  0  0  0  0  0  0  0  0  0  0
   16.8193   -7.0017  -10.0432 C   0  0  0  0  0  0  0  0  0  0  0  0
   17.6092   -7.9313   -9.7415 O   0  0  0  0  0  0  0  0  0  0  0  0
   19.7716  -10.5995  -13.3582 C   0  0  0  0  0  0  0  0  0  0  0  0
   19.4654   -9.1797  -14.4519 S   0  0  0  0  0  0  0  0  0  0  0  0
   19.5303   -7.6318  -13.5564 C   0  0  0  0  0  0  0  0  0  0  0  0
   18.3639   -7.4712  -12.6243 C   0  0  0  0  0  0  0  0  0  0  0  0
   18.4214   -6.1955  -11.8428 C   0  0  2  0  0  0  0  0  0  0  0  0
   17.2315   -6.0537  -10.9882 N   0  0  0  0  0  0  0  0  0  0  0  0
   18.4551   -4.9842  -12.6849 C   0  0  0  0  0  0  0  0  0  0  0  0
   19.6319   -4.4045  -13.1336 O   0  0  0  0  0  0  0  0  0  0  0  0
   17.3839   -4.4250  -13.0309 O   0  0  0  0  0  0  0  0  0  0  0  0
  2  1  1  1
  3  2  1  0
  4  2  1  0
  4  5  1  6
  6  4  1  0
  6 10  1  0
  7  6  2  0
  9  8  1  1
  9 10  1  0
  9 11  1  0
 11 18  1  0
 12 11  2  0
 14 13  1  0
 15 14  1  0
 16 15  1  0
 17 19  1  0
 17 16  1  6
 18 17  1  0
 19 20  1  0
 21 19  2  0
M  END
$$$$
