TAM.pdb
     RDKit          3D

 21 20  0  0  1  0  0  0  0  0999 V2000
   15.0256   -5.3464   -8.8921 C   0  0  0  0  0  0  0  0  0  0  0  0
   14.8372   -6.8151   -8.5780 C   0  0  1  0  0  0  0  0  0  0  0  0
   13.8237   -7.0195   -7.6426 O   0  0  0  0  0  0  0  0  0  0  0  0
   14.5052   -7.5184   -9.8759 C   0  0  2  0  0  0  0  0  0  0  0  0
   14.3319   -8.9288   -9.5856 N   0  0  0  0  0  0  0  0  0  0  0  0
   15.5736   -7.3799  -10.8898 C   0  0  0  0  0  0  0  0  0  0  0  0
   16.5425   -8.1805  -10.9127 O   0  0  0  0  0  0  0  0  0  0  0  0
   16.2038   -5.0326  -13.8248 C   0  0  0  0  0  0  0  0  0  0  0  0
   16.5361   -6.2017  -12.8867 C   0  0  2  0  0  0  0  0  0  0  0  0
   15.5220   -6.3321  -11.8614 N   0  0  0  0  0  0  0  0  0  0  0  0
   17.8634   -5.8816  -12.3010 C   0  0  0  0  0  0  0  0  0  0  0  0
   17.8818   -5.1245  -11.2982 O   0  0  0  0  0  0  0  0  0  0  0  0
   24.2726   -9.1005   -9.4983 C   0  0  0  0  0  0  0  0  0  0  0  0
   22.6731   -9.1722  -10.3596 S   0  0  0  0  0  0  0  0  0  0  0  0
   22.1269   -7.5470  -10.8721 C   0  0  0  0  0  0  0  0  0  0  0  0
   20.7765   -7.5875  -11.5275 C   0  0  0  0  0  0  0  0  0  0  0  0
   20.3666   -6.2606  -12.0867 C   0  0  2  0  0  0  0  0  0  0  0  0
   19.0806   -6.3680  -12.7946 N   0  0  0  0  0  0  0  0  0  0  0  0
   21.3193   -5.7108  -13.0702 C   0  0  0  0  0  0  0  0  0  0  0  0
   22.4088   -4.9296  -12.7167 O   0  0  0  0  0  0  0  0  0  0  0  0
   21.1660   -5.9419  -14.2962 O   0  0  0  0  0  0  0  0  0  0  0  0
  2  1  1  6
  3  2  1  0
  4  2  1  0
  4  5  1  1
  6  4  1  0
  6 10  1  0
  7  6  2  0
  9  8  1  6
  9 10  1  0
  9 11  1  0
 11 18  1  0
 12 11  2  0
 14 13  1  0
 15 14  1  0
 16 15  1  0
 17 19  1  0
 17 16  1  6
 18 17  1  0
 19 20  1  0
 21 19  2  0
M  END
$$$$
