TAM.pdb
     RDKit          3D

 21 20  0  0  1  0  0  0  0  0999 V2000
   25.8949  -16.0139  -15.7387 C   0  0  0  0  0  0  0  0  0  0  0  0
   24.5757  -15.2936  -15.9184 C   0  0  1  0  0  0  0  0  0  0  0  0
   24.6706  -14.2630  -16.8527 O   0  0  0  0  0  0  0  0  0  0  0  0
   23.5562  -16.3179  -16.3664 C   0  0  2  0  0  0  0  0  0  0  0  0
   22.3040  -15.6251  -16.6022 N   0  0  0  0  0  0  0  0  0  0  0  0
   23.3218  -17.3709  -15.3539 C   0  0  0  0  0  0  0  0  0  0  0  0
   22.8748  -17.0774  -14.2163 O   0  0  0  0  0  0  0  0  0  0  0  0
   23.1311  -21.1295  -15.3624 C   0  0  0  0  0  0  0  0  0  0  0  0
   23.3975  -19.7852  -14.6702 C   0  0  2  0  0  0  0  0  0  0  0  0
   23.6003  -18.7411  -15.6529 N   0  0  0  0  0  0  0  0  0  0  0  0
   24.6122  -19.9945  -13.8408 C   0  0  0  0  0  0  0  0  0  0  0  0
   25.7248  -19.7993  -14.3913 O   0  0  0  0  0  0  0  0  0  0  0  0
   26.3118  -19.1007   -6.9073 C   0  0  0  0  0  0  0  0  0  0  0  0
   26.1303  -20.7785   -7.5837 S   0  0  0  0  0  0  0  0  0  0  0  0
   26.5933  -20.8465   -9.3109 C   0  0  0  0  0  0  0  0  0  0  0  0
   25.4027  -20.7264  -10.2181 C   0  0  0  0  0  0  0  0  0  0  0  0
   25.7871  -20.5210  -11.6504 C   0  0  2  0  0  0  0  0  0  0  0  0
   24.5907  -20.3916  -12.4978 N   0  0  0  0  0  0  0  0  0  0  0  0
   26.5634  -21.6377  -12.2229 C   0  0  0  0  0  0  0  0  0  0  0  0
   27.9395  -21.5997  -12.3870 O   0  0  0  0  0  0  0  0  0  0  0  0
   25.9810  -22.6893  -12.5901 O   0  0  0  0  0  0  0  0  0  0  0  0
  2  1  1  6
  3  2  1  0
  4  2  1  0
  4  5  1  1
  6  4  1  0
  6 10  1  0
  7  6  2  0
  9  8  1  6
  9 10  1  0
  9 11  1  0
 11 18  1  0
 12 11  2  0
 14 13  1  0
 15 14  1  0
 16 15  1  0
 17 19  1  0
 17 16  1  1
 18 17  1  0
 19 20  1  0
 21 19  2  0
M  END
$$$$
