TAM.pdb
     RDKit          3D

 21 20  0  0  1  0  0  0  0  0999 V2000
   21.6112   -5.8427  -13.6624 C   0  0  0  0  0  0  0  0  0  0  0  0
   22.1243   -6.2682  -15.0215 C   0  0  1  0  0  0  0  0  0  0  0  0
   23.5020   -6.4822  -15.0118 O   0  0  0  0  0  0  0  0  0  0  0  0
   21.3970   -7.5385  -15.4043 C   0  0  2  0  0  0  0  0  0  0  0  0
   21.9127   -7.9767  -16.6871 N   0  0  0  0  0  0  0  0  0  0  0  0
   19.9360   -7.3435  -15.5322 C   0  0  0  0  0  0  0  0  0  0  0  0
   19.4656   -6.5937  -16.4248 O   0  0  0  0  0  0  0  0  0  0  0  0
   16.8703   -8.6175  -13.6659 C   0  0  0  0  0  0  0  0  0  0  0  0
   17.6290   -7.6577  -14.5935 C   0  0  2  0  0  0  0  0  0  0  0  0
   19.0339   -8.0052  -14.6418 N   0  0  0  0  0  0  0  0  0  0  0  0
   17.4237   -6.3016  -14.0228 C   0  0  0  0  0  0  0  0  0  0  0  0
   18.3557   -5.8226  -13.3292 O   0  0  0  0  0  0  0  0  0  0  0  0
   18.1036    0.9121  -14.7530 C   0  0  0  0  0  0  0  0  0  0  0  0
   18.3830   -0.8744  -14.9425 S   0  0  0  0  0  0  0  0  0  0  0  0
   17.0510   -1.8297  -14.2246 C   0  0  0  0  0  0  0  0  0  0  0  0
   17.2379   -3.3044  -14.4369 C   0  0  0  0  0  0  0  0  0  0  0  0
   16.1380   -4.1186  -13.8297 C   0  0  2  0  0  0  0  0  0  0  0  0
   16.2667   -5.5347  -14.2099 N   0  0  0  0  0  0  0  0  0  0  0  0
   14.7880   -3.7098  -14.2628 C   0  0  0  0  0  0  0  0  0  0  0  0
   14.0777   -2.6813  -13.6630 O   0  0  0  0  0  0  0  0  0  0  0  0
   14.2247   -4.3010  -15.2184 O   0  0  0  0  0  0  0  0  0  0  0  0
  2  1  1  1
  3  2  1  0
  4  2  1  0
  4  5  1  6
  6  4  1  0
  6 10  1  0
  7  6  2  0
  9  8  1  1
  9 10  1  0
  9 11  1  0
 11 18  1  0
 12 11  2  0
 14 13  1  0
 15 14  1  0
 16 15  1  0
 17 19  1  0
 17 16  1  6
 18 17  1  0
 19 20  1  0
 21 19  2  0
M  END
$$$$
