TAM.pdb
     RDKit          3D

 21 20  0  0  1  0  0  0  0  0999 V2000
   27.5582  -23.1557  -15.4807 C   0  0  0  0  0  0  0  0  0  0  0  0
   28.3377  -21.9760  -16.0212 C   0  0  1  0  0  0  0  0  0  0  0  0
   29.0102  -22.2952  -17.2002 O   0  0  0  0  0  0  0  0  0  0  0  0
   27.3526  -20.8537  -16.2645 C   0  0  2  0  0  0  0  0  0  0  0  0
   28.0684  -19.7638  -16.8997 N   0  0  0  0  0  0  0  0  0  0  0  0
   26.7457  -20.3457  -15.0146 C   0  0  0  0  0  0  0  0  0  0  0  0
   27.4415  -19.7268  -14.1702 O   0  0  0  0  0  0  0  0  0  0  0  0
   23.2278  -20.2289  -13.5735 C   0  0  0  0  0  0  0  0  0  0  0  0
   24.7579  -20.1279  -13.4969 C   0  0  2  0  0  0  0  0  0  0  0  0
   25.3563  -20.5505  -14.7459 N   0  0  0  0  0  0  0  0  0  0  0  0
   25.1628  -21.0118  -12.3735 C   0  0  0  0  0  0  0  0  0  0  0  0
   26.2052  -21.6964  -12.5275 O   0  0  0  0  0  0  0  0  0  0  0  0
   28.4587  -19.7671   -6.4022 C   0  0  0  0  0  0  0  0  0  0  0  0
   27.8319  -20.1973   -8.0538 S   0  0  0  0  0  0  0  0  0  0  0  0
   26.3555  -19.2715   -8.4603 C   0  0  0  0  0  0  0  0  0  0  0  0
   25.8334  -19.6152   -9.8256 C   0  0  0  0  0  0  0  0  0  0  0  0
   25.0461  -20.8886   -9.8384 C   0  0  2  0  0  0  0  0  0  0  0  0
   24.4598  -21.1256  -11.1675 N   0  0  0  0  0  0  0  0  0  0  0  0
   23.9120  -20.8951   -8.8944 C   0  0  0  0  0  0  0  0  0  0  0  0
   22.7632  -20.1422   -9.0833 O   0  0  0  0  0  0  0  0  0  0  0  0
   23.9559  -21.6059   -7.8587 O   0  0  0  0  0  0  0  0  0  0  0  0
  2  1  1  6
  3  2  1  0
  4  2  1  0
  4  5  1  1
  6  4  1  0
  6 10  1  0
  7  6  2  0
  9  8  1  6
  9 10  1  0
  9 11  1  0
 11 18  1  0
 12 11  2  0
 14 13  1  0
 15 14  1  0
 16 15  1  0
 17 19  1  0
 17 16  1  6
 18 17  1  0
 19 20  1  0
 21 19  2  0
M  END
$$$$
