TAM.pdb
     RDKit          3D

 21 20  0  0  1  0  0  0  0  0999 V2000
   17.1991  -10.8065  -12.6025 C   0  0  0  0  0  0  0  0  0  0  0  0
   15.6907  -10.7540  -12.7177 C   0  0  1  0  0  0  0  0  0  0  0  0
   15.1297  -12.0295  -12.7679 O   0  0  0  0  0  0  0  0  0  0  0  0
   15.1694   -9.9968  -11.5159 C   0  0  2  0  0  0  0  0  0  0  0  0
   13.7233   -9.9463  -11.6152 N   0  0  0  0  0  0  0  0  0  0  0  0
   15.6799   -8.6098  -11.4495 C   0  0  0  0  0  0  0  0  0  0  0  0
   15.6923   -7.8822  -12.4745 O   0  0  0  0  0  0  0  0  0  0  0  0
   16.9188   -6.2994   -8.7013 C   0  0  0  0  0  0  0  0  0  0  0  0
   16.7997   -6.7717  -10.1574 C   0  0  2  0  0  0  0  0  0  0  0  0
   16.1683   -8.0735  -10.2173 N   0  0  0  0  0  0  0  0  0  0  0  0
   18.1898   -6.8171  -10.6796 C   0  0  0  0  0  0  0  0  0  0  0  0
   18.9617   -7.6768  -10.1855 O   0  0  0  0  0  0  0  0  0  0  0  0
   23.0220   -8.6511  -16.0603 C   0  0  0  0  0  0  0  0  0  0  0  0
   21.3484   -8.3616  -15.4114 S   0  0  0  0  0  0  0  0  0  0  0  0
   21.3503   -7.1384  -14.1052 C   0  0  0  0  0  0  0  0  0  0  0  0
   20.0238   -7.0594  -13.4060 C   0  0  0  0  0  0  0  0  0  0  0  0
   20.0261   -6.0802  -12.2735 C   0  0  2  0  0  0  0  0  0  0  0  0
   18.6846   -5.9687  -11.6780 N   0  0  0  0  0  0  0  0  0  0  0  0
   20.4007   -4.7102  -12.6737 C   0  0  0  0  0  0  0  0  0  0  0  0
   19.4729   -3.7420  -13.0257 O   0  0  0  0  0  0  0  0  0  0  0  0
   21.6104   -4.3704  -12.7082 O   0  0  0  0  0  0  0  0  0  0  0  0
  2  1  1  1
  3  2  1  0
  4  2  1  0
  4  5  1  6
  6  4  1  0
  6 10  1  0
  7  6  2  0
  9  8  1  1
  9 10  1  0
  9 11  1  0
 11 18  1  0
 12 11  2  0
 14 13  1  0
 15 14  1  0
 16 15  1  0
 17 19  1  0
 17 16  1  6
 18 17  1  0
 19 20  1  0
 21 19  2  0
M  END
$$$$
