TAM.pdb
     RDKit          3D

 21 20  0  0  1  0  0  0  0  0999 V2000
   16.1711   -7.8452   -8.8343 C   0  0  0  0  0  0  0  0  0  0  0  0
   15.1029   -6.7974   -9.0641 C   0  0  1  0  0  0  0  0  0  0  0  0
   15.6352   -5.5089   -9.0794 O   0  0  0  0  0  0  0  0  0  0  0  0
   14.4390   -7.1083  -10.3877 C   0  0  2  0  0  0  0  0  0  0  0  0
   13.9059   -8.4550  -10.3123 N   0  0  0  0  0  0  0  0  0  0  0  0
   15.3799   -7.0436  -11.5276 C   0  0  0  0  0  0  0  0  0  0  0  0
   16.1004   -8.0312  -11.8202 O   0  0  0  0  0  0  0  0  0  0  0  0
   16.2093   -4.4377  -14.1802 C   0  0  0  0  0  0  0  0  0  0  0  0
   16.3725   -5.7830  -13.4584 C   0  0  2  0  0  0  0  0  0  0  0  0
   15.4856   -5.8554  -12.3160 N   0  0  0  0  0  0  0  0  0  0  0  0
   17.7980   -5.8464  -13.0449 C   0  0  0  0  0  0  0  0  0  0  0  0
   18.0802   -5.4394  -11.8900 O   0  0  0  0  0  0  0  0  0  0  0  0
   24.4026  -10.1000  -13.6955 C   0  0  0  0  0  0  0  0  0  0  0  0
   22.7286   -9.6933  -14.2767 S   0  0  0  0  0  0  0  0  0  0  0  0
   22.1196   -8.1855  -13.5298 C   0  0  0  0  0  0  0  0  0  0  0  0
   20.6846   -7.9213  -13.8845 C   0  0  0  0  0  0  0  0  0  0  0  0
   20.2020   -6.5946  -13.3858 C   0  0  2  0  0  0  0  0  0  0  0  0
   18.8333   -6.3273  -13.8564 N   0  0  0  0  0  0  0  0  0  0  0  0
   21.0144   -5.4540  -13.8512 C   0  0  0  0  0  0  0  0  0  0  0  0
   22.0921   -4.9496  -13.1397 O   0  0  0  0  0  0  0  0  0  0  0  0
   20.7443   -4.8886  -14.9408 O   0  0  0  0  0  0  0  0  0  0  0  0
  2  1  1  6
  3  2  1  0
  4  2  1  0
  4  5  1  1
  6  4  1  0
  6 10  1  0
  7  6  2  0
  9  8  1  1
  9 10  1  0
  9 11  1  0
 11 18  1  0
 12 11  2  0
 14 13  1  0
 15 14  1  0
 16 15  1  0
 17 19  1  0
 17 16  1  6
 18 17  1  0
 19 20  1  0
 21 19  2  0
M  END
$$$$
