TAM.pdb
     RDKit          3D

 21 20  0  0  1  0  0  0  0  0999 V2000
   24.3396  -12.0455  -15.1263 C   0  0  0  0  0  0  0  0  0  0  0  0
   24.0506  -12.8708  -16.3620 C   0  0  1  0  0  0  0  0  0  0  0  0
   24.5522  -14.1668  -16.2489 O   0  0  0  0  0  0  0  0  0  0  0  0
   22.5492  -12.9019  -16.5467 C   0  0  2  0  0  0  0  0  0  0  0  0
   22.2585  -13.7564  -17.6819 N   0  0  0  0  0  0  0  0  0  0  0  0
   21.9790  -11.5631  -16.8139 C   0  0  0  0  0  0  0  0  0  0  0  0
   22.3461  -10.8990  -17.8161 O   0  0  0  0  0  0  0  0  0  0  0  0
   19.2012   -9.4384  -15.3625 C   0  0  0  0  0  0  0  0  0  0  0  0
   20.5364   -9.6391  -16.0934 C   0  0  2  0  0  0  0  0  0  0  0  0
   21.0000  -11.0018  -15.9358 N   0  0  0  0  0  0  0  0  0  0  0  0
   21.4798   -8.6694  -15.4795 C   0  0  0  0  0  0  0  0  0  0  0  0
   22.0451   -9.0147  -14.4117 O   0  0  0  0  0  0  0  0  0  0  0  0
   23.8371   -3.2752  -18.5694 C   0  0  0  0  0  0  0  0  0  0  0  0
   24.9586   -3.4963  -17.1557 S   0  0  0  0  0  0  0  0  0  0  0  0
   24.2231   -4.5185  -15.8843 C   0  0  0  0  0  0  0  0  0  0  0  0
   23.2793   -5.5367  -16.4565 C   0  0  0  0  0  0  0  0  0  0  0  0
   22.7135   -6.4492  -15.4131 C   0  0  2  0  0  0  0  0  0  0  0  0
   21.7729   -7.4085  -16.0143 N   0  0  0  0  0  0  0  0  0  0  0  0
   21.9518   -5.7486  -14.3613 C   0  0  0  0  0  0  0  0  0  0  0  0
   22.5105   -5.3529  -13.1557 O   0  0  0  0  0  0  0  0  0  0  0  0
   20.7356   -5.4817  -14.5331 O   0  0  0  0  0  0  0  0  0  0  0  0
  2  1  1  1
  3  2  1  0
  4  2  1  0
  4  5  1  6
  6  4  1  0
  6 10  1  0
  7  6  2  0
  9  8  1  1
  9 10  1  0
  9 11  1  0
 11 18  1  0
 12 11  2  0
 14 13  1  0
 15 14  1  0
 16 15  1  0
 17 19  1  0
 17 16  1  6
 18 17  1  0
 19 20  1  0
 21 19  2  0
M  END
$$$$
