TAM.pdb
     RDKit          3D

 21 20  0  0  1  0  0  0  0  0999 V2000
   17.8854  -14.6671  -17.8241 C   0  0  0  0  0  0  0  0  0  0  0  0
   18.0580  -13.1907  -18.1104 C   0  0  1  0  0  0  0  0  0  0  0  0
   16.9351  -12.6488  -18.7345 O   0  0  0  0  0  0  0  0  0  0  0  0
   18.3113  -12.4983  -16.7892 C   0  0  2  0  0  0  0  0  0  0  0  0
   17.0826  -12.5447  -16.0201 N   0  0  0  0  0  0  0  0  0  0  0  0
   18.7043  -11.0815  -16.9533 C   0  0  0  0  0  0  0  0  0  0  0  0
   19.8143  -10.7792  -17.4599 O   0  0  0  0  0  0  0  0  0  0  0  0
   17.1250   -7.7395  -16.0254 C   0  0  0  0  0  0  0  0  0  0  0  0
   18.2600   -8.6497  -16.5158 C   0  0  2  0  0  0  0  0  0  0  0  0
   17.8272  -10.0314  -16.5378 N   0  0  0  0  0  0  0  0  0  0  0  0
   19.3793   -8.4457  -15.5604 C   0  0  0  0  0  0  0  0  0  0  0  0
   19.4376   -9.2170  -14.5701 O   0  0  0  0  0  0  0  0  0  0  0  0
   26.1458  -10.4818  -14.3520 C   0  0  0  0  0  0  0  0  0  0  0  0
   24.4313  -10.4116  -14.9530 S   0  0  0  0  0  0  0  0  0  0  0  0
   23.9040   -8.7269  -15.2463 C   0  0  0  0  0  0  0  0  0  0  0  0
   22.4882   -8.6583  -15.7419 C   0  0  0  0  0  0  0  0  0  0  0  0
   21.7118   -7.5410  -15.1172 C   0  0  2  0  0  0  0  0  0  0  0  0
   20.3615   -7.4566  -15.6969 N   0  0  0  0  0  0  0  0  0  0  0  0
   22.3176   -6.2109  -15.3202 C   0  0  0  0  0  0  0  0  0  0  0  0
   21.7698   -5.2466  -16.1523 O   0  0  0  0  0  0  0  0  0  0  0  0
   23.3817   -5.9037  -14.7259 O   0  0  0  0  0  0  0  0  0  0  0  0
  2  1  1  1
  3  2  1  0
  4  2  1  0
  4  5  1  1
  6  4  1  0
  6 10  1  0
  7  6  2  0
  9  8  1  1
  9 10  1  0
  9 11  1  0
 11 18  1  0
 12 11  2  0
 14 13  1  0
 15 14  1  0
 16 15  1  0
 17 19  1  0
 17 16  1  6
 18 17  1  0
 19 20  1  0
 21 19  2  0
M  END
$$$$
