TAM.pdb
     RDKit          3D

 21 20  0  0  1  0  0  0  0  0999 V2000
   22.3260  -10.2131  -20.6042 C   0  0  0  0  0  0  0  0  0  0  0  0
   23.1002  -11.1370  -19.6886 C   0  0  1  0  0  0  0  0  0  0  0  0
   24.1637  -10.4816  -19.0693 O   0  0  0  0  0  0  0  0  0  0  0  0
   22.1324  -11.6654  -18.6525 C   0  0  2  0  0  0  0  0  0  0  0  0
   21.1601  -12.4970  -19.3355 N   0  0  0  0  0  0  0  0  0  0  0  0
   21.4073  -10.5866  -17.9458 C   0  0  0  0  0  0  0  0  0  0  0  0
   20.8059   -9.6904  -18.5902 O   0  0  0  0  0  0  0  0  0  0  0  0
   20.2883   -9.9066  -14.4164 C   0  0  0  0  0  0  0  0  0  0  0  0
   20.7570   -9.4484  -15.8049 C   0  0  2  0  0  0  0  0  0  0  0  0
   21.3786  -10.5455  -16.5169 N   0  0  0  0  0  0  0  0  0  0  0  0
   21.7203   -8.3444  -15.5592 C   0  0  0  0  0  0  0  0  0  0  0  0
   22.8792   -8.4780  -16.0262 O   0  0  0  0  0  0  0  0  0  0  0  0
   25.0034   -4.7724  -18.7209 C   0  0  0  0  0  0  0  0  0  0  0  0
   23.6646   -3.7636  -18.0170 S   0  0  0  0  0  0  0  0  0  0  0  0
   23.2964   -4.2401  -16.3318 C   0  0  0  0  0  0  0  0  0  0  0  0
   22.5246   -5.5265  -16.2663 C   0  0  0  0  0  0  0  0  0  0  0  0
   22.2394   -5.9572  -14.8611 C   0  0  2  0  0  0  0  0  0  0  0  0
   21.4165   -7.1774  -14.8468 N   0  0  0  0  0  0  0  0  0  0  0  0
   21.4884   -4.9595  -14.0750 C   0  0  0  0  0  0  0  0  0  0  0  0
   22.0833   -4.1255  -13.1409 O   0  0  0  0  0  0  0  0  0  0  0  0
   20.2481   -4.8328  -14.2345 O   0  0  0  0  0  0  0  0  0  0  0  0
  2  1  1  6
  3  2  1  0
  4  2  1  0
  4  5  1  6
  6  4  1  0
  6 10  1  0
  7  6  2  0
  9  8  1  1
  9 10  1  0
  9 11  1  0
 11 18  1  0
 12 11  2  0
 14 13  1  0
 15 14  1  0
 16 15  1  0
 17 19  1  0
 17 16  1  6
 18 17  1  0
 19 20  1  0
 21 19  2  0
M  END
$$$$
