DRL.pdb
     RDKit          3D

 28 27  0  0  1  0  0  0  0  0999 V2000
   19.2896  -22.2969  -13.5210 N   0  0  0  0  0  0  0  0  0  0  0  0
   20.2195  -21.3410  -14.0873 C   0  0  1  0  0  0  0  0  0  0  0  0
   20.0802  -19.9775  -13.4462 C   0  0  0  0  0  0  0  0  0  0  0  0
   18.8013  -19.3325  -13.7777 C   0  0  0  0  0  0  0  0  0  0  0  0
   18.0846  -19.8297  -14.6827 O   0  0  0  0  0  0  0  0  0  0  0  0
   21.6281  -21.8010  -13.9672 C   0  0  0  0  0  0  0  0  0  0  0  0
   21.9988  -22.2196  -12.8526 O   0  0  0  0  0  0  0  0  0  0  0  0
   18.4216  -18.2019  -13.0896 O   0  0  0  0  0  0  0  0  0  0  0  0
   28.5460  -25.1143  -16.6849 N   0  0  0  0  0  0  0  0  0  0  0  0
   27.3125  -25.7685  -16.9635 C   0  0  0  0  0  0  0  0  0  0  0  0
   27.0968  -27.0147  -16.6999 N   0  0  0  0  0  0  0  0  0  0  0  0
   26.2378  -25.0432  -17.5638 N   0  0  0  0  0  0  0  0  0  0  0  0
   26.3643  -23.5757  -17.6640 C   0  0  0  0  0  0  0  0  0  0  0  0
   25.7924  -23.0160  -16.3686 C   0  0  0  0  0  0  0  0  0  0  0  0
   24.3504  -22.6899  -16.4223 C   0  0  0  0  0  0  0  0  0  0  0  0
   23.8517  -22.1139  -15.1260 C   0  0  2  0  0  0  0  0  0  0  0  0
   22.4709  -21.7479  -15.0906 N   0  0  0  0  0  0  0  0  0  0  0  0
   24.7507  -21.0867  -14.5528 C   0  0  0  0  0  0  0  0  0  0  0  0
   24.5827  -19.8916  -14.9347 O   0  0  0  0  0  0  0  0  0  0  0  0
   26.1207  -27.3645  -16.8826 C   0  0  0  0  0  0  0  0  0  0  0  0
   27.0839  -21.6955   -9.4542 C   0  0  1  0  0  0  0  0  0  0  0  0
   26.2265  -21.1207  -10.6221 C   0  0  0  0  0  0  0  0  0  0  0  0
   25.4362  -19.9636  -10.0125 C   0  0  0  0  0  0  0  0  0  0  0  0
   27.1279  -20.7510  -11.7334 C   0  0  2  0  0  0  0  0  0  0  0  0
   26.5942  -20.2942  -13.0243 N   0  0  0  0  0  0  0  0  0  0  0  0
   25.7638  -21.3559  -13.6240 C   0  0  0  0  0  0  0  0  0  0  0  0
   27.4744  -19.8014  -14.0662 O   0  0  0  0  0  0  0  0  0  0  0  0
   27.7121  -20.3614  -15.1639 O   0  0  0  0  0  0  0  0  0  0  0  0
  2  1  1  1
  2  3  1  0
  3  4  1  0
  4  5  2  0
  4  8  1  0
  6  7  2  0
  6  2  1  0
  9 10  1  0
 10 12  1  0
 11 10  2  0
 12 13  1  0
 14 13  1  0
 14 15  1  0
 16 15  1  6
 16 17  1  0
 17  6  1  0
 18 16  1  0
 19 18  2  0
 21 20  1  1
 21 22  1  0
 23 21  1  0
 24 23  1  1
 24 25  1  0
 25 18  1  0
 26 28  1  0
 26 24  1  0
 27 26  2  0
M  END
$$$$
