DRL.pdb
     RDKit          3D

 28 27  0  0  1  0  0  0  0  0999 V2000
   19.5233  -22.7920  -14.8664 N   0  0  0  0  0  0  0  0  0  0  0  0
   20.5395  -21.8194  -15.2137 C   0  0  1  0  0  0  0  0  0  0  0  0
   20.1263  -20.4161  -14.8275 C   0  0  0  0  0  0  0  0  0  0  0  0
   19.3350  -19.7580  -15.8774 C   0  0  0  0  0  0  0  0  0  0  0  0
   18.9748  -18.5652  -15.7117 O   0  0  0  0  0  0  0  0  0  0  0  0
   21.8489  -22.1386  -14.5859 C   0  0  0  0  0  0  0  0  0  0  0  0
   21.8942  -22.1603  -13.3399 O   0  0  0  0  0  0  0  0  0  0  0  0
   19.0089  -20.4638  -17.0138 O   0  0  0  0  0  0  0  0  0  0  0  0
   27.3603  -26.9971  -18.7176 N   0  0  0  0  0  0  0  0  0  0  0  0
   27.6600  -26.4566  -17.4350 C   0  0  0  0  0  0  0  0  0  0  0  0
   28.8020  -26.6108  -16.8509 N   0  0  0  0  0  0  0  0  0  0  0  0
   26.6740  -25.7008  -16.7290 N   0  0  0  0  0  0  0  0  0  0  0  0
   25.3970  -25.4191  -17.4140 C   0  0  0  0  0  0  0  0  0  0  0  0
   24.5515  -24.6353  -16.4193 C   0  0  0  0  0  0  0  0  0  0  0  0
   25.1838  -23.3962  -15.9158 C   0  0  0  0  0  0  0  0  0  0  0  0
   24.2942  -22.6570  -14.9549 C   0  0  2  0  0  0  0  0  0  0  0  0
   22.9623  -22.3982  -15.4031 N   0  0  0  0  0  0  0  0  0  0  0  0
   24.9468  -21.4836  -14.3311 C   0  0  0  0  0  0  0  0  0  0  0  0
   24.7576  -20.3573  -14.8769 O   0  0  0  0  0  0  0  0  0  0  0  0
   28.9048  -26.1557  -15.9071 C   0  0  0  0  0  0  0  0  0  0  0  0
   26.2056  -21.0127   -8.8655 C   0  0  1  0  0  0  0  0  0  0  0  0
   25.6200  -20.8296  -10.2982 C   0  0  0  0  0  0  0  0  0  0  0  0
   24.5718  -19.7251  -10.1688 C   0  0  0  0  0  0  0  0  0  0  0  0
   26.7298  -20.5382  -11.2295 C   0  0  2  0  0  0  0  0  0  0  0  0
   26.4899  -20.3771  -12.6705 N   0  0  0  0  0  0  0  0  0  0  0  0
   25.7514  -21.5454  -13.1863 C   0  0  0  0  0  0  0  0  0  0  0  0
   27.5841  -20.1249  -13.5881 O   0  0  0  0  0  0  0  0  0  0  0  0
   28.2531  -19.0664  -13.6730 O   0  0  0  0  0  0  0  0  0  0  0  0
  2  1  1  1
  2  3  1  0
  3  4  1  0
  4  5  2  0
  4  8  1  0
  6  7  2  0
  6  2  1  0
  9 10  1  0
 10 12  1  0
 11 10  2  0
 12 13  1  0
 14 13  1  0
 14 15  1  0
 16 15  1  6
 16 17  1  0
 17  6  1  0
 18 16  1  0
 19 18  2  0
 21 20  1  1
 21 22  1  0
 23 21  1  0
 24 23  1  1
 24 25  1  0
 25 18  1  0
 26 28  1  0
 26 24  1  0
 27 26  2  0
M  END
$$$$
