DRL.pdb
     RDKit          3D

 28 27  0  0  1  0  0  0  0  0999 V2000
   15.0463  -13.8323  -12.6779 N   0  0  0  0  0  0  0  0  0  0  0  0
   14.5709  -12.5127  -13.0410 C   0  0  1  0  0  0  0  0  0  0  0  0
   13.1420  -12.2905  -12.5961 C   0  0  0  0  0  0  0  0  0  0  0  0
   12.2160  -13.2714  -13.1809 C   0  0  0  0  0  0  0  0  0  0  0  0
   11.7849  -14.2071  -12.4608 O   0  0  0  0  0  0  0  0  0  0  0  0
   15.4344  -11.4397  -12.4811 C   0  0  0  0  0  0  0  0  0  0  0  0
   15.7631  -11.5390  -11.2822 O   0  0  0  0  0  0  0  0  0  0  0  0
   11.8451  -13.1406  -14.5004 O   0  0  0  0  0  0  0  0  0  0  0  0
   20.8542  -10.6735  -16.4592 N   0  0  0  0  0  0  0  0  0  0  0  0
   19.6859  -10.3023  -17.1833 C   0  0  0  0  0  0  0  0  0  0  0  0
   19.2448  -10.9629  -18.2022 N   0  0  0  0  0  0  0  0  0  0  0  0
   18.9390   -9.1483  -16.7932 N   0  0  0  0  0  0  0  0  0  0  0  0
   19.3146   -8.4741  -15.5347 C   0  0  0  0  0  0  0  0  0  0  0  0
   18.5433   -9.1856  -14.4313 C   0  0  0  0  0  0  0  0  0  0  0  0
   17.3112   -8.4922  -13.9957 C   0  0  0  0  0  0  0  0  0  0  0  0
   16.5995   -9.2371  -12.9005 C   0  0  2  0  0  0  0  0  0  0  0  0
   15.8392  -10.3768  -13.3065 N   0  0  0  0  0  0  0  0  0  0  0  0
   15.8802   -8.3520  -11.9566 C   0  0  0  0  0  0  0  0  0  0  0  0
   14.6203   -8.2930  -12.0634 O   0  0  0  0  0  0  0  0  0  0  0  0
   19.8629  -11.7393  -18.5537 C   0  0  0  0  0  0  0  0  0  0  0  0
   13.1318   -8.2992   -7.5587 C   0  0  2  0  0  0  0  0  0  0  0  0
   14.0602   -7.1594   -8.0768 C   0  0  0  0  0  0  0  0  0  0  0  0
   14.8734   -6.7159   -6.8615 C   0  0  0  0  0  0  0  0  0  0  0  0
   14.8543   -7.6749   -9.2116 C   0  0  1  0  0  0  0  0  0  0  0  0
   15.7447   -6.7924   -9.9786 N   0  0  0  0  0  0  0  0  0  0  0  0
   16.5039   -7.5853  -10.9642 C   0  0  0  0  0  0  0  0  0  0  0  0
   16.6926   -5.9215   -9.3106 O   0  0  0  0  0  0  0  0  0  0  0  0
   17.9332   -6.0947   -9.2330 O   0  0  0  0  0  0  0  0  0  0  0  0
  2  1  1  1
  2  3  1  0
  3  4  1  0
  4  5  2  0
  4  8  1  0
  6  7  2  0
  6  2  1  0
  9 10  1  0
 10 12  1  0
 11 10  2  0
 12 13  1  0
 14 13  1  0
 14 15  1  0
 16 15  1  6
 16 17  1  0
 17  6  1  0
 18 16  1  0
 19 18  2  0
 21 20  1  1
 21 22  1  0
 23 21  1  0
 24 23  1  6
 24 25  1  0
 25 18  1  0
 26 28  1  0
 26 24  1  0
 27 26  2  0
M  END
$$$$
