DRL.pdb
     RDKit          3D

 28 27  0  0  1  0  0  0  0  0999 V2000
   20.0229  -21.2463  -14.7843 N   0  0  0  0  0  0  0  0  0  0  0  0
   20.2909  -21.2035  -13.3611 C   0  0  1  0  0  0  0  0  0  0  0  0
   19.3544  -22.1059  -12.5878 C   0  0  0  0  0  0  0  0  0  0  0  0
   18.0244  -21.5063  -12.4060 C   0  0  0  0  0  0  0  0  0  0  0  0
   17.7773  -20.3972  -12.9434 O   0  0  0  0  0  0  0  0  0  0  0  0
   21.6978  -21.5710  -13.0514 C   0  0  0  0  0  0  0  0  0  0  0  0
   21.9549  -21.9068  -11.8783 O   0  0  0  0  0  0  0  0  0  0  0  0
   17.0846  -22.1737  -11.6529 O   0  0  0  0  0  0  0  0  0  0  0  0
   25.6761  -26.5124  -15.9293 N   0  0  0  0  0  0  0  0  0  0  0  0
   24.5117  -26.4046  -16.7416 C   0  0  0  0  0  0  0  0  0  0  0  0
   23.6488  -27.3572  -16.8719 N   0  0  0  0  0  0  0  0  0  0  0  0
   24.2519  -25.1989  -17.4629 N   0  0  0  0  0  0  0  0  0  0  0  0
   24.9554  -23.9728  -17.0373 C   0  0  0  0  0  0  0  0  0  0  0  0
   24.3218  -23.5633  -15.7147 C   0  0  0  0  0  0  0  0  0  0  0  0
   24.7602  -22.2460  -15.2036 C   0  0  0  0  0  0  0  0  0  0  0  0
   24.0463  -21.8643  -13.9365 C   0  0  2  0  0  0  0  0  0  0  0  0
   22.6643  -21.5270  -14.0707 N   0  0  0  0  0  0  0  0  0  0  0  0
   24.8078  -20.9144  -13.0940 C   0  0  0  0  0  0  0  0  0  0  0  0
   24.1907  -19.8947  -12.6679 O   0  0  0  0  0  0  0  0  0  0  0  0
   22.8108  -27.1440  -17.4726 C   0  0  0  0  0  0  0  0  0  0  0  0
   25.8157  -21.4291   -7.9053 C   0  0  2  0  0  0  0  0  0  0  0  0
   25.4512  -20.5812   -9.1613 C   0  0  0  0  0  0  0  0  0  0  0  0
   26.1656  -19.2442   -8.9682 C   0  0  0  0  0  0  0  0  0  0  0  0
   25.8423  -21.3350  -10.3708 C   0  0  2  0  0  0  0  0  0  0  0  0
   26.6776  -20.7201  -11.4120 N   0  0  0  0  0  0  0  0  0  0  0  0
   26.1546  -21.0756  -12.7449 C   0  0  0  0  0  0  0  0  0  0  0  0
   28.1114  -20.9347  -11.4452 O   0  0  0  0  0  0  0  0  0  0  0  0
   28.7071  -21.8859  -12.0070 O   0  0  0  0  0  0  0  0  0  0  0  0
  2  1  1  6
  2  3  1  0
  3  4  1  0
  4  5  2  0
  4  8  1  0
  6  7  2  0
  6  2  1  0
  9 10  1  0
 10 12  1  0
 11 10  2  0
 12 13  1  0
 14 13  1  0
 14 15  1  0
 16 15  1  6
 16 17  1  0
 17  6  1  0
 18 16  1  0
 19 18  2  0
 21 20  1  1
 21 22  1  0
 23 21  1  0
 24 23  1  1
 24 25  1  0
 25 18  1  0
 26 28  1  0
 26 24  1  0
 27 26  2  0
M  END
$$$$
