DRL.pdb
     RDKit          3D

 28 27  0  0  1  0  0  0  0  0999 V2000
   21.8021  -20.0722  -17.4716 N   0  0  0  0  0  0  0  0  0  0  0  0
   22.6770  -19.3795  -16.5475 C   0  0  1  0  0  0  0  0  0  0  0  0
   21.9000  -18.7170  -15.4309 C   0  0  0  0  0  0  0  0  0  0  0  0
   21.1058  -17.5742  -15.9048 C   0  0  0  0  0  0  0  0  0  0  0  0
   21.1580  -17.2579  -17.1202 O   0  0  0  0  0  0  0  0  0  0  0  0
   23.6990  -20.2889  -15.9653 C   0  0  0  0  0  0  0  0  0  0  0  0
   23.3875  -21.4895  -15.8366 O   0  0  0  0  0  0  0  0  0  0  0  0
   20.3261  -16.8803  -15.0068 O   0  0  0  0  0  0  0  0  0  0  0  0
   30.5005  -22.2051  -13.5139 N   0  0  0  0  0  0  0  0  0  0  0  0
   30.6218  -21.3490  -12.3828 C   0  0  0  0  0  0  0  0  0  0  0  0
   31.1484  -21.7240  -11.2643 N   0  0  0  0  0  0  0  0  0  0  0  0
   30.1489  -20.0024  -12.4510 N   0  0  0  0  0  0  0  0  0  0  0  0
   29.5304  -19.5494  -13.7126 C   0  0  0  0  0  0  0  0  0  0  0  0
   28.1893  -20.2647  -13.8027 C   0  0  0  0  0  0  0  0  0  0  0  0
   27.3562  -19.8679  -14.9592 C   0  0  0  0  0  0  0  0  0  0  0  0
   25.9850  -20.4825  -14.9064 C   0  0  2  0  0  0  0  0  0  0  0  0
   24.9508  -19.7721  -15.5901 N   0  0  0  0  0  0  0  0  0  0  0  0
   25.5946  -20.9375  -13.5527 C   0  0  0  0  0  0  0  0  0  0  0  0
   26.2754  -21.8717  -13.0369 O   0  0  0  0  0  0  0  0  0  0  0  0
   31.1391  -21.0140  -10.4869 C   0  0  0  0  0  0  0  0  0  0  0  0
   26.1642  -21.9078   -8.7748 C   0  0  2  0  0  0  0  0  0  0  0  0
   25.2867  -20.6600   -9.0946 C   0  0  0  0  0  0  0  0  0  0  0  0
   25.8423  -19.5390   -8.2172 C   0  0  0  0  0  0  0  0  0  0  0  0
   25.3387  -20.4053  -10.5494 C   0  0  1  0  0  0  0  0  0  0  0  0
   24.2354  -20.8113  -11.4315 N   0  0  0  0  0  0  0  0  0  0  0  0
   24.5294  -20.4017  -12.8179 C   0  0  0  0  0  0  0  0  0  0  0  0
   22.8685  -20.4167  -11.1509 O   0  0  0  0  0  0  0  0  0  0  0  0
   22.2272  -19.5023  -11.7232 O   0  0  0  0  0  0  0  0  0  0  0  0
  2  1  1  6
  2  3  1  0
  3  4  1  0
  4  5  2  0
  4  8  1  0
  6  7  2  0
  6  2  1  0
  9 10  1  0
 10 12  1  0
 11 10  2  0
 12 13  1  0
 14 13  1  0
 14 15  1  0
 16 15  1  1
 16 17  1  0
 17  6  1  0
 18 16  1  0
 19 18  2  0
 21 20  1  1
 21 22  1  0
 23 21  1  0
 24 23  1  6
 24 25  1  0
 25 18  1  0
 26 28  1  0
 26 24  1  0
 27 26  2  0
M  END
$$$$
