DRL.pdb
     RDKit          3D

 28 27  0  0  1  0  0  0  0  0999 V2000
   21.6455  -21.8335  -12.4877 N   0  0  0  0  0  0  0  0  0  0  0  0
   22.3085  -20.6272  -12.0353 C   0  0  1  0  0  0  0  0  0  0  0  0
   21.4080  -19.7912  -11.1525 C   0  0  0  0  0  0  0  0  0  0  0  0
   20.2513  -19.2539  -11.8839 C   0  0  0  0  0  0  0  0  0  0  0  0
   20.4141  -18.8325  -13.0568 O   0  0  0  0  0  0  0  0  0  0  0  0
   23.5703  -20.9280  -11.3089 C   0  0  0  0  0  0  0  0  0  0  0  0
   23.5009  -21.7207  -10.3487 O   0  0  0  0  0  0  0  0  0  0  0  0
   19.0208  -19.2261  -11.2666 O   0  0  0  0  0  0  0  0  0  0  0  0
   28.9260  -23.2586  -15.4991 N   0  0  0  0  0  0  0  0  0  0  0  0
   28.3417  -21.9949  -15.7970 C   0  0  0  0  0  0  0  0  0  0  0  0
   27.6450  -21.7704  -16.8616 N   0  0  0  0  0  0  0  0  0  0  0  0
   28.5129  -20.8978  -14.8977 N   0  0  0  0  0  0  0  0  0  0  0  0
   28.9946  -21.1904  -13.5332 C   0  0  0  0  0  0  0  0  0  0  0  0
   27.7483  -21.4159  -12.6879 C   0  0  0  0  0  0  0  0  0  0  0  0
   27.2375  -20.2048  -12.0088 C   0  0  0  0  0  0  0  0  0  0  0  0
   26.0550  -20.5049  -11.1300 C   0  0  2  0  0  0  0  0  0  0  0  0
   24.7680  -20.3207  -11.7230 N   0  0  0  0  0  0  0  0  0  0  0  0
   26.1684  -19.9272   -9.7715 C   0  0  0  0  0  0  0  0  0  0  0  0
   25.6984  -18.7652   -9.5952 O   0  0  0  0  0  0  0  0  0  0  0  0
   27.2552  -20.7977  -16.9633 C   0  0  0  0  0  0  0  0  0  0  0  0
   26.5611  -21.1001   -3.8706 C   0  0  2  0  0  0  0  0  0  0  0  0
   27.1094  -20.0897   -4.9231 C   0  0  0  0  0  0  0  0  0  0  0  0
   28.5995  -19.9519   -4.6137 C   0  0  0  0  0  0  0  0  0  0  0  0
   26.7913  -20.5952   -6.2749 C   0  0  1  0  0  0  0  0  0  0  0  0
   27.2167  -19.8661   -7.4780 N   0  0  0  0  0  0  0  0  0  0  0  0
   26.7578  -20.5827   -8.6832 C   0  0  0  0  0  0  0  0  0  0  0  0
   28.6090  -19.5210   -7.6912 O   0  0  0  0  0  0  0  0  0  0  0  0
   29.4382  -20.1686   -8.3753 O   0  0  0  0  0  0  0  0  0  0  0  0
  2  1  1  1
  2  3  1  0
  3  4  1  0
  4  5  2  0
  4  8  1  0
  6  7  2  0
  6  2  1  0
  9 10  1  0
 10 12  1  0
 11 10  2  0
 12 13  1  0
 14 13  1  0
 14 15  1  0
 16 15  1  6
 16 17  1  0
 17  6  1  0
 18 16  1  0
 19 18  2  0
 21 20  1  1
 21 22  1  0
 23 21  1  0
 24 23  1  1
 24 25  1  0
 25 18  1  0
 26 28  1  0
 26 24  1  0
 27 26  2  0
M  END
$$$$
