DRL.pdb
     RDKit          3D

 28 27  0  0  1  0  0  0  0  0999 V2000
   22.2374  -21.2804  -15.0826 N   0  0  0  0  0  0  0  0  0  0  0  0
   22.0284  -19.8542  -15.2294 C   0  0  1  0  0  0  0  0  0  0  0  0
   21.2990  -19.2700  -14.0394 C   0  0  0  0  0  0  0  0  0  0  0  0
   20.0280  -19.9582  -13.7705 C   0  0  0  0  0  0  0  0  0  0  0  0
   19.6317  -20.8415  -14.5722 O   0  0  0  0  0  0  0  0  0  0  0  0
   23.3083  -19.1249  -15.4303 C   0  0  0  0  0  0  0  0  0  0  0  0
   23.2665  -17.8790  -15.3969 O   0  0  0  0  0  0  0  0  0  0  0  0
   19.3049  -19.6183  -12.6491 O   0  0  0  0  0  0  0  0  0  0  0  0
   26.5186  -19.4412  -10.3726 N   0  0  0  0  0  0  0  0  0  0  0  0
   26.3541  -20.8283  -10.6479 C   0  0  0  0  0  0  0  0  0  0  0  0
   25.5921  -21.6032   -9.9494 N   0  0  0  0  0  0  0  0  0  0  0  0
   27.0500  -21.4278  -11.7424 N   0  0  0  0  0  0  0  0  0  0  0  0
   27.7399  -20.5359  -12.6954 C   0  0  0  0  0  0  0  0  0  0  0  0
   26.6466  -19.9101  -13.5507 C   0  0  0  0  0  0  0  0  0  0  0  0
   26.8943  -19.9708  -15.0080 C   0  0  0  0  0  0  0  0  0  0  0  0
   25.8021  -19.3024  -15.7962 C   0  0  2  0  0  0  0  0  0  0  0  0
   24.4917  -19.8517  -15.6455 N   0  0  0  0  0  0  0  0  0  0  0  0
   26.1719  -19.0322  -17.2041 C   0  0  0  0  0  0  0  0  0  0  0  0
   25.9110  -19.9327  -18.0545 O   0  0  0  0  0  0  0  0  0  0  0  0
   25.5410  -22.6072  -10.2624 C   0  0  0  0  0  0  0  0  0  0  0  0
   25.4500  -14.3134  -20.0456 C   0  0  1  0  0  0  0  0  0  0  0  0
   25.4508  -15.7934  -19.5569 C   0  0  0  0  0  0  0  0  0  0  0  0
   24.5938  -16.5540  -20.5680 C   0  0  0  0  0  0  0  0  0  0  0  0
   26.8505  -16.2541  -19.4452 C   0  0  2  0  0  0  0  0  0  0  0  0
   27.1667  -17.6350  -19.0537 N   0  0  0  0  0  0  0  0  0  0  0  0
   26.7859  -17.8532  -17.6452 C   0  0  0  0  0  0  0  0  0  0  0  0
   28.5024  -18.1739  -19.2229 O   0  0  0  0  0  0  0  0  0  0  0  0
   29.3546  -18.3441  -18.3174 O   0  0  0  0  0  0  0  0  0  0  0  0
  2  1  1  1
  2  3  1  0
  3  4  1  0
  4  5  2  0
  4  8  1  0
  6  7  2  0
  6  2  1  0
  9 10  1  0
 10 12  1  0
 11 10  2  0
 12 13  1  0
 14 13  1  0
 14 15  1  0
 16 15  1  6
 16 17  1  0
 17  6  1  0
 18 16  1  0
 19 18  2  0
 21 20  1  1
 21 22  1  0
 23 21  1  0
 24 23  1  6
 24 25  1  0
 25 18  1  0
 26 28  1  0
 26 24  1  0
 27 26  2  0
M  END
$$$$
