DRL.pdb
     RDKit          3D

 28 27  0  0  1  0  0  0  0  0999 V2000
   22.5770  -15.5474  -18.6288 N   0  0  0  0  0  0  0  0  0  0  0  0
   21.6420  -14.9022  -17.7295 C   0  0  1  0  0  0  0  0  0  0  0  0
   21.8017  -15.3953  -16.3080 C   0  0  0  0  0  0  0  0  0  0  0  0
   21.4264  -16.8093  -16.1619 C   0  0  0  0  0  0  0  0  0  0  0  0
   21.5060  -17.3469  -15.0286 O   0  0  0  0  0  0  0  0  0  0  0  0
   21.7794  -13.4221  -17.7566 C   0  0  0  0  0  0  0  0  0  0  0  0
   22.9361  -12.9561  -17.7552 O   0  0  0  0  0  0  0  0  0  0  0  0
   20.9980  -17.5077  -17.2685 O   0  0  0  0  0  0  0  0  0  0  0  0
   15.3618   -7.4662  -18.7059 N   0  0  0  0  0  0  0  0  0  0  0  0
   15.7677   -8.1712  -17.5374 C   0  0  0  0  0  0  0  0  0  0  0  0
   15.0000   -8.3449  -16.5129 N   0  0  0  0  0  0  0  0  0  0  0  0
   17.0812   -8.7278  -17.4579 N   0  0  0  0  0  0  0  0  0  0  0  0
   18.0397   -8.3950  -18.5304 C   0  0  0  0  0  0  0  0  0  0  0  0
   19.3434   -9.0877  -18.1575 C   0  0  0  0  0  0  0  0  0  0  0  0
   19.2599  -10.5633  -18.0919 C   0  0  0  0  0  0  0  0  0  0  0  0
   20.5907  -11.1925  -17.7854 C   0  0  2  0  0  0  0  0  0  0  0  0
   20.6250  -12.6210  -17.7824 N   0  0  0  0  0  0  0  0  0  0  0  0
   21.2781  -10.5819  -16.6250 C   0  0  0  0  0  0  0  0  0  0  0  0
   20.9589  -11.0036  -15.4750 O   0  0  0  0  0  0  0  0  0  0  0  0
   15.4117   -8.8921  -15.7132 C   0  0  0  0  0  0  0  0  0  0  0  0
   26.6693  -10.1517  -16.1213 C   0  0  2  0  0  0  0  0  0  0  0  0
   25.1682  -10.4232  -15.8020 C   0  0  0  0  0  0  0  0  0  0  0  0
   25.1654  -11.1502  -14.4578 C   0  0  0  0  0  0  0  0  0  0  0  0
   24.4397   -9.1376  -15.8238 C   0  0  2  0  0  0  0  0  0  0  0  0
   22.9963   -9.0777  -15.5535 N   0  0  0  0  0  0  0  0  0  0  0  0
   22.2492   -9.5775  -16.7234 C   0  0  0  0  0  0  0  0  0  0  0  0
   22.3628   -7.8406  -15.1395 O   0  0  0  0  0  0  0  0  0  0  0  0
   22.3798   -7.3476  -13.9855 O   0  0  0  0  0  0  0  0  0  0  0  0
  2  1  1  6
  2  3  1  0
  3  4  1  0
  4  5  2  0
  4  8  1  0
  6  7  2  0
  6  2  1  0
  9 10  1  0
 10 12  1  0
 11 10  2  0
 12 13  1  0
 14 13  1  0
 14 15  1  0
 16 15  1  1
 16 17  1  0
 17  6  1  0
 18 16  1  0
 19 18  2  0
 21 20  1  6
 21 22  1  0
 23 21  1  0
 24 23  1  1
 24 25  1  0
 25 18  1  0
 26 28  1  0
 26 24  1  0
 27 26  2  0
M  END
$$$$
