DRL.pdb
     RDKit          3D

 28 27  0  0  1  0  0  0  0  0999 V2000
   21.6638  -21.9109  -19.9203 N   0  0  0  0  0  0  0  0  0  0  0  0
   22.1064  -22.3749  -18.6210 C   0  0  1  0  0  0  0  0  0  0  0  0
   22.9789  -21.3509  -17.9285 C   0  0  0  0  0  0  0  0  0  0  0  0
   24.3134  -21.2510  -18.5373 C   0  0  0  0  0  0  0  0  0  0  0  0
   25.1444  -20.4409  -18.0545 O   0  0  0  0  0  0  0  0  0  0  0  0
   20.9621  -22.7254  -17.7390 C   0  0  0  0  0  0  0  0  0  0  0  0
   20.1934  -21.8013  -17.4070 O   0  0  0  0  0  0  0  0  0  0  0  0
   24.6187  -22.0461  -19.6192 O   0  0  0  0  0  0  0  0  0  0  0  0
   22.7622  -28.0020  -18.1599 N   0  0  0  0  0  0  0  0  0  0  0  0
   23.1149  -28.5463  -16.8925 C   0  0  0  0  0  0  0  0  0  0  0  0
   24.3266  -28.8538  -16.5664 N   0  0  0  0  0  0  0  0  0  0  0  0
   22.1060  -28.7777  -15.9075 N   0  0  0  0  0  0  0  0  0  0  0  0
   20.7471  -28.2668  -16.1758 C   0  0  0  0  0  0  0  0  0  0  0  0
   20.8631  -26.7485  -16.1796 C   0  0  0  0  0  0  0  0  0  0  0  0
   19.5883  -26.0342  -16.4102 C   0  0  0  0  0  0  0  0  0  0  0  0
   19.7738  -24.5425  -16.4463 C   0  0  2  0  0  0  0  0  0  0  0  0
   20.7935  -24.0567  -17.3216 N   0  0  0  0  0  0  0  0  0  0  0  0
   19.8006  -23.9191  -15.1036 C   0  0  0  0  0  0  0  0  0  0  0  0
   20.8522  -24.0706  -14.4155 O   0  0  0  0  0  0  0  0  0  0  0  0
   24.4465  -29.3518  -15.6466 C   0  0  0  0  0  0  0  0  0  0  0  0
   21.2834  -20.3603  -12.1475 C   0  0  2  0  0  0  0  0  0  0  0  0
   20.2477  -19.9413  -13.2343 C   0  0  0  0  0  0  0  0  0  0  0  0
   20.9119  -18.8042  -14.0093 C   0  0  0  0  0  0  0  0  0  0  0  0
   19.8979  -21.1310  -14.0383 C   0  0  1  0  0  0  0  0  0  0  0  0
   18.9500  -22.1355  -13.5358 N   0  0  0  0  0  0  0  0  0  0  0  0
   18.7439  -23.1805  -14.5565 C   0  0  0  0  0  0  0  0  0  0  0  0
   17.6395  -21.7505  -13.0487 O   0  0  0  0  0  0  0  0  0  0  0  0
   17.3848  -21.2268  -11.9369 O   0  0  0  0  0  0  0  0  0  0  0  0
  2  1  1  6
  2  3  1  0
  3  4  1  0
  4  5  2  0
  4  8  1  0
  6  7  2  0
  6  2  1  0
  9 10  1  0
 10 12  1  0
 11 10  2  0
 12 13  1  0
 14 13  1  0
 14 15  1  0
 16 15  1  1
 16 17  1  0
 17  6  1  0
 18 16  1  0
 19 18  2  0
 21 20  1  1
 21 22  1  0
 23 21  1  0
 24 23  1  1
 24 25  1  0
 25 18  1  0
 26 28  1  0
 26 24  1  0
 27 26  2  0
M  END
$$$$
