DRL.pdb
     RDKit          3D

 28 27  0  0  1  0  0  0  0  0999 V2000
   19.0956  -14.7921  -16.2169 N   0  0  0  0  0  0  0  0  0  0  0  0
   19.4763  -13.6420  -17.0116 C   0  0  1  0  0  0  0  0  0  0  0  0
   18.2691  -12.9379  -17.5915 C   0  0  0  0  0  0  0  0  0  0  0  0
   17.4564  -13.8263  -18.4353 C   0  0  0  0  0  0  0  0  0  0  0  0
   18.0230  -14.5037  -19.3297 O   0  0  0  0  0  0  0  0  0  0  0  0
   20.2847  -12.6709  -16.2281 C   0  0  0  0  0  0  0  0  0  0  0  0
   19.7770  -12.2175  -15.1832 O   0  0  0  0  0  0  0  0  0  0  0  0
   16.0974  -13.8936  -18.2247 O   0  0  0  0  0  0  0  0  0  0  0  0
   28.4522  -13.7295  -16.5723 N   0  0  0  0  0  0  0  0  0  0  0  0
   27.3660  -13.9407  -17.4681 C   0  0  0  0  0  0  0  0  0  0  0  0
   27.5054  -14.4743  -18.6364 N   0  0  0  0  0  0  0  0  0  0  0  0
   26.0425  -13.5563  -17.0909 N   0  0  0  0  0  0  0  0  0  0  0  0
   25.8113  -13.1566  -15.6887 C   0  0  0  0  0  0  0  0  0  0  0  0
   24.3237  -12.8507  -15.5796 C   0  0  0  0  0  0  0  0  0  0  0  0
   23.9040  -11.5926  -16.2352 C   0  0  0  0  0  0  0  0  0  0  0  0
   22.4290  -11.3416  -16.0866 C   0  0  2  0  0  0  0  0  0  0  0  0
   21.5633  -12.3082  -16.6850 N   0  0  0  0  0  0  0  0  0  0  0  0
   22.0378   -9.9420  -16.3693 C   0  0  0  0  0  0  0  0  0  0  0  0
   21.8896   -9.6159  -17.5833 O   0  0  0  0  0  0  0  0  0  0  0  0
   26.6260  -14.5786  -19.2059 C   0  0  0  0  0  0  0  0  0  0  0  0
   19.6516   -6.0685  -18.1332 C   0  0  2  0  0  0  0  0  0  0  0  0
   19.1324   -6.6757  -16.7950 C   0  0  0  0  0  0  0  0  0  0  0  0
   17.6601   -7.0017  -17.0427 C   0  0  0  0  0  0  0  0  0  0  0  0
   19.9818   -7.8314  -16.4387 C   0  0  1  0  0  0  0  0  0  0  0  0
   21.2303   -7.6525  -15.6843 N   0  0  0  0  0  0  0  0  0  0  0  0
   21.8244   -8.9692  -15.3846 C   0  0  0  0  0  0  0  0  0  0  0  0
   21.2592   -6.8819  -14.4561 O   0  0  0  0  0  0  0  0  0  0  0  0
   21.4567   -7.3322  -13.3014 O   0  0  0  0  0  0  0  0  0  0  0  0
  2  1  1  1
  2  3  1  0
  3  4  1  0
  4  5  2  0
  4  8  1  0
  6  7  2  0
  6  2  1  0
  9 10  1  0
 10 12  1  0
 11 10  2  0
 12 13  1  0
 14 13  1  0
 14 15  1  0
 16 15  1  6
 16 17  1  0
 17  6  1  0
 18 16  1  0
 19 18  2  0
 21 20  1  1
 21 22  1  0
 23 21  1  0
 24 23  1  6
 24 25  1  0
 25 18  1  0
 26 28  1  0
 26 24  1  0
 27 26  2  0
M  END
$$$$
