DRL.pdb
     RDKit          3D

 28 27  0  0  1  0  0  0  0  0999 V2000
   18.8341  -11.7280  -17.4302 N   0  0  0  0  0  0  0  0  0  0  0  0
   19.6392  -10.6302  -17.9262 C   0  0  1  0  0  0  0  0  0  0  0  0
   18.7921   -9.5788  -18.6089 C   0  0  0  0  0  0  0  0  0  0  0  0
   18.2111  -10.0621  -19.8700 C   0  0  0  0  0  0  0  0  0  0  0  0
   18.6478  -11.1278  -20.3733 O   0  0  0  0  0  0  0  0  0  0  0  0
   20.4363   -9.9952  -16.8438 C   0  0  0  0  0  0  0  0  0  0  0  0
   19.8089   -9.5215  -15.8757 O   0  0  0  0  0  0  0  0  0  0  0  0
   17.2047   -9.3363  -20.4669 O   0  0  0  0  0  0  0  0  0  0  0  0
   27.9748  -13.4081  -15.2691 N   0  0  0  0  0  0  0  0  0  0  0  0
   26.8376  -13.9890  -15.8987 C   0  0  0  0  0  0  0  0  0  0  0  0
   26.8297  -15.1883  -16.3789 N   0  0  0  0  0  0  0  0  0  0  0  0
   25.6280  -13.2387  -16.0237 N   0  0  0  0  0  0  0  0  0  0  0  0
   25.7247  -11.7656  -16.0247 C   0  0  0  0  0  0  0  0  0  0  0  0
   24.2923  -11.2514  -16.0737 C   0  0  0  0  0  0  0  0  0  0  0  0
   24.1676   -9.7774  -16.0953 C   0  0  0  0  0  0  0  0  0  0  0  0
   22.7337   -9.3296  -16.0291 C   0  0  2  0  0  0  0  0  0  0  0  0
   21.8370   -9.9535  -16.9502 N   0  0  0  0  0  0  0  0  0  0  0  0
   22.5782   -7.8590  -15.9563 C   0  0  0  0  0  0  0  0  0  0  0  0
   22.3134   -7.2505  -17.0342 O   0  0  0  0  0  0  0  0  0  0  0  0
   25.9518  -15.4803  -16.8814 C   0  0  0  0  0  0  0  0  0  0  0  0
   19.1757   -4.7095  -16.7170 C   0  0  1  0  0  0  0  0  0  0  0  0
   20.6855   -4.5996  -16.3461 C   0  0  0  0  0  0  0  0  0  0  0  0
   20.9270   -3.1167  -16.0676 C   0  0  0  0  0  0  0  0  0  0  0  0
   20.9614   -5.5063  -15.2122 C   0  0  2  0  0  0  0  0  0  0  0  0
   22.3267   -5.6868  -14.6988 N   0  0  0  0  0  0  0  0  0  0  0  0
   22.7051   -7.1105  -14.7794 C   0  0  0  0  0  0  0  0  0  0  0  0
   22.6970   -5.2212  -13.3763 O   0  0  0  0  0  0  0  0  0  0  0  0
   22.8794   -5.9365  -12.3613 O   0  0  0  0  0  0  0  0  0  0  0  0
  2  1  1  1
  2  3  1  0
  3  4  1  0
  4  5  2  0
  4  8  1  0
  6  7  2  0
  6  2  1  0
  9 10  1  0
 10 12  1  0
 11 10  2  0
 12 13  1  0
 14 13  1  0
 14 15  1  0
 16 15  1  6
 16 17  1  0
 17  6  1  0
 18 16  1  0
 19 18  2  0
 21 20  1  6
 21 22  1  0
 23 21  1  0
 24 23  1  6
 24 25  1  0
 25 18  1  0
 26 28  1  0
 26 24  1  0
 27 26  2  0
M  END
$$$$
