DRL.pdb
     RDKit          3D

 28 27  0  0  1  0  0  0  0  0999 V2000
   26.5899  -21.8982  -14.0014 N   0  0  0  0  0  0  0  0  0  0  0  0
   27.1900  -20.5943  -13.8045 C   0  0  1  0  0  0  0  0  0  0  0  0
   26.9461  -19.6817  -14.9865 C   0  0  0  0  0  0  0  0  0  0  0  0
   26.7732  -20.4275  -16.2416 C   0  0  0  0  0  0  0  0  0  0  0  0
   27.1924  -21.6105  -16.3102 O   0  0  0  0  0  0  0  0  0  0  0  0
   26.6959  -19.9388  -12.5650 C   0  0  0  0  0  0  0  0  0  0  0  0
   26.9420  -18.7244  -12.4244 O   0  0  0  0  0  0  0  0  0  0  0  0
   26.1576  -19.8123  -17.3085 O   0  0  0  0  0  0  0  0  0  0  0  0
   19.0597  -20.9224  -12.3461 N   0  0  0  0  0  0  0  0  0  0  0  0
   20.0278  -21.5031  -13.2135 C   0  0  0  0  0  0  0  0  0  0  0  0
   19.7331  -22.0118  -14.3639 N   0  0  0  0  0  0  0  0  0  0  0  0
   21.4026  -21.5433  -12.8263 N   0  0  0  0  0  0  0  0  0  0  0  0
   21.7847  -20.8845  -11.5616 C   0  0  0  0  0  0  0  0  0  0  0  0
   23.3054  -20.9367  -11.5043 C   0  0  0  0  0  0  0  0  0  0  0  0
   23.9009  -20.2627  -10.3296 C   0  0  0  0  0  0  0  0  0  0  0  0
   25.4011  -20.2033  -10.4113 C   0  0  2  0  0  0  0  0  0  0  0  0
   25.9851  -20.6965  -11.6185 N   0  0  0  0  0  0  0  0  0  0  0  0
   26.0777  -20.6868   -9.1864 C   0  0  0  0  0  0  0  0  0  0  0  0
   26.3601  -21.9194   -9.1288 O   0  0  0  0  0  0  0  0  0  0  0  0
   20.5084  -22.5283  -14.8543 C   0  0  0  0  0  0  0  0  0  0  0  0
   30.1427  -18.8202   -5.1843 C   0  0  2  0  0  0  0  0  0  0  0  0
   28.9564  -19.8281   -5.2616 C   0  0  0  0  0  0  0  0  0  0  0  0
   28.1724  -19.6305   -3.9649 C   0  0  0  0  0  0  0  0  0  0  0  0
   28.1962  -19.5701   -6.5024 C   0  0  1  0  0  0  0  0  0  0  0  0
   27.0426  -20.4017   -6.8733 N   0  0  0  0  0  0  0  0  0  0  0  0
   26.4197  -19.8708   -8.1007 C   0  0  0  0  0  0  0  0  0  0  0  0
   25.9723  -20.6610   -5.9296 O   0  0  0  0  0  0  0  0  0  0  0  0
   26.0537  -21.3542   -4.8866 O   0  0  0  0  0  0  0  0  0  0  0  0
  2  1  1  6
  2  3  1  0
  3  4  1  0
  4  5  2  0
  4  8  1  0
  6  7  2  0
  6  2  1  0
  9 10  1  0
 10 12  1  0
 11 10  2  0
 12 13  1  0
 14 13  1  0
 14 15  1  0
 16 15  1  1
 16 17  1  0
 17  6  1  0
 18 16  1  0
 19 18  2  0
 21 20  1  1
 21 22  1  0
 23 21  1  0
 24 23  1  6
 24 25  1  0
 25 18  1  0
 26 28  1  0
 26 24  1  0
 27 26  2  0
M  END
$$$$
