DRL.pdb
     RDKit          3D

 28 27  0  0  1  0  0  0  0  0999 V2000
   13.5123  -23.8195   -9.0107 N   0  0  0  0  0  0  0  0  0  0  0  0
   14.4603  -23.1841   -8.1181 C   0  0  1  0  0  0  0  0  0  0  0  0
   14.5117  -21.6869   -8.3301 C   0  0  0  0  0  0  0  0  0  0  0  0
   15.0794  -21.3271   -9.6377 C   0  0  0  0  0  0  0  0  0  0  0  0
   14.3603  -20.7136  -10.4662 O   0  0  0  0  0  0  0  0  0  0  0  0
   14.1551  -23.4702   -6.6915 C   0  0  0  0  0  0  0  0  0  0  0  0
   12.9743  -23.3208   -6.3194 O   0  0  0  0  0  0  0  0  0  0  0  0
   16.3823  -21.6707   -9.9212 O   0  0  0  0  0  0  0  0  0  0  0  0
   19.4319  -28.8886   -2.8384 N   0  0  0  0  0  0  0  0  0  0  0  0
   18.4571  -29.2393   -3.8150 C   0  0  0  0  0  0  0  0  0  0  0  0
   18.3607  -30.4219   -4.3262 N   0  0  0  0  0  0  0  0  0  0  0  0
   17.5228  -28.2616   -4.2764 N   0  0  0  0  0  0  0  0  0  0  0  0
   17.5164  -26.9432   -3.6121 C   0  0  0  0  0  0  0  0  0  0  0  0
   16.3695  -26.1628   -4.2400 C   0  0  0  0  0  0  0  0  0  0  0  0
   16.2339  -24.7714   -3.7560 C   0  0  0  0  0  0  0  0  0  0  0  0
   15.0921  -24.0507   -4.4178 C   0  0  2  0  0  0  0  0  0  0  0  0
   15.1869  -23.8895   -5.8344 N   0  0  0  0  0  0  0  0  0  0  0  0
   14.6831  -22.8173   -3.7082 C   0  0  0  0  0  0  0  0  0  0  0  0
   14.6537  -21.7451   -4.3803 O   0  0  0  0  0  0  0  0  0  0  0  0
   17.5805  -30.5649   -5.0185 C   0  0  0  0  0  0  0  0  0  0  0  0
   10.2549  -20.9089   -3.9257 C   0  0  2  0  0  0  0  0  0  0  0  0
   11.4812  -20.5491   -3.0336 C   0  0  0  0  0  0  0  0  0  0  0  0
   10.9200  -19.6893   -1.9018 C   0  0  0  0  0  0  0  0  0  0  0  0
   12.1390  -21.8014   -2.6060 C   0  0  2  0  0  0  0  0  0  0  0  0
   13.3784  -21.7772   -1.8164 N   0  0  0  0  0  0  0  0  0  0  0  0
   14.3308  -22.7675   -2.3536 C   0  0  0  0  0  0  0  0  0  0  0  0
   13.3522  -21.9479   -0.3765 O   0  0  0  0  0  0  0  0  0  0  0  0
   13.5848  -23.0104    0.2496 O   0  0  0  0  0  0  0  0  0  0  0  0
  2  1  1  6
  2  3  1  0
  3  4  1  0
  4  5  2  0
  4  8  1  0
  6  7  2  0
  6  2  1  0
  9 10  1  0
 10 12  1  0
 11 10  2  0
 12 13  1  0
 14 13  1  0
 14 15  1  0
 16 15  1  1
 16 17  1  0
 17  6  1  0
 18 16  1  0
 19 18  2  0
 21 20  1  6
 21 22  1  0
 23 21  1  0
 24 23  1  6
 24 25  1  0
 25 18  1  0
 26 28  1  0
 26 24  1  0
 27 26  2  0
M  END
$$$$
