CFI.pdb
     RDKit          3D

 26 26  0  0  1  0  0  0  0  0999 V2000
   29.1736  -22.6546  -17.4702 N   0  0  0  0  0  0  0  0  0  0  0  0
   28.1793  -21.6274  -17.2283 C   0  0  1  0  0  0  0  0  0  0  0  0
   27.2320  -21.4790  -18.3899 C   0  0  0  0  0  0  0  0  0  0  0  0
   25.8984  -20.3248  -18.0585 S   0  0  0  0  0  0  0  0  0  0  0  0
   27.3785  -21.9747  -16.0217 C   0  0  0  0  0  0  0  0  0  0  0  0
   26.9283  -23.1332  -15.8656 O   0  0  0  0  0  0  0  0  0  0  0  0
   27.1188  -21.0089  -15.0459 N   0  0  0  0  0  0  0  0  0  0  0  0
   26.3153  -21.2908  -13.8296 C   0  0  1  0  0  0  0  0  0  0  0  0
   26.9278  -20.4265  -12.7742 C   0  0  0  0  0  0  0  0  0  0  0  0
   26.2835  -20.4589  -11.4537 C   0  0  0  0  0  0  0  0  0  0  0  0
   25.1209  -19.7215  -11.2053 C   0  0  0  0  0  0  0  0  0  0  0  0
   24.4870  -19.7493   -9.9962 C   0  0  0  0  0  0  0  0  0  0  0  0
   24.9772  -20.5194   -8.9544 C   0  0  0  0  0  0  0  0  0  0  0  0
   26.1214  -21.2578   -9.1673 C   0  0  0  0  0  0  0  0  0  0  0  0
   26.7417  -21.2122  -10.3967 C   0  0  0  0  0  0  0  0  0  0  0  0
   24.9255  -20.9789  -14.1867 C   0  0  0  0  0  0  0  0  0  0  0  0
   24.6948  -19.9282  -14.8635 O   0  0  0  0  0  0  0  0  0  0  0  0
   19.7465  -22.7615  -16.4907 C   0  0  0  0  0  0  0  0  0  0  0  0
   20.3786  -21.7646  -15.5051 C   0  0  0  0  0  0  0  0  0  0  0  0
   21.7357  -22.2215  -15.1092 C   0  0  2  0  0  0  0  0  0  0  0  0
   21.7670  -23.6497  -14.6298 C   0  0  0  0  0  0  0  0  0  0  0  0
   22.4206  -21.2878  -14.1336 C   0  0  2  0  0  0  0  0  0  0  0  0
   23.7735  -21.7308  -13.8633 N   0  0  0  0  0  0  0  0  0  0  0  0
   21.6360  -20.9683  -12.9486 C   0  0  0  0  0  0  0  0  0  0  0  0
   20.5427  -20.3334  -13.0387 O   0  0  0  0  0  0  0  0  0  0  0  0
   21.9832  -21.3092  -11.6515 O   0  0  0  0  0  0  0  0  0  0  0  0
  2  1  1  6
  2  3  1  0
  3  4  1  0
  5  2  1  0
  6  5  2  0
  7  5  1  0
  8  7  1  0
  8  9  1  1
  9 10  1  0
 10 15  2  0
 11 12  2  0
 11 10  1  0
 12 13  1  0
 13 14  2  0
 15 14  1  0
 16 23  1  0
 16  8  1  0
 17 16  2  0
 19 18  1  0
 20 22  1  0
 20 19  1  0
 20 21  1  1
 22 24  1  0
 22 23  1  1
 24 26  1  0
 25 24  2  0
M  END
$$$$
