CFI.pdb
     RDKit          3D

 26 26  0  0  1  0  0  0  0  0999 V2000
   29.1208  -21.3597  -14.4235 N   0  0  0  0  0  0  0  0  0  0  0  0
   28.2545  -20.2981  -13.9495 C   0  0  1  0  0  0  0  0  0  0  0  0
   27.7327  -19.4525  -15.0814 C   0  0  0  0  0  0  0  0  0  0  0  0
   28.8682  -18.1467  -15.5569 S   0  0  0  0  0  0  0  0  0  0  0  0
   27.0865  -20.8820  -13.2337 C   0  0  0  0  0  0  0  0  0  0  0  0
   26.5898  -21.9709  -13.6034 O   0  0  0  0  0  0  0  0  0  0  0  0
   26.5287  -20.2197  -12.1370 N   0  0  0  0  0  0  0  0  0  0  0  0
   25.4430  -20.8058  -11.3110 C   0  0  1  0  0  0  0  0  0  0  0  0
   25.5177  -20.0574  -10.0186 C   0  0  0  0  0  0  0  0  0  0  0  0
   26.6485  -20.3894   -9.1405 C   0  0  0  0  0  0  0  0  0  0  0  0
   27.6227  -21.3091   -9.5434 C   0  0  0  0  0  0  0  0  0  0  0  0
   28.6965  -21.6207   -8.7596 C   0  0  0  0  0  0  0  0  0  0  0  0
   28.8651  -21.0301   -7.5179 C   0  0  0  0  0  0  0  0  0  0  0  0
   27.9223  -20.1195   -7.0919 C   0  0  0  0  0  0  0  0  0  0  0  0
   26.8481  -19.8227   -7.9021 C   0  0  0  0  0  0  0  0  0  0  0  0
   24.2086  -20.6254  -12.0858 C   0  0  0  0  0  0  0  0  0  0  0  0
   24.0260  -19.5203  -12.6862 O   0  0  0  0  0  0  0  0  0  0  0  0
   22.6458  -23.6998  -15.9550 C   0  0  0  0  0  0  0  0  0  0  0  0
   22.8960  -22.5304  -14.9883 C   0  0  0  0  0  0  0  0  0  0  0  0
   21.7432  -22.3691  -14.0651 C   0  0  2  0  0  0  0  0  0  0  0  0
   20.4284  -22.1915  -14.7795 C   0  0  0  0  0  0  0  0  0  0  0  0
   21.9609  -21.2979  -13.0173 C   0  0  2  0  0  0  0  0  0  0  0  0
   23.1648  -21.5627  -12.2556 N   0  0  0  0  0  0  0  0  0  0  0  0
   20.7862  -20.9902  -12.2127 C   0  0  0  0  0  0  0  0  0  0  0  0
   19.7727  -20.4255  -12.7229 O   0  0  0  0  0  0  0  0  0  0  0  0
   20.6541  -21.2696  -10.8622 O   0  0  0  0  0  0  0  0  0  0  0  0
  2  1  1  6
  2  3  1  0
  3  4  1  0
  5  2  1  0
  6  5  2  0
  7  5  1  0
  8  7  1  0
  8  9  1  1
  9 10  1  0
 10 15  2  0
 11 12  2  0
 11 10  1  0
 12 13  1  0
 13 14  2  0
 15 14  1  0
 16 23  1  0
 16  8  1  0
 17 16  2  0
 19 18  1  0
 20 22  1  0
 20 19  1  0
 20 21  1  6
 22 24  1  0
 22 23  1  1
 24 26  1  0
 25 24  2  0
M  END
$$$$
