CFI.pdb
     RDKit          3D

 26 26  0  0  1  0  0  0  0  0999 V2000
   24.6046  -32.0365   -9.2388 N   0  0  0  0  0  0  0  0  0  0  0  0
   23.1973  -31.9197   -8.9097 C   0  0  1  0  0  0  0  0  0  0  0  0
   22.9790  -31.7611   -7.4279 C   0  0  0  0  0  0  0  0  0  0  0  0
   22.1121  -33.1528   -6.6983 S   0  0  0  0  0  0  0  0  0  0  0  0
   22.6171  -30.7295   -9.5912 C   0  0  0  0  0  0  0  0  0  0  0  0
   23.2966  -29.6889   -9.7482 O   0  0  0  0  0  0  0  0  0  0  0  0
   21.3030  -30.7595  -10.0654 N   0  0  0  0  0  0  0  0  0  0  0  0
   20.6931  -29.6325  -10.8152 C   0  0  1  0  0  0  0  0  0  0  0  0
   20.0515  -30.2817  -11.9997 C   0  0  0  0  0  0  0  0  0  0  0  0
   20.9254  -30.5355  -13.1538 C   0  0  0  0  0  0  0  0  0  0  0  0
   21.3327  -29.4889  -13.9881 C   0  0  0  0  0  0  0  0  0  0  0  0
   22.1623  -29.6899  -15.0539 C   0  0  0  0  0  0  0  0  0  0  0  0
   22.6393  -30.9552  -15.3545 C   0  0  0  0  0  0  0  0  0  0  0  0
   22.2564  -32.0078  -14.5513 C   0  0  0  0  0  0  0  0  0  0  0  0
   21.4184  -31.7780  -13.4820 C   0  0  0  0  0  0  0  0  0  0  0  0
   19.7803  -28.9723   -9.8733 C   0  0  0  0  0  0  0  0  0  0  0  0
   19.0734  -29.6974   -9.1053 O   0  0  0  0  0  0  0  0  0  0  0  0
   18.5240  -25.0558   -6.1608 C   0  0  0  0  0  0  0  0  0  0  0  0
   17.9536  -24.9287   -7.5832 C   0  0  0  0  0  0  0  0  0  0  0  0
   18.8800  -25.5459   -8.5671 C   0  0  2  0  0  0  0  0  0  0  0  0
   18.9969  -24.7616   -9.8484 C   0  0  0  0  0  0  0  0  0  0  0  0
   18.5866  -27.0080   -8.8297 C   0  0  2  0  0  0  0  0  0  0  0  0
   19.5871  -27.5824   -9.7065 N   0  0  0  0  0  0  0  0  0  0  0  0
   17.2090  -27.2905   -9.2097 C   0  0  0  0  0  0  0  0  0  0  0  0
   16.8263  -27.1821  -10.4131 O   0  0  0  0  0  0  0  0  0  0  0  0
   16.2114  -27.6917   -8.3361 O   0  0  0  0  0  0  0  0  0  0  0  0
  2  1  1  1
  2  3  1  0
  3  4  1  0
  5  2  1  0
  6  5  2  0
  7  5  1  0
  8  7  1  0
  8  9  1  6
  9 10  1  0
 10 15  2  0
 11 12  2  0
 11 10  1  0
 12 13  1  0
 13 14  2  0
 15 14  1  0
 16 23  1  0
 16  8  1  0
 17 16  2  0
 19 18  1  0
 20 22  1  0
 20 19  1  0
 20 21  1  6
 22 24  1  0
 22 23  1  6
 24 26  1  0
 25 24  2  0
M  END
$$$$
