CFI.pdb
     RDKit          3D

 26 26  0  0  1  0  0  0  0  0999 V2000
   26.9165  -21.7265  -13.1888 N   0  0  0  0  0  0  0  0  0  0  0  0
   26.3856  -20.6855  -12.3305 C   0  0  1  0  0  0  0  0  0  0  0  0
   24.9490  -20.3698  -12.6545 C   0  0  0  0  0  0  0  0  0  0  0  0
   24.7735  -19.3433  -14.1160 S   0  0  0  0  0  0  0  0  0  0  0  0
   26.4524  -21.1216  -10.9082 C   0  0  0  0  0  0  0  0  0  0  0  0
   26.0424  -22.2552  -10.5678 O   0  0  0  0  0  0  0  0  0  0  0  0
   26.9751  -20.2683   -9.9329 N   0  0  0  0  0  0  0  0  0  0  0  0
   27.0819  -20.6521   -8.5026 C   0  0  1  0  0  0  0  0  0  0  0  0
   28.2109  -19.8217   -7.9811 C   0  0  0  0  0  0  0  0  0  0  0  0
   28.3531  -19.7637   -6.5194 C   0  0  0  0  0  0  0  0  0  0  0  0
   29.0200  -20.7777   -5.8236 C   0  0  0  0  0  0  0  0  0  0  0  0
   29.1879  -20.7404   -4.4690 C   0  0  0  0  0  0  0  0  0  0  0  0
   28.6975  -19.6826   -3.7210 C   0  0  0  0  0  0  0  0  0  0  0  0
   28.0354  -18.6674   -4.3772 C   0  0  0  0  0  0  0  0  0  0  0  0
   27.8795  -18.7292   -5.7447 C   0  0  0  0  0  0  0  0  0  0  0  0
   25.7631  -20.3819   -7.9160 C   0  0  0  0  0  0  0  0  0  0  0  0
   25.1662  -19.3065   -8.2360 O   0  0  0  0  0  0  0  0  0  0  0  0
   20.2398  -21.8152   -7.8035 C   0  0  0  0  0  0  0  0  0  0  0  0
   21.2811  -21.1656   -6.8769 C   0  0  0  0  0  0  0  0  0  0  0  0
   22.6533  -21.5622   -7.2857 C   0  0  2  0  0  0  0  0  0  0  0  0
   22.8556  -23.0549   -7.3236 C   0  0  0  0  0  0  0  0  0  0  0  0
   23.7387  -20.8696   -6.4889 C   0  0  2  0  0  0  0  0  0  0  0  0
   25.0491  -21.2001   -7.0118 N   0  0  0  0  0  0  0  0  0  0  0  0
   23.6080  -21.0027   -5.0442 C   0  0  0  0  0  0  0  0  0  0  0  0
   22.5570  -20.6257   -4.4444 O   0  0  0  0  0  0  0  0  0  0  0  0
   24.5747  -21.5333   -4.2056 O   0  0  0  0  0  0  0  0  0  0  0  0
  2  1  1  6
  2  3  1  0
  3  4  1  0
  5  2  1  0
  6  5  2  0
  7  5  1  0
  8  7  1  0
  8  9  1  1
  9 10  1  0
 10 15  2  0
 11 12  2  0
 11 10  1  0
 12 13  1  0
 13 14  2  0
 15 14  1  0
 16 23  1  0
 16  8  1  0
 17 16  2  0
 19 18  1  0
 20 22  1  0
 20 19  1  0
 20 21  1  1
 22 24  1  0
 22 23  1  6
 24 26  1  0
 25 24  2  0
M  END
$$$$
