CFI.pdb
     RDKit          3D

 26 26  0  0  1  0  0  0  0  0999 V2000
   27.0281  -18.6675  -17.0272 N   0  0  0  0  0  0  0  0  0  0  0  0
   27.8900  -18.7902  -15.8677 C   0  0  1  0  0  0  0  0  0  0  0  0
   29.0082  -17.7814  -15.8908 C   0  0  0  0  0  0  0  0  0  0  0  0
   30.3261  -18.2276  -17.0242 S   0  0  0  0  0  0  0  0  0  0  0  0
   27.0983  -18.5727  -14.6254 C   0  0  0  0  0  0  0  0  0  0  0  0
   26.5776  -17.4586  -14.3867 O   0  0  0  0  0  0  0  0  0  0  0  0
   26.9262  -19.6124  -13.7079 N   0  0  0  0  0  0  0  0  0  0  0  0
   25.8361  -19.6228  -12.6999 C   0  0  1  0  0  0  0  0  0  0  0  0
   24.7242  -20.3678  -13.3667 C   0  0  0  0  0  0  0  0  0  0  0  0
   23.4749  -20.4908  -12.6023 C   0  0  0  0  0  0  0  0  0  0  0  0
   23.2772  -21.5579  -11.7194 C   0  0  0  0  0  0  0  0  0  0  0  0
   22.1373  -21.6867  -10.9788 C   0  0  0  0  0  0  0  0  0  0  0  0
   21.1185  -20.7530  -11.0743 C   0  0  0  0  0  0  0  0  0  0  0  0
   21.2828  -19.6895  -11.9356 C   0  0  0  0  0  0  0  0  0  0  0  0
   22.4427  -19.5829  -12.6715 C   0  0  0  0  0  0  0  0  0  0  0  0
   26.4040  -20.2554  -11.5025 C   0  0  0  0  0  0  0  0  0  0  0  0
   27.0169  -21.3609  -11.6340 O   0  0  0  0  0  0  0  0  0  0  0  0
   28.7790  -19.7352   -5.8991 C   0  0  0  0  0  0  0  0  0  0  0  0
   27.9540  -20.6008   -6.8660 C   0  0  0  0  0  0  0  0  0  0  0  0
   27.4925  -19.7872   -8.0202 C   0  0  2  0  0  0  0  0  0  0  0  0
   26.8122  -18.5062   -7.6118 C   0  0  0  0  0  0  0  0  0  0  0  0
   26.6597  -20.5727   -9.0112 C   0  0  2  0  0  0  0  0  0  0  0  0
   26.3551  -19.7678  -10.1770 N   0  0  0  0  0  0  0  0  0  0  0  0
   25.5147  -21.2601   -8.4295 C   0  0  0  0  0  0  0  0  0  0  0  0
   24.3486  -20.7692   -8.5047 O   0  0  0  0  0  0  0  0  0  0  0  0
   25.5726  -22.4723   -7.7611 O   0  0  0  0  0  0  0  0  0  0  0  0
  2  1  1  6
  2  3  1  0
  3  4  1  0
  5  2  1  0
  6  5  2  0
  7  5  1  0
  8  7  1  0
  8  9  1  6
  9 10  1  0
 10 15  2  0
 11 12  2  0
 11 10  1  0
 12 13  1  0
 13 14  2  0
 15 14  1  0
 16 23  1  0
 16  8  1  0
 17 16  2  0
 19 18  1  0
 20 22  1  0
 20 19  1  0
 20 21  1  1
 22 24  1  0
 22 23  1  6
 24 26  1  0
 25 24  2  0
M  END
$$$$
