CFI.pdb
     RDKit          3D

 26 26  0  0  1  0  0  0  0  0999 V2000
   28.0717  -22.8605  -16.4690 N   0  0  0  0  0  0  0  0  0  0  0  0
   27.8405  -21.5786  -15.8320 C   0  0  1  0  0  0  0  0  0  0  0  0
   26.9345  -20.6994  -16.6535 C   0  0  0  0  0  0  0  0  0  0  0  0
   27.6630  -20.2201  -18.2219 S   0  0  0  0  0  0  0  0  0  0  0  0
   27.2022  -21.7840  -14.5023 C   0  0  0  0  0  0  0  0  0  0  0  0
   26.3120  -22.6517  -14.3483 O   0  0  0  0  0  0  0  0  0  0  0  0
   27.5901  -21.0083  -13.4067 N   0  0  0  0  0  0  0  0  0  0  0  0
   26.9447  -21.1195  -12.0742 C   0  0  1  0  0  0  0  0  0  0  0  0
   27.8809  -20.4082  -11.1503 C   0  0  0  0  0  0  0  0  0  0  0  0
   27.4484  -20.2921   -9.7505 C   0  0  0  0  0  0  0  0  0  0  0  0
   26.6388  -19.2289   -9.3365 C   0  0  0  0  0  0  0  0  0  0  0  0
   26.2023  -19.1065   -8.0485 C   0  0  0  0  0  0  0  0  0  0  0  0
   26.5490  -20.0431   -7.0886 C   0  0  0  0  0  0  0  0  0  0  0  0
   27.3459  -21.1029   -7.4649 C   0  0  0  0  0  0  0  0  0  0  0  0
   27.7728  -21.2031   -8.7710 C   0  0  0  0  0  0  0  0  0  0  0  0
   25.6125  -20.5202  -12.2233 C   0  0  0  0  0  0  0  0  0  0  0  0
   25.5102  -19.4182  -12.8481 O   0  0  0  0  0  0  0  0  0  0  0  0
   21.1106  -20.0485  -15.2758 C   0  0  0  0  0  0  0  0  0  0  0  0
   21.4476  -19.8525  -13.7883 C   0  0  0  0  0  0  0  0  0  0  0  0
   22.7060  -20.5647  -13.4468 C   0  0  2  0  0  0  0  0  0  0  0  0
   22.7116  -22.0068  -13.8836 C   0  0  0  0  0  0  0  0  0  0  0  0
   23.1008  -20.4181  -11.9924 C   0  0  2  0  0  0  0  0  0  0  0  0
   24.3874  -21.0373  -11.7452 N   0  0  0  0  0  0  0  0  0  0  0  0
   22.0577  -20.7805  -11.0423 C   0  0  0  0  0  0  0  0  0  0  0  0
   20.9257  -20.2108  -11.0638 O   0  0  0  0  0  0  0  0  0  0  0  0
   22.1833  -21.7452  -10.0559 O   0  0  0  0  0  0  0  0  0  0  0  0
  2  1  1  6
  2  3  1  0
  3  4  1  0
  5  2  1  0
  6  5  2  0
  7  5  1  0
  8  7  1  0
  8  9  1  1
  9 10  1  0
 10 15  2  0
 11 12  2  0
 11 10  1  0
 12 13  1  0
 13 14  2  0
 15 14  1  0
 16 23  1  0
 16  8  1  0
 17 16  2  0
 19 18  1  0
 20 22  1  0
 20 19  1  0
 20 21  1  1
 22 24  1  0
 22 23  1  1
 24 26  1  0
 25 24  2  0
M  END
$$$$
