CFI.pdb
     RDKit          3D

 26 26  0  0  1  0  0  0  0  0999 V2000
   28.6308  -21.7137  -14.2448 N   0  0  0  0  0  0  0  0  0  0  0  0
   28.5864  -20.6068  -13.3094 C   0  0  1  0  0  0  0  0  0  0  0  0
   27.7030  -19.4909  -13.8023 C   0  0  0  0  0  0  0  0  0  0  0  0
   28.3388  -18.7008  -15.2828 S   0  0  0  0  0  0  0  0  0  0  0  0
   28.0521  -21.0739  -12.0002 C   0  0  0  0  0  0  0  0  0  0  0  0
   27.2846  -22.0620  -11.9395 O   0  0  0  0  0  0  0  0  0  0  0  0
   28.4019  -20.4131  -10.8197 N   0  0  0  0  0  0  0  0  0  0  0  0
   27.8211  -20.7646   -9.4993 C   0  0  1  0  0  0  0  0  0  0  0  0
   28.7824  -20.1899   -8.5085 C   0  0  0  0  0  0  0  0  0  0  0  0
   28.3032  -20.0877   -7.1229 C   0  0  0  0  0  0  0  0  0  0  0  0
   28.4439  -21.1597   -6.2351 C   0  0  0  0  0  0  0  0  0  0  0  0
   28.0294  -21.0868   -4.9361 C   0  0  0  0  0  0  0  0  0  0  0  0
   27.4455  -19.9326   -4.4402 C   0  0  0  0  0  0  0  0  0  0  0  0
   27.2927  -18.8583   -5.2900 C   0  0  0  0  0  0  0  0  0  0  0  0
   27.7194  -18.9579   -6.5963 C   0  0  0  0  0  0  0  0  0  0  0  0
   26.4702  -20.1889   -9.4901 C   0  0  0  0  0  0  0  0  0  0  0  0
   26.3288  -18.9696   -9.8194 O   0  0  0  0  0  0  0  0  0  0  0  0
   22.5167  -19.6894  -13.0584 C   0  0  0  0  0  0  0  0  0  0  0  0
   22.5797  -19.6802  -11.5220 C   0  0  0  0  0  0  0  0  0  0  0  0
   23.8229  -20.3451  -11.0532 C   0  0  2  0  0  0  0  0  0  0  0  0
   24.0334  -21.7089  -11.6582 C   0  0  0  0  0  0  0  0  0  0  0  0
   23.9533  -20.3749   -9.5449 C   0  0  2  0  0  0  0  0  0  0  0  0
   25.2660  -20.8470   -9.1528 N   0  0  0  0  0  0  0  0  0  0  0  0
   22.8434  -21.0170   -8.8536 C   0  0  0  0  0  0  0  0  0  0  0  0
   21.6417  -20.7360   -9.1422 O   0  0  0  0  0  0  0  0  0  0  0  0
   22.9745  -21.9636   -7.8506 O   0  0  0  0  0  0  0  0  0  0  0  0
  2  1  1  6
  2  3  1  0
  3  4  1  0
  5  2  1  0
  6  5  2  0
  7  5  1  0
  8  7  1  0
  8  9  1  1
  9 10  1  0
 10 15  2  0
 11 12  2  0
 11 10  1  0
 12 13  1  0
 13 14  2  0
 15 14  1  0
 16 23  1  0
 16  8  1  0
 17 16  2  0
 19 18  1  0
 20 22  1  0
 20 19  1  0
 20 21  1  1
 22 24  1  0
 22 23  1  6
 24 26  1  0
 25 24  2  0
M  END
$$$$
