CFI.pdb
     RDKit          3D

 26 26  0  0  1  0  0  0  0  0999 V2000
   18.1673  -25.7779   -8.6849 N   0  0  0  0  0  0  0  0  0  0  0  0
   18.5333  -25.5435   -7.3016 C   0  0  1  0  0  0  0  0  0  0  0  0
   18.9728  -24.1215   -7.0709 C   0  0  0  0  0  0  0  0  0  0  0  0
   18.3493  -22.9887   -8.3153 S   0  0  0  0  0  0  0  0  0  0  0  0
   17.3656  -25.8143   -6.4180 C   0  0  0  0  0  0  0  0  0  0  0  0
   16.1961  -25.6754   -6.8446 O   0  0  0  0  0  0  0  0  0  0  0  0
   17.5614  -26.2281   -5.0978 N   0  0  0  0  0  0  0  0  0  0  0  0
   16.4399  -26.5819   -4.1915 C   0  0  1  0  0  0  0  0  0  0  0  0
   17.0183  -27.6100   -3.2726 C   0  0  0  0  0  0  0  0  0  0  0  0
   17.9598  -27.1173   -2.2574 C   0  0  0  0  0  0  0  0  0  0  0  0
   19.3233  -26.9927   -2.5450 C   0  0  0  0  0  0  0  0  0  0  0  0
   20.2184  -26.5168   -1.6303 C   0  0  0  0  0  0  0  0  0  0  0  0
   19.8056  -26.1336   -0.3648 C   0  0  0  0  0  0  0  0  0  0  0  0
   18.4682  -26.2442   -0.0503 C   0  0  0  0  0  0  0  0  0  0  0  0
   17.5856  -26.7275   -0.9915 C   0  0  0  0  0  0  0  0  0  0  0  0
   16.0210  -25.3229   -3.5624 C   0  0  0  0  0  0  0  0  0  0  0  0
   16.8565  -24.3669   -3.5047 O   0  0  0  0  0  0  0  0  0  0  0  0
   12.3742  -21.8980   -5.0811 C   0  0  0  0  0  0  0  0  0  0  0  0
   13.5954  -22.5855   -4.4480 C   0  0  0  0  0  0  0  0  0  0  0  0
   13.2475  -23.1210   -3.1066 C   0  0  2  0  0  0  0  0  0  0  0  0
   12.5399  -22.1196   -2.2308 C   0  0  0  0  0  0  0  0  0  0  0  0
   14.4217  -23.7581   -2.3936 C   0  0  2  0  0  0  0  0  0  0  0  0
   14.7589  -25.0314   -2.9976 N   0  0  0  0  0  0  0  0  0  0  0  0
   14.3071  -23.7838   -0.9417 C   0  0  0  0  0  0  0  0  0  0  0  0
   14.2367  -22.7104   -0.2713 O   0  0  0  0  0  0  0  0  0  0  0  0
   14.2636  -24.9332   -0.1695 O   0  0  0  0  0  0  0  0  0  0  0  0
  2  1  1  6
  2  3  1  0
  3  4  1  0
  5  2  1  0
  6  5  2  0
  7  5  1  0
  8  7  1  0
  8  9  1  1
  9 10  1  0
 10 15  2  0
 11 12  2  0
 11 10  1  0
 12 13  1  0
 13 14  2  0
 15 14  1  0
 16 23  1  0
 16  8  1  0
 17 16  2  0
 19 18  1  0
 20 22  1  0
 20 19  1  0
 20 21  1  1
 22 24  1  0
 22 23  1  6
 24 26  1  0
 25 24  2  0
M  END
$$$$
