CFI.pdb
     RDKit          3D

 26 26  0  0  1  0  0  0  0  0999 V2000
   27.3768  -21.3723  -13.2087 N   0  0  0  0  0  0  0  0  0  0  0  0
   26.4328  -20.6260  -12.3999 C   0  0  1  0  0  0  0  0  0  0  0  0
   25.0128  -20.8407  -12.8536 C   0  0  0  0  0  0  0  0  0  0  0  0
   23.9171  -19.5041  -12.3705 S   0  0  0  0  0  0  0  0  0  0  0  0
   26.5333  -21.0593  -10.9787 C   0  0  0  0  0  0  0  0  0  0  0  0
   26.4277  -22.2689  -10.6707 O   0  0  0  0  0  0  0  0  0  0  0  0
   26.7473  -20.1183   -9.9681 N   0  0  0  0  0  0  0  0  0  0  0  0
   26.8983  -20.4932   -8.5395 C   0  0  1  0  0  0  0  0  0  0  0  0
   27.9216  -19.5379   -8.0136 C   0  0  0  0  0  0  0  0  0  0  0  0
   28.1937  -19.6072   -6.5709 C   0  0  0  0  0  0  0  0  0  0  0  0
   29.0578  -20.5765   -6.0504 C   0  0  0  0  0  0  0  0  0  0  0  0
   29.3479  -20.6516   -4.7183 C   0  0  0  0  0  0  0  0  0  0  0  0
   28.7900  -19.7585   -3.8181 C   0  0  0  0  0  0  0  0  0  0  0  0
   27.9343  -18.7913   -4.2996 C   0  0  0  0  0  0  0  0  0  0  0  0
   27.6582  -18.7373   -5.6484 C   0  0  0  0  0  0  0  0  0  0  0  0
   25.5568  -20.3829   -7.9525 C   0  0  0  0  0  0  0  0  0  0  0  0
   24.8252  -19.4011   -8.2930 O   0  0  0  0  0  0  0  0  0  0  0  0
   20.4548  -21.8562   -7.5960 C   0  0  0  0  0  0  0  0  0  0  0  0
   21.3605  -22.2231   -6.4085 C   0  0  0  0  0  0  0  0  0  0  0  0
   22.7731  -22.3379   -6.8540 C   0  0  2  0  0  0  0  0  0  0  0  0
   23.4427  -23.6056   -6.3903 C   0  0  0  0  0  0  0  0  0  0  0  0
   23.6041  -21.1143   -6.5298 C   0  0  2  0  0  0  0  0  0  0  0  0
   24.9566  -21.2663   -7.0272 N   0  0  0  0  0  0  0  0  0  0  0  0
   23.5103  -20.6677   -5.1464 C   0  0  0  0  0  0  0  0  0  0  0  0
   24.4778  -20.8206   -4.3420 O   0  0  0  0  0  0  0  0  0  0  0  0
   22.4030  -20.0536   -4.5843 O   0  0  0  0  0  0  0  0  0  0  0  0
  2  1  1  6
  2  3  1  0
  3  4  1  0
  5  2  1  0
  6  5  2  0
  7  5  1  0
  8  7  1  0
  8  9  1  1
  9 10  1  0
 10 15  2  0
 11 12  2  0
 11 10  1  0
 12 13  1  0
 13 14  2  0
 15 14  1  0
 16 23  1  0
 16  8  1  0
 17 16  2  0
 19 18  1  0
 20 22  1  0
 20 19  1  0
 20 21  1  1
 22 24  1  0
 22 23  1  1
 24 26  1  0
 25 24  2  0
M  END
$$$$
