CFI.pdb
     RDKit          3D

 26 26  0  0  1  0  0  0  0  0999 V2000
   25.9353  -12.4534  -17.3854 N   0  0  0  0  0  0  0  0  0  0  0  0
   25.5970  -11.4465  -16.3985 C   0  0  1  0  0  0  0  0  0  0  0  0
   26.7608  -10.5373  -16.1031 C   0  0  0  0  0  0  0  0  0  0  0  0
   28.2451  -11.4333  -15.6399 S   0  0  0  0  0  0  0  0  0  0  0  0
   24.4722  -10.6082  -16.8984 C   0  0  0  0  0  0  0  0  0  0  0  0
   24.2854  -10.4572  -18.1278 O   0  0  0  0  0  0  0  0  0  0  0  0
   23.6088   -9.9777  -15.9986 N   0  0  0  0  0  0  0  0  0  0  0  0
   22.4366   -9.1781  -16.4355 C   0  0  1  0  0  0  0  0  0  0  0  0
   21.2578   -9.9355  -15.9130 C   0  0  0  0  0  0  0  0  0  0  0  0
   19.9373   -9.3510  -16.1865 C   0  0  0  0  0  0  0  0  0  0  0  0
   19.2318   -8.6747  -15.1855 C   0  0  0  0  0  0  0  0  0  0  0  0
   18.0139   -8.1017  -15.4153 C   0  0  0  0  0  0  0  0  0  0  0  0
   17.4215   -8.1689  -16.6657 C   0  0  0  0  0  0  0  0  0  0  0  0
   18.0914   -8.8286  -17.6736 C   0  0  0  0  0  0  0  0  0  0  0  0
   19.3191   -9.3981  -17.4154 C   0  0  0  0  0  0  0  0  0  0  0  0
   22.6360   -7.8358  -15.8744 C   0  0  0  0  0  0  0  0  0  0  0  0
   23.1069   -7.7343  -14.6983 O   0  0  0  0  0  0  0  0  0  0  0  0
   24.4549   -2.1905  -17.1135 C   0  0  0  0  0  0  0  0  0  0  0  0
   23.6410   -3.0685  -16.1484 C   0  0  0  0  0  0  0  0  0  0  0  0
   23.3753   -4.3963  -16.7594 C   0  0  2  0  0  0  0  0  0  0  0  0
   22.7957   -4.3080  -18.1475 C   0  0  0  0  0  0  0  0  0  0  0  0
   22.5618   -5.3125  -15.8697 C   0  0  2  0  0  0  0  0  0  0  0  0
   22.3637   -6.6002  -16.5038 N   0  0  0  0  0  0  0  0  0  0  0  0
   21.3532   -4.7099  -15.3236 C   0  0  0  0  0  0  0  0  0  0  0  0
   20.2127   -4.9748  -15.8088 O   0  0  0  0  0  0  0  0  0  0  0  0
   21.3199   -3.8218  -14.2608 O   0  0  0  0  0  0  0  0  0  0  0  0
  2  1  1  6
  2  3  1  0
  3  4  1  0
  5  2  1  0
  6  5  2  0
  7  5  1  0
  8  7  1  0
  8  9  1  1
  9 10  1  0
 10 15  2  0
 11 12  2  0
 11 10  1  0
 12 13  1  0
 13 14  2  0
 15 14  1  0
 16 23  1  0
 16  8  1  0
 17 16  2  0
 19 18  1  0
 20 22  1  0
 20 19  1  0
 20 21  1  6
 22 24  1  0
 22 23  1  6
 24 26  1  0
 25 24  2  0
M  END
$$$$
