CFI.pdb
     RDKit          3D

 26 26  0  0  1  0  0  0  0  0999 V2000
   28.1048  -22.5795  -17.1474 N   0  0  0  0  0  0  0  0  0  0  0  0
   27.8230  -21.3547  -16.4244 C   0  0  1  0  0  0  0  0  0  0  0  0
   27.0667  -20.3649  -17.2711 C   0  0  0  0  0  0  0  0  0  0  0  0
   28.0158  -19.7832  -18.6787 S   0  0  0  0  0  0  0  0  0  0  0  0
   26.9987  -21.6573  -15.2216 C   0  0  0  0  0  0  0  0  0  0  0  0
   26.1259  -22.5552  -15.2548 O   0  0  0  0  0  0  0  0  0  0  0  0
   27.1899  -20.9406  -14.0374 N   0  0  0  0  0  0  0  0  0  0  0  0
   26.4135  -21.2096  -12.8008 C   0  0  1  0  0  0  0  0  0  0  0  0
   27.2444  -20.6177  -11.7074 C   0  0  0  0  0  0  0  0  0  0  0  0
   26.6222  -20.5612  -10.3771 C   0  0  0  0  0  0  0  0  0  0  0  0
   26.2883  -21.7343   -9.6918 C   0  0  0  0  0  0  0  0  0  0  0  0
   25.7304  -21.7143   -8.4457 C   0  0  0  0  0  0  0  0  0  0  0  0
   25.4700  -20.5152   -7.8028 C   0  0  0  0  0  0  0  0  0  0  0  0
   25.7876  -19.3413   -8.4516 C   0  0  0  0  0  0  0  0  0  0  0  0
   26.3497  -19.3892   -9.7087 C   0  0  0  0  0  0  0  0  0  0  0  0
   25.0978  -20.5925  -13.0118 C   0  0  0  0  0  0  0  0  0  0  0  0
   25.0496  -19.4197  -13.4989 O   0  0  0  0  0  0  0  0  0  0  0  0
   20.6311  -19.8330  -16.2108 C   0  0  0  0  0  0  0  0  0  0  0  0
   20.9338  -19.7788  -14.7041 C   0  0  0  0  0  0  0  0  0  0  0  0
   22.1428  -20.5839  -14.3920 C   0  0  2  0  0  0  0  0  0  0  0  0
   22.0328  -22.0199  -14.8350 C   0  0  0  0  0  0  0  0  0  0  0  0
   22.5770  -20.4753  -12.9455 C   0  0  2  0  0  0  0  0  0  0  0  0
   23.8350  -21.1629  -12.7346 N   0  0  0  0  0  0  0  0  0  0  0  0
   21.5381  -20.7948  -11.9757 C   0  0  0  0  0  0  0  0  0  0  0  0
   21.5748  -21.8711  -11.3074 O   0  0  0  0  0  0  0  0  0  0  0  0
   20.4456  -19.9922  -11.6899 O   0  0  0  0  0  0  0  0  0  0  0  0
  2  1  1  6
  2  3  1  0
  3  4  1  0
  5  2  1  0
  6  5  2  0
  7  5  1  0
  8  7  1  0
  8  9  1  1
  9 10  1  0
 10 15  2  0
 11 12  2  0
 11 10  1  0
 12 13  1  0
 13 14  2  0
 15 14  1  0
 16 23  1  0
 16  8  1  0
 17 16  2  0
 19 18  1  0
 20 22  1  0
 20 19  1  0
 20 21  1  1
 22 24  1  0
 22 23  1  6
 24 26  1  0
 25 24  2  0
M  END
$$$$
