CFI.pdb
     RDKit          3D

 26 26  0  0  1  0  0  0  0  0999 V2000
   28.9882  -21.6878  -14.1621 N   0  0  0  0  0  0  0  0  0  0  0  0
   28.7781  -20.5576  -13.2784 C   0  0  1  0  0  0  0  0  0  0  0  0
   27.8127  -19.5602  -13.8631 C   0  0  0  0  0  0  0  0  0  0  0  0
   28.6194  -18.3279  -14.8883 S   0  0  0  0  0  0  0  0  0  0  0  0
   28.2234  -21.0293  -11.9794 C   0  0  0  0  0  0  0  0  0  0  0  0
   27.4833  -22.0387  -11.9297 O   0  0  0  0  0  0  0  0  0  0  0  0
   28.5231  -20.3491  -10.7961 N   0  0  0  0  0  0  0  0  0  0  0  0
   27.9123  -20.7014   -9.4896 C   0  0  1  0  0  0  0  0  0  0  0  0
   28.8596  -20.1423   -8.4766 C   0  0  0  0  0  0  0  0  0  0  0  0
   28.3761  -20.0996   -7.0894 C   0  0  0  0  0  0  0  0  0  0  0  0
   28.5473  -21.1955   -6.2368 C   0  0  0  0  0  0  0  0  0  0  0  0
   28.1294  -21.1774   -4.9370 C   0  0  0  0  0  0  0  0  0  0  0  0
   27.5112  -20.0578   -4.4049 C   0  0  0  0  0  0  0  0  0  0  0  0
   27.3277  -18.9612   -5.2194 C   0  0  0  0  0  0  0  0  0  0  0  0
   27.7587  -19.0054   -6.5273 C   0  0  0  0  0  0  0  0  0  0  0  0
   26.5677  -20.1114   -9.5041 C   0  0  0  0  0  0  0  0  0  0  0  0
   26.4261  -18.9373   -9.9694 O   0  0  0  0  0  0  0  0  0  0  0  0
   22.6002  -20.1838  -13.0775 C   0  0  0  0  0  0  0  0  0  0  0  0
   22.6544  -19.9642  -11.5565 C   0  0  0  0  0  0  0  0  0  0  0  0
   23.9131  -20.5234  -10.9995 C   0  0  2  0  0  0  0  0  0  0  0  0
   24.1484  -21.9608  -11.3857 C   0  0  0  0  0  0  0  0  0  0  0  0
   24.0515  -20.3145   -9.5062 C   0  0  2  0  0  0  0  0  0  0  0  0
   25.3697  -20.7100   -9.0530 N   0  0  0  0  0  0  0  0  0  0  0  0
   22.9501  -20.8472   -8.7156 C   0  0  0  0  0  0  0  0  0  0  0  0
   21.7468  -20.5614   -8.9927 O   0  0  0  0  0  0  0  0  0  0  0  0
   23.0914  -21.6878   -7.6234 O   0  0  0  0  0  0  0  0  0  0  0  0
  2  1  1  6
  2  3  1  0
  3  4  1  0
  5  2  1  0
  6  5  2  0
  7  5  1  0
  8  7  1  0
  8  9  1  1
  9 10  1  0
 10 15  2  0
 11 12  2  0
 11 10  1  0
 12 13  1  0
 13 14  2  0
 15 14  1  0
 16 23  1  0
 16  8  1  0
 17 16  2  0
 19 18  1  0
 20 22  1  0
 20 19  1  0
 20 21  1  1
 22 24  1  0
 22 23  1  1
 24 26  1  0
 25 24  2  0
M  END
$$$$
