QSD.pdb
     RDKit          3D

 24 23  0  0  1  0  0  0  0  0999 V2000
    8.2234  -14.8047   13.8116 N   0  0  0  0  0  0  0  0  0  0  0  0
    7.9500  -14.5457   15.1752 C   0  0  0  0  0  0  0  0  0  0  0  0
    7.6917  -13.3753   15.5262 O   0  0  0  0  0  0  0  0  0  0  0  0
    7.9634  -15.6207   16.1848 C   0  0  0  0  0  0  0  0  0  0  0  0
    8.8267  -15.2220   17.3358 C   0  0  0  0  0  0  0  0  0  0  0  0
    8.7654  -16.1472   18.5054 C   0  0  2  0  0  0  0  0  0  0  0  0
    7.4517  -16.6806   18.7049 N   0  0  0  0  0  0  0  0  0  0  0  0
    9.3606  -15.5606   19.7366 C   0  0  0  0  0  0  0  0  0  0  0  0
   10.5510  -15.1854   19.6803 O   0  0  0  0  0  0  0  0  0  0  0  0
    7.2239  -15.6941   23.5277 O   0  0  0  0  0  0  0  0  0  0  0  0
    8.0861  -14.6186   23.2009 C   0  0  0  0  0  0  0  0  0  0  0  0
    9.1173  -15.0241   22.2180 C   0  0  2  0  0  0  0  0  0  0  0  0
    8.6391  -15.4161   20.9450 N   0  0  0  0  0  0  0  0  0  0  0  0
   10.1104  -15.9374   22.8517 C   0  0  0  0  0  0  0  0  0  0  0  0
    9.9870  -17.1705   22.6875 O   0  0  0  0  0  0  0  0  0  0  0  0
   11.2013  -15.5036   23.6384 N   0  0  0  0  0  0  0  0  0  0  0  0
   12.2398  -16.3926   24.1124 C   0  0  1  0  0  0  0  0  0  0  0  0
   13.5309  -15.6569   24.3841 C   0  0  0  0  0  0  0  0  0  0  0  0
   14.7063  -16.4345   23.9158 C   0  0  0  0  0  0  0  0  0  0  0  0
   14.5974  -17.5745   23.3993 O   0  0  0  0  0  0  0  0  0  0  0  0
   11.7784  -16.9795   25.3969 C   0  0  0  0  0  0  0  0  0  0  0  0
   10.8431  -16.4693   26.0703 O   0  0  0  0  0  0  0  0  0  0  0  0
   15.9935  -15.9209   24.0333 O   0  0  0  0  0  0  0  0  0  0  0  0
   12.3529  -18.1304   25.9343 O   0  0  0  0  0  0  0  0  0  0  0  0
  2  1  1  0
  2  3  2  0
  4  5  1  0
  4  2  1  0
  5  6  1  0
  6  8  1  0
  6  7  1  1
  8 13  1  0
  9  8  2  0
 10 11  1  0
 12 11  1  1
 12 14  1  0
 13 12  1  0
 14 15  2  0
 14 16  1  0
 16 17  1  0
 17 21  1  0
 17 18  1  1
 19 18  1  0
 20 19  2  0
 21 22  2  0
 21 24  1  0
 23 19  1  0
M  END
$$$$
