QSD.pdb
     RDKit          3D

 24 23  0  0  1  0  0  0  0  0999 V2000
   14.8017  -18.2996   15.7382 N   0  0  0  0  0  0  0  0  0  0  0  0
   13.6088  -18.9313   15.3149 C   0  0  0  0  0  0  0  0  0  0  0  0
   13.6681  -19.7793   14.4000 O   0  0  0  0  0  0  0  0  0  0  0  0
   12.3053  -18.6124   15.9265 C   0  0  0  0  0  0  0  0  0  0  0  0
   12.4751  -17.5331   16.9440 C   0  0  0  0  0  0  0  0  0  0  0  0
   11.8426  -17.8220   18.2646 C   0  0  2  0  0  0  0  0  0  0  0  0
   10.4298  -18.0266   18.1545 N   0  0  0  0  0  0  0  0  0  0  0  0
   12.2190  -16.8349   19.3126 C   0  0  0  0  0  0  0  0  0  0  0  0
   13.3795  -16.3732   19.2809 O   0  0  0  0  0  0  0  0  0  0  0  0
    9.7637  -16.4512   22.8268 O   0  0  0  0  0  0  0  0  0  0  0  0
   10.4382  -15.3082   22.3314 C   0  0  0  0  0  0  0  0  0  0  0  0
   11.6084  -15.6806   21.5033 C   0  0  2  0  0  0  0  0  0  0  0  0
   11.3256  -16.4099   20.3239 N   0  0  0  0  0  0  0  0  0  0  0  0
   12.7012  -16.2230   22.3598 C   0  0  0  0  0  0  0  0  0  0  0  0
   13.1564  -17.3600   22.1091 O   0  0  0  0  0  0  0  0  0  0  0  0
   13.2712  -15.5335   23.4537 N   0  0  0  0  0  0  0  0  0  0  0  0
   14.2679  -16.1163   24.3257 C   0  0  1  0  0  0  0  0  0  0  0  0
   13.9959  -17.5775   24.5955 C   0  0  0  0  0  0  0  0  0  0  0  0
   13.0043  -17.7514   25.6873 C   0  0  0  0  0  0  0  0  0  0  0  0
   13.1000  -17.1500   26.7862 O   0  0  0  0  0  0  0  0  0  0  0  0
   15.5799  -16.0237   23.6349 C   0  0  0  0  0  0  0  0  0  0  0  0
   16.6420  -16.4663   24.1493 O   0  0  0  0  0  0  0  0  0  0  0  0
   11.9141  -18.6008   25.5315 O   0  0  0  0  0  0  0  0  0  0  0  0
   15.7146  -15.4413   22.3754 O   0  0  0  0  0  0  0  0  0  0  0  0
  2  1  1  0
  2  3  2  0
  4  5  1  0
  4  2  1  0
  5  6  1  0
  6  8  1  0
  6  7  1  6
  8 13  1  0
  9  8  2  0
 10 11  1  0
 12 11  1  1
 12 14  1  0
 13 12  1  0
 14 15  2  0
 14 16  1  0
 16 17  1  0
 17 21  1  0
 17 18  1  6
 19 18  1  0
 20 19  2  0
 21 22  2  0
 21 24  1  0
 23 19  1  0
M  END
$$$$
