QSD.pdb
     RDKit          3D

 24 23  0  0  1  0  0  0  0  0999 V2000
   12.9190  -19.6890   16.1045 N   0  0  0  0  0  0  0  0  0  0  0  0
   11.6633  -19.2057   15.6678 C   0  0  0  0  0  0  0  0  0  0  0  0
   11.3692  -19.2999   14.4576 O   0  0  0  0  0  0  0  0  0  0  0  0
   10.7002  -18.5969   16.6041 C   0  0  0  0  0  0  0  0  0  0  0  0
   11.2697  -18.5947   17.9842 C   0  0  0  0  0  0  0  0  0  0  0  0
   10.3397  -18.0904   19.0370 C   0  0  2  0  0  0  0  0  0  0  0  0
    9.1866  -17.4507   18.4790 N   0  0  0  0  0  0  0  0  0  0  0  0
   11.0289  -17.2728   20.0718 C   0  0  0  0  0  0  0  0  0  0  0  0
   12.0579  -16.6534   19.7275 O   0  0  0  0  0  0  0  0  0  0  0  0
    9.1887  -15.0639   22.8381 O   0  0  0  0  0  0  0  0  0  0  0  0
   10.1524  -15.8951   23.4603 C   0  0  0  0  0  0  0  0  0  0  0  0
   11.1212  -16.4372   22.4797 C   0  0  2  0  0  0  0  0  0  0  0  0
   10.5682  -17.1749   21.4059 N   0  0  0  0  0  0  0  0  0  0  0  0
   12.2737  -17.0706   23.1815 C   0  0  0  0  0  0  0  0  0  0  0  0
   12.2305  -18.2953   23.4287 O   0  0  0  0  0  0  0  0  0  0  0  0
   13.4327  -16.3758   23.5948 N   0  0  0  0  0  0  0  0  0  0  0  0
   14.5505  -17.0187   24.2512 C   0  0  1  0  0  0  0  0  0  0  0  0
   15.7705  -16.1286   24.2879 C   0  0  0  0  0  0  0  0  0  0  0  0
   16.2444  -15.8022   22.9189 C   0  0  0  0  0  0  0  0  0  0  0  0
   15.8282  -16.4077   21.8998 O   0  0  0  0  0  0  0  0  0  0  0  0
   14.1513  -17.2919   25.6559 C   0  0  0  0  0  0  0  0  0  0  0  0
   14.8927  -17.9272   26.4529 O   0  0  0  0  0  0  0  0  0  0  0  0
   17.1824  -14.7967   22.7101 O   0  0  0  0  0  0  0  0  0  0  0  0
   12.9318  -16.8615   26.1766 O   0  0  0  0  0  0  0  0  0  0  0  0
  2  1  1  0
  2  3  2  0
  4  5  1  0
  4  2  1  0
  5  6  1  0
  6  8  1  0
  6  7  1  6
  8 13  1  0
  9  8  2  0
 10 11  1  0
 12 11  1  1
 12 14  1  0
 13 12  1  0
 14 15  2  0
 14 16  1  0
 16 17  1  0
 17 21  1  0
 17 18  1  1
 19 18  1  0
 20 19  2  0
 21 22  2  0
 21 24  1  0
 23 19  1  0
M  END
$$$$
