QSD.pdb
     RDKit          3D

 24 23  0  0  1  0  0  0  0  0999 V2000
    9.2628  -19.2418   27.7665 N   0  0  0  0  0  0  0  0  0  0  0  0
    8.4312  -18.1135   27.9580 C   0  0  0  0  0  0  0  0  0  0  0  0
    8.5291  -17.4664   29.0217 O   0  0  0  0  0  0  0  0  0  0  0  0
    7.4575  -17.6875   26.9355 C   0  0  0  0  0  0  0  0  0  0  0  0
    7.5212  -18.6087   25.7624 C   0  0  0  0  0  0  0  0  0  0  0  0
    6.6712  -18.1984   24.6061 C   0  0  2  0  0  0  0  0  0  0  0  0
    5.6311  -19.1447   24.3366 N   0  0  0  0  0  0  0  0  0  0  0  0
    7.4694  -17.8359   23.4036 C   0  0  0  0  0  0  0  0  0  0  0  0
    8.1072  -18.7488   22.8371 O   0  0  0  0  0  0  0  0  0  0  0  0
    7.4405  -13.8016   22.1427 O   0  0  0  0  0  0  0  0  0  0  0  0
    8.0694  -14.7389   21.2866 C   0  0  0  0  0  0  0  0  0  0  0  0
    8.4936  -15.9523   22.0225 C   0  0  2  0  0  0  0  0  0  0  0  0
    7.5297  -16.5190   22.8901 N   0  0  0  0  0  0  0  0  0  0  0  0
    9.8569  -15.7641   22.5954 C   0  0  0  0  0  0  0  0  0  0  0  0
    9.9715  -15.5455   23.8209 O   0  0  0  0  0  0  0  0  0  0  0  0
   11.0508  -15.8163   21.8412 N   0  0  0  0  0  0  0  0  0  0  0  0
   12.3668  -15.6991   22.4312 C   0  0  1  0  0  0  0  0  0  0  0  0
   12.6614  -16.8352   23.3822 C   0  0  0  0  0  0  0  0  0  0  0  0
   14.0347  -16.7340   23.9383 C   0  0  0  0  0  0  0  0  0  0  0  0
   14.8284  -15.8172   23.6098 O   0  0  0  0  0  0  0  0  0  0  0  0
   13.3615  -15.7660   21.3297 C   0  0  0  0  0  0  0  0  0  0  0  0
   14.5881  -15.5465   21.5188 O   0  0  0  0  0  0  0  0  0  0  0  0
   14.5015  -17.6660   24.8590 O   0  0  0  0  0  0  0  0  0  0  0  0
   12.9971  -16.0758   20.0202 O   0  0  0  0  0  0  0  0  0  0  0  0
  2  1  1  0
  2  3  2  0
  4  5  1  0
  4  2  1  0
  5  6  1  0
  6  8  1  0
  6  7  1  6
  8 13  1  0
  9  8  2  0
 10 11  1  0
 12 11  1  1
 12 14  1  0
 13 12  1  0
 14 15  2  0
 14 16  1  0
 16 17  1  0
 17 21  1  0
 17 18  1  1
 19 18  1  0
 20 19  2  0
 21 22  2  0
 21 24  1  0
 23 19  1  0
M  END
$$$$
