QSD.pdb
     RDKit          3D

 24 23  0  0  1  0  0  0  0  0999 V2000
    6.7425  -19.3473   17.5258 N   0  0  0  0  0  0  0  0  0  0  0  0
    6.5131  -18.9818   16.1786 C   0  0  0  0  0  0  0  0  0  0  0  0
    5.7142  -19.6591   15.4983 O   0  0  0  0  0  0  0  0  0  0  0  0
    7.1922  -17.8260   15.5639 C   0  0  0  0  0  0  0  0  0  0  0  0
    8.0452  -17.1420   16.5805 C   0  0  0  0  0  0  0  0  0  0  0  0
    7.7449  -15.6918   16.7661 C   0  0  2  0  0  0  0  0  0  0  0  0
    7.9163  -14.9447   15.5568 N   0  0  0  0  0  0  0  0  0  0  0  0
    8.4534  -15.1010   17.9337 C   0  0  0  0  0  0  0  0  0  0  0  0
    9.6661  -14.8328   17.7981 O   0  0  0  0  0  0  0  0  0  0  0  0
    6.6213  -15.2261   21.8638 O   0  0  0  0  0  0  0  0  0  0  0  0
    7.4582  -14.1438   21.4966 C   0  0  0  0  0  0  0  0  0  0  0  0
    8.3991  -14.5224   20.4170 C   0  0  2  0  0  0  0  0  0  0  0  0
    7.8135  -14.8379   19.1678 N   0  0  0  0  0  0  0  0  0  0  0  0
    9.4132  -15.4894   20.9253 C   0  0  0  0  0  0  0  0  0  0  0  0
    9.3831  -16.6686   20.5115 O   0  0  0  0  0  0  0  0  0  0  0  0
   10.4249  -15.1648   21.8569 N   0  0  0  0  0  0  0  0  0  0  0  0
   11.3951  -16.1236   22.3397 C   0  0  1  0  0  0  0  0  0  0  0  0
   12.7539  -15.4961   22.5448 C   0  0  0  0  0  0  0  0  0  0  0  0
   13.7433  -16.4925   23.0284 C   0  0  0  0  0  0  0  0  0  0  0  0
   13.5301  -17.7298   22.9837 O   0  0  0  0  0  0  0  0  0  0  0  0
   10.9236  -16.6154   23.6599 C   0  0  0  0  0  0  0  0  0  0  0  0
   10.1331  -15.9493   24.3810 O   0  0  0  0  0  0  0  0  0  0  0  0
   14.9637  -16.0862   23.5576 O   0  0  0  0  0  0  0  0  0  0  0  0
   11.3277  -17.8441   24.1802 O   0  0  0  0  0  0  0  0  0  0  0  0
  2  1  1  0
  2  3  2  0
  4  5  1  0
  4  2  1  0
  5  6  1  0
  6  8  1  0
  6  7  1  6
  8 13  1  0
  9  8  2  0
 10 11  1  0
 12 11  1  1
 12 14  1  0
 13 12  1  0
 14 15  2  0
 14 16  1  0
 16 17  1  0
 17 21  1  0
 17 18  1  1
 19 18  1  0
 20 19  2  0
 21 22  2  0
 21 24  1  0
 23 19  1  0
M  END
$$$$
