QSD.pdb
     RDKit          3D

 24 23  0  0  1  0  0  0  0  0999 V2000
    6.2321  -13.0115   18.7950 N   0  0  0  0  0  0  0  0  0  0  0  0
    7.3658  -13.4289   18.0590 C   0  0  0  0  0  0  0  0  0  0  0  0
    7.1964  -13.9638   16.9433 O   0  0  0  0  0  0  0  0  0  0  0  0
    8.7346  -13.2474   18.5772 C   0  0  0  0  0  0  0  0  0  0  0  0
    9.4295  -14.5672   18.6417 C   0  0  0  0  0  0  0  0  0  0  0  0
    8.9697  -15.4555   19.7496 C   0  0  2  0  0  0  0  0  0  0  0  0
    7.5483  -15.6275   19.7506 N   0  0  0  0  0  0  0  0  0  0  0  0
    9.5200  -15.0578   21.0738 C   0  0  0  0  0  0  0  0  0  0  0  0
   10.7424  -14.8079   21.1397 O   0  0  0  0  0  0  0  0  0  0  0  0
    6.9650  -15.2521   24.6313 O   0  0  0  0  0  0  0  0  0  0  0  0
    8.1720  -14.5116   24.5896 C   0  0  0  0  0  0  0  0  0  0  0  0
    9.1176  -15.0638   23.5922 C   0  0  2  0  0  0  0  0  0  0  0  0
    8.7222  -14.9551   22.2376 N   0  0  0  0  0  0  0  0  0  0  0  0
    9.6061  -16.4044   24.0239 C   0  0  0  0  0  0  0  0  0  0  0  0
    8.9685  -17.4207   23.6730 O   0  0  0  0  0  0  0  0  0  0  0  0
   10.7584  -16.6143   24.8145 N   0  0  0  0  0  0  0  0  0  0  0  0
   11.2049  -17.9257   25.2322 C   0  0  1  0  0  0  0  0  0  0  0  0
   12.4853  -18.3319   24.5410 C   0  0  0  0  0  0  0  0  0  0  0  0
   13.4605  -17.2124   24.5056 C   0  0  0  0  0  0  0  0  0  0  0  0
   14.3757  -17.0892   25.3573 O   0  0  0  0  0  0  0  0  0  0  0  0
   11.4819  -17.8637   26.6905 C   0  0  0  0  0  0  0  0  0  0  0  0
   11.3493  -16.8005   27.3543 O   0  0  0  0  0  0  0  0  0  0  0  0
   13.3959  -16.2420   23.5113 O   0  0  0  0  0  0  0  0  0  0  0  0
   11.9053  -18.9787   27.4123 O   0  0  0  0  0  0  0  0  0  0  0  0
  2  1  1  0
  2  3  2  0
  4  5  1  0
  4  2  1  0
  5  6  1  0
  6  8  1  0
  6  7  1  1
  8 13  1  0
  9  8  2  0
 10 11  1  0
 12 11  1  1
 12 14  1  0
 13 12  1  0
 14 15  2  0
 14 16  1  0
 16 17  1  0
 17 21  1  0
 17 18  1  6
 19 18  1  0
 20 19  2  0
 21 22  2  0
 21 24  1  0
 23 19  1  0
M  END
$$$$
