QSD.pdb
     RDKit          3D

 24 23  0  0  1  0  0  0  0  0999 V2000
    4.0291  -22.3386   21.9589 N   0  0  0  0  0  0  0  0  0  0  0  0
    5.1460  -22.6068   21.1332 C   0  0  0  0  0  0  0  0  0  0  0  0
    5.3126  -23.7675   20.7034 O   0  0  0  0  0  0  0  0  0  0  0  0
    6.1117  -21.5526   20.7713 C   0  0  0  0  0  0  0  0  0  0  0  0
    5.7570  -20.2814   21.4692 C   0  0  0  0  0  0  0  0  0  0  0  0
    6.6274  -19.1200   21.1208 C   0  0  2  0  0  0  0  0  0  0  0  0
    7.3044  -19.3065   19.8730 N   0  0  0  0  0  0  0  0  0  0  0  0
    7.5327  -18.7235   22.2333 C   0  0  0  0  0  0  0  0  0  0  0  0
    8.7402  -19.0278   22.1316 O   0  0  0  0  0  0  0  0  0  0  0  0
    5.8955  -17.1320   25.8857 O   0  0  0  0  0  0  0  0  0  0  0  0
    7.1643  -16.6896   25.4372 C   0  0  0  0  0  0  0  0  0  0  0  0
    7.8058  -17.6835   24.5459 C   0  0  2  0  0  0  0  0  0  0  0  0
    7.0817  -18.0277   23.3796 N   0  0  0  0  0  0  0  0  0  0  0  0
    8.3448  -18.8241   25.3399 C   0  0  0  0  0  0  0  0  0  0  0  0
    7.7355  -19.9155   25.3185 O   0  0  0  0  0  0  0  0  0  0  0  0
    9.5154  -18.7612   26.1290 N   0  0  0  0  0  0  0  0  0  0  0  0
   10.0363  -19.8923   26.8659 C   0  0  1  0  0  0  0  0  0  0  0  0
   11.0530  -20.6687   26.0624 C   0  0  0  0  0  0  0  0  0  0  0  0
   11.6017  -21.8088   26.8399 C   0  0  0  0  0  0  0  0  0  0  0  0
   10.8663  -22.6787   27.3697 O   0  0  0  0  0  0  0  0  0  0  0  0
   10.7248  -19.3652   28.0722 C   0  0  0  0  0  0  0  0  0  0  0  0
   11.1337  -20.1198   28.9952 O   0  0  0  0  0  0  0  0  0  0  0  0
   12.9735  -21.9587   27.0135 O   0  0  0  0  0  0  0  0  0  0  0  0
   10.9598  -18.0033   28.2554 O   0  0  0  0  0  0  0  0  0  0  0  0
  2  1  1  0
  2  3  2  0
  4  5  1  0
  4  2  1  0
  5  6  1  0
  6  8  1  0
  6  7  1  6
  8 13  1  0
  9  8  2  0
 10 11  1  0
 12 11  1  1
 12 14  1  0
 13 12  1  0
 14 15  2  0
 14 16  1  0
 16 17  1  0
 17 21  1  0
 17 18  1  6
 19 18  1  0
 20 19  2  0
 21 22  2  0
 21 24  1  0
 23 19  1  0
M  END
$$$$
