QSD.pdb
     RDKit          3D

 24 23  0  0  1  0  0  0  0  0999 V2000
    7.3218  -13.3682   16.7247 N   0  0  0  0  0  0  0  0  0  0  0  0
    8.0048  -14.1751   15.7847 C   0  0  0  0  0  0  0  0  0  0  0  0
    8.6699  -13.6203   14.8850 O   0  0  0  0  0  0  0  0  0  0  0  0
    7.9490  -15.6477   15.8437 C   0  0  0  0  0  0  0  0  0  0  0  0
    9.0840  -16.1637   16.6651 C   0  0  0  0  0  0  0  0  0  0  0  0
    8.6780  -16.7924   17.9565 C   0  0  2  0  0  0  0  0  0  0  0  0
    7.2713  -17.0532   18.0125 N   0  0  0  0  0  0  0  0  0  0  0  0
    9.1925  -16.0563   19.1430 C   0  0  0  0  0  0  0  0  0  0  0  0
   10.4027  -15.7459   19.1500 O   0  0  0  0  0  0  0  0  0  0  0  0
    8.1658  -14.0934   23.5428 O   0  0  0  0  0  0  0  0  0  0  0  0
    7.6678  -14.7624   22.3976 C   0  0  0  0  0  0  0  0  0  0  0  0
    8.7640  -15.2271   21.5165 C   0  0  2  0  0  0  0  0  0  0  0  0
    8.3743  -15.7030   20.2418 N   0  0  0  0  0  0  0  0  0  0  0  0
    9.7106  -16.0933   22.2751 C   0  0  0  0  0  0  0  0  0  0  0  0
    9.4483  -17.3091   22.3998 O   0  0  0  0  0  0  0  0  0  0  0  0
   10.9047  -15.6325   22.8740 N   0  0  0  0  0  0  0  0  0  0  0  0
   11.7902  -16.4865   23.6359 C   0  0  1  0  0  0  0  0  0  0  0  0
   13.1092  -15.8115   23.9302 C   0  0  0  0  0  0  0  0  0  0  0  0
   14.0470  -15.9322   22.7849 C   0  0  0  0  0  0  0  0  0  0  0  0
   14.9506  -15.0883   22.5625 O   0  0  0  0  0  0  0  0  0  0  0  0
   11.1316  -16.7718   24.9366 C   0  0  0  0  0  0  0  0  0  0  0  0
   11.2725  -17.8732   25.5329 O   0  0  0  0  0  0  0  0  0  0  0  0
   13.9584  -17.0023   21.9009 O   0  0  0  0  0  0  0  0  0  0  0  0
   10.3178  -15.8376   25.5757 O   0  0  0  0  0  0  0  0  0  0  0  0
  2  1  1  0
  2  3  2  0
  4  5  1  0
  4  2  1  0
  5  6  1  0
  6  8  1  0
  6  7  1  1
  8 13  1  0
  9  8  2  0
 10 11  1  0
 12 11  1  1
 12 14  1  0
 13 12  1  0
 14 15  2  0
 14 16  1  0
 16 17  1  0
 17 21  1  0
 17 18  1  1
 19 18  1  0
 20 19  2  0
 21 22  2  0
 21 24  1  0
 23 19  1  0
M  END
$$$$
