QSD.pdb
     RDKit          3D

 24 23  0  0  1  0  0  0  0  0999 V2000
   13.2307  -21.1079   18.0577 N   0  0  0  0  0  0  0  0  0  0  0  0
   12.7292  -20.2736   17.0312 C   0  0  0  0  0  0  0  0  0  0  0  0
   12.8502  -20.6405   15.8436 O   0  0  0  0  0  0  0  0  0  0  0  0
   12.0709  -18.9884   17.3309 C   0  0  0  0  0  0  0  0  0  0  0  0
   10.9017  -19.2175   18.2307 C   0  0  0  0  0  0  0  0  0  0  0  0
   10.1306  -17.9853   18.5698 C   0  0  2  0  0  0  0  0  0  0  0  0
    9.6662  -17.2993   17.4020 N   0  0  0  0  0  0  0  0  0  0  0  0
   10.8467  -17.1030   19.5305 C   0  0  0  0  0  0  0  0  0  0  0  0
   11.8291  -16.4604   19.1027 O   0  0  0  0  0  0  0  0  0  0  0  0
    9.3160  -16.5138   23.5200 O   0  0  0  0  0  0  0  0  0  0  0  0
   10.1032  -15.5436   22.8524 C   0  0  0  0  0  0  0  0  0  0  0  0
   11.0451  -16.1687   21.8953 C   0  0  2  0  0  0  0  0  0  0  0  0
   10.4610  -16.9695   20.8851 N   0  0  0  0  0  0  0  0  0  0  0  0
   12.2002  -16.7715   22.6195 C   0  0  0  0  0  0  0  0  0  0  0  0
   12.1935  -18.0002   22.8496 O   0  0  0  0  0  0  0  0  0  0  0  0
   13.3228  -16.0426   23.0729 N   0  0  0  0  0  0  0  0  0  0  0  0
   14.4377  -16.6530   23.7642 C   0  0  1  0  0  0  0  0  0  0  0  0
   15.6639  -15.7709   23.7453 C   0  0  0  0  0  0  0  0  0  0  0  0
   16.1345  -15.5270   22.3580 C   0  0  0  0  0  0  0  0  0  0  0  0
   16.1369  -16.4255   21.4799 O   0  0  0  0  0  0  0  0  0  0  0  0
   14.0401  -16.8391   25.1835 C   0  0  0  0  0  0  0  0  0  0  0  0
   12.9334  -16.4329   25.6293 O   0  0  0  0  0  0  0  0  0  0  0  0
   16.5979  -14.2736   21.9725 O   0  0  0  0  0  0  0  0  0  0  0  0
   14.8681  -17.4747   26.1076 O   0  0  0  0  0  0  0  0  0  0  0  0
  2  1  1  0
  2  3  2  0
  4  5  1  0
  4  2  1  0
  5  6  1  0
  6  8  1  0
  6  7  1  6
  8 13  1  0
  9  8  2  0
 10 11  1  0
 12 11  1  1
 12 14  1  0
 13 12  1  0
 14 15  2  0
 14 16  1  0
 16 17  1  0
 17 21  1  0
 17 18  1  1
 19 18  1  0
 20 19  2  0
 21 22  2  0
 21 24  1  0
 23 19  1  0
M  END
$$$$
