QSD.pdb
     RDKit          3D

 24 23  0  0  1  0  0  0  0  0999 V2000
    8.0620  -18.7819   14.1679 N   0  0  0  0  0  0  0  0  0  0  0  0
    7.4893  -17.4964   14.3124 C   0  0  0  0  0  0  0  0  0  0  0  0
    6.6826  -17.0955   13.4474 O   0  0  0  0  0  0  0  0  0  0  0  0
    7.8221  -16.6250   15.4547 C   0  0  0  0  0  0  0  0  0  0  0  0
    9.0167  -17.1638   16.1699 C   0  0  0  0  0  0  0  0  0  0  0  0
    8.6983  -18.0831   17.3018 C   0  0  2  0  0  0  0  0  0  0  0  0
    7.4596  -18.7739   17.1055 N   0  0  0  0  0  0  0  0  0  0  0  0
    8.8040  -17.4207   18.6301 C   0  0  0  0  0  0  0  0  0  0  0  0
    9.7775  -16.6611   18.8207 O   0  0  0  0  0  0  0  0  0  0  0  0
    5.6209  -17.8002   21.0603 O   0  0  0  0  0  0  0  0  0  0  0  0
    6.7608  -17.5378   21.8594 C   0  0  0  0  0  0  0  0  0  0  0  0
    7.9576  -17.2639   21.0308 C   0  0  2  0  0  0  0  0  0  0  0  0
    7.8586  -17.6177   19.6640 N   0  0  0  0  0  0  0  0  0  0  0  0
    9.1923  -17.7146   21.7338 C   0  0  0  0  0  0  0  0  0  0  0  0
    9.9190  -18.5724   21.1872 O   0  0  0  0  0  0  0  0  0  0  0  0
    9.6095  -17.2341   22.9956 N   0  0  0  0  0  0  0  0  0  0  0  0
   10.9888  -17.2479   23.4325 C   0  0  1  0  0  0  0  0  0  0  0  0
   11.8674  -16.3897   22.5530 C   0  0  0  0  0  0  0  0  0  0  0  0
   13.2936  -16.4825   22.9566 C   0  0  0  0  0  0  0  0  0  0  0  0
   13.6705  -17.1558   23.9480 O   0  0  0  0  0  0  0  0  0  0  0  0
   11.0324  -16.6779   24.8038 C   0  0  0  0  0  0  0  0  0  0  0  0
   12.0101  -16.8638   25.5772 O   0  0  0  0  0  0  0  0  0  0  0  0
   14.2820  -15.8162   22.2400 O   0  0  0  0  0  0  0  0  0  0  0  0
    9.9937  -15.9026   25.3172 O   0  0  0  0  0  0  0  0  0  0  0  0
  2  1  1  0
  2  3  2  0
  4  5  1  0
  4  2  1  0
  5  6  1  0
  6  8  1  0
  6  7  1  6
  8 13  1  0
  9  8  2  0
 10 11  1  0
 12 11  1  1
 12 14  1  0
 13 12  1  0
 14 15  2  0
 14 16  1  0
 16 17  1  0
 17 21  1  0
 17 18  1  6
 19 18  1  0
 20 19  2  0
 21 22  2  0
 21 24  1  0
 23 19  1  0
M  END
$$$$
