QSD.pdb
     RDKit          3D

 24 23  0  0  1  0  0  0  0  0999 V2000
    9.4261  -20.7716   16.6308 N   0  0  0  0  0  0  0  0  0  0  0  0
    9.8393  -19.4398   16.3918 C   0  0  0  0  0  0  0  0  0  0  0  0
   10.9894  -19.2360   15.9499 O   0  0  0  0  0  0  0  0  0  0  0  0
    8.9472  -18.2945   16.6515 C   0  0  0  0  0  0  0  0  0  0  0  0
    9.5651  -17.3935   17.6690 C   0  0  0  0  0  0  0  0  0  0  0  0
    9.2438  -17.7448   19.0836 C   0  0  2  0  0  0  0  0  0  0  0  0
    7.8444  -17.6319   19.3646 N   0  0  0  0  0  0  0  0  0  0  0  0
   10.1053  -17.0311   20.0650 C   0  0  0  0  0  0  0  0  0  0  0  0
   11.3366  -17.0224   19.8535 O   0  0  0  0  0  0  0  0  0  0  0  0
    8.4887  -15.6938   23.8491 O   0  0  0  0  0  0  0  0  0  0  0  0
    9.4873  -14.9334   23.1923 C   0  0  0  0  0  0  0  0  0  0  0  0
   10.2940  -15.7688   22.2730 C   0  0  2  0  0  0  0  0  0  0  0  0
    9.5880  -16.3751   21.2068 N   0  0  0  0  0  0  0  0  0  0  0  0
   11.2044  -16.6621   23.0444 C   0  0  0  0  0  0  0  0  0  0  0  0
   10.9082  -17.8711   23.1601 O   0  0  0  0  0  0  0  0  0  0  0  0
   12.3998  -16.2350   23.6653 N   0  0  0  0  0  0  0  0  0  0  0  0
   13.2821  -17.1279   24.3849 C   0  0  1  0  0  0  0  0  0  0  0  0
   14.6788  -16.5649   24.5045 C   0  0  0  0  0  0  0  0  0  0  0  0
   15.2848  -16.3312   23.1690 C   0  0  0  0  0  0  0  0  0  0  0  0
   15.1499  -17.1400   22.2172 O   0  0  0  0  0  0  0  0  0  0  0  0
   12.7414  -17.2837   25.7599 C   0  0  0  0  0  0  0  0  0  0  0  0
   11.7739  -16.5954   26.1826 O   0  0  0  0  0  0  0  0  0  0  0  0
   16.0370  -15.1886   22.9177 O   0  0  0  0  0  0  0  0  0  0  0  0
   13.2724  -18.2013   26.6652 O   0  0  0  0  0  0  0  0  0  0  0  0
  2  1  1  0
  2  3  2  0
  4  5  1  0
  4  2  1  0
  5  6  1  0
  6  8  1  0
  6  7  1  1
  8 13  1  0
  9  8  2  0
 10 11  1  0
 12 11  1  1
 12 14  1  0
 13 12  1  0
 14 15  2  0
 14 16  1  0
 16 17  1  0
 17 21  1  0
 17 18  1  1
 19 18  1  0
 20 19  2  0
 21 22  2  0
 21 24  1  0
 23 19  1  0
M  END
$$$$
