QSD.pdb
     RDKit          3D

 24 23  0  0  1  0  0  0  0  0999 V2000
    9.4552  -22.6163   14.8767 N   0  0  0  0  0  0  0  0  0  0  0  0
    9.5462  -21.9484   16.1204 C   0  0  0  0  0  0  0  0  0  0  0  0
   10.6298  -21.9747   16.7406 O   0  0  0  0  0  0  0  0  0  0  0  0
    8.3966  -21.2263   16.6968 C   0  0  0  0  0  0  0  0  0  0  0  0
    8.0589  -21.7993   18.0335 C   0  0  0  0  0  0  0  0  0  0  0  0
    6.8670  -21.1837   18.6878 C   0  0  2  0  0  0  0  0  0  0  0  0
    6.2753  -20.1599   17.8806 N   0  0  0  0  0  0  0  0  0  0  0  0
    7.1345  -20.7550   20.0874 C   0  0  0  0  0  0  0  0  0  0  0  0
    7.8105  -19.7177   20.2545 O   0  0  0  0  0  0  0  0  0  0  0  0
    4.9157  -22.4656   23.2850 O   0  0  0  0  0  0  0  0  0  0  0  0
    5.5423  -21.1990   23.3839 C   0  0  0  0  0  0  0  0  0  0  0  0
    6.7879  -21.1416   22.5844 C   0  0  2  0  0  0  0  0  0  0  0  0
    6.6591  -21.4678   21.2132 N   0  0  0  0  0  0  0  0  0  0  0  0
    7.9050  -21.8087   23.3118 C   0  0  0  0  0  0  0  0  0  0  0  0
    8.2551  -22.9557   22.9590 O   0  0  0  0  0  0  0  0  0  0  0  0
    8.6104  -21.2287   24.3902 N   0  0  0  0  0  0  0  0  0  0  0  0
    9.6541  -21.9186   25.1172 C   0  0  1  0  0  0  0  0  0  0  0  0
   10.8215  -21.0105   25.4249 C   0  0  0  0  0  0  0  0  0  0  0  0
   11.5477  -20.6239   24.1885 C   0  0  0  0  0  0  0  0  0  0  0  0
   11.7844  -21.4402   23.2633 O   0  0  0  0  0  0  0  0  0  0  0  0
    9.0801  -22.3667   26.4121 C   0  0  0  0  0  0  0  0  0  0  0  0
    9.6039  -23.2869   27.0958 O   0  0  0  0  0  0  0  0  0  0  0  0
   12.0004  -19.3216   24.0054 O   0  0  0  0  0  0  0  0  0  0  0  0
    7.9270  -21.7956   26.9486 O   0  0  0  0  0  0  0  0  0  0  0  0
  2  1  1  0
  2  3  2  0
  4  5  1  0
  4  2  1  0
  5  6  1  0
  6  8  1  0
  6  7  1  6
  8 13  1  0
  9  8  2  0
 10 11  1  0
 12 11  1  1
 12 14  1  0
 13 12  1  0
 14 15  2  0
 14 16  1  0
 16 17  1  0
 17 21  1  0
 17 18  1  1
 19 18  1  0
 20 19  2  0
 21 22  2  0
 21 24  1  0
 23 19  1  0
M  END
$$$$
