QSD.pdb
     RDKit          3D

 24 23  0  0  1  0  0  0  0  0999 V2000
   16.6310  -14.4389   18.1690 N   0  0  0  0  0  0  0  0  0  0  0  0
   15.9124  -14.5154   16.9529 C   0  0  0  0  0  0  0  0  0  0  0  0
   16.5485  -14.5940   15.8811 O   0  0  0  0  0  0  0  0  0  0  0  0
   14.4379  -14.5046   16.9234 C   0  0  0  0  0  0  0  0  0  0  0  0
   13.9043  -14.5633   18.3165 C   0  0  0  0  0  0  0  0  0  0  0  0
   12.4297  -14.7756   18.4062 C   0  0  2  0  0  0  0  0  0  0  0  0
   11.6975  -13.8226   17.6279 N   0  0  0  0  0  0  0  0  0  0  0  0
   11.9479  -14.8907   19.8095 C   0  0  0  0  0  0  0  0  0  0  0  0
   12.0997  -13.8999   20.5553 O   0  0  0  0  0  0  0  0  0  0  0  0
    8.6672  -16.5954   21.1852 O   0  0  0  0  0  0  0  0  0  0  0  0
    9.7750  -17.1726   21.8534 C   0  0  0  0  0  0  0  0  0  0  0  0
   11.0074  -16.3744   21.6583 C   0  0  2  0  0  0  0  0  0  0  0  0
   11.3361  -16.0606   20.3180 N   0  0  0  0  0  0  0  0  0  0  0  0
   12.1171  -16.9172   22.4926 C   0  0  0  0  0  0  0  0  0  0  0  0
   12.9251  -17.7182   21.9748 O   0  0  0  0  0  0  0  0  0  0  0  0
   12.3268  -16.5861   23.8503 N   0  0  0  0  0  0  0  0  0  0  0  0
   13.3824  -17.1644   24.6533 C   0  0  1  0  0  0  0  0  0  0  0  0
   14.3448  -16.1156   25.1592 C   0  0  0  0  0  0  0  0  0  0  0  0
   15.5846  -16.0791   24.3425 C   0  0  0  0  0  0  0  0  0  0  0  0
   15.6778  -15.3999   23.2897 O   0  0  0  0  0  0  0  0  0  0  0  0
   12.7499  -17.8019   25.8368 C   0  0  0  0  0  0  0  0  0  0  0  0
   13.4095  -18.4911   26.6605 O   0  0  0  0  0  0  0  0  0  0  0  0
   16.7079  -16.8076   24.7190 O   0  0  0  0  0  0  0  0  0  0  0  0
   11.3881  -17.6757   26.1069 O   0  0  0  0  0  0  0  0  0  0  0  0
  2  1  1  0
  2  3  2  0
  4  5  1  0
  4  2  1  0
  5  6  1  0
  6  8  1  0
  6  7  1  1
  8 13  1  0
  9  8  2  0
 10 11  1  0
 12 11  1  6
 12 14  1  0
 13 12  1  0
 14 15  2  0
 14 16  1  0
 16 17  1  0
 17 21  1  0
 17 18  1  1
 19 18  1  0
 20 19  2  0
 21 22  2  0
 21 24  1  0
 23 19  1  0
M  END
$$$$
