EAQ.pdb
     RDKit          3D

 24 23  0  0  1  0  0  0  0  0999 V2000
    8.5768  -19.7302   17.1450 N   0  0  0  0  0  0  0  0  0  0  0  0
    9.6327  -19.6313   18.1216 C   0  0  1  0  0  0  0  0  0  0  0  0
   10.7643  -18.8576   17.5326 C   0  0  0  0  0  0  0  0  0  0  0  0
   11.2034  -19.5237   16.2508 C   0  0  0  0  0  0  0  0  0  0  0  0
   12.4295  -18.9406   15.6680 C   0  0  0  0  0  0  0  0  0  0  0  0
   12.3827  -17.8479   15.0486 O   0  0  0  0  0  0  0  0  0  0  0  0
    9.1594  -19.0729   19.4112 C   0  0  0  0  0  0  0  0  0  0  0  0
    8.6697  -17.9146   19.4009 O   0  0  0  0  0  0  0  0  0  0  0  0
   13.6659  -19.5619   15.7764 O   0  0  0  0  0  0  0  0  0  0  0  0
    8.6729  -20.2712   22.9855 C   0  0  0  0  0  0  0  0  0  0  0  0
    8.6915  -19.2435   21.8793 C   0  0  2  0  0  0  0  0  0  0  0  0
    9.2195  -19.7483   20.6478 N   0  0  0  0  0  0  0  0  0  0  0  0
    9.3970  -17.9952   22.3197 C   0  0  0  0  0  0  0  0  0  0  0  0
   10.6039  -17.8440   22.0273 O   0  0  0  0  0  0  0  0  0  0  0  0
    7.7633  -12.7641   19.7713 N   0  0  0  0  0  0  0  0  0  0  0  0
    7.8708  -13.1551   21.1231 C   0  0  0  0  0  0  0  0  0  0  0  0
    7.2565  -12.4948   21.9935 O   0  0  0  0  0  0  0  0  0  0  0  0
    8.6743  -14.3146   21.5366 C   0  0  0  0  0  0  0  0  0  0  0  0
    8.5841  -14.6458   22.9701 C   0  0  0  0  0  0  0  0  0  0  0  0
    9.4049  -15.7619   23.5169 C   0  0  2  0  0  0  0  0  0  0  0  0
    8.7363  -16.9868   23.0549 N   0  0  0  0  0  0  0  0  0  0  0  0
    9.6329  -15.7573   24.9471 C   0  0  0  0  0  0  0  0  0  0  0  0
   10.5630  -14.9262   25.5733 O   0  0  0  0  0  0  0  0  0  0  0  0
    8.9867  -16.5264   25.7411 O   0  0  0  0  0  0  0  0  0  0  0  0
  2  1  1  6
  3  2  1  0
  4  3  1  0
  4  5  1  0
  5  6  2  0
  5  9  1  0
  7  2  1  0
  8  7  2  0
 11 10  1  1
 11 13  1  0
 11 12  1  0
 12  7  1  0
 13 21  1  0
 14 13  2  0
 16 15  1  0
 17 16  2  0
 18 16  1  0
 19 18  1  0
 20 19  1  1
 21 20  1  0
 22 23  1  0
 22 20  1  0
 24 22  2  0
M  END
$$$$
