EAQ.pdb
     RDKit          3D

 24 23  0  0  1  0  0  0  0  0999 V2000
   11.7375  -17.3590   18.1290 N   0  0  0  0  0  0  0  0  0  0  0  0
   12.1834  -18.0605   19.3069 C   0  0  1  0  0  0  0  0  0  0  0  0
   13.6678  -17.9457   19.4044 C   0  0  0  0  0  0  0  0  0  0  0  0
   14.2908  -18.5263   18.1578 C   0  0  0  0  0  0  0  0  0  0  0  0
   15.7681  -18.5132   18.1705 C   0  0  0  0  0  0  0  0  0  0  0  0
   16.4054  -17.7906   17.3633 O   0  0  0  0  0  0  0  0  0  0  0  0
   11.4861  -17.6052   20.5338 C   0  0  0  0  0  0  0  0  0  0  0  0
   11.6128  -16.3981   20.8631 O   0  0  0  0  0  0  0  0  0  0  0  0
   16.5054  -19.2843   19.0584 O   0  0  0  0  0  0  0  0  0  0  0  0
    8.7626  -18.8851   22.8097 C   0  0  0  0  0  0  0  0  0  0  0  0
    9.9095  -17.9658   22.4636 C   0  0  2  0  0  0  0  0  0  0  0  0
   10.6913  -18.4293   21.3572 N   0  0  0  0  0  0  0  0  0  0  0  0
   10.7572  -17.6892   23.6698 C   0  0  0  0  0  0  0  0  0  0  0  0
   11.8394  -18.3017   23.8052 O   0  0  0  0  0  0  0  0  0  0  0  0
    8.2921  -13.2687   27.3526 N   0  0  0  0  0  0  0  0  0  0  0  0
    9.3043  -13.9313   28.0795 C   0  0  0  0  0  0  0  0  0  0  0  0
    9.7619  -13.3865   29.1113 O   0  0  0  0  0  0  0  0  0  0  0  0
    9.8299  -15.2403   27.6658 C   0  0  0  0  0  0  0  0  0  0  0  0
   10.6106  -15.2225   26.4156 C   0  0  0  0  0  0  0  0  0  0  0  0
   11.1517  -16.4992   25.8718 C   0  0  2  0  0  0  0  0  0  0  0  0
   10.3669  -16.7570   24.6559 N   0  0  0  0  0  0  0  0  0  0  0  0
   11.1686  -17.6316   26.7744 C   0  0  0  0  0  0  0  0  0  0  0  0
   12.2024  -17.8763   27.6795 O   0  0  0  0  0  0  0  0  0  0  0  0
   10.2226  -18.4941   26.8011 O   0  0  0  0  0  0  0  0  0  0  0  0
  2  1  1  6
  3  2  1  0
  4  3  1  0
  4  5  1  0
  5  6  2  0
  5  9  1  0
  7  2  1  0
  8  7  2  0
 11 10  1  1
 11 13  1  0
 11 12  1  0
 12  7  1  0
 13 21  1  0
 14 13  2  0
 16 15  1  0
 17 16  2  0
 18 16  1  0
 19 18  1  0
 20 19  1  1
 21 20  1  0
 22 23  1  0
 22 20  1  0
 24 22  2  0
M  END
$$$$
