EAQ.pdb
     RDKit          3D

 24 23  0  0  1  0  0  0  0  0999 V2000
   10.8658  -16.7514   16.4830 N   0  0  0  0  0  0  0  0  0  0  0  0
   10.8060  -17.6572   17.6031 C   0  0  1  0  0  0  0  0  0  0  0  0
   11.7130  -18.8121   17.3392 C   0  0  0  0  0  0  0  0  0  0  0  0
   10.8851  -20.0066   16.9306 C   0  0  0  0  0  0  0  0  0  0  0  0
   11.6002  -21.2939   17.0499 C   0  0  0  0  0  0  0  0  0  0  0  0
   11.8547  -21.9782   16.0267 O   0  0  0  0  0  0  0  0  0  0  0  0
   11.0898  -16.9815   18.8922 C   0  0  0  0  0  0  0  0  0  0  0  0
   12.2808  -16.6550   19.1300 O   0  0  0  0  0  0  0  0  0  0  0  0
   12.0157  -21.7966   18.2751 O   0  0  0  0  0  0  0  0  0  0  0  0
    9.1490  -15.5956   21.8500 C   0  0  0  0  0  0  0  0  0  0  0  0
   10.3944  -16.0422   21.1224 C   0  0  2  0  0  0  0  0  0  0  0  0
   10.1195  -16.6793   19.8700 N   0  0  0  0  0  0  0  0  0  0  0  0
   11.2544  -16.8958   22.0066 C   0  0  0  0  0  0  0  0  0  0  0  0
   11.1128  -18.1383   21.9756 O   0  0  0  0  0  0  0  0  0  0  0  0
   17.1446  -16.5696   22.4520 N   0  0  0  0  0  0  0  0  0  0  0  0
   16.4788  -15.4892   23.0696 C   0  0  0  0  0  0  0  0  0  0  0  0
   17.0850  -14.3997   23.1976 O   0  0  0  0  0  0  0  0  0  0  0  0
   15.0973  -15.6035   23.5589 C   0  0  0  0  0  0  0  0  0  0  0  0
   14.4567  -16.9044   23.2945 C   0  0  0  0  0  0  0  0  0  0  0  0
   13.0634  -17.1435   23.7635 C   0  0  2  0  0  0  0  0  0  0  0  0
   12.2188  -16.3353   22.8724 N   0  0  0  0  0  0  0  0  0  0  0  0
   12.7992  -16.8882   25.1644 C   0  0  0  0  0  0  0  0  0  0  0  0
   13.3860  -17.6156   26.2010 O   0  0  0  0  0  0  0  0  0  0  0  0
   11.9987  -15.9656   25.5483 O   0  0  0  0  0  0  0  0  0  0  0  0
  2  1  1  6
  3  2  1  0
  4  3  1  0
  4  5  1  0
  5  6  2  0
  5  9  1  0
  7  2  1  0
  8  7  2  0
 11 10  1  1
 11 13  1  0
 11 12  1  0
 12  7  1  0
 13 21  1  0
 14 13  2  0
 16 15  1  0
 17 16  2  0
 18 16  1  0
 19 18  1  0
 20 19  1  6
 21 20  1  0
 22 23  1  0
 22 20  1  0
 24 22  2  0
M  END
$$$$
