EAQ.pdb
     RDKit          3D

 24 23  0  0  1  0  0  0  0  0999 V2000
    7.9636  -13.6649   20.5355 N   0  0  0  0  0  0  0  0  0  0  0  0
    7.0579  -14.0296   21.5963 C   0  0  1  0  0  0  0  0  0  0  0  0
    6.6015  -15.4336   21.3803 C   0  0  0  0  0  0  0  0  0  0  0  0
    7.7613  -16.2574   20.8747 C   0  0  0  0  0  0  0  0  0  0  0  0
    7.4188  -17.6718   20.6196 C   0  0  0  0  0  0  0  0  0  0  0  0
    7.7795  -18.5691   21.4225 O   0  0  0  0  0  0  0  0  0  0  0  0
    7.6453  -13.8126   22.9405 C   0  0  0  0  0  0  0  0  0  0  0  0
    8.8348  -14.1775   23.1234 O   0  0  0  0  0  0  0  0  0  0  0  0
    6.6963  -18.0662   19.5020 O   0  0  0  0  0  0  0  0  0  0  0  0
    6.5725  -12.3681   26.2964 C   0  0  0  0  0  0  0  0  0  0  0  0
    7.5160  -13.0547   25.3381 C   0  0  2  0  0  0  0  0  0  0  0  0
    6.9649  -13.2263   24.0278 N   0  0  0  0  0  0  0  0  0  0  0  0
    8.0114  -14.3500   25.9099 C   0  0  0  0  0  0  0  0  0  0  0  0
    7.3138  -15.3796   25.7758 O   0  0  0  0  0  0  0  0  0  0  0  0
   13.5583  -18.7048   25.6220 N   0  0  0  0  0  0  0  0  0  0  0  0
   12.8117  -17.5073   25.6035 C   0  0  0  0  0  0  0  0  0  0  0  0
   13.1135  -16.6202   24.7712 O   0  0  0  0  0  0  0  0  0  0  0  0
   11.6900  -17.2750   26.5248 C   0  0  0  0  0  0  0  0  0  0  0  0
   10.9218  -16.0450   26.2608 C   0  0  0  0  0  0  0  0  0  0  0  0
    9.7698  -15.6984   27.1390 C   0  0  2  0  0  0  0  0  0  0  0  0
    9.2430  -14.4386   26.5949 N   0  0  0  0  0  0  0  0  0  0  0  0
   10.0391  -15.6220   28.5599 C   0  0  0  0  0  0  0  0  0  0  0  0
    9.9127  -14.4473   29.3030 O   0  0  0  0  0  0  0  0  0  0  0  0
   10.4160  -16.6417   29.2364 O   0  0  0  0  0  0  0  0  0  0  0  0
  2  1  1  6
  3  2  1  0
  4  3  1  0
  4  5  1  0
  5  6  2  0
  5  9  1  0
  7  2  1  0
  8  7  2  0
 11 10  1  1
 11 13  1  0
 11 12  1  0
 12  7  1  0
 13 21  1  0
 14 13  2  0
 16 15  1  0
 17 16  2  0
 18 16  1  0
 19 18  1  0
 20 19  1  6
 21 20  1  0
 22 23  1  0
 22 20  1  0
 24 22  2  0
M  END
$$$$
