EAQ.pdb
     RDKit          3D

 24 23  0  0  1  0  0  0  0  0999 V2000
   10.4428  -14.0248   19.1016 N   0  0  0  0  0  0  0  0  0  0  0  0
    9.0619  -13.9889   19.5142 C   0  0  1  0  0  0  0  0  0  0  0  0
    8.2010  -14.3555   18.3521 C   0  0  0  0  0  0  0  0  0  0  0  0
    8.6821  -13.6141   17.1281 C   0  0  0  0  0  0  0  0  0  0  0  0
    7.9317  -13.9458   15.8994 C   0  0  0  0  0  0  0  0  0  0  0  0
    8.1905  -13.3605   14.8176 O   0  0  0  0  0  0  0  0  0  0  0  0
    8.8073  -14.8278   20.7102 C   0  0  0  0  0  0  0  0  0  0  0  0
    7.6952  -14.7038   21.2840 O   0  0  0  0  0  0  0  0  0  0  0  0
    6.9254  -14.9017   15.8847 O   0  0  0  0  0  0  0  0  0  0  0  0
   10.3487  -17.7682   22.5109 C   0  0  0  0  0  0  0  0  0  0  0  0
    9.5059  -16.5173   22.4415 C   0  0  2  0  0  0  0  0  0  0  0  0
    9.7235  -15.7544   21.2496 N   0  0  0  0  0  0  0  0  0  0  0  0
    9.6800  -15.6848   23.6772 C   0  0  0  0  0  0  0  0  0  0  0  0
   10.6600  -14.9114   23.7557 O   0  0  0  0  0  0  0  0  0  0  0  0
    5.2514  -12.7539   26.1726 N   0  0  0  0  0  0  0  0  0  0  0  0
    6.4668  -12.0576   26.3457 C   0  0  0  0  0  0  0  0  0  0  0  0
    6.4329  -10.8157   26.5116 O   0  0  0  0  0  0  0  0  0  0  0  0
    7.7655  -12.7462   26.3436 C   0  0  0  0  0  0  0  0  0  0  0  0
    7.6876  -14.2056   26.1521 C   0  0  0  0  0  0  0  0  0  0  0  0
    8.9432  -14.9924   26.0006 C   0  0  2  0  0  0  0  0  0  0  0  0
    8.7683  -15.7505   24.7534 N   0  0  0  0  0  0  0  0  0  0  0  0
    9.3173  -15.8356   27.1171 C   0  0  0  0  0  0  0  0  0  0  0  0
    9.3623  -17.2287   27.0456 O   0  0  0  0  0  0  0  0  0  0  0  0
    9.6356  -15.3507   28.2587 O   0  0  0  0  0  0  0  0  0  0  0  0
  2  1  1  6
  3  2  1  0
  4  3  1  0
  4  5  1  0
  5  6  2  0
  5  9  1  0
  7  2  1  0
  8  7  2  0
 11 10  1  1
 11 13  1  0
 11 12  1  0
 12  7  1  0
 13 21  1  0
 14 13  2  0
 16 15  1  0
 17 16  2  0
 18 16  1  0
 19 18  1  0
 20 19  1  1
 21 20  1  0
 22 23  1  0
 22 20  1  0
 24 22  2  0
M  END
$$$$
