EAQ.pdb
     RDKit          3D

 24 23  0  0  1  0  0  0  0  0999 V2000
   10.5648  -15.4508   13.5617 N   0  0  0  0  0  0  0  0  0  0  0  0
   10.8824  -16.7086   14.1907 C   0  0  1  0  0  0  0  0  0  0  0  0
   12.3325  -16.9963   13.9899 C   0  0  0  0  0  0  0  0  0  0  0  0
   12.7689  -16.4286   12.6607 C   0  0  0  0  0  0  0  0  0  0  0  0
   14.1900  -16.6808   12.3448 C   0  0  0  0  0  0  0  0  0  0  0  0
   14.5060  -17.4528   11.4046 O   0  0  0  0  0  0  0  0  0  0  0  0
   10.4773  -16.7456   15.6167 C   0  0  0  0  0  0  0  0  0  0  0  0
   10.6843  -15.7163   16.3090 O   0  0  0  0  0  0  0  0  0  0  0  0
   15.2214  -16.0872   13.0592 O   0  0  0  0  0  0  0  0  0  0  0  0
    8.1412  -18.6397   17.8023 C   0  0  0  0  0  0  0  0  0  0  0  0
    9.4245  -17.8677   17.6098 C   0  0  2  0  0  0  0  0  0  0  0  0
    9.8768  -17.8527   16.2514 N   0  0  0  0  0  0  0  0  0  0  0  0
   10.4889  -18.3553   18.5476 C   0  0  0  0  0  0  0  0  0  0  0  0
   11.4615  -18.9914   18.0849 O   0  0  0  0  0  0  0  0  0  0  0  0
   11.4267  -18.4916   25.9228 N   0  0  0  0  0  0  0  0  0  0  0  0
   11.2537  -17.8729   24.6661 C   0  0  0  0  0  0  0  0  0  0  0  0
   10.6699  -16.7651   24.6137 O   0  0  0  0  0  0  0  0  0  0  0  0
   11.7432  -18.4856   23.4228 C   0  0  0  0  0  0  0  0  0  0  0  0
   11.0255  -18.0653   22.2058 C   0  0  0  0  0  0  0  0  0  0  0  0
   11.3938  -18.6667   20.8939 C   0  0  2  0  0  0  0  0  0  0  0  0
   10.4226  -18.1160   19.9377 N   0  0  0  0  0  0  0  0  0  0  0  0
   11.4680  -20.1121   20.8425 C   0  0  0  0  0  0  0  0  0  0  0  0
   10.3596  -20.9300   20.6179 O   0  0  0  0  0  0  0  0  0  0  0  0
   12.5710  -20.7425   21.0019 O   0  0  0  0  0  0  0  0  0  0  0  0
  2  1  1  1
  3  2  1  0
  4  3  1  0
  4  5  1  0
  5  6  2  0
  5  9  1  0
  7  2  1  0
  8  7  2  0
 11 10  1  6
 11 13  1  0
 11 12  1  0
 12  7  1  0
 13 21  1  0
 14 13  2  0
 16 15  1  0
 17 16  2  0
 18 16  1  0
 19 18  1  0
 20 19  1  1
 21 20  1  0
 22 23  1  0
 22 20  1  0
 24 22  2  0
M  END
$$$$
