EAQ.pdb
     RDKit          3D

 24 23  0  0  1  0  0  0  0  0999 V2000
   10.8245  -16.8616   18.4974 N   0  0  0  0  0  0  0  0  0  0  0  0
   11.1185  -17.7164   19.6205 C   0  0  1  0  0  0  0  0  0  0  0  0
   12.5967  -17.8940   19.7183 C   0  0  0  0  0  0  0  0  0  0  0  0
   13.0627  -18.7830   18.5905 C   0  0  0  0  0  0  0  0  0  0  0  0
   14.5045  -19.1012   18.6418 C   0  0  0  0  0  0  0  0  0  0  0  0
   14.9080  -20.2677   18.4045 O   0  0  0  0  0  0  0  0  0  0  0  0
   10.5104  -17.2239   20.8801 C   0  0  0  0  0  0  0  0  0  0  0  0
   10.7860  -16.0513   21.2416 O   0  0  0  0  0  0  0  0  0  0  0  0
   15.4612  -18.1436   18.9489 O   0  0  0  0  0  0  0  0  0  0  0  0
    7.9197  -18.3736   23.4044 C   0  0  0  0  0  0  0  0  0  0  0  0
    9.0461  -17.4978   22.9100 C   0  0  2  0  0  0  0  0  0  0  0  0
    9.6455  -17.9768   21.7011 N   0  0  0  0  0  0  0  0  0  0  0  0
   10.0645  -17.2752   23.9885 C   0  0  0  0  0  0  0  0  0  0  0  0
   11.1316  -17.9274   23.9605 O   0  0  0  0  0  0  0  0  0  0  0  0
   10.0825  -14.4180   30.5347 N   0  0  0  0  0  0  0  0  0  0  0  0
   10.0296  -14.0571   29.1713 C   0  0  0  0  0  0  0  0  0  0  0  0
    9.1770  -13.2160   28.8019 O   0  0  0  0  0  0  0  0  0  0  0  0
   10.9472  -14.6327   28.1775 C   0  0  0  0  0  0  0  0  0  0  0  0
   10.3157  -14.9999   26.8972 C   0  0  0  0  0  0  0  0  0  0  0  0
   10.7203  -16.2612   26.2162 C   0  0  2  0  0  0  0  0  0  0  0  0
    9.8516  -16.3500   25.0338 N   0  0  0  0  0  0  0  0  0  0  0  0
   10.6945  -17.4669   27.0182 C   0  0  0  0  0  0  0  0  0  0  0  0
    9.5400  -18.2211   27.2331 O   0  0  0  0  0  0  0  0  0  0  0  0
   11.7441  -17.9256   27.5903 O   0  0  0  0  0  0  0  0  0  0  0  0
  2  1  1  6
  3  2  1  0
  4  3  1  0
  4  5  1  0
  5  6  2  0
  5  9  1  0
  7  2  1  0
  8  7  2  0
 11 10  1  1
 11 13  1  0
 11 12  1  0
 12  7  1  0
 13 21  1  0
 14 13  2  0
 16 15  1  0
 17 16  2  0
 18 16  1  0
 19 18  1  0
 20 19  1  1
 21 20  1  0
 22 23  1  0
 22 20  1  0
 24 22  2  0
M  END
$$$$
