EAQ.pdb
     RDKit          3D

 24 23  0  0  1  0  0  0  0  0999 V2000
   10.9100  -17.2409   19.6451 N   0  0  0  0  0  0  0  0  0  0  0  0
   11.3023  -18.0189   20.7937 C   0  0  1  0  0  0  0  0  0  0  0  0
   12.7918  -18.0916   20.8419 C   0  0  0  0  0  0  0  0  0  0  0  0
   13.3404  -17.9048   19.4478 C   0  0  0  0  0  0  0  0  0  0  0  0
   14.8143  -17.9765   19.3748 C   0  0  0  0  0  0  0  0  0  0  0  0
   15.5147  -17.7318   20.3894 O   0  0  0  0  0  0  0  0  0  0  0  0
   10.7070  -17.5084   22.0523 C   0  0  0  0  0  0  0  0  0  0  0  0
   11.2658  -16.5273   22.6061 O   0  0  0  0  0  0  0  0  0  0  0  0
   15.4798  -18.3114   18.2037 O   0  0  0  0  0  0  0  0  0  0  0  0
    7.5213  -17.9467   24.0408 C   0  0  0  0  0  0  0  0  0  0  0  0
    8.9626  -17.5312   23.8678 C   0  0  2  0  0  0  0  0  0  0  0  0
    9.5593  -18.0449   22.6719 N   0  0  0  0  0  0  0  0  0  0  0  0
    9.7685  -17.8731   25.0858 C   0  0  0  0  0  0  0  0  0  0  0  0
   10.4518  -18.9209   25.0878 O   0  0  0  0  0  0  0  0  0  0  0  0
   10.0693  -13.8596   29.9378 N   0  0  0  0  0  0  0  0  0  0  0  0
   10.5099  -13.6814   28.6089 C   0  0  0  0  0  0  0  0  0  0  0  0
   10.7113  -12.5172   28.1904 O   0  0  0  0  0  0  0  0  0  0  0  0
   10.7450  -14.8186   27.7075 C   0  0  0  0  0  0  0  0  0  0  0  0
   10.4414  -16.1382   28.2902 C   0  0  0  0  0  0  0  0  0  0  0  0
   10.5498  -17.3565   27.4403 C   0  0  2  0  0  0  0  0  0  0  0  0
    9.7768  -17.0449   26.2295 N   0  0  0  0  0  0  0  0  0  0  0  0
   10.1505  -18.6082   28.0494 C   0  0  0  0  0  0  0  0  0  0  0  0
   10.9380  -19.2984   28.9722 O   0  0  0  0  0  0  0  0  0  0  0  0
    9.0332  -19.1711   27.7769 O   0  0  0  0  0  0  0  0  0  0  0  0
  2  1  1  6
  3  2  1  0
  4  3  1  0
  4  5  1  0
  5  6  2  0
  5  9  1  0
  7  2  1  0
  8  7  2  0
 11 10  1  1
 11 13  1  0
 11 12  1  0
 12  7  1  0
 13 21  1  0
 14 13  2  0
 16 15  1  0
 17 16  2  0
 18 16  1  0
 19 18  1  0
 20 19  1  1
 21 20  1  0
 22 23  1  0
 22 20  1  0
 24 22  2  0
M  END
$$$$
