QMA.pdb
     RDKit          3D

 23 22  0  0  1  0  0  0  0  0999 V2000
   18.5736  -21.7301  -13.1847 N   0  0  0  0  0  0  0  0  0  0  0  0
   18.9743  -22.9310  -13.8115 C   0  0  0  0  0  0  0  0  0  0  0  0
   18.2592  -23.9502  -13.8264 O   0  0  0  0  0  0  0  0  0  0  0  0
   20.2985  -22.9509  -14.4666 C   0  0  0  0  0  0  0  0  0  0  0  0
   21.1093  -21.7177  -14.3118 C   0  0  0  0  0  0  0  0  0  0  0  0
   21.2670  -21.1973  -12.9240 C   0  0  2  0  0  0  0  0  0  0  0  0
   20.2101  -20.2249  -12.6091 N   0  0  0  0  0  0  0  0  0  0  0  0
   22.5937  -20.5594  -12.6770 C   0  0  0  0  0  0  0  0  0  0  0  0
   22.8165  -19.3745  -13.0006 O   0  0  0  0  0  0  0  0  0  0  0  0
   27.6460  -19.4337   -7.6000 C   0  0  0  0  0  0  0  0  0  0  0  0
   26.1773  -20.1434   -8.3915 S   0  0  0  0  0  0  0  0  0  0  0  0
   26.6684  -21.0359   -9.9317 C   0  0  0  0  0  0  0  0  0  0  0  0
   25.4100  -21.4849  -10.5605 C   0  0  0  0  0  0  0  0  0  0  0  0
   24.9647  -20.7895  -11.8045 C   0  0  2  0  0  0  0  0  0  0  0  0
   23.6068  -21.3079  -12.0695 N   0  0  0  0  0  0  0  0  0  0  0  0
   25.8199  -20.9399  -12.9760 C   0  0  0  0  0  0  0  0  0  0  0  0
   25.9635  -22.0365  -13.6045 O   0  0  0  0  0  0  0  0  0  0  0  0
   28.1299  -18.7151  -15.0020 C   0  0  0  0  0  0  0  0  0  0  0  0
   27.3561  -19.9892  -14.7264 C   0  0  2  0  0  0  0  0  0  0  0  0
   26.5579  -19.8498  -13.5018 N   0  0  0  0  0  0  0  0  0  0  0  0
   28.3479  -21.0847  -14.5988 C   0  0  0  0  0  0  0  0  0  0  0  0
   28.8292  -21.3548  -13.4779 O   0  0  0  0  0  0  0  0  0  0  0  0
   28.7876  -21.8490  -15.6692 O   0  0  0  0  0  0  0  0  0  0  0  0
  2  1  1  0
  2  3  2  0
  4  2  1  0
  5  4  1  0
  6  5  1  0
  6  7  1  6
  8  6  1  0
  8 15  1  0
  9  8  2  0
 10 11  1  0
 11 12  1  0
 12 13  1  0
 14 13  1  1
 14 15  1  0
 16 14  1  0
 17 16  2  0
 19 18  1  1
 19 20  1  0
 19 21  1  0
 20 16  1  0
 21 23  1  0
 22 21  2  0
M  END
$$$$
