QMA.pdb
     RDKit          3D

 23 22  0  0  1  0  0  0  0  0999 V2000
   16.1138  -13.3833  -14.4208 N   0  0  0  0  0  0  0  0  0  0  0  0
   16.5390  -13.5063  -15.7623 C   0  0  0  0  0  0  0  0  0  0  0  0
   16.6091  -14.6045  -16.3451 O   0  0  0  0  0  0  0  0  0  0  0  0
   16.9098  -12.2680  -16.4777 C   0  0  0  0  0  0  0  0  0  0  0  0
   16.8197  -11.0173  -15.6842 C   0  0  0  0  0  0  0  0  0  0  0  0
   17.2945   -9.7722  -16.3521 C   0  0  2  0  0  0  0  0  0  0  0  0
   17.8235  -10.0688  -17.6914 N   0  0  0  0  0  0  0  0  0  0  0  0
   18.3399   -9.0438  -15.5747 C   0  0  0  0  0  0  0  0  0  0  0  0
   18.1361   -8.6702  -14.4011 O   0  0  0  0  0  0  0  0  0  0  0  0
   23.9496  -11.1962  -14.6852 C   0  0  0  0  0  0  0  0  0  0  0  0
   23.6414   -9.5272  -14.0475 S   0  0  0  0  0  0  0  0  0  0  0  0
   23.2304   -8.3916  -15.4445 C   0  0  0  0  0  0  0  0  0  0  0  0
   21.9207   -8.8382  -15.9600 C   0  0  0  0  0  0  0  0  0  0  0  0
   20.7013   -8.1211  -15.4823 C   0  0  2  0  0  0  0  0  0  0  0  0
   19.5735   -8.7760  -16.1765 N   0  0  0  0  0  0  0  0  0  0  0  0
   20.6735   -6.6775  -15.6857 C   0  0  0  0  0  0  0  0  0  0  0  0
   21.3852   -5.8606  -15.0189 O   0  0  0  0  0  0  0  0  0  0  0  0
   19.4326   -4.3256  -18.3250 C   0  0  0  0  0  0  0  0  0  0  0  0
   19.8588   -4.6325  -16.9029 C   0  0  2  0  0  0  0  0  0  0  0  0
   19.8370   -6.0808  -16.6622 N   0  0  0  0  0  0  0  0  0  0  0  0
   18.9175   -3.9244  -16.0015 C   0  0  0  0  0  0  0  0  0  0  0  0
   17.9507   -4.5434  -15.5083 O   0  0  0  0  0  0  0  0  0  0  0  0
   19.0429   -2.5859  -15.6608 O   0  0  0  0  0  0  0  0  0  0  0  0
  2  1  1  0
  2  3  2  0
  4  2  1  0
  5  4  1  0
  6  5  1  0
  6  7  1  6
  8  6  1  0
  8 15  1  0
  9  8  2  0
 10 11  1  0
 11 12  1  0
 12 13  1  0
 14 13  1  6
 14 15  1  0
 16 14  1  0
 17 16  2  0
 19 18  1  6
 19 20  1  0
 19 21  1  0
 20 16  1  0
 21 23  1  0
 22 21  2  0
M  END
$$$$
