QMA.pdb
     RDKit          3D

 23 22  0  0  1  0  0  0  0  0999 V2000
   20.9317  -15.7689  -16.9400 N   0  0  0  0  0  0  0  0  0  0  0  0
   19.9065  -15.4378  -17.8538 C   0  0  0  0  0  0  0  0  0  0  0  0
   19.4193  -16.2678  -18.6438 O   0  0  0  0  0  0  0  0  0  0  0  0
   19.4124  -14.0454  -17.8511 C   0  0  0  0  0  0  0  0  0  0  0  0
   20.0470  -13.1415  -16.8599 C   0  0  0  0  0  0  0  0  0  0  0  0
   20.4663  -11.8006  -17.3580 C   0  0  2  0  0  0  0  0  0  0  0  0
   21.5203  -11.9289  -18.3749 N   0  0  0  0  0  0  0  0  0  0  0  0
   20.9509  -10.8917  -16.2777 C   0  0  0  0  0  0  0  0  0  0  0  0
   20.3795  -10.8357  -15.1692 O   0  0  0  0  0  0  0  0  0  0  0  0
   27.1842  -12.3083  -14.8916 C   0  0  0  0  0  0  0  0  0  0  0  0
   26.4556  -10.7447  -15.4496 S   0  0  0  0  0  0  0  0  0  0  0  0
   24.6304  -10.7720  -15.1700 C   0  0  0  0  0  0  0  0  0  0  0  0
   24.1361   -9.4424  -15.5801 C   0  0  0  0  0  0  0  0  0  0  0  0
   22.6664   -9.1903  -15.5042 C   0  0  2  0  0  0  0  0  0  0  0  0
   22.0698  -10.0872  -16.5153 N   0  0  0  0  0  0  0  0  0  0  0  0
   22.2309   -7.8132  -15.7044 C   0  0  0  0  0  0  0  0  0  0  0  0
   22.3139   -7.2055  -16.8189 O   0  0  0  0  0  0  0  0  0  0  0  0
   20.0777   -5.2216  -14.2961 C   0  0  0  0  0  0  0  0  0  0  0  0
   21.4620   -5.6027  -14.7825 C   0  0  2  0  0  0  0  0  0  0  0  0
   21.6724   -7.0497  -14.6487 N   0  0  0  0  0  0  0  0  0  0  0  0
   22.4380   -4.8406  -13.9659 C   0  0  0  0  0  0  0  0  0  0  0  0
   22.9568   -5.3766  -12.9637 O   0  0  0  0  0  0  0  0  0  0  0  0
   22.8228   -3.5386  -14.2488 O   0  0  0  0  0  0  0  0  0  0  0  0
  2  1  1  0
  2  3  2  0
  4  2  1  0
  5  4  1  0
  6  5  1  0
  6  7  1  6
  8  6  1  0
  8 15  1  0
  9  8  2  0
 10 11  1  0
 11 12  1  0
 12 13  1  0
 14 13  1  6
 14 15  1  0
 16 14  1  0
 17 16  2  0
 19 18  1  1
 19 20  1  0
 19 21  1  0
 20 16  1  0
 21 23  1  0
 22 21  2  0
M  END
$$$$
