QMA.pdb
     RDKit          3D

 23 22  0  0  1  0  0  0  0  0999 V2000
   23.0329  -14.9455  -19.2026 N   0  0  0  0  0  0  0  0  0  0  0  0
   22.9116  -14.6571  -20.5802 C   0  0  0  0  0  0  0  0  0  0  0  0
   23.5362  -15.2868  -21.4541 O   0  0  0  0  0  0  0  0  0  0  0  0
   22.0022  -13.5603  -20.9711 C   0  0  0  0  0  0  0  0  0  0  0  0
   21.2725  -12.9045  -19.8577 C   0  0  0  0  0  0  0  0  0  0  0  0
   21.2666  -11.4140  -19.8554 C   0  0  2  0  0  0  0  0  0  0  0  0
   21.7567  -10.8892  -21.1383 N   0  0  0  0  0  0  0  0  0  0  0  0
   22.0785  -10.8194  -18.7530 C   0  0  0  0  0  0  0  0  0  0  0  0
   21.8018  -11.0305  -17.5542 O   0  0  0  0  0  0  0  0  0  0  0  0
   29.5467   -8.8195  -17.8836 C   0  0  0  0  0  0  0  0  0  0  0  0
   28.0791   -9.2883  -18.8394 S   0  0  0  0  0  0  0  0  0  0  0  0
   26.5576   -8.9720  -17.8418 C   0  0  0  0  0  0  0  0  0  0  0  0
   25.4396   -9.5577  -18.6082 C   0  0  0  0  0  0  0  0  0  0  0  0
   24.0584   -9.3895  -18.0665 C   0  0  2  0  0  0  0  0  0  0  0  0
   23.1725  -10.0093  -19.0734 N   0  0  0  0  0  0  0  0  0  0  0  0
   23.6378   -8.0256  -17.7684 C   0  0  0  0  0  0  0  0  0  0  0  0
   23.3783   -7.1593  -18.6632 O   0  0  0  0  0  0  0  0  0  0  0  0
   22.3799   -6.1289  -14.7880 C   0  0  0  0  0  0  0  0  0  0  0  0
   23.0571   -6.1960  -16.1426 C   0  0  2  0  0  0  0  0  0  0  0  0
   23.4846   -7.5700  -16.4348 N   0  0  0  0  0  0  0  0  0  0  0  0
   24.2159   -5.2712  -16.0989 C   0  0  0  0  0  0  0  0  0  0  0  0
   25.3761   -5.7346  -16.0894 O   0  0  0  0  0  0  0  0  0  0  0  0
   24.0935   -3.8901  -16.0672 O   0  0  0  0  0  0  0  0  0  0  0  0
  2  1  1  0
  2  3  2  0
  4  2  1  0
  5  4  1  0
  6  5  1  0
  6  7  1  6
  8  6  1  0
  8 15  1  0
  9  8  2  0
 10 11  1  0
 11 12  1  0
 12 13  1  0
 14 13  1  6
 14 15  1  0
 16 14  1  0
 17 16  2  0
 19 18  1  1
 19 20  1  0
 19 21  1  0
 20 16  1  0
 21 23  1  0
 22 21  2  0
M  END
$$$$
