QMA.pdb
     RDKit          3D

 23 22  0  0  1  0  0  0  0  0999 V2000
   21.2039  -15.3833  -17.0551 N   0  0  0  0  0  0  0  0  0  0  0  0
   19.9763  -15.1093  -17.6981 C   0  0  0  0  0  0  0  0  0  0  0  0
   19.4249  -15.9217  -18.4637 O   0  0  0  0  0  0  0  0  0  0  0  0
   19.3445  -13.7999  -17.4347 C   0  0  0  0  0  0  0  0  0  0  0  0
   20.1097  -12.8843  -16.5525 C   0  0  0  0  0  0  0  0  0  0  0  0
   20.4497  -11.5480  -17.1184 C   0  0  2  0  0  0  0  0  0  0  0  0
   21.3827  -11.6822  -18.2467 N   0  0  0  0  0  0  0  0  0  0  0  0
   21.0410  -10.6127  -16.1166 C   0  0  0  0  0  0  0  0  0  0  0  0
   20.4831  -10.3946  -15.0213 O   0  0  0  0  0  0  0  0  0  0  0  0
   27.6042  -12.0058  -15.1703 C   0  0  0  0  0  0  0  0  0  0  0  0
   26.7684  -10.5014  -15.7407 S   0  0  0  0  0  0  0  0  0  0  0  0
   24.9821  -10.5660  -15.2770 C   0  0  0  0  0  0  0  0  0  0  0  0
   24.3976   -9.2880  -15.7302 C   0  0  0  0  0  0  0  0  0  0  0  0
   22.9433   -9.0588  -15.4820 C   0  0  2  0  0  0  0  0  0  0  0  0
   22.2462   -9.9687  -16.4141 N   0  0  0  0  0  0  0  0  0  0  0  0
   22.4651   -7.6895  -15.6321 C   0  0  0  0  0  0  0  0  0  0  0  0
   22.3718   -7.0972  -16.7541 O   0  0  0  0  0  0  0  0  0  0  0  0
   20.5874   -5.1846  -13.6008 C   0  0  0  0  0  0  0  0  0  0  0  0
   21.6040   -5.5303  -14.6708 C   0  0  2  0  0  0  0  0  0  0  0  0
   22.0622   -6.9165  -14.5142 N   0  0  0  0  0  0  0  0  0  0  0  0
   22.7291   -4.5740  -14.5307 C   0  0  0  0  0  0  0  0  0  0  0  0
   22.5265   -3.3527  -14.6990 O   0  0  0  0  0  0  0  0  0  0  0  0
   24.0249   -4.9559  -14.2168 O   0  0  0  0  0  0  0  0  0  0  0  0
  2  1  1  0
  2  3  2  0
  4  2  1  0
  5  4  1  0
  6  5  1  0
  6  7  1  6
  8  6  1  0
  8 15  1  0
  9  8  2  0
 10 11  1  0
 11 12  1  0
 12 13  1  0
 14 13  1  6
 14 15  1  0
 16 14  1  0
 17 16  2  0
 19 18  1  1
 19 20  1  0
 19 21  1  0
 20 16  1  0
 21 23  1  0
 22 21  2  0
M  END
$$$$
