QMA.pdb
     RDKit          3D

 23 22  0  0  1  0  0  0  0  0999 V2000
   25.1262  -27.5471  -15.9143 N   0  0  0  0  0  0  0  0  0  0  0  0
   25.9167  -26.8275  -16.8378 C   0  0  0  0  0  0  0  0  0  0  0  0
   26.7169  -27.3848  -17.6121 O   0  0  0  0  0  0  0  0  0  0  0  0
   25.7689  -25.3577  -16.8643 C   0  0  0  0  0  0  0  0  0  0  0  0
   24.8587  -24.7861  -15.8410 C   0  0  0  0  0  0  0  0  0  0  0  0
   24.9813  -23.3223  -15.5877 C   0  0  2  0  0  0  0  0  0  0  0  0
   26.3936  -22.9296  -15.4758 N   0  0  0  0  0  0  0  0  0  0  0  0
   24.2598  -22.8702  -14.3617 C   0  0  0  0  0  0  0  0  0  0  0  0
   23.0646  -23.1705  -14.1619 O   0  0  0  0  0  0  0  0  0  0  0  0
   26.3901  -19.6974   -7.4452 C   0  0  0  0  0  0  0  0  0  0  0  0
   26.6908  -20.3890   -9.0940 S   0  0  0  0  0  0  0  0  0  0  0  0
   25.0898  -20.5701   -9.9962 C   0  0  0  0  0  0  0  0  0  0  0  0
   25.4190  -21.2133  -11.2840 C   0  0  0  0  0  0  0  0  0  0  0  0
   24.2983  -21.4972  -12.2288 C   0  0  2  0  0  0  0  0  0  0  0  0
   24.9401  -22.0941  -13.4181 N   0  0  0  0  0  0  0  0  0  0  0  0
   23.4577  -20.3653  -12.6006 C   0  0  0  0  0  0  0  0  0  0  0  0
   22.7323  -19.7274  -11.7728 O   0  0  0  0  0  0  0  0  0  0  0  0
   23.0564  -18.1440  -15.6202 C   0  0  0  0  0  0  0  0  0  0  0  0
   22.6003  -18.7104  -14.2900 C   0  0  2  0  0  0  0  0  0  0  0  0
   23.3971  -19.8918  -13.9353 N   0  0  0  0  0  0  0  0  0  0  0  0
   21.1642  -19.0539  -14.4299 C   0  0  0  0  0  0  0  0  0  0  0  0
   20.3290  -18.1470  -14.6320 O   0  0  0  0  0  0  0  0  0  0  0  0
   20.6745  -20.3489  -14.3493 O   0  0  0  0  0  0  0  0  0  0  0  0
  2  1  1  0
  2  3  2  0
  4  2  1  0
  5  4  1  0
  6  5  1  0
  6  7  1  1
  8  6  1  0
  8 15  1  0
  9  8  2  0
 10 11  1  0
 11 12  1  0
 12 13  1  0
 14 13  1  1
 14 15  1  0
 16 14  1  0
 17 16  2  0
 19 18  1  6
 19 20  1  0
 19 21  1  0
 20 16  1  0
 21 23  1  0
 22 21  2  0
M  END
$$$$
