QMA.pdb
     RDKit          3D

 23 22  0  0  1  0  0  0  0  0999 V2000
   18.7090  -15.2853  -19.6777 N   0  0  0  0  0  0  0  0  0  0  0  0
   18.0323  -14.4417  -18.7688 C   0  0  0  0  0  0  0  0  0  0  0  0
   16.8752  -14.6749  -18.3724 O   0  0  0  0  0  0  0  0  0  0  0  0
   18.7484  -13.2428  -18.2865 C   0  0  0  0  0  0  0  0  0  0  0  0
   20.0978  -13.0257  -18.8647 C   0  0  0  0  0  0  0  0  0  0  0  0
   21.2542  -13.2405  -17.9492 C   0  0  2  0  0  0  0  0  0  0  0  0
   21.1113  -14.5081  -17.2181 N   0  0  0  0  0  0  0  0  0  0  0  0
   21.4421  -12.1367  -16.9621 C   0  0  0  0  0  0  0  0  0  0  0  0
   20.6919  -12.0146  -15.9718 O   0  0  0  0  0  0  0  0  0  0  0  0
   27.7453  -11.7353  -14.5520 C   0  0  0  0  0  0  0  0  0  0  0  0
   26.7605  -10.6203  -15.5883 S   0  0  0  0  0  0  0  0  0  0  0  0
   24.9633  -10.9726  -15.3512 C   0  0  0  0  0  0  0  0  0  0  0  0
   24.2425   -9.9886  -16.1835 C   0  0  0  0  0  0  0  0  0  0  0  0
   22.7541  -10.0862  -16.2479 C   0  0  2  0  0  0  0  0  0  0  0  0
   22.4821  -11.2216  -17.1533 N   0  0  0  0  0  0  0  0  0  0  0  0
   22.0414   -8.8899  -16.6805 C   0  0  0  0  0  0  0  0  0  0  0  0
   21.7396   -8.6523  -17.8933 O   0  0  0  0  0  0  0  0  0  0  0  0
   19.5538   -7.0726  -16.7710 C   0  0  0  0  0  0  0  0  0  0  0  0
   20.9068   -6.6968  -16.2000 C   0  0  2  0  0  0  0  0  0  0  0  0
   21.6279   -7.8969  -15.7573 N   0  0  0  0  0  0  0  0  0  0  0  0
   20.6620   -5.7697  -15.0684 C   0  0  0  0  0  0  0  0  0  0  0  0
   20.8037   -6.1758  -13.8953 O   0  0  0  0  0  0  0  0  0  0  0  0
   20.2765   -4.4474  -15.2305 O   0  0  0  0  0  0  0  0  0  0  0  0
  2  1  1  0
  2  3  2  0
  4  2  1  0
  5  4  1  0
  6  5  1  0
  6  7  1  1
  8  6  1  0
  8 15  1  0
  9  8  2  0
 10 11  1  0
 11 12  1  0
 12 13  1  0
 14 13  1  6
 14 15  1  0
 16 14  1  0
 17 16  2  0
 19 18  1  1
 19 20  1  0
 19 21  1  0
 20 16  1  0
 21 23  1  0
 22 21  2  0
M  END
$$$$
