QMA.pdb
     RDKit          3D

 23 22  0  0  1  0  0  0  0  0999 V2000
   18.2272  -17.8567  -11.8250 N   0  0  0  0  0  0  0  0  0  0  0  0
   18.2256  -19.0541  -12.5746 C   0  0  0  0  0  0  0  0  0  0  0  0
   17.7240  -20.1109  -12.1482 O   0  0  0  0  0  0  0  0  0  0  0  0
   18.8507  -19.0231  -13.9129 C   0  0  0  0  0  0  0  0  0  0  0  0
   20.3258  -18.8618  -13.9283 C   0  0  0  0  0  0  0  0  0  0  0  0
   21.1284  -20.1113  -14.0560 C   0  0  2  0  0  0  0  0  0  0  0  0
   20.6980  -21.1102  -13.0669 N   0  0  0  0  0  0  0  0  0  0  0  0
   22.5970  -19.8906  -13.9061 C   0  0  0  0  0  0  0  0  0  0  0  0
   23.1932  -19.0108  -14.5611 O   0  0  0  0  0  0  0  0  0  0  0  0
   26.1393  -19.8011   -8.2451 C   0  0  0  0  0  0  0  0  0  0  0  0
   26.2672  -21.4017   -9.0871 S   0  0  0  0  0  0  0  0  0  0  0  0
   26.3898  -21.1393  -10.9109 C   0  0  0  0  0  0  0  0  0  0  0  0
   25.0006  -21.0867  -11.4086 C   0  0  0  0  0  0  0  0  0  0  0  0
   24.7729  -20.5625  -12.7880 C   0  0  2  0  0  0  0  0  0  0  0  0
   23.3179  -20.6880  -13.0116 N   0  0  0  0  0  0  0  0  0  0  0  0
   25.5242  -21.2040  -13.8604 C   0  0  0  0  0  0  0  0  0  0  0  0
   25.5334  -22.4608  -14.0570 O   0  0  0  0  0  0  0  0  0  0  0  0
   27.7185  -20.0721  -16.7401 C   0  0  0  0  0  0  0  0  0  0  0  0
   27.0793  -21.1069  -15.8353 C   0  0  2  0  0  0  0  0  0  0  0  0
   26.3055  -20.4517  -14.7731 N   0  0  0  0  0  0  0  0  0  0  0  0
   28.1754  -21.9311  -15.2703 C   0  0  0  0  0  0  0  0  0  0  0  0
   28.5026  -21.7871  -14.0732 O   0  0  0  0  0  0  0  0  0  0  0  0
   28.8793  -22.8758  -16.0021 O   0  0  0  0  0  0  0  0  0  0  0  0
  2  1  1  0
  2  3  2  0
  4  2  1  0
  5  4  1  0
  6  5  1  0
  6  7  1  1
  8  6  1  0
  8 15  1  0
  9  8  2  0
 10 11  1  0
 11 12  1  0
 12 13  1  0
 14 13  1  1
 14 15  1  0
 16 14  1  0
 17 16  2  0
 19 18  1  6
 19 20  1  0
 19 21  1  0
 20 16  1  0
 21 23  1  0
 22 21  2  0
M  END
$$$$
