QMA.pdb
     RDKit          3D

 23 22  0  0  1  0  0  0  0  0999 V2000
   16.5797  -13.0305  -16.1755 N   0  0  0  0  0  0  0  0  0  0  0  0
   17.0273  -13.6003  -17.3882 C   0  0  0  0  0  0  0  0  0  0  0  0
   16.3129  -14.3489  -18.0807 O   0  0  0  0  0  0  0  0  0  0  0  0
   18.4008  -13.2794  -17.8278 C   0  0  0  0  0  0  0  0  0  0  0  0
   19.1766  -12.4003  -16.9182 C   0  0  0  0  0  0  0  0  0  0  0  0
   20.5941  -12.1386  -17.2976 C   0  0  2  0  0  0  0  0  0  0  0  0
   21.3324  -13.4002  -17.4553 N   0  0  0  0  0  0  0  0  0  0  0  0
   21.3208  -11.2774  -16.3187 C   0  0  0  0  0  0  0  0  0  0  0  0
   21.3958  -11.5852  -15.1112 O   0  0  0  0  0  0  0  0  0  0  0  0
   26.4753  -10.7301  -14.0955 C   0  0  0  0  0  0  0  0  0  0  0  0
   26.4543  -10.2943  -15.8553 S   0  0  0  0  0  0  0  0  0  0  0  0
   24.7530  -10.5256  -16.5351 C   0  0  0  0  0  0  0  0  0  0  0  0
   24.0864   -9.2132  -16.4184 C   0  0  0  0  0  0  0  0  0  0  0  0
   22.6894   -9.1844  -15.8922 C   0  0  2  0  0  0  0  0  0  0  0  0
   21.9302  -10.1013  -16.7671 N   0  0  0  0  0  0  0  0  0  0  0  0
   22.0473   -7.8772  -15.8215 C   0  0  0  0  0  0  0  0  0  0  0  0
   21.7814   -7.1692  -16.8444 O   0  0  0  0  0  0  0  0  0  0  0  0
   20.1027   -5.9230  -13.2947 C   0  0  0  0  0  0  0  0  0  0  0  0
   20.9891   -6.0012  -14.5219 C   0  0  2  0  0  0  0  0  0  0  0  0
   21.6674   -7.3021  -14.5827 N   0  0  0  0  0  0  0  0  0  0  0  0
   21.9670   -4.8900  -14.4270 C   0  0  0  0  0  0  0  0  0  0  0  0
   23.1570   -5.1374  -14.1375 O   0  0  0  0  0  0  0  0  0  0  0  0
   21.6394   -3.5601  -14.6441 O   0  0  0  0  0  0  0  0  0  0  0  0
  2  1  1  0
  2  3  2  0
  4  2  1  0
  5  4  1  0
  6  5  1  0
  6  7  1  1
  8  6  1  0
  8 15  1  0
  9  8  2  0
 10 11  1  0
 11 12  1  0
 12 13  1  0
 14 13  1  6
 14 15  1  0
 16 14  1  0
 17 16  2  0
 19 18  1  1
 19 20  1  0
 19 21  1  0
 20 16  1  0
 21 23  1  0
 22 21  2  0
M  END
$$$$
