QMA.pdb
     RDKit          3D

 23 22  0  0  1  0  0  0  0  0999 V2000
   12.8453   -9.7328  -14.9674 N   0  0  0  0  0  0  0  0  0  0  0  0
   13.3636  -10.7673  -15.7778 C   0  0  0  0  0  0  0  0  0  0  0  0
   12.7208  -11.2662  -16.7202 O   0  0  0  0  0  0  0  0  0  0  0  0
   14.7234  -11.2580  -15.4725 C   0  0  0  0  0  0  0  0  0  0  0  0
   15.3855  -10.6274  -14.3037 C   0  0  0  0  0  0  0  0  0  0  0  0
   16.8259  -10.2796  -14.4651 C   0  0  2  0  0  0  0  0  0  0  0  0
   17.6277  -11.4855  -14.7190 N   0  0  0  0  0  0  0  0  0  0  0  0
   17.3984   -9.5629  -13.2876 C   0  0  0  0  0  0  0  0  0  0  0  0
   17.7345  -10.1755  -12.2531 O   0  0  0  0  0  0  0  0  0  0  0  0
   21.7427   -5.5781  -13.9379 C   0  0  0  0  0  0  0  0  0  0  0  0
   21.3958   -5.4551  -12.1626 S   0  0  0  0  0  0  0  0  0  0  0  0
   19.5717   -5.3681  -11.8879 C   0  0  0  0  0  0  0  0  0  0  0  0
   18.9759   -6.3729  -12.7911 C   0  0  0  0  0  0  0  0  0  0  0  0
   18.0101   -7.3505  -12.2072 C   0  0  2  0  0  0  0  0  0  0  0  0
   17.5611   -8.1752  -13.3478 N   0  0  0  0  0  0  0  0  0  0  0  0
   16.8728   -6.7908  -11.4866 C   0  0  0  0  0  0  0  0  0  0  0  0
   15.9703   -6.0844  -12.0388 O   0  0  0  0  0  0  0  0  0  0  0  0
   15.5252   -6.8968   -7.9453 C   0  0  0  0  0  0  0  0  0  0  0  0
   15.6120   -6.3473   -9.3555 C   0  0  2  0  0  0  0  0  0  0  0  0
   16.6951   -7.0058  -10.0968 N   0  0  0  0  0  0  0  0  0  0  0  0
   15.8491   -4.8875   -9.2426 C   0  0  0  0  0  0  0  0  0  0  0  0
   14.9530   -4.1501   -8.7797 O   0  0  0  0  0  0  0  0  0  0  0  0
   17.0306   -4.2710   -9.6265 O   0  0  0  0  0  0  0  0  0  0  0  0
  2  1  1  0
  2  3  2  0
  4  2  1  0
  5  4  1  0
  6  5  1  0
  6  7  1  1
  8  6  1  0
  8 15  1  0
  9  8  2  0
 10 11  1  0
 11 12  1  0
 12 13  1  0
 14 13  1  6
 14 15  1  0
 16 14  1  0
 17 16  2  0
 19 18  1  1
 19 20  1  0
 19 21  1  0
 20 16  1  0
 21 23  1  0
 22 21  2  0
M  END
$$$$
