QMA.pdb
     RDKit          3D

 23 22  0  0  1  0  0  0  0  0999 V2000
   18.8324  -14.7346  -16.6079 N   0  0  0  0  0  0  0  0  0  0  0  0
   18.8457  -14.9944  -17.9964 C   0  0  0  0  0  0  0  0  0  0  0  0
   17.9163  -15.5863  -18.5763 O   0  0  0  0  0  0  0  0  0  0  0  0
   20.0205  -14.5358  -18.7661 C   0  0  0  0  0  0  0  0  0  0  0  0
   21.0588  -13.8187  -17.9852 C   0  0  0  0  0  0  0  0  0  0  0  0
   21.1838  -12.3546  -18.2354 C   0  0  2  0  0  0  0  0  0  0  0  0
   21.9987  -12.0983  -19.4320 N   0  0  0  0  0  0  0  0  0  0  0  0
   21.7712  -11.6046  -17.0862 C   0  0  0  0  0  0  0  0  0  0  0  0
   21.2653  -11.6599  -15.9462 O   0  0  0  0  0  0  0  0  0  0  0  0
   27.3715  -12.0645  -15.2563 C   0  0  0  0  0  0  0  0  0  0  0  0
   27.5107  -10.2725  -15.4943 S   0  0  0  0  0  0  0  0  0  0  0  0
   25.8404   -9.4948  -15.3687 C   0  0  0  0  0  0  0  0  0  0  0  0
   24.9538  -10.2924  -16.2396 C   0  0  0  0  0  0  0  0  0  0  0  0
   23.5028   -9.9415  -16.2669 C   0  0  2  0  0  0  0  0  0  0  0  0
   22.9131  -10.8246  -17.2941 N   0  0  0  0  0  0  0  0  0  0  0  0
   23.1757   -8.5446  -16.5277 C   0  0  0  0  0  0  0  0  0  0  0  0
   23.3779   -7.9730  -17.6461 O   0  0  0  0  0  0  0  0  0  0  0  0
   20.9129   -6.1692  -16.4115 C   0  0  0  0  0  0  0  0  0  0  0  0
   22.2908   -6.3069  -15.7948 C   0  0  2  0  0  0  0  0  0  0  0  0
   22.5963   -7.7189  -15.5318 N   0  0  0  0  0  0  0  0  0  0  0  0
   22.2899   -5.5154  -14.5404 C   0  0  0  0  0  0  0  0  0  0  0  0
   22.2388   -6.1031  -13.4391 O   0  0  0  0  0  0  0  0  0  0  0  0
   22.3436   -4.1299  -14.5083 O   0  0  0  0  0  0  0  0  0  0  0  0
  2  1  1  0
  2  3  2  0
  4  2  1  0
  5  4  1  0
  6  5  1  0
  6  7  1  6
  8  6  1  0
  8 15  1  0
  9  8  2  0
 10 11  1  0
 11 12  1  0
 12 13  1  0
 14 13  1  6
 14 15  1  0
 16 14  1  0
 17 16  2  0
 19 18  1  1
 19 20  1  0
 19 21  1  0
 20 16  1  0
 21 23  1  0
 22 21  2  0
M  END
$$$$
