NPM.pdb
     RDKit          3D

 24 24  0  0  1  0  0  0  0  0999 V2000
    8.9949  -20.5624   17.6643 N   0  0  0  0  0  0  0  0  0  0  0  0
    9.4389  -20.0858   18.9082 C   0  0  0  0  0  0  0  0  0  0  0  0
   10.2876  -20.7487   19.5482 O   0  0  0  0  0  0  0  0  0  0  0  0
    8.9324  -18.8353   19.4735 C   0  0  0  0  0  0  0  0  0  0  0  0
    9.5804  -17.5804   18.9584 C   0  0  2  0  0  0  0  0  0  0  0  0
   10.9315  -17.7913   18.4945 N   0  0  0  0  0  0  0  0  0  0  0  0
    9.5721  -16.5118   19.9992 C   0  0  0  0  0  0  0  0  0  0  0  0
   10.7575  -16.2615   20.4514 O   0  0  0  0  0  0  0  0  0  0  0  0
    8.4536  -15.8179   20.4826 N   0  0  0  0  0  0  0  0  0  0  0  0
    7.0855  -15.9877   20.1720 C   0  0  0  0  0  0  0  0  0  0  0  0
    6.5161  -14.5763   20.1978 C   0  0  0  0  0  0  0  0  0  0  0  0
    7.5355  -13.7713   20.9591 C   0  0  0  0  0  0  0  0  0  0  0  0
    8.5395  -14.7673   21.4785 C   0  0  1  0  0  0  0  0  0  0  0  0
    8.1428  -15.3669   22.7886 C   0  0  0  0  0  0  0  0  0  0  0  0
    7.8515  -16.6083   22.8976 O   0  0  0  0  0  0  0  0  0  0  0  0
    5.9079  -10.8031   27.2446 C   0  0  0  0  0  0  0  0  0  0  0  0
    6.7759  -12.2950   27.7279 S   0  0  0  0  0  0  0  0  0  0  0  0
    6.8325  -13.5473   26.4212 C   0  0  0  0  0  0  0  0  0  0  0  0
    8.1355  -14.2876   26.4258 C   0  0  0  0  0  0  0  0  0  0  0  0
    8.2498  -15.2593   25.2756 C   0  0  2  0  0  0  0  0  0  0  0  0
    8.0572  -14.6177   23.9999 N   0  0  0  0  0  0  0  0  0  0  0  0
    7.1611  -16.2830   25.4476 C   0  0  0  0  0  0  0  0  0  0  0  0
    6.0415  -16.1784   24.6448 O   0  0  0  0  0  0  0  0  0  0  0  0
    7.2446  -17.2024   26.2784 O   0  0  0  0  0  0  0  0  0  0  0  0
  2  3  2  0
  2  1  1  0
  4  2  1  0
  5  7  1  0
  5  4  1  0
  5  6  1  1
  7  8  2  0
  9  7  1  0
 10  9  1  0
 11 12  1  0
 11 10  1  0
 12 13  1  0
 13  9  1  0
 13 14  1  1
 14 21  1  0
 15 14  2  0
 17 16  1  0
 18 19  1  0
 18 17  1  0
 20 19  1  1
 20 22  1  0
 21 20  1  0
 22 24  2  0
 22 23  1  0
M  END
$$$$
