NPM.pdb
     RDKit          3D

 24 24  0  0  1  0  0  0  0  0999 V2000
   12.8033  -16.2156   16.4179 N   0  0  0  0  0  0  0  0  0  0  0  0
   12.2171  -16.9401   17.4682 C   0  0  0  0  0  0  0  0  0  0  0  0
   12.1218  -18.1855   17.3718 O   0  0  0  0  0  0  0  0  0  0  0  0
   11.7143  -16.2743   18.6698 C   0  0  0  0  0  0  0  0  0  0  0  0
   11.7752  -14.7723   18.6535 C   0  0  2  0  0  0  0  0  0  0  0  0
   13.1257  -14.2614   18.6393 N   0  0  0  0  0  0  0  0  0  0  0  0
   11.0371  -14.1975   19.8153 C   0  0  0  0  0  0  0  0  0  0  0  0
   11.8362  -13.7505   20.7286 O   0  0  0  0  0  0  0  0  0  0  0  0
    9.6459  -14.1181   19.9716 N   0  0  0  0  0  0  0  0  0  0  0  0
    8.6168  -14.5905   19.1262 C   0  0  0  0  0  0  0  0  0  0  0  0
    7.5196  -13.5425   19.2479 C   0  0  0  0  0  0  0  0  0  0  0  0
    7.8573  -12.7858   20.5049 C   0  0  0  0  0  0  0  0  0  0  0  0
    9.0090  -13.5269   21.1326 C   0  0  1  0  0  0  0  0  0  0  0  0
    8.5689  -14.6501   22.0148 C   0  0  0  0  0  0  0  0  0  0  0  0
    8.7897  -15.8722   21.7058 O   0  0  0  0  0  0  0  0  0  0  0  0
    4.8840  -11.8678   27.3590 C   0  0  0  0  0  0  0  0  0  0  0  0
    6.5432  -12.5342   27.2336 S   0  0  0  0  0  0  0  0  0  0  0  0
    6.7800  -13.6027   25.7909 C   0  0  0  0  0  0  0  0  0  0  0  0
    8.2160  -14.0007   25.6318 C   0  0  0  0  0  0  0  0  0  0  0  0
    8.4243  -14.9584   24.4830 C   0  0  2  0  0  0  0  0  0  0  0  0
    7.8790  -14.4540   23.2483 N   0  0  0  0  0  0  0  0  0  0  0  0
    7.6961  -16.2293   24.8252 C   0  0  0  0  0  0  0  0  0  0  0  0
    8.2673  -17.0710   25.7602 O   0  0  0  0  0  0  0  0  0  0  0  0
    6.6138  -16.5329   24.2970 O   0  0  0  0  0  0  0  0  0  0  0  0
  2  3  2  0
  2  1  1  0
  4  2  1  0
  5  7  1  0
  5  4  1  0
  5  6  1  1
  7  8  2  0
  9  7  1  0
 10  9  1  0
 11 12  1  0
 11 10  1  0
 12 13  1  0
 13  9  1  0
 13 14  1  1
 14 21  1  0
 15 14  2  0
 17 16  1  0
 18 19  1  0
 18 17  1  0
 20 19  1  1
 20 22  1  0
 21 20  1  0
 22 24  2  0
 22 23  1  0
M  END
$$$$
