NPM.pdb
     RDKit          3D

 24 24  0  0  1  0  0  0  0  0999 V2000
    7.7821  -18.6230   18.0692 N   0  0  0  0  0  0  0  0  0  0  0  0
    8.8480  -18.1065   18.8233 C   0  0  0  0  0  0  0  0  0  0  0  0
    8.7353  -18.0331   20.0688 O   0  0  0  0  0  0  0  0  0  0  0  0
   10.0846  -17.6512   18.1882 C   0  0  0  0  0  0  0  0  0  0  0  0
   10.2064  -16.1653   17.9948 C   0  0  2  0  0  0  0  0  0  0  0  0
   11.4478  -15.7768   17.3679 N   0  0  0  0  0  0  0  0  0  0  0  0
   10.0573  -15.4461   19.2931 C   0  0  0  0  0  0  0  0  0  0  0  0
   11.1807  -15.3417   19.9252 O   0  0  0  0  0  0  0  0  0  0  0  0
    8.8744  -14.9199   19.8316 N   0  0  0  0  0  0  0  0  0  0  0  0
    7.5425  -15.0514   19.3782 C   0  0  0  0  0  0  0  0  0  0  0  0
    6.9055  -13.7038   19.6865 C   0  0  0  0  0  0  0  0  0  0  0  0
    7.8265  -13.0725   20.6964 C   0  0  0  0  0  0  0  0  0  0  0  0
    8.8366  -14.1332   21.0493 C   0  0  1  0  0  0  0  0  0  0  0  0
    8.3744  -15.0378   22.1454 C   0  0  0  0  0  0  0  0  0  0  0  0
    8.4861  -16.3096   22.0578 O   0  0  0  0  0  0  0  0  0  0  0  0
    6.1679  -10.3417   26.7564 C   0  0  0  0  0  0  0  0  0  0  0  0
    6.1056  -12.1185   26.5288 S   0  0  0  0  0  0  0  0  0  0  0  0
    7.6543  -12.8162   25.9012 C   0  0  0  0  0  0  0  0  0  0  0  0
    7.5762  -14.3080   25.7814 C   0  0  0  0  0  0  0  0  0  0  0  0
    8.3959  -14.8369   24.6288 C   0  0  2  0  0  0  0  0  0  0  0  0
    7.7814  -14.5654   23.3542 N   0  0  0  0  0  0  0  0  0  0  0  0
    8.4824  -16.3297   24.7920 C   0  0  0  0  0  0  0  0  0  0  0  0
    9.3236  -16.8265   25.7689 O   0  0  0  0  0  0  0  0  0  0  0  0
    7.8270  -17.1106   24.0826 O   0  0  0  0  0  0  0  0  0  0  0  0
  2  3  2  0
  2  1  1  0
  4  2  1  0
  5  7  1  0
  5  4  1  0
  5  6  1  1
  7  8  2  0
  9  7  1  0
 10  9  1  0
 11 12  1  0
 11 10  1  0
 12 13  1  0
 13  9  1  0
 13 14  1  1
 14 21  1  0
 15 14  2  0
 17 16  1  0
 18 19  1  0
 18 17  1  0
 20 19  1  1
 20 22  1  0
 21 20  1  0
 22 24  2  0
 22 23  1  0
M  END
$$$$
