NPM.pdb
     RDKit          3D

 24 24  0  0  1  0  0  0  0  0999 V2000
    7.8865  -19.4012   20.4670 N   0  0  0  0  0  0  0  0  0  0  0  0
    6.6040  -18.8577   20.2896 C   0  0  0  0  0  0  0  0  0  0  0  0
    5.6430  -19.3387   20.9333 O   0  0  0  0  0  0  0  0  0  0  0  0
    6.3649  -17.7454   19.3702 C   0  0  0  0  0  0  0  0  0  0  0  0
    7.5843  -17.1979   18.6823 C   0  0  2  0  0  0  0  0  0  0  0  0
    8.4214  -18.2269   18.1118 N   0  0  0  0  0  0  0  0  0  0  0  0
    8.3911  -16.3606   19.6167 C   0  0  0  0  0  0  0  0  0  0  0  0
    9.5036  -16.9313   19.9470 O   0  0  0  0  0  0  0  0  0  0  0  0
    8.0496  -15.0979   20.1221 N   0  0  0  0  0  0  0  0  0  0  0  0
    6.8401  -14.3772   20.0016 C   0  0  0  0  0  0  0  0  0  0  0  0
    7.2781  -12.9238   19.8891 C   0  0  0  0  0  0  0  0  0  0  0  0
    8.6939  -12.9149   20.4012 C   0  0  0  0  0  0  0  0  0  0  0  0
    8.9442  -14.3000   20.9383 C   0  0  1  0  0  0  0  0  0  0  0  0
    8.5093  -14.4627   22.3588 C   0  0  0  0  0  0  0  0  0  0  0  0
    7.2779  -14.6195   22.6697 O   0  0  0  0  0  0  0  0  0  0  0  0
    6.0639  -11.2192   27.4791 C   0  0  0  0  0  0  0  0  0  0  0  0
    6.3813  -12.0957   25.9482 S   0  0  0  0  0  0  0  0  0  0  0  0
    7.0236  -13.7700   26.1999 C   0  0  0  0  0  0  0  0  0  0  0  0
    7.4359  -14.4008   24.9045 C   0  0  0  0  0  0  0  0  0  0  0  0
    8.9298  -14.5998   24.8108 C   0  0  2  0  0  0  0  0  0  0  0  0
    9.4146  -14.4550   23.4617 N   0  0  0  0  0  0  0  0  0  0  0  0
    9.2206  -16.0062   25.2583 C   0  0  0  0  0  0  0  0  0  0  0  0
    9.8558  -16.8505   24.3680 O   0  0  0  0  0  0  0  0  0  0  0  0
    8.9091  -16.4173   26.3881 O   0  0  0  0  0  0  0  0  0  0  0  0
  2  3  2  0
  2  1  1  0
  4  2  1  0
  5  7  1  0
  5  4  1  0
  5  6  1  1
  7  8  2  0
  9  7  1  0
 10  9  1  0
 11 12  1  0
 11 10  1  0
 12 13  1  0
 13  9  1  0
 13 14  1  1
 14 21  1  0
 15 14  2  0
 17 16  1  0
 18 19  1  0
 18 17  1  0
 20 19  1  6
 20 22  1  0
 21 20  1  0
 22 24  2  0
 22 23  1  0
M  END
$$$$
