NPM.pdb
     RDKit          3D

 24 24  0  0  1  0  0  0  0  0999 V2000
    9.4926  -19.9481   18.9342 N   0  0  0  0  0  0  0  0  0  0  0  0
   10.1402  -19.9696   20.1799 C   0  0  0  0  0  0  0  0  0  0  0  0
   10.2552  -21.0581   20.7892 O   0  0  0  0  0  0  0  0  0  0  0  0
   10.6813  -18.7513   20.7822 C   0  0  0  0  0  0  0  0  0  0  0  0
   10.4181  -17.4800   20.0241 C   0  0  2  0  0  0  0  0  0  0  0  0
   11.5361  -17.0660   19.2093 N   0  0  0  0  0  0  0  0  0  0  0  0
   10.0423  -16.3750   20.9528 C   0  0  0  0  0  0  0  0  0  0  0  0
   11.0694  -15.6900   21.3377 O   0  0  0  0  0  0  0  0  0  0  0  0
    8.7527  -16.0566   21.4022 N   0  0  0  0  0  0  0  0  0  0  0  0
    7.5214  -16.6940   21.1293 C   0  0  0  0  0  0  0  0  0  0  0  0
    6.5154  -15.5540   21.0587 C   0  0  0  0  0  0  0  0  0  0  0  0
    7.2029  -14.4004   21.7393 C   0  0  0  0  0  0  0  0  0  0  0  0
    8.4763  -14.9637   22.3145 C   0  0  1  0  0  0  0  0  0  0  0  0
    8.2901  -15.5585   23.6728 C   0  0  0  0  0  0  0  0  0  0  0  0
    8.3340  -16.8232   23.8633 O   0  0  0  0  0  0  0  0  0  0  0  0
    5.5692  -11.8303   27.1573 C   0  0  0  0  0  0  0  0  0  0  0  0
    7.0760  -12.0120   26.2037 S   0  0  0  0  0  0  0  0  0  0  0  0
    8.3917  -12.8763   27.0988 C   0  0  0  0  0  0  0  0  0  0  0  0
    8.0848  -14.3351   27.2526 C   0  0  0  0  0  0  0  0  0  0  0  0
    8.6250  -15.1608   26.1095 C   0  0  2  0  0  0  0  0  0  0  0  0
    8.0516  -14.7792   24.8440 N   0  0  0  0  0  0  0  0  0  0  0  0
    8.2463  -16.5920   26.3762 C   0  0  0  0  0  0  0  0  0  0  0  0
    7.1973  -17.1291   25.6551 O   0  0  0  0  0  0  0  0  0  0  0  0
    8.8440  -17.2882   27.2132 O   0  0  0  0  0  0  0  0  0  0  0  0
  2  3  2  0
  2  1  1  0
  4  2  1  0
  5  7  1  0
  5  4  1  0
  5  6  1  1
  7  8  2  0
  9  7  1  0
 10  9  1  0
 11 12  1  0
 11 10  1  0
 12 13  1  0
 13  9  1  0
 13 14  1  1
 14 21  1  0
 15 14  2  0
 17 16  1  0
 18 19  1  0
 18 17  1  0
 20 19  1  1
 20 22  1  0
 21 20  1  0
 22 24  2  0
 22 23  1  0
M  END
$$$$
