NPM.pdb
     RDKit          3D

 24 24  0  0  1  0  0  0  0  0999 V2000
    3.0841  -19.2482   21.9594 N   0  0  0  0  0  0  0  0  0  0  0  0
    3.4697  -18.1713   21.1451 C   0  0  0  0  0  0  0  0  0  0  0  0
    2.6995  -17.7886   20.2342 O   0  0  0  0  0  0  0  0  0  0  0  0
    4.7493  -17.4883   21.3348 C   0  0  0  0  0  0  0  0  0  0  0  0
    5.7670  -17.7028   20.2493 C   0  0  2  0  0  0  0  0  0  0  0  0
    6.0249  -19.0986   19.9841 N   0  0  0  0  0  0  0  0  0  0  0  0
    7.0482  -17.0131   20.5777 C   0  0  0  0  0  0  0  0  0  0  0  0
    7.9897  -17.8480   20.8761 O   0  0  0  0  0  0  0  0  0  0  0  0
    7.2804  -15.6302   20.5861 N   0  0  0  0  0  0  0  0  0  0  0  0
    6.4135  -14.5699   20.2381 C   0  0  0  0  0  0  0  0  0  0  0  0
    7.3228  -13.5408   19.5816 C   0  0  0  0  0  0  0  0  0  0  0  0
    8.7106  -13.9308   20.0160 C   0  0  0  0  0  0  0  0  0  0  0  0
    8.5293  -15.0367   21.0230 C   0  0  1  0  0  0  0  0  0  0  0  0
    8.3156  -14.5311   22.4130 C   0  0  0  0  0  0  0  0  0  0  0  0
    7.5180  -13.5610   22.6590 O   0  0  0  0  0  0  0  0  0  0  0  0
    6.3696  -11.8388   28.0965 C   0  0  0  0  0  0  0  0  0  0  0  0
    6.9104  -12.5535   26.5442 S   0  0  0  0  0  0  0  0  0  0  0  0
    6.6652  -14.3454   26.4555 C   0  0  0  0  0  0  0  0  0  0  0  0
    7.1073  -14.8956   25.1334 C   0  0  0  0  0  0  0  0  0  0  0  0
    8.5818  -14.6841   24.8856 C   0  0  2  0  0  0  0  0  0  0  0  0
    8.9721  -15.0780   23.5557 N   0  0  0  0  0  0  0  0  0  0  0  0
    9.3264  -15.5524   25.8625 C   0  0  0  0  0  0  0  0  0  0  0  0
   10.0077  -16.6473   25.3667 O   0  0  0  0  0  0  0  0  0  0  0  0
    9.3427  -15.3116   27.0808 O   0  0  0  0  0  0  0  0  0  0  0  0
  2  3  2  0
  2  1  1  0
  4  2  1  0
  5  7  1  0
  5  4  1  0
  5  6  1  1
  7  8  2  0
  9  7  1  0
 10  9  1  0
 11 12  1  0
 11 10  1  0
 12 13  1  0
 13  9  1  0
 13 14  1  1
 14 21  1  0
 15 14  2  0
 17 16  1  0
 18 19  1  0
 18 17  1  0
 20 19  1  6
 20 22  1  0
 21 20  1  0
 22 24  2  0
 22 23  1  0
M  END
$$$$
