NPM.pdb
     RDKit          3D

 24 24  0  0  1  0  0  0  0  0999 V2000
    7.9735  -20.3203   18.6280 N   0  0  0  0  0  0  0  0  0  0  0  0
    7.1774  -19.7769   19.6490 C   0  0  0  0  0  0  0  0  0  0  0  0
    6.4342  -20.5361   20.3128 O   0  0  0  0  0  0  0  0  0  0  0  0
    7.1949  -18.3463   19.9535 C   0  0  0  0  0  0  0  0  0  0  0  0
    8.2089  -17.5338   19.1973 C   0  0  2  0  0  0  0  0  0  0  0  0
    9.2246  -18.3431   18.5660 N   0  0  0  0  0  0  0  0  0  0  0  0
    8.8561  -16.5279   20.0886 C   0  0  0  0  0  0  0  0  0  0  0  0
   10.0976  -16.8071   20.3193 O   0  0  0  0  0  0  0  0  0  0  0  0
    8.2553  -15.3920   20.6499 N   0  0  0  0  0  0  0  0  0  0  0  0
    6.9101  -14.9632   20.5907 C   0  0  0  0  0  0  0  0  0  0  0  0
    7.0021  -13.4455   20.5195 C   0  0  0  0  0  0  0  0  0  0  0  0
    8.3965  -13.1288   20.9909 C   0  0  0  0  0  0  0  0  0  0  0  0
    8.9742  -14.4354   21.4691 C   0  0  1  0  0  0  0  0  0  0  0  0
    8.6394  -14.7349   22.8945 C   0  0  0  0  0  0  0  0  0  0  0  0
    7.4807  -15.1562   23.2373 O   0  0  0  0  0  0  0  0  0  0  0  0
    5.2603  -11.8353   26.6738 C   0  0  0  0  0  0  0  0  0  0  0  0
    6.9976  -11.9974   27.0842 S   0  0  0  0  0  0  0  0  0  0  0  0
    7.9895  -12.6989   25.7415 C   0  0  0  0  0  0  0  0  0  0  0  0
    7.8721  -14.1922   25.6939 C   0  0  0  0  0  0  0  0  0  0  0  0
    9.1747  -14.8608   25.3246 C   0  0  2  0  0  0  0  0  0  0  0  0
    9.5665  -14.5769   23.9675 N   0  0  0  0  0  0  0  0  0  0  0  0
    8.9626  -16.3453   25.4439 C   0  0  0  0  0  0  0  0  0  0  0  0
    8.0179  -16.9321   24.6242 O   0  0  0  0  0  0  0  0  0  0  0  0
    9.6055  -17.0417   26.2466 O   0  0  0  0  0  0  0  0  0  0  0  0
  2  3  2  0
  2  1  1  0
  4  2  1  0
  5  7  1  0
  5  4  1  0
  5  6  1  1
  7  8  2  0
  9  7  1  0
 10  9  1  0
 11 12  1  0
 11 10  1  0
 12 13  1  0
 13  9  1  0
 13 14  1  1
 14 21  1  0
 15 14  2  0
 17 16  1  0
 18 19  1  0
 18 17  1  0
 20 19  1  6
 20 22  1  0
 21 20  1  0
 22 24  2  0
 22 23  1  0
M  END
$$$$
