NPM.pdb
     RDKit          3D

 24 24  0  0  1  0  0  0  0  0999 V2000
    6.4897  -17.3048   23.8889 N   0  0  0  0  0  0  0  0  0  0  0  0
    6.2113  -18.6745   23.7545 C   0  0  0  0  0  0  0  0  0  0  0  0
    5.8541  -19.3265   24.7627 O   0  0  0  0  0  0  0  0  0  0  0  0
    6.3303  -19.3566   22.4659 C   0  0  0  0  0  0  0  0  0  0  0  0
    6.6433  -18.4735   21.2902 C   0  0  2  0  0  0  0  0  0  0  0  0
    6.8843  -19.2148   20.0747 N   0  0  0  0  0  0  0  0  0  0  0  0
    7.8153  -17.5974   21.5802 C   0  0  0  0  0  0  0  0  0  0  0  0
    8.9331  -18.2459   21.5328 O   0  0  0  0  0  0  0  0  0  0  0  0
    7.7874  -16.2277   21.8790 N   0  0  0  0  0  0  0  0  0  0  0  0
    6.7390  -15.4436   22.4109 C   0  0  0  0  0  0  0  0  0  0  0  0
    6.8830  -14.0992   21.7119 C   0  0  0  0  0  0  0  0  0  0  0  0
    8.2850  -14.1067   21.1632 C   0  0  0  0  0  0  0  0  0  0  0  0
    8.9318  -15.3535   21.7081 C   0  0  1  0  0  0  0  0  0  0  0  0
    9.5400  -15.1531   23.0584 C   0  0  0  0  0  0  0  0  0  0  0  0
   10.4651  -14.2913   23.2565 O   0  0  0  0  0  0  0  0  0  0  0  0
    5.4729  -12.2028   26.8267 C   0  0  0  0  0  0  0  0  0  0  0  0
    7.2219  -12.5586   26.9916 S   0  0  0  0  0  0  0  0  0  0  0  0
    7.7094  -14.1285   26.2322 C   0  0  0  0  0  0  0  0  0  0  0  0
    9.1814  -14.1707   25.9542 C   0  0  0  0  0  0  0  0  0  0  0  0
    9.6461  -15.5395   25.5176 C   0  0  2  0  0  0  0  0  0  0  0  0
    9.1467  -15.8933   24.2131 N   0  0  0  0  0  0  0  0  0  0  0  0
    9.0992  -16.5319   26.5070 C   0  0  0  0  0  0  0  0  0  0  0  0
    8.1837  -17.4615   26.0527 O   0  0  0  0  0  0  0  0  0  0  0  0
    9.4458  -16.5347   27.6996 O   0  0  0  0  0  0  0  0  0  0  0  0
  2  3  2  0
  2  1  1  0
  4  2  1  0
  5  7  1  0
  5  4  1  0
  5  6  1  6
  7  8  2  0
  9  7  1  0
 10  9  1  0
 11 12  1  0
 11 10  1  0
 12 13  1  0
 13  9  1  0
 13 14  1  1
 14 21  1  0
 15 14  2  0
 17 16  1  0
 18 19  1  0
 18 17  1  0
 20 19  1  1
 20 22  1  0
 21 20  1  0
 22 24  2  0
 22 23  1  0
M  END
$$$$
