NPM.pdb
     RDKit          3D

 24 24  0  0  1  0  0  0  0  0999 V2000
   10.0179  -19.8385   22.9263 N   0  0  0  0  0  0  0  0  0  0  0  0
   10.7351  -19.6594   21.7326 C   0  0  0  0  0  0  0  0  0  0  0  0
   11.9846  -19.7484   21.7521 O   0  0  0  0  0  0  0  0  0  0  0  0
   10.0576  -19.3700   20.4689 C   0  0  0  0  0  0  0  0  0  0  0  0
   10.5027  -18.1183   19.7653 C   0  0  2  0  0  0  0  0  0  0  0  0
   11.9276  -18.0755   19.5350 N   0  0  0  0  0  0  0  0  0  0  0  0
   10.0839  -16.9042   20.5240 C   0  0  0  0  0  0  0  0  0  0  0  0
   11.0955  -16.2009   20.9169 O   0  0  0  0  0  0  0  0  0  0  0  0
    8.7713  -16.5078   20.8179 N   0  0  0  0  0  0  0  0  0  0  0  0
    7.5619  -17.2255   20.6793 C   0  0  0  0  0  0  0  0  0  0  0  0
    6.5455  -16.1724   20.2613 C   0  0  0  0  0  0  0  0  0  0  0  0
    7.1867  -14.8610   20.6299 C   0  0  0  0  0  0  0  0  0  0  0  0
    8.4399  -15.2159   21.3872 C   0  0  1  0  0  0  0  0  0  0  0  0
    8.2001  -15.4250   22.8474 C   0  0  0  0  0  0  0  0  0  0  0  0
    8.6969  -16.4250   23.4725 O   0  0  0  0  0  0  0  0  0  0  0  0
    6.6603  -10.3841   28.1766 C   0  0  0  0  0  0  0  0  0  0  0  0
    5.9277  -11.9954   27.8943 S   0  0  0  0  0  0  0  0  0  0  0  0
    7.0755  -13.1861   27.1567 C   0  0  0  0  0  0  0  0  0  0  0  0
    6.9165  -13.2527   25.6680 C   0  0  0  0  0  0  0  0  0  0  0  0
    7.6507  -14.4250   25.0623 C   0  0  2  0  0  0  0  0  0  0  0  0
    7.4118  -14.5441   23.6464 N   0  0  0  0  0  0  0  0  0  0  0  0
    7.1271  -15.6693   25.7260 C   0  0  0  0  0  0  0  0  0  0  0  0
    7.7746  -16.1191   26.8606 O   0  0  0  0  0  0  0  0  0  0  0  0
    6.1448  -16.2889   25.2859 O   0  0  0  0  0  0  0  0  0  0  0  0
  2  3  2  0
  2  1  1  0
  4  2  1  0
  5  7  1  0
  5  4  1  0
  5  6  1  1
  7  8  2  0
  9  7  1  0
 10  9  1  0
 11 12  1  0
 11 10  1  0
 12 13  1  0
 13  9  1  0
 13 14  1  1
 14 21  1  0
 15 14  2  0
 17 16  1  0
 18 19  1  0
 18 17  1  0
 20 19  1  1
 20 22  1  0
 21 20  1  0
 22 24  2  0
 22 23  1  0
M  END
$$$$
