NPM.pdb
     RDKit          3D

 24 24  0  0  1  0  0  0  0  0999 V2000
    9.4551  -19.1422   20.2274 N   0  0  0  0  0  0  0  0  0  0  0  0
    8.0959  -18.9380   19.9404 C   0  0  0  0  0  0  0  0  0  0  0  0
    7.2364  -19.6324   20.5306 O   0  0  0  0  0  0  0  0  0  0  0  0
    7.6615  -17.9352   18.9679 C   0  0  0  0  0  0  0  0  0  0  0  0
    8.7422  -17.0357   18.4359 C   0  0  2  0  0  0  0  0  0  0  0  0
    9.8868  -17.7612   17.9371 N   0  0  0  0  0  0  0  0  0  0  0  0
    9.1841  -16.0624   19.4764 C   0  0  0  0  0  0  0  0  0  0  0  0
   10.4121  -16.2536   19.8337 O   0  0  0  0  0  0  0  0  0  0  0  0
    8.4170  -15.0374   20.0484 N   0  0  0  0  0  0  0  0  0  0  0  0
    7.0507  -14.7265   19.8657 C   0  0  0  0  0  0  0  0  0  0  0  0
    7.0004  -13.2062   19.9212 C   0  0  0  0  0  0  0  0  0  0  0  0
    8.2972  -12.8086   20.5746 C   0  0  0  0  0  0  0  0  0  0  0  0
    8.9450  -14.0952   21.0162 C   0  0  1  0  0  0  0  0  0  0  0  0
    8.4880  -14.5455   22.3659 C   0  0  0  0  0  0  0  0  0  0  0  0
    7.3892  -15.1821   22.5244 O   0  0  0  0  0  0  0  0  0  0  0  0
    6.6228  -11.9364   28.4158 C   0  0  0  0  0  0  0  0  0  0  0  0
    6.5756  -12.0165   26.6258 S   0  0  0  0  0  0  0  0  0  0  0  0
    6.3886  -13.7008   25.9877 C   0  0  0  0  0  0  0  0  0  0  0  0
    7.0843  -13.8699   24.6711 C   0  0  0  0  0  0  0  0  0  0  0  0
    8.5503  -14.1942   24.8318 C   0  0  2  0  0  0  0  0  0  0  0  0
    9.2253  -14.3055   23.5637 N   0  0  0  0  0  0  0  0  0  0  0  0
    8.6382  -15.5282   25.5213 C   0  0  0  0  0  0  0  0  0  0  0  0
    8.5628  -15.5502   26.9007 O   0  0  0  0  0  0  0  0  0  0  0  0
    8.7739  -16.5897   24.8908 O   0  0  0  0  0  0  0  0  0  0  0  0
  2  3  2  0
  2  1  1  0
  4  2  1  0
  5  7  1  0
  5  4  1  0
  5  6  1  1
  7  8  2  0
  9  7  1  0
 10  9  1  0
 11 12  1  0
 11 10  1  0
 12 13  1  0
 13  9  1  0
 13 14  1  1
 14 21  1  0
 15 14  2  0
 17 16  1  0
 18 19  1  0
 18 17  1  0
 20 19  1  6
 20 22  1  0
 21 20  1  0
 22 24  2  0
 22 23  1  0
M  END
$$$$
