NPM.pdb
     RDKit          3D

 24 24  0  0  1  0  0  0  0  0999 V2000
    6.0109  -19.2689   22.7084 N   0  0  0  0  0  0  0  0  0  0  0  0
    5.4415  -19.2273   21.4256 C   0  0  0  0  0  0  0  0  0  0  0  0
    4.8695  -20.2482   20.9784 O   0  0  0  0  0  0  0  0  0  0  0  0
    5.5024  -18.0212   20.6002 C   0  0  0  0  0  0  0  0  0  0  0  0
    6.7462  -17.8645   19.7704 C   0  0  2  0  0  0  0  0  0  0  0  0
    7.3594  -19.1259   19.4271 N   0  0  0  0  0  0  0  0  0  0  0  0
    7.7429  -16.9985   20.4645 C   0  0  0  0  0  0  0  0  0  0  0  0
    8.8007  -17.6552   20.8140 O   0  0  0  0  0  0  0  0  0  0  0  0
    7.6180  -15.6298   20.7428 N   0  0  0  0  0  0  0  0  0  0  0  0
    6.5093  -14.7723   20.5634 C   0  0  0  0  0  0  0  0  0  0  0  0
    7.1252  -13.4425   20.1521 C   0  0  0  0  0  0  0  0  0  0  0  0
    8.5690  -13.5507   20.5652 C   0  0  0  0  0  0  0  0  0  0  0  0
    8.6789  -14.8397   21.3373 C   0  0  1  0  0  0  0  0  0  0  0  0
    8.3524  -14.6813   22.7870 C   0  0  0  0  0  0  0  0  0  0  0  0
    7.1528  -14.7872   23.2201 O   0  0  0  0  0  0  0  0  0  0  0  0
    5.9999  -10.9803   26.8949 C   0  0  0  0  0  0  0  0  0  0  0  0
    7.3237  -12.0891   27.3754 S   0  0  0  0  0  0  0  0  0  0  0  0
    7.0978  -13.7808   26.7702 C   0  0  0  0  0  0  0  0  0  0  0  0
    7.4988  -13.9078   25.3318 C   0  0  0  0  0  0  0  0  0  0  0  0
    8.9549  -14.2736   25.1700 C   0  0  2  0  0  0  0  0  0  0  0  0
    9.3328  -14.4035   23.7857 N   0  0  0  0  0  0  0  0  0  0  0  0
    9.1545  -15.6098   25.8313 C   0  0  0  0  0  0  0  0  0  0  0  0
   10.0387  -15.6823   26.8905 O   0  0  0  0  0  0  0  0  0  0  0  0
    8.5537  -16.6294   25.4544 O   0  0  0  0  0  0  0  0  0  0  0  0
  2  3  2  0
  2  1  1  0
  4  2  1  0
  5  7  1  0
  5  4  1  0
  5  6  1  1
  7  8  2  0
  9  7  1  0
 10  9  1  0
 11 12  1  0
 11 10  1  0
 12 13  1  0
 13  9  1  0
 13 14  1  1
 14 21  1  0
 15 14  2  0
 17 16  1  0
 18 19  1  0
 18 17  1  0
 20 19  1  6
 20 22  1  0
 21 20  1  0
 22 24  2  0
 22 23  1  0
M  END
$$$$
