NPM.pdb
     RDKit          3D

 24 24  0  0  1  0  0  0  0  0999 V2000
    6.4295  -18.6127   22.2815 N   0  0  0  0  0  0  0  0  0  0  0  0
    7.0514  -18.9048   21.0570 C   0  0  0  0  0  0  0  0  0  0  0  0
    7.8208  -19.8906   20.9832 O   0  0  0  0  0  0  0  0  0  0  0  0
    6.8228  -18.0843   19.8678 C   0  0  0  0  0  0  0  0  0  0  0  0
    8.0511  -17.4682   19.2581 C   0  0  2  0  0  0  0  0  0  0  0  0
    9.0520  -18.4436   18.8950 N   0  0  0  0  0  0  0  0  0  0  0  0
    8.6507  -16.4572   20.1764 C   0  0  0  0  0  0  0  0  0  0  0  0
    9.8590  -16.7650   20.5194 O   0  0  0  0  0  0  0  0  0  0  0  0
    8.0393  -15.2899   20.6560 N   0  0  0  0  0  0  0  0  0  0  0  0
    6.7159  -14.8281   20.4766 C   0  0  0  0  0  0  0  0  0  0  0  0
    6.8563  -13.3161   20.3715 C   0  0  0  0  0  0  0  0  0  0  0  0
    8.2169  -13.0220   20.9451 C   0  0  0  0  0  0  0  0  0  0  0  0
    8.7173  -14.3285   21.5041 C   0  0  1  0  0  0  0  0  0  0  0  0
    8.2611  -14.5768   22.9054 C   0  0  0  0  0  0  0  0  0  0  0  0
    7.1635  -15.1851   23.1559 O   0  0  0  0  0  0  0  0  0  0  0  0
    7.0933  -11.3892   27.6637 C   0  0  0  0  0  0  0  0  0  0  0  0
    5.9551  -11.8007   26.3416 S   0  0  0  0  0  0  0  0  0  0  0  0
    6.6994  -12.8247   25.0469 C   0  0  0  0  0  0  0  0  0  0  0  0
    7.0692  -14.1817   25.5643 C   0  0  0  0  0  0  0  0  0  0  0  0
    8.5363  -14.4881   25.3801 C   0  0  2  0  0  0  0  0  0  0  0  0
    8.9981  -14.1623   24.0547 N   0  0  0  0  0  0  0  0  0  0  0  0
    8.7103  -15.9689   25.5796 C   0  0  0  0  0  0  0  0  0  0  0  0
    9.0852  -16.7294   24.4888 O   0  0  0  0  0  0  0  0  0  0  0  0
    8.5288  -16.5125   26.6815 O   0  0  0  0  0  0  0  0  0  0  0  0
  2  3  2  0
  2  1  1  0
  4  2  1  0
  5  7  1  0
  5  4  1  0
  5  6  1  1
  7  8  2  0
  9  7  1  0
 10  9  1  0
 11 12  1  0
 11 10  1  0
 12 13  1  0
 13  9  1  0
 13 14  1  1
 14 21  1  0
 15 14  2  0
 17 16  1  0
 18 19  1  0
 18 17  1  0
 20 19  1  6
 20 22  1  0
 21 20  1  0
 22 24  2  0
 22 23  1  0
M  END
$$$$
