CFH.pdb
     RDKit          3D

 28 29  0  0  1  0  0  0  0  0999 V2000
    7.3972  -15.9661   21.2574 N   0  0  0  0  0  0  0  0  0  0  0  0
    8.6016  -15.2009   21.3991 C   0  0  1  0  0  0  0  0  0  0  0  0
    8.3090  -13.7601   21.0439 C   0  0  0  0  0  0  0  0  0  0  0  0
    7.4877  -13.6566   19.4368 S   0  0  0  0  0  0  0  0  0  0  0  0
    9.0744  -15.2216   22.8049 C   0  0  0  0  0  0  0  0  0  0  0  0
   10.1733  -14.7049   23.0702 O   0  0  0  0  0  0  0  0  0  0  0  0
    8.3217  -15.8045   23.8406 N   0  0  0  0  0  0  0  0  0  0  0  0
    8.7282  -15.8226   25.2211 C   0  0  1  0  0  0  0  0  0  0  0  0
    7.6265  -15.4655   26.1721 C   0  0  0  0  0  0  0  0  0  0  0  0
    7.3503  -14.0129   26.2467 C   0  0  0  0  0  0  0  0  0  0  0  0
    6.0390  -13.5950   26.1714 C   0  0  0  0  0  0  0  0  0  0  0  0
    5.6814  -12.2620   26.2302 C   0  0  0  0  0  0  0  0  0  0  0  0
    6.6498  -11.2958   26.3686 C   0  0  0  0  0  0  0  0  0  0  0  0
    7.9648  -11.6932   26.4454 C   0  0  0  0  0  0  0  0  0  0  0  0
    8.3224  -13.0450   26.3855 C   0  0  0  0  0  0  0  0  0  0  0  0
    9.2575  -17.1413   25.6066 C   0  0  0  0  0  0  0  0  0  0  0  0
    9.0433  -17.5347   26.8035 O   0  0  0  0  0  0  0  0  0  0  0  0
    9.9757  -18.0055   24.7801 N   0  0  0  0  0  0  0  0  0  0  0  0
   11.1046  -18.8303   25.2633 C   0  0  1  0  0  0  0  0  0  0  0  0
   12.3964  -18.2519   24.7431 C   0  0  0  0  0  0  0  0  0  0  0  0
   12.4503  -18.2132   23.2694 C   0  0  0  0  0  0  0  0  0  0  0  0
   11.5708  -18.9088   22.4288 C   0  0  0  0  0  0  0  0  0  0  0  0
   11.9099  -18.6447   21.1586 N   0  0  0  0  0  0  0  0  0  0  0  0
   12.9661  -17.8120   21.1490 C   0  0  0  0  0  0  0  0  0  0  0  0
   13.2744  -17.5656   22.4335 N   0  0  0  0  0  0  0  0  0  0  0  0
   11.0702  -18.6743   26.7257 C   0  0  0  0  0  0  0  0  0  0  0  0
   10.8089  -17.4525   27.3009 O   0  0  0  0  0  0  0  0  0  0  0  0
   11.2752  -19.6363   27.4814 O   0  0  0  0  0  0  0  0  0  0  0  0
  2  1  1  1
  2  5  1  0
  3  2  1  0
  4  3  1  0
  5  7  1  0
  5  6  2  0
  7  8  1  0
  8 16  1  0
  8  9  1  1
 10  9  1  0
 10 15  1  0
 11 10  2  0
 12 11  1  0
 12 13  2  0
 13 14  1  0
 15 14  2  0
 16 17  2  0
 18 19  1  0
 18 16  1  0
 19 20  1  6
 21 20  1  0
 22 21  2  0
 23 24  1  0
 23 22  1  0
 24 25  2  0
 25 21  1  0
 26 19  1  0
 26 27  1  0
 28 26  2  0
M  END
$$$$
