CFH.pdb
     RDKit          3D

 28 29  0  0  1  0  0  0  0  0999 V2000
    8.3452  -13.6776   20.0017 N   0  0  0  0  0  0  0  0  0  0  0  0
    7.6469  -14.6545   20.7853 C   0  0  1  0  0  0  0  0  0  0  0  0
    7.7102  -15.9873   20.0730 C   0  0  0  0  0  0  0  0  0  0  0  0
    6.5863  -16.0046   18.6573 S   0  0  0  0  0  0  0  0  0  0  0  0
    8.2966  -14.8293   22.1072 C   0  0  0  0  0  0  0  0  0  0  0  0
    9.5234  -14.6497   22.1951 O   0  0  0  0  0  0  0  0  0  0  0  0
    7.5712  -15.1897   23.2574 N   0  0  0  0  0  0  0  0  0  0  0  0
    8.1696  -15.4445   24.5413 C   0  0  1  0  0  0  0  0  0  0  0  0
    7.2383  -15.2079   25.6912 C   0  0  0  0  0  0  0  0  0  0  0  0
    6.9404  -13.7781   25.9333 C   0  0  0  0  0  0  0  0  0  0  0  0
    7.8813  -13.0204   26.5968 C   0  0  0  0  0  0  0  0  0  0  0  0
    7.6942  -11.6794   26.8705 C   0  0  0  0  0  0  0  0  0  0  0  0
    6.5351  -11.0527   26.4774 C   0  0  0  0  0  0  0  0  0  0  0  0
    5.5836  -11.7924   25.8137 C   0  0  0  0  0  0  0  0  0  0  0  0
    5.7777  -13.1509   25.5386 C   0  0  0  0  0  0  0  0  0  0  0  0
    8.6716  -16.8255   24.6340 C   0  0  0  0  0  0  0  0  0  0  0  0
    8.4496  -17.6003   23.6423 O   0  0  0  0  0  0  0  0  0  0  0  0
    9.3713  -17.3687   25.7116 N   0  0  0  0  0  0  0  0  0  0  0  0
   10.6449  -18.1050   25.5566 C   0  0  1  0  0  0  0  0  0  0  0  0
   11.6634  -17.1988   24.9120 C   0  0  0  0  0  0  0  0  0  0  0  0
   11.7753  -17.4122   23.4567 C   0  0  0  0  0  0  0  0  0  0  0  0
   10.9894  -18.3156   22.7285 C   0  0  0  0  0  0  0  0  0  0  0  0
   11.3590  -18.2481   21.4413 N   0  0  0  0  0  0  0  0  0  0  0  0
   12.3453  -17.3427   21.3135 C   0  0  0  0  0  0  0  0  0  0  0  0
   12.5795  -16.8516   22.5422 N   0  0  0  0  0  0  0  0  0  0  0  0
   11.0703  -18.3916   26.9353 C   0  0  0  0  0  0  0  0  0  0  0  0
   10.4930  -17.7443   28.0029 O   0  0  0  0  0  0  0  0  0  0  0  0
   11.9594  -19.2224   27.1758 O   0  0  0  0  0  0  0  0  0  0  0  0
  2  1  1  6
  2  5  1  0
  3  2  1  0
  4  3  1  0
  5  7  1  0
  5  6  2  0
  7  8  1  0
  8 16  1  0
  8  9  1  1
 10  9  1  0
 10 15  1  0
 11 10  2  0
 12 11  1  0
 12 13  2  0
 13 14  1  0
 15 14  2  0
 16 17  2  0
 18 19  1  0
 18 16  1  0
 19 20  1  1
 21 20  1  0
 22 21  2  0
 23 24  1  0
 23 22  1  0
 24 25  2  0
 25 21  1  0
 26 19  1  0
 26 27  1  0
 28 26  2  0
M  END
$$$$
