CFH.pdb
     RDKit          3D

 28 29  0  0  1  0  0  0  0  0999 V2000
    7.4923  -14.3125   19.9899 N   0  0  0  0  0  0  0  0  0  0  0  0
    6.8568  -14.9629   21.0986 C   0  0  1  0  0  0  0  0  0  0  0  0
    6.6009  -16.4086   20.7349 C   0  0  0  0  0  0  0  0  0  0  0  0
    8.1460  -17.2338   20.2880 S   0  0  0  0  0  0  0  0  0  0  0  0
    7.7423  -14.9572   22.2885 C   0  0  0  0  0  0  0  0  0  0  0  0
    8.9325  -14.6300   22.1423 O   0  0  0  0  0  0  0  0  0  0  0  0
    7.2791  -15.3086   23.5696 N   0  0  0  0  0  0  0  0  0  0  0  0
    8.0854  -15.2574   24.7607 C   0  0  1  0  0  0  0  0  0  0  0  0
    7.2968  -14.9754   26.0033 C   0  0  0  0  0  0  0  0  0  0  0  0
    7.1397  -13.5326   26.2957 C   0  0  0  0  0  0  0  0  0  0  0  0
    5.8693  -13.0493   26.5241 C   0  0  0  0  0  0  0  0  0  0  0  0
    5.6213  -11.7192   26.8031 C   0  0  0  0  0  0  0  0  0  0  0  0
    6.6627  -10.8232   26.8610 C   0  0  0  0  0  0  0  0  0  0  0  0
    7.9384  -11.2866   26.6358 C   0  0  0  0  0  0  0  0  0  0  0  0
    8.1848  -12.6350   26.3534 C   0  0  0  0  0  0  0  0  0  0  0  0
    8.8245  -16.5148   24.9618 C   0  0  0  0  0  0  0  0  0  0  0  0
    8.1466  -17.5976   24.9928 O   0  0  0  0  0  0  0  0  0  0  0  0
   10.2051  -16.6328   25.1226 N   0  0  0  0  0  0  0  0  0  0  0  0
   10.8844  -17.9307   25.3283 C   0  0  1  0  0  0  0  0  0  0  0  0
   12.2960  -17.8368   24.8063 C   0  0  0  0  0  0  0  0  0  0  0  0
   12.3506  -17.5953   23.3521 C   0  0  0  0  0  0  0  0  0  0  0  0
   11.3181  -17.9141   22.4597 C   0  0  0  0  0  0  0  0  0  0  0  0
   11.7070  -17.5591   21.2264 N   0  0  0  0  0  0  0  0  0  0  0  0
   12.9411  -17.0279   21.2900 C   0  0  0  0  0  0  0  0  0  0  0  0
   13.3087  -17.0602   22.5820 N   0  0  0  0  0  0  0  0  0  0  0  0
   10.9290  -18.0911   26.7899 C   0  0  0  0  0  0  0  0  0  0  0  0
   10.4279  -17.1190   27.6240 O   0  0  0  0  0  0  0  0  0  0  0  0
   11.4181  -19.1043   27.3123 O   0  0  0  0  0  0  0  0  0  0  0  0
  2  1  1  6
  2  5  1  0
  3  2  1  0
  4  3  1  0
  5  7  1  0
  5  6  2  0
  7  8  1  0
  8 16  1  0
  8  9  1  1
 10  9  1  0
 10 15  1  0
 11 10  2  0
 12 11  1  0
 12 13  2  0
 13 14  1  0
 15 14  2  0
 16 17  2  0
 18 19  1  0
 18 16  1  0
 19 20  1  1
 21 20  1  0
 22 21  2  0
 23 24  1  0
 23 22  1  0
 24 25  2  0
 25 21  1  0
 26 19  1  0
 26 27  1  0
 28 26  2  0
M  END
$$$$
