CFH.pdb
     RDKit          3D

 28 29  0  0  1  0  0  0  0  0999 V2000
   10.4623  -16.5929   19.1209 N   0  0  0  0  0  0  0  0  0  0  0  0
    9.2778  -16.7214   19.9187 C   0  0  1  0  0  0  0  0  0  0  0  0
    9.0707  -18.1819   20.2529 C   0  0  0  0  0  0  0  0  0  0  0  0
    8.4370  -19.0781   18.8166 S   0  0  0  0  0  0  0  0  0  0  0  0
    9.4273  -15.9919   21.2016 C   0  0  0  0  0  0  0  0  0  0  0  0
   10.5620  -15.8895   21.6985 O   0  0  0  0  0  0  0  0  0  0  0  0
    8.3308  -15.4161   21.8689 N   0  0  0  0  0  0  0  0  0  0  0  0
    8.4194  -14.7555   23.1445 C   0  0  1  0  0  0  0  0  0  0  0  0
    7.2276  -13.9034   23.4592 C   0  0  0  0  0  0  0  0  0  0  0  0
    7.2699  -13.2929   24.8073 C   0  0  0  0  0  0  0  0  0  0  0  0
    6.4029  -13.7716   25.7660 C   0  0  0  0  0  0  0  0  0  0  0  0
    6.3662  -13.2658   27.0509 C   0  0  0  0  0  0  0  0  0  0  0  0
    7.2155  -12.2468   27.4132 C   0  0  0  0  0  0  0  0  0  0  0  0
    8.0884  -11.7556   26.4700 C   0  0  0  0  0  0  0  0  0  0  0  0
    8.1219  -12.2712   25.1693 C   0  0  0  0  0  0  0  0  0  0  0  0
    8.5921  -15.7250   24.2391 C   0  0  0  0  0  0  0  0  0  0  0  0
    7.6836  -16.6112   24.3894 O   0  0  0  0  0  0  0  0  0  0  0  0
    9.6629  -15.7649   25.1322 N   0  0  0  0  0  0  0  0  0  0  0  0
    9.8639  -16.8649   26.1007 C   0  0  1  0  0  0  0  0  0  0  0  0
   11.2650  -17.4023   25.9531 C   0  0  0  0  0  0  0  0  0  0  0  0
   11.3995  -18.3384   24.8209 C   0  0  0  0  0  0  0  0  0  0  0  0
   10.3302  -18.7784   24.0291 C   0  0  0  0  0  0  0  0  0  0  0  0
   10.8145  -19.6153   23.1001 N   0  0  0  0  0  0  0  0  0  0  0  0
   12.1448  -19.7303   23.2621 C   0  0  0  0  0  0  0  0  0  0  0  0
   12.4749  -18.9512   24.3059 N   0  0  0  0  0  0  0  0  0  0  0  0
    9.7399  -16.2190   27.4166 C   0  0  0  0  0  0  0  0  0  0  0  0
    9.7379  -16.9639   28.5729 O   0  0  0  0  0  0  0  0  0  0  0  0
    9.6339  -14.9878   27.5226 O   0  0  0  0  0  0  0  0  0  0  0  0
  2  1  1  6
  2  5  1  0
  3  2  1  0
  4  3  1  0
  5  7  1  0
  5  6  2  0
  7  8  1  0
  8 16  1  0
  8  9  1  1
 10  9  1  0
 10 15  1  0
 11 10  2  0
 12 11  1  0
 12 13  2  0
 13 14  1  0
 15 14  2  0
 16 17  2  0
 18 19  1  0
 18 16  1  0
 19 20  1  1
 21 20  1  0
 22 21  2  0
 23 24  1  0
 23 22  1  0
 24 25  2  0
 25 21  1  0
 26 19  1  0
 26 27  1  0
 28 26  2  0
M  END
$$$$
