CFH.pdb
     RDKit          3D

 28 29  0  0  1  0  0  0  0  0999 V2000
   10.3446  -16.5978   19.0463 N   0  0  0  0  0  0  0  0  0  0  0  0
    9.1652  -16.7979   19.8370 C   0  0  1  0  0  0  0  0  0  0  0  0
    8.9865  -18.2800   20.0801 C   0  0  0  0  0  0  0  0  0  0  0  0
    7.5765  -18.5788   21.1712 S   0  0  0  0  0  0  0  0  0  0  0  0
    9.3051  -16.1469   21.1625 C   0  0  0  0  0  0  0  0  0  0  0  0
   10.3913  -16.2412   21.7594 O   0  0  0  0  0  0  0  0  0  0  0  0
    8.2526  -15.4306   21.7609 N   0  0  0  0  0  0  0  0  0  0  0  0
    8.3265  -14.8287   23.0661 C   0  0  1  0  0  0  0  0  0  0  0  0
    7.1466  -13.9644   23.3922 C   0  0  0  0  0  0  0  0  0  0  0  0
    7.1844  -13.3936   24.7577 C   0  0  0  0  0  0  0  0  0  0  0  0
    6.0437  -13.4713   25.5275 C   0  0  0  0  0  0  0  0  0  0  0  0
    5.9805  -12.9667   26.8119 C   0  0  0  0  0  0  0  0  0  0  0  0
    7.0822  -12.3593   27.3669 C   0  0  0  0  0  0  0  0  0  0  0  0
    8.2305  -12.2720   26.6140 C   0  0  0  0  0  0  0  0  0  0  0  0
    8.2898  -12.7848   25.3131 C   0  0  0  0  0  0  0  0  0  0  0  0
    8.4532  -15.8489   24.1202 C   0  0  0  0  0  0  0  0  0  0  0  0
    7.4613  -16.6339   24.3020 O   0  0  0  0  0  0  0  0  0  0  0  0
    9.5634  -16.0380   24.9432 N   0  0  0  0  0  0  0  0  0  0  0  0
    9.6664  -17.1488   25.9147 C   0  0  1  0  0  0  0  0  0  0  0  0
   10.9287  -17.9273   25.6419 C   0  0  0  0  0  0  0  0  0  0  0  0
   10.8295  -18.7678   24.4337 C   0  0  0  0  0  0  0  0  0  0  0  0
    9.8348  -19.7322   24.2225 C   0  0  0  0  0  0  0  0  0  0  0  0
   10.0508  -20.3007   23.0274 N   0  0  0  0  0  0  0  0  0  0  0  0
   11.1383  -19.7437   22.4652 C   0  0  0  0  0  0  0  0  0  0  0  0
   11.5910  -18.8219   23.3317 N   0  0  0  0  0  0  0  0  0  0  0  0
    9.7936  -16.4813   27.2195 C   0  0  0  0  0  0  0  0  0  0  0  0
    9.8801  -17.2111   28.3821 O   0  0  0  0  0  0  0  0  0  0  0  0
    9.8266  -15.2447   27.3101 O   0  0  0  0  0  0  0  0  0  0  0  0
  2  1  1  6
  2  5  1  0
  3  2  1  0
  4  3  1  0
  5  7  1  0
  5  6  2  0
  7  8  1  0
  8 16  1  0
  8  9  1  1
 10  9  1  0
 10 15  1  0
 11 10  2  0
 12 11  1  0
 12 13  2  0
 13 14  1  0
 15 14  2  0
 16 17  2  0
 18 19  1  0
 18 16  1  0
 19 20  1  6
 21 20  1  0
 22 21  2  0
 23 24  1  0
 23 22  1  0
 24 25  2  0
 25 21  1  0
 26 19  1  0
 26 27  1  0
 28 26  2  0
M  END
$$$$
