CFH.pdb
     RDKit          3D

 28 29  0  0  1  0  0  0  0  0999 V2000
    8.0152  -15.9456   19.7739 N   0  0  0  0  0  0  0  0  0  0  0  0
    7.5129  -16.5281   20.9841 C   0  0  1  0  0  0  0  0  0  0  0  0
    7.9254  -17.9824   21.0335 C   0  0  0  0  0  0  0  0  0  0  0  0
    6.5349  -19.0519   20.5974 S   0  0  0  0  0  0  0  0  0  0  0  0
    8.1018  -15.8617   22.1713 C   0  0  0  0  0  0  0  0  0  0  0  0
    9.1996  -15.2917   22.0495 O   0  0  0  0  0  0  0  0  0  0  0  0
    7.4596  -15.8551   23.4230 N   0  0  0  0  0  0  0  0  0  0  0  0
    8.0207  -15.2738   24.6141 C   0  0  1  0  0  0  0  0  0  0  0  0
    6.9897  -14.8714   25.6243 C   0  0  0  0  0  0  0  0  0  0  0  0
    6.8300  -13.4061   25.7626 C   0  0  0  0  0  0  0  0  0  0  0  0
    5.8376  -12.9352   26.5951 C   0  0  0  0  0  0  0  0  0  0  0  0
    5.6100  -11.5864   26.7880 C   0  0  0  0  0  0  0  0  0  0  0  0
    6.3880  -10.6579   26.1373 C   0  0  0  0  0  0  0  0  0  0  0  0
    7.3840  -11.1085   25.3018 C   0  0  0  0  0  0  0  0  0  0  0  0
    7.6108  -12.4761   25.1095 C   0  0  0  0  0  0  0  0  0  0  0  0
    8.9664  -16.1952   25.2657 C   0  0  0  0  0  0  0  0  0  0  0  0
    9.5410  -15.7912   26.3332 O   0  0  0  0  0  0  0  0  0  0  0  0
    9.2943  -17.4763   24.8217 N   0  0  0  0  0  0  0  0  0  0  0  0
   10.2644  -18.3475   25.5203 C   0  0  1  0  0  0  0  0  0  0  0  0
    9.7938  -19.7776   25.4351 C   0  0  0  0  0  0  0  0  0  0  0  0
    8.6779  -20.0657   26.3559 C   0  0  0  0  0  0  0  0  0  0  0  0
    8.2544  -19.2041   27.3769 C   0  0  0  0  0  0  0  0  0  0  0  0
    7.2241  -19.7822   28.0112 N   0  0  0  0  0  0  0  0  0  0  0  0
    6.9697  -20.9741   27.4421 C   0  0  0  0  0  0  0  0  0  0  0  0
    7.8592  -21.1235   26.4460 N   0  0  0  0  0  0  0  0  0  0  0  0
   11.5050  -18.2094   24.7418 C   0  0  0  0  0  0  0  0  0  0  0  0
   12.6494  -18.8779   25.1097 O   0  0  0  0  0  0  0  0  0  0  0  0
   11.5561  -17.4885   23.7337 O   0  0  0  0  0  0  0  0  0  0  0  0
  2  1  1  6
  2  5  1  0
  3  2  1  0
  4  3  1  0
  5  7  1  0
  5  6  2  0
  7  8  1  0
  8 16  1  0
  8  9  1  1
 10  9  1  0
 10 15  1  0
 11 10  2  0
 12 11  1  0
 12 13  2  0
 13 14  1  0
 15 14  2  0
 16 17  2  0
 18 19  1  0
 18 16  1  0
 19 20  1  6
 21 20  1  0
 22 21  2  0
 23 24  1  0
 23 22  1  0
 24 25  2  0
 25 21  1  0
 26 19  1  0
 26 27  1  0
 28 26  2  0
M  END
$$$$
