CFH.pdb
     RDKit          3D

 28 29  0  0  1  0  0  0  0  0999 V2000
    8.7801  -17.2632   19.3134 N   0  0  0  0  0  0  0  0  0  0  0  0
    7.8832  -17.4196   20.4213 C   0  0  1  0  0  0  0  0  0  0  0  0
    8.0300  -18.8198   20.9740 C   0  0  0  0  0  0  0  0  0  0  0  0
    9.7303  -19.1151   21.5119 S   0  0  0  0  0  0  0  0  0  0  0  0
    8.2276  -16.4760   21.5127 C   0  0  0  0  0  0  0  0  0  0  0  0
    9.2183  -15.7389   21.3708 O   0  0  0  0  0  0  0  0  0  0  0  0
    7.4718  -16.3903   22.6962 N   0  0  0  0  0  0  0  0  0  0  0  0
    7.7029  -15.4182   23.7320 C   0  0  1  0  0  0  0  0  0  0  0  0
    6.4456  -14.7908   24.2527 C   0  0  0  0  0  0  0  0  0  0  0  0
    6.6819  -13.6918   25.2161 C   0  0  0  0  0  0  0  0  0  0  0  0
    6.0725  -13.7657   26.4501 C   0  0  0  0  0  0  0  0  0  0  0  0
    6.2308  -12.7894   27.4146 C   0  0  0  0  0  0  0  0  0  0  0  0
    7.0203  -11.6929   27.1598 C   0  0  0  0  0  0  0  0  0  0  0  0
    7.6371  -11.6011   25.9334 C   0  0  0  0  0  0  0  0  0  0  0  0
    7.4738  -12.5926   24.9593 C   0  0  0  0  0  0  0  0  0  0  0  0
    8.4260  -16.0095   24.8701 C   0  0  0  0  0  0  0  0  0  0  0  0
    8.3068  -15.4355   26.0056 O   0  0  0  0  0  0  0  0  0  0  0  0
    9.2339  -17.1456   24.8220 N   0  0  0  0  0  0  0  0  0  0  0  0
   10.4733  -17.2873   25.6170 C   0  0  1  0  0  0  0  0  0  0  0  0
   11.4853  -16.2774   25.1375 C   0  0  0  0  0  0  0  0  0  0  0  0
   11.9958  -16.5800   23.7870 C   0  0  0  0  0  0  0  0  0  0  0  0
   11.5819  -17.6726   23.0130 C   0  0  0  0  0  0  0  0  0  0  0  0
   12.2487  -17.6377   21.8501 N   0  0  0  0  0  0  0  0  0  0  0  0
   13.0700  -16.5725   21.8455 C   0  0  0  0  0  0  0  0  0  0  0  0
   12.9002  -15.9497   23.0240 N   0  0  0  0  0  0  0  0  0  0  0  0
   10.0688  -16.9391   26.9878 C   0  0  0  0  0  0  0  0  0  0  0  0
   10.5495  -15.8056   27.6010 O   0  0  0  0  0  0  0  0  0  0  0  0
    9.2850  -17.6546   27.6298 O   0  0  0  0  0  0  0  0  0  0  0  0
  2  1  1  6
  2  5  1  0
  3  2  1  0
  4  3  1  0
  5  7  1  0
  5  6  2  0
  7  8  1  0
  8 16  1  0
  8  9  1  1
 10  9  1  0
 10 15  1  0
 11 10  2  0
 12 11  1  0
 12 13  2  0
 13 14  1  0
 15 14  2  0
 16 17  2  0
 18 19  1  0
 18 16  1  0
 19 20  1  6
 21 20  1  0
 22 21  2  0
 23 24  1  0
 23 22  1  0
 24 25  2  0
 25 21  1  0
 26 19  1  0
 26 27  1  0
 28 26  2  0
M  END
$$$$
