CFH.pdb
     RDKit          3D

 28 29  0  0  1  0  0  0  0  0999 V2000
   10.2710  -16.3465   19.3679 N   0  0  0  0  0  0  0  0  0  0  0  0
    9.0748  -16.4871   20.1462 C   0  0  1  0  0  0  0  0  0  0  0  0
    8.8680  -17.9516   20.4627 C   0  0  0  0  0  0  0  0  0  0  0  0
   10.3376  -18.6434   21.2559 S   0  0  0  0  0  0  0  0  0  0  0  0
    9.2019  -15.7700   21.4383 C   0  0  0  0  0  0  0  0  0  0  0  0
   10.3395  -15.4883   21.8526 O   0  0  0  0  0  0  0  0  0  0  0  0
    8.0812  -15.4011   22.2046 N   0  0  0  0  0  0  0  0  0  0  0  0
    8.1581  -14.7137   23.4667 C   0  0  1  0  0  0  0  0  0  0  0  0
    6.8575  -14.1047   23.8946 C   0  0  0  0  0  0  0  0  0  0  0  0
    6.9283  -13.3985   25.1939 C   0  0  0  0  0  0  0  0  0  0  0  0
    6.1554  -13.8692   26.2335 C   0  0  0  0  0  0  0  0  0  0  0  0
    6.1521  -13.2773   27.4817 C   0  0  0  0  0  0  0  0  0  0  0  0
    6.9398  -12.1763   27.7226 C   0  0  0  0  0  0  0  0  0  0  0  0
    7.7185  -11.6915   26.6971 C   0  0  0  0  0  0  0  0  0  0  0  0
    7.7186  -12.2945   25.4341 C   0  0  0  0  0  0  0  0  0  0  0  0
    8.6190  -15.6116   24.5387 C   0  0  0  0  0  0  0  0  0  0  0  0
    7.9005  -16.6362   24.7979 O   0  0  0  0  0  0  0  0  0  0  0  0
    9.7749  -15.4452   25.3016 N   0  0  0  0  0  0  0  0  0  0  0  0
   10.2434  -16.4473   26.2838 C   0  0  1  0  0  0  0  0  0  0  0  0
   11.7453  -16.5537   26.2019 C   0  0  0  0  0  0  0  0  0  0  0  0
   12.1997  -17.2902   25.0072 C   0  0  0  0  0  0  0  0  0  0  0  0
   11.3636  -18.0652   24.1922 C   0  0  0  0  0  0  0  0  0  0  0  0
   12.1074  -18.5859   23.2054 N   0  0  0  0  0  0  0  0  0  0  0  0
   13.3809  -18.1790   23.3526 C   0  0  0  0  0  0  0  0  0  0  0  0
   13.4124  -17.3985   24.4460 N   0  0  0  0  0  0  0  0  0  0  0  0
    9.8790  -15.8758   27.5895 C   0  0  0  0  0  0  0  0  0  0  0  0
    9.5976  -14.5360   27.7217 O   0  0  0  0  0  0  0  0  0  0  0  0
    9.8148  -16.5825   28.6068 O   0  0  0  0  0  0  0  0  0  0  0  0
  2  1  1  6
  2  5  1  0
  3  2  1  0
  4  3  1  0
  5  7  1  0
  5  6  2  0
  7  8  1  0
  8 16  1  0
  8  9  1  1
 10  9  1  0
 10 15  1  0
 11 10  2  0
 12 11  1  0
 12 13  2  0
 13 14  1  0
 15 14  2  0
 16 17  2  0
 18 19  1  0
 18 16  1  0
 19 20  1  1
 21 20  1  0
 22 21  2  0
 23 24  1  0
 23 22  1  0
 24 25  2  0
 25 21  1  0
 26 19  1  0
 26 27  1  0
 28 26  2  0
M  END
$$$$
