CFH.pdb
     RDKit          3D

 28 29  0  0  1  0  0  0  0  0999 V2000
   10.2217  -16.2943   19.0989 N   0  0  0  0  0  0  0  0  0  0  0  0
    9.0170  -16.4536   19.8601 C   0  0  1  0  0  0  0  0  0  0  0  0
    8.7752  -17.9292   20.0878 C   0  0  0  0  0  0  0  0  0  0  0  0
   10.2834  -18.7370   20.6711 S   0  0  0  0  0  0  0  0  0  0  0  0
    9.1503  -15.8173   21.1933 C   0  0  0  0  0  0  0  0  0  0  0  0
   10.2899  -15.6474   21.6596 O   0  0  0  0  0  0  0  0  0  0  0  0
    8.0333  -15.4028   21.9414 N   0  0  0  0  0  0  0  0  0  0  0  0
    8.1170  -14.7549   23.2239 C   0  0  1  0  0  0  0  0  0  0  0  0
    6.8377  -14.0980   23.6451 C   0  0  0  0  0  0  0  0  0  0  0  0
    6.9005  -13.4752   24.9867 C   0  0  0  0  0  0  0  0  0  0  0  0
    7.6126  -12.3035   25.1277 C   0  0  0  0  0  0  0  0  0  0  0  0
    7.7302  -11.6488   26.3384 C   0  0  0  0  0  0  0  0  0  0  0  0
    7.1241  -12.1636   27.4602 C   0  0  0  0  0  0  0  0  0  0  0  0
    6.4086  -13.3326   27.3395 C   0  0  0  0  0  0  0  0  0  0  0  0
    6.2923  -13.9925   26.1108 C   0  0  0  0  0  0  0  0  0  0  0  0
    8.5148  -15.7028   24.2780 C   0  0  0  0  0  0  0  0  0  0  0  0
    7.7862  -16.7396   24.4429 O   0  0  0  0  0  0  0  0  0  0  0  0
    9.6207  -15.5717   25.1180 N   0  0  0  0  0  0  0  0  0  0  0  0
    9.9756  -16.5749   26.1456 C   0  0  1  0  0  0  0  0  0  0  0  0
   11.4688  -16.7846   26.1353 C   0  0  0  0  0  0  0  0  0  0  0  0
   11.9135  -17.6588   25.0334 C   0  0  0  0  0  0  0  0  0  0  0  0
   11.0476  -18.3277   24.1577 C   0  0  0  0  0  0  0  0  0  0  0  0
   11.7908  -19.0264   23.2874 N   0  0  0  0  0  0  0  0  0  0  0  0
   13.0924  -18.8346   23.5668 C   0  0  0  0  0  0  0  0  0  0  0  0
   13.1418  -18.0062   24.6237 N   0  0  0  0  0  0  0  0  0  0  0  0
    9.5941  -15.9437   27.4184 C   0  0  0  0  0  0  0  0  0  0  0  0
    9.3753  -16.7004   28.5459 O   0  0  0  0  0  0  0  0  0  0  0  0
    9.4588  -14.7143   27.5128 O   0  0  0  0  0  0  0  0  0  0  0  0
  2  1  1  6
  2  5  1  0
  3  2  1  0
  4  3  1  0
  5  7  1  0
  5  6  2  0
  7  8  1  0
  8 16  1  0
  8  9  1  1
 10  9  1  0
 10 15  1  0
 11 10  2  0
 12 11  1  0
 12 13  2  0
 13 14  1  0
 15 14  2  0
 16 17  2  0
 18 19  1  0
 18 16  1  0
 19 20  1  1
 21 20  1  0
 22 21  2  0
 23 24  1  0
 23 22  1  0
 24 25  2  0
 25 21  1  0
 26 19  1  0
 26 27  1  0
 28 26  2  0
M  END
$$$$
