CFH.pdb
     RDKit          3D

 28 29  0  0  1  0  0  0  0  0999 V2000
    7.7712  -14.2083   19.9365 N   0  0  0  0  0  0  0  0  0  0  0  0
    7.0224  -14.7526   21.0315 C   0  0  1  0  0  0  0  0  0  0  0  0
    6.5375  -16.1341   20.6522 C   0  0  0  0  0  0  0  0  0  0  0  0
    7.9367  -17.2481   20.3894 S   0  0  0  0  0  0  0  0  0  0  0  0
    7.8806  -14.9004   22.2323 C   0  0  0  0  0  0  0  0  0  0  0  0
    9.1040  -14.7145   22.1151 O   0  0  0  0  0  0  0  0  0  0  0  0
    7.3555  -15.2424   23.4918 N   0  0  0  0  0  0  0  0  0  0  0  0
    8.1286  -15.2777   24.7053 C   0  0  1  0  0  0  0  0  0  0  0  0
    7.3278  -14.9637   25.9323 C   0  0  0  0  0  0  0  0  0  0  0  0
    7.1758  -13.5139   26.1907 C   0  0  0  0  0  0  0  0  0  0  0  0
    8.3091  -12.7293   26.1842 C   0  0  0  0  0  0  0  0  0  0  0  0
    8.2694  -11.3681   26.4160 C   0  0  0  0  0  0  0  0  0  0  0  0
    7.0678  -10.7477   26.6650 C   0  0  0  0  0  0  0  0  0  0  0  0
    5.9253  -11.5141   26.6757 C   0  0  0  0  0  0  0  0  0  0  0  0
    5.9703  -12.8930   26.4404 C   0  0  0  0  0  0  0  0  0  0  0  0
    8.7655  -16.5913   24.8968 C   0  0  0  0  0  0  0  0  0  0  0  0
    8.0092  -17.6211   24.8738 O   0  0  0  0  0  0  0  0  0  0  0  0
   10.1268  -16.8157   25.1022 N   0  0  0  0  0  0  0  0  0  0  0  0
   10.7116  -18.1694   25.2198 C   0  0  1  0  0  0  0  0  0  0  0  0
   12.1540  -18.1234   24.7824 C   0  0  0  0  0  0  0  0  0  0  0  0
   12.3091  -17.7137   23.3738 C   0  0  0  0  0  0  0  0  0  0  0  0
   11.4254  -18.0701   22.3462 C   0  0  0  0  0  0  0  0  0  0  0  0
   11.8717  -17.5273   21.2041 N   0  0  0  0  0  0  0  0  0  0  0  0
   13.0004  -16.8402   21.4550 C   0  0  0  0  0  0  0  0  0  0  0  0
   13.2447  -16.9669   22.7702 N   0  0  0  0  0  0  0  0  0  0  0  0
   10.6621  -18.4639   26.6603 C   0  0  0  0  0  0  0  0  0  0  0  0
   10.1669  -17.5432   27.5541 O   0  0  0  0  0  0  0  0  0  0  0  0
   11.0640  -19.5475   27.1106 O   0  0  0  0  0  0  0  0  0  0  0  0
  2  1  1  6
  2  5  1  0
  3  2  1  0
  4  3  1  0
  5  7  1  0
  5  6  2  0
  7  8  1  0
  8 16  1  0
  8  9  1  1
 10  9  1  0
 10 15  1  0
 11 10  2  0
 12 11  1  0
 12 13  2  0
 13 14  1  0
 15 14  2  0
 16 17  2  0
 18 19  1  0
 18 16  1  0
 19 20  1  1
 21 20  1  0
 22 21  2  0
 23 24  1  0
 23 22  1  0
 24 25  2  0
 25 21  1  0
 26 19  1  0
 26 27  1  0
 28 26  2  0
M  END
$$$$
