CFH.pdb
     RDKit          3D

 28 29  0  0  1  0  0  0  0  0999 V2000
   10.3042  -15.9991   20.2968 N   0  0  0  0  0  0  0  0  0  0  0  0
    9.3362  -16.6569   21.1253 C   0  0  1  0  0  0  0  0  0  0  0  0
    9.5919  -18.1471   21.0853 C   0  0  0  0  0  0  0  0  0  0  0  0
    9.2290  -18.8097   19.4431 S   0  0  0  0  0  0  0  0  0  0  0  0
    9.4724  -16.2235   22.5373 C   0  0  0  0  0  0  0  0  0  0  0  0
   10.5022  -15.6153   22.8757 O   0  0  0  0  0  0  0  0  0  0  0  0
    8.4778  -16.4781   23.4991 N   0  0  0  0  0  0  0  0  0  0  0  0
    8.5234  -15.9943   24.8538 C   0  0  1  0  0  0  0  0  0  0  0  0
    7.1915  -15.5428   25.3713 C   0  0  0  0  0  0  0  0  0  0  0  0
    7.0537  -14.0715   25.4605 C   0  0  0  0  0  0  0  0  0  0  0  0
    6.7007  -13.5233   26.6749 C   0  0  0  0  0  0  0  0  0  0  0  0
    6.5462  -12.1627   26.8570 C   0  0  0  0  0  0  0  0  0  0  0  0
    6.7460  -11.3010   25.8042 C   0  0  0  0  0  0  0  0  0  0  0  0
    7.0989  -11.8293   24.5838 C   0  0  0  0  0  0  0  0  0  0  0  0
    7.2542  -13.2086   24.4040 C   0  0  0  0  0  0  0  0  0  0  0  0
    9.0488  -17.0190   25.7713 C   0  0  0  0  0  0  0  0  0  0  0  0
    9.0223  -16.7585   27.0221 O   0  0  0  0  0  0  0  0  0  0  0  0
    9.5758  -18.2554   25.3979 N   0  0  0  0  0  0  0  0  0  0  0  0
   10.1930  -19.1926   26.3617 C   0  0  1  0  0  0  0  0  0  0  0  0
    9.8068  -20.6032   25.9945 C   0  0  0  0  0  0  0  0  0  0  0  0
    8.3488  -20.8239   26.0372 C   0  0  0  0  0  0  0  0  0  0  0  0
    7.5539  -20.6290   27.1748 C   0  0  0  0  0  0  0  0  0  0  0  0
    6.2854  -20.9222   26.8537 N   0  0  0  0  0  0  0  0  0  0  0  0
    6.2334  -21.2957   25.5626 C   0  0  0  0  0  0  0  0  0  0  0  0
    7.4898  -21.2286   25.0909 N   0  0  0  0  0  0  0  0  0  0  0  0
   11.6401  -19.0280   26.1544 C   0  0  0  0  0  0  0  0  0  0  0  0
   12.1242  -18.1713   25.1934 O   0  0  0  0  0  0  0  0  0  0  0  0
   12.4643  -19.6546   26.8376 O   0  0  0  0  0  0  0  0  0  0  0  0
  2  1  1  6
  2  5  1  0
  3  2  1  0
  4  3  1  0
  5  7  1  0
  5  6  2  0
  7  8  1  0
  8 16  1  0
  8  9  1  1
 10  9  1  0
 10 15  1  0
 11 10  2  0
 12 11  1  0
 12 13  2  0
 13 14  1  0
 15 14  2  0
 16 17  2  0
 18 19  1  0
 18 16  1  0
 19 20  1  6
 21 20  1  0
 22 21  2  0
 23 24  1  0
 23 22  1  0
 24 25  2  0
 25 21  1  0
 26 19  1  0
 26 27  1  0
 28 26  2  0
M  END
$$$$
