CDC.pdb
     RDKit          3D

 21 20  0  0  1  0  0  0  0  0999 V2000
   15.4220  -13.2023  -13.4730 N   0  0  0  0  0  0  0  0  0  0  0  0
   14.8157  -11.9236  -13.3076 C   0  0  1  0  0  0  0  0  0  0  0  0
   13.5377  -12.0214  -12.4863 C   0  0  0  0  0  0  0  0  0  0  0  0
   12.2173  -12.7197  -13.4881 S   0  0  0  0  0  0  0  0  0  0  0  0
   15.6783  -10.9241  -12.6234 C   0  0  0  0  0  0  0  0  0  0  0  0
   16.2928  -11.3381  -11.5968 O   0  0  0  0  0  0  0  0  0  0  0  0
   15.8355   -9.6075  -13.0422 N   0  0  0  0  0  0  0  0  0  0  0  0
   16.7449   -8.6389  -12.3448 C   0  0  1  0  0  0  0  0  0  0  0  0
   17.3237   -7.7767  -13.4192 C   0  0  0  0  0  0  0  0  0  0  0  0
   18.3307   -6.8008  -13.1014 C   0  0  0  0  0  0  0  0  0  0  0  0
   18.8688   -6.0332  -13.9135 O   0  0  0  0  0  0  0  0  0  0  0  0
   15.8698   -7.8577  -11.4282 C   0  0  0  0  0  0  0  0  0  0  0  0
   14.7588   -7.4198  -11.9009 O   0  0  0  0  0  0  0  0  0  0  0  0
   18.7999   -6.6456  -11.7617 O   0  0  0  0  0  0  0  0  0  0  0  0
   16.1202   -7.5456  -10.0870 N   0  0  0  0  0  0  0  0  0  0  0  0
   15.1533   -6.7542   -9.3218 C   0  0  1  0  0  0  0  0  0  0  0  0
   14.9005   -7.4898   -8.0122 C   0  0  0  0  0  0  0  0  0  0  0  0
   13.9609   -9.0110   -8.3198 S   0  0  0  0  0  0  0  0  0  0  0  0
   15.6688   -5.3968   -9.1109 C   0  0  0  0  0  0  0  0  0  0  0  0
   14.8423   -4.4391   -8.5442 O   0  0  0  0  0  0  0  0  0  0  0  0
   16.8353   -5.0539   -9.4220 O   0  0  0  0  0  0  0  0  0  0  0  0
  2  1  1  1
  2  3  1  0
  4  3  1  0
  5  2  1  0
  6  5  2  0
  7  5  1  0
  8 12  1  0
  8  7  1  0
  8  9  1  6
 10  9  1  0
 11 10  2  0
 12 15  1  0
 13 12  2  0
 14 10  1  0
 15 16  1  0
 16 17  1  1
 16 19  1  0
 17 18  1  0
 19 21  2  0
 19 20  1  0
M  END
$$$$
