CDC.pdb
     RDKit          3D

 21 20  0  0  1  0  0  0  0  0999 V2000
   25.9181  -13.0157  -17.8362 N   0  0  0  0  0  0  0  0  0  0  0  0
   25.2040  -12.4109  -16.7618 C   0  0  1  0  0  0  0  0  0  0  0  0
   26.1554  -11.8354  -15.7221 C   0  0  0  0  0  0  0  0  0  0  0  0
   27.1410  -13.1535  -14.9970 S   0  0  0  0  0  0  0  0  0  0  0  0
   24.3105  -11.2964  -17.1749 C   0  0  0  0  0  0  0  0  0  0  0  0
   24.6866  -10.6355  -18.1872 O   0  0  0  0  0  0  0  0  0  0  0  0
   23.1273  -10.9595  -16.5267 N   0  0  0  0  0  0  0  0  0  0  0  0
   22.2082   -9.8838  -17.0263 C   0  0  1  0  0  0  0  0  0  0  0  0
   20.8228  -10.4102  -16.8367 C   0  0  0  0  0  0  0  0  0  0  0  0
   19.6860   -9.5660  -17.0869 C   0  0  0  0  0  0  0  0  0  0  0  0
   18.6470   -9.5410  -16.4102 O   0  0  0  0  0  0  0  0  0  0  0  0
   22.4678   -8.7016  -16.1595 C   0  0  0  0  0  0  0  0  0  0  0  0
   22.6028   -8.9099  -14.8994 O   0  0  0  0  0  0  0  0  0  0  0  0
   19.6807   -8.6562  -18.1875 O   0  0  0  0  0  0  0  0  0  0  0  0
   22.5895   -7.3682  -16.5676 N   0  0  0  0  0  0  0  0  0  0  0  0
   22.8398   -6.3154  -15.5798 C   0  0  1  0  0  0  0  0  0  0  0  0
   23.6436   -5.2239  -16.2744 C   0  0  0  0  0  0  0  0  0  0  0  0
   23.9204   -3.8336  -15.1422 S   0  0  0  0  0  0  0  0  0  0  0  0
   21.5687   -5.8181  -15.0416 C   0  0  0  0  0  0  0  0  0  0  0  0
   21.5006   -5.4342  -13.7114 O   0  0  0  0  0  0  0  0  0  0  0  0
   20.5260   -5.7215  -15.7333 O   0  0  0  0  0  0  0  0  0  0  0  0
  2  1  1  6
  2  3  1  0
  4  3  1  0
  5  2  1  0
  6  5  2  0
  7  5  1  0
  8 12  1  0
  8  7  1  0
  8  9  1  1
 10  9  1  0
 11 10  2  0
 12 15  1  0
 13 12  2  0
 14 10  1  0
 15 16  1  0
 16 17  1  6
 16 19  1  0
 17 18  1  0
 19 21  2  0
 19 20  1  0
M  END
$$$$
