CDC.pdb
     RDKit          3D

 21 20  0  0  1  0  0  0  0  0999 V2000
   13.3994  -11.3021   -9.3594 N   0  0  0  0  0  0  0  0  0  0  0  0
   13.5724   -9.9765   -9.8521 C   0  0  1  0  0  0  0  0  0  0  0  0
   13.1339   -8.9440   -8.8229 C   0  0  0  0  0  0  0  0  0  0  0  0
   11.3581   -9.0559   -8.5609 S   0  0  0  0  0  0  0  0  0  0  0  0
   14.9748   -9.6388  -10.2134 C   0  0  0  0  0  0  0  0  0  0  0  0
   15.8486   -9.9052   -9.3368 O   0  0  0  0  0  0  0  0  0  0  0  0
   15.3563   -9.0665  -11.4220 N   0  0  0  0  0  0  0  0  0  0  0  0
   16.7896   -8.7921  -11.7713 C   0  0  1  0  0  0  0  0  0  0  0  0
   16.9242   -9.1134  -13.2243 C   0  0  0  0  0  0  0  0  0  0  0  0
   18.1855   -8.9372  -13.8917 C   0  0  0  0  0  0  0  0  0  0  0  0
   19.2133   -8.4741  -13.3746 O   0  0  0  0  0  0  0  0  0  0  0  0
   16.9939   -7.3407  -11.5105 C   0  0  0  0  0  0  0  0  0  0  0  0
   16.1302   -6.5245  -11.9978 O   0  0  0  0  0  0  0  0  0  0  0  0
   18.3429   -9.3023  -15.2631 O   0  0  0  0  0  0  0  0  0  0  0  0
   18.0327   -6.7543  -10.7784 N   0  0  0  0  0  0  0  0  0  0  0  0
   18.1179   -5.2966  -10.6583 C   0  0  1  0  0  0  0  0  0  0  0  0
   18.4000   -4.9778   -9.1958 C   0  0  0  0  0  0  0  0  0  0  0  0
   18.7694   -3.2124   -8.9998 S   0  0  0  0  0  0  0  0  0  0  0  0
   19.1571   -4.7778  -11.5549 C   0  0  0  0  0  0  0  0  0  0  0  0
   19.1212   -3.4448  -11.9333 O   0  0  0  0  0  0  0  0  0  0  0  0
   20.0891   -5.4890  -12.0028 O   0  0  0  0  0  0  0  0  0  0  0  0
  2  1  1  1
  2  3  1  0
  4  3  1  0
  5  2  1  0
  6  5  2  0
  7  5  1  0
  8 12  1  0
  8  7  1  0
  8  9  1  6
 10  9  1  0
 11 10  2  0
 12 15  1  0
 13 12  2  0
 14 10  1  0
 15 16  1  0
 16 17  1  1
 16 19  1  0
 17 18  1  0
 19 21  2  0
 19 20  1  0
M  END
$$$$
