CDC.pdb
     RDKit          3D

 21 20  0  0  1  0  0  0  0  0999 V2000
   25.5130  -11.3244  -18.0583 N   0  0  0  0  0  0  0  0  0  0  0  0
   25.0969  -10.8637  -16.7759 C   0  0  1  0  0  0  0  0  0  0  0  0
   26.2489  -10.2124  -16.0233 C   0  0  0  0  0  0  0  0  0  0  0  0
   27.5303  -11.4300  -15.6915 S   0  0  0  0  0  0  0  0  0  0  0  0
   24.0009   -9.8595  -16.8152 C   0  0  0  0  0  0  0  0  0  0  0  0
   24.0158   -9.0667  -17.8023 O   0  0  0  0  0  0  0  0  0  0  0  0
   22.9995   -9.7547  -15.8562 N   0  0  0  0  0  0  0  0  0  0  0  0
   21.8377   -8.8157  -15.9977 C   0  0  1  0  0  0  0  0  0  0  0  0
   20.7169   -9.4342  -15.2271 C   0  0  0  0  0  0  0  0  0  0  0  0
   20.0326  -10.5885  -15.7436 C   0  0  0  0  0  0  0  0  0  0  0  0
   19.7072  -11.5862  -15.0826 O   0  0  0  0  0  0  0  0  0  0  0  0
   22.2821   -7.5343  -15.3839 C   0  0  0  0  0  0  0  0  0  0  0  0
   22.8839   -7.5980  -14.2510 O   0  0  0  0  0  0  0  0  0  0  0  0
   19.6658  -10.6638  -17.1216 O   0  0  0  0  0  0  0  0  0  0  0  0
   22.1221   -6.2476  -15.9109 N   0  0  0  0  0  0  0  0  0  0  0  0
   22.7161   -5.0937  -15.2309 C   0  0  1  0  0  0  0  0  0  0  0  0
   22.9544   -4.0197  -16.2843 C   0  0  0  0  0  0  0  0  0  0  0  0
   23.5558   -2.4975  -15.5017 S   0  0  0  0  0  0  0  0  0  0  0  0
   21.8321   -4.6348  -14.1535 C   0  0  0  0  0  0  0  0  0  0  0  0
   20.4610   -4.6336  -14.3569 O   0  0  0  0  0  0  0  0  0  0  0  0
   22.2599   -4.2377  -13.0424 O   0  0  0  0  0  0  0  0  0  0  0  0
  2  1  1  6
  2  3  1  0
  4  3  1  0
  5  2  1  0
  6  5  2  0
  7  5  1  0
  8 12  1  0
  8  7  1  0
  8  9  1  1
 10  9  1  0
 11 10  2  0
 12 15  1  0
 13 12  2  0
 14 10  1  0
 15 16  1  0
 16 17  1  6
 16 19  1  0
 17 18  1  0
 19 21  2  0
 19 20  1  0
M  END
$$$$
