CDC.pdb
     RDKit          3D

 21 20  0  0  1  0  0  0  0  0999 V2000
   18.3190  -13.0349  -17.5668 N   0  0  0  0  0  0  0  0  0  0  0  0
   19.3563  -12.2789  -16.9483 C   0  0  1  0  0  0  0  0  0  0  0  0
   20.6918  -12.5032  -17.6437 C   0  0  0  0  0  0  0  0  0  0  0  0
   21.3742  -14.0956  -17.1611 S   0  0  0  0  0  0  0  0  0  0  0  0
   19.1240  -10.8102  -16.9502 C   0  0  0  0  0  0  0  0  0  0  0  0
   18.8248  -10.3016  -18.0704 O   0  0  0  0  0  0  0  0  0  0  0  0
   19.2164  -10.0009  -15.8232 N   0  0  0  0  0  0  0  0  0  0  0  0
   19.0020   -8.5166  -15.8724 C   0  0  1  0  0  0  0  0  0  0  0  0
   17.7499   -8.2594  -15.0987 C   0  0  0  0  0  0  0  0  0  0  0  0
   17.3136   -6.9114  -14.8532 C   0  0  0  0  0  0  0  0  0  0  0  0
   17.2775   -6.0032  -15.6969 O   0  0  0  0  0  0  0  0  0  0  0  0
   20.1905   -7.9185  -15.2045 C   0  0  0  0  0  0  0  0  0  0  0  0
   20.5223   -8.3875  -14.0557 O   0  0  0  0  0  0  0  0  0  0  0  0
   16.8721   -6.5121  -13.5553 O   0  0  0  0  0  0  0  0  0  0  0  0
   21.0047   -6.8912  -15.6952 N   0  0  0  0  0  0  0  0  0  0  0  0
   22.1287   -6.3965  -14.8962 C   0  0  1  0  0  0  0  0  0  0  0  0
   23.2716   -6.0975  -15.8576 C   0  0  0  0  0  0  0  0  0  0  0  0
   23.8611   -7.6318  -16.6258 S   0  0  0  0  0  0  0  0  0  0  0  0
   21.7189   -5.2148  -14.1290 C   0  0  0  0  0  0  0  0  0  0  0  0
   22.5042   -4.7901  -13.0686 O   0  0  0  0  0  0  0  0  0  0  0  0
   20.6796   -4.5604  -14.3872 O   0  0  0  0  0  0  0  0  0  0  0  0
  2  1  1  6
  2  3  1  0
  4  3  1  0
  5  2  1  0
  6  5  2  0
  7  5  1  0
  8 12  1  0
  8  7  1  0
  8  9  1  1
 10  9  1  0
 11 10  2  0
 12 15  1  0
 13 12  2  0
 14 10  1  0
 15 16  1  0
 16 17  1  6
 16 19  1  0
 17 18  1  0
 19 21  2  0
 19 20  1  0
M  END
$$$$
