CDC.pdb
     RDKit          3D

 21 20  0  0  1  0  0  0  0  0999 V2000
   27.8784  -11.2303  -18.9856 N   0  0  0  0  0  0  0  0  0  0  0  0
   27.2851  -10.6277  -17.8390 C   0  0  1  0  0  0  0  0  0  0  0  0
   28.0315   -9.3652  -17.4310 C   0  0  0  0  0  0  0  0  0  0  0  0
   29.6699   -9.7911  -16.8236 S   0  0  0  0  0  0  0  0  0  0  0  0
   25.8636  -10.2328  -18.0249 C   0  0  0  0  0  0  0  0  0  0  0  0
   25.5930   -9.6468  -19.1141 O   0  0  0  0  0  0  0  0  0  0  0  0
   24.8570  -10.4679  -17.0948 N   0  0  0  0  0  0  0  0  0  0  0  0
   23.4431  -10.0085  -17.2981 C   0  0  1  0  0  0  0  0  0  0  0  0
   22.5832  -11.1974  -17.0155 C   0  0  0  0  0  0  0  0  0  0  0  0
   22.5322  -12.2925  -17.9459 C   0  0  0  0  0  0  0  0  0  0  0  0
   22.3363  -12.1897  -19.1663 O   0  0  0  0  0  0  0  0  0  0  0  0
   23.2266   -8.9266  -16.2986 C   0  0  0  0  0  0  0  0  0  0  0  0
   23.9653   -8.9348  -15.2480 O   0  0  0  0  0  0  0  0  0  0  0  0
   22.7126  -13.6373  -17.5010 O   0  0  0  0  0  0  0  0  0  0  0  0
   22.2993   -7.8811  -16.3765 N   0  0  0  0  0  0  0  0  0  0  0  0
   22.2674   -6.8459  -15.3401 C   0  0  1  0  0  0  0  0  0  0  0  0
   23.5774   -6.0740  -15.4299 C   0  0  0  0  0  0  0  0  0  0  0  0
   23.5795   -4.7038  -14.2406 S   0  0  0  0  0  0  0  0  0  0  0  0
   21.0954   -5.9831  -15.5267 C   0  0  0  0  0  0  0  0  0  0  0  0
   20.6355   -5.2257  -14.4608 O   0  0  0  0  0  0  0  0  0  0  0  0
   20.4795   -5.8951  -16.6167 O   0  0  0  0  0  0  0  0  0  0  0  0
  2  1  1  6
  2  3  1  0
  4  3  1  0
  5  2  1  0
  6  5  2  0
  7  5  1  0
  8 12  1  0
  8  7  1  0
  8  9  1  1
 10  9  1  0
 11 10  2  0
 12 15  1  0
 13 12  2  0
 14 10  1  0
 15 16  1  0
 16 17  1  6
 16 19  1  0
 17 18  1  0
 19 21  2  0
 19 20  1  0
M  END
$$$$
