CDC.pdb
     RDKit          3D

 21 20  0  0  1  0  0  0  0  0999 V2000
   25.5243  -12.3464  -17.4000 N   0  0  0  0  0  0  0  0  0  0  0  0
   25.0970  -11.6003  -16.2639 C   0  0  1  0  0  0  0  0  0  0  0  0
   26.1938  -10.6654  -15.7737 C   0  0  0  0  0  0  0  0  0  0  0  0
   27.5826  -11.6235  -15.1508 S   0  0  0  0  0  0  0  0  0  0  0  0
   23.9004  -10.7516  -16.5071 C   0  0  0  0  0  0  0  0  0  0  0  0
   23.8160  -10.2367  -17.6606 O   0  0  0  0  0  0  0  0  0  0  0  0
   22.9087  -10.5068  -15.5636 N   0  0  0  0  0  0  0  0  0  0  0  0
   21.6891   -9.6863  -15.8650 C   0  0  1  0  0  0  0  0  0  0  0  0
   20.5292  -10.4752  -15.3504 C   0  0  0  0  0  0  0  0  0  0  0  0
   19.1837  -10.0535  -15.6322 C   0  0  0  0  0  0  0  0  0  0  0  0
   18.1549  -10.6313  -15.2502 O   0  0  0  0  0  0  0  0  0  0  0  0
   21.8651   -8.4158  -15.1093 C   0  0  0  0  0  0  0  0  0  0  0  0
   22.3074   -8.4990  -13.9064 O   0  0  0  0  0  0  0  0  0  0  0  0
   18.9336   -8.8827  -16.4104 O   0  0  0  0  0  0  0  0  0  0  0  0
   21.6053   -7.1194  -15.5687 N   0  0  0  0  0  0  0  0  0  0  0  0
   21.7159   -5.9784  -14.6562 C   0  0  1  0  0  0  0  0  0  0  0  0
   22.7833   -5.0492  -15.2194 C   0  0  0  0  0  0  0  0  0  0  0  0
   22.8417   -3.5095  -14.2615 S   0  0  0  0  0  0  0  0  0  0  0  0
   20.4137   -5.3166  -14.5182 C   0  0  0  0  0  0  0  0  0  0  0  0
   20.1606   -4.5478  -13.3929 O   0  0  0  0  0  0  0  0  0  0  0  0
   19.5049   -5.4125  -15.3785 O   0  0  0  0  0  0  0  0  0  0  0  0
  2  1  1  6
  2  3  1  0
  4  3  1  0
  5  2  1  0
  6  5  2  0
  7  5  1  0
  8 12  1  0
  8  7  1  0
  8  9  1  1
 10  9  1  0
 11 10  2  0
 12 15  1  0
 13 12  2  0
 14 10  1  0
 15 16  1  0
 16 17  1  6
 16 19  1  0
 17 18  1  0
 19 21  2  0
 19 20  1  0
M  END
$$$$
