CDC.pdb
     RDKit          3D

 21 20  0  0  1  0  0  0  0  0999 V2000
   18.7891  -13.0234  -17.4383 N   0  0  0  0  0  0  0  0  0  0  0  0
   19.1635  -12.3042  -16.2668 C   0  0  1  0  0  0  0  0  0  0  0  0
   20.5634  -12.6880  -15.8079 C   0  0  0  0  0  0  0  0  0  0  0  0
   20.5586  -14.3676  -15.1650 S   0  0  0  0  0  0  0  0  0  0  0  0
   19.1675  -10.8267  -16.4340 C   0  0  0  0  0  0  0  0  0  0  0  0
   19.6909  -10.3950  -17.5030 O   0  0  0  0  0  0  0  0  0  0  0  0
   18.6436   -9.9319  -15.5074 N   0  0  0  0  0  0  0  0  0  0  0  0
   18.5485   -8.4575  -15.7696 C   0  0  1  0  0  0  0  0  0  0  0  0
   17.3138   -7.9967  -15.0655 C   0  0  0  0  0  0  0  0  0  0  0  0
   16.0209   -8.2018  -15.6604 C   0  0  0  0  0  0  0  0  0  0  0  0
   15.6863   -7.8333  -16.7964 O   0  0  0  0  0  0  0  0  0  0  0  0
   19.7747   -7.8646  -15.1687 C   0  0  0  0  0  0  0  0  0  0  0  0
   20.1080   -8.2594  -13.9929 O   0  0  0  0  0  0  0  0  0  0  0  0
   14.9866   -8.8771  -14.9441 O   0  0  0  0  0  0  0  0  0  0  0  0
   20.6232   -6.9152  -15.7499 N   0  0  0  0  0  0  0  0  0  0  0  0
   21.8543   -6.5107  -15.0661 C   0  0  1  0  0  0  0  0  0  0  0  0
   22.9160   -6.2910  -16.1359 C   0  0  0  0  0  0  0  0  0  0  0  0
   24.4197   -5.5993  -15.3930 S   0  0  0  0  0  0  0  0  0  0  0  0
   21.6115   -5.3071  -14.2628 C   0  0  0  0  0  0  0  0  0  0  0  0
   22.2938   -5.1416  -13.0677 O   0  0  0  0  0  0  0  0  0  0  0  0
   20.8064   -4.4080  -14.6072 O   0  0  0  0  0  0  0  0  0  0  0  0
  2  1  1  6
  2  3  1  0
  4  3  1  0
  5  2  1  0
  6  5  2  0
  7  5  1  0
  8 12  1  0
  8  7  1  0
  8  9  1  1
 10  9  1  0
 11 10  2  0
 12 15  1  0
 13 12  2  0
 14 10  1  0
 15 16  1  0
 16 17  1  6
 16 19  1  0
 17 18  1  0
 19 21  2  0
 19 20  1  0
M  END
$$$$
