CDC.pdb
     RDKit          3D

 21 20  0  0  1  0  0  0  0  0999 V2000
   18.1205  -12.8703  -14.9466 N   0  0  0  0  0  0  0  0  0  0  0  0
   19.2043  -12.7452  -15.8629 C   0  0  1  0  0  0  0  0  0  0  0  0
   19.0394  -13.6906  -17.0446 C   0  0  0  0  0  0  0  0  0  0  0  0
   18.7793  -15.3696  -16.4546 S   0  0  0  0  0  0  0  0  0  0  0  0
   19.3640  -11.3822  -16.4356 C   0  0  0  0  0  0  0  0  0  0  0  0
   20.3449  -11.2264  -17.2208 O   0  0  0  0  0  0  0  0  0  0  0  0
   18.5193  -10.3126  -16.1598 N   0  0  0  0  0  0  0  0  0  0  0  0
   18.6782   -8.9677  -16.8060 C   0  0  1  0  0  0  0  0  0  0  0  0
   17.2974   -8.5187  -17.1583 C   0  0  0  0  0  0  0  0  0  0  0  0
   17.0813   -7.2134  -17.7214 C   0  0  0  0  0  0  0  0  0  0  0  0
   15.9858   -6.6373  -17.7999 O   0  0  0  0  0  0  0  0  0  0  0  0
   19.2892   -8.0944  -15.7666 C   0  0  0  0  0  0  0  0  0  0  0  0
   18.9696   -8.3182  -14.5430 O   0  0  0  0  0  0  0  0  0  0  0  0
   18.1702   -6.4589  -18.2542 O   0  0  0  0  0  0  0  0  0  0  0  0
   20.1911   -7.0440  -15.9727 N   0  0  0  0  0  0  0  0  0  0  0  0
   20.7245   -6.2963  -14.8312 C   0  0  1  0  0  0  0  0  0  0  0  0
   21.9891   -7.0105  -14.3723 C   0  0  0  0  0  0  0  0  0  0  0  0
   22.9134   -5.9646  -13.2133 S   0  0  0  0  0  0  0  0  0  0  0  0
   20.9767   -4.9031  -15.2159 C   0  0  0  0  0  0  0  0  0  0  0  0
   21.3547   -4.6182  -16.5188 O   0  0  0  0  0  0  0  0  0  0  0  0
   20.8664   -3.9433  -14.4148 O   0  0  0  0  0  0  0  0  0  0  0  0
  2  1  1  1
  2  3  1  0
  4  3  1  0
  5  2  1  0
  6  5  2  0
  7  5  1  0
  8 12  1  0
  8  7  1  0
  8  9  1  1
 10  9  1  0
 11 10  2  0
 12 15  1  0
 13 12  2  0
 14 10  1  0
 15 16  1  0
 16 17  1  6
 16 19  1  0
 17 18  1  0
 19 21  2  0
 19 20  1  0
M  END
$$$$
