CDC.pdb
     RDKit          3D

 21 20  0  0  1  0  0  0  0  0999 V2000
   15.8656  -13.7398  -13.3505 N   0  0  0  0  0  0  0  0  0  0  0  0
   15.3072  -12.4305  -13.2898 C   0  0  1  0  0  0  0  0  0  0  0  0
   13.9093  -12.4544  -12.6876 C   0  0  0  0  0  0  0  0  0  0  0  0
   12.8023  -13.3978  -13.7455 S   0  0  0  0  0  0  0  0  0  0  0  0
   16.0974  -11.4680  -12.4771 C   0  0  0  0  0  0  0  0  0  0  0  0
   16.7199  -11.9612  -11.4910 O   0  0  0  0  0  0  0  0  0  0  0  0
   16.1813  -10.1050  -12.7393 N   0  0  0  0  0  0  0  0  0  0  0  0
   17.0737   -9.1840  -11.9603 C   0  0  1  0  0  0  0  0  0  0  0  0
   17.9128   -8.4753  -12.9734 C   0  0  0  0  0  0  0  0  0  0  0  0
   18.8878   -7.5045  -12.5557 C   0  0  0  0  0  0  0  0  0  0  0  0
   19.1733   -7.2333  -11.3796 O   0  0  0  0  0  0  0  0  0  0  0  0
   16.1598   -8.2451  -11.2534 C   0  0  0  0  0  0  0  0  0  0  0  0
   15.2164   -7.7081  -11.9398 O   0  0  0  0  0  0  0  0  0  0  0  0
   19.6269   -6.7518  -13.5179 O   0  0  0  0  0  0  0  0  0  0  0  0
   16.2079   -7.8789   -9.9033 N   0  0  0  0  0  0  0  0  0  0  0  0
   15.2117   -6.9553   -9.3545 C   0  0  1  0  0  0  0  0  0  0  0  0
   14.7460   -7.5296   -8.0229 C   0  0  0  0  0  0  0  0  0  0  0  0
   13.6731   -8.9659   -8.3013 S   0  0  0  0  0  0  0  0  0  0  0  0
   15.7919   -5.6150   -9.2139 C   0  0  0  0  0  0  0  0  0  0  0  0
   14.9778   -4.5618   -8.8274 O   0  0  0  0  0  0  0  0  0  0  0  0
   17.0039   -5.3702   -9.4289 O   0  0  0  0  0  0  0  0  0  0  0  0
  2  1  1  1
  2  3  1  0
  4  3  1  0
  5  2  1  0
  6  5  2  0
  7  5  1  0
  8 12  1  0
  8  7  1  0
  8  9  1  6
 10  9  1  0
 11 10  2  0
 12 15  1  0
 13 12  2  0
 14 10  1  0
 15 16  1  0
 16 17  1  1
 16 19  1  0
 17 18  1  0
 19 21  2  0
 19 20  1  0
M  END
$$$$
