CDC.pdb
     RDKit          3D

 21 20  0  0  1  0  0  0  0  0999 V2000
   25.6932  -21.8504  -13.5926 N   0  0  0  0  0  0  0  0  0  0  0  0
   25.5827  -21.0854  -14.7895 C   0  0  1  0  0  0  0  0  0  0  0  0
   26.2054  -21.8164  -15.9707 C   0  0  0  0  0  0  0  0  0  0  0  0
   27.8452  -22.4089  -15.5293 S   0  0  0  0  0  0  0  0  0  0  0  0
   24.1842  -20.7680  -15.1829 C   0  0  0  0  0  0  0  0  0  0  0  0
   23.7993  -21.2535  -16.2870 O   0  0  0  0  0  0  0  0  0  0  0  0
   23.3136  -19.9932  -14.4244 N   0  0  0  0  0  0  0  0  0  0  0  0
   21.8717  -19.8003  -14.7919 C   0  0  1  0  0  0  0  0  0  0  0  0
   21.1150  -19.8287  -13.5038 C   0  0  0  0  0  0  0  0  0  0  0  0
   20.8517  -21.0796  -12.8453 C   0  0  0  0  0  0  0  0  0  0  0  0
   20.3609  -21.2061  -11.7134 O   0  0  0  0  0  0  0  0  0  0  0  0
   21.7996  -18.4617  -15.4394 C   0  0  0  0  0  0  0  0  0  0  0  0
   22.2283  -17.4550  -14.7668 O   0  0  0  0  0  0  0  0  0  0  0  0
   21.1548  -22.3194  -13.4855 O   0  0  0  0  0  0  0  0  0  0  0  0
   21.3160  -18.1704  -16.7202 N   0  0  0  0  0  0  0  0  0  0  0  0
   21.3913  -16.8037  -17.2429 C   0  0  1  0  0  0  0  0  0  0  0  0
   21.4147  -16.9002  -18.7628 C   0  0  0  0  0  0  0  0  0  0  0  0
   23.1183  -17.1081  -19.3509 S   0  0  0  0  0  0  0  0  0  0  0  0
   20.2580  -16.0132  -16.7495 C   0  0  0  0  0  0  0  0  0  0  0  0
   19.0908  -16.6619  -16.3776 O   0  0  0  0  0  0  0  0  0  0  0  0
   20.2918  -14.7629  -16.6458 O   0  0  0  0  0  0  0  0  0  0  0  0
  2  1  1  1
  2  3  1  0
  4  3  1  0
  5  2  1  0
  6  5  2  0
  7  5  1  0
  8 12  1  0
  8  7  1  0
  8  9  1  1
 10  9  1  0
 11 10  2  0
 12 15  1  0
 13 12  2  0
 14 10  1  0
 15 16  1  0
 16 17  1  6
 16 19  1  0
 17 18  1  0
 19 21  2  0
 19 20  1  0
M  END
$$$$
