CDC.pdb
     RDKit          3D

 21 20  0  0  1  0  0  0  0  0999 V2000
   23.9780  -11.2682  -18.0759 N   0  0  0  0  0  0  0  0  0  0  0  0
   23.3698  -10.8742  -16.8492 C   0  0  1  0  0  0  0  0  0  0  0  0
   24.4161  -10.4730  -15.8188 C   0  0  0  0  0  0  0  0  0  0  0  0
   25.4159  -11.9000  -15.3730 S   0  0  0  0  0  0  0  0  0  0  0  0
   22.4396   -9.7207  -16.9731 C   0  0  0  0  0  0  0  0  0  0  0  0
   22.7555   -8.8488  -17.8350 O   0  0  0  0  0  0  0  0  0  0  0  0
   21.2841   -9.5612  -16.2160 N   0  0  0  0  0  0  0  0  0  0  0  0
   20.3161   -8.4374  -16.4429 C   0  0  1  0  0  0  0  0  0  0  0  0
   18.9683   -8.9846  -16.1012 C   0  0  0  0  0  0  0  0  0  0  0  0
   17.8056   -8.1413  -16.1679 C   0  0  0  0  0  0  0  0  0  0  0  0
   16.7886   -8.2634  -15.4685 O   0  0  0  0  0  0  0  0  0  0  0  0
   20.7249   -7.3609  -15.4993 C   0  0  0  0  0  0  0  0  0  0  0  0
   21.0522   -7.7111  -14.3078 O   0  0  0  0  0  0  0  0  0  0  0  0
   17.7443   -7.0541  -17.0915 O   0  0  0  0  0  0  0  0  0  0  0  0
   20.8004   -5.9893  -15.7677 N   0  0  0  0  0  0  0  0  0  0  0  0
   21.1101   -5.0440  -14.6919 C   0  0  1  0  0  0  0  0  0  0  0  0
   22.4447   -4.3928  -15.0308 C   0  0  0  0  0  0  0  0  0  0  0  0
   22.7592   -2.9942  -13.9189 S   0  0  0  0  0  0  0  0  0  0  0  0
   20.0271   -4.0634  -14.5566 C   0  0  0  0  0  0  0  0  0  0  0  0
   19.8755   -3.3830  -13.3585 O   0  0  0  0  0  0  0  0  0  0  0  0
   19.2200   -3.8061  -15.4826 O   0  0  0  0  0  0  0  0  0  0  0  0
  2  1  1  6
  2  3  1  0
  4  3  1  0
  5  2  1  0
  6  5  2  0
  7  5  1  0
  8 12  1  0
  8  7  1  0
  8  9  1  1
 10  9  1  0
 11 10  2  0
 12 15  1  0
 13 12  2  0
 14 10  1  0
 15 16  1  0
 16 17  1  6
 16 19  1  0
 17 18  1  0
 19 21  2  0
 19 20  1  0
M  END
$$$$
