CDC.pdb
     RDKit          3D

 21 20  0  0  1  0  0  0  0  0999 V2000
   16.0404  -11.9571  -13.9860 N   0  0  0  0  0  0  0  0  0  0  0  0
   16.0815  -10.8061  -14.8247 C   0  0  1  0  0  0  0  0  0  0  0  0
   14.7210  -10.1269  -14.8962 C   0  0  0  0  0  0  0  0  0  0  0  0
   13.7240  -10.8863  -16.1861 S   0  0  0  0  0  0  0  0  0  0  0  0
   17.0472   -9.7649  -14.3837 C   0  0  0  0  0  0  0  0  0  0  0  0
   16.9742   -9.4269  -13.1657 O   0  0  0  0  0  0  0  0  0  0  0  0
   17.9899   -9.1686  -15.2139 N   0  0  0  0  0  0  0  0  0  0  0  0
   18.9506   -8.1232  -14.7285 C   0  0  1  0  0  0  0  0  0  0  0  0
   20.3097   -8.6040  -15.1214 C   0  0  0  0  0  0  0  0  0  0  0  0
   21.4697   -7.7986  -14.8510 C   0  0  0  0  0  0  0  0  0  0  0  0
   22.6345   -8.0893  -15.1622 O   0  0  0  0  0  0  0  0  0  0  0  0
   18.5818   -6.8749  -15.4510 C   0  0  0  0  0  0  0  0  0  0  0  0
   18.4315   -6.9504  -16.7243 O   0  0  0  0  0  0  0  0  0  0  0  0
   21.3482   -6.5487  -14.1713 O   0  0  0  0  0  0  0  0  0  0  0  0
   18.3708   -5.6091  -14.8921 N   0  0  0  0  0  0  0  0  0  0  0  0
   18.0812   -4.4614  -15.7557 C   0  0  1  0  0  0  0  0  0  0  0  0
   16.9340   -3.6905  -15.1157 C   0  0  0  0  0  0  0  0  0  0  0  0
   15.4434   -4.7229  -15.0540 S   0  0  0  0  0  0  0  0  0  0  0  0
   19.2852   -3.6392  -15.9203 C   0  0  0  0  0  0  0  0  0  0  0  0
   19.2131   -2.4752  -16.6696 O   0  0  0  0  0  0  0  0  0  0  0  0
   20.3919   -3.9401  -15.4106 O   0  0  0  0  0  0  0  0  0  0  0  0
  2  1  1  1
  2  3  1  0
  4  3  1  0
  5  2  1  0
  6  5  2  0
  7  5  1  0
  8 12  1  0
  8  7  1  0
  8  9  1  6
 10  9  1  0
 11 10  2  0
 12 15  1  0
 13 12  2  0
 14 10  1  0
 15 16  1  0
 16 17  1  1
 16 19  1  0
 17 18  1  0
 19 21  2  0
 19 20  1  0
M  END
$$$$
