HCI.pdb
     RDKit          3D

 25 25  0  0  1  0  0  0  0  0999 V2000
   17.8252  -24.3908    2.6445 N   0  0  0  0  0  0  0  0  0  0  0  0
   18.2814  -23.6386    3.8065 C   0  0  1  0  0  0  0  0  0  0  0  0
   19.5927  -24.2185    4.2495 C   0  0  0  0  0  0  0  0  0  0  0  0
   19.4327  -25.5520    4.8559 C   0  0  0  0  0  0  0  0  0  0  0  0
   19.8003  -26.7941    4.4231 C   0  0  0  0  0  0  0  0  0  0  0  0
   19.4238  -27.6753    5.3467 N   0  0  0  0  0  0  0  0  0  0  0  0
   18.8289  -27.0551    6.3573 C   0  0  0  0  0  0  0  0  0  0  0  0
   18.8351  -25.7469    6.0537 N   0  0  0  0  0  0  0  0  0  0  0  0
   18.4271  -22.2133    3.4809 C   0  0  0  0  0  0  0  0  0  0  0  0
   18.6431  -21.8373    2.3017 O   0  0  0  0  0  0  0  0  0  0  0  0
   18.3276  -21.2403    4.4833 N   0  0  0  0  0  0  0  0  0  0  0  0
   18.2350  -19.8310    4.2826 C   0  0  1  0  0  0  0  0  0  0  0  0
   17.1483  -19.4093    3.3401 C   0  0  0  0  0  0  0  0  0  0  0  0
   17.3179  -17.6448    3.0077 S   0  0  0  0  0  0  0  0  0  0  0  0
   18.1486  -19.1407    5.5985 C   0  0  0  0  0  0  0  0  0  0  0  0
   17.2615  -19.4762    6.4336 O   0  0  0  0  0  0  0  0  0  0  0  0
   22.3426  -18.2872    8.5520 C   0  0  0  0  0  0  0  0  0  0  0  0
   20.9073  -18.5501    8.0933 C   0  0  0  0  0  0  0  0  0  0  0  0
   20.1732  -17.2452    7.8973 C   0  0  2  0  0  0  0  0  0  0  0  0
   20.1352  -16.5282    9.2275 C   0  0  0  0  0  0  0  0  0  0  0  0
   18.8310  -17.4002    7.2534 C   0  0  2  0  0  0  0  0  0  0  0  0
   19.0349  -18.0976    5.9736 N   0  0  0  0  0  0  0  0  0  0  0  0
   18.1359  -16.1088    7.0207 C   0  0  0  0  0  0  0  0  0  0  0  0
   18.0328  -15.5552    5.7415 O   0  0  0  0  0  0  0  0  0  0  0  0
   17.6028  -15.4373    7.9373 O   0  0  0  0  0  0  0  0  0  0  0  0
  2  1  1  6
  3  2  1  0
  4  3  1  0
  5  4  2  0
  6  5  1  0
  6  7  1  0
  7  8  2  0
  8  4  1  0
  9 10  2  0
  9  2  1  0
 11  9  1  0
 12 11  1  0
 13 14  1  0
 12 13  1  6
 15 12  1  0
 15 22  1  0
 16 15  2  0
 18 17  1  0
 19 18  1  0
 19 20  1  1
 21 19  1  0
 21 22  1  6
 21 23  1  0
 23 24  1  0
 25 23  2  0
M  END
$$$$
