HCI.pdb
     RDKit          3D

 25 25  0  0  1  0  0  0  0  0999 V2000
   28.2323  -19.2993  -15.8974 N   0  0  0  0  0  0  0  0  0  0  0  0
   27.4744  -18.9385  -14.7059 C   0  0  1  0  0  0  0  0  0  0  0  0
   26.4765  -17.8861  -15.0913 C   0  0  0  0  0  0  0  0  0  0  0  0
   27.1268  -16.6618  -15.5910 C   0  0  0  0  0  0  0  0  0  0  0  0
   27.5579  -16.3094  -16.8381 C   0  0  0  0  0  0  0  0  0  0  0  0
   28.0792  -15.0873  -16.7587 N   0  0  0  0  0  0  0  0  0  0  0  0
   28.0030  -14.6358  -15.5136 C   0  0  0  0  0  0  0  0  0  0  0  0
   27.4160  -15.6068  -14.7952 N   0  0  0  0  0  0  0  0  0  0  0  0
   26.7978  -20.1145  -14.1422 C   0  0  0  0  0  0  0  0  0  0  0  0
   26.3200  -21.0059  -14.8875 O   0  0  0  0  0  0  0  0  0  0  0  0
   26.6712  -20.2664  -12.7556 N   0  0  0  0  0  0  0  0  0  0  0  0
   25.8175  -21.1914  -12.0843 C   0  0  1  0  0  0  0  0  0  0  0  0
   26.0462  -21.2855  -10.6059 C   0  0  0  0  0  0  0  0  0  0  0  0
   25.5873  -19.7164   -9.8444 S   0  0  0  0  0  0  0  0  0  0  0  0
   24.3975  -20.9026  -12.4248 C   0  0  0  0  0  0  0  0  0  0  0  0
   24.0336  -19.7188  -12.6753 O   0  0  0  0  0  0  0  0  0  0  0  0
   20.6548  -21.0691  -16.0225 C   0  0  0  0  0  0  0  0  0  0  0  0
   20.6682  -22.2549  -15.0564 C   0  0  0  0  0  0  0  0  0  0  0  0
   22.0129  -22.3619  -14.3779 C   0  0  2  0  0  0  0  0  0  0  0  0
   22.3584  -23.8285  -14.2581 C   0  0  0  0  0  0  0  0  0  0  0  0
   22.0966  -21.6117  -13.0854 C   0  0  2  0  0  0  0  0  0  0  0  0
   23.4050  -21.9154  -12.4843 N   0  0  0  0  0  0  0  0  0  0  0  0
   21.0103  -21.9549  -12.1329 C   0  0  0  0  0  0  0  0  0  0  0  0
   21.1837  -22.9323  -11.1490 O   0  0  0  0  0  0  0  0  0  0  0  0
   19.8832  -21.4029  -12.1438 O   0  0  0  0  0  0  0  0  0  0  0  0
  2  1  1  6
  3  2  1  0
  4  3  1  0
  5  4  2  0
  6  5  1  0
  6  7  1  0
  7  8  2  0
  8  4  1  0
  9 10  2  0
  9  2  1  0
 11  9  1  0
 12 11  1  0
 13 14  1  0
 12 13  1  1
 15 12  1  0
 15 22  1  0
 16 15  2  0
 18 17  1  0
 19 18  1  0
 19 20  1  1
 21 19  1  0
 21 22  1  1
 21 23  1  0
 23 24  1  0
 25 23  2  0
M  END
$$$$
