HCI.pdb
     RDKit          3D

 25 25  0  0  1  0  0  0  0  0999 V2000
   15.6625  -14.2885  -18.4801 N   0  0  0  0  0  0  0  0  0  0  0  0
   16.6001  -13.9099  -17.4303 C   0  0  1  0  0  0  0  0  0  0  0  0
   17.6983  -14.9321  -17.3976 C   0  0  0  0  0  0  0  0  0  0  0  0
   17.2033  -16.2655  -17.0121 C   0  0  0  0  0  0  0  0  0  0  0  0
   17.0025  -17.4029  -17.7410 C   0  0  0  0  0  0  0  0  0  0  0  0
   16.5391  -18.3389  -16.9160 N   0  0  0  0  0  0  0  0  0  0  0  0
   16.4322  -17.8543  -15.6857 C   0  0  0  0  0  0  0  0  0  0  0  0
   16.8417  -16.5767  -15.7463 N   0  0  0  0  0  0  0  0  0  0  0  0
   17.1460  -12.5685  -17.6776 C   0  0  0  0  0  0  0  0  0  0  0  0
   17.4735  -12.2058  -18.8351 O   0  0  0  0  0  0  0  0  0  0  0  0
   17.3131  -11.6624  -16.6227 N   0  0  0  0  0  0  0  0  0  0  0  0
   17.7833  -10.3200  -16.7324 C   0  0  1  0  0  0  0  0  0  0  0  0
   16.6997   -9.2923  -16.8621 C   0  0  0  0  0  0  0  0  0  0  0  0
   15.6311   -9.3866  -15.4124 S   0  0  0  0  0  0  0  0  0  0  0  0
   18.7204  -10.0231  -15.6147 C   0  0  0  0  0  0  0  0  0  0  0  0
   18.4942  -10.4810  -14.4589 O   0  0  0  0  0  0  0  0  0  0  0  0
   24.1758  -10.5338  -13.8537 C   0  0  0  0  0  0  0  0  0  0  0  0
   22.9913   -9.5837  -13.6704 C   0  0  0  0  0  0  0  0  0  0  0  0
   21.9905   -9.7737  -14.7850 C   0  0  2  0  0  0  0  0  0  0  0  0
   22.7069   -9.5497  -16.0970 C   0  0  0  0  0  0  0  0  0  0  0  0
   20.7482   -8.9545  -14.6248 C   0  0  2  0  0  0  0  0  0  0  0  0
   19.8859   -9.2313  -15.7848 N   0  0  0  0  0  0  0  0  0  0  0  0
   21.0117   -7.4963  -14.5270 C   0  0  0  0  0  0  0  0  0  0  0  0
   20.6436   -6.6175  -15.5495 O   0  0  0  0  0  0  0  0  0  0  0  0
   21.5721   -6.9613  -13.5395 O   0  0  0  0  0  0  0  0  0  0  0  0
  2  1  1  6
  3  2  1  0
  4  3  1  0
  5  4  2  0
  6  5  1  0
  6  7  1  0
  7  8  2  0
  8  4  1  0
  9 10  2  0
  9  2  1  0
 11  9  1  0
 12 11  1  0
 13 14  1  0
 12 13  1  1
 15 12  1  0
 15 22  1  0
 16 15  2  0
 18 17  1  0
 19 18  1  0
 19 20  1  6
 21 19  1  0
 21 22  1  6
 21 23  1  0
 23 24  1  0
 25 23  2  0
M  END
$$$$
