HCI.pdb
     RDKit          3D

 25 25  0  0  1  0  0  0  0  0999 V2000
   17.8619  -11.3789  -14.9238 N   0  0  0  0  0  0  0  0  0  0  0  0
   16.7293  -10.7612  -14.2455 C   0  0  1  0  0  0  0  0  0  0  0  0
   15.8273  -11.8563  -13.7565 C   0  0  0  0  0  0  0  0  0  0  0  0
   15.1558  -12.5579  -14.8647 C   0  0  0  0  0  0  0  0  0  0  0  0
   15.0512  -13.8862  -15.1650 C   0  0  0  0  0  0  0  0  0  0  0  0
   14.3344  -13.9963  -16.2810 N   0  0  0  0  0  0  0  0  0  0  0  0
   13.9718  -12.7959  -16.7140 C   0  0  0  0  0  0  0  0  0  0  0  0
   14.4786  -11.9106  -15.8405 N   0  0  0  0  0  0  0  0  0  0  0  0
   17.1844   -9.9244  -13.1269 C   0  0  0  0  0  0  0  0  0  0  0  0
   18.0073  -10.3616  -12.2841 O   0  0  0  0  0  0  0  0  0  0  0  0
   16.7078   -8.6161  -12.9768 N   0  0  0  0  0  0  0  0  0  0  0  0
   17.1753   -7.6526  -12.0343 C   0  0  1  0  0  0  0  0  0  0  0  0
   18.1343   -6.6481  -12.5986 C   0  0  0  0  0  0  0  0  0  0  0  0
   17.3657   -5.8421  -14.0171 S   0  0  0  0  0  0  0  0  0  0  0  0
   16.0167   -7.0145  -11.3516 C   0  0  0  0  0  0  0  0  0  0  0  0
   14.9506   -6.7872  -11.9907 O   0  0  0  0  0  0  0  0  0  0  0  0
   12.2472   -7.0247   -6.9509 C   0  0  0  0  0  0  0  0  0  0  0  0
   13.0688   -6.0152   -7.7541 C   0  0  0  0  0  0  0  0  0  0  0  0
   14.2242   -6.7064   -8.4376 C   0  0  2  0  0  0  0  0  0  0  0  0
   15.1190   -7.2868   -7.3666 C   0  0  0  0  0  0  0  0  0  0  0  0
   14.9433   -5.8426   -9.4260 C   0  0  2  0  0  0  0  0  0  0  0  0
   16.0487   -6.6381   -9.9835 N   0  0  0  0  0  0  0  0  0  0  0  0
   15.4714   -4.5860   -8.8366 C   0  0  0  0  0  0  0  0  0  0  0  0
   16.8436   -4.3757   -8.6748 O   0  0  0  0  0  0  0  0  0  0  0  0
   14.7380   -3.6437   -8.4502 O   0  0  0  0  0  0  0  0  0  0  0  0
  2  1  1  1
  3  2  1  0
  4  3  1  0
  5  4  2  0
  6  5  1  0
  6  7  1  0
  7  8  2  0
  8  4  1  0
  9 10  2  0
  9  2  1  0
 11  9  1  0
 12 11  1  0
 13 14  1  0
 12 13  1  6
 15 12  1  0
 15 22  1  0
 16 15  2  0
 18 17  1  0
 19 18  1  0
 19 20  1  1
 21 19  1  0
 21 22  1  1
 21 23  1  0
 23 24  1  0
 25 23  2  0
M  END
$$$$
