HCI.pdb
     RDKit          3D

 25 25  0  0  1  0  0  0  0  0999 V2000
   15.2504  -12.2032  -16.3109 N   0  0  0  0  0  0  0  0  0  0  0  0
   15.5807  -11.9240  -14.9191 C   0  0  1  0  0  0  0  0  0  0  0  0
   16.6871  -12.8514  -14.5093 C   0  0  0  0  0  0  0  0  0  0  0  0
   17.7309  -12.9604  -15.5438 C   0  0  0  0  0  0  0  0  0  0  0  0
   17.7460  -13.5971  -16.7520 C   0  0  0  0  0  0  0  0  0  0  0  0
   18.9374  -13.3887  -17.3075 N   0  0  0  0  0  0  0  0  0  0  0  0
   19.6920  -12.6447  -16.5094 C   0  0  0  0  0  0  0  0  0  0  0  0
   18.9475  -12.3815  -15.4232 N   0  0  0  0  0  0  0  0  0  0  0  0
   15.9883  -10.5226  -14.7507 C   0  0  0  0  0  0  0  0  0  0  0  0
   16.6085   -9.9149  -15.6589 O   0  0  0  0  0  0  0  0  0  0  0  0
   15.6922   -9.8322  -13.5687 N   0  0  0  0  0  0  0  0  0  0  0  0
   15.8911   -8.4390  -13.3348 C   0  0  1  0  0  0  0  0  0  0  0  0
   14.6260   -7.6473  -13.1943 C   0  0  0  0  0  0  0  0  0  0  0  0
   13.6869   -7.7730  -14.7288 S   0  0  0  0  0  0  0  0  0  0  0  0
   16.8137   -8.2499  -12.1822 C   0  0  0  0  0  0  0  0  0  0  0  0
   16.7422   -9.0165  -11.1803 O   0  0  0  0  0  0  0  0  0  0  0  0
   21.9957   -7.6384  -12.9245 C   0  0  0  0  0  0  0  0  0  0  0  0
   20.5675   -7.9456  -12.4715 C   0  0  0  0  0  0  0  0  0  0  0  0
   20.0780   -6.8773  -11.5233 C   0  0  2  0  0  0  0  0  0  0  0  0
   21.1241   -6.6946  -10.4477 C   0  0  0  0  0  0  0  0  0  0  0  0
   18.7007   -7.1275  -10.9935 C   0  0  2  0  0  0  0  0  0  0  0  0
   17.7955   -7.2256  -12.1497 N   0  0  0  0  0  0  0  0  0  0  0  0
   18.2243   -6.0699  -10.0663 C   0  0  0  0  0  0  0  0  0  0  0  0
   18.3038   -6.2246   -8.6795 O   0  0  0  0  0  0  0  0  0  0  0  0
   17.7269   -4.9850  -10.4545 O   0  0  0  0  0  0  0  0  0  0  0  0
  2  1  1  6
  3  2  1  0
  4  3  1  0
  5  4  2  0
  6  5  1  0
  6  7  1  0
  7  8  2  0
  8  4  1  0
  9 10  2  0
  9  2  1  0
 11  9  1  0
 12 11  1  0
 13 14  1  0
 12 13  1  1
 15 12  1  0
 15 22  1  0
 16 15  2  0
 18 17  1  0
 19 18  1  0
 19 20  1  1
 21 19  1  0
 21 22  1  6
 21 23  1  0
 23 24  1  0
 25 23  2  0
M  END
$$$$
