HCI.pdb
     RDKit          3D

 25 25  0  0  1  0  0  0  0  0999 V2000
   22.6533  -20.4156  -17.5954 N   0  0  0  0  0  0  0  0  0  0  0  0
   23.1126  -19.5834  -16.4905 C   0  0  1  0  0  0  0  0  0  0  0  0
   21.9166  -19.2006  -15.6690 C   0  0  0  0  0  0  0  0  0  0  0  0
   21.1284  -18.1289  -16.3029 C   0  0  0  0  0  0  0  0  0  0  0  0
   19.9859  -18.1656  -17.0503 C   0  0  0  0  0  0  0  0  0  0  0  0
   19.6790  -16.9151  -17.3871 N   0  0  0  0  0  0  0  0  0  0  0  0
   20.5747  -16.0727  -16.8890 C   0  0  0  0  0  0  0  0  0  0  0  0
   21.4671  -16.8219  -16.2213 N   0  0  0  0  0  0  0  0  0  0  0  0
   24.0976  -20.3020  -15.6707 C   0  0  0  0  0  0  0  0  0  0  0  0
   23.8727  -21.4688  -15.2627 O   0  0  0  0  0  0  0  0  0  0  0  0
   25.3132  -19.6978  -15.3259 N   0  0  0  0  0  0  0  0  0  0  0  0
   26.3632  -20.2927  -14.5652 C   0  0  1  0  0  0  0  0  0  0  0  0
   27.7351  -20.0818  -15.1314 C   0  0  0  0  0  0  0  0  0  0  0  0
   28.0152  -18.3119  -15.3351 S   0  0  0  0  0  0  0  0  0  0  0  0
   26.2601  -19.8623  -13.1441 C   0  0  0  0  0  0  0  0  0  0  0  0
   25.6400  -18.8024  -12.8459 O   0  0  0  0  0  0  0  0  0  0  0  0
   23.2592  -21.5146   -9.4646 C   0  0  0  0  0  0  0  0  0  0  0  0
   24.7499  -21.5451   -9.8055 C   0  0  0  0  0  0  0  0  0  0  0  0
   25.1789  -20.2234  -10.3963 C   0  0  2  0  0  0  0  0  0  0  0  0
   24.2958  -19.9384  -11.5895 C   0  0  0  0  0  0  0  0  0  0  0  0
   26.6437  -20.1435  -10.6931 C   0  0  2  0  0  0  0  0  0  0  0  0
   26.8376  -20.6006  -12.0784 N   0  0  0  0  0  0  0  0  0  0  0  0
   27.4774  -20.9557   -9.7710 C   0  0  0  0  0  0  0  0  0  0  0  0
   27.6742  -20.5776   -8.4399 O   0  0  0  0  0  0  0  0  0  0  0  0
   28.0523  -22.0171  -10.1147 O   0  0  0  0  0  0  0  0  0  0  0  0
  2  1  1  6
  3  2  1  0
  4  3  1  0
  5  4  2  0
  6  5  1  0
  6  7  1  0
  7  8  2  0
  8  4  1  0
  9 10  2  0
  9  2  1  0
 11  9  1  0
 12 11  1  0
 13 14  1  0
 12 13  1  6
 15 12  1  0
 15 22  1  0
 16 15  2  0
 18 17  1  0
 19 18  1  0
 19 20  1  6
 21 19  1  0
 21 22  1  6
 21 23  1  0
 23 24  1  0
 25 23  2  0
M  END
$$$$
