HCI.pdb
     RDKit          3D

 25 25  0  0  1  0  0  0  0  0999 V2000
   25.8962  -20.4163  -16.4425 N   0  0  0  0  0  0  0  0  0  0  0  0
   26.6430  -20.6390  -15.2108 C   0  0  1  0  0  0  0  0  0  0  0  0
   28.0558  -20.1858  -15.4359 C   0  0  0  0  0  0  0  0  0  0  0  0
   28.7722  -21.0551  -16.3860 C   0  0  0  0  0  0  0  0  0  0  0  0
   28.3691  -22.1539  -17.0899 C   0  0  0  0  0  0  0  0  0  0  0  0
   29.4036  -22.5768  -17.8126 N   0  0  0  0  0  0  0  0  0  0  0  0
   30.4573  -21.7979  -17.6054 C   0  0  0  0  0  0  0  0  0  0  0  0
   30.0669  -20.8608  -16.7262 N   0  0  0  0  0  0  0  0  0  0  0  0
   26.0343  -19.9064  -14.0922 C   0  0  0  0  0  0  0  0  0  0  0  0
   25.5744  -18.7480  -14.2505 O   0  0  0  0  0  0  0  0  0  0  0  0
   25.9540  -20.4875  -12.8204 N   0  0  0  0  0  0  0  0  0  0  0  0
   25.0523  -20.1146  -11.7797 C   0  0  1  0  0  0  0  0  0  0  0  0
   23.6068  -20.3523  -12.0972 C   0  0  0  0  0  0  0  0  0  0  0  0
   22.6010  -19.7232  -10.7389 S   0  0  0  0  0  0  0  0  0  0  0  0
   25.4685  -20.7539  -10.5015 C   0  0  0  0  0  0  0  0  0  0  0  0
   25.5730  -22.0109  -10.4258 O   0  0  0  0  0  0  0  0  0  0  0  0
   28.5876  -18.2457   -6.7185 C   0  0  0  0  0  0  0  0  0  0  0  0
   28.0073  -19.3272   -7.6311 C   0  0  0  0  0  0  0  0  0  0  0  0
   26.6545  -19.7681   -7.1257 C   0  0  2  0  0  0  0  0  0  0  0  0
   26.8342  -20.3088   -5.7257 C   0  0  0  0  0  0  0  0  0  0  0  0
   25.9420  -20.7045   -8.0506 C   0  0  2  0  0  0  0  0  0  0  0  0
   25.7617  -20.0045   -9.3325 N   0  0  0  0  0  0  0  0  0  0  0  0
   24.6262  -21.1579   -7.5324 C   0  0  0  0  0  0  0  0  0  0  0  0
   23.4352  -20.5400   -7.9235 O   0  0  0  0  0  0  0  0  0  0  0  0
   24.4938  -22.1083   -6.7234 O   0  0  0  0  0  0  0  0  0  0  0  0
  2  1  1  6
  3  2  1  0
  4  3  1  0
  5  4  2  0
  6  5  1  0
  6  7  1  0
  7  8  2  0
  8  4  1  0
  9 10  2  0
  9  2  1  0
 11  9  1  0
 12 11  1  0
 13 14  1  0
 12 13  1  6
 15 12  1  0
 15 22  1  0
 16 15  2  0
 18 17  1  0
 19 18  1  0
 19 20  1  1
 21 19  1  0
 21 22  1  6
 21 23  1  0
 23 24  1  0
 25 23  2  0
M  END
$$$$
