HCI.pdb
     RDKit          3D

 25 25  0  0  1  0  0  0  0  0999 V2000
   23.5029  -11.8648  -20.8557 N   0  0  0  0  0  0  0  0  0  0  0  0
   24.0824  -10.8551  -19.9788 C   0  0  1  0  0  0  0  0  0  0  0  0
   25.1521  -10.1334  -20.7448 C   0  0  0  0  0  0  0  0  0  0  0  0
   26.2688  -11.0230  -21.1097 C   0  0  0  0  0  0  0  0  0  0  0  0
   27.3117  -11.5148  -20.3778 C   0  0  0  0  0  0  0  0  0  0  0  0
   28.0483  -12.2792  -21.1807 N   0  0  0  0  0  0  0  0  0  0  0  0
   27.5253  -12.3019  -22.3997 C   0  0  0  0  0  0  0  0  0  0  0  0
   26.4290  -11.5275  -22.3546 N   0  0  0  0  0  0  0  0  0  0  0  0
   23.0530   -9.9158  -19.5133 C   0  0  0  0  0  0  0  0  0  0  0  0
   22.2425   -9.3923  -20.3180 O   0  0  0  0  0  0  0  0  0  0  0  0
   22.9540   -9.5833  -18.1564 N   0  0  0  0  0  0  0  0  0  0  0  0
   21.9599   -8.7487  -17.5643 C   0  0  1  0  0  0  0  0  0  0  0  0
   20.8854   -9.4910  -16.8286 C   0  0  0  0  0  0  0  0  0  0  0  0
   19.7786   -8.2966  -16.0534 S   0  0  0  0  0  0  0  0  0  0  0  0
   22.6131   -7.7085  -16.7236 C   0  0  0  0  0  0  0  0  0  0  0  0
   23.4326   -8.0443  -15.8222 O   0  0  0  0  0  0  0  0  0  0  0  0
   24.3127   -2.9277  -18.5429 C   0  0  0  0  0  0  0  0  0  0  0  0
   24.2123   -4.2273  -17.7426 C   0  0  0  0  0  0  0  0  0  0  0  0
   23.1812   -4.0895  -16.6480 C   0  0  2  0  0  0  0  0  0  0  0  0
   23.6023   -2.9464  -15.7531 C   0  0  0  0  0  0  0  0  0  0  0  0
   22.9078   -5.3651  -15.9143 C   0  0  2  0  0  0  0  0  0  0  0  0
   22.3561   -6.3223  -16.8865 N   0  0  0  0  0  0  0  0  0  0  0  0
   21.9678   -5.2011  -14.7765 C   0  0  0  0  0  0  0  0  0  0  0  0
   20.5832   -5.2026  -14.9672 O   0  0  0  0  0  0  0  0  0  0  0  0
   22.3426   -5.0527  -13.5879 O   0  0  0  0  0  0  0  0  0  0  0  0
  2  1  1  6
  3  2  1  0
  4  3  1  0
  5  4  2  0
  6  5  1  0
  6  7  1  0
  7  8  2  0
  8  4  1  0
  9 10  2  0
  9  2  1  0
 11  9  1  0
 12 11  1  0
 13 14  1  0
 12 13  1  1
 15 12  1  0
 15 22  1  0
 16 15  2  0
 18 17  1  0
 19 18  1  0
 19 20  1  1
 21 19  1  0
 21 22  1  6
 21 23  1  0
 23 24  1  0
 25 23  2  0
M  END
$$$$
