HCI.pdb
     RDKit          3D

 25 25  0  0  1  0  0  0  0  0999 V2000
   18.0853  -24.5215  -12.5244 N   0  0  0  0  0  0  0  0  0  0  0  0
   18.4321  -23.9828  -11.2153 C   0  0  1  0  0  0  0  0  0  0  0  0
   18.1850  -22.5028  -11.2417 C   0  0  0  0  0  0  0  0  0  0  0  0
   18.9492  -21.8320  -12.3083 C   0  0  0  0  0  0  0  0  0  0  0  0
   20.2899  -21.6297  -12.4722 C   0  0  0  0  0  0  0  0  0  0  0  0
   20.4652  -20.9650  -13.6119 N   0  0  0  0  0  0  0  0  0  0  0  0
   19.2950  -20.7296  -14.1907 C   0  0  0  0  0  0  0  0  0  0  0  0
   18.3617  -21.2643  -13.3865 N   0  0  0  0  0  0  0  0  0  0  0  0
   17.6359  -24.6237  -10.1599 C   0  0  0  0  0  0  0  0  0  0  0  0
   16.4094  -24.3811  -10.0363 O   0  0  0  0  0  0  0  0  0  0  0  0
   18.2311  -25.5227   -9.2659 N   0  0  0  0  0  0  0  0  0  0  0  0
   17.5473  -26.3758   -8.3494 C   0  0  1  0  0  0  0  0  0  0  0  0
   17.7414  -27.8404   -8.6031 C   0  0  0  0  0  0  0  0  0  0  0  0
   19.4835  -28.1443   -8.9569 S   0  0  0  0  0  0  0  0  0  0  0  0
   17.8876  -25.9885   -6.9531 C   0  0  0  0  0  0  0  0  0  0  0  0
   19.0629  -25.6253   -6.6643 O   0  0  0  0  0  0  0  0  0  0  0  0
   14.3366  -23.7003   -3.4110 C   0  0  0  0  0  0  0  0  0  0  0  0
   15.6290  -24.0091   -4.1685 C   0  0  0  0  0  0  0  0  0  0  0  0
   16.1882  -25.3409   -3.7283 C   0  0  2  0  0  0  0  0  0  0  0  0
   16.4300  -25.2744   -2.2377 C   0  0  0  0  0  0  0  0  0  0  0  0
   17.3808  -25.7835   -4.5169 C   0  0  2  0  0  0  0  0  0  0  0  0
   16.9347  -26.0066   -5.9015 N   0  0  0  0  0  0  0  0  0  0  0  0
   18.0152  -27.0163   -3.9850 C   0  0  0  0  0  0  0  0  0  0  0  0
   19.1270  -26.9591   -3.1399 O   0  0  0  0  0  0  0  0  0  0  0  0
   17.6062  -28.1726   -4.2512 O   0  0  0  0  0  0  0  0  0  0  0  0
  2  1  1  6
  3  2  1  0
  4  3  1  0
  5  4  2  0
  6  5  1  0
  6  7  1  0
  7  8  2  0
  8  4  1  0
  9 10  2  0
  9  2  1  0
 11  9  1  0
 12 11  1  0
 13 14  1  0
 12 13  1  6
 15 12  1  0
 15 22  1  0
 16 15  2  0
 18 17  1  0
 19 18  1  0
 19 20  1  1
 21 19  1  0
 21 22  1  6
 21 23  1  0
 23 24  1  0
 25 23  2  0
M  END
$$$$
