EPC.pdb
     RDKit          3D

 23 23  0  0  1  0  0  0  0  0999 V2000
    9.9481  -15.8233   15.2983 N   0  0  0  0  0  0  0  0  0  0  0  0
    8.8446  -15.8079   16.2723 C   0  0  1  0  0  0  0  0  0  0  0  0
    8.3568  -17.2277   16.3752 C   0  0  0  0  0  0  0  0  0  0  0  0
    7.3535  -17.4747   17.4496 C   0  0  0  0  0  0  0  0  0  0  0  0
    6.9944  -18.9418   17.4890 C   0  0  0  0  0  0  0  0  0  0  0  0
    5.9914  -19.3709   16.8644 O   0  0  0  0  0  0  0  0  0  0  0  0
    9.3997  -15.4012   17.5825 C   0  0  0  0  0  0  0  0  0  0  0  0
   10.5796  -15.8146   17.8736 O   0  0  0  0  0  0  0  0  0  0  0  0
    7.7559  -19.8470   18.2097 O   0  0  0  0  0  0  0  0  0  0  0  0
    8.7561  -14.5997   18.5487 N   0  0  0  0  0  0  0  0  0  0  0  0
    7.4243  -14.1006   18.4474 C   0  0  0  0  0  0  0  0  0  0  0  0
    7.2750  -13.0915   19.5504 C   0  0  0  0  0  0  0  0  0  0  0  0
    8.7033  -12.8189   20.0184 C   0  0  0  0  0  0  0  0  0  0  0  0
    9.3515  -14.1691   19.7716 C   0  0  1  0  0  0  0  0  0  0  0  0
    9.0722  -15.0599   20.9215 C   0  0  0  0  0  0  0  0  0  0  0  0
    7.9439  -15.5951   21.0502 O   0  0  0  0  0  0  0  0  0  0  0  0
   10.0422  -15.3476   21.9132 N   0  0  0  0  0  0  0  0  0  0  0  0
   10.2915  -16.6402   22.4726 C   0  0  1  0  0  0  0  0  0  0  0  0
   11.7336  -16.6252   22.9918 C   0  0  0  0  0  0  0  0  0  0  0  0
   11.9597  -15.4487   24.3245 S   0  0  0  0  0  0  0  0  0  0  0  0
    9.4305  -16.9784   23.6073 C   0  0  0  0  0  0  0  0  0  0  0  0
    9.4635  -18.2647   24.1185 O   0  0  0  0  0  0  0  0  0  0  0  0
    8.6775  -16.1063   24.1010 O   0  0  0  0  0  0  0  0  0  0  0  0
  2  1  1  6
  3  2  1  0
  4  5  1  0
  4  3  1  0
  5  9  1  0
  6  5  2  0
  7 10  1  0
  7  2  1  0
  8  7  2  0
 10 14  1  0
 11 12  1  0
 11 10  1  0
 12 13  1  0
 13 14  1  0
 14 15  1  1
 15 17  1  0
 16 15  2  0
 18 17  1  0
 18 19  1  1
 20 19  1  0
 21 18  1  0
 21 22  1  0
 23 21  2  0
M  END
$$$$
