EPC.pdb
     RDKit          3D

 23 23  0  0  1  0  0  0  0  0999 V2000
    9.6732  -15.5253   20.7932 N   0  0  0  0  0  0  0  0  0  0  0  0
    8.5404  -15.6022   21.7299 C   0  0  1  0  0  0  0  0  0  0  0  0
    8.1966  -17.0620   21.8525 C   0  0  0  0  0  0  0  0  0  0  0  0
    9.3661  -17.9786   21.9713 C   0  0  0  0  0  0  0  0  0  0  0  0
    9.2479  -18.8003   23.2337 C   0  0  0  0  0  0  0  0  0  0  0  0
   10.1454  -18.7536   24.1127 O   0  0  0  0  0  0  0  0  0  0  0  0
    9.0047  -15.1122   23.0468 C   0  0  0  0  0  0  0  0  0  0  0  0
   10.2718  -14.9956   23.2160 O   0  0  0  0  0  0  0  0  0  0  0  0
    8.1546  -19.6217   23.4546 O   0  0  0  0  0  0  0  0  0  0  0  0
    8.1873  -14.7588   24.1410 N   0  0  0  0  0  0  0  0  0  0  0  0
    6.7739  -14.9369   24.2022 C   0  0  0  0  0  0  0  0  0  0  0  0
    6.3125  -14.1764   25.4130 C   0  0  0  0  0  0  0  0  0  0  0  0
    7.5005  -13.2923   25.7878 C   0  0  0  0  0  0  0  0  0  0  0  0
    8.6615  -14.1661   25.3490 C   0  0  1  0  0  0  0  0  0  0  0  0
    8.9650  -15.1446   26.4188 C   0  0  0  0  0  0  0  0  0  0  0  0
    8.6132  -16.3439   26.3002 O   0  0  0  0  0  0  0  0  0  0  0  0
    9.6525  -14.7856   27.6043 N   0  0  0  0  0  0  0  0  0  0  0  0
   10.7015  -15.5452   28.2115 C   0  0  1  0  0  0  0  0  0  0  0  0
   11.1033  -14.7992   29.4889 C   0  0  0  0  0  0  0  0  0  0  0  0
   10.8394  -13.0321   29.3506 S   0  0  0  0  0  0  0  0  0  0  0  0
   10.3086  -16.8979   28.6103 C   0  0  0  0  0  0  0  0  0  0  0  0
   11.2673  -17.7541   29.1246 O   0  0  0  0  0  0  0  0  0  0  0  0
    9.1167  -17.2645   28.4829 O   0  0  0  0  0  0  0  0  0  0  0  0
  2  1  1  6
  3  2  1  0
  4  5  1  0
  4  3  1  0
  5  9  1  0
  6  5  2  0
  7 10  1  0
  7  2  1  0
  8  7  2  0
 10 14  1  0
 11 12  1  0
 11 10  1  0
 12 13  1  0
 13 14  1  0
 14 15  1  1
 15 17  1  0
 16 15  2  0
 18 17  1  0
 18 19  1  1
 20 19  1  0
 21 18  1  0
 21 22  1  0
 23 21  2  0
M  END
$$$$
