EPC.pdb
     RDKit          3D

 23 23  0  0  1  0  0  0  0  0999 V2000
    8.9840  -14.9224   20.8116 N   0  0  0  0  0  0  0  0  0  0  0  0
    7.9553  -14.8651   21.8628 C   0  0  1  0  0  0  0  0  0  0  0  0
    7.3647  -16.2465   21.9468 C   0  0  0  0  0  0  0  0  0  0  0  0
    8.3543  -17.3604   21.9020 C   0  0  0  0  0  0  0  0  0  0  0  0
    7.6434  -18.6848   22.0555 C   0  0  0  0  0  0  0  0  0  0  0  0
    6.4945  -18.8528   21.5738 O   0  0  0  0  0  0  0  0  0  0  0  0
    8.6303  -14.5593   23.1438 C   0  0  0  0  0  0  0  0  0  0  0  0
    9.9074  -14.6841   23.1786 O   0  0  0  0  0  0  0  0  0  0  0  0
    8.2350  -19.7423   22.7267 O   0  0  0  0  0  0  0  0  0  0  0  0
    8.0048  -14.1421   24.3376 N   0  0  0  0  0  0  0  0  0  0  0  0
    6.5970  -14.0207   24.5287 C   0  0  0  0  0  0  0  0  0  0  0  0
    6.4170  -13.2937   25.8311 C   0  0  0  0  0  0  0  0  0  0  0  0
    7.7974  -12.7203   26.1458 C   0  0  0  0  0  0  0  0  0  0  0  0
    8.6969  -13.7769   25.5305 C   0  0  1  0  0  0  0  0  0  0  0  0
    8.8657  -14.8913   26.4915 C   0  0  0  0  0  0  0  0  0  0  0  0
    8.2269  -15.9615   26.3408 O   0  0  0  0  0  0  0  0  0  0  0  0
    9.7371  -14.8088   27.6055 N   0  0  0  0  0  0  0  0  0  0  0  0
   10.7945  -15.7275   27.8952 C   0  0  1  0  0  0  0  0  0  0  0  0
   11.5103  -15.1967   29.1423 C   0  0  0  0  0  0  0  0  0  0  0  0
   10.7729  -13.6809   29.7508 S   0  0  0  0  0  0  0  0  0  0  0  0
   10.3413  -17.0845   28.2056 C   0  0  0  0  0  0  0  0  0  0  0  0
   11.2824  -18.0792   28.4099 O   0  0  0  0  0  0  0  0  0  0  0  0
    9.1145  -17.3303   28.2826 O   0  0  0  0  0  0  0  0  0  0  0  0
  2  1  1  6
  3  2  1  0
  4  5  1  0
  4  3  1  0
  5  9  1  0
  6  5  2  0
  7 10  1  0
  7  2  1  0
  8  7  2  0
 10 14  1  0
 11 12  1  0
 11 10  1  0
 12 13  1  0
 13 14  1  0
 14 15  1  1
 15 17  1  0
 16 15  2  0
 18 17  1  0
 18 19  1  1
 20 19  1  0
 21 18  1  0
 21 22  1  0
 23 21  2  0
M  END
$$$$
