EPC.pdb
     RDKit          3D

 23 23  0  0  1  0  0  0  0  0999 V2000
    8.2286  -14.1519   20.6934 N   0  0  0  0  0  0  0  0  0  0  0  0
    7.3161  -14.2930   21.8398 C   0  0  1  0  0  0  0  0  0  0  0  0
    6.8495  -15.7236   21.8303 C   0  0  0  0  0  0  0  0  0  0  0  0
    7.9274  -16.7385   21.6568 C   0  0  0  0  0  0  0  0  0  0  0  0
    7.3460  -18.1286   21.7679 C   0  0  0  0  0  0  0  0  0  0  0  0
    7.9612  -19.0303   22.3914 O   0  0  0  0  0  0  0  0  0  0  0  0
    8.0970  -14.0572   23.0746 C   0  0  0  0  0  0  0  0  0  0  0  0
    9.3763  -14.0876   22.9746 O   0  0  0  0  0  0  0  0  0  0  0  0
    6.1276  -18.4443   21.1894 O   0  0  0  0  0  0  0  0  0  0  0  0
    7.5707  -13.8011   24.3583 N   0  0  0  0  0  0  0  0  0  0  0  0
    6.1939  -13.8975   24.7163 C   0  0  0  0  0  0  0  0  0  0  0  0
    6.0757  -13.2761   26.0790 C   0  0  0  0  0  0  0  0  0  0  0  0
    7.3912  -12.5248   26.2748 C   0  0  0  0  0  0  0  0  0  0  0  0
    8.3464  -13.4036   25.4878 C   0  0  1  0  0  0  0  0  0  0  0  0
    8.7848  -14.5316   26.3418 C   0  0  0  0  0  0  0  0  0  0  0  0
    8.3549  -15.6920   26.1304 O   0  0  0  0  0  0  0  0  0  0  0  0
    9.6914  -14.3629   27.4172 N   0  0  0  0  0  0  0  0  0  0  0  0
   10.7371  -15.2749   27.7651 C   0  0  1  0  0  0  0  0  0  0  0  0
   11.5020  -14.6434   28.9338 C   0  0  0  0  0  0  0  0  0  0  0  0
   10.4118  -14.1556   30.2699 S   0  0  0  0  0  0  0  0  0  0  0  0
   10.2644  -16.5839   28.2191 C   0  0  0  0  0  0  0  0  0  0  0  0
   11.1846  -17.5962   28.4318 O   0  0  0  0  0  0  0  0  0  0  0  0
    9.0400  -16.7736   28.4092 O   0  0  0  0  0  0  0  0  0  0  0  0
  2  1  1  6
  3  2  1  0
  4  5  1  0
  4  3  1  0
  5  9  1  0
  6  5  2  0
  7 10  1  0
  7  2  1  0
  8  7  2  0
 10 14  1  0
 11 12  1  0
 11 10  1  0
 12 13  1  0
 13 14  1  0
 14 15  1  1
 15 17  1  0
 16 15  2  0
 18 17  1  0
 18 19  1  1
 20 19  1  0
 21 18  1  0
 21 22  1  0
 23 21  2  0
M  END
$$$$
