EPC.pdb
     RDKit          3D

 23 23  0  0  1  0  0  0  0  0999 V2000
    8.7077  -18.7759   20.4835 N   0  0  0  0  0  0  0  0  0  0  0  0
    7.7518  -17.7108   20.8273 C   0  0  1  0  0  0  0  0  0  0  0  0
    6.9756  -18.2119   22.0150 C   0  0  0  0  0  0  0  0  0  0  0  0
    7.8060  -18.6599   23.1690 C   0  0  0  0  0  0  0  0  0  0  0  0
    6.9143  -19.1887   24.2682 C   0  0  0  0  0  0  0  0  0  0  0  0
    7.1136  -18.8614   25.4654 O   0  0  0  0  0  0  0  0  0  0  0  0
    8.5269  -16.5183   21.2362 C   0  0  0  0  0  0  0  0  0  0  0  0
    9.7374  -16.7082   21.6187 O   0  0  0  0  0  0  0  0  0  0  0  0
    5.8604  -20.0427   23.9876 O   0  0  0  0  0  0  0  0  0  0  0  0
    8.0637  -15.1858   21.2475 N   0  0  0  0  0  0  0  0  0  0  0  0
    6.7049  -14.7866   21.0816 C   0  0  0  0  0  0  0  0  0  0  0  0
    6.7314  -13.2969   20.8886 C   0  0  0  0  0  0  0  0  0  0  0  0
    8.1964  -12.9718   20.6033 C   0  0  0  0  0  0  0  0  0  0  0  0
    8.8952  -14.0401   21.4246 C   0  0  1  0  0  0  0  0  0  0  0  0
    8.9969  -13.5838   22.8301 C   0  0  0  0  0  0  0  0  0  0  0  0
    9.5834  -12.5090   23.1075 O   0  0  0  0  0  0  0  0  0  0  0  0
    8.4499  -14.3202   23.9097 N   0  0  0  0  0  0  0  0  0  0  0  0
    8.1960  -13.8005   25.2180 C   0  0  1  0  0  0  0  0  0  0  0  0
    6.8898  -13.0032   25.1297 C   0  0  0  0  0  0  0  0  0  0  0  0
    6.3696  -12.3798   26.7273 S   0  0  0  0  0  0  0  0  0  0  0  0
    8.0037  -14.8270   26.2438 C   0  0  0  0  0  0  0  0  0  0  0  0
    8.0304  -14.4595   27.5784 O   0  0  0  0  0  0  0  0  0  0  0  0
    7.8180  -16.0198   25.9059 O   0  0  0  0  0  0  0  0  0  0  0  0
  2  1  1  1
  3  2  1  0
  4  5  1  0
  4  3  1  0
  5  9  1  0
  6  5  2  0
  7 10  1  0
  7  2  1  0
  8  7  2  0
 10 14  1  0
 11 12  1  0
 11 10  1  0
 12 13  1  0
 13 14  1  0
 14 15  1  1
 15 17  1  0
 16 15  2  0
 18 17  1  0
 18 19  1  6
 20 19  1  0
 21 18  1  0
 21 22  1  0
 23 21  2  0
M  END
$$$$
