EPC.pdb
     RDKit          3D

 23 23  0  0  1  0  0  0  0  0999 V2000
    9.1697  -16.7385   15.8218 N   0  0  0  0  0  0  0  0  0  0  0  0
    8.2346  -16.1006   16.7627 C   0  0  1  0  0  0  0  0  0  0  0  0
    7.3282  -17.1945   17.2589 C   0  0  0  0  0  0  0  0  0  0  0  0
    8.0196  -18.4479   17.6745 C   0  0  0  0  0  0  0  0  0  0  0  0
    7.0128  -19.4315   18.2238 C   0  0  0  0  0  0  0  0  0  0  0  0
    5.8080  -19.1012   18.3638 O   0  0  0  0  0  0  0  0  0  0  0  0
    9.0208  -15.5820   17.9043 C   0  0  0  0  0  0  0  0  0  0  0  0
   10.2335  -15.9881   18.0142 O   0  0  0  0  0  0  0  0  0  0  0  0
    7.3881  -20.7149   18.5853 O   0  0  0  0  0  0  0  0  0  0  0  0
    8.5660  -14.6804   18.8894 N   0  0  0  0  0  0  0  0  0  0  0  0
    7.2509  -14.1338   18.9589 C   0  0  0  0  0  0  0  0  0  0  0  0
    7.3121  -13.0360   19.9828 C   0  0  0  0  0  0  0  0  0  0  0  0
    8.8047  -12.7894   20.1939 C   0  0  0  0  0  0  0  0  0  0  0  0
    9.3637  -14.1815   19.9619 C   0  0  1  0  0  0  0  0  0  0  0  0
    9.2472  -14.9668   21.2123 C   0  0  0  0  0  0  0  0  0  0  0  0
    8.1276  -15.1329   21.7553 O   0  0  0  0  0  0  0  0  0  0  0  0
   10.3682  -15.5578   21.8458 N   0  0  0  0  0  0  0  0  0  0  0  0
   10.3181  -16.3655   23.0253 C   0  0  1  0  0  0  0  0  0  0  0  0
   10.5762  -17.8099   22.5818 C   0  0  0  0  0  0  0  0  0  0  0  0
    9.4570  -18.3275   21.2815 S   0  0  0  0  0  0  0  0  0  0  0  0
   11.3376  -16.0341   24.0224 C   0  0  0  0  0  0  0  0  0  0  0  0
   11.2848  -16.6385   25.2668 O   0  0  0  0  0  0  0  0  0  0  0  0
   12.2415  -15.2123   23.7412 O   0  0  0  0  0  0  0  0  0  0  0  0
  2  1  1  6
  3  2  1  0
  4  5  1  0
  4  3  1  0
  5  9  1  0
  6  5  2  0
  7 10  1  0
  7  2  1  0
  8  7  2  0
 10 14  1  0
 11 12  1  0
 11 10  1  0
 12 13  1  0
 13 14  1  0
 14 15  1  1
 15 17  1  0
 16 15  2  0
 18 17  1  0
 18 19  1  6
 20 19  1  0
 21 18  1  0
 21 22  1  0
 23 21  2  0
M  END
$$$$
