EPC.pdb
     RDKit          3D

 23 23  0  0  1  0  0  0  0  0999 V2000
   11.0867  -16.7831   19.3550 N   0  0  0  0  0  0  0  0  0  0  0  0
   10.3026  -17.3312   20.4737 C   0  0  1  0  0  0  0  0  0  0  0  0
   11.1123  -18.4685   21.0352 C   0  0  0  0  0  0  0  0  0  0  0  0
   10.3145  -19.5854   21.6165 C   0  0  0  0  0  0  0  0  0  0  0  0
   10.9589  -20.9086   21.2745 C   0  0  0  0  0  0  0  0  0  0  0  0
   10.2903  -21.9725   21.3088 O   0  0  0  0  0  0  0  0  0  0  0  0
   10.1852  -16.2777   21.5063 C   0  0  0  0  0  0  0  0  0  0  0  0
   11.2767  -15.7907   21.9746 O   0  0  0  0  0  0  0  0  0  0  0  0
   12.2949  -20.9838   20.9163 O   0  0  0  0  0  0  0  0  0  0  0  0
    8.9849  -15.7530   22.0301 N   0  0  0  0  0  0  0  0  0  0  0  0
    7.6734  -16.1530   21.6387 C   0  0  0  0  0  0  0  0  0  0  0  0
    6.7355  -15.1483   22.2455 C   0  0  0  0  0  0  0  0  0  0  0  0
    7.6367  -13.9939   22.6798 C   0  0  0  0  0  0  0  0  0  0  0  0
    8.9121  -14.7384   23.0304 C   0  0  1  0  0  0  0  0  0  0  0  0
    8.8046  -15.2636   24.4112 C   0  0  0  0  0  0  0  0  0  0  0  0
    8.5386  -16.4742   24.6107 O   0  0  0  0  0  0  0  0  0  0  0  0
    8.9920  -14.4453   25.5523 N   0  0  0  0  0  0  0  0  0  0  0  0
    9.7801  -14.7912   26.6949 C   0  0  1  0  0  0  0  0  0  0  0  0
    9.5535  -13.6898   27.7365 C   0  0  0  0  0  0  0  0  0  0  0  0
   10.5191  -13.9562   29.2225 S   0  0  0  0  0  0  0  0  0  0  0  0
    9.4024  -16.0590   27.3220 C   0  0  0  0  0  0  0  0  0  0  0  0
   10.3943  -16.8859   27.8212 O   0  0  0  0  0  0  0  0  0  0  0  0
    8.1934  -16.3808   27.4000 O   0  0  0  0  0  0  0  0  0  0  0  0
  2  1  1  6
  3  2  1  0
  4  5  1  0
  4  3  1  0
  5  9  1  0
  6  5  2  0
  7 10  1  0
  7  2  1  0
  8  7  2  0
 10 14  1  0
 11 12  1  0
 11 10  1  0
 12 13  1  0
 13 14  1  0
 14 15  1  1
 15 17  1  0
 16 15  2  0
 18 17  1  0
 18 19  1  1
 20 19  1  0
 21 18  1  0
 21 22  1  0
 23 21  2  0
M  END
$$$$
