EPC.pdb
     RDKit          3D

 23 23  0  0  1  0  0  0  0  0999 V2000
    8.9454  -15.0282   20.5625 N   0  0  0  0  0  0  0  0  0  0  0  0
    8.0551  -15.2908   21.7048 C   0  0  1  0  0  0  0  0  0  0  0  0
    8.0907  -16.7781   21.9304 C   0  0  0  0  0  0  0  0  0  0  0  0
    9.4472  -17.3490   22.1668 C   0  0  0  0  0  0  0  0  0  0  0  0
    9.3319  -18.8088   22.5390 C   0  0  0  0  0  0  0  0  0  0  0  0
    8.3120  -19.2371   23.1361 O   0  0  0  0  0  0  0  0  0  0  0  0
    8.6274  -14.6174   22.8919 C   0  0  0  0  0  0  0  0  0  0  0  0
    9.8844  -14.3581   22.8703 O   0  0  0  0  0  0  0  0  0  0  0  0
   10.3404  -19.7081   22.2341 O   0  0  0  0  0  0  0  0  0  0  0  0
    7.9236  -14.2305   24.0517 N   0  0  0  0  0  0  0  0  0  0  0  0
    6.5339  -14.4519   24.2819 C   0  0  0  0  0  0  0  0  0  0  0  0
    6.1806  -13.6402   25.4958 C   0  0  0  0  0  0  0  0  0  0  0  0
    7.3671  -12.6973   25.6869 C   0  0  0  0  0  0  0  0  0  0  0  0
    8.5056  -13.5553   25.1656 C   0  0  1  0  0  0  0  0  0  0  0  0
    8.9647  -14.4613   26.2437 C   0  0  0  0  0  0  0  0  0  0  0  0
    8.7408  -15.6946   26.1744 O   0  0  0  0  0  0  0  0  0  0  0  0
    9.6644  -13.9933   27.3832 N   0  0  0  0  0  0  0  0  0  0  0  0
   10.4974  -14.7944   28.2261 C   0  0  1  0  0  0  0  0  0  0  0  0
   10.5565  -14.0893   29.5859 C   0  0  0  0  0  0  0  0  0  0  0  0
   11.5563  -14.9886   30.7704 S   0  0  0  0  0  0  0  0  0  0  0  0
    9.9859  -16.1451   28.4650 C   0  0  0  0  0  0  0  0  0  0  0  0
   10.8600  -17.2171   28.4054 O   0  0  0  0  0  0  0  0  0  0  0  0
    8.7704  -16.3161   28.7193 O   0  0  0  0  0  0  0  0  0  0  0  0
  2  1  1  6
  3  2  1  0
  4  5  1  0
  4  3  1  0
  5  9  1  0
  6  5  2  0
  7 10  1  0
  7  2  1  0
  8  7  2  0
 10 14  1  0
 11 12  1  0
 11 10  1  0
 12 13  1  0
 13 14  1  0
 14 15  1  1
 15 17  1  0
 16 15  2  0
 18 17  1  0
 18 19  1  1
 20 19  1  0
 21 18  1  0
 21 22  1  0
 23 21  2  0
M  END
$$$$
