EPC.pdb
     RDKit          3D

 23 23  0  0  1  0  0  0  0  0999 V2000
   11.5549  -15.7488   19.4331 N   0  0  0  0  0  0  0  0  0  0  0  0
   10.7990  -16.6299   20.3380 C   0  0  1  0  0  0  0  0  0  0  0  0
   11.7807  -17.6516   20.8445 C   0  0  0  0  0  0  0  0  0  0  0  0
   11.2381  -18.6014   21.8572 C   0  0  0  0  0  0  0  0  0  0  0  0
   12.2519  -19.6857   22.1390 C   0  0  0  0  0  0  0  0  0  0  0  0
   13.2314  -19.4635   22.8948 O   0  0  0  0  0  0  0  0  0  0  0  0
   10.3310  -15.8147   21.4810 C   0  0  0  0  0  0  0  0  0  0  0  0
   11.1570  -14.9637   21.9720 O   0  0  0  0  0  0  0  0  0  0  0  0
   12.1297  -20.9451   21.5754 O   0  0  0  0  0  0  0  0  0  0  0  0
    9.0591  -15.8814   22.0879 N   0  0  0  0  0  0  0  0  0  0  0  0
    8.0207  -16.7876   21.7225 C   0  0  0  0  0  0  0  0  0  0  0  0
    6.7864  -16.3125   22.4352 C   0  0  0  0  0  0  0  0  0  0  0  0
    7.1358  -14.9042   22.9126 C   0  0  0  0  0  0  0  0  0  0  0  0
    8.6271  -15.0436   23.1589 C   0  0  1  0  0  0  0  0  0  0  0  0
    8.8455  -15.6270   24.5028 C   0  0  0  0  0  0  0  0  0  0  0  0
    9.2680  -16.8030   24.6230 O   0  0  0  0  0  0  0  0  0  0  0  0
    8.5945  -14.9040   25.6950 N   0  0  0  0  0  0  0  0  0  0  0  0
    9.5155  -14.7564   26.7795 C   0  0  1  0  0  0  0  0  0  0  0  0
    9.1347  -13.4628   27.5082 C   0  0  0  0  0  0  0  0  0  0  0  0
    8.5915  -12.1843   26.3759 S   0  0  0  0  0  0  0  0  0  0  0  0
    9.4585  -15.8370   27.7655 C   0  0  0  0  0  0  0  0  0  0  0  0
   10.4224  -15.8955   28.7576 O   0  0  0  0  0  0  0  0  0  0  0  0
    8.5442  -16.6922   27.7019 O   0  0  0  0  0  0  0  0  0  0  0  0
  2  1  1  6
  3  2  1  0
  4  5  1  0
  4  3  1  0
  5  9  1  0
  6  5  2  0
  7 10  1  0
  7  2  1  0
  8  7  2  0
 10 14  1  0
 11 12  1  0
 11 10  1  0
 12 13  1  0
 13 14  1  0
 14 15  1  1
 15 17  1  0
 16 15  2  0
 18 17  1  0
 18 19  1  1
 20 19  1  0
 21 18  1  0
 21 22  1  0
 23 21  2  0
M  END
$$$$
