EPC.pdb
     RDKit          3D

 23 23  0  0  1  0  0  0  0  0999 V2000
    8.1920  -14.1468   21.0565 N   0  0  0  0  0  0  0  0  0  0  0  0
    7.3392  -14.2757   22.2493 C   0  0  1  0  0  0  0  0  0  0  0  0
    6.8716  -15.7057   22.2775 C   0  0  0  0  0  0  0  0  0  0  0  0
    7.9045  -16.7155   21.9095 C   0  0  0  0  0  0  0  0  0  0  0  0
    7.3262  -18.1066   22.0245 C   0  0  0  0  0  0  0  0  0  0  0  0
    6.9196  -18.7158   21.0029 O   0  0  0  0  0  0  0  0  0  0  0  0
    8.1823  -14.0290   23.4402 C   0  0  0  0  0  0  0  0  0  0  0  0
    9.4544  -14.0974   23.2829 O   0  0  0  0  0  0  0  0  0  0  0  0
    7.2292  -18.7433   23.2508 O   0  0  0  0  0  0  0  0  0  0  0  0
    7.7230  -13.7246   24.7389 N   0  0  0  0  0  0  0  0  0  0  0  0
    6.3545  -13.6764   25.1364 C   0  0  0  0  0  0  0  0  0  0  0  0
    6.3417  -13.0523   26.5029 C   0  0  0  0  0  0  0  0  0  0  0  0
    7.7344  -12.4453   26.6618 C   0  0  0  0  0  0  0  0  0  0  0  0
    8.5683  -13.4166   25.8462 C   0  0  1  0  0  0  0  0  0  0  0  0
    8.9090  -14.5886   26.6855 C   0  0  0  0  0  0  0  0  0  0  0  0
    8.0690  -15.5034   26.8689 O   0  0  0  0  0  0  0  0  0  0  0  0
   10.1720  -14.7345   27.3104 N   0  0  0  0  0  0  0  0  0  0  0  0
   10.6899  -15.9544   27.8486 C   0  0  1  0  0  0  0  0  0  0  0  0
   12.2062  -15.9259   27.6256 C   0  0  0  0  0  0  0  0  0  0  0  0
   12.6322  -15.5443   25.9273 S   0  0  0  0  0  0  0  0  0  0  0  0
   10.4708  -16.1156   29.2871 C   0  0  0  0  0  0  0  0  0  0  0  0
   10.8524  -17.2976   29.8987 O   0  0  0  0  0  0  0  0  0  0  0  0
    9.9436  -15.1884   29.9457 O   0  0  0  0  0  0  0  0  0  0  0  0
  2  1  1  6
  3  2  1  0
  4  5  1  0
  4  3  1  0
  5  9  1  0
  6  5  2  0
  7 10  1  0
  7  2  1  0
  8  7  2  0
 10 14  1  0
 11 12  1  0
 11 10  1  0
 12 13  1  0
 13 14  1  0
 14 15  1  1
 15 17  1  0
 16 15  2  0
 18 17  1  0
 18 19  1  1
 20 19  1  0
 21 18  1  0
 21 22  1  0
 23 21  2  0
M  END
$$$$
