EPC.pdb
     RDKit          3D

 23 23  0  0  1  0  0  0  0  0999 V2000
    8.1597  -12.8189   16.8188 N   0  0  0  0  0  0  0  0  0  0  0  0
    7.9969  -14.2018   17.2961 C   0  0  1  0  0  0  0  0  0  0  0  0
    8.9197  -15.0453   16.4586 C   0  0  0  0  0  0  0  0  0  0  0  0
    8.9564  -16.4909   16.8202 C   0  0  0  0  0  0  0  0  0  0  0  0
    9.8988  -17.2271   15.8966 C   0  0  0  0  0  0  0  0  0  0  0  0
   10.4439  -16.6315   14.9331 O   0  0  0  0  0  0  0  0  0  0  0  0
    8.4528  -14.2541   18.7030 C   0  0  0  0  0  0  0  0  0  0  0  0
    9.5178  -13.6018   18.9994 O   0  0  0  0  0  0  0  0  0  0  0  0
   10.1853  -18.5690   16.0860 O   0  0  0  0  0  0  0  0  0  0  0  0
    7.8287  -14.9548   19.7566 N   0  0  0  0  0  0  0  0  0  0  0  0
    6.7021  -15.8174   19.6161 C   0  0  0  0  0  0  0  0  0  0  0  0
    6.2270  -16.1089   21.0112 C   0  0  0  0  0  0  0  0  0  0  0  0
    6.9356  -15.0741   21.8832 C   0  0  0  0  0  0  0  0  0  0  0  0
    8.2371  -14.8969   21.1224 C   0  0  1  0  0  0  0  0  0  0  0  0
    9.1789  -15.9712   21.5133 C   0  0  0  0  0  0  0  0  0  0  0  0
    9.2870  -17.0066   20.8116 O   0  0  0  0  0  0  0  0  0  0  0  0
    9.9881  -15.8876   22.6731 N   0  0  0  0  0  0  0  0  0  0  0  0
   11.1218  -16.7151   22.9492 C   0  0  1  0  0  0  0  0  0  0  0  0
   11.7424  -16.1929   24.2498 C   0  0  0  0  0  0  0  0  0  0  0  0
   10.5288  -16.0249   25.5577 S   0  0  0  0  0  0  0  0  0  0  0  0
   10.7956  -18.1258   23.1656 C   0  0  0  0  0  0  0  0  0  0  0  0
   11.8191  -19.0579   23.1914 O   0  0  0  0  0  0  0  0  0  0  0  0
    9.6016  -18.4730   23.3241 O   0  0  0  0  0  0  0  0  0  0  0  0
  2  1  1  6
  3  2  1  0
  4  5  1  0
  4  3  1  0
  5  9  1  0
  6  5  2  0
  7 10  1  0
  7  2  1  0
  8  7  2  0
 10 14  1  0
 11 12  1  0
 11 10  1  0
 12 13  1  0
 13 14  1  0
 14 15  1  1
 15 17  1  0
 16 15  2  0
 18 17  1  0
 18 19  1  1
 20 19  1  0
 21 18  1  0
 21 22  1  0
 23 21  2  0
M  END
$$$$
