MGP.pdb
     RDKit          3D

 20 20  0  0  1  0  0  0  0  0999 V2000
    8.6571  -12.2430   20.7444 C   0  0  0  0  0  0  0  0  0  0  0  0
    7.9720  -13.1171   19.3042 S   0  0  0  0  0  0  0  0  0  0  0  0
    7.2806  -14.6978   19.8444 C   0  0  0  0  0  0  0  0  0  0  0  0
    8.3202  -15.5732   20.4717 C   0  0  0  0  0  0  0  0  0  0  0  0
    7.6720  -16.7777   21.1355 C   0  0  2  0  0  0  0  0  0  0  0  0
    6.3347  -16.8953   20.6412 N   0  0  0  0  0  0  0  0  0  0  0  0
    7.7232  -16.6146   22.6147 C   0  0  0  0  0  0  0  0  0  0  0  0
    8.8071  -16.7450   23.2379 O   0  0  0  0  0  0  0  0  0  0  0  0
    6.5757  -16.3098   23.3876 N   0  0  0  0  0  0  0  0  0  0  0  0
    6.6660  -16.1634   24.8569 C   0  0  0  0  0  0  0  0  0  0  0  0
    7.6942  -15.1575   25.1620 C   0  0  0  0  0  0  0  0  0  0  0  0
    8.9339  -15.4470   24.9131 O   0  0  0  0  0  0  0  0  0  0  0  0
    7.4373  -13.8911   25.7134 N   0  0  0  0  0  0  0  0  0  0  0  0
    6.2380  -13.1340   25.4194 C   0  0  0  0  0  0  0  0  0  0  0  0
    5.9777  -12.3678   26.6758 C   0  0  0  0  0  0  0  0  0  0  0  0
    7.1852  -12.5268   27.5486 C   0  0  0  0  0  0  0  0  0  0  0  0
    8.2329  -13.1189   26.5822 C   0  0  1  0  0  0  0  0  0  0  0  0
    9.2461  -13.8477   27.3916 C   0  0  0  0  0  0  0  0  0  0  0  0
   10.4012  -13.3962   27.6079 O   0  0  0  0  0  0  0  0  0  0  0  0
    8.9156  -15.0743   27.9334 O   0  0  0  0  0  0  0  0  0  0  0  0
  2  1  1  0
  3  2  1  0
  4  5  1  0
  4  3  1  0
  5  6  1  6
  7  8  2  0
  7  5  1  0
  9  7  1  0
 10  9  1  0
 10 11  1  0
 11 13  1  0
 12 11  2  0
 13 14  1  0
 13 17  1  0
 14 15  1  0
 15 16  1  0
 17 18  1  1
 17 16  1  0
 18 20  1  0
 19 18  2  0
M  END
$$$$
