MGP.pdb
     RDKit          3D

 20 20  0  0  1  0  0  0  0  0999 V2000
    9.1484  -13.1309   28.7091 C   0  0  0  0  0  0  0  0  0  0  0  0
   10.3031  -14.5353   28.6656 S   0  0  0  0  0  0  0  0  0  0  0  0
    9.4383  -15.9941   28.0390 C   0  0  0  0  0  0  0  0  0  0  0  0
    8.3521  -15.6253   27.0773 C   0  0  0  0  0  0  0  0  0  0  0  0
    8.3040  -16.6142   25.9235 C   0  0  2  0  0  0  0  0  0  0  0  0
    9.6390  -16.8146   25.4500 N   0  0  0  0  0  0  0  0  0  0  0  0
    7.3931  -16.0962   24.8656 C   0  0  0  0  0  0  0  0  0  0  0  0
    6.2381  -15.6923   25.1540 O   0  0  0  0  0  0  0  0  0  0  0  0
    7.7694  -16.0311   23.5013 N   0  0  0  0  0  0  0  0  0  0  0  0
    8.0511  -14.7322   22.8517 C   0  0  0  0  0  0  0  0  0  0  0  0
    8.6130  -14.9912   21.5178 C   0  0  0  0  0  0  0  0  0  0  0  0
    9.2868  -16.0843   21.3336 O   0  0  0  0  0  0  0  0  0  0  0  0
    8.4797  -14.1346   20.4122 N   0  0  0  0  0  0  0  0  0  0  0  0
    7.3513  -13.2430   20.2399 C   0  0  0  0  0  0  0  0  0  0  0  0
    7.9261  -12.0693   19.5151 C   0  0  0  0  0  0  0  0  0  0  0  0
    9.3075  -12.4523   19.0792 C   0  0  0  0  0  0  0  0  0  0  0  0
    9.3260  -13.9802   19.2969 C   0  0  1  0  0  0  0  0  0  0  0  0
   10.7419  -14.4045   19.4638 C   0  0  0  0  0  0  0  0  0  0  0  0
   11.4032  -14.1810   20.5115 O   0  0  0  0  0  0  0  0  0  0  0  0
   11.3680  -15.0731   18.4301 O   0  0  0  0  0  0  0  0  0  0  0  0
  2  1  1  0
  3  2  1  0
  4  5  1  0
  4  3  1  0
  5  6  1  6
  7  8  2  0
  7  5  1  0
  9  7  1  0
 10  9  1  0
 10 11  1  0
 11 13  1  0
 12 11  2  0
 13 14  1  0
 13 17  1  0
 14 15  1  0
 15 16  1  0
 17 18  1  1
 17 16  1  0
 18 20  1  0
 19 18  2  0
M  END
$$$$
