MGP.pdb
     RDKit          3D

 20 20  0  0  1  0  0  0  0  0999 V2000
    6.4198  -11.5484   27.5062 C   0  0  0  0  0  0  0  0  0  0  0  0
    7.0147  -12.7869   26.3146 S   0  0  0  0  0  0  0  0  0  0  0  0
    6.0884  -14.3224   26.5438 C   0  0  0  0  0  0  0  0  0  0  0  0
    6.3391  -15.2933   25.4325 C   0  0  0  0  0  0  0  0  0  0  0  0
    7.7772  -15.7852   25.4694 C   0  0  2  0  0  0  0  0  0  0  0  0
    8.5063  -14.9675   26.3894 N   0  0  0  0  0  0  0  0  0  0  0  0
    8.3480  -15.7487   24.0947 C   0  0  0  0  0  0  0  0  0  0  0  0
    7.9089  -16.5111   23.1967 O   0  0  0  0  0  0  0  0  0  0  0  0
    9.3976  -14.8705   23.7287 N   0  0  0  0  0  0  0  0  0  0  0  0
   10.0545  -14.9799   22.4077 C   0  0  0  0  0  0  0  0  0  0  0  0
    9.0279  -15.2909   21.4019 C   0  0  0  0  0  0  0  0  0  0  0  0
    8.6770  -16.5293   21.2408 O   0  0  0  0  0  0  0  0  0  0  0  0
    8.3907  -14.3401   20.5871 N   0  0  0  0  0  0  0  0  0  0  0  0
    8.1989  -12.9620   20.9893 C   0  0  0  0  0  0  0  0  0  0  0  0
    8.2634  -12.1991   19.7058 C   0  0  0  0  0  0  0  0  0  0  0  0
    8.2363  -13.2025   18.5934 C   0  0  0  0  0  0  0  0  0  0  0  0
    7.8144  -14.5017   19.3120 C   0  0  1  0  0  0  0  0  0  0  0  0
    8.2917  -15.6530   18.4998 C   0  0  0  0  0  0  0  0  0  0  0  0
    7.5135  -16.4030   17.8541 O   0  0  0  0  0  0  0  0  0  0  0  0
    9.6456  -15.9201   18.4457 O   0  0  0  0  0  0  0  0  0  0  0  0
  2  1  1  0
  3  2  1  0
  4  5  1  0
  4  3  1  0
  5  6  1  1
  7  8  2  0
  7  5  1  0
  9  7  1  0
 10  9  1  0
 10 11  1  0
 11 13  1  0
 12 11  2  0
 13 14  1  0
 13 17  1  0
 14 15  1  0
 15 16  1  0
 17 18  1  6
 17 16  1  0
 18 20  1  0
 19 18  2  0
M  END
$$$$
