MGP.pdb
     RDKit          3D

 20 20  0  0  1  0  0  0  0  0999 V2000
    6.0551  -11.4858   26.8611 C   0  0  0  0  0  0  0  0  0  0  0  0
    7.0412  -12.4619   25.6853 S   0  0  0  0  0  0  0  0  0  0  0  0
    5.9653  -13.6564   24.8582 C   0  0  0  0  0  0  0  0  0  0  0  0
    6.6941  -14.4171   23.7950 C   0  0  0  0  0  0  0  0  0  0  0  0
    7.2600  -15.7108   24.3588 C   0  0  2  0  0  0  0  0  0  0  0  0
    7.4894  -15.5261   25.7588 N   0  0  0  0  0  0  0  0  0  0  0  0
    8.5002  -16.0725   23.6184 C   0  0  0  0  0  0  0  0  0  0  0  0
    8.4917  -16.1810   22.3660 O   0  0  0  0  0  0  0  0  0  0  0  0
    9.7349  -16.3106   24.2709 N   0  0  0  0  0  0  0  0  0  0  0  0
    9.8431  -17.3179   25.3489 C   0  0  0  0  0  0  0  0  0  0  0  0
   10.9626  -16.9430   26.2254 C   0  0  0  0  0  0  0  0  0  0  0  0
   12.0610  -17.6291   26.1513 O   0  0  0  0  0  0  0  0  0  0  0  0
   10.9353  -15.8881   27.1529 N   0  0  0  0  0  0  0  0  0  0  0  0
   10.5527  -14.5374   26.7965 C   0  0  0  0  0  0  0  0  0  0  0  0
    9.9117  -14.0046   28.0370 C   0  0  0  0  0  0  0  0  0  0  0  0
   10.1830  -14.9898   29.1328 C   0  0  0  0  0  0  0  0  0  0  0  0
   11.2735  -15.8942   28.5203 C   0  0  1  0  0  0  0  0  0  0  0  0
   11.2281  -17.2073   29.2179 C   0  0  0  0  0  0  0  0  0  0  0  0
   12.1139  -17.5800   30.0310 O   0  0  0  0  0  0  0  0  0  0  0  0
   10.1727  -18.0627   28.9691 O   0  0  0  0  0  0  0  0  0  0  0  0
  2  1  1  0
  3  2  1  0
  4  5  1  0
  4  3  1  0
  5  6  1  1
  7  8  2  0
  7  5  1  0
  9  7  1  0
 10  9  1  0
 10 11  1  0
 11 13  1  0
 12 11  2  0
 13 14  1  0
 13 17  1  0
 14 15  1  0
 15 16  1  0
 17 18  1  1
 17 16  1  0
 18 20  1  0
 19 18  2  0
M  END
$$$$
