MGP.pdb
     RDKit          3D

 20 20  0  0  1  0  0  0  0  0999 V2000
    5.8107  -11.8906   27.1027 C   0  0  0  0  0  0  0  0  0  0  0  0
    7.4415  -12.2948   26.4065 S   0  0  0  0  0  0  0  0  0  0  0  0
    7.9570  -13.9193   27.0097 C   0  0  0  0  0  0  0  0  0  0  0  0
    7.0008  -14.9942   26.5963 C   0  0  0  0  0  0  0  0  0  0  0  0
    7.6511  -15.9256   25.5858 C   0  0  2  0  0  0  0  0  0  0  0  0
    9.0707  -15.8172   25.7261 N   0  0  0  0  0  0  0  0  0  0  0  0
    7.1829  -15.5747   24.2166 C   0  0  0  0  0  0  0  0  0  0  0  0
    5.9601  -15.6122   23.9269 O   0  0  0  0  0  0  0  0  0  0  0  0
    8.0715  -15.1870   23.1836 N   0  0  0  0  0  0  0  0  0  0  0  0
    8.7391  -16.1988   22.3357 C   0  0  0  0  0  0  0  0  0  0  0  0
    8.5236  -15.8399   20.9261 C   0  0  0  0  0  0  0  0  0  0  0  0
    8.7639  -16.7345   20.0178 O   0  0  0  0  0  0  0  0  0  0  0  0
    8.0755  -14.5860   20.4781 N   0  0  0  0  0  0  0  0  0  0  0  0
    7.5012  -13.5940   21.3635 C   0  0  0  0  0  0  0  0  0  0  0  0
    7.9004  -12.2901   20.7519 C   0  0  0  0  0  0  0  0  0  0  0  0
    8.4726  -12.5926   19.4005 C   0  0  0  0  0  0  0  0  0  0  0  0
    8.0561  -14.0609   19.1712 C   0  0  1  0  0  0  0  0  0  0  0  0
    9.0020  -14.6604   18.1920 C   0  0  0  0  0  0  0  0  0  0  0  0
    8.7375  -14.7712   16.9662 O   0  0  0  0  0  0  0  0  0  0  0  0
   10.2264  -15.1193   18.6369 O   0  0  0  0  0  0  0  0  0  0  0  0
  2  1  1  0
  3  2  1  0
  4  5  1  0
  4  3  1  0
  5  6  1  6
  7  8  2  0
  7  5  1  0
  9  7  1  0
 10  9  1  0
 10 11  1  0
 11 13  1  0
 12 11  2  0
 13 14  1  0
 13 17  1  0
 14 15  1  0
 15 16  1  0
 17 18  1  6
 17 16  1  0
 18 20  1  0
 19 18  2  0
M  END
$$$$
