MGP.pdb
     RDKit          3D

 20 20  0  0  1  0  0  0  0  0999 V2000
    8.1590  -11.5137   19.7057 C   0  0  0  0  0  0  0  0  0  0  0  0
    7.7964  -13.1948   19.1141 S   0  0  0  0  0  0  0  0  0  0  0  0
    8.1890  -14.3804   20.4214 C   0  0  0  0  0  0  0  0  0  0  0  0
    8.0312  -15.7939   19.9548 C   0  0  0  0  0  0  0  0  0  0  0  0
    8.3557  -16.7650   21.0787 C   0  0  2  0  0  0  0  0  0  0  0  0
    8.2931  -18.0943   20.5535 N   0  0  0  0  0  0  0  0  0  0  0  0
    7.4083  -16.5502   22.2072 C   0  0  0  0  0  0  0  0  0  0  0  0
    6.4820  -17.3696   22.4327 O   0  0  0  0  0  0  0  0  0  0  0  0
    7.4957  -15.4322   23.0728 N   0  0  0  0  0  0  0  0  0  0  0  0
    6.8119  -15.4314   24.3847 C   0  0  0  0  0  0  0  0  0  0  0  0
    7.7269  -14.8636   25.3860 C   0  0  0  0  0  0  0  0  0  0  0  0
    8.7709  -15.5529   25.7291 O   0  0  0  0  0  0  0  0  0  0  0  0
    7.5557  -13.6178   26.0125 N   0  0  0  0  0  0  0  0  0  0  0  0
    6.5688  -12.6496   25.5808 C   0  0  0  0  0  0  0  0  0  0  0  0
    6.1756  -11.9486   26.8407 C   0  0  0  0  0  0  0  0  0  0  0  0
    7.1420  -12.3746   27.9035 C   0  0  0  0  0  0  0  0  0  0  0  0
    8.2640  -13.0591   27.0943 C   0  0  1  0  0  0  0  0  0  0  0  0
    8.9700  -14.0076   27.9969 C   0  0  0  0  0  0  0  0  0  0  0  0
   10.0702  -13.7376   28.5460 O   0  0  0  0  0  0  0  0  0  0  0  0
    8.4026  -15.2411   28.2496 O   0  0  0  0  0  0  0  0  0  0  0  0
  2  1  1  0
  3  2  1  0
  4  5  1  0
  4  3  1  0
  5  6  1  6
  7  8  2  0
  7  5  1  0
  9  7  1  0
 10  9  1  0
 10 11  1  0
 11 13  1  0
 12 11  2  0
 13 14  1  0
 13 17  1  0
 14 15  1  0
 15 16  1  0
 17 18  1  1
 17 16  1  0
 18 20  1  0
 19 18  2  0
M  END
$$$$
