MGP.pdb
     RDKit          3D

 20 20  0  0  1  0  0  0  0  0999 V2000
    5.6576  -12.3461   26.8785 C   0  0  0  0  0  0  0  0  0  0  0  0
    7.4425  -12.6911   26.8303 S   0  0  0  0  0  0  0  0  0  0  0  0
    7.7080  -14.4682   27.0304 C   0  0  0  0  0  0  0  0  0  0  0  0
    6.6534  -15.2692   26.3328 C   0  0  0  0  0  0  0  0  0  0  0  0
    7.2809  -16.1881   25.2967 C   0  0  2  0  0  0  0  0  0  0  0  0
    8.4704  -16.7500   25.8588 N   0  0  0  0  0  0  0  0  0  0  0  0
    7.5451  -15.4195   24.0490 C   0  0  0  0  0  0  0  0  0  0  0  0
    6.5991  -14.9116   23.3952 O   0  0  0  0  0  0  0  0  0  0  0  0
    8.8517  -15.2217   23.5385 N   0  0  0  0  0  0  0  0  0  0  0  0
    9.1093  -14.2274   22.4738 C   0  0  0  0  0  0  0  0  0  0  0  0
    8.8498  -14.8612   21.1726 C   0  0  0  0  0  0  0  0  0  0  0  0
    9.1891  -16.1029   21.0123 O   0  0  0  0  0  0  0  0  0  0  0  0
    8.2588  -14.2183   20.0720 N   0  0  0  0  0  0  0  0  0  0  0  0
    7.3635  -13.0880   20.2093 C   0  0  0  0  0  0  0  0  0  0  0  0
    7.6106  -12.2800   18.9766 C   0  0  0  0  0  0  0  0  0  0  0  0
    8.4553  -13.1148   18.0630 C   0  0  0  0  0  0  0  0  0  0  0  0
    8.3684  -14.5179   18.7001 C   0  0  1  0  0  0  0  0  0  0  0  0
    9.5655  -15.2918   18.2748 C   0  0  0  0  0  0  0  0  0  0  0  0
   10.6735  -15.2171   18.8678 O   0  0  0  0  0  0  0  0  0  0  0  0
    9.4680  -16.1312   17.1824 O   0  0  0  0  0  0  0  0  0  0  0  0
  2  1  1  0
  3  2  1  0
  4  5  1  0
  4  3  1  0
  5  6  1  1
  7  8  2  0
  7  5  1  0
  9  7  1  0
 10  9  1  0
 10 11  1  0
 11 13  1  0
 12 11  2  0
 13 14  1  0
 13 17  1  0
 14 15  1  0
 15 16  1  0
 17 18  1  1
 17 16  1  0
 18 20  1  0
 19 18  2  0
M  END
$$$$
