MGP.pdb
     RDKit          3D

 20 20  0  0  1  0  0  0  0  0999 V2000
   11.1585  -14.1215   29.1467 C   0  0  0  0  0  0  0  0  0  0  0  0
    9.9315  -14.0564   27.8058 S   0  0  0  0  0  0  0  0  0  0  0  0
    8.7581  -15.4164   28.0100 C   0  0  0  0  0  0  0  0  0  0  0  0
    7.6451  -15.3442   27.0116 C   0  0  0  0  0  0  0  0  0  0  0  0
    7.8749  -16.3391   25.8852 C   0  0  2  0  0  0  0  0  0  0  0  0
    9.2813  -16.4146   25.6347 N   0  0  0  0  0  0  0  0  0  0  0  0
    7.1018  -15.9151   24.6852 C   0  0  0  0  0  0  0  0  0  0  0  0
    5.9043  -15.5470   24.7900 O   0  0  0  0  0  0  0  0  0  0  0  0
    7.6611  -15.9035   23.3837 N   0  0  0  0  0  0  0  0  0  0  0  0
    8.1773  -14.6509   22.7895 C   0  0  0  0  0  0  0  0  0  0  0  0
    8.7137  -14.9556   21.4547 C   0  0  0  0  0  0  0  0  0  0  0  0
    9.4682  -16.0018   21.3168 O   0  0  0  0  0  0  0  0  0  0  0  0
    8.4737  -14.1904   20.3011 N   0  0  0  0  0  0  0  0  0  0  0  0
    7.3059  -13.3480   20.1451 C   0  0  0  0  0  0  0  0  0  0  0  0
    7.7876  -12.2169   19.2955 C   0  0  0  0  0  0  0  0  0  0  0  0
    9.1476  -12.5915   18.7904 C   0  0  0  0  0  0  0  0  0  0  0  0
    9.2341  -14.0971   19.1190 C   0  0  1  0  0  0  0  0  0  0  0  0
   10.6721  -14.4658   19.2142 C   0  0  0  0  0  0  0  0  0  0  0  0
   11.4050  -14.1161   20.1763 O   0  0  0  0  0  0  0  0  0  0  0  0
   11.2380  -15.2241   18.2082 O   0  0  0  0  0  0  0  0  0  0  0  0
  2  1  1  0
  3  2  1  0
  4  5  1  0
  4  3  1  0
  5  6  1  6
  7  8  2  0
  7  5  1  0
  9  7  1  0
 10  9  1  0
 10 11  1  0
 11 13  1  0
 12 11  2  0
 13 14  1  0
 13 17  1  0
 14 15  1  0
 15 16  1  0
 17 18  1  1
 17 16  1  0
 18 20  1  0
 19 18  2  0
M  END
$$$$
