MGP.pdb
     RDKit          3D

 20 20  0  0  1  0  0  0  0  0999 V2000
   10.4229  -13.6034   28.8776 C   0  0  0  0  0  0  0  0  0  0  0  0
    9.0492  -13.9968   27.7525 S   0  0  0  0  0  0  0  0  0  0  0  0
    8.7089  -15.7706   27.8306 C   0  0  0  0  0  0  0  0  0  0  0  0
    7.5336  -16.1484   26.9841 C   0  0  0  0  0  0  0  0  0  0  0  0
    7.9965  -16.6771   25.6358 C   0  0  2  0  0  0  0  0  0  0  0  0
    9.4266  -16.6479   25.6108 N   0  0  0  0  0  0  0  0  0  0  0  0
    7.3883  -15.8610   24.5490 C   0  0  0  0  0  0  0  0  0  0  0  0
    6.1413  -15.8251   24.3941 O   0  0  0  0  0  0  0  0  0  0  0  0
    8.1655  -15.0945   23.6460 N   0  0  0  0  0  0  0  0  0  0  0  0
    7.5393  -14.4175   22.4892 C   0  0  0  0  0  0  0  0  0  0  0  0
    8.2982  -14.7665   21.2791 C   0  0  0  0  0  0  0  0  0  0  0  0
    8.9960  -15.8601   21.2821 O   0  0  0  0  0  0  0  0  0  0  0  0
    8.3314  -13.9965   20.1044 N   0  0  0  0  0  0  0  0  0  0  0  0
    7.2441  -13.1280   19.7025 C   0  0  0  0  0  0  0  0  0  0  0  0
    7.9236  -12.0083   18.9830 C   0  0  0  0  0  0  0  0  0  0  0  0
    9.3523  -12.4136   18.7834 C   0  0  0  0  0  0  0  0  0  0  0  0
    9.3322  -13.9206   19.1161 C   0  0  1  0  0  0  0  0  0  0  0  0
   10.7068  -14.3216   19.5194 C   0  0  0  0  0  0  0  0  0  0  0  0
   11.5072  -14.8987   18.7378 O   0  0  0  0  0  0  0  0  0  0  0  0
   11.1330  -14.0544   20.8057 O   0  0  0  0  0  0  0  0  0  0  0  0
  2  1  1  0
  3  2  1  0
  4  5  1  0
  4  3  1  0
  5  6  1  1
  7  8  2  0
  7  5  1  0
  9  7  1  0
 10  9  1  0
 10 11  1  0
 11 13  1  0
 12 11  2  0
 13 14  1  0
 13 17  1  0
 14 15  1  0
 15 16  1  0
 17 18  1  1
 17 16  1  0
 18 20  1  0
 19 18  2  0
M  END
$$$$
