MGP.pdb
     RDKit          3D

 20 20  0  0  1  0  0  0  0  0999 V2000
    8.9782  -13.2233   28.5459 C   0  0  0  0  0  0  0  0  0  0  0  0
   10.1159  -14.6422   28.5410 S   0  0  0  0  0  0  0  0  0  0  0  0
    9.6637  -15.7595   27.1936 C   0  0  0  0  0  0  0  0  0  0  0  0
    8.4425  -16.5602   27.5223 C   0  0  0  0  0  0  0  0  0  0  0  0
    7.9106  -17.2548   26.2789 C   0  0  2  0  0  0  0  0  0  0  0  0
    9.0174  -17.8345   25.5821 N   0  0  0  0  0  0  0  0  0  0  0  0
    7.1607  -16.2738   25.4467 C   0  0  0  0  0  0  0  0  0  0  0  0
    6.4086  -15.4202   25.9816 O   0  0  0  0  0  0  0  0  0  0  0  0
    7.2505  -16.2481   24.0331 N   0  0  0  0  0  0  0  0  0  0  0  0
    7.4471  -14.9742   23.3070 C   0  0  0  0  0  0  0  0  0  0  0  0
    8.0539  -15.2719   22.0011 C   0  0  0  0  0  0  0  0  0  0  0  0
    8.6858  -16.3954   21.8559 O   0  0  0  0  0  0  0  0  0  0  0  0
    8.0064  -14.4221   20.8833 N   0  0  0  0  0  0  0  0  0  0  0  0
    7.0056  -13.3872   20.7243 C   0  0  0  0  0  0  0  0  0  0  0  0
    7.7137  -12.3143   19.9622 C   0  0  0  0  0  0  0  0  0  0  0  0
    9.0167  -12.8893   19.4967 C   0  0  0  0  0  0  0  0  0  0  0  0
    8.8330  -14.4019   19.7429 C   0  0  1  0  0  0  0  0  0  0  0  0
   10.1821  -15.0135   19.8800 C   0  0  0  0  0  0  0  0  0  0  0  0
   10.8890  -14.8845   20.9137 O   0  0  0  0  0  0  0  0  0  0  0  0
   10.6910  -15.7566   18.8330 O   0  0  0  0  0  0  0  0  0  0  0  0
  2  1  1  0
  3  2  1  0
  4  5  1  0
  4  3  1  0
  5  6  1  6
  7  8  2  0
  7  5  1  0
  9  7  1  0
 10  9  1  0
 10 11  1  0
 11 13  1  0
 12 11  2  0
 13 14  1  0
 13 17  1  0
 14 15  1  0
 15 16  1  0
 17 18  1  1
 17 16  1  0
 18 20  1  0
 19 18  2  0
M  END
$$$$
