MGP.pdb
     RDKit          3D

 20 20  0  0  1  0  0  0  0  0999 V2000
    7.2848  -11.8511   27.1040 C   0  0  0  0  0  0  0  0  0  0  0  0
    6.5369  -13.3970   26.5054 S   0  0  0  0  0  0  0  0  0  0  0  0
    7.5573  -14.7925   27.0344 C   0  0  0  0  0  0  0  0  0  0  0  0
    6.9354  -16.1045   26.6706 C   0  0  0  0  0  0  0  0  0  0  0  0
    7.6681  -16.7337   25.4963 C   0  0  2  0  0  0  0  0  0  0  0  0
    8.6633  -15.8111   25.0436 N   0  0  0  0  0  0  0  0  0  0  0  0
    6.6875  -17.0855   24.4324 C   0  0  0  0  0  0  0  0  0  0  0  0
    6.2371  -18.2552   24.3356 O   0  0  0  0  0  0  0  0  0  0  0  0
    6.2165  -16.1405   23.4879 N   0  0  0  0  0  0  0  0  0  0  0  0
    6.1814  -16.4615   22.0442 C   0  0  0  0  0  0  0  0  0  0  0  0
    7.5220  -16.2342   21.4843 C   0  0  0  0  0  0  0  0  0  0  0  0
    8.4045  -17.1788   21.5928 O   0  0  0  0  0  0  0  0  0  0  0  0
    7.9300  -15.0568   20.8354 N   0  0  0  0  0  0  0  0  0  0  0  0
    6.9962  -14.1211   20.2436 C   0  0  0  0  0  0  0  0  0  0  0  0
    7.6638  -12.7938   20.4055 C   0  0  0  0  0  0  0  0  0  0  0  0
    9.0680  -13.0575   20.8567 C   0  0  0  0  0  0  0  0  0  0  0  0
    9.2320  -14.5714   20.6046 C   0  0  1  0  0  0  0  0  0  0  0  0
   10.3057  -15.0743   21.5031 C   0  0  0  0  0  0  0  0  0  0  0  0
   11.4745  -15.3159   21.1024 O   0  0  0  0  0  0  0  0  0  0  0  0
   10.0181  -15.2896   22.8366 O   0  0  0  0  0  0  0  0  0  0  0  0
  2  1  1  0
  3  2  1  0
  4  5  1  0
  4  3  1  0
  5  6  1  6
  7  8  2  0
  7  5  1  0
  9  7  1  0
 10  9  1  0
 10 11  1  0
 11 13  1  0
 12 11  2  0
 13 14  1  0
 13 17  1  0
 14 15  1  0
 15 16  1  0
 17 18  1  1
 17 16  1  0
 18 20  1  0
 19 18  2  0
M  END
$$$$
