MGP.pdb
     RDKit          3D

 20 20  0  0  1  0  0  0  0  0999 V2000
    6.2431  -11.2855   26.5028 C   0  0  0  0  0  0  0  0  0  0  0  0
    6.9661  -11.5130   24.8495 S   0  0  0  0  0  0  0  0  0  0  0  0
    6.3877  -13.0813   24.1607 C   0  0  0  0  0  0  0  0  0  0  0  0
    6.9776  -13.3460   22.8107 C   0  0  0  0  0  0  0  0  0  0  0  0
    8.2673  -14.1409   22.9397 C   0  0  2  0  0  0  0  0  0  0  0  0
    8.7247  -14.4681   21.6243 N   0  0  0  0  0  0  0  0  0  0  0  0
    8.0231  -15.3474   23.7775 C   0  0  0  0  0  0  0  0  0  0  0  0
    7.0728  -16.1282   23.5172 O   0  0  0  0  0  0  0  0  0  0  0  0
    8.8318  -15.6766   24.8931 N   0  0  0  0  0  0  0  0  0  0  0  0
    8.5347  -16.8645   25.7232 C   0  0  0  0  0  0  0  0  0  0  0  0
    9.6188  -17.0308   26.7025 C   0  0  0  0  0  0  0  0  0  0  0  0
   10.1507  -18.2059   26.8408 O   0  0  0  0  0  0  0  0  0  0  0  0
   10.1290  -16.0044   27.5149 N   0  0  0  0  0  0  0  0  0  0  0  0
    9.7353  -14.6180   27.3703 C   0  0  0  0  0  0  0  0  0  0  0  0
    9.8175  -14.0727   28.7592 C   0  0  0  0  0  0  0  0  0  0  0  0
   10.5003  -15.1075   29.6006 C   0  0  0  0  0  0  0  0  0  0  0  0
   11.0820  -16.0767   28.5496 C   0  0  1  0  0  0  0  0  0  0  0  0
   11.2696  -17.4018   29.1990 C   0  0  0  0  0  0  0  0  0  0  0  0
   10.3486  -18.2556   29.2881 O   0  0  0  0  0  0  0  0  0  0  0  0
   12.5039  -17.7191   29.7312 O   0  0  0  0  0  0  0  0  0  0  0  0
  2  1  1  0
  3  2  1  0
  4  5  1  0
  4  3  1  0
  5  6  1  6
  7  8  2  0
  7  5  1  0
  9  7  1  0
 10  9  1  0
 10 11  1  0
 11 13  1  0
 12 11  2  0
 13 14  1  0
 13 17  1  0
 14 15  1  0
 15 16  1  0
 17 18  1  1
 17 16  1  0
 18 20  1  0
 19 18  2  0
M  END
$$$$
