MGP.pdb
     RDKit          3D

 20 20  0  0  1  0  0  0  0  0999 V2000
    7.6171  -11.7080   27.8722 C   0  0  0  0  0  0  0  0  0  0  0  0
    6.5724  -12.8165   26.8785 S   0  0  0  0  0  0  0  0  0  0  0  0
    7.1921  -14.5081   27.0298 C   0  0  0  0  0  0  0  0  0  0  0  0
    6.3574  -15.4769   26.2518 C   0  0  0  0  0  0  0  0  0  0  0  0
    7.2104  -16.2173   25.2341 C   0  0  2  0  0  0  0  0  0  0  0  0
    8.3549  -16.7465   25.9098 N   0  0  0  0  0  0  0  0  0  0  0  0
    7.5767  -15.2905   24.1277 C   0  0  0  0  0  0  0  0  0  0  0  0
    6.6872  -14.7230   23.4443 O   0  0  0  0  0  0  0  0  0  0  0  0
    8.9219  -15.0022   23.7894 N   0  0  0  0  0  0  0  0  0  0  0  0
    9.2454  -14.0785   22.6801 C   0  0  0  0  0  0  0  0  0  0  0  0
    8.9922  -14.7719   21.4084 C   0  0  0  0  0  0  0  0  0  0  0  0
    9.3554  -16.0124   21.2989 O   0  0  0  0  0  0  0  0  0  0  0  0
    8.3832  -14.1880   20.2850 N   0  0  0  0  0  0  0  0  0  0  0  0
    7.4384  -13.0944   20.3822 C   0  0  0  0  0  0  0  0  0  0  0  0
    7.6606  -12.3129   19.1279 C   0  0  0  0  0  0  0  0  0  0  0  0
    8.5485  -13.1363   18.2455 C   0  0  0  0  0  0  0  0  0  0  0  0
    8.5173  -14.5226   18.9233 C   0  0  1  0  0  0  0  0  0  0  0  0
    9.7505  -15.2556   18.5298 C   0  0  0  0  0  0  0  0  0  0  0  0
   10.8681  -15.0536   19.0730 O   0  0  0  0  0  0  0  0  0  0  0  0
    9.6771  -16.2006   17.5253 O   0  0  0  0  0  0  0  0  0  0  0  0
  2  1  1  0
  3  2  1  0
  4  5  1  0
  4  3  1  0
  5  6  1  1
  7  8  2  0
  7  5  1  0
  9  7  1  0
 10  9  1  0
 10 11  1  0
 11 13  1  0
 12 11  2  0
 13 14  1  0
 13 17  1  0
 14 15  1  0
 15 16  1  0
 17 18  1  1
 17 16  1  0
 18 20  1  0
 19 18  2  0
M  END
$$$$
