MGP.pdb
     RDKit          3D

 20 20  0  0  1  0  0  0  0  0999 V2000
    8.7312  -11.8715   20.4170 C   0  0  0  0  0  0  0  0  0  0  0  0
    8.0477  -12.8335   19.0332 S   0  0  0  0  0  0  0  0  0  0  0  0
    7.5889  -14.4790   19.6250 C   0  0  0  0  0  0  0  0  0  0  0  0
    8.6166  -15.0402   20.5575 C   0  0  0  0  0  0  0  0  0  0  0  0
    8.1590  -16.3808   21.1098 C   0  0  2  0  0  0  0  0  0  0  0  0
    6.9140  -16.7182   20.4911 N   0  0  0  0  0  0  0  0  0  0  0  0
    8.0566  -16.2959   22.5929 C   0  0  0  0  0  0  0  0  0  0  0  0
    9.0903  -16.2841   23.3082 O   0  0  0  0  0  0  0  0  0  0  0  0
    6.8130  -16.2256   23.2678 N   0  0  0  0  0  0  0  0  0  0  0  0
    6.7528  -16.1446   24.7437 C   0  0  0  0  0  0  0  0  0  0  0  0
    7.7940  -15.2126   25.2015 C   0  0  0  0  0  0  0  0  0  0  0  0
    9.0318  -15.5974   25.1519 O   0  0  0  0  0  0  0  0  0  0  0  0
    7.5508  -13.9215   25.6992 N   0  0  0  0  0  0  0  0  0  0  0  0
    6.4198  -13.1183   25.2826 C   0  0  0  0  0  0  0  0  0  0  0  0
    6.0874  -12.3077   26.4933 C   0  0  0  0  0  0  0  0  0  0  0  0
    7.2045  -12.4986   27.4734 C   0  0  0  0  0  0  0  0  0  0  0  0
    8.3033  -13.1637   26.6176 C   0  0  1  0  0  0  0  0  0  0  0  0
    9.2054  -13.9163   27.5301 C   0  0  0  0  0  0  0  0  0  0  0  0
   10.2732  -13.4317   27.9881 O   0  0  0  0  0  0  0  0  0  0  0  0
    8.8662  -15.2040   27.8966 O   0  0  0  0  0  0  0  0  0  0  0  0
  2  1  1  0
  3  2  1  0
  4  5  1  0
  4  3  1  0
  5  6  1  6
  7  8  2  0
  7  5  1  0
  9  7  1  0
 10  9  1  0
 10 11  1  0
 11 13  1  0
 12 11  2  0
 13 14  1  0
 13 17  1  0
 14 15  1  0
 15 16  1  0
 17 18  1  1
 17 16  1  0
 18 20  1  0
 19 18  2  0
M  END
$$$$
