QPL.pdb
     RDKit          3D

 25 25  0  0  1  0  0  0  0  0999 V2000
   13.5269  -13.6754   19.6224 N   0  0  0  0  0  0  0  0  0  0  0  0
   12.8951  -14.9106   19.2629 C   0  0  0  0  0  0  0  0  0  0  0  0
   13.5909  -15.9484   19.3978 O   0  0  0  0  0  0  0  0  0  0  0  0
   11.4998  -14.8817   18.7708 C   0  0  0  0  0  0  0  0  0  0  0  0
   10.6082  -14.2045   19.7460 C   0  0  0  0  0  0  0  0  0  0  0  0
    9.1366  -14.2858   19.4349 C   0  0  2  0  0  0  0  0  0  0  0  0
    8.7678  -13.0434   18.8107 N   0  0  0  0  0  0  0  0  0  0  0  0
    8.3653  -14.5643   20.6684 C   0  0  0  0  0  0  0  0  0  0  0  0
    7.9249  -13.5718   21.3035 O   0  0  0  0  0  0  0  0  0  0  0  0
    8.0951  -15.8525   21.1720 N   0  0  0  0  0  0  0  0  0  0  0  0
    8.6200  -17.0587   20.5735 C   0  0  0  0  0  0  0  0  0  0  0  0
    8.1278  -18.2178   21.3883 C   0  0  0  0  0  0  0  0  0  0  0  0
    7.0073  -17.6804   22.2005 C   0  0  0  0  0  0  0  0  0  0  0  0
    7.2891  -16.1973   22.3159 C   0  0  1  0  0  0  0  0  0  0  0  0
    7.9388  -15.8538   23.6042 C   0  0  0  0  0  0  0  0  0  0  0  0
    9.1934  -15.8946   23.7019 O   0  0  0  0  0  0  0  0  0  0  0  0
    7.3254  -12.0315   26.1597 C   0  0  0  0  0  0  0  0  0  0  0  0
    6.3117  -13.1665   26.2694 C   0  0  2  0  0  0  0  0  0  0  0  0
    5.1211  -12.6723   27.0697 C   0  0  0  0  0  0  0  0  0  0  0  0
    6.9248  -14.3738   26.9215 C   0  0  0  0  0  0  0  0  0  0  0  0
    7.8878  -15.0426   26.0090 C   0  0  2  0  0  0  0  0  0  0  0  0
    7.2227  -15.4711   24.7685 N   0  0  0  0  0  0  0  0  0  0  0  0
    8.5762  -16.1643   26.6422 C   0  0  0  0  0  0  0  0  0  0  0  0
    8.3823  -17.3741   26.4617 O   0  0  0  0  0  0  0  0  0  0  0  0
    9.5911  -15.8534   27.5784 O   0  0  0  0  0  0  0  0  0  0  0  0
  2  3  2  0
  2  1  1  0
  4  2  1  0
  5  4  1  0
  6  5  1  0
  6  7  1  1
  8 10  1  0
  8  6  1  0
  9  8  2  0
 10 14  1  0
 11 10  1  0
 11 12  1  0
 12 13  1  0
 14 13  1  0
 14 15  1  1
 15 16  2  0
 18 17  1  1
 18 19  1  0
 20 18  1  0
 21 20  1  1
 22 21  1  0
 22 15  1  0
 23 25  1  0
 23 21  1  0
 24 23  2  0
M  END
$$$$
