QPL.pdb
     RDKit          3D

 25 25  0  0  1  0  0  0  0  0999 V2000
    8.4988  -20.8540   20.2816 N   0  0  0  0  0  0  0  0  0  0  0  0
    7.4852  -20.6265   19.2941 C   0  0  0  0  0  0  0  0  0  0  0  0
    7.0490  -21.6461   18.7030 O   0  0  0  0  0  0  0  0  0  0  0  0
    7.0305  -19.2405   19.0445 C   0  0  0  0  0  0  0  0  0  0  0  0
    7.6547  -18.2970   20.0063 C   0  0  0  0  0  0  0  0  0  0  0  0
    8.5559  -17.2574   19.3930 C   0  0  2  0  0  0  0  0  0  0  0  0
    9.6667  -17.9563   18.8041 N   0  0  0  0  0  0  0  0  0  0  0  0
    8.9710  -16.2696   20.4157 C   0  0  0  0  0  0  0  0  0  0  0  0
    9.9077  -16.6035   21.1859 O   0  0  0  0  0  0  0  0  0  0  0  0
    8.3929  -14.9950   20.5810 N   0  0  0  0  0  0  0  0  0  0  0  0
    7.3075  -14.5094   19.7598 C   0  0  0  0  0  0  0  0  0  0  0  0
    6.9600  -13.1314   20.2397 C   0  0  0  0  0  0  0  0  0  0  0  0
    8.1159  -12.6991   21.0650 C   0  0  0  0  0  0  0  0  0  0  0  0
    8.7515  -13.9864   21.5459 C   0  0  1  0  0  0  0  0  0  0  0  0
    8.3309  -14.3320   22.9255 C   0  0  0  0  0  0  0  0  0  0  0  0
    7.2512  -14.9521   23.1129 O   0  0  0  0  0  0  0  0  0  0  0  0
    7.8882  -11.8206   26.6911 C   0  0  0  0  0  0  0  0  0  0  0  0
    7.0107  -12.4810   25.6319 C   0  0  2  0  0  0  0  0  0  0  0  0
    5.5632  -12.1279   25.9183 C   0  0  0  0  0  0  0  0  0  0  0  0
    7.2023  -13.9716   25.6282 C   0  0  0  0  0  0  0  0  0  0  0  0
    8.6336  -14.3258   25.4459 C   0  0  2  0  0  0  0  0  0  0  0  0
    9.0837  -14.0024   24.0829 N   0  0  0  0  0  0  0  0  0  0  0  0
    8.9122  -15.7233   25.7659 C   0  0  0  0  0  0  0  0  0  0  0  0
    9.1074  -16.6586   24.9780 O   0  0  0  0  0  0  0  0  0  0  0  0
    8.9706  -16.0724   27.1363 O   0  0  0  0  0  0  0  0  0  0  0  0
  2  3  2  0
  2  1  1  0
  4  2  1  0
  5  4  1  0
  6  5  1  0
  6  7  1  1
  8 10  1  0
  8  6  1  0
  9  8  2  0
 10 14  1  0
 11 10  1  0
 11 12  1  0
 12 13  1  0
 14 13  1  0
 14 15  1  1
 15 16  2  0
 18 17  1  1
 18 19  1  0
 20 18  1  0
 21 20  1  6
 22 21  1  0
 22 15  1  0
 23 25  1  0
 23 21  1  0
 24 23  2  0
M  END
$$$$
