QPL.pdb
     RDKit          3D

 25 25  0  0  1  0  0  0  0  0999 V2000
    3.7554  -18.1504   22.1669 N   0  0  0  0  0  0  0  0  0  0  0  0
    4.9107  -18.0363   23.0075 C   0  0  0  0  0  0  0  0  0  0  0  0
    4.7068  -18.1272   24.2443 O   0  0  0  0  0  0  0  0  0  0  0  0
    6.2333  -17.8261   22.3780 C   0  0  0  0  0  0  0  0  0  0  0  0
    6.1004  -17.6626   20.9082 C   0  0  0  0  0  0  0  0  0  0  0  0
    7.3808  -17.3514   20.1782 C   0  0  2  0  0  0  0  0  0  0  0  0
    8.0497  -18.6036   19.9467 N   0  0  0  0  0  0  0  0  0  0  0  0
    8.1984  -16.3951   20.9599 C   0  0  0  0  0  0  0  0  0  0  0  0
    9.0956  -16.8791   21.6967 O   0  0  0  0  0  0  0  0  0  0  0  0
    8.0398  -14.9950   20.9330 N   0  0  0  0  0  0  0  0  0  0  0  0
    7.0192  -14.3323   20.1535 C   0  0  0  0  0  0  0  0  0  0  0  0
    7.1586  -12.8574   20.3884 C   0  0  0  0  0  0  0  0  0  0  0  0
    8.5067  -12.6795   20.9842 C   0  0  0  0  0  0  0  0  0  0  0  0
    8.8200  -14.0090   21.6374 C   0  0  1  0  0  0  0  0  0  0  0  0
    8.5463  -13.9901   23.0949 C   0  0  0  0  0  0  0  0  0  0  0  0
    7.9061  -13.0299   23.5982 O   0  0  0  0  0  0  0  0  0  0  0  0
    8.0254  -12.2329   26.5230 C   0  0  0  0  0  0  0  0  0  0  0  0
    7.1516  -13.1344   25.6559 C   0  0  2  0  0  0  0  0  0  0  0  0
    5.6976  -12.8670   25.9972 C   0  0  0  0  0  0  0  0  0  0  0  0
    7.4901  -14.5823   25.8742 C   0  0  0  0  0  0  0  0  0  0  0  0
    8.8836  -14.8749   25.4502 C   0  0  2  0  0  0  0  0  0  0  0  0
    8.9686  -15.0098   23.9875 N   0  0  0  0  0  0  0  0  0  0  0  0
    9.4372  -16.0530   26.1125 C   0  0  0  0  0  0  0  0  0  0  0  0
    9.5391  -16.2629   27.3288 O   0  0  0  0  0  0  0  0  0  0  0  0
    9.9212  -17.0924   25.2826 O   0  0  0  0  0  0  0  0  0  0  0  0
  2  3  2  0
  2  1  1  0
  4  2  1  0
  5  4  1  0
  6  5  1  0
  6  7  1  1
  8 10  1  0
  8  6  1  0
  9  8  2  0
 10 14  1  0
 11 10  1  0
 11 12  1  0
 12 13  1  0
 14 13  1  0
 14 15  1  1
 15 16  2  0
 18 17  1  1
 18 19  1  0
 20 18  1  0
 21 20  1  6
 22 21  1  0
 22 15  1  0
 23 25  1  0
 23 21  1  0
 24 23  2  0
M  END
$$$$
