QPL.pdb
     RDKit          3D

 25 25  0  0  1  0  0  0  0  0999 V2000
    9.1891  -21.0187   21.8393 N   0  0  0  0  0  0  0  0  0  0  0  0
   10.3656  -20.3494   22.3109 C   0  0  0  0  0  0  0  0  0  0  0  0
   10.9367  -20.8667   23.3036 O   0  0  0  0  0  0  0  0  0  0  0  0
   10.8183  -19.1255   21.6131 C   0  0  0  0  0  0  0  0  0  0  0  0
    9.9413  -18.8214   20.4542 C   0  0  0  0  0  0  0  0  0  0  0  0
   10.1833  -17.4871   19.7983 C   0  0  2  0  0  0  0  0  0  0  0  0
   11.5747  -17.4411   19.4362 N   0  0  0  0  0  0  0  0  0  0  0  0
    9.7860  -16.3878   20.7079 C   0  0  0  0  0  0  0  0  0  0  0  0
   10.7011  -15.8366   21.3722 O   0  0  0  0  0  0  0  0  0  0  0  0
    8.4662  -15.9235   20.8766 N   0  0  0  0  0  0  0  0  0  0  0  0
    7.3465  -16.4409   20.1235 C   0  0  0  0  0  0  0  0  0  0  0  0
    6.1179  -15.7149   20.5855 C   0  0  0  0  0  0  0  0  0  0  0  0
    6.6166  -14.5184   21.3091 C   0  0  0  0  0  0  0  0  0  0  0  0
    8.0035  -14.9011   21.7809 C   0  0  1  0  0  0  0  0  0  0  0  0
    8.0071  -15.3394   23.1978 C   0  0  0  0  0  0  0  0  0  0  0  0
    8.0452  -16.5676   23.4721 O   0  0  0  0  0  0  0  0  0  0  0  0
    6.0779  -13.0902   25.6017 C   0  0  0  0  0  0  0  0  0  0  0  0
    6.8752  -13.2844   26.8879 C   0  0  2  0  0  0  0  0  0  0  0  0
    6.8353  -11.9899   27.6784 C   0  0  0  0  0  0  0  0  0  0  0  0
    8.2939  -13.6783   26.5867 C   0  0  0  0  0  0  0  0  0  0  0  0
    8.3408  -14.8424   25.6647 C   0  0  2  0  0  0  0  0  0  0  0  0
    7.9695  -14.4433   24.2981 N   0  0  0  0  0  0  0  0  0  0  0  0
    7.5137  -15.9558   26.1223 C   0  0  0  0  0  0  0  0  0  0  0  0
    6.3773  -16.2653   25.7395 O   0  0  0  0  0  0  0  0  0  0  0  0
    8.0577  -16.7949   27.1239 O   0  0  0  0  0  0  0  0  0  0  0  0
  2  3  2  0
  2  1  1  0
  4  2  1  0
  5  4  1  0
  6  5  1  0
  6  7  1  1
  8 10  1  0
  8  6  1  0
  9  8  2  0
 10 14  1  0
 11 10  1  0
 11 12  1  0
 12 13  1  0
 14 13  1  0
 14 15  1  1
 15 16  2  0
 18 17  1  6
 18 19  1  0
 20 18  1  0
 21 20  1  1
 22 21  1  0
 22 15  1  0
 23 25  1  0
 23 21  1  0
 24 23  2  0
M  END
$$$$
