QPL.pdb
     RDKit          3D

 25 25  0  0  1  0  0  0  0  0999 V2000
   10.3884  -20.6888   21.9520 N   0  0  0  0  0  0  0  0  0  0  0  0
   11.2190  -20.5293   20.7948 C   0  0  0  0  0  0  0  0  0  0  0  0
   12.0088  -21.4744   20.5454 O   0  0  0  0  0  0  0  0  0  0  0  0
   11.0925  -19.2935   19.9907 C   0  0  0  0  0  0  0  0  0  0  0  0
   10.0842  -18.3777   20.5818 C   0  0  0  0  0  0  0  0  0  0  0  0
   10.3502  -16.9096   20.3744 C   0  0  2  0  0  0  0  0  0  0  0  0
   11.6711  -16.7947   19.8166 N   0  0  0  0  0  0  0  0  0  0  0  0
   10.1956  -16.1741   21.6507 C   0  0  0  0  0  0  0  0  0  0  0  0
   11.2503  -15.8299   22.2434 O   0  0  0  0  0  0  0  0  0  0  0  0
    8.9596  -15.8381   22.2383 N   0  0  0  0  0  0  0  0  0  0  0  0
    7.6872  -16.1243   21.6157 C   0  0  0  0  0  0  0  0  0  0  0  0
    6.6122  -15.6325   22.5390 C   0  0  0  0  0  0  0  0  0  0  0  0
    7.2961  -14.7174   23.4871 C   0  0  0  0  0  0  0  0  0  0  0  0
    8.7373  -15.1813   23.5018 C   0  0  1  0  0  0  0  0  0  0  0  0
    9.0281  -16.0543   24.6650 C   0  0  0  0  0  0  0  0  0  0  0  0
    8.8946  -17.3018   24.5590 O   0  0  0  0  0  0  0  0  0  0  0  0
   10.4577  -13.4178   27.4665 C   0  0  0  0  0  0  0  0  0  0  0  0
    9.4616  -14.3400   28.1630 C   0  0  2  0  0  0  0  0  0  0  0  0
    9.1455  -13.7617   29.5297 C   0  0  0  0  0  0  0  0  0  0  0  0
   10.0155  -15.7312   28.2909 C   0  0  0  0  0  0  0  0  0  0  0  0
    9.9724  -16.4450   26.9886 C   0  0  2  0  0  0  0  0  0  0  0  0
    9.4591  -15.5661   25.9263 N   0  0  0  0  0  0  0  0  0  0  0  0
    9.2033  -17.6850   27.0523 C   0  0  0  0  0  0  0  0  0  0  0  0
    8.1235  -17.9381   26.5014 O   0  0  0  0  0  0  0  0  0  0  0  0
    9.7390  -18.7375   27.8324 O   0  0  0  0  0  0  0  0  0  0  0  0
  2  3  2  0
  2  1  1  0
  4  2  1  0
  5  4  1  0
  6  5  1  0
  6  7  1  1
  8 10  1  0
  8  6  1  0
  9  8  2  0
 10 14  1  0
 11 10  1  0
 11 12  1  0
 12 13  1  0
 14 13  1  0
 14 15  1  1
 15 16  2  0
 18 17  1  1
 18 19  1  0
 20 18  1  0
 21 20  1  1
 22 21  1  0
 22 15  1  0
 23 25  1  0
 23 21  1  0
 24 23  2  0
M  END
$$$$
