QPL.pdb
     RDKit          3D

 25 25  0  0  1  0  0  0  0  0999 V2000
    7.8402  -19.4430   22.2050 N   0  0  0  0  0  0  0  0  0  0  0  0
    9.2529  -19.4937   22.4419 C   0  0  0  0  0  0  0  0  0  0  0  0
    9.6108  -19.9261   23.5663 O   0  0  0  0  0  0  0  0  0  0  0  0
   10.1723  -19.0461   21.3722 C   0  0  0  0  0  0  0  0  0  0  0  0
    9.4166  -18.4748   20.2289 C   0  0  0  0  0  0  0  0  0  0  0  0
   10.1118  -17.3598   19.4924 C   0  0  2  0  0  0  0  0  0  0  0  0
   11.4757  -17.7714   19.2935 N   0  0  0  0  0  0  0  0  0  0  0  0
    9.9951  -16.0924   20.2501 C   0  0  0  0  0  0  0  0  0  0  0  0
   10.9994  -15.7293   20.9147 O   0  0  0  0  0  0  0  0  0  0  0  0
    8.8469  -15.2757   20.2753 N   0  0  0  0  0  0  0  0  0  0  0  0
    7.6874  -15.5203   19.4480 C   0  0  0  0  0  0  0  0  0  0  0  0
    6.6772  -14.4567   19.7612 C   0  0  0  0  0  0  0  0  0  0  0  0
    7.4322  -13.3935   20.4707 C   0  0  0  0  0  0  0  0  0  0  0  0
    8.6191  -14.1053   21.0848 C   0  0  1  0  0  0  0  0  0  0  0  0
    8.3947  -14.4275   22.5150 C   0  0  0  0  0  0  0  0  0  0  0  0
    7.9576  -15.5630   22.8388 O   0  0  0  0  0  0  0  0  0  0  0  0
    6.0395  -13.6006   27.0620 C   0  0  0  0  0  0  0  0  0  0  0  0
    7.3578  -12.8325   27.0509 C   0  0  2  0  0  0  0  0  0  0  0  0
    7.1678  -11.5402   27.8229 C   0  0  0  0  0  0  0  0  0  0  0  0
    7.8031  -12.5493   25.6437 C   0  0  0  0  0  0  0  0  0  0  0  0
    8.2624  -13.7905   24.9687 C   0  0  2  0  0  0  0  0  0  0  0  0
    8.6463  -13.5173   23.5749 N   0  0  0  0  0  0  0  0  0  0  0  0
    7.2744  -14.8642   25.0334 C   0  0  0  0  0  0  0  0  0  0  0  0
    6.2243  -14.9702   24.3854 O   0  0  0  0  0  0  0  0  0  0  0  0
    7.5285  -15.9214   25.9395 O   0  0  0  0  0  0  0  0  0  0  0  0
  2  3  2  0
  2  1  1  0
  4  2  1  0
  5  4  1  0
  6  5  1  0
  6  7  1  1
  8 10  1  0
  8  6  1  0
  9  8  2  0
 10 14  1  0
 11 10  1  0
 11 12  1  0
 12 13  1  0
 14 13  1  0
 14 15  1  1
 15 16  2  0
 18 17  1  6
 18 19  1  0
 20 18  1  0
 21 20  1  6
 22 21  1  0
 22 15  1  0
 23 25  1  0
 23 21  1  0
 24 23  2  0
M  END
$$$$
