QPL.pdb
     RDKit          3D

 25 25  0  0  1  0  0  0  0  0999 V2000
    3.6860  -20.3582   20.7035 N   0  0  0  0  0  0  0  0  0  0  0  0
    3.4567  -19.0487   21.2391 C   0  0  0  0  0  0  0  0  0  0  0  0
    2.2551  -18.7232   21.4110 O   0  0  0  0  0  0  0  0  0  0  0  0
    4.6217  -18.1899   21.5476 C   0  0  0  0  0  0  0  0  0  0  0  0
    4.9486  -17.3080   20.3987 C   0  0  0  0  0  0  0  0  0  0  0  0
    6.3256  -17.4947   19.8172 C   0  0  2  0  0  0  0  0  0  0  0  0
    6.5722  -18.9108   19.7624 N   0  0  0  0  0  0  0  0  0  0  0  0
    7.3284  -16.7642   20.6264 C   0  0  0  0  0  0  0  0  0  0  0  0
    8.1325  -17.4570   21.3016 O   0  0  0  0  0  0  0  0  0  0  0  0
    7.4403  -15.3608   20.6893 N   0  0  0  0  0  0  0  0  0  0  0  0
    6.5700  -14.4673   19.9594 C   0  0  0  0  0  0  0  0  0  0  0  0
    6.9870  -13.0641   20.2864 C   0  0  0  0  0  0  0  0  0  0  0  0
    8.3405  -13.1850   20.8843 C   0  0  0  0  0  0  0  0  0  0  0  0
    8.3900  -14.5886   21.4500 C   0  0  1  0  0  0  0  0  0  0  0  0
    8.1158  -14.6101   22.9074 C   0  0  0  0  0  0  0  0  0  0  0  0
    6.9497  -14.8442   23.3206 O   0  0  0  0  0  0  0  0  0  0  0  0
    5.9363  -12.0879   26.8708 C   0  0  0  0  0  0  0  0  0  0  0  0
    7.2690  -12.8274   26.8002 C   0  0  2  0  0  0  0  0  0  0  0  0
    8.3202  -11.9926   27.5077 C   0  0  0  0  0  0  0  0  0  0  0  0
    7.6669  -13.0835   25.3738 C   0  0  0  0  0  0  0  0  0  0  0  0
    8.7774  -14.0675   25.2974 C   0  0  2  0  0  0  0  0  0  0  0  0
    9.1064  -14.3783   23.8974 N   0  0  0  0  0  0  0  0  0  0  0  0
    8.4988  -15.2891   26.0479 C   0  0  0  0  0  0  0  0  0  0  0  0
    7.7726  -16.2357   25.7157 O   0  0  0  0  0  0  0  0  0  0  0  0
    9.1244  -15.4282   27.3099 O   0  0  0  0  0  0  0  0  0  0  0  0
  2  3  2  0
  2  1  1  0
  4  2  1  0
  5  4  1  0
  6  5  1  0
  6  7  1  1
  8 10  1  0
  8  6  1  0
  9  8  2  0
 10 14  1  0
 11 10  1  0
 11 12  1  0
 12 13  1  0
 14 13  1  0
 14 15  1  1
 15 16  2  0
 18 17  1  6
 18 19  1  0
 20 18  1  0
 21 20  1  6
 22 21  1  0
 22 15  1  0
 23 25  1  0
 23 21  1  0
 24 23  2  0
M  END
$$$$
