QPL.pdb
     RDKit          3D

 25 25  0  0  1  0  0  0  0  0999 V2000
    8.9707  -20.9697   21.7462 N   0  0  0  0  0  0  0  0  0  0  0  0
    9.8283  -20.1683   22.5687 C   0  0  0  0  0  0  0  0  0  0  0  0
    9.9681  -20.5482   23.7584 O   0  0  0  0  0  0  0  0  0  0  0  0
   10.4768  -18.9776   21.9757 C   0  0  0  0  0  0  0  0  0  0  0  0
   10.0200  -18.7662   20.5788 C   0  0  0  0  0  0  0  0  0  0  0  0
   10.5879  -17.5504   19.8944 C   0  0  2  0  0  0  0  0  0  0  0  0
   12.0167  -17.7134   19.8613 N   0  0  0  0  0  0  0  0  0  0  0  0
   10.1628  -16.3187   20.5989 C   0  0  0  0  0  0  0  0  0  0  0  0
   10.9955  -15.7906   21.3798 O   0  0  0  0  0  0  0  0  0  0  0  0
    8.9019  -15.7062   20.4538 N   0  0  0  0  0  0  0  0  0  0  0  0
    7.8876  -16.1954   19.5480 C   0  0  0  0  0  0  0  0  0  0  0  0
    6.6931  -15.2981   19.6810 C   0  0  0  0  0  0  0  0  0  0  0  0
    7.1910  -14.0791   20.3668 C   0  0  0  0  0  0  0  0  0  0  0  0
    8.4076  -14.5400   21.1413 C   0  0  1  0  0  0  0  0  0  0  0  0
    8.0926  -14.8008   22.5670 C   0  0  0  0  0  0  0  0  0  0  0  0
    8.2626  -15.9535   23.0439 O   0  0  0  0  0  0  0  0  0  0  0  0
    6.1803  -13.4110   27.5937 C   0  0  0  0  0  0  0  0  0  0  0  0
    7.4526  -12.7509   27.0707 C   0  0  2  0  0  0  0  0  0  0  0  0
    7.5892  -11.3871   27.7217 C   0  0  0  0  0  0  0  0  0  0  0  0
    7.4155  -12.6227   25.5738 C   0  0  0  0  0  0  0  0  0  0  0  0
    7.7206  -13.9209   24.9188 C   0  0  2  0  0  0  0  0  0  0  0  0
    7.5983  -13.8113   23.4567 N   0  0  0  0  0  0  0  0  0  0  0  0
    6.8970  -15.0146   25.4275 C   0  0  0  0  0  0  0  0  0  0  0  0
    5.7458  -15.3198   25.0880 O   0  0  0  0  0  0  0  0  0  0  0  0
    7.4641  -15.8374   26.4298 O   0  0  0  0  0  0  0  0  0  0  0  0
  2  3  2  0
  2  1  1  0
  4  2  1  0
  5  4  1  0
  6  5  1  0
  6  7  1  1
  8 10  1  0
  8  6  1  0
  9  8  2  0
 10 14  1  0
 11 10  1  0
 11 12  1  0
 12 13  1  0
 14 13  1  0
 14 15  1  1
 15 16  2  0
 18 17  1  1
 18 19  1  0
 20 18  1  0
 21 20  1  1
 22 21  1  0
 22 15  1  0
 23 25  1  0
 23 21  1  0
 24 23  2  0
M  END
$$$$
