QPL.pdb
     RDKit          3D

 25 25  0  0  1  0  0  0  0  0999 V2000
   10.5751  -20.5950   23.0028 N   0  0  0  0  0  0  0  0  0  0  0  0
   10.2974  -20.4061   21.6095 C   0  0  0  0  0  0  0  0  0  0  0  0
    9.5140  -21.2360   21.0833 O   0  0  0  0  0  0  0  0  0  0  0  0
   10.9349  -19.2734   20.9020 C   0  0  0  0  0  0  0  0  0  0  0  0
    9.9151  -18.4195   20.2423 C   0  0  0  0  0  0  0  0  0  0  0  0
   10.3247  -16.9874   20.0173 C   0  0  2  0  0  0  0  0  0  0  0  0
   11.6963  -17.0038   19.5842 N   0  0  0  0  0  0  0  0  0  0  0  0
   10.1173  -16.1939   21.2507 C   0  0  0  0  0  0  0  0  0  0  0  0
   11.1438  -15.8723   21.9028 O   0  0  0  0  0  0  0  0  0  0  0  0
    8.8609  -15.7799   21.7365 N   0  0  0  0  0  0  0  0  0  0  0  0
    7.6225  -16.0340   21.0364 C   0  0  0  0  0  0  0  0  0  0  0  0
    6.5108  -15.4583   21.8624 C   0  0  0  0  0  0  0  0  0  0  0  0
    7.1699  -14.5373   22.8222 C   0  0  0  0  0  0  0  0  0  0  0  0
    8.5832  -15.0639   22.9560 C   0  0  1  0  0  0  0  0  0  0  0  0
    8.7515  -15.9016   24.1683 C   0  0  0  0  0  0  0  0  0  0  0  0
    8.5074  -17.1356   24.1140 O   0  0  0  0  0  0  0  0  0  0  0  0
   11.4727  -14.3925   27.8475 C   0  0  0  0  0  0  0  0  0  0  0  0
    9.9762  -14.1275   27.7132 C   0  0  2  0  0  0  0  0  0  0  0  0
    9.5684  -13.1234   28.7752 C   0  0  0  0  0  0  0  0  0  0  0  0
    9.1898  -15.4002   27.8567 C   0  0  0  0  0  0  0  0  0  0  0  0
    9.2869  -16.2295   26.6279 C   0  0  2  0  0  0  0  0  0  0  0  0
    9.1813  -15.3932   25.4219 N   0  0  0  0  0  0  0  0  0  0  0  0
    8.3028  -17.3083   26.5984 C   0  0  0  0  0  0  0  0  0  0  0  0
    7.2502  -17.3586   25.9478 O   0  0  0  0  0  0  0  0  0  0  0  0
    8.5643  -18.4427   27.4033 O   0  0  0  0  0  0  0  0  0  0  0  0
  2  3  2  0
  2  1  1  0
  4  2  1  0
  5  4  1  0
  6  5  1  0
  6  7  1  1
  8 10  1  0
  8  6  1  0
  9  8  2  0
 10 14  1  0
 11 10  1  0
 11 12  1  0
 12 13  1  0
 14 13  1  0
 14 15  1  1
 15 16  2  0
 18 17  1  1
 18 19  1  0
 20 18  1  0
 21 20  1  1
 22 21  1  0
 22 15  1  0
 23 25  1  0
 23 21  1  0
 24 23  2  0
M  END
$$$$
