QPL.pdb
     RDKit          3D

 25 25  0  0  1  0  0  0  0  0999 V2000
    5.3512  -20.5491   23.1658 N   0  0  0  0  0  0  0  0  0  0  0  0
    6.5876  -20.1963   23.7992 C   0  0  0  0  0  0  0  0  0  0  0  0
    6.6592  -20.4150   25.0346 O   0  0  0  0  0  0  0  0  0  0  0  0
    7.6705  -19.6144   22.9756 C   0  0  0  0  0  0  0  0  0  0  0  0
    7.2185  -19.4059   21.5767 C   0  0  0  0  0  0  0  0  0  0  0  0
    8.2017  -18.6961   20.6830 C   0  0  2  0  0  0  0  0  0  0  0  0
    9.2738  -19.6181   20.4191 N   0  0  0  0  0  0  0  0  0  0  0  0
    8.6623  -17.4410   21.3205 C   0  0  0  0  0  0  0  0  0  0  0  0
    9.7099  -17.5031   22.0139 O   0  0  0  0  0  0  0  0  0  0  0  0
    8.0124  -16.1961   21.2029 N   0  0  0  0  0  0  0  0  0  0  0  0
    6.7825  -16.0156   20.4657 C   0  0  0  0  0  0  0  0  0  0  0  0
    6.3975  -14.5703   20.5773 C   0  0  0  0  0  0  0  0  0  0  0  0
    7.6223  -13.8714   21.0415 C   0  0  0  0  0  0  0  0  0  0  0  0
    8.4244  -14.9338   21.7630 C   0  0  1  0  0  0  0  0  0  0  0  0
    8.2396  -14.8668   23.2330 C   0  0  0  0  0  0  0  0  0  0  0  0
    7.2598  -15.4501   23.7670 O   0  0  0  0  0  0  0  0  0  0  0  0
    5.5391  -12.4822   27.0023 C   0  0  0  0  0  0  0  0  0  0  0  0
    7.0060  -12.8992   26.9538 C   0  0  2  0  0  0  0  0  0  0  0  0
    7.8344  -11.8232   27.6306 C   0  0  0  0  0  0  0  0  0  0  0  0
    7.4598  -13.1046   25.5359 C   0  0  0  0  0  0  0  0  0  0  0  0
    8.7577  -13.8261   25.4896 C   0  0  2  0  0  0  0  0  0  0  0  0
    9.1167  -14.1701   24.1049 N   0  0  0  0  0  0  0  0  0  0  0  0
    8.7711  -15.0142   26.3390 C   0  0  0  0  0  0  0  0  0  0  0  0
    8.0800  -16.0357   26.2270 O   0  0  0  0  0  0  0  0  0  0  0  0
    9.6760  -15.0194   27.4273 O   0  0  0  0  0  0  0  0  0  0  0  0
  2  3  2  0
  2  1  1  0
  4  2  1  0
  5  4  1  0
  6  5  1  0
  6  7  1  1
  8 10  1  0
  8  6  1  0
  9  8  2  0
 10 14  1  0
 11 10  1  0
 11 12  1  0
 12 13  1  0
 14 13  1  0
 14 15  1  1
 15 16  2  0
 18 17  1  6
 18 19  1  0
 20 18  1  0
 21 20  1  6
 22 21  1  0
 22 15  1  0
 23 25  1  0
 23 21  1  0
 24 23  2  0
M  END
$$$$
