QPL.pdb
     RDKit          3D

 25 25  0  0  1  0  0  0  0  0999 V2000
    5.6492  -20.5834   23.6033 N   0  0  0  0  0  0  0  0  0  0  0  0
    6.7656  -20.0085   24.2943 C   0  0  0  0  0  0  0  0  0  0  0  0
    7.0297  -20.4961   25.4221 O   0  0  0  0  0  0  0  0  0  0  0  0
    7.5148  -18.9079   23.6484 C   0  0  0  0  0  0  0  0  0  0  0  0
    6.9050  -18.5463   22.3437 C   0  0  0  0  0  0  0  0  0  0  0  0
    7.8774  -18.1095   21.2794 C   0  0  2  0  0  0  0  0  0  0  0  0
    8.7942  -19.1985   21.0727 N   0  0  0  0  0  0  0  0  0  0  0  0
    8.5523  -16.8545   21.6839 C   0  0  0  0  0  0  0  0  0  0  0  0
    9.6763  -16.9629   22.2380 O   0  0  0  0  0  0  0  0  0  0  0  0
    8.0248  -15.5620   21.4911 N   0  0  0  0  0  0  0  0  0  0  0  0
    6.7419  -15.3185   20.8721 C   0  0  0  0  0  0  0  0  0  0  0  0
    6.5238  -13.8346   20.8542 C   0  0  0  0  0  0  0  0  0  0  0  0
    7.8603  -13.2374   21.1015 C   0  0  0  0  0  0  0  0  0  0  0  0
    8.6280  -14.3042   21.8532 C   0  0  1  0  0  0  0  0  0  0  0  0
    8.6257  -14.0631   23.3167 C   0  0  0  0  0  0  0  0  0  0  0  0
    8.5921  -12.8836   23.7558 O   0  0  0  0  0  0  0  0  0  0  0  0
    5.7202  -12.2109   25.7893 C   0  0  0  0  0  0  0  0  0  0  0  0
    6.7464  -13.1141   26.4668 C   0  0  2  0  0  0  0  0  0  0  0  0
    8.0883  -12.4060   26.4611 C   0  0  0  0  0  0  0  0  0  0  0  0
    6.8430  -14.4393   25.7645 C   0  0  0  0  0  0  0  0  0  0  0  0
    8.2533  -14.8997   25.6842 C   0  0  2  0  0  0  0  0  0  0  0  0
    8.6597  -15.1009   24.2845 N   0  0  0  0  0  0  0  0  0  0  0  0
    8.4972  -16.1044   26.4731 C   0  0  0  0  0  0  0  0  0  0  0  0
    8.3105  -17.2821   26.1386 O   0  0  0  0  0  0  0  0  0  0  0  0
    9.0088  -15.9270   27.7808 O   0  0  0  0  0  0  0  0  0  0  0  0
  2  3  2  0
  2  1  1  0
  4  2  1  0
  5  4  1  0
  6  5  1  0
  6  7  1  1
  8 10  1  0
  8  6  1  0
  9  8  2  0
 10 14  1  0
 11 10  1  0
 11 12  1  0
 12 13  1  0
 14 13  1  0
 14 15  1  1
 15 16  2  0
 18 17  1  6
 18 19  1  0
 20 18  1  0
 21 20  1  6
 22 21  1  0
 22 15  1  0
 23 25  1  0
 23 21  1  0
 24 23  2  0
M  END
$$$$
