QPL.pdb
     RDKit          3D

 25 25  0  0  1  0  0  0  0  0999 V2000
   12.7240  -15.0225   20.7952 N   0  0  0  0  0  0  0  0  0  0  0  0
   12.2814  -14.0177   19.8740 C   0  0  0  0  0  0  0  0  0  0  0  0
   13.1399  -13.5979   19.0578 O   0  0  0  0  0  0  0  0  0  0  0  0
   10.8776  -13.5548   19.9431 C   0  0  0  0  0  0  0  0  0  0  0  0
    9.9942  -14.4176   19.1185 C   0  0  0  0  0  0  0  0  0  0  0  0
    8.5314  -14.0595   19.1545 C   0  0  2  0  0  0  0  0  0  0  0  0
    8.4228  -12.6864   18.7400 N   0  0  0  0  0  0  0  0  0  0  0  0
    7.9764  -14.3010   20.5063 C   0  0  0  0  0  0  0  0  0  0  0  0
    7.7423  -13.2899   21.2171 O   0  0  0  0  0  0  0  0  0  0  0  0
    7.6962  -15.5736   21.0429 N   0  0  0  0  0  0  0  0  0  0  0  0
    8.0478  -16.8056   20.3744 C   0  0  0  0  0  0  0  0  0  0  0  0
    7.6019  -17.9380   21.2511 C   0  0  0  0  0  0  0  0  0  0  0  0
    6.6483  -17.3361   22.2167 C   0  0  0  0  0  0  0  0  0  0  0  0
    7.0421  -15.8760   22.2910 C   0  0  1  0  0  0  0  0  0  0  0  0
    7.8919  -15.5892   23.4722 C   0  0  0  0  0  0  0  0  0  0  0  0
    9.1379  -15.7554   23.4009 O   0  0  0  0  0  0  0  0  0  0  0  0
    7.0486  -12.0254   25.1645 C   0  0  0  0  0  0  0  0  0  0  0  0
    6.4548  -13.0895   26.0825 C   0  0  2  0  0  0  0  0  0  0  0  0
    5.5452  -12.4056   27.0861 C   0  0  0  0  0  0  0  0  0  0  0  0
    7.5380  -13.8579   26.7860 C   0  0  0  0  0  0  0  0  0  0  0  0
    8.2490  -14.7616   25.8453 C   0  0  2  0  0  0  0  0  0  0  0  0
    7.3824  -15.1266   24.7137 N   0  0  0  0  0  0  0  0  0  0  0  0
    8.7748  -15.9556   26.5018 C   0  0  0  0  0  0  0  0  0  0  0  0
    9.6248  -16.0163   27.4005 O   0  0  0  0  0  0  0  0  0  0  0  0
    8.2648  -17.2048   26.0744 O   0  0  0  0  0  0  0  0  0  0  0  0
  2  3  2  0
  2  1  1  0
  4  2  1  0
  5  4  1  0
  6  5  1  0
  6  7  1  1
  8 10  1  0
  8  6  1  0
  9  8  2  0
 10 14  1  0
 11 10  1  0
 11 12  1  0
 12 13  1  0
 14 13  1  0
 14 15  1  1
 15 16  2  0
 18 17  1  6
 18 19  1  0
 20 18  1  0
 21 20  1  1
 22 21  1  0
 22 15  1  0
 23 25  1  0
 23 21  1  0
 24 23  2  0
M  END
$$$$
