QPL.pdb
     RDKit          3D

 25 25  0  0  1  0  0  0  0  0999 V2000
    6.9031  -21.2793   23.0452 N   0  0  0  0  0  0  0  0  0  0  0  0
    7.2052  -19.8877   22.8827 C   0  0  0  0  0  0  0  0  0  0  0  0
    6.4152  -19.0813   23.4350 O   0  0  0  0  0  0  0  0  0  0  0  0
    8.3985  -19.5036   22.0963 C   0  0  0  0  0  0  0  0  0  0  0  0
    8.0386  -19.2471   20.6788 C   0  0  0  0  0  0  0  0  0  0  0  0
    8.8254  -18.1539   20.0042 C   0  0  2  0  0  0  0  0  0  0  0  0
   10.0364  -18.7504   19.5075 N   0  0  0  0  0  0  0  0  0  0  0  0
    9.0745  -17.0415   20.9500 C   0  0  0  0  0  0  0  0  0  0  0  0
   10.1012  -17.1242   21.6720 O   0  0  0  0  0  0  0  0  0  0  0  0
    8.2472  -15.9096   21.0929 N   0  0  0  0  0  0  0  0  0  0  0  0
    6.9518  -15.7956   20.4625 C   0  0  0  0  0  0  0  0  0  0  0  0
    6.3749  -14.4675   20.8538 C   0  0  0  0  0  0  0  0  0  0  0  0
    7.5196  -13.6797   21.3763 C   0  0  0  0  0  0  0  0  0  0  0  0
    8.5170  -14.7147   21.8521 C   0  0  1  0  0  0  0  0  0  0  0  0
    8.4367  -14.9313   23.3171 C   0  0  0  0  0  0  0  0  0  0  0  0
    7.5340  -15.6700   23.7912 O   0  0  0  0  0  0  0  0  0  0  0  0
    5.8877  -11.9440   26.8070 C   0  0  0  0  0  0  0  0  0  0  0  0
    7.2601  -12.6073   26.8733 C   0  0  2  0  0  0  0  0  0  0  0  0
    8.2366  -11.6301   27.5008 C   0  0  0  0  0  0  0  0  0  0  0  0
    7.7258  -13.0172   25.5045 C   0  0  0  0  0  0  0  0  0  0  0  0
    8.9156  -13.9030   25.5880 C   0  0  2  0  0  0  0  0  0  0  0  0
    9.3337  -14.3462   24.2488 N   0  0  0  0  0  0  0  0  0  0  0  0
    8.7038  -15.0475   26.4702 C   0  0  0  0  0  0  0  0  0  0  0  0
    9.3324  -15.3427   27.4956 O   0  0  0  0  0  0  0  0  0  0  0  0
    7.6587  -15.9395   26.1306 O   0  0  0  0  0  0  0  0  0  0  0  0
  2  3  2  0
  2  1  1  0
  4  2  1  0
  5  4  1  0
  6  5  1  0
  6  7  1  1
  8 10  1  0
  8  6  1  0
  9  8  2  0
 10 14  1  0
 11 10  1  0
 11 12  1  0
 12 13  1  0
 14 13  1  0
 14 15  1  1
 15 16  2  0
 18 17  1  6
 18 19  1  0
 20 18  1  0
 21 20  1  6
 22 21  1  0
 22 15  1  0
 23 25  1  0
 23 21  1  0
 24 23  2  0
M  END
$$$$
