QPL.pdb
     RDKit          3D

 25 25  0  0  1  0  0  0  0  0999 V2000
   12.0068  -20.0123   23.2169 N   0  0  0  0  0  0  0  0  0  0  0  0
   11.0215  -20.4586   22.2766 C   0  0  0  0  0  0  0  0  0  0  0  0
   10.4923  -21.5730   22.5159 O   0  0  0  0  0  0  0  0  0  0  0  0
   10.7003  -19.5975   21.1168 C   0  0  0  0  0  0  0  0  0  0  0  0
   11.4352  -18.3096   21.1936 C   0  0  0  0  0  0  0  0  0  0  0  0
   10.8955  -17.2089   20.3182 C   0  0  2  0  0  0  0  0  0  0  0  0
   12.0137  -16.6476   19.6084 N   0  0  0  0  0  0  0  0  0  0  0  0
   10.1702  -16.2101   21.1369 C   0  0  0  0  0  0  0  0  0  0  0  0
   10.8654  -15.4455   21.8540 O   0  0  0  0  0  0  0  0  0  0  0  0
    8.7692  -16.0613   21.1653 N   0  0  0  0  0  0  0  0  0  0  0  0
    7.8750  -16.8627   20.3612 C   0  0  0  0  0  0  0  0  0  0  0  0
    6.4743  -16.4242   20.6707 C   0  0  0  0  0  0  0  0  0  0  0  0
    6.6138  -15.1107   21.3484 C   0  0  0  0  0  0  0  0  0  0  0  0
    8.0002  -15.1340   21.9566 C   0  0  1  0  0  0  0  0  0  0  0  0
    7.9697  -15.4906   23.3959 C   0  0  0  0  0  0  0  0  0  0  0  0
    8.2628  -16.6608   23.7562 O   0  0  0  0  0  0  0  0  0  0  0  0
    8.2496  -11.8871   26.6199 C   0  0  0  0  0  0  0  0  0  0  0  0
    6.9984  -12.5704   26.0762 C   0  0  2  0  0  0  0  0  0  0  0  0
    5.7943  -11.7147   26.4226 C   0  0  0  0  0  0  0  0  0  0  0  0
    6.8491  -13.9523   26.6478 C   0  0  0  0  0  0  0  0  0  0  0  0
    7.6124  -14.9459   25.8493 C   0  0  2  0  0  0  0  0  0  0  0  0
    7.6226  -14.5767   24.4251 N   0  0  0  0  0  0  0  0  0  0  0  0
    7.1193  -16.3090   26.0280 C   0  0  0  0  0  0  0  0  0  0  0  0
    6.3399  -16.9365   25.2983 O   0  0  0  0  0  0  0  0  0  0  0  0
    7.5748  -17.0162   27.1662 O   0  0  0  0  0  0  0  0  0  0  0  0
  2  3  2  0
  2  1  1  0
  4  2  1  0
  5  4  1  0
  6  5  1  0
  6  7  1  1
  8 10  1  0
  8  6  1  0
  9  8  2  0
 10 14  1  0
 11 10  1  0
 11 12  1  0
 12 13  1  0
 14 13  1  0
 14 15  1  1
 15 16  2  0
 18 17  1  1
 18 19  1  0
 20 18  1  0
 21 20  1  1
 22 21  1  0
 22 15  1  0
 23 25  1  0
 23 21  1  0
 24 23  2  0
M  END
$$$$
