RET.pdb
     RDKit          3D

 28 27  0  0  1  0  0  0  0  0999 V2000
   13.1597  -14.4116  -13.6980 N   0  0  0  0  0  0  0  0  0  0  0  0
   13.3115  -15.3739  -14.7292 C   0  0  0  0  0  0  0  0  0  0  0  0
   12.9166  -16.5926  -14.5916 N   0  0  0  0  0  0  0  0  0  0  0  0
   13.9153  -15.0038  -15.9610 N   0  0  0  0  0  0  0  0  0  0  0  0
   14.8008  -13.8630  -16.0229 C   0  0  0  0  0  0  0  0  0  0  0  0
   16.1671  -14.3132  -15.5512 C   0  0  0  0  0  0  0  0  0  0  0  0
   17.2149  -13.2440  -15.6879 C   0  0  0  0  0  0  0  0  0  0  0  0
   17.8472  -13.4432  -17.0688 C   0  0  2  0  0  0  0  0  0  0  0  0
   18.5415  -14.6897  -17.1572 N   0  0  0  0  0  0  0  0  0  0  0  0
   18.8348  -12.3282  -17.2963 C   0  0  0  0  0  0  0  0  0  0  0  0
   20.0745  -12.5183  -17.1207 O   0  0  0  0  0  0  0  0  0  0  0  0
   13.0211  -17.3074  -15.3393 N   0  0  0  0  0  0  0  0  0  0  0  0
   18.4378  -11.0479  -17.7064 C   0  0  2  0  0  0  0  0  0  0  0  0
   19.4425  -10.0125  -17.9950 C   0  0  0  0  0  0  0  0  0  0  0  0
   18.7920   -8.8844  -18.7145 C   0  0  0  0  0  0  0  0  0  0  0  0
   19.7413   -7.7918  -19.0681 C   0  0  0  0  0  0  0  0  0  0  0  0
   19.1831   -6.6573  -19.8010 O   0  0  0  0  0  0  0  0  0  0  0  0
   18.9051   -6.7455  -21.0073 C   0  0  0  0  0  0  0  0  0  0  0  0
   19.9071   -9.5430  -16.6657 O   0  0  0  0  0  0  0  0  0  0  0  0
   19.0527   -9.4963  -15.7422 O   0  0  0  0  0  0  0  0  0  0  0  0
   18.9496   -5.4455  -19.1570 C   0  0  0  0  0  0  0  0  0  0  0  0
   22.2751  -11.1072  -14.4072 C   0  0  2  0  0  0  0  0  0  0  0  0
   22.5913   -9.6500  -14.3962 O   0  0  0  0  0  0  0  0  0  0  0  0
   23.8082   -9.4751  -15.0523 C   0  0  2  0  0  0  0  0  0  0  0  0
   21.5342   -8.7884  -14.9936 N   0  0  0  0  0  0  0  0  0  0  0  0
   21.2314   -9.1507  -16.3568 C   0  0  0  0  0  0  0  0  0  0  0  0
   21.7367   -7.3328  -14.7817 O   0  0  0  0  0  0  0  0  0  0  0  0
   21.8055   -6.6861  -13.5723 O   0  0  0  0  0  0  0  0  0  0  0  0
  2  4  1  0
  2  1  1  0
  3  2  2  0
  5  4  1  0
  6  5  1  0
  7  8  1  0
  7  6  1  0
  8  9  1  1
 10 11  2  0
 10  8  1  0
 12 10  1  0
 13 12  1  0
 13 14  1  6
 15 14  1  0
 16 15  1  0
 17 16  2  0
 18 13  1  0
 18 25  1  0
 19 18  2  0
 20 16  1  0
 22 21  1  1
 22 24  1  0
 22 23  1  0
 24 25  1  1
 24 26  1  0
 26 27  1  0
 28 26  2  0
M  END
$$$$
