RET.pdb
     RDKit          3D

 28 27  0  0  1  0  0  0  0  0999 V2000
    9.7774  -11.9623  -12.4285 N   0  0  0  0  0  0  0  0  0  0  0  0
   10.4633  -13.1936  -12.2674 C   0  0  0  0  0  0  0  0  0  0  0  0
    9.9568  -14.3144  -12.6509 N   0  0  0  0  0  0  0  0  0  0  0  0
   11.7508  -13.2145  -11.6668 N   0  0  0  0  0  0  0  0  0  0  0  0
   12.3418  -11.9921  -11.1710 C   0  0  0  0  0  0  0  0  0  0  0  0
   13.7581  -12.3065  -10.7384 C   0  0  0  0  0  0  0  0  0  0  0  0
   14.5093  -11.0925  -10.2677 C   0  0  0  0  0  0  0  0  0  0  0  0
   15.7532  -10.9922  -11.1560 C   0  0  2  0  0  0  0  0  0  0  0  0
   16.5621  -12.1676  -11.0672 N   0  0  0  0  0  0  0  0  0  0  0  0
   16.5681   -9.8141  -10.6885 C   0  0  0  0  0  0  0  0  0  0  0  0
   17.2860   -9.8980   -9.6487 O   0  0  0  0  0  0  0  0  0  0  0  0
   10.4664  -15.2179  -12.5791 N   0  0  0  0  0  0  0  0  0  0  0  0
   16.5721   -8.5886  -11.3691 C   0  0  1  0  0  0  0  0  0  0  0  0
   17.3442   -7.4494  -10.8487 C   0  0  0  0  0  0  0  0  0  0  0  0
   18.2817   -6.9707  -11.9000 C   0  0  0  0  0  0  0  0  0  0  0  0
   19.4892   -7.8319  -12.0424 C   0  0  0  0  0  0  0  0  0  0  0  0
   20.4599   -7.4281  -13.0575 O   0  0  0  0  0  0  0  0  0  0  0  0
   20.4811   -7.9653  -14.1761 C   0  0  0  0  0  0  0  0  0  0  0  0
   16.3377   -6.3940  -10.5721 O   0  0  0  0  0  0  0  0  0  0  0  0
   15.4266   -6.2313  -11.4256 O   0  0  0  0  0  0  0  0  0  0  0  0
   21.3874   -6.4254  -12.7894 C   0  0  0  0  0  0  0  0  0  0  0  0
   13.5209   -6.0783   -8.3937 C   0  0  2  0  0  0  0  0  0  0  0  0
   14.3338   -4.8413   -8.2126 O   0  0  0  0  0  0  0  0  0  0  0  0
   15.0042   -4.9488   -6.9957 C   0  0  2  0  0  0  0  0  0  0  0  0
   15.2855   -4.5646   -9.3236 N   0  0  0  0  0  0  0  0  0  0  0  0
   16.3208   -5.5640   -9.4259 C   0  0  0  0  0  0  0  0  0  0  0  0
   15.7829   -3.1663   -9.3715 O   0  0  0  0  0  0  0  0  0  0  0  0
   15.0155   -2.0284   -9.4150 O   0  0  0  0  0  0  0  0  0  0  0  0
  2  4  1  0
  2  1  1  0
  3  2  2  0
  5  4  1  0
  6  5  1  0
  7  8  1  0
  7  6  1  0
  8  9  1  1
 10 11  2  0
 10  8  1  0
 12 10  1  0
 13 12  1  0
 13 14  1  1
 15 14  1  0
 16 15  1  0
 17 16  2  0
 18 13  1  0
 18 25  1  0
 19 18  2  0
 20 16  1  0
 22 21  1  1
 22 24  1  0
 22 23  1  0
 24 25  1  6
 24 26  1  0
 26 27  1  0
 28 26  2  0
M  END
$$$$
