RET.pdb
     RDKit          3D

 28 27  0  0  1  0  0  0  0  0999 V2000
   15.9356  -15.1685  -14.0175 N   0  0  0  0  0  0  0  0  0  0  0  0
   14.6012  -14.7752  -13.7400 C   0  0  0  0  0  0  0  0  0  0  0  0
   13.5870  -15.4323  -14.1867 N   0  0  0  0  0  0  0  0  0  0  0  0
   14.3521  -13.6233  -12.9462 N   0  0  0  0  0  0  0  0  0  0  0  0
   15.4546  -12.8616  -12.4041 C   0  0  0  0  0  0  0  0  0  0  0  0
   14.8748  -11.6912  -11.6387 C   0  0  0  0  0  0  0  0  0  0  0  0
   15.9144  -10.9174  -10.8770 C   0  0  0  0  0  0  0  0  0  0  0  0
   15.1487   -9.8889  -10.0389 C   0  0  2  0  0  0  0  0  0  0  0  0
   13.7353  -10.0092  -10.2168 N   0  0  0  0  0  0  0  0  0  0  0  0
   15.5719   -8.5134  -10.4853 C   0  0  0  0  0  0  0  0  0  0  0  0
   15.1150   -8.0132  -11.5553 O   0  0  0  0  0  0  0  0  0  0  0  0
   12.6063  -15.1970  -13.9339 N   0  0  0  0  0  0  0  0  0  0  0  0
   16.4762   -7.7329   -9.7518 C   0  0  1  0  0  0  0  0  0  0  0  0
   16.8561   -6.3917  -10.2225 C   0  0  0  0  0  0  0  0  0  0  0  0
   16.6549   -5.4104   -9.1225 C   0  0  0  0  0  0  0  0  0  0  0  0
   17.0407   -4.0217   -9.5003 C   0  0  0  0  0  0  0  0  0  0  0  0
   16.8431   -2.9921   -8.4821 O   0  0  0  0  0  0  0  0  0  0  0  0
   16.3837   -3.2736   -7.3642 C   0  0  0  0  0  0  0  0  0  0  0  0
   18.3039   -6.4871  -10.5354 O   0  0  0  0  0  0  0  0  0  0  0  0
   19.0675   -6.8691   -9.6103 O   0  0  0  0  0  0  0  0  0  0  0  0
   17.1685   -1.6648   -8.7466 C   0  0  0  0  0  0  0  0  0  0  0  0
   20.2118   -8.8733  -12.2281 C   0  0  2  0  0  0  0  0  0  0  0  0
   20.6294   -7.5615  -12.8012 O   0  0  0  0  0  0  0  0  0  0  0  0
   20.0375   -7.4396  -14.0569 C   0  0  2  0  0  0  0  0  0  0  0  0
   20.3088   -6.3875  -11.9437 N   0  0  0  0  0  0  0  0  0  0  0  0
   18.8884   -6.1879  -11.7892 C   0  0  0  0  0  0  0  0  0  0  0  0
   21.0628   -5.1545  -12.2844 O   0  0  0  0  0  0  0  0  0  0  0  0
   22.4285   -5.0155  -12.3143 O   0  0  0  0  0  0  0  0  0  0  0  0
  2  4  1  0
  2  1  1  0
  3  2  2  0
  5  4  1  0
  6  5  1  0
  7  8  1  0
  7  6  1  0
  8  9  1  6
 10 11  2  0
 10  8  1  0
 12 10  1  0
 13 12  1  0
 13 14  1  6
 15 14  1  0
 16 15  1  0
 17 16  2  0
 18 13  1  0
 18 25  1  0
 19 18  2  0
 20 16  1  0
 22 21  1  6
 22 24  1  0
 22 23  1  0
 24 25  1  1
 24 26  1  0
 26 27  1  0
 28 26  2  0
M  END
$$$$
