RET.pdb
     RDKit          3D

 28 27  0  0  1  0  0  0  0  0999 V2000
   28.0405  -24.0440  -16.8827 N   0  0  0  0  0  0  0  0  0  0  0  0
   28.4984  -25.3866  -16.8833 C   0  0  0  0  0  0  0  0  0  0  0  0
   29.7473  -25.6839  -16.7748 N   0  0  0  0  0  0  0  0  0  0  0  0
   27.5675  -26.4531  -17.0062 N   0  0  0  0  0  0  0  0  0  0  0  0
   26.1495  -26.1777  -17.0613 C   0  0  0  0  0  0  0  0  0  0  0  0
   25.4388  -27.4773  -17.3741 C   0  0  0  0  0  0  0  0  0  0  0  0
   24.4922  -27.3616  -18.5361 C   0  0  0  0  0  0  0  0  0  0  0  0
   23.2804  -26.5793  -18.0204 C   0  0  2  0  0  0  0  0  0  0  0  0
   22.0955  -27.3792  -18.0219 N   0  0  0  0  0  0  0  0  0  0  0  0
   23.0626  -25.3997  -18.9322 C   0  0  0  0  0  0  0  0  0  0  0  0
   22.4106  -25.5289  -20.0101 O   0  0  0  0  0  0  0  0  0  0  0  0
   30.0919  -26.6636  -16.7256 N   0  0  0  0  0  0  0  0  0  0  0  0
   23.5619  -24.1232  -18.6380 C   0  0  2  0  0  0  0  0  0  0  0  0
   23.3299  -23.0011  -19.5609 C   0  0  0  0  0  0  0  0  0  0  0  0
   22.5769  -21.9310  -18.8529 C   0  0  0  0  0  0  0  0  0  0  0  0
   21.1600  -22.2991  -18.5755 C   0  0  0  0  0  0  0  0  0  0  0  0
   20.3242  -21.2614  -17.9750 O   0  0  0  0  0  0  0  0  0  0  0  0
   19.0904  -21.3828  -17.9186 C   0  0  0  0  0  0  0  0  0  0  0  0
   24.6832  -22.5001  -19.9086 O   0  0  0  0  0  0  0  0  0  0  0  0
   25.5245  -22.4231  -18.9753 O   0  0  0  0  0  0  0  0  0  0  0  0
   20.8984  -20.1072  -17.4499 C   0  0  0  0  0  0  0  0  0  0  0  0
   27.3175  -23.9445  -22.2029 C   0  0  2  0  0  0  0  0  0  0  0  0
   27.1369  -22.4917  -22.4866 O   0  0  0  0  0  0  0  0  0  0  0  0
   26.4178  -22.3779  -23.6749 C   0  0  2  0  0  0  0  0  0  0  0  0
   26.4792  -21.7296  -21.3897 N   0  0  0  0  0  0  0  0  0  0  0  0
   25.0999  -22.1091  -21.2035 C   0  0  0  0  0  0  0  0  0  0  0  0
   26.7051  -20.2629  -21.4404 O   0  0  0  0  0  0  0  0  0  0  0  0
   27.9184  -19.6272  -21.5367 O   0  0  0  0  0  0  0  0  0  0  0  0
  2  4  1  0
  2  1  1  0
  3  2  2  0
  5  4  1  0
  6  5  1  0
  7  8  1  0
  7  6  1  0
  8  9  1  6
 10 11  2  0
 10  8  1  0
 12 10  1  0
 13 12  1  0
 13 14  1  1
 15 14  1  0
 16 15  1  0
 17 16  2  0
 18 13  1  0
 18 25  1  0
 19 18  2  0
 20 16  1  0
 22 21  1  6
 22 24  1  0
 22 23  1  0
 24 25  1  1
 24 26  1  0
 26 27  1  0
 28 26  2  0
M  END
$$$$
