RET.pdb
     RDKit          3D

 28 27  0  0  1  0  0  0  0  0999 V2000
   16.2449  -22.6734  -10.1191 N   0  0  0  0  0  0  0  0  0  0  0  0
   16.6257  -23.1834  -11.3868 C   0  0  0  0  0  0  0  0  0  0  0  0
   16.6889  -24.4480  -11.6249 N   0  0  0  0  0  0  0  0  0  0  0  0
   16.9516  -22.2893  -12.4420 N   0  0  0  0  0  0  0  0  0  0  0  0
   17.9978  -21.3074  -12.2659 C   0  0  0  0  0  0  0  0  0  0  0  0
   19.3081  -21.9525  -12.6645 C   0  0  0  0  0  0  0  0  0  0  0  0
   20.3126  -21.9762  -11.5464 C   0  0  0  0  0  0  0  0  0  0  0  0
   21.2578  -20.7978  -11.7999 C   0  0  2  0  0  0  0  0  0  0  0  0
   20.7807  -19.9543  -12.8509 N   0  0  0  0  0  0  0  0  0  0  0  0
   22.5994  -21.3527  -12.2034 C   0  0  0  0  0  0  0  0  0  0  0  0
   23.2232  -22.1501  -11.4426 O   0  0  0  0  0  0  0  0  0  0  0  0
   16.9327  -24.8350  -12.5586 N   0  0  0  0  0  0  0  0  0  0  0  0
   23.2129  -21.0199  -13.4190 C   0  0  1  0  0  0  0  0  0  0  0  0
   24.4322  -21.7186  -13.8547 C   0  0  0  0  0  0  0  0  0  0  0  0
   24.3794  -21.9261  -15.3270 C   0  0  0  0  0  0  0  0  0  0  0  0
   25.5637  -22.6587  -15.8568 C   0  0  0  0  0  0  0  0  0  0  0  0
   25.5743  -22.9248  -17.2938 O   0  0  0  0  0  0  0  0  0  0  0  0
   24.6191  -22.5971  -18.0151 C   0  0  0  0  0  0  0  0  0  0  0  0
   25.5459  -20.7927  -13.5298 O   0  0  0  0  0  0  0  0  0  0  0  0
   25.2595  -19.5738  -13.3979 O   0  0  0  0  0  0  0  0  0  0  0  0
   26.6637  -23.5556  -17.8878 C   0  0  0  0  0  0  0  0  0  0  0  0
   28.7166  -20.8502  -10.9922 C   0  0  2  0  0  0  0  0  0  0  0  0
   29.0547  -20.5399  -12.4110 O   0  0  0  0  0  0  0  0  0  0  0  0
   29.6878  -21.6580  -12.9504 C   0  0  2  0  0  0  0  0  0  0  0  0
   27.8900  -20.1323  -13.2440 N   0  0  0  0  0  0  0  0  0  0  0  0
   26.8974  -21.1735  -13.3529 C   0  0  0  0  0  0  0  0  0  0  0  0
   28.2522  -19.4996  -14.5376 O   0  0  0  0  0  0  0  0  0  0  0  0
   27.9153  -19.9517  -15.7896 O   0  0  0  0  0  0  0  0  0  0  0  0
  2  4  1  0
  2  1  1  0
  3  2  2  0
  5  4  1  0
  6  5  1  0
  7  8  1  0
  7  6  1  0
  8  9  1  6
 10 11  2  0
 10  8  1  0
 12 10  1  0
 13 12  1  0
 13 14  1  1
 15 14  1  0
 16 15  1  0
 17 16  2  0
 18 13  1  0
 18 25  1  0
 19 18  2  0
 20 16  1  0
 22 21  1  1
 22 24  1  0
 22 23  1  0
 24 25  1  6
 24 26  1  0
 26 27  1  0
 28 26  2  0
M  END
$$$$
