RET.pdb
     RDKit          3D

 28 27  0  0  1  0  0  0  0  0999 V2000
   30.5583  -20.7680   -9.7864 N   0  0  0  0  0  0  0  0  0  0  0  0
   30.5218  -22.0809  -10.3222 C   0  0  0  0  0  0  0  0  0  0  0  0
   31.5569  -22.8481  -10.3250 N   0  0  0  0  0  0  0  0  0  0  0  0
   29.3159  -22.5864  -10.8783 N   0  0  0  0  0  0  0  0  0  0  0  0
   28.0754  -21.8658  -10.7010 C   0  0  0  0  0  0  0  0  0  0  0  0
   27.6215  -21.3862  -12.0633 C   0  0  0  0  0  0  0  0  0  0  0  0
   26.3477  -20.5899  -12.0089 C   0  0  0  0  0  0  0  0  0  0  0  0
   25.9945  -20.2542  -13.4611 C   0  0  2  0  0  0  0  0  0  0  0  0
   26.7878  -19.1756  -13.9620 N   0  0  0  0  0  0  0  0  0  0  0  0
   24.5453  -19.8441  -13.5072 C   0  0  0  0  0  0  0  0  0  0  0  0
   24.1264  -18.8746  -12.8082 O   0  0  0  0  0  0  0  0  0  0  0  0
   31.5483  -23.8059  -10.7294 N   0  0  0  0  0  0  0  0  0  0  0  0
   23.6054  -20.5032  -14.3115 C   0  0  1  0  0  0  0  0  0  0  0  0
   22.1975  -20.0759  -14.3159 C   0  0  0  0  0  0  0  0  0  0  0  0
   21.8277  -19.6184  -15.6824 C   0  0  0  0  0  0  0  0  0  0  0  0
   22.2032  -18.2008  -15.9458 C   0  0  0  0  0  0  0  0  0  0  0  0
   21.7443  -17.6308  -17.2108 O   0  0  0  0  0  0  0  0  0  0  0  0
   22.4660  -17.6426  -18.2204 C   0  0  0  0  0  0  0  0  0  0  0  0
   21.4217  -21.2962  -13.9809 O   0  0  0  0  0  0  0  0  0  0  0  0
   21.9300  -22.4042  -14.2951 O   0  0  0  0  0  0  0  0  0  0  0  0
   20.4791  -17.0589  -17.3109 C   0  0  0  0  0  0  0  0  0  0  0  0
   18.4036  -23.9762  -11.3137 C   0  0  2  0  0  0  0  0  0  0  0  0
   19.1235  -22.7091  -11.6299 O   0  0  0  0  0  0  0  0  0  0  0  0
   20.2116  -22.6124  -10.7647 C   0  0  1  0  0  0  0  0  0  0  0  0
   19.5574  -22.5879  -13.0489 N   0  0  0  0  0  0  0  0  0  0  0  0
   20.1630  -21.3099  -13.3340 C   0  0  0  0  0  0  0  0  0  0  0  0
   18.5374  -23.0126  -14.0408 O   0  0  0  0  0  0  0  0  0  0  0  0
   18.1341  -24.3001  -14.2962 O   0  0  0  0  0  0  0  0  0  0  0  0
  2  4  1  0
  2  1  1  0
  3  2  2  0
  5  4  1  0
  6  5  1  0
  7  8  1  0
  7  6  1  0
  8  9  1  1
 10 11  2  0
 10  8  1  0
 12 10  1  0
 13 12  1  0
 13 14  1  1
 15 14  1  0
 16 15  1  0
 17 16  2  0
 18 13  1  0
 18 25  1  0
 19 18  2  0
 20 16  1  0
 22 21  1  1
 22 24  1  0
 22 23  1  0
 24 25  1  1
 24 26  1  0
 26 27  1  0
 28 26  2  0
M  END
$$$$
