RET.pdb
     RDKit          3D

 28 27  0  0  1  0  0  0  0  0999 V2000
   17.7943  -14.3113  -16.2022 N   0  0  0  0  0  0  0  0  0  0  0  0
   16.6954  -14.5053  -15.3263 C   0  0  0  0  0  0  0  0  0  0  0  0
   16.4595  -15.6409  -14.7653 N   0  0  0  0  0  0  0  0  0  0  0  0
   15.8144  -13.4267  -15.0444 N   0  0  0  0  0  0  0  0  0  0  0  0
   15.9417  -12.1777  -15.7610 C   0  0  0  0  0  0  0  0  0  0  0  0
   17.2484  -11.5373  -15.3437 C   0  0  0  0  0  0  0  0  0  0  0  0
   17.4847  -10.2070  -16.0026 C   0  0  0  0  0  0  0  0  0  0  0  0
   18.5825  -10.4388  -17.0454 C   0  0  2  0  0  0  0  0  0  0  0  0
   18.8297  -11.8317  -17.2517 N   0  0  0  0  0  0  0  0  0  0  0  0
   19.8494   -9.7975  -16.5413 C   0  0  0  0  0  0  0  0  0  0  0  0
   20.4584  -10.2730  -15.5379 O   0  0  0  0  0  0  0  0  0  0  0  0
   15.6743  -15.7894  -14.1002 N   0  0  0  0  0  0  0  0  0  0  0  0
   20.4072   -8.6630  -17.1470 C   0  0  1  0  0  0  0  0  0  0  0  0
   21.6796   -8.1074  -16.6603 C   0  0  0  0  0  0  0  0  0  0  0  0
   22.5942   -7.8920  -17.8137 C   0  0  0  0  0  0  0  0  0  0  0  0
   23.1547   -9.1599  -18.3600 C   0  0  0  0  0  0  0  0  0  0  0  0
   23.9486   -9.0467  -19.5817 O   0  0  0  0  0  0  0  0  0  0  0  0
   24.5587  -10.0234  -20.0445 C   0  0  0  0  0  0  0  0  0  0  0  0
   21.3258   -6.7952  -16.0636 O   0  0  0  0  0  0  0  0  0  0  0  0
   20.3992   -6.1449  -16.6144 O   0  0  0  0  0  0  0  0  0  0  0  0
   24.0378   -7.8327  -20.2569 C   0  0  0  0  0  0  0  0  0  0  0  0
   19.7558   -5.8140  -12.9702 C   0  0  2  0  0  0  0  0  0  0  0  0
   20.9332   -4.9139  -13.1352 O   0  0  0  0  0  0  0  0  0  0  0  0
   21.8856   -5.2834  -12.1873 C   0  0  2  0  0  0  0  0  0  0  0  0
   21.5165   -4.9118  -14.5050 N   0  0  0  0  0  0  0  0  0  0  0  0
   21.9436   -6.2240  -14.9255 C   0  0  0  0  0  0  0  0  0  0  0  0
   22.5168   -3.8408  -14.7443 O   0  0  0  0  0  0  0  0  0  0  0  0
   22.3114   -2.4892  -14.6162 O   0  0  0  0  0  0  0  0  0  0  0  0
  2  4  1  0
  2  1  1  0
  3  2  2  0
  5  4  1  0
  6  5  1  0
  7  8  1  0
  7  6  1  0
  8  9  1  1
 10 11  2  0
 10  8  1  0
 12 10  1  0
 13 12  1  0
 13 14  1  1
 15 14  1  0
 16 15  1  0
 17 16  2  0
 18 13  1  0
 18 25  1  0
 19 18  2  0
 20 16  1  0
 22 21  1  1
 22 24  1  0
 22 23  1  0
 24 25  1  6
 24 26  1  0
 26 27  1  0
 28 26  2  0
M  END
$$$$
