RET.pdb
     RDKit          3D

 28 27  0  0  1  0  0  0  0  0999 V2000
   26.7698  -28.6257  -16.7407 N   0  0  0  0  0  0  0  0  0  0  0  0
   26.9509  -27.2275  -16.5838 C   0  0  0  0  0  0  0  0  0  0  0  0
   28.1206  -26.6887  -16.5479 N   0  0  0  0  0  0  0  0  0  0  0  0
   25.8204  -26.3756  -16.4606 N   0  0  0  0  0  0  0  0  0  0  0  0
   24.4866  -26.9329  -16.4608 C   0  0  0  0  0  0  0  0  0  0  0  0
   23.6987  -26.2439  -17.5546 C   0  0  0  0  0  0  0  0  0  0  0  0
   22.2754  -26.7198  -17.6390 C   0  0  0  0  0  0  0  0  0  0  0  0
   21.6529  -25.9876  -18.8319 C   0  0  2  0  0  0  0  0  0  0  0  0
   22.4479  -26.1286  -20.0117 N   0  0  0  0  0  0  0  0  0  0  0  0
   21.5635  -24.5235  -18.4872 C   0  0  0  0  0  0  0  0  0  0  0  0
   22.3334  -23.6826  -19.0385 O   0  0  0  0  0  0  0  0  0  0  0  0
   28.2676  -25.6595  -16.5347 N   0  0  0  0  0  0  0  0  0  0  0  0
   20.6402  -24.0281  -17.5560 C   0  0  2  0  0  0  0  0  0  0  0  0
   20.5022  -22.5791  -17.3414 C   0  0  0  0  0  0  0  0  0  0  0  0
   19.0912  -22.2678  -16.9871 C   0  0  0  0  0  0  0  0  0  0  0  0
   18.8542  -20.8155  -16.7531 C   0  0  0  0  0  0  0  0  0  0  0  0
   17.4854  -20.4251  -16.4216 O   0  0  0  0  0  0  0  0  0  0  0  0
   17.2201  -19.8607  -15.3486 C   0  0  0  0  0  0  0  0  0  0  0  0
   21.3773  -22.2746  -16.1819 O   0  0  0  0  0  0  0  0  0  0  0  0
   21.3027  -23.0440  -15.1882 O   0  0  0  0  0  0  0  0  0  0  0  0
   16.4432  -20.6798  -17.3085 C   0  0  0  0  0  0  0  0  0  0  0  0
   25.2211  -20.7891  -16.1105 C   0  0  2  0  0  0  0  0  0  0  0  0
   24.2824  -20.2193  -15.1016 O   0  0  0  0  0  0  0  0  0  0  0  0
   23.9749  -18.9184  -15.4956 C   0  0  2  0  0  0  0  0  0  0  0  0
   23.0449  -21.0206  -14.8937 N   0  0  0  0  0  0  0  0  0  0  0  0
   22.2884  -21.1939  -16.1098 C   0  0  0  0  0  0  0  0  0  0  0  0
   22.2306  -20.6000  -13.7255 O   0  0  0  0  0  0  0  0  0  0  0  0
   22.6619  -20.4936  -12.4262 O   0  0  0  0  0  0  0  0  0  0  0  0
  2  4  1  0
  2  1  1  0
  3  2  2  0
  5  4  1  0
  6  5  1  0
  7  8  1  0
  7  6  1  0
  8  9  1  6
 10 11  2  0
 10  8  1  0
 12 10  1  0
 13 12  1  0
 13 14  1  1
 15 14  1  0
 16 15  1  0
 17 16  2  0
 18 13  1  0
 18 25  1  0
 19 18  2  0
 20 16  1  0
 22 21  1  1
 22 24  1  0
 22 23  1  0
 24 25  1  1
 24 26  1  0
 26 27  1  0
 28 26  2  0
M  END
$$$$
