RET.pdb
     RDKit          3D

 28 27  0  0  1  0  0  0  0  0999 V2000
   27.2213  -16.5776  -16.5619 N   0  0  0  0  0  0  0  0  0  0  0  0
   27.4483  -17.6183  -17.4988 C   0  0  0  0  0  0  0  0  0  0  0  0
   27.3921  -17.4187  -18.7703 N   0  0  0  0  0  0  0  0  0  0  0  0
   27.7489  -18.9299  -17.0424 N   0  0  0  0  0  0  0  0  0  0  0  0
   27.8224  -19.2078  -15.6257 C   0  0  0  0  0  0  0  0  0  0  0  0
   26.4609  -19.6974  -15.1803 C   0  0  0  0  0  0  0  0  0  0  0  0
   26.4100  -20.0329  -13.7158 C   0  0  0  0  0  0  0  0  0  0  0  0
   25.9981  -21.5058  -13.6318 C   0  0  2  0  0  0  0  0  0  0  0  0
   26.9051  -22.3497  -14.3453 N   0  0  0  0  0  0  0  0  0  0  0  0
   24.6300  -21.6448  -14.2477 C   0  0  0  0  0  0  0  0  0  0  0  0
   24.3981  -22.5442  -15.1085 O   0  0  0  0  0  0  0  0  0  0  0  0
   27.5543  -18.1727  -19.4676 N   0  0  0  0  0  0  0  0  0  0  0  0
   23.5647  -20.8007  -13.9047 C   0  0  2  0  0  0  0  0  0  0  0  0
   22.1889  -21.1369  -14.3031 C   0  0  0  0  0  0  0  0  0  0  0  0
   21.3668  -21.3649  -13.0843 C   0  0  0  0  0  0  0  0  0  0  0  0
   19.9473  -21.6980  -13.3907 C   0  0  0  0  0  0  0  0  0  0  0  0
   19.0984  -22.0377  -12.2506 O   0  0  0  0  0  0  0  0  0  0  0  0
   17.9811  -21.5176  -12.1037 C   0  0  0  0  0  0  0  0  0  0  0  0
   21.6874  -19.9347  -15.0147 O   0  0  0  0  0  0  0  0  0  0  0  0
   22.0451  -18.8127  -14.5694 O   0  0  0  0  0  0  0  0  0  0  0  0
   19.5279  -22.9582  -11.2988 C   0  0  0  0  0  0  0  0  0  0  0  0
   20.3605  -17.2758  -18.7783 C   0  0  2  0  0  0  0  0  0  0  0  0
   20.7408  -18.5809  -18.1652 O   0  0  0  0  0  0  0  0  0  0  0  0
   22.0993  -18.7812  -18.4025 C   0  0  1  0  0  0  0  0  0  0  0  0
   20.4309  -18.6898  -16.7130 N   0  0  0  0  0  0  0  0  0  0  0  0
   20.8464  -19.9527  -16.1528 C   0  0  0  0  0  0  0  0  0  0  0  0
   19.0487  -18.2880  -16.3487 O   0  0  0  0  0  0  0  0  0  0  0  0
   18.0460  -19.1183  -15.9119 O   0  0  0  0  0  0  0  0  0  0  0  0
  2  4  1  0
  2  1  1  0
  3  2  2  0
  5  4  1  0
  6  5  1  0
  7  8  1  0
  7  6  1  0
  8  9  1  6
 10 11  2  0
 10  8  1  0
 12 10  1  0
 13 12  1  0
 13 14  1  1
 15 14  1  0
 16 15  1  0
 17 16  2  0
 18 13  1  0
 18 25  1  0
 19 18  2  0
 20 16  1  0
 22 21  1  6
 22 24  1  0
 22 23  1  0
 24 25  1  6
 24 26  1  0
 26 27  1  0
 28 26  2  0
M  END
$$$$
