RET.pdb
     RDKit          3D

 28 27  0  0  1  0  0  0  0  0999 V2000
   34.5812  -36.4029   -9.2063 N   0  0  0  0  0  0  0  0  0  0  0  0
   35.9727  -36.4587   -8.9364 C   0  0  0  0  0  0  0  0  0  0  0  0
   36.8487  -35.9944   -9.7592 N   0  0  0  0  0  0  0  0  0  0  0  0
   36.4374  -37.0408   -7.7263 N   0  0  0  0  0  0  0  0  0  0  0  0
   35.4968  -37.5860   -6.7736 C   0  0  0  0  0  0  0  0  0  0  0  0
   34.7299  -36.4295   -6.1686 C   0  0  0  0  0  0  0  0  0  0  0  0
   33.7431  -36.8655   -5.1218 C   0  0  0  0  0  0  0  0  0  0  0  0
   33.1103  -35.5825   -4.5742 C   0  0  2  0  0  0  0  0  0  0  0  0
   33.8639  -35.0450   -3.4847 N   0  0  0  0  0  0  0  0  0  0  0  0
   31.7268  -35.9173   -4.0800 C   0  0  0  0  0  0  0  0  0  0  0  0
   30.8783  -36.4543   -4.8516 O   0  0  0  0  0  0  0  0  0  0  0  0
   37.8629  -35.9459   -9.5356 N   0  0  0  0  0  0  0  0  0  0  0  0
   31.3172  -35.6556   -2.7651 C   0  0  1  0  0  0  0  0  0  0  0  0
   29.9590  -36.0087   -2.3231 C   0  0  0  0  0  0  0  0  0  0  0  0
   29.9014  -35.9714   -0.8370 C   0  0  0  0  0  0  0  0  0  0  0  0
   30.5108  -37.1716   -0.1981 C   0  0  0  0  0  0  0  0  0  0  0  0
   30.4858  -37.2141    1.2625 O   0  0  0  0  0  0  0  0  0  0  0  0
   30.9442  -38.1848    1.8852 C   0  0  0  0  0  0  0  0  0  0  0  0
   29.0837  -34.9443   -2.8744 O   0  0  0  0  0  0  0  0  0  0  0  0
   29.4483  -33.7522   -2.6981 O   0  0  0  0  0  0  0  0  0  0  0  0
   29.9436  -36.1592    1.9912 C   0  0  0  0  0  0  0  0  0  0  0  0
   26.1296  -35.2102   -6.0028 C   0  0  2  0  0  0  0  0  0  0  0  0
   26.9164  -34.0391   -5.5197 O   0  0  0  0  0  0  0  0  0  0  0  0
   26.2613  -32.8843   -5.9432 C   0  0  1  0  0  0  0  0  0  0  0  0
   27.1411  -34.0161   -4.0481 N   0  0  0  0  0  0  0  0  0  0  0  0
   27.8794  -35.1654   -3.5841 C   0  0  0  0  0  0  0  0  0  0  0  0
   25.9295  -33.7074   -3.2471 O   0  0  0  0  0  0  0  0  0  0  0  0
   25.1430  -32.5871   -3.3561 O   0  0  0  0  0  0  0  0  0  0  0  0
  2  4  1  0
  2  1  1  0
  3  2  2  0
  5  4  1  0
  6  5  1  0
  7  8  1  0
  7  6  1  0
  8  9  1  1
 10 11  2  0
 10  8  1  0
 12 10  1  0
 13 12  1  0
 13 14  1  6
 15 14  1  0
 16 15  1  0
 17 16  2  0
 18 13  1  0
 18 25  1  0
 19 18  2  0
 20 16  1  0
 22 21  1  6
 22 24  1  0
 22 23  1  0
 24 25  1  6
 24 26  1  0
 26 27  1  0
 28 26  2  0
M  END
$$$$
