RET.pdb
     RDKit          3D

 28 27  0  0  1  0  0  0  0  0999 V2000
   27.4427  -16.0577  -19.5423 N   0  0  0  0  0  0  0  0  0  0  0  0
   26.0297  -15.9762  -19.4463 C   0  0  0  0  0  0  0  0  0  0  0  0
   25.3429  -15.1424  -20.1484 N   0  0  0  0  0  0  0  0  0  0  0  0
   25.3292  -16.8319  -18.5540 N   0  0  0  0  0  0  0  0  0  0  0  0
   26.0575  -17.7158  -17.6720 C   0  0  0  0  0  0  0  0  0  0  0  0
   26.0124  -19.1054  -18.2710 C   0  0  0  0  0  0  0  0  0  0  0  0
   24.9825  -19.9885  -17.6236 C   0  0  0  0  0  0  0  0  0  0  0  0
   25.1671  -19.8187  -16.1125 C   0  0  2  0  0  0  0  0  0  0  0  0
   26.2883  -20.5630  -15.6302 N   0  0  0  0  0  0  0  0  0  0  0  0
   23.9247  -20.3284  -15.4292 C   0  0  0  0  0  0  0  0  0  0  0  0
   23.8251  -21.5460  -15.0956 O   0  0  0  0  0  0  0  0  0  0  0  0
   24.3056  -15.0878  -20.1044 N   0  0  0  0  0  0  0  0  0  0  0  0
   22.8366  -19.4953  -15.1341 C   0  0  2  0  0  0  0  0  0  0  0  0
   21.6746  -20.0189  -14.3991 C   0  0  0  0  0  0  0  0  0  0  0  0
   21.0096  -18.9033  -13.6734 C   0  0  0  0  0  0  0  0  0  0  0  0
   19.8041  -19.3372  -12.9128 C   0  0  0  0  0  0  0  0  0  0  0  0
   19.0179  -18.2793  -12.2815 O   0  0  0  0  0  0  0  0  0  0  0  0
   19.3483  -17.0871  -12.3801 C   0  0  0  0  0  0  0  0  0  0  0  0
   20.7579  -20.5391  -15.4442 O   0  0  0  0  0  0  0  0  0  0  0  0
   20.6133  -19.8398  -16.4811 O   0  0  0  0  0  0  0  0  0  0  0  0
   17.8739  -18.5886  -11.5513 C   0  0  0  0  0  0  0  0  0  0  0  0
   20.7902  -23.6463  -17.5401 C   0  0  2  0  0  0  0  0  0  0  0  0
   19.4134  -23.4545  -17.0005 O   0  0  0  0  0  0  0  0  0  0  0  0
   19.1974  -24.4330  -16.0320 C   0  0  2  0  0  0  0  0  0  0  0  0
   19.1531  -22.0948  -16.4527 N   0  0  0  0  0  0  0  0  0  0  0  0
   20.0415  -21.7572  -15.3673 C   0  0  0  0  0  0  0  0  0  0  0  0
   17.7223  -21.8068  -16.1797 O   0  0  0  0  0  0  0  0  0  0  0  0
   17.1783  -21.4493  -14.9707 O   0  0  0  0  0  0  0  0  0  0  0  0
  2  4  1  0
  2  1  1  0
  3  2  2  0
  5  4  1  0
  6  5  1  0
  7  8  1  0
  7  6  1  0
  8  9  1  1
 10 11  2  0
 10  8  1  0
 12 10  1  0
 13 12  1  0
 13 14  1  1
 15 14  1  0
 16 15  1  0
 17 16  2  0
 18 13  1  0
 18 25  1  0
 19 18  2  0
 20 16  1  0
 22 21  1  6
 22 24  1  0
 22 23  1  0
 24 25  1  6
 24 26  1  0
 26 27  1  0
 28 26  2  0
M  END
$$$$
