RET.pdb
     RDKit          3D

 28 27  0  0  1  0  0  0  0  0999 V2000
   25.0525  -19.8780   -6.6588 N   0  0  0  0  0  0  0  0  0  0  0  0
   24.4143  -20.9903   -7.2654 C   0  0  0  0  0  0  0  0  0  0  0  0
   23.4627  -21.6348   -6.6831 N   0  0  0  0  0  0  0  0  0  0  0  0
   24.8214  -21.4244   -8.5557 N   0  0  0  0  0  0  0  0  0  0  0  0
   25.4149  -20.4886   -9.4839 C   0  0  0  0  0  0  0  0  0  0  0  0
   25.7822  -21.2528  -10.7381 C   0  0  0  0  0  0  0  0  0  0  0  0
   26.1497  -20.3531  -11.8849 C   0  0  0  0  0  0  0  0  0  0  0  0
   25.1778  -20.6927  -13.0192 C   0  0  2  0  0  0  0  0  0  0  0  0
   25.3780  -22.0217  -13.5064 N   0  0  0  0  0  0  0  0  0  0  0  0
   25.4224  -19.7268  -14.1496 C   0  0  0  0  0  0  0  0  0  0  0  0
   25.3174  -18.4782  -13.9656 O   0  0  0  0  0  0  0  0  0  0  0  0
   23.0212  -22.4818   -7.0937 N   0  0  0  0  0  0  0  0  0  0  0  0
   25.7719  -20.1544  -15.4380 C   0  0  1  0  0  0  0  0  0  0  0  0
   25.9772  -19.1765  -16.5180 C   0  0  0  0  0  0  0  0  0  0  0  0
   26.7560  -19.8126  -17.6144 C   0  0  0  0  0  0  0  0  0  0  0  0
   26.9724  -18.9081  -18.7785 C   0  0  0  0  0  0  0  0  0  0  0  0
   27.7835  -19.4386  -19.8723 O   0  0  0  0  0  0  0  0  0  0  0  0
   29.0059  -19.6091  -19.7418 C   0  0  0  0  0  0  0  0  0  0  0  0
   24.6149  -18.8512  -17.0094 O   0  0  0  0  0  0  0  0  0  0  0  0
   23.8148  -19.8111  -17.1618 O   0  0  0  0  0  0  0  0  0  0  0  0
   27.1981  -19.7665  -21.0919 C   0  0  0  0  0  0  0  0  0  0  0  0
   21.7517  -16.6597  -15.6833 C   0  0  2  0  0  0  0  0  0  0  0  0
   22.0304  -16.3573  -17.1167 O   0  0  0  0  0  0  0  0  0  0  0  0
   22.6893  -15.1306  -17.1710 C   0  0  2  0  0  0  0  0  0  0  0  0
   22.8058  -17.4116  -17.8265 N   0  0  0  0  0  0  0  0  0  0  0  0
   24.1470  -17.5505  -17.3134 C   0  0  0  0  0  0  0  0  0  0  0  0
   22.7255  -17.3401  -19.3074 O   0  0  0  0  0  0  0  0  0  0  0  0
   23.7823  -17.2331  -20.1776 O   0  0  0  0  0  0  0  0  0  0  0  0
  2  4  1  0
  2  1  1  0
  3  2  2  0
  5  4  1  0
  6  5  1  0
  7  8  1  0
  7  6  1  0
  8  9  1  6
 10 11  2  0
 10  8  1  0
 12 10  1  0
 13 12  1  0
 13 14  1  1
 15 14  1  0
 16 15  1  0
 17 16  2  0
 18 13  1  0
 18 25  1  0
 19 18  2  0
 20 16  1  0
 22 21  1  6
 22 24  1  0
 22 23  1  0
 24 25  1  6
 24 26  1  0
 26 27  1  0
 28 26  2  0
M  END
$$$$
