RET.pdb
     RDKit          3D

 28 27  0  0  1  0  0  0  0  0999 V2000
   15.6138  -14.4041  -17.4276 N   0  0  0  0  0  0  0  0  0  0  0  0
   16.6488  -14.6667  -18.3615 C   0  0  0  0  0  0  0  0  0  0  0  0
   17.1780  -15.8348  -18.4861 N   0  0  0  0  0  0  0  0  0  0  0  0
   17.1322  -13.6233  -19.1961 N   0  0  0  0  0  0  0  0  0  0  0  0
   16.7284  -12.2559  -18.9583 C   0  0  0  0  0  0  0  0  0  0  0  0
   17.3601  -11.8076  -17.6576 C   0  0  0  0  0  0  0  0  0  0  0  0
   16.9507  -10.4180  -17.2566 C   0  0  0  0  0  0  0  0  0  0  0  0
   17.9435   -9.4700  -17.9363 C   0  0  2  0  0  0  0  0  0  0  0  0
   19.2182  -10.0884  -18.1275 N   0  0  0  0  0  0  0  0  0  0  0  0
   18.1240   -8.2663  -17.0481 C   0  0  0  0  0  0  0  0  0  0  0  0
   17.1196   -7.6355  -16.6042 O   0  0  0  0  0  0  0  0  0  0  0  0
   17.9350  -16.0414  -19.1682 N   0  0  0  0  0  0  0  0  0  0  0  0
   19.3898   -7.7932  -16.6755 C   0  0  1  0  0  0  0  0  0  0  0  0
   19.5186   -6.6127  -15.8070 C   0  0  0  0  0  0  0  0  0  0  0  0
   20.8777   -6.5943  -15.2022 C   0  0  0  0  0  0  0  0  0  0  0  0
   21.1002   -5.4296  -14.3000 C   0  0  0  0  0  0  0  0  0  0  0  0
   22.3835   -5.3833  -13.6023 O   0  0  0  0  0  0  0  0  0  0  0  0
   23.3207   -6.1278  -13.9305 C   0  0  0  0  0  0  0  0  0  0  0  0
   19.3699   -5.4470  -16.7139 O   0  0  0  0  0  0  0  0  0  0  0  0
   19.9053   -5.5314  -17.8502 O   0  0  0  0  0  0  0  0  0  0  0  0
   22.5833   -4.4970  -12.5476 C   0  0  0  0  0  0  0  0  0  0  0  0
   16.3070   -2.5226  -16.8162 C   0  0  2  0  0  0  0  0  0  0  0  0
   17.2729   -2.9154  -17.8822 O   0  0  0  0  0  0  0  0  0  0  0  0
   17.2869   -1.9003  -18.8368 C   0  0  1  0  0  0  0  0  0  0  0  0
   18.6477   -3.2030  -17.3886 N   0  0  0  0  0  0  0  0  0  0  0  0
   18.6716   -4.2560  -16.4028 C   0  0  0  0  0  0  0  0  0  0  0  0
   19.4284   -1.9979  -17.0105 O   0  0  0  0  0  0  0  0  0  0  0  0
   19.9093   -1.0361  -17.8645 O   0  0  0  0  0  0  0  0  0  0  0  0
  2  4  1  0
  2  1  1  0
  3  2  2  0
  5  4  1  0
  6  5  1  0
  7  8  1  0
  7  6  1  0
  8  9  1  1
 10 11  2  0
 10  8  1  0
 12 10  1  0
 13 12  1  0
 13 14  1  1
 15 14  1  0
 16 15  1  0
 17 16  2  0
 18 13  1  0
 18 25  1  0
 19 18  2  0
 20 16  1  0
 22 21  1  6
 22 24  1  0
 22 23  1  0
 24 25  1  6
 24 26  1  0
 26 27  1  0
 28 26  2  0
M  END
$$$$
