RET.pdb
     RDKit          3D

 28 27  0  0  1  0  0  0  0  0999 V2000
   16.8209  -28.9932   -5.6431 N   0  0  0  0  0  0  0  0  0  0  0  0
   16.6390  -28.0618   -6.6975 C   0  0  0  0  0  0  0  0  0  0  0  0
   17.0061  -28.3158   -7.9060 N   0  0  0  0  0  0  0  0  0  0  0  0
   16.0347  -26.8029   -6.4349 N   0  0  0  0  0  0  0  0  0  0  0  0
   15.5071  -26.5094   -5.1215 C   0  0  0  0  0  0  0  0  0  0  0  0
   14.9420  -25.1053   -5.1543 C   0  0  0  0  0  0  0  0  0  0  0  0
   14.2635  -24.7175   -3.8702 C   0  0  0  0  0  0  0  0  0  0  0  0
   13.6216  -23.3503   -4.1253 C   0  0  2  0  0  0  0  0  0  0  0  0
   14.1225  -22.7461   -5.3202 N   0  0  0  0  0  0  0  0  0  0  0  0
   13.9525  -22.4535   -2.9605 C   0  0  0  0  0  0  0  0  0  0  0  0
   14.7705  -21.4962   -3.0952 O   0  0  0  0  0  0  0  0  0  0  0  0
   16.9054  -27.6312   -8.6820 N   0  0  0  0  0  0  0  0  0  0  0  0
   13.3817  -22.6310   -1.6926 C   0  0  1  0  0  0  0  0  0  0  0  0
   13.5867  -21.6282   -0.6357 C   0  0  0  0  0  0  0  0  0  0  0  0
   12.3107  -20.9027   -0.3933 C   0  0  0  0  0  0  0  0  0  0  0  0
   12.4329  -19.8335    0.6372 C   0  0  0  0  0  0  0  0  0  0  0  0
   11.2183  -19.0784    0.9379 O   0  0  0  0  0  0  0  0  0  0  0  0
   10.8804  -18.8444    2.1089 C   0  0  0  0  0  0  0  0  0  0  0  0
   13.9439  -22.4094    0.5749 O   0  0  0  0  0  0  0  0  0  0  0  0
   13.4714  -23.5726    0.6679 O   0  0  0  0  0  0  0  0  0  0  0  0
   10.4093  -18.6021   -0.0899 C   0  0  0  0  0  0  0  0  0  0  0  0
   17.6188  -22.8321    2.3578 C   0  0  2  0  0  0  0  0  0  0  0  0
   16.4630  -22.5826    3.2663 O   0  0  0  0  0  0  0  0  0  0  0  0
   16.5323  -21.2556    3.6862 C   0  0  2  0  0  0  0  0  0  0  0  0
   15.1344  -22.8836    2.6655 N   0  0  0  0  0  0  0  0  0  0  0  0
   14.7748  -21.9512    1.6250 C   0  0  0  0  0  0  0  0  0  0  0  0
   14.0565  -23.1363    3.6550 O   0  0  0  0  0  0  0  0  0  0  0  0
   13.9418  -24.2321    4.4744 O   0  0  0  0  0  0  0  0  0  0  0  0
  2  4  1  0
  2  1  1  0
  3  2  2  0
  5  4  1  0
  6  5  1  0
  7  8  1  0
  7  6  1  0
  8  9  1  6
 10 11  2  0
 10  8  1  0
 12 10  1  0
 13 12  1  0
 13 14  1  1
 15 14  1  0
 16 15  1  0
 17 16  2  0
 18 13  1  0
 18 25  1  0
 19 18  2  0
 20 16  1  0
 22 21  1  1
 22 24  1  0
 22 23  1  0
 24 25  1  1
 24 26  1  0
 26 27  1  0
 28 26  2  0
M  END
$$$$
