TKE.pdb
     RDKit          3D

 26 25  0  0  1  0  0  0  0  0999 V2000
    8.7788  -16.0968   17.7722 C   0  0  0  0  0  0  0  0  0  0  0  0
    8.7243  -14.5939   17.5908 C   0  0  1  0  0  0  0  0  0  0  0  0
    7.8096  -14.4060   16.5166 O   0  0  0  0  0  0  0  0  0  0  0  0
    8.1050  -13.8933   18.8067 C   0  0  2  0  0  0  0  0  0  0  0  0
    8.0542  -12.4594   18.4526 N   0  0  0  0  0  0  0  0  0  0  0  0
    8.9583  -13.9623   20.0086 C   0  0  0  0  0  0  0  0  0  0  0  0
   10.0799  -13.3803   20.0463 O   0  0  0  0  0  0  0  0  0  0  0  0
    8.6246  -14.6634   21.2188 N   0  0  0  0  0  0  0  0  0  0  0  0
    9.5752  -14.8687   22.2707 C   0  0  1  0  0  0  0  0  0  0  0  0
    8.8433  -15.5735   23.4310 C   0  0  0  0  0  0  0  0  0  0  0  0
    9.7904  -15.8449   24.5587 C   0  0  0  0  0  0  0  0  0  0  0  0
    9.1322  -16.6936   25.5902 C   0  0  0  0  0  0  0  0  0  0  0  0
   10.0036  -16.9369   26.7991 C   0  0  0  0  0  0  0  0  0  0  0  0
    9.2634  -17.8548   27.6550 N   0  0  0  0  0  0  0  0  0  0  0  0
   10.7885  -15.6339   21.8884 C   0  0  0  0  0  0  0  0  0  0  0  0
   10.6513  -16.7678   21.3525 O   0  0  0  0  0  0  0  0  0  0  0  0
   12.1067  -15.1772   22.0845 N   0  0  0  0  0  0  0  0  0  0  0  0
   13.3377  -15.7551   21.7545 C   0  0  1  0  0  0  0  0  0  0  0  0
   14.2643  -14.9681   20.9038 C   0  0  0  0  0  0  0  0  0  0  0  0
   13.8440  -14.9424   19.4589 C   0  0  0  0  0  0  0  0  0  0  0  0
   14.8370  -14.2495   18.6117 C   0  0  0  0  0  0  0  0  0  0  0  0
   16.0732  -14.3974   18.7505 O   0  0  0  0  0  0  0  0  0  0  0  0
   14.0691  -16.4269   22.8567 C   0  0  0  0  0  0  0  0  0  0  0  0
   15.2469  -17.0935   22.5802 O   0  0  0  0  0  0  0  0  0  0  0  0
   14.3939  -13.3963   17.6170 O   0  0  0  0  0  0  0  0  0  0  0  0
   13.6542  -16.4071   24.0161 O   0  0  0  0  0  0  0  0  0  0  0  0
  2  3  1  0
  2  1  1  1
  4  2  1  0
  4  5  1  6
  6  4  1  0
  7  6  2  0
  8  6  1  0
  9 10  1  1
  9  8  1  0
 11 10  1  0
 11 12  1  0
 13 14  1  0
 13 12  1  0
 15  9  1  0
 16 15  2  0
 17 15  1  0
 18 17  1  0
 19 20  1  0
 18 19  1  1
 20 21  1  0
 21 25  1  0
 21 22  2  0
 23 18  1  0
 23 24  1  0
 26 23  2  0
M  END
$$$$
