TKE.pdb
     RDKit          3D

 26 25  0  0  1  0  0  0  0  0999 V2000
    7.2824  -12.3190   19.3628 C   0  0  0  0  0  0  0  0  0  0  0  0
    7.8369  -13.3852   18.4407 C   0  0  1  0  0  0  0  0  0  0  0  0
    7.8289  -12.7728   17.1558 O   0  0  0  0  0  0  0  0  0  0  0  0
    9.3045  -13.7042   18.7527 C   0  0  2  0  0  0  0  0  0  0  0  0
    9.7742  -14.5408   17.6286 N   0  0  0  0  0  0  0  0  0  0  0  0
    9.4690  -14.5461   19.9533 C   0  0  0  0  0  0  0  0  0  0  0  0
    9.1917  -14.1023   21.1040 O   0  0  0  0  0  0  0  0  0  0  0  0
    9.9380  -15.9053   19.9505 N   0  0  0  0  0  0  0  0  0  0  0  0
   10.1442  -16.6458   21.1594 C   0  0  1  0  0  0  0  0  0  0  0  0
    9.7309  -18.1069   20.8888 C   0  0  0  0  0  0  0  0  0  0  0  0
    9.9344  -18.9435   22.1140 C   0  0  0  0  0  0  0  0  0  0  0  0
    9.6314  -20.3711   21.8181 C   0  0  0  0  0  0  0  0  0  0  0  0
    9.9523  -21.2941   22.9692 C   0  0  0  0  0  0  0  0  0  0  0  0
    9.7231  -22.6474   22.4806 N   0  0  0  0  0  0  0  0  0  0  0  0
   11.5231  -16.5950   21.7068 C   0  0  0  0  0  0  0  0  0  0  0  0
   12.4888  -16.9099   20.9585 O   0  0  0  0  0  0  0  0  0  0  0  0
   11.8374  -16.2135   23.0260 N   0  0  0  0  0  0  0  0  0  0  0  0
   12.8639  -16.6278   23.8822 C   0  0  1  0  0  0  0  0  0  0  0  0
   12.5152  -17.5716   24.9727 C   0  0  0  0  0  0  0  0  0  0  0  0
   12.6333  -16.9491   26.3378 C   0  0  0  0  0  0  0  0  0  0  0  0
   12.3315  -17.9198   27.4105 C   0  0  0  0  0  0  0  0  0  0  0  0
   11.2327  -18.5142   27.5027 O   0  0  0  0  0  0  0  0  0  0  0  0
   14.1467  -17.0072   23.2408 C   0  0  0  0  0  0  0  0  0  0  0  0
   15.2844  -16.2739   23.5162 O   0  0  0  0  0  0  0  0  0  0  0  0
   13.2979  -18.1926   28.3621 O   0  0  0  0  0  0  0  0  0  0  0  0
   14.2265  -17.9616   22.4664 O   0  0  0  0  0  0  0  0  0  0  0  0
  2  3  1  0
  2  1  1  1
  4  2  1  0
  4  5  1  6
  6  4  1  0
  7  6  2  0
  8  6  1  0
  9 10  1  6
  9  8  1  0
 11 10  1  0
 11 12  1  0
 13 14  1  0
 13 12  1  0
 15  9  1  0
 16 15  2  0
 17 15  1  0
 18 17  1  0
 19 20  1  0
 18 19  1  6
 20 21  1  0
 21 25  1  0
 21 22  2  0
 23 18  1  0
 23 24  1  0
 26 23  2  0
M  END
$$$$
