TKE.pdb
     RDKit          3D

 26 25  0  0  1  0  0  0  0  0999 V2000
   10.5020  -20.7440   16.5466 C   0  0  0  0  0  0  0  0  0  0  0  0
   10.5426  -19.8930   17.7991 C   0  0  1  0  0  0  0  0  0  0  0  0
   11.7542  -20.2757   18.4408 O   0  0  0  0  0  0  0  0  0  0  0  0
   10.6852  -18.4011   17.4724 C   0  0  2  0  0  0  0  0  0  0  0  0
   11.9617  -18.2782   16.7378 N   0  0  0  0  0  0  0  0  0  0  0  0
   10.8509  -17.5609   18.6740 C   0  0  0  0  0  0  0  0  0  0  0  0
   11.9944  -17.3514   19.1706 O   0  0  0  0  0  0  0  0  0  0  0  0
    9.7806  -16.9118   19.3815 N   0  0  0  0  0  0  0  0  0  0  0  0
    9.9991  -16.1747   20.5903 C   0  0  1  0  0  0  0  0  0  0  0  0
    8.7687  -15.2726   20.8165 C   0  0  0  0  0  0  0  0  0  0  0  0
    8.5155  -14.4216   19.6107 C   0  0  0  0  0  0  0  0  0  0  0  0
    7.3016  -13.5843   19.8177 C   0  0  0  0  0  0  0  0  0  0  0  0
    6.9816  -12.7042   18.6332 C   0  0  0  0  0  0  0  0  0  0  0  0
    5.8687  -11.8587   19.0445 N   0  0  0  0  0  0  0  0  0  0  0  0
   10.2606  -16.9989   21.7970 C   0  0  0  0  0  0  0  0  0  0  0  0
   10.4958  -18.2303   21.6557 O   0  0  0  0  0  0  0  0  0  0  0  0
   10.2652  -16.4962   23.1130 N   0  0  0  0  0  0  0  0  0  0  0  0
   11.2410  -16.5524   24.1144 C   0  0  1  0  0  0  0  0  0  0  0  0
   12.6412  -16.2439   23.7325 C   0  0  0  0  0  0  0  0  0  0  0  0
   13.4877  -17.4796   23.5863 C   0  0  0  0  0  0  0  0  0  0  0  0
   14.9088  -17.1461   23.3557 C   0  0  0  0  0  0  0  0  0  0  0  0
   15.5434  -17.5279   22.3453 O   0  0  0  0  0  0  0  0  0  0  0  0
   10.8932  -15.9233   25.4123 C   0  0  0  0  0  0  0  0  0  0  0  0
   11.4645  -16.4062   26.5735 O   0  0  0  0  0  0  0  0  0  0  0  0
   15.5798  -16.3783   24.2906 O   0  0  0  0  0  0  0  0  0  0  0  0
   10.1061  -14.9787   25.4841 O   0  0  0  0  0  0  0  0  0  0  0  0
  2  3  1  0
  2  1  1  6
  4  2  1  0
  4  5  1  6
  6  4  1  0
  7  6  2  0
  8  6  1  0
  9 10  1  1
  9  8  1  0
 11 10  1  0
 11 12  1  0
 13 14  1  0
 13 12  1  0
 15  9  1  0
 16 15  2  0
 17 15  1  0
 18 17  1  0
 19 20  1  0
 18 19  1  6
 20 21  1  0
 21 25  1  0
 21 22  2  0
 23 18  1  0
 23 24  1  0
 26 23  2  0
M  END
$$$$
