TKE.pdb
     RDKit          3D

 26 25  0  0  1  0  0  0  0  0999 V2000
   13.1626  -20.0078   17.7301 C   0  0  0  0  0  0  0  0  0  0  0  0
   12.6219  -18.8887   16.8641 C   0  0  1  0  0  0  0  0  0  0  0  0
   12.8839  -19.3208   15.5334 O   0  0  0  0  0  0  0  0  0  0  0  0
   11.0977  -18.7617   16.9796 C   0  0  2  0  0  0  0  0  0  0  0  0
   10.7156  -17.7057   16.0189 N   0  0  0  0  0  0  0  0  0  0  0  0
   10.6589  -18.2604   18.2963 C   0  0  0  0  0  0  0  0  0  0  0  0
   11.1231  -17.1853   18.7725 O   0  0  0  0  0  0  0  0  0  0  0  0
    9.6952  -18.9058   19.1461 N   0  0  0  0  0  0  0  0  0  0  0  0
    9.4570  -18.4805   20.4931 C   0  0  1  0  0  0  0  0  0  0  0  0
    8.1851  -19.1968   20.9914 C   0  0  0  0  0  0  0  0  0  0  0  0
    6.9995  -18.7858   20.1743 C   0  0  0  0  0  0  0  0  0  0  0  0
    5.7922  -19.5457   20.6014 C   0  0  0  0  0  0  0  0  0  0  0  0
    4.5563  -19.1832   19.8133 C   0  0  0  0  0  0  0  0  0  0  0  0
    3.4811  -20.0139   20.3394 N   0  0  0  0  0  0  0  0  0  0  0  0
   10.5788  -18.7091   21.4380 C   0  0  0  0  0  0  0  0  0  0  0  0
   11.1027  -19.8553   21.4975 O   0  0  0  0  0  0  0  0  0  0  0  0
   11.1107  -17.7205   22.2891 N   0  0  0  0  0  0  0  0  0  0  0  0
   12.0889  -17.7968   23.2870 C   0  0  1  0  0  0  0  0  0  0  0  0
   13.2914  -16.9397   23.1425 C   0  0  0  0  0  0  0  0  0  0  0  0
   13.9131  -17.0391   21.7756 C   0  0  0  0  0  0  0  0  0  0  0  0
   15.1500  -16.2365   21.6766 C   0  0  0  0  0  0  0  0  0  0  0  0
   15.2882  -15.1250   22.2377 O   0  0  0  0  0  0  0  0  0  0  0  0
   11.6038  -17.8001   24.6891 C   0  0  0  0  0  0  0  0  0  0  0  0
   12.4776  -18.1285   25.7071 O   0  0  0  0  0  0  0  0  0  0  0  0
   16.2103  -16.7238   20.9336 O   0  0  0  0  0  0  0  0  0  0  0  0
   10.4391  -17.5170   24.9723 O   0  0  0  0  0  0  0  0  0  0  0  0
  2  3  1  0
  2  1  1  1
  4  2  1  0
  4  5  1  6
  6  4  1  0
  7  6  2  0
  8  6  1  0
  9 10  1  1
  9  8  1  0
 11 10  1  0
 11 12  1  0
 13 14  1  0
 13 12  1  0
 15  9  1  0
 16 15  2  0
 17 15  1  0
 18 17  1  0
 19 20  1  0
 18 19  1  1
 20 21  1  0
 21 25  1  0
 21 22  2  0
 23 18  1  0
 23 24  1  0
 26 23  2  0
M  END
$$$$
