TKE.pdb
     RDKit          3D

 26 25  0  0  1  0  0  0  0  0999 V2000
   10.0270  -15.8460   17.4606 C   0  0  0  0  0  0  0  0  0  0  0  0
    9.4906  -14.4326   17.5564 C   0  0  1  0  0  0  0  0  0  0  0  0
    9.2167  -14.0720   16.2069 O   0  0  0  0  0  0  0  0  0  0  0  0
    8.1466  -14.3798   18.2937 C   0  0  2  0  0  0  0  0  0  0  0  0
    7.7916  -12.9470   18.3654 N   0  0  0  0  0  0  0  0  0  0  0  0
    8.2414  -14.8229   19.6981 C   0  0  0  0  0  0  0  0  0  0  0  0
    8.7658  -14.0852   20.5806 O   0  0  0  0  0  0  0  0  0  0  0  0
    7.7666  -16.0839   20.1997 N   0  0  0  0  0  0  0  0  0  0  0  0
    8.1312  -16.5786   21.4937 C   0  0  1  0  0  0  0  0  0  0  0  0
    7.1943  -17.7584   21.8241 C   0  0  0  0  0  0  0  0  0  0  0  0
    5.7708  -17.3915   21.5391 C   0  0  0  0  0  0  0  0  0  0  0  0
    4.8745  -18.5451   21.8275 C   0  0  0  0  0  0  0  0  0  0  0  0
    3.4197  -18.2456   21.5561 C   0  0  0  0  0  0  0  0  0  0  0  0
    2.6934  -19.4785   21.8300 N   0  0  0  0  0  0  0  0  0  0  0  0
    9.5494  -16.9930   21.6377 C   0  0  0  0  0  0  0  0  0  0  0  0
   10.0431  -17.7846   20.7884 O   0  0  0  0  0  0  0  0  0  0  0  0
   10.3998  -16.5582   22.6732 N   0  0  0  0  0  0  0  0  0  0  0  0
   11.7235  -16.8953   22.9774 C   0  0  1  0  0  0  0  0  0  0  0  0
   12.7972  -16.0080   22.4661 C   0  0  0  0  0  0  0  0  0  0  0  0
   14.1751  -16.5225   22.7848 C   0  0  0  0  0  0  0  0  0  0  0  0
   15.2279  -15.6821   22.1771 C   0  0  0  0  0  0  0  0  0  0  0  0
   15.0302  -14.5005   21.8109 O   0  0  0  0  0  0  0  0  0  0  0  0
   11.9958  -17.3075   24.3764 C   0  0  0  0  0  0  0  0  0  0  0  0
   13.1679  -17.9772   24.6689 O   0  0  0  0  0  0  0  0  0  0  0  0
   16.4929  -16.2129   21.9992 O   0  0  0  0  0  0  0  0  0  0  0  0
   11.2031  -17.0685   25.2881 O   0  0  0  0  0  0  0  0  0  0  0  0
  2  3  1  0
  2  1  1  6
  4  2  1  0
  4  5  1  1
  6  4  1  0
  7  6  2  0
  8  6  1  0
  9 10  1  6
  9  8  1  0
 11 10  1  0
 11 12  1  0
 13 14  1  0
 13 12  1  0
 15  9  1  0
 16 15  2  0
 17 15  1  0
 18 17  1  0
 19 20  1  0
 18 19  1  1
 20 21  1  0
 21 25  1  0
 21 22  2  0
 23 18  1  0
 23 24  1  0
 26 23  2  0
M  END
$$$$
