TKE.pdb
     RDKit          3D

 26 25  0  0  1  0  0  0  0  0999 V2000
    7.4083  -18.0047   18.5810 C   0  0  0  0  0  0  0  0  0  0  0  0
    7.7867  -17.4318   19.9313 C   0  0  1  0  0  0  0  0  0  0  0  0
    9.0592  -18.0062   20.2088 O   0  0  0  0  0  0  0  0  0  0  0  0
    8.0076  -15.9152   19.8674 C   0  0  2  0  0  0  0  0  0  0  0  0
    9.1611  -15.7220   18.9640 N   0  0  0  0  0  0  0  0  0  0  0  0
    8.4299  -15.3391   21.1586 C   0  0  0  0  0  0  0  0  0  0  0  0
    9.6409  -15.3669   21.5201 O   0  0  0  0  0  0  0  0  0  0  0  0
    7.5532  -14.7063   22.1064 N   0  0  0  0  0  0  0  0  0  0  0  0
    7.9841  -14.3447   23.4239 C   0  0  1  0  0  0  0  0  0  0  0  0
    6.8123  -13.6193   24.1163 C   0  0  0  0  0  0  0  0  0  0  0  0
    7.1728  -13.2721   25.5276 C   0  0  0  0  0  0  0  0  0  0  0  0
    6.0545  -12.5341   26.1775 C   0  0  0  0  0  0  0  0  0  0  0  0
    6.3611  -12.1291   27.5994 C   0  0  0  0  0  0  0  0  0  0  0  0
    5.1427  -11.5241   28.1210 N   0  0  0  0  0  0  0  0  0  0  0  0
    8.4613  -15.4700   24.2662 C   0  0  0  0  0  0  0  0  0  0  0  0
    7.6644  -16.4097   24.5378 O   0  0  0  0  0  0  0  0  0  0  0  0
    9.7638  -15.5666   24.7942 N   0  0  0  0  0  0  0  0  0  0  0  0
   10.4019  -16.6054   25.4813 C   0  0  1  0  0  0  0  0  0  0  0  0
   11.5883  -17.2285   24.8444 C   0  0  0  0  0  0  0  0  0  0  0  0
   12.8673  -16.5046   25.1685 C   0  0  0  0  0  0  0  0  0  0  0  0
   13.8138  -16.5298   24.0339 C   0  0  0  0  0  0  0  0  0  0  0  0
   13.5517  -17.0801   22.9395 O   0  0  0  0  0  0  0  0  0  0  0  0
   10.6255  -16.3981   26.9333 C   0  0  0  0  0  0  0  0  0  0  0  0
   11.1698  -17.4195   27.6872 O   0  0  0  0  0  0  0  0  0  0  0  0
   15.0485  -15.9217   24.1744 O   0  0  0  0  0  0  0  0  0  0  0  0
   10.3384  -15.3365   27.4879 O   0  0  0  0  0  0  0  0  0  0  0  0
  2  3  1  0
  2  1  1  6
  4  2  1  0
  4  5  1  6
  6  4  1  0
  7  6  2  0
  8  6  1  0
  9 10  1  1
  9  8  1  0
 11 10  1  0
 11 12  1  0
 13 14  1  0
 13 12  1  0
 15  9  1  0
 16 15  2  0
 17 15  1  0
 18 17  1  0
 19 20  1  0
 18 19  1  6
 20 21  1  0
 21 25  1  0
 21 22  2  0
 23 18  1  0
 23 24  1  0
 26 23  2  0
M  END
$$$$
