TKE.pdb
     RDKit          3D

 26 25  0  0  1  0  0  0  0  0999 V2000
    9.3822  -15.5101   17.2085 C   0  0  0  0  0  0  0  0  0  0  0  0
    9.1228  -14.0702   17.6007 C   0  0  1  0  0  0  0  0  0  0  0  0
    8.8335  -13.4204   16.3677 O   0  0  0  0  0  0  0  0  0  0  0  0
    7.8620  -13.9307   18.4630 C   0  0  2  0  0  0  0  0  0  0  0  0
    7.7439  -12.4876   18.7592 N   0  0  0  0  0  0  0  0  0  0  0  0
    7.9889  -14.5841   19.7801 C   0  0  0  0  0  0  0  0  0  0  0  0
    8.6913  -14.0713   20.6974 O   0  0  0  0  0  0  0  0  0  0  0  0
    7.3541  -15.8190   20.1535 N   0  0  0  0  0  0  0  0  0  0  0  0
    7.6015  -16.4560   21.4126 C   0  0  1  0  0  0  0  0  0  0  0  0
    6.7322  -17.7287   21.4713 C   0  0  0  0  0  0  0  0  0  0  0  0
    6.9903  -18.4802   22.7405 C   0  0  0  0  0  0  0  0  0  0  0  0
    6.3056  -19.8020   22.7039 C   0  0  0  0  0  0  0  0  0  0  0  0
    6.5127  -20.6099   23.9627 C   0  0  0  0  0  0  0  0  0  0  0  0
    5.8183  -21.8735   23.7530 N   0  0  0  0  0  0  0  0  0  0  0  0
    9.0217  -16.7907   21.6856 C   0  0  0  0  0  0  0  0  0  0  0  0
    9.7231  -17.2783   20.7571 O   0  0  0  0  0  0  0  0  0  0  0  0
    9.6548  -16.6001   22.9296 N   0  0  0  0  0  0  0  0  0  0  0  0
   11.0029  -16.6808   23.2961 C   0  0  1  0  0  0  0  0  0  0  0  0
   11.9464  -15.7186   22.6752 C   0  0  0  0  0  0  0  0  0  0  0  0
   12.8783  -16.3735   21.6916 C   0  0  0  0  0  0  0  0  0  0  0  0
   13.8901  -15.4253   21.1806 C   0  0  0  0  0  0  0  0  0  0  0  0
   14.8924  -15.0741   21.8450 O   0  0  0  0  0  0  0  0  0  0  0  0
   11.2856  -16.8438   24.7434 C   0  0  0  0  0  0  0  0  0  0  0  0
   12.5596  -17.1902   25.1496 O   0  0  0  0  0  0  0  0  0  0  0  0
   13.7344  -14.8943   19.9127 O   0  0  0  0  0  0  0  0  0  0  0  0
   10.4131  -16.6783   25.5966 O   0  0  0  0  0  0  0  0  0  0  0  0
  2  3  1  0
  2  1  1  6
  4  2  1  0
  4  5  1  1
  6  4  1  0
  7  6  2  0
  8  6  1  0
  9 10  1  6
  9  8  1  0
 11 10  1  0
 11 12  1  0
 13 14  1  0
 13 12  1  0
 15  9  1  0
 16 15  2  0
 17 15  1  0
 18 17  1  0
 19 20  1  0
 18 19  1  1
 20 21  1  0
 21 25  1  0
 21 22  2  0
 23 18  1  0
 23 24  1  0
 26 23  2  0
M  END
$$$$
