TKE.pdb
     RDKit          3D

 26 25  0  0  1  0  0  0  0  0999 V2000
    7.9146  -18.2713   18.4981 C   0  0  0  0  0  0  0  0  0  0  0  0
    8.1816  -17.6701   19.8626 C   0  0  1  0  0  0  0  0  0  0  0  0
    9.3218  -18.3777   20.3376 O   0  0  0  0  0  0  0  0  0  0  0  0
    8.6020  -16.1981   19.7666 C   0  0  2  0  0  0  0  0  0  0  0  0
    9.8669  -16.1978   19.0023 N   0  0  0  0  0  0  0  0  0  0  0  0
    8.9440  -15.6095   21.0758 C   0  0  0  0  0  0  0  0  0  0  0  0
   10.1371  -15.5965   21.4933 O   0  0  0  0  0  0  0  0  0  0  0  0
    8.0031  -15.0081   21.9816 N   0  0  0  0  0  0  0  0  0  0  0  0
    8.3541  -14.6526   23.3243 C   0  0  1  0  0  0  0  0  0  0  0  0
    7.1869  -13.8326   23.9109 C   0  0  0  0  0  0  0  0  0  0  0  0
    7.4767  -13.4515   25.3297 C   0  0  0  0  0  0  0  0  0  0  0  0
    6.3680  -12.6209   25.8760 C   0  0  0  0  0  0  0  0  0  0  0  0
    6.6032  -12.1856   27.3026 C   0  0  0  0  0  0  0  0  0  0  0  0
    5.4709  -11.3420   27.6616 N   0  0  0  0  0  0  0  0  0  0  0  0
    8.6809  -15.7925   24.2172 C   0  0  0  0  0  0  0  0  0  0  0  0
    7.8133  -16.6890   24.4048 O   0  0  0  0  0  0  0  0  0  0  0  0
    9.9126  -15.9486   24.8829 N   0  0  0  0  0  0  0  0  0  0  0  0
   10.3560  -16.9303   25.7762 C   0  0  1  0  0  0  0  0  0  0  0  0
   11.5931  -17.6723   25.4288 C   0  0  0  0  0  0  0  0  0  0  0  0
   11.5135  -18.3314   24.0781 C   0  0  0  0  0  0  0  0  0  0  0  0
   12.8542  -18.6503   23.5444 C   0  0  0  0  0  0  0  0  0  0  0  0
   13.9110  -18.4319   24.1806 O   0  0  0  0  0  0  0  0  0  0  0  0
   10.3384  -16.5707   27.2155 C   0  0  0  0  0  0  0  0  0  0  0  0
   10.6556  -17.5302   28.1571 O   0  0  0  0  0  0  0  0  0  0  0  0
   12.9601  -19.2159   22.2863 O   0  0  0  0  0  0  0  0  0  0  0  0
   10.0478  -15.4361   27.5963 O   0  0  0  0  0  0  0  0  0  0  0  0
  2  3  1  0
  2  1  1  6
  4  2  1  0
  4  5  1  6
  6  4  1  0
  7  6  2  0
  8  6  1  0
  9 10  1  1
  9  8  1  0
 11 10  1  0
 11 12  1  0
 13 14  1  0
 13 12  1  0
 15  9  1  0
 16 15  2  0
 17 15  1  0
 18 17  1  0
 19 20  1  0
 18 19  1  6
 20 21  1  0
 21 25  1  0
 21 22  2  0
 23 18  1  0
 23 24  1  0
 26 23  2  0
M  END
$$$$
