TKE.pdb
     RDKit          3D

 26 25  0  0  1  0  0  0  0  0999 V2000
    9.5873  -15.6368   18.5634 C   0  0  0  0  0  0  0  0  0  0  0  0
    9.0457  -14.2543   18.2638 C   0  0  1  0  0  0  0  0  0  0  0  0
    8.6989  -14.3077   16.8843 O   0  0  0  0  0  0  0  0  0  0  0  0
    7.7416  -13.9745   19.0214 C   0  0  2  0  0  0  0  0  0  0  0  0
    7.1931  -12.7406   18.4208 N   0  0  0  0  0  0  0  0  0  0  0  0
    7.9600  -13.6456   20.4433 C   0  0  0  0  0  0  0  0  0  0  0  0
    8.9559  -12.9578   20.8080 O   0  0  0  0  0  0  0  0  0  0  0  0
    7.1022  -14.0480   21.5248 N   0  0  0  0  0  0  0  0  0  0  0  0
    7.5631  -14.8763   22.5990 C   0  0  1  0  0  0  0  0  0  0  0  0
    6.9092  -16.2633   22.4334 C   0  0  0  0  0  0  0  0  0  0  0  0
    7.2202  -17.1322   23.6126 C   0  0  0  0  0  0  0  0  0  0  0  0
    6.6778  -18.5025   23.3991 C   0  0  0  0  0  0  0  0  0  0  0  0
    7.0267  -19.4569   24.5160 C   0  0  0  0  0  0  0  0  0  0  0  0
    6.4753  -20.7497   24.1324 N   0  0  0  0  0  0  0  0  0  0  0  0
    9.0373  -15.0129   22.7068 C   0  0  0  0  0  0  0  0  0  0  0  0
    9.7311  -13.9826   22.9282 O   0  0  0  0  0  0  0  0  0  0  0  0
    9.7308  -16.2322   22.5772 N   0  0  0  0  0  0  0  0  0  0  0  0
   10.6078  -16.8873   23.4490 C   0  0  1  0  0  0  0  0  0  0  0  0
   10.1771  -17.0650   24.8576 C   0  0  0  0  0  0  0  0  0  0  0  0
   11.2335  -17.7162   25.7090 C   0  0  0  0  0  0  0  0  0  0  0  0
   10.7686  -17.9227   27.0965 C   0  0  0  0  0  0  0  0  0  0  0  0
    9.6228  -17.5998   27.4868 O   0  0  0  0  0  0  0  0  0  0  0  0
   11.2570  -18.1174   22.9325 C   0  0  0  0  0  0  0  0  0  0  0  0
   10.4742  -19.2006   22.5833 O   0  0  0  0  0  0  0  0  0  0  0  0
   11.6282  -18.4977   28.0153 O   0  0  0  0  0  0  0  0  0  0  0  0
   12.4792  -18.2005   22.8057 O   0  0  0  0  0  0  0  0  0  0  0  0
  2  3  1  0
  2  1  1  1
  4  2  1  0
  4  5  1  6
  6  4  1  0
  7  6  2  0
  8  6  1  0
  9 10  1  6
  9  8  1  0
 11 10  1  0
 11 12  1  0
 13 14  1  0
 13 12  1  0
 15  9  1  0
 16 15  2  0
 17 15  1  0
 18 17  1  0
 19 20  1  0
 18 19  1  1
 20 21  1  0
 21 25  1  0
 21 22  2  0
 23 18  1  0
 23 24  1  0
 26 23  2  0
M  END
$$$$
