TKE.pdb
     RDKit          3D

 26 25  0  0  1  0  0  0  0  0999 V2000
    7.9249  -18.6322   18.9190 C   0  0  0  0  0  0  0  0  0  0  0  0
    8.2663  -17.9879   20.2467 C   0  0  1  0  0  0  0  0  0  0  0  0
    9.5278  -18.5496   20.5920 O   0  0  0  0  0  0  0  0  0  0  0  0
    8.4952  -16.4776   20.1073 C   0  0  2  0  0  0  0  0  0  0  0  0
    9.7027  -16.3372   19.2669 N   0  0  0  0  0  0  0  0  0  0  0  0
    8.8390  -15.8260   21.3859 C   0  0  0  0  0  0  0  0  0  0  0  0
   10.0213  -15.8498   21.8327 O   0  0  0  0  0  0  0  0  0  0  0  0
    7.9120  -15.1193   22.2277 N   0  0  0  0  0  0  0  0  0  0  0  0
    8.2661  -14.6583   23.5371 C   0  0  1  0  0  0  0  0  0  0  0  0
    7.1051  -13.7851   24.0551 C   0  0  0  0  0  0  0  0  0  0  0  0
    7.4024  -13.2844   25.4346 C   0  0  0  0  0  0  0  0  0  0  0  0
    6.3063  -12.3932   25.9057 C   0  0  0  0  0  0  0  0  0  0  0  0
    6.5727  -11.7981   27.2676 C   0  0  0  0  0  0  0  0  0  0  0  0
    5.3776  -11.0436   27.6217 N   0  0  0  0  0  0  0  0  0  0  0  0
    8.5854  -15.7242   24.5197 C   0  0  0  0  0  0  0  0  0  0  0  0
    7.7200  -16.6097   24.7622 O   0  0  0  0  0  0  0  0  0  0  0  0
    9.8073  -15.8203   25.2142 N   0  0  0  0  0  0  0  0  0  0  0  0
   10.3322  -16.8427   26.0126 C   0  0  1  0  0  0  0  0  0  0  0  0
   11.6171  -17.4554   25.5939 C   0  0  0  0  0  0  0  0  0  0  0  0
   12.0510  -18.5716   26.5053 C   0  0  0  0  0  0  0  0  0  0  0  0
   13.3236  -19.1779   26.0615 C   0  0  0  0  0  0  0  0  0  0  0  0
   14.4221  -18.9383   26.6140 O   0  0  0  0  0  0  0  0  0  0  0  0
   10.3036  -16.6172   27.4787 C   0  0  0  0  0  0  0  0  0  0  0  0
   10.0294  -15.3534   27.9641 O   0  0  0  0  0  0  0  0  0  0  0  0
   13.3145  -20.0511   24.9886 O   0  0  0  0  0  0  0  0  0  0  0  0
   10.5183  -17.5287   28.2786 O   0  0  0  0  0  0  0  0  0  0  0  0
  2  3  1  0
  2  1  1  6
  4  2  1  0
  4  5  1  6
  6  4  1  0
  7  6  2  0
  8  6  1  0
  9 10  1  1
  9  8  1  0
 11 10  1  0
 11 12  1  0
 13 14  1  0
 13 12  1  0
 15  9  1  0
 16 15  2  0
 17 15  1  0
 18 17  1  0
 19 20  1  0
 18 19  1  6
 20 21  1  0
 21 25  1  0
 21 22  2  0
 23 18  1  0
 23 24  1  0
 26 23  2  0
M  END
$$$$
