TKE.pdb
     RDKit          3D

 26 25  0  0  1  0  0  0  0  0999 V2000
    8.2708  -16.0445   17.1086 C   0  0  0  0  0  0  0  0  0  0  0  0
    8.2717  -14.5313   17.0387 C   0  0  1  0  0  0  0  0  0  0  0  0
    7.5367  -14.2371   15.8557 O   0  0  0  0  0  0  0  0  0  0  0  0
    7.4852  -13.9048   18.1970 C   0  0  2  0  0  0  0  0  0  0  0  0
    7.5054  -12.4486   17.9459 N   0  0  0  0  0  0  0  0  0  0  0  0
    8.1474  -14.0786   19.5042 C   0  0  0  0  0  0  0  0  0  0  0  0
    9.2821  -13.5705   19.7331 O   0  0  0  0  0  0  0  0  0  0  0  0
    7.6008  -14.8083   20.6160 N   0  0  0  0  0  0  0  0  0  0  0  0
    8.3724  -15.1148   21.7835 C   0  0  1  0  0  0  0  0  0  0  0  0
    7.4929  -15.9768   22.7120 C   0  0  0  0  0  0  0  0  0  0  0  0
    8.2697  -16.4057   23.9182 C   0  0  0  0  0  0  0  0  0  0  0  0
    7.4110  -17.2235   24.8190 C   0  0  0  0  0  0  0  0  0  0  0  0
    8.1251  -17.6684   26.0728 C   0  0  0  0  0  0  0  0  0  0  0  0
    7.2050  -18.5569   26.7705 N   0  0  0  0  0  0  0  0  0  0  0  0
    9.6678  -15.7931   21.5273 C   0  0  0  0  0  0  0  0  0  0  0  0
    9.6864  -16.8124   20.7840 O   0  0  0  0  0  0  0  0  0  0  0  0
   10.9008  -15.3734   22.0642 N   0  0  0  0  0  0  0  0  0  0  0  0
   12.2033  -15.8354   21.8444 C   0  0  1  0  0  0  0  0  0  0  0  0
   13.1042  -14.9947   21.0179 C   0  0  0  0  0  0  0  0  0  0  0  0
   14.4626  -15.6141   20.8283 C   0  0  0  0  0  0  0  0  0  0  0  0
   15.3661  -14.7295   20.0631 C   0  0  0  0  0  0  0  0  0  0  0  0
   15.0156  -14.1385   19.0157 O   0  0  0  0  0  0  0  0  0  0  0  0
   12.9190  -16.3806   23.0241 C   0  0  0  0  0  0  0  0  0  0  0  0
   12.3892  -16.1896   24.2854 O   0  0  0  0  0  0  0  0  0  0  0  0
   16.6599  -14.5375   20.5137 O   0  0  0  0  0  0  0  0  0  0  0  0
   13.9765  -17.0014   22.9103 O   0  0  0  0  0  0  0  0  0  0  0  0
  2  3  1  0
  2  1  1  1
  4  2  1  0
  4  5  1  6
  6  4  1  0
  7  6  2  0
  8  6  1  0
  9 10  1  1
  9  8  1  0
 11 10  1  0
 11 12  1  0
 13 14  1  0
 13 12  1  0
 15  9  1  0
 16 15  2  0
 17 15  1  0
 18 17  1  0
 19 20  1  0
 18 19  1  1
 20 21  1  0
 21 25  1  0
 21 22  2  0
 23 18  1  0
 23 24  1  0
 26 23  2  0
M  END
$$$$
