TKE.pdb
     RDKit          3D

 26 25  0  0  1  0  0  0  0  0999 V2000
   14.9945  -22.0750   13.7612 C   0  0  0  0  0  0  0  0  0  0  0  0
   15.0311  -20.6884   13.1525 C   0  0  1  0  0  0  0  0  0  0  0  0
   15.4146  -20.9120   11.8001 O   0  0  0  0  0  0  0  0  0  0  0  0
   13.6376  -20.0494   13.1013 C   0  0  2  0  0  0  0  0  0  0  0  0
   13.8314  -18.7302   12.4639 N   0  0  0  0  0  0  0  0  0  0  0  0
   13.0896  -19.7531   14.4389 C   0  0  0  0  0  0  0  0  0  0  0  0
   13.4833  -18.7481   15.0970 O   0  0  0  0  0  0  0  0  0  0  0  0
   12.0889  -20.5353   15.1129 N   0  0  0  0  0  0  0  0  0  0  0  0
   11.7186  -20.2935   16.4755 C   0  0  1  0  0  0  0  0  0  0  0  0
   10.3217  -20.9088   16.6964 C   0  0  0  0  0  0  0  0  0  0  0  0
    9.8544  -20.6561   18.0965 C   0  0  0  0  0  0  0  0  0  0  0  0
    8.4816  -21.2008   18.2867 C   0  0  0  0  0  0  0  0  0  0  0  0
    7.9564  -21.0032   19.6886 C   0  0  0  0  0  0  0  0  0  0  0  0
    6.6492  -21.6454   19.7267 N   0  0  0  0  0  0  0  0  0  0  0  0
   12.6719  -20.8052   17.4919 C   0  0  0  0  0  0  0  0  0  0  0  0
   13.1005  -21.9871   17.3863 O   0  0  0  0  0  0  0  0  0  0  0  0
   13.1414  -20.0526   18.5864 N   0  0  0  0  0  0  0  0  0  0  0  0
   14.0909  -20.3544   19.5690 C   0  0  1  0  0  0  0  0  0  0  0  0
   15.4115  -19.6835   19.4828 C   0  0  0  0  0  0  0  0  0  0  0  0
   16.4225  -20.2699   20.4310 C   0  0  0  0  0  0  0  0  0  0  0  0
   17.7278  -19.5839   20.3330 C   0  0  0  0  0  0  0  0  0  0  0  0
   18.0817  -18.6761   21.1204 O   0  0  0  0  0  0  0  0  0  0  0  0
   13.6036  -20.3908   20.9699 C   0  0  0  0  0  0  0  0  0  0  0  0
   12.6490  -19.4799   21.3786 O   0  0  0  0  0  0  0  0  0  0  0  0
   18.6074  -19.9519   19.3306 O   0  0  0  0  0  0  0  0  0  0  0  0
   14.0279  -21.2135   21.7823 O   0  0  0  0  0  0  0  0  0  0  0  0
  2  3  1  0
  2  1  1  1
  4  2  1  0
  4  5  1  6
  6  4  1  0
  7  6  2  0
  8  6  1  0
  9 10  1  1
  9  8  1  0
 11 10  1  0
 11 12  1  0
 13 14  1  0
 13 12  1  0
 15  9  1  0
 16 15  2  0
 17 15  1  0
 18 17  1  0
 19 20  1  0
 18 19  1  1
 20 21  1  0
 21 25  1  0
 21 22  2  0
 23 18  1  0
 23 24  1  0
 26 23  2  0
M  END
$$$$
