TKE.pdb
     RDKit          3D

 26 25  0  0  1  0  0  0  0  0999 V2000
    7.2846  -14.6883   17.8778 C   0  0  0  0  0  0  0  0  0  0  0  0
    7.7368  -14.8637   19.3128 C   0  0  1  0  0  0  0  0  0  0  0  0
    9.1326  -15.1227   19.2088 O   0  0  0  0  0  0  0  0  0  0  0  0
    7.6023  -13.5649   20.1176 C   0  0  2  0  0  0  0  0  0  0  0  0
    8.3942  -12.5591   19.3791 N   0  0  0  0  0  0  0  0  0  0  0  0
    8.2299  -13.6448   21.4507 C   0  0  0  0  0  0  0  0  0  0  0  0
    9.4519  -13.3654   21.6140 O   0  0  0  0  0  0  0  0  0  0  0  0
    7.5531  -14.0280   22.6601 N   0  0  0  0  0  0  0  0  0  0  0  0
    8.2530  -14.2542   23.8894 C   0  0  1  0  0  0  0  0  0  0  0  0
    7.2516  -14.0418   25.0432 C   0  0  0  0  0  0  0  0  0  0  0  0
    7.0974  -12.5822   25.3398 C   0  0  0  0  0  0  0  0  0  0  0  0
    6.1322  -12.3833   26.4562 C   0  0  0  0  0  0  0  0  0  0  0  0
    5.9521  -10.9316   26.8301 C   0  0  0  0  0  0  0  0  0  0  0  0
    5.0481  -10.9157   27.9726 N   0  0  0  0  0  0  0  0  0  0  0  0
    8.9049  -15.5821   24.0129 C   0  0  0  0  0  0  0  0  0  0  0  0
    8.2572  -16.6130   23.6820 O   0  0  0  0  0  0  0  0  0  0  0  0
   10.2188  -15.7782   24.4816 N   0  0  0  0  0  0  0  0  0  0  0  0
   10.9313  -16.9514   24.7542 C   0  0  1  0  0  0  0  0  0  0  0  0
   12.3864  -16.9590   24.4642 C   0  0  0  0  0  0  0  0  0  0  0  0
   12.6898  -16.6910   23.0147 C   0  0  0  0  0  0  0  0  0  0  0  0
   14.1262  -16.4200   22.7965 C   0  0  0  0  0  0  0  0  0  0  0  0
   14.9319  -16.2182   23.7343 O   0  0  0  0  0  0  0  0  0  0  0  0
   10.6444  -17.6126   26.0510 C   0  0  0  0  0  0  0  0  0  0  0  0
   11.2363  -18.8274   26.3372 O   0  0  0  0  0  0  0  0  0  0  0  0
   14.6151  -16.3848   21.5029 O   0  0  0  0  0  0  0  0  0  0  0  0
    9.8902  -17.1070   26.8831 O   0  0  0  0  0  0  0  0  0  0  0  0
  2  3  1  0
  2  1  1  6
  4  2  1  0
  4  5  1  6
  6  4  1  0
  7  6  2  0
  8  6  1  0
  9 10  1  1
  9  8  1  0
 11 10  1  0
 11 12  1  0
 13 14  1  0
 13 12  1  0
 15  9  1  0
 16 15  2  0
 17 15  1  0
 18 17  1  0
 19 20  1  0
 18 19  1  1
 20 21  1  0
 21 25  1  0
 21 22  2  0
 23 18  1  0
 23 24  1  0
 26 23  2  0
M  END
$$$$
