IQK.pdb
     RDKit          3D

 27 26  0  0  1  0  0  0  0  0999 V2000
   25.8983  -11.3606  -15.8267 C   0  0  0  0  0  0  0  0  0  0  0  0
   24.5193  -11.4822  -15.2222 C   0  0  0  0  0  0  0  0  0  0  0  0
   23.6823  -10.2392  -15.4292 C   0  0  2  0  0  0  0  0  0  0  0  0
   24.3603   -9.0584  -14.7162 C   0  0  0  0  0  0  0  0  0  0  0  0
   22.3582  -10.4137  -14.7901 C   0  0  2  0  0  0  0  0  0  0  0  0
   21.7362  -11.6487  -15.2665 N   0  0  0  0  0  0  0  0  0  0  0  0
   21.4143   -9.3120  -14.8708 C   0  0  0  0  0  0  0  0  0  0  0  0
   20.7842   -9.1385  -15.9457 O   0  0  0  0  0  0  0  0  0  0  0  0
   18.9874   -6.5139  -10.0723 N   0  0  0  0  0  0  0  0  0  0  0  0
   18.1775   -7.4865  -10.7299 C   0  0  0  0  0  0  0  0  0  0  0  0
   17.2528   -8.0224  -10.0810 O   0  0  0  0  0  0  0  0  0  0  0  0
   18.4590   -7.8348  -12.1704 C   0  0  0  0  0  0  0  0  0  0  0  0
   19.6581   -7.0535  -12.5703 C   0  0  0  0  0  0  0  0  0  0  0  0
   20.2029   -7.3109  -13.9289 C   0  0  2  0  0  0  0  0  0  0  0  0
   21.1342   -8.4001  -13.8275 N   0  0  0  0  0  0  0  0  0  0  0  0
   20.7221   -6.1396  -14.6440 C   0  0  0  0  0  0  0  0  0  0  0  0
   21.9148   -5.7446  -14.4057 O   0  0  0  0  0  0  0  0  0  0  0  0
   19.9736   -5.4136  -15.5913 N   0  0  0  0  0  0  0  0  0  0  0  0
   20.6118   -4.3138  -16.4100 C   0  0  1  0  0  0  0  0  0  0  0  0
   20.9397   -4.8825  -17.7158 C   0  0  0  0  0  0  0  0  0  0  0  0
   21.7335   -4.1785  -18.6899 C   0  0  0  0  0  0  0  0  0  0  0  0
   22.9545   -4.7743  -19.2736 C   0  0  0  0  0  0  0  0  0  0  0  0
   23.7450   -3.8507  -20.1789 C   0  0  0  0  0  0  0  0  0  0  0  0
   24.8037   -4.4745  -20.8978 N   0  0  0  0  0  0  0  0  0  0  0  0
   19.7390   -3.1710  -16.2387 C   0  0  0  0  0  0  0  0  0  0  0  0
   18.4821   -3.3459  -15.9777 O   0  0  0  0  0  0  0  0  0  0  0  0
   20.0882   -1.8477  -16.3120 O   0  0  0  0  0  0  0  0  0  0  0  0
  2  1  1  0
  3  5  1  0
  3  2  1  0
  3  4  1  1
  5  6  1  6
  7  8  2  0
  7  5  1  0
  9 10  1  0
 10 11  2  0
 10 12  1  0
 12 13  1  0
 14 13  1  1
 14 15  1  0
 15  7  1  0
 16 14  1  0
 17 16  2  0
 18 16  1  0
 19 18  1  0
 19 25  1  0
 20 21  1  0
 19 20  1  6
 22 21  1  0
 23 24  1  0
 23 22  1  0
 25 27  1  0
 26 25  2  0
M  END
$$$$
