IQK.pdb
     RDKit          3D

 27 26  0  0  1  0  0  0  0  0999 V2000
   15.4249  -13.8744  -16.3171 C   0  0  0  0  0  0  0  0  0  0  0  0
   16.3139  -13.0425  -15.4229 C   0  0  0  0  0  0  0  0  0  0  0  0
   15.6390  -11.7739  -14.9501 C   0  0  2  0  0  0  0  0  0  0  0  0
   15.3412  -10.8851  -16.1683 C   0  0  0  0  0  0  0  0  0  0  0  0
   16.5628  -11.0068  -14.0841 C   0  0  2  0  0  0  0  0  0  0  0  0
   16.8465  -11.7654  -12.8663 N   0  0  0  0  0  0  0  0  0  0  0  0
   16.2041   -9.6385  -13.7517 C   0  0  0  0  0  0  0  0  0  0  0  0
   15.9298   -8.8450  -14.6885 O   0  0  0  0  0  0  0  0  0  0  0  0
   15.4245   -7.7968   -8.0070 N   0  0  0  0  0  0  0  0  0  0  0  0
   14.9331   -6.5958   -8.5992 C   0  0  0  0  0  0  0  0  0  0  0  0
   14.4603   -5.7160   -7.8470 O   0  0  0  0  0  0  0  0  0  0  0  0
   14.9975   -6.4269  -10.0968 C   0  0  0  0  0  0  0  0  0  0  0  0
   15.5029   -7.7109  -10.6482 C   0  0  0  0  0  0  0  0  0  0  0  0
   15.6577   -7.7914  -12.1242 C   0  0  2  0  0  0  0  0  0  0  0  0
   16.1330   -9.1092  -12.4428 N   0  0  0  0  0  0  0  0  0  0  0  0
   16.4248   -6.7076  -12.7485 C   0  0  0  0  0  0  0  0  0  0  0  0
   17.7023   -6.7460  -12.7058 O   0  0  0  0  0  0  0  0  0  0  0  0
   15.8286   -5.6110  -13.4018 N   0  0  0  0  0  0  0  0  0  0  0  0
   16.6684   -4.6025  -14.1534 C   0  0  1  0  0  0  0  0  0  0  0  0
   16.4344   -4.8227  -15.5792 C   0  0  0  0  0  0  0  0  0  0  0  0
   17.0392   -4.0046  -16.5987 C   0  0  0  0  0  0  0  0  0  0  0  0
   16.9086   -4.3310  -18.0350 C   0  0  0  0  0  0  0  0  0  0  0  0
   17.8010   -3.5235  -18.9565 C   0  0  0  0  0  0  0  0  0  0  0  0
   17.8271   -3.9669  -20.3091 N   0  0  0  0  0  0  0  0  0  0  0  0
   16.4102   -3.3400  -13.4925 C   0  0  0  0  0  0  0  0  0  0  0  0
   17.2040   -2.3335  -13.6799 O   0  0  0  0  0  0  0  0  0  0  0  0
   15.3694   -3.0474  -12.6501 O   0  0  0  0  0  0  0  0  0  0  0  0
  2  1  1  0
  3  5  1  0
  3  2  1  0
  3  4  1  6
  5  6  1  1
  7  8  2  0
  7  5  1  0
  9 10  1  0
 10 11  2  0
 10 12  1  0
 12 13  1  0
 14 13  1  1
 14 15  1  0
 15  7  1  0
 16 14  1  0
 17 16  2  0
 18 16  1  0
 19 18  1  0
 19 25  1  0
 20 21  1  0
 19 20  1  6
 22 21  1  0
 23 24  1  0
 23 22  1  0
 25 27  1  0
 26 25  2  0
M  END
$$$$
