IQK.pdb
     RDKit          3D

 27 26  0  0  1  0  0  0  0  0999 V2000
   25.0127  -14.7680  -18.7310 C   0  0  0  0  0  0  0  0  0  0  0  0
   25.8617  -15.5378  -17.7468 C   0  0  0  0  0  0  0  0  0  0  0  0
   25.2224  -16.8417  -17.3231 C   0  0  2  0  0  0  0  0  0  0  0  0
   23.9734  -16.5333  -16.4820 C   0  0  0  0  0  0  0  0  0  0  0  0
   26.1479  -17.5920  -16.4444 C   0  0  2  0  0  0  0  0  0  0  0  0
   27.4012  -17.8534  -17.1514 N   0  0  0  0  0  0  0  0  0  0  0  0
   25.6574  -18.8110  -15.8238 C   0  0  0  0  0  0  0  0  0  0  0  0
   25.5142  -19.8345  -16.5411 O   0  0  0  0  0  0  0  0  0  0  0  0
   26.8803  -20.5623  -10.3534 N   0  0  0  0  0  0  0  0  0  0  0  0
   25.9609  -21.6265  -10.5912 C   0  0  0  0  0  0  0  0  0  0  0  0
   25.9245  -22.5706   -9.7721 O   0  0  0  0  0  0  0  0  0  0  0  0
   25.0724  -21.5810  -11.8093 C   0  0  0  0  0  0  0  0  0  0  0  0
   25.4568  -20.3642  -12.5708 C   0  0  0  0  0  0  0  0  0  0  0  0
   24.7775  -20.1475  -13.8748 C   0  0  2  0  0  0  0  0  0  0  0  0
   25.3213  -18.9525  -14.4579 N   0  0  0  0  0  0  0  0  0  0  0  0
   23.3111  -20.1912  -13.8490 C   0  0  0  0  0  0  0  0  0  0  0  0
   22.6672  -19.1810  -13.4014 O   0  0  0  0  0  0  0  0  0  0  0  0
   22.5594  -21.2963  -14.2943 N   0  0  0  0  0  0  0  0  0  0  0  0
   21.0804  -21.4022  -13.9965 C   0  0  1  0  0  0  0  0  0  0  0  0
   20.9443  -21.6210  -12.5578 C   0  0  0  0  0  0  0  0  0  0  0  0
   19.8992  -22.4358  -11.9937 C   0  0  0  0  0  0  0  0  0  0  0  0
   19.7520  -22.6081  -10.5325 C   0  0  0  0  0  0  0  0  0  0  0  0
   18.6897  -23.6039  -10.1113 C   0  0  0  0  0  0  0  0  0  0  0  0
   18.4753  -23.6965   -8.7069 N   0  0  0  0  0  0  0  0  0  0  0  0
   20.4822  -20.2796  -14.6885 C   0  0  0  0  0  0  0  0  0  0  0  0
   19.3102  -19.8507  -14.3407 O   0  0  0  0  0  0  0  0  0  0  0  0
   21.0274  -19.5607  -15.7203 O   0  0  0  0  0  0  0  0  0  0  0  0
  2  1  1  0
  3  5  1  0
  3  2  1  0
  3  4  1  1
  5  6  1  6
  7  8  2  0
  7  5  1  0
  9 10  1  0
 10 11  2  0
 10 12  1  0
 12 13  1  0
 14 13  1  1
 14 15  1  0
 15  7  1  0
 16 14  1  0
 17 16  2  0
 18 16  1  0
 19 18  1  0
 19 25  1  0
 20 21  1  0
 19 20  1  1
 22 21  1  0
 23 24  1  0
 23 22  1  0
 25 27  1  0
 26 25  2  0
M  END
$$$$
