IQK.pdb
     RDKit          3D

 27 26  0  0  1  0  0  0  0  0999 V2000
   13.5529  -10.5082  -16.1684 C   0  0  0  0  0  0  0  0  0  0  0  0
   15.0228  -10.2749  -15.9097 C   0  0  0  0  0  0  0  0  0  0  0  0
   15.2803   -9.6185  -14.5712 C   0  0  2  0  0  0  0  0  0  0  0  0
   14.6823   -8.2027  -14.5882 C   0  0  0  0  0  0  0  0  0  0  0  0
   16.7373   -9.4585  -14.3629 C   0  0  2  0  0  0  0  0  0  0  0  0
   17.3899  -10.7670  -14.3946 N   0  0  0  0  0  0  0  0  0  0  0  0
   17.1790   -8.7047  -13.2018 C   0  0  0  0  0  0  0  0  0  0  0  0
   17.0655   -9.2315  -12.0651 O   0  0  0  0  0  0  0  0  0  0  0  0
   21.6471   -4.7476  -12.8840 N   0  0  0  0  0  0  0  0  0  0  0  0
   21.7533   -6.1697  -12.8591 C   0  0  0  0  0  0  0  0  0  0  0  0
   22.8553   -6.6856  -13.1474 O   0  0  0  0  0  0  0  0  0  0  0  0
   20.5471   -6.9974  -12.4912 C   0  0  0  0  0  0  0  0  0  0  0  0
   19.4221   -6.0463  -12.2963 C   0  0  0  0  0  0  0  0  0  0  0  0
   18.0768   -6.6368  -12.0720 C   0  0  2  0  0  0  0  0  0  0  0  0
   17.7373   -7.4064  -13.2366 N   0  0  0  0  0  0  0  0  0  0  0  0
   17.0303   -5.7027  -11.6417 C   0  0  0  0  0  0  0  0  0  0  0  0
   16.3041   -5.1327  -12.5266 O   0  0  0  0  0  0  0  0  0  0  0  0
   16.7743   -5.3920  -10.2916 N   0  0  0  0  0  0  0  0  0  0  0  0
   15.6549   -4.4499   -9.9087 C   0  0  1  0  0  0  0  0  0  0  0  0
   14.8131   -5.1505   -8.9408 C   0  0  0  0  0  0  0  0  0  0  0  0
   13.6376   -4.5530   -8.3612 C   0  0  0  0  0  0  0  0  0  0  0  0
   12.8306   -5.2577   -7.3421 C   0  0  0  0  0  0  0  0  0  0  0  0
   11.6692   -4.4593   -6.7841 C   0  0  0  0  0  0  0  0  0  0  0  0
   10.8907   -5.1358   -5.8027 N   0  0  0  0  0  0  0  0  0  0  0  0
   16.3118   -3.1909   -9.6244 C   0  0  0  0  0  0  0  0  0  0  0  0
   17.5770   -3.1656   -9.3466 O   0  0  0  0  0  0  0  0  0  0  0  0
   15.7404   -1.9452   -9.6176 O   0  0  0  0  0  0  0  0  0  0  0  0
  2  1  1  0
  3  5  1  0
  3  2  1  0
  3  4  1  6
  5  6  1  1
  7  8  2  0
  7  5  1  0
  9 10  1  0
 10 11  2  0
 10 12  1  0
 12 13  1  0
 14 13  1  6
 14 15  1  0
 15  7  1  0
 16 14  1  0
 17 16  2  0
 18 16  1  0
 19 18  1  0
 19 25  1  0
 20 21  1  0
 19 20  1  1
 22 21  1  0
 23 24  1  0
 23 22  1  0
 25 27  1  0
 26 25  2  0
M  END
$$$$
