IQK.pdb
     RDKit          3D

 27 26  0  0  1  0  0  0  0  0999 V2000
   20.8073  -27.2289   -0.7070 C   0  0  0  0  0  0  0  0  0  0  0  0
   20.9468  -28.3088   -1.7541 C   0  0  0  0  0  0  0  0  0  0  0  0
   21.7742  -29.4806   -1.2738 C   0  0  2  0  0  0  0  0  0  0  0  0
   23.2074  -28.9982   -0.9989 C   0  0  0  0  0  0  0  0  0  0  0  0
   21.8700  -30.4993   -2.3438 C   0  0  2  0  0  0  0  0  0  0  0  0
   20.5313  -30.9570   -2.7146 N   0  0  0  0  0  0  0  0  0  0  0  0
   22.7467  -31.6368   -2.1226 C   0  0  0  0  0  0  0  0  0  0  0  0
   22.3873  -32.5217   -1.3038 O   0  0  0  0  0  0  0  0  0  0  0  0
   25.6050  -36.1853   -3.8949 N   0  0  0  0  0  0  0  0  0  0  0  0
   24.5001  -35.3698   -4.2805 C   0  0  0  0  0  0  0  0  0  0  0  0
   23.3529  -35.8643   -4.2263 O   0  0  0  0  0  0  0  0  0  0  0  0
   24.7471  -33.9535   -4.7370 C   0  0  0  0  0  0  0  0  0  0  0  0
   25.5872  -33.3106   -3.6934 C   0  0  0  0  0  0  0  0  0  0  0  0
   24.9027  -32.9060   -2.4378 C   0  0  2  0  0  0  0  0  0  0  0  0
   23.9919  -31.8426   -2.7594 N   0  0  0  0  0  0  0  0  0  0  0  0
   25.7766  -32.6247   -1.2932 C   0  0  0  0  0  0  0  0  0  0  0  0
   26.4959  -31.5675   -1.3058 O   0  0  0  0  0  0  0  0  0  0  0  0
   25.8716  -33.4626   -0.1646 N   0  0  0  0  0  0  0  0  0  0  0  0
   26.8116  -33.1319    0.9731 C   0  0  1  0  0  0  0  0  0  0  0  0
   25.9924  -32.9417    2.1685 C   0  0  0  0  0  0  0  0  0  0  0  0
   26.5616  -32.6517    3.4594 C   0  0  0  0  0  0  0  0  0  0  0  0
   25.7128  -32.4106    4.6459 C   0  0  0  0  0  0  0  0  0  0  0  0
   26.4716  -32.0989    5.9205 C   0  0  0  0  0  0  0  0  0  0  0  0
   25.6679  -32.0089    7.0921 N   0  0  0  0  0  0  0  0  0  0  0  0
   27.8650  -34.1214    0.8822 C   0  0  0  0  0  0  0  0  0  0  0  0
   27.6474  -35.2502    0.2847 O   0  0  0  0  0  0  0  0  0  0  0  0
   29.1426  -34.0133    1.3665 O   0  0  0  0  0  0  0  0  0  0  0  0
  2  1  1  0
  3  5  1  0
  3  2  1  0
  3  4  1  6
  5  6  1  1
  7  8  2  0
  7  5  1  0
  9 10  1  0
 10 11  2  0
 10 12  1  0
 12 13  1  0
 14 13  1  6
 14 15  1  0
 15  7  1  0
 16 14  1  0
 17 16  2  0
 18 16  1  0
 19 18  1  0
 19 25  1  0
 20 21  1  0
 19 20  1  1
 22 21  1  0
 23 24  1  0
 23 22  1  0
 25 27  1  0
 26 25  2  0
M  END
$$$$
