IQK.pdb
     RDKit          3D

 27 26  0  0  1  0  0  0  0  0999 V2000
   27.6022  -15.4624  -18.2410 C   0  0  0  0  0  0  0  0  0  0  0  0
   27.0238  -14.7130  -17.0637 C   0  0  0  0  0  0  0  0  0  0  0  0
   25.8249  -13.8718  -17.4424 C   0  0  2  0  0  0  0  0  0  0  0  0
   26.2633  -12.8135  -18.4672 C   0  0  0  0  0  0  0  0  0  0  0  0
   25.3355  -13.1331  -16.2563 C   0  0  2  0  0  0  0  0  0  0  0  0
   25.0352  -14.0721  -15.1759 N   0  0  0  0  0  0  0  0  0  0  0  0
   24.2298  -12.2084  -16.4403 C   0  0  0  0  0  0  0  0  0  0  0  0
   24.3782  -11.2456  -17.2362 O   0  0  0  0  0  0  0  0  0  0  0  0
   18.6228  -13.6388  -14.7394 N   0  0  0  0  0  0  0  0  0  0  0  0
   18.2624  -12.3542  -15.2437 C   0  0  0  0  0  0  0  0  0  0  0  0
   17.0534  -12.0351  -15.2393 O   0  0  0  0  0  0  0  0  0  0  0  0
   19.3380  -11.4321  -15.7615 C   0  0  0  0  0  0  0  0  0  0  0  0
   20.6310  -12.1403  -15.5758 C   0  0  0  0  0  0  0  0  0  0  0  0
   21.8480  -11.4586  -16.0887 C   0  0  2  0  0  0  0  0  0  0  0  0
   22.9764  -12.2969  -15.7924 N   0  0  0  0  0  0  0  0  0  0  0  0
   22.0163  -10.0579  -15.6855 C   0  0  0  0  0  0  0  0  0  0  0  0
   22.5534   -9.7972  -14.5546 O   0  0  0  0  0  0  0  0  0  0  0  0
   21.6154   -8.9672  -16.4820 N   0  0  0  0  0  0  0  0  0  0  0  0
   21.8977   -7.5448  -16.0527 C   0  0  1  0  0  0  0  0  0  0  0  0
   22.0780   -6.7545  -17.2688 C   0  0  0  0  0  0  0  0  0  0  0  0
   22.2899   -5.3301  -17.2425 C   0  0  0  0  0  0  0  0  0  0  0  0
   22.5133   -4.5553  -18.4819 C   0  0  0  0  0  0  0  0  0  0  0  0
   22.7938   -3.0807  -18.2708 C   0  0  0  0  0  0  0  0  0  0  0  0
   22.8337   -2.2997  -19.4604 N   0  0  0  0  0  0  0  0  0  0  0  0
   20.8870   -7.2511  -15.0580 C   0  0  0  0  0  0  0  0  0  0  0  0
   21.1325   -6.3993  -14.1132 O   0  0  0  0  0  0  0  0  0  0  0  0
   19.6249   -7.7802  -14.9829 O   0  0  0  0  0  0  0  0  0  0  0  0
  2  1  1  0
  3  5  1  0
  3  2  1  0
  3  4  1  6
  5  6  1  1
  7  8  2  0
  7  5  1  0
  9 10  1  0
 10 11  2  0
 10 12  1  0
 12 13  1  0
 14 13  1  1
 14 15  1  0
 15  7  1  0
 16 14  1  0
 17 16  2  0
 18 16  1  0
 19 18  1  0
 19 25  1  0
 20 21  1  0
 19 20  1  6
 22 21  1  0
 23 24  1  0
 23 22  1  0
 25 27  1  0
 26 25  2  0
M  END
$$$$
