IQK.pdb
     RDKit          3D

 27 26  0  0  1  0  0  0  0  0999 V2000
   23.2435  -23.1897  -19.9953 C   0  0  0  0  0  0  0  0  0  0  0  0
   21.9963  -22.4161  -19.6374 C   0  0  0  0  0  0  0  0  0  0  0  0
   21.5207  -22.6992  -18.2295 C   0  0  2  0  0  0  0  0  0  0  0  0
   21.0795  -24.1687  -18.1394 C   0  0  0  0  0  0  0  0  0  0  0  0
   20.3242  -21.8804  -17.9299 C   0  0  2  0  0  0  0  0  0  0  0  0
   20.5747  -20.4852  -18.2901 N   0  0  0  0  0  0  0  0  0  0  0  0
   19.7633  -21.9610  -16.5919 C   0  0  0  0  0  0  0  0  0  0  0  0
   19.5467  -23.0980  -16.0990 O   0  0  0  0  0  0  0  0  0  0  0  0
   20.0052  -21.1535  -11.4776 N   0  0  0  0  0  0  0  0  0  0  0  0
   21.1138  -20.5689  -12.1586 C   0  0  0  0  0  0  0  0  0  0  0  0
   22.2584  -20.7489  -11.6883 O   0  0  0  0  0  0  0  0  0  0  0  0
   20.8738  -19.7606  -13.4093 C   0  0  0  0  0  0  0  0  0  0  0  0
   19.4106  -19.7986  -13.6659 C   0  0  0  0  0  0  0  0  0  0  0  0
   18.8975  -20.9531  -14.4487 C   0  0  2  0  0  0  0  0  0  0  0  0
   19.4339  -20.8533  -15.7777 N   0  0  0  0  0  0  0  0  0  0  0  0
   17.4468  -21.1669  -14.3996 C   0  0  0  0  0  0  0  0  0  0  0  0
   16.7095  -20.6347  -15.2987 O   0  0  0  0  0  0  0  0  0  0  0  0
   16.8085  -21.9350  -13.4059 N   0  0  0  0  0  0  0  0  0  0  0  0
   15.3110  -22.1455  -13.4273 C   0  0  1  0  0  0  0  0  0  0  0  0
   15.0467  -23.4319  -12.7858 C   0  0  0  0  0  0  0  0  0  0  0  0
   13.7146  -23.9518  -12.6127 C   0  0  0  0  0  0  0  0  0  0  0  0
   13.4692  -25.2591  -11.9668 C   0  0  0  0  0  0  0  0  0  0  0  0
   12.0085  -25.6433  -11.8389 C   0  0  0  0  0  0  0  0  0  0  0  0
   11.7735  -26.9877  -11.4337 N   0  0  0  0  0  0  0  0  0  0  0  0
   14.7547  -20.8944  -12.9556 C   0  0  0  0  0  0  0  0  0  0  0  0
   13.6085  -20.4842  -13.3988 O   0  0  0  0  0  0  0  0  0  0  0  0
   15.3091  -20.0378  -12.0406 O   0  0  0  0  0  0  0  0  0  0  0  0
  2  1  1  0
  3  5  1  0
  3  2  1  0
  3  4  1  6
  5  6  1  1
  7  8  2  0
  7  5  1  0
  9 10  1  0
 10 11  2  0
 10 12  1  0
 12 13  1  0
 14 13  1  1
 14 15  1  0
 15  7  1  0
 16 14  1  0
 17 16  2  0
 18 16  1  0
 19 18  1  0
 19 25  1  0
 20 21  1  0
 19 20  1  1
 22 21  1  0
 23 24  1  0
 23 22  1  0
 25 27  1  0
 26 25  2  0
M  END
$$$$
