IQK.pdb
     RDKit          3D

 27 26  0  0  1  0  0  0  0  0999 V2000
   25.6918  -25.0211  -16.0361 C   0  0  0  0  0  0  0  0  0  0  0  0
   25.1202  -23.6340  -16.2126 C   0  0  0  0  0  0  0  0  0  0  0  0
   24.1788  -23.2466  -15.0935 C   0  0  2  0  0  0  0  0  0  0  0  0
   23.0154  -24.2502  -15.0522 C   0  0  0  0  0  0  0  0  0  0  0  0
   23.5826  -21.9212  -15.3756 C   0  0  2  0  0  0  0  0  0  0  0  0
   24.6419  -20.9307  -15.5654 N   0  0  0  0  0  0  0  0  0  0  0  0
   22.5817  -21.4157  -14.4514 C   0  0  0  0  0  0  0  0  0  0  0  0
   22.8057  -20.3287  -13.8590 O   0  0  0  0  0  0  0  0  0  0  0  0
   18.8635  -17.7650  -14.4731 N   0  0  0  0  0  0  0  0  0  0  0  0
   20.2518  -17.7425  -14.1471 C   0  0  0  0  0  0  0  0  0  0  0  0
   20.8248  -16.6333  -14.0766 O   0  0  0  0  0  0  0  0  0  0  0  0
   20.9773  -19.0420  -13.9012 C   0  0  0  0  0  0  0  0  0  0  0  0
   19.9818  -20.1280  -14.0953 C   0  0  0  0  0  0  0  0  0  0  0  0
   20.2727  -21.4288  -13.4378 C   0  0  2  0  0  0  0  0  0  0  0  0
   21.3532  -22.0486  -14.1536 N   0  0  0  0  0  0  0  0  0  0  0  0
   19.1182  -22.3059  -13.2129 C   0  0  0  0  0  0  0  0  0  0  0  0
   18.6985  -23.0390  -14.1730 O   0  0  0  0  0  0  0  0  0  0  0  0
   18.4344  -22.3894  -11.9840 N   0  0  0  0  0  0  0  0  0  0  0  0
   17.2372  -23.2988  -11.8200 C   0  0  1  0  0  0  0  0  0  0  0  0
   17.0598  -23.5246  -10.3869 C   0  0  0  0  0  0  0  0  0  0  0  0
   17.9848  -24.3044   -9.6054 C   0  0  0  0  0  0  0  0  0  0  0  0
   17.8034  -24.4957   -8.1504 C   0  0  0  0  0  0  0  0  0  0  0  0
   18.7679  -25.4743   -7.5104 C   0  0  0  0  0  0  0  0  0  0  0  0
   18.6173  -25.6343   -6.1038 N   0  0  0  0  0  0  0  0  0  0  0  0
   16.2136  -22.7190  -12.6646 C   0  0  0  0  0  0  0  0  0  0  0  0
   16.1968  -21.4420  -12.8827 O   0  0  0  0  0  0  0  0  0  0  0  0
   15.2032  -23.3826  -13.3103 O   0  0  0  0  0  0  0  0  0  0  0  0
  2  1  1  0
  3  5  1  0
  3  2  1  0
  3  4  1  6
  5  6  1  1
  7  8  2  0
  7  5  1  0
  9 10  1  0
 10 11  2  0
 10 12  1  0
 12 13  1  0
 14 13  1  6
 14 15  1  0
 15  7  1  0
 16 14  1  0
 17 16  2  0
 18 16  1  0
 19 18  1  0
 19 25  1  0
 20 21  1  0
 19 20  1  1
 22 21  1  0
 23 24  1  0
 23 22  1  0
 25 27  1  0
 26 25  2  0
M  END
$$$$
