IQK.pdb
     RDKit          3D

 27 26  0  0  1  0  0  0  0  0999 V2000
   21.3438  -15.5257  -20.7185 C   0  0  0  0  0  0  0  0  0  0  0  0
   22.2983  -16.1924  -19.7560 C   0  0  0  0  0  0  0  0  0  0  0  0
   21.6909  -17.4010  -19.0785 C   0  0  2  0  0  0  0  0  0  0  0  0
   20.5610  -16.9337  -18.1472 C   0  0  0  0  0  0  0  0  0  0  0  0
   22.7028  -18.0556  -18.2186 C   0  0  2  0  0  0  0  0  0  0  0  0
   23.8979  -18.3622  -19.0039 N   0  0  0  0  0  0  0  0  0  0  0  0
   22.2925  -19.2200  -17.4524 C   0  0  0  0  0  0  0  0  0  0  0  0
   22.0633  -20.2933  -18.0673 O   0  0  0  0  0  0  0  0  0  0  0  0
   25.3678  -19.8463  -14.0563 N   0  0  0  0  0  0  0  0  0  0  0  0
   25.2386  -21.1878  -14.5233 C   0  0  0  0  0  0  0  0  0  0  0  0
   26.2818  -21.8483  -14.7208 O   0  0  0  0  0  0  0  0  0  0  0  0
   23.8639  -21.7608  -14.7624 C   0  0  0  0  0  0  0  0  0  0  0  0
   22.8904  -20.7138  -14.3574 C   0  0  0  0  0  0  0  0  0  0  0  0
   21.7778  -20.4320  -15.3018 C   0  0  2  0  0  0  0  0  0  0  0  0
   22.1259  -19.2554  -16.0490 N   0  0  0  0  0  0  0  0  0  0  0  0
   20.4330  -20.3973  -14.7162 C   0  0  0  0  0  0  0  0  0  0  0  0
   20.1571  -19.5016  -13.8462 O   0  0  0  0  0  0  0  0  0  0  0  0
   19.4126  -21.3057  -15.0604 N   0  0  0  0  0  0  0  0  0  0  0  0
   18.3510  -21.6999  -14.0580 C   0  0  1  0  0  0  0  0  0  0  0  0
   18.7392  -22.9961  -13.5054 C   0  0  0  0  0  0  0  0  0  0  0  0
   18.0124  -23.6312  -12.4363 C   0  0  0  0  0  0  0  0  0  0  0  0
   18.3478  -24.9944  -11.9719 C   0  0  0  0  0  0  0  0  0  0  0  0
   17.5041  -25.5015  -10.8194 C   0  0  0  0  0  0  0  0  0  0  0  0
   17.8135  -26.8206  -10.3823 N   0  0  0  0  0  0  0  0  0  0  0  0
   18.1525  -20.5180  -13.2451 C   0  0  0  0  0  0  0  0  0  0  0  0
   19.1645  -19.9415  -12.6775 O   0  0  0  0  0  0  0  0  0  0  0  0
   16.9652  -19.8840  -12.9869 O   0  0  0  0  0  0  0  0  0  0  0  0
  2  1  1  0
  3  5  1  0
  3  2  1  0
  3  4  1  1
  5  6  1  6
  7  8  2  0
  7  5  1  0
  9 10  1  0
 10 11  2  0
 10 12  1  0
 12 13  1  0
 14 13  1  1
 14 15  1  0
 15  7  1  0
 16 14  1  0
 17 16  2  0
 18 16  1  0
 19 18  1  0
 19 25  1  0
 20 21  1  0
 19 20  1  1
 22 21  1  0
 23 24  1  0
 23 22  1  0
 25 27  1  0
 26 25  2  0
M  END
$$$$
