IQK.pdb
     RDKit          3D

 27 26  0  0  1  0  0  0  0  0999 V2000
   24.0344  -19.4452  -18.7153 C   0  0  0  0  0  0  0  0  0  0  0  0
   24.0171  -20.2454  -17.4342 C   0  0  0  0  0  0  0  0  0  0  0  0
   23.2368  -19.5624  -16.3328 C   0  0  2  0  0  0  0  0  0  0  0  0
   23.9047  -18.2158  -16.0114 C   0  0  0  0  0  0  0  0  0  0  0  0
   23.3026  -20.3718  -15.0950 C   0  0  2  0  0  0  0  0  0  0  0  0
   23.3537  -21.7937  -15.4339 N   0  0  0  0  0  0  0  0  0  0  0  0
   22.2967  -20.1346  -14.0736 C   0  0  0  0  0  0  0  0  0  0  0  0
   22.1784  -18.9729  -13.6055 O   0  0  0  0  0  0  0  0  0  0  0  0
   17.6866  -18.2059  -14.3720 N   0  0  0  0  0  0  0  0  0  0  0  0
   18.5873  -17.5778  -13.4616 C   0  0  0  0  0  0  0  0  0  0  0  0
   18.4587  -16.3515  -13.2540 O   0  0  0  0  0  0  0  0  0  0  0  0
   19.6547  -18.4025  -12.7866 C   0  0  0  0  0  0  0  0  0  0  0  0
   19.4799  -19.7984  -13.2652 C   0  0  0  0  0  0  0  0  0  0  0  0
   20.3435  -20.8341  -12.6402 C   0  0  2  0  0  0  0  0  0  0  0  0
   21.4204  -21.1123  -13.5494 N   0  0  0  0  0  0  0  0  0  0  0  0
   19.6531  -22.0287  -12.1412 C   0  0  0  0  0  0  0  0  0  0  0  0
   20.1622  -23.1800  -12.3663 O   0  0  0  0  0  0  0  0  0  0  0  0
   18.4448  -21.9820  -11.4184 N   0  0  0  0  0  0  0  0  0  0  0  0
   17.7971  -23.2476  -10.9027 C   0  0  1  0  0  0  0  0  0  0  0  0
   18.3897  -23.5350   -9.5978 C   0  0  0  0  0  0  0  0  0  0  0  0
   18.0038  -24.6747   -8.8061 C   0  0  0  0  0  0  0  0  0  0  0  0
   18.5101  -24.8721   -7.4310 C   0  0  0  0  0  0  0  0  0  0  0  0
   17.9485  -26.0825   -6.7119 C   0  0  0  0  0  0  0  0  0  0  0  0
   18.4832  -26.3119   -5.4126 N   0  0  0  0  0  0  0  0  0  0  0  0
   16.3772  -23.0444  -11.1019 C   0  0  0  0  0  0  0  0  0  0  0  0
   15.8938  -21.8437  -11.1590 O   0  0  0  0  0  0  0  0  0  0  0  0
   15.4188  -24.0119  -11.2559 O   0  0  0  0  0  0  0  0  0  0  0  0
  2  1  1  0
  3  5  1  0
  3  2  1  0
  3  4  1  1
  5  6  1  6
  7  8  2  0
  7  5  1  0
  9 10  1  0
 10 11  2  0
 10 12  1  0
 12 13  1  0
 14 13  1  6
 14 15  1  0
 15  7  1  0
 16 14  1  0
 17 16  2  0
 18 16  1  0
 19 18  1  0
 19 25  1  0
 20 21  1  0
 19 20  1  1
 22 21  1  0
 23 24  1  0
 23 22  1  0
 25 27  1  0
 26 25  2  0
M  END
$$$$
