IQK.pdb
     RDKit          3D

 27 26  0  0  1  0  0  0  0  0999 V2000
   17.9685  -14.8502  -16.9541 C   0  0  0  0  0  0  0  0  0  0  0  0
   18.8117  -13.7079  -17.4701 C   0  0  0  0  0  0  0  0  0  0  0  0
   19.4743  -12.9258  -16.3574 C   0  0  2  0  0  0  0  0  0  0  0  0
   18.3953  -12.1548  -15.5805 C   0  0  0  0  0  0  0  0  0  0  0  0
   20.3866  -11.9112  -16.9318 C   0  0  2  0  0  0  0  0  0  0  0  0
   21.3033  -12.5467  -17.8778 N   0  0  0  0  0  0  0  0  0  0  0  0
   21.1235  -11.0614  -16.0117 C   0  0  0  0  0  0  0  0  0  0  0  0
   20.4865  -10.4585  -15.1099 O   0  0  0  0  0  0  0  0  0  0  0  0
   27.1955  -10.8711  -14.9038 N   0  0  0  0  0  0  0  0  0  0  0  0
   26.8449  -10.3749  -16.1942 C   0  0  0  0  0  0  0  0  0  0  0  0
   27.7498  -10.2605  -17.0496 O   0  0  0  0  0  0  0  0  0  0  0  0
   25.4109  -10.0069  -16.4831 C   0  0  0  0  0  0  0  0  0  0  0  0
   24.6513  -10.2377  -15.2270 C   0  0  0  0  0  0  0  0  0  0  0  0
   23.2101   -9.8748  -15.2392 C   0  0  2  0  0  0  0  0  0  0  0  0
   22.5207  -10.8487  -16.0394 N   0  0  0  0  0  0  0  0  0  0  0  0
   22.9023   -8.4831  -15.5872 C   0  0  0  0  0  0  0  0  0  0  0  0
   22.7726   -8.1647  -16.8189 O   0  0  0  0  0  0  0  0  0  0  0  0
   22.7388   -7.4617  -14.6307 N   0  0  0  0  0  0  0  0  0  0  0  0
   22.3152   -6.0697  -15.0434 C   0  0  1  0  0  0  0  0  0  0  0  0
   21.0747   -6.2038  -15.8046 C   0  0  0  0  0  0  0  0  0  0  0  0
   20.2331   -5.0779  -16.1185 C   0  0  0  0  0  0  0  0  0  0  0  0
   18.9208   -5.2493  -16.7778 C   0  0  0  0  0  0  0  0  0  0  0  0
   18.1532   -3.9640  -17.0153 C   0  0  0  0  0  0  0  0  0  0  0  0
   16.8476   -4.1344  -17.5567 N   0  0  0  0  0  0  0  0  0  0  0  0
   22.4239   -5.2768  -13.8365 C   0  0  0  0  0  0  0  0  0  0  0  0
   22.3031   -3.9880  -13.8920 O   0  0  0  0  0  0  0  0  0  0  0  0
   22.6426   -5.7366  -12.5641 O   0  0  0  0  0  0  0  0  0  0  0  0
  2  1  1  0
  3  5  1  0
  3  2  1  0
  3  4  1  6
  5  6  1  1
  7  8  2  0
  7  5  1  0
  9 10  1  0
 10 11  2  0
 10 12  1  0
 12 13  1  0
 14 13  1  6
 14 15  1  0
 15  7  1  0
 16 14  1  0
 17 16  2  0
 18 16  1  0
 19 18  1  0
 19 25  1  0
 20 21  1  0
 19 20  1  1
 22 21  1  0
 23 24  1  0
 23 22  1  0
 25 27  1  0
 26 25  2  0
M  END
$$$$
