IQK.pdb
     RDKit          3D

 27 26  0  0  1  0  0  0  0  0999 V2000
   28.7826  -20.4590  -12.2561 C   0  0  0  0  0  0  0  0  0  0  0  0
   27.6246  -21.2848  -12.7649 C   0  0  0  0  0  0  0  0  0  0  0  0
   26.2825  -20.7119  -12.3659 C   0  0  2  0  0  0  0  0  0  0  0  0
   26.1092  -20.8628  -10.8461 C   0  0  0  0  0  0  0  0  0  0  0  0
   25.1953  -21.4960  -12.9943 C   0  0  2  0  0  0  0  0  0  0  0  0
   25.4104  -21.5737  -14.4389 N   0  0  0  0  0  0  0  0  0  0  0  0
   23.8246  -21.1059  -12.7106 C   0  0  0  0  0  0  0  0  0  0  0  0
   23.5288  -19.8837  -12.7446 O   0  0  0  0  0  0  0  0  0  0  0  0
   20.2887  -20.8383  -16.0465 N   0  0  0  0  0  0  0  0  0  0  0  0
   19.2859  -20.4683  -15.1021 C   0  0  0  0  0  0  0  0  0  0  0  0
   18.1318  -20.2378  -15.5247 O   0  0  0  0  0  0  0  0  0  0  0  0
   19.6448  -20.3667  -13.6405 C   0  0  0  0  0  0  0  0  0  0  0  0
   21.0504  -20.8319  -13.5144 C   0  0  0  0  0  0  0  0  0  0  0  0
   21.3898  -21.6169  -12.2989 C   0  0  2  0  0  0  0  0  0  0  0  0
   22.7723  -21.9955  -12.3948 N   0  0  0  0  0  0  0  0  0  0  0  0
   20.4832  -22.7247  -11.9771 C   0  0  0  0  0  0  0  0  0  0  0  0
   20.4590  -23.7497  -12.7414 O   0  0  0  0  0  0  0  0  0  0  0  0
   19.6251  -22.7261  -10.8598 N   0  0  0  0  0  0  0  0  0  0  0  0
   18.8762  -23.9762  -10.4554 C   0  0  1  0  0  0  0  0  0  0  0  0
   18.6999  -23.9238   -9.0055 C   0  0  0  0  0  0  0  0  0  0  0  0
   18.0265  -24.9626   -8.2692 C   0  0  0  0  0  0  0  0  0  0  0  0
   17.8834  -24.9041   -6.7986 C   0  0  0  0  0  0  0  0  0  0  0  0
   17.1645  -26.0864   -6.1800 C   0  0  0  0  0  0  0  0  0  0  0  0
   17.1146  -26.0827   -4.7572 N   0  0  0  0  0  0  0  0  0  0  0  0
   17.7706  -24.0628  -11.3867 C   0  0  0  0  0  0  0  0  0  0  0  0
   17.2756  -25.2176  -11.7031 O   0  0  0  0  0  0  0  0  0  0  0  0
   17.1333  -23.0218  -12.0099 O   0  0  0  0  0  0  0  0  0  0  0  0
  2  1  1  0
  3  5  1  0
  3  2  1  0
  3  4  1  1
  5  6  1  6
  7  8  2  0
  7  5  1  0
  9 10  1  0
 10 11  2  0
 10 12  1  0
 12 13  1  0
 14 13  1  6
 14 15  1  0
 15  7  1  0
 16 14  1  0
 17 16  2  0
 18 16  1  0
 19 18  1  0
 19 25  1  0
 20 21  1  0
 19 20  1  1
 22 21  1  0
 23 24  1  0
 23 22  1  0
 25 27  1  0
 26 25  2  0
M  END
$$$$
