IQK.pdb
     RDKit          3D

 27 26  0  0  1  0  0  0  0  0999 V2000
   17.6539  -14.0218  -15.5392 C   0  0  0  0  0  0  0  0  0  0  0  0
   18.4772  -12.8816  -16.0906 C   0  0  0  0  0  0  0  0  0  0  0  0
   18.0536  -12.4807  -17.4864 C   0  0  2  0  0  0  0  0  0  0  0  0
   18.4031  -13.6187  -18.4586 C   0  0  0  0  0  0  0  0  0  0  0  0
   18.8282  -11.2980  -17.9256 C   0  0  2  0  0  0  0  0  0  0  0  0
   20.2584  -11.6030  -17.8975 N   0  0  0  0  0  0  0  0  0  0  0  0
   18.5712  -10.0320  -17.2602 C   0  0  0  0  0  0  0  0  0  0  0  0
   17.3988   -9.5759  -17.2691 O   0  0  0  0  0  0  0  0  0  0  0  0
   21.4945   -7.6053  -12.5755 N   0  0  0  0  0  0  0  0  0  0  0  0
   20.2041   -8.1800  -12.3782 C   0  0  0  0  0  0  0  0  0  0  0  0
   19.9033   -8.5787  -11.2319 O   0  0  0  0  0  0  0  0  0  0  0  0
   19.2541   -8.2884  -13.5449 C   0  0  0  0  0  0  0  0  0  0  0  0
   20.0068   -7.8493  -14.7485 C   0  0  0  0  0  0  0  0  0  0  0  0
   19.2990   -7.9416  -16.0521 C   0  0  2  0  0  0  0  0  0  0  0  0
   19.5406   -9.2520  -16.5890 N   0  0  0  0  0  0  0  0  0  0  0  0
   19.5507   -6.8480  -16.9972 C   0  0  0  0  0  0  0  0  0  0  0  0
   20.5706   -6.9135  -17.7659 O   0  0  0  0  0  0  0  0  0  0  0  0
   18.7235   -5.7132  -17.1097 N   0  0  0  0  0  0  0  0  0  0  0  0
   19.0429   -4.6121  -18.0960 C   0  0  1  0  0  0  0  0  0  0  0  0
   17.7861   -3.9343  -18.4083 C   0  0  0  0  0  0  0  0  0  0  0  0
   17.7159   -2.8053  -19.2999 C   0  0  0  0  0  0  0  0  0  0  0  0
   16.4472   -2.0859  -19.5433 C   0  0  0  0  0  0  0  0  0  0  0  0
   16.5346   -0.9640  -20.5588 C   0  0  0  0  0  0  0  0  0  0  0  0
   15.3192   -0.2560  -20.7789 N   0  0  0  0  0  0  0  0  0  0  0  0
   20.1919   -3.9334  -17.5336 C   0  0  0  0  0  0  0  0  0  0  0  0
   21.1099   -3.4545  -18.3124 O   0  0  0  0  0  0  0  0  0  0  0  0
   20.4498   -3.7092  -16.2063 O   0  0  0  0  0  0  0  0  0  0  0  0
  2  1  1  0
  3  5  1  0
  3  2  1  0
  3  4  1  6
  5  6  1  1
  7  8  2  0
  7  5  1  0
  9 10  1  0
 10 11  2  0
 10 12  1  0
 12 13  1  0
 14 13  1  1
 14 15  1  0
 15  7  1  0
 16 14  1  0
 17 16  2  0
 18 16  1  0
 19 18  1  0
 19 25  1  0
 20 21  1  0
 19 20  1  1
 22 21  1  0
 23 24  1  0
 23 22  1  0
 25 27  1  0
 26 25  2  0
M  END
$$$$
