IQK.pdb
     RDKit          3D

 27 26  0  0  1  0  0  0  0  0999 V2000
   17.4661  -14.6967  -17.3348 C   0  0  0  0  0  0  0  0  0  0  0  0
   18.4508  -13.5524  -17.3887 C   0  0  0  0  0  0  0  0  0  0  0  0
   18.0805  -12.4224  -16.4535 C   0  0  2  0  0  0  0  0  0  0  0  0
   16.8052  -11.7418  -16.9761 C   0  0  0  0  0  0  0  0  0  0  0  0
   19.1436  -11.3921  -16.4658 C   0  0  2  0  0  0  0  0  0  0  0  0
   20.4371  -12.0102  -16.1760 N   0  0  0  0  0  0  0  0  0  0  0  0
   18.9549  -10.2111  -15.6405 C   0  0  0  0  0  0  0  0  0  0  0  0
   18.0253  -10.2130  -14.7929 O   0  0  0  0  0  0  0  0  0  0  0  0
   23.3008   -6.2779  -14.4461 N   0  0  0  0  0  0  0  0  0  0  0  0
   22.2773   -5.4760  -13.8598 C   0  0  0  0  0  0  0  0  0  0  0  0
   22.6093   -4.4050  -13.3065 O   0  0  0  0  0  0  0  0  0  0  0  0
   20.8434   -5.9400  -13.9237 C   0  0  0  0  0  0  0  0  0  0  0  0
   20.8410   -7.2086  -14.6974 C   0  0  0  0  0  0  0  0  0  0  0  0
   19.5251   -7.8708  -14.8944 C   0  0  2  0  0  0  0  0  0  0  0  0
   19.7395   -9.0370  -15.7056 N   0  0  0  0  0  0  0  0  0  0  0  0
   18.4354   -7.0057  -15.3600 C   0  0  0  0  0  0  0  0  0  0  0  0
   18.3221   -6.7682  -16.6114 O   0  0  0  0  0  0  0  0  0  0  0  0
   17.4926   -6.4123  -14.4975 N   0  0  0  0  0  0  0  0  0  0  0  0
   16.4310   -5.4765  -15.0307 C   0  0  1  0  0  0  0  0  0  0  0  0
   15.1481   -5.9303  -14.4974 C   0  0  0  0  0  0  0  0  0  0  0  0
   13.9343   -5.1696  -14.6476 C   0  0  0  0  0  0  0  0  0  0  0  0
   12.6345   -5.6766  -14.1576 C   0  0  0  0  0  0  0  0  0  0  0  0
   11.4581   -4.7508  -14.3950 C   0  0  0  0  0  0  0  0  0  0  0  0
   10.2574   -5.1201  -13.7252 N   0  0  0  0  0  0  0  0  0  0  0  0
   16.9602   -4.1480  -14.8020 C   0  0  0  0  0  0  0  0  0  0  0  0
   16.5362   -3.1484  -15.5089 O   0  0  0  0  0  0  0  0  0  0  0  0
   17.9014   -3.7830  -13.8750 O   0  0  0  0  0  0  0  0  0  0  0  0
  2  1  1  0
  3  5  1  0
  3  2  1  0
  3  4  1  6
  5  6  1  1
  7  8  2  0
  7  5  1  0
  9 10  1  0
 10 11  2  0
 10 12  1  0
 12 13  1  0
 14 13  1  6
 14 15  1  0
 15  7  1  0
 16 14  1  0
 17 16  2  0
 18 16  1  0
 19 18  1  0
 19 25  1  0
 20 21  1  0
 19 20  1  1
 22 21  1  0
 23 24  1  0
 23 22  1  0
 25 27  1  0
 26 25  2  0
M  END
$$$$
