LNI.pdb
     RDKit          3D

 25 24  0  0  1  0  0  0  0  0999 V2000
    7.9484  -13.1548   18.2139 C   0  0  0  0  0  0  0  0  0  0  0  0
    7.4293  -13.5552   19.5777 C   0  0  2  0  0  0  0  0  0  0  0  0
    7.3868  -12.2882   20.4124 C   0  0  0  0  0  0  0  0  0  0  0  0
    8.3094  -14.5645   20.2540 C   0  0  0  0  0  0  0  0  0  0  0  0
    7.5524  -15.5781   21.0428 C   0  0  2  0  0  0  0  0  0  0  0  0
    6.6242  -14.9888   21.9742 N   0  0  0  0  0  0  0  0  0  0  0  0
    8.4995  -16.4704   21.8153 C   0  0  0  0  0  0  0  0  0  0  0  0
    8.8266  -17.5850   21.3338 O   0  0  0  0  0  0  0  0  0  0  0  0
   12.1918  -18.8409   24.6189 N   0  0  0  0  0  0  0  0  0  0  0  0
   12.3516  -17.6675   23.8511 C   0  0  0  0  0  0  0  0  0  0  0  0
   13.4717  -17.0514   23.9593 O   0  0  0  0  0  0  0  0  0  0  0  0
   11.2801  -17.1470   22.9470 C   0  0  0  0  0  0  0  0  0  0  0  0
   10.1410  -16.5814   23.7644 C   0  0  2  0  0  0  0  0  0  0  0  0
    9.0220  -16.0816   23.0593 N   0  0  0  0  0  0  0  0  0  0  0  0
   10.5389  -15.8236   24.9513 C   0  0  0  0  0  0  0  0  0  0  0  0
   11.5178  -16.2703   25.6107 O   0  0  0  0  0  0  0  0  0  0  0  0
    6.5188  -12.2395   26.1298 C   0  0  0  0  0  0  0  0  0  0  0  0
    7.8821  -12.8393   25.9030 C   0  0  0  0  0  0  0  0  0  0  0  0
    8.3590  -13.6759   27.0607 C   0  0  2  0  0  0  0  0  0  0  0  0
    8.3494  -12.8763   28.3569 C   0  0  0  0  0  0  0  0  0  0  0  0
    9.6580  -14.3630   26.8243 C   0  0  2  0  0  0  0  0  0  0  0  0
    9.9448  -14.6384   25.4440 N   0  0  0  0  0  0  0  0  0  0  0  0
    9.9146  -15.4840   27.7345 C   0  0  0  0  0  0  0  0  0  0  0  0
    9.3614  -16.7460   27.6049 O   0  0  0  0  0  0  0  0  0  0  0  0
   10.6931  -15.3113   28.7173 O   0  0  0  0  0  0  0  0  0  0  0  0
  2  1  1  6
  3  2  1  0
  4  2  1  0
  5  4  1  0
  5  6  1  1
  7  5  1  0
  7  8  2  0
 10 12  1  0
 10  9  1  0
 11 10  2  0
 13 12  1  6
 13 14  1  0
 14  7  1  0
 15 13  1  0
 16 15  2  0
 18 19  1  0
 18 17  1  0
 19 21  1  0
 19 20  1  1
 21 22  1  6
 21 23  1  0
 22 15  1  0
 23 24  1  0
 25 23  2  0
M  END
$$$$
