LNI.pdb
     RDKit          3D

 25 24  0  0  1  0  0  0  0  0999 V2000
    9.1095  -12.7436   18.0218 C   0  0  0  0  0  0  0  0  0  0  0  0
    7.8031  -13.5071   18.0225 C   0  0  2  0  0  0  0  0  0  0  0  0
    6.7427  -12.5485   17.5122 C   0  0  0  0  0  0  0  0  0  0  0  0
    7.4191  -13.9876   19.3908 C   0  0  0  0  0  0  0  0  0  0  0  0
    8.5054  -14.7389   20.0825 C   0  0  2  0  0  0  0  0  0  0  0  0
    8.9387  -15.9029   19.3520 N   0  0  0  0  0  0  0  0  0  0  0  0
    8.0572  -15.1804   21.4587 C   0  0  0  0  0  0  0  0  0  0  0  0
    7.4634  -14.3616   22.2056 O   0  0  0  0  0  0  0  0  0  0  0  0
    6.3073  -19.5000   25.0298 N   0  0  0  0  0  0  0  0  0  0  0  0
    7.5706  -19.0563   24.5836 C   0  0  0  0  0  0  0  0  0  0  0  0
    8.5257  -19.0687   25.4401 O   0  0  0  0  0  0  0  0  0  0  0  0
    7.8093  -18.5889   23.1832 C   0  0  0  0  0  0  0  0  0  0  0  0
    7.9374  -17.0828   23.1536 C   0  0  2  0  0  0  0  0  0  0  0  0
    8.2899  -16.4856   21.9215 N   0  0  0  0  0  0  0  0  0  0  0  0
    8.5320  -16.4820   24.3481 C   0  0  0  0  0  0  0  0  0  0  0  0
    9.7906  -16.3940   24.3752 O   0  0  0  0  0  0  0  0  0  0  0  0
    7.3684  -11.2187   26.7946 C   0  0  0  0  0  0  0  0  0  0  0  0
    8.1569  -12.4932   26.9482 C   0  0  0  0  0  0  0  0  0  0  0  0
    7.5365  -13.6616   26.2288 C   0  0  2  0  0  0  0  0  0  0  0  0
    6.0759  -13.8368   26.6232 C   0  0  0  0  0  0  0  0  0  0  0  0
    8.3119  -14.9275   26.3362 C   0  0  2  0  0  0  0  0  0  0  0  0
    7.8483  -15.9855   25.4823 N   0  0  0  0  0  0  0  0  0  0  0  0
    8.5956  -15.3386   27.7151 C   0  0  0  0  0  0  0  0  0  0  0  0
    9.3648  -14.6154   28.6099 O   0  0  0  0  0  0  0  0  0  0  0  0
    8.1156  -16.4291   28.1420 O   0  0  0  0  0  0  0  0  0  0  0  0
  2  1  1  1
  3  2  1  0
  4  2  1  0
  5  4  1  0
  5  6  1  6
  7  5  1  0
  7  8  2  0
 10 12  1  0
 10  9  1  0
 11 10  2  0
 13 12  1  6
 13 14  1  0
 14  7  1  0
 15 13  1  0
 16 15  2  0
 18 19  1  0
 18 17  1  0
 19 21  1  0
 19 20  1  1
 21 22  1  1
 21 23  1  0
 22 15  1  0
 23 24  1  0
 25 23  2  0
M  END
$$$$
