LNI.pdb
     RDKit          3D

 25 24  0  0  1  0  0  0  0  0999 V2000
    9.0011  -12.9410   19.2496 C   0  0  0  0  0  0  0  0  0  0  0  0
    7.8552  -13.3902   20.1298 C   0  0  2  0  0  0  0  0  0  0  0  0
    7.2942  -12.1389   20.7802 C   0  0  0  0  0  0  0  0  0  0  0  0
    8.2923  -14.3497   21.1971 C   0  0  0  0  0  0  0  0  0  0  0  0
    8.8918  -15.6039   20.6582 C   0  0  2  0  0  0  0  0  0  0  0  0
    7.9647  -16.3801   19.8744 N   0  0  0  0  0  0  0  0  0  0  0  0
    9.4098  -16.4745   21.7823 C   0  0  0  0  0  0  0  0  0  0  0  0
    8.5967  -17.1485   22.4645 O   0  0  0  0  0  0  0  0  0  0  0  0
   13.2268  -20.0302   24.2461 N   0  0  0  0  0  0  0  0  0  0  0  0
   13.2505  -18.6374   24.0193 C   0  0  0  0  0  0  0  0  0  0  0  0
   13.7936  -17.9109   24.9267 O   0  0  0  0  0  0  0  0  0  0  0  0
   12.6761  -18.0142   22.7872 C   0  0  0  0  0  0  0  0  0  0  0  0
   11.4393  -17.2180   23.1367 C   0  0  2  0  0  0  0  0  0  0  0  0
   10.7800  -16.5468   22.0813 N   0  0  0  0  0  0  0  0  0  0  0  0
   11.4955  -16.5031   24.4123 C   0  0  0  0  0  0  0  0  0  0  0  0
   12.3289  -15.5597   24.5004 O   0  0  0  0  0  0  0  0  0  0  0  0
    9.4090  -12.6701   28.0720 C   0  0  0  0  0  0  0  0  0  0  0  0
   10.1875  -13.9598   28.0902 C   0  0  0  0  0  0  0  0  0  0  0  0
    9.9656  -14.8007   26.8609 C   0  0  2  0  0  0  0  0  0  0  0  0
    8.4849  -15.0913   26.6541 C   0  0  0  0  0  0  0  0  0  0  0  0
   10.8016  -16.0307   26.8024 C   0  0  2  0  0  0  0  0  0  0  0  0
   10.7139  -16.7535   25.5641 N   0  0  0  0  0  0  0  0  0  0  0  0
   10.7161  -16.8684   28.0032 C   0  0  0  0  0  0  0  0  0  0  0  0
   10.3169  -18.1935   28.0120 O   0  0  0  0  0  0  0  0  0  0  0  0
   11.0225  -16.3677   29.1244 O   0  0  0  0  0  0  0  0  0  0  0  0
  2  1  1  6
  3  2  1  0
  4  2  1  0
  5  4  1  0
  5  6  1  1
  7  5  1  0
  7  8  2  0
 10 12  1  0
 10  9  1  0
 11 10  2  0
 13 12  1  6
 13 14  1  0
 14  7  1  0
 15 13  1  0
 16 15  2  0
 18 19  1  0
 18 17  1  0
 19 21  1  0
 19 20  1  1
 21 22  1  6
 21 23  1  0
 22 15  1  0
 23 24  1  0
 25 23  2  0
M  END
$$$$
