LNI.pdb
     RDKit          3D

 25 24  0  0  1  0  0  0  0  0999 V2000
    9.2039  -13.3102   18.9514 C   0  0  0  0  0  0  0  0  0  0  0  0
    7.7571  -13.3618   19.3918 C   0  0  2  0  0  0  0  0  0  0  0  0
    7.3135  -11.9234   19.5861 C   0  0  0  0  0  0  0  0  0  0  0  0
    7.5739  -14.1144   20.6765 C   0  0  0  0  0  0  0  0  0  0  0  0
    8.0246  -15.5336   20.6023 C   0  0  2  0  0  0  0  0  0  0  0  0
    7.1714  -16.3535   19.7800 N   0  0  0  0  0  0  0  0  0  0  0  0
    8.0865  -16.1477   21.9840 C   0  0  0  0  0  0  0  0  0  0  0  0
    7.0481  -16.1771   22.6923 O   0  0  0  0  0  0  0  0  0  0  0  0
   10.1921  -20.0233   21.7762 N   0  0  0  0  0  0  0  0  0  0  0  0
    9.6138  -19.5411   22.9700 C   0  0  0  0  0  0  0  0  0  0  0  0
    8.4622  -20.0094   23.2871 O   0  0  0  0  0  0  0  0  0  0  0  0
   10.2919  -18.5319   23.8406 C   0  0  0  0  0  0  0  0  0  0  0  0
    9.5556  -17.2130   23.7764 C   0  0  2  0  0  0  0  0  0  0  0  0
    9.2790  -16.6860   22.4940 N   0  0  0  0  0  0  0  0  0  0  0  0
    9.9295  -16.2375   24.8011 C   0  0  0  0  0  0  0  0  0  0  0  0
   11.0721  -15.7119   24.6974 O   0  0  0  0  0  0  0  0  0  0  0  0
    6.9054  -12.2454   26.3677 C   0  0  0  0  0  0  0  0  0  0  0  0
    8.0437  -13.1748   26.0353 C   0  0  0  0  0  0  0  0  0  0  0  0
    8.6548  -13.8184   27.2518 C   0  0  2  0  0  0  0  0  0  0  0  0
    9.2735  -12.7751   28.1729 C   0  0  0  0  0  0  0  0  0  0  0  0
    9.5891  -14.9364   26.9479 C   0  0  2  0  0  0  0  0  0  0  0  0
    9.1472  -15.8154   25.9012 N   0  0  0  0  0  0  0  0  0  0  0  0
   10.1096  -15.6194   28.1367 C   0  0  0  0  0  0  0  0  0  0  0  0
   11.1535  -15.1549   28.9177 O   0  0  0  0  0  0  0  0  0  0  0  0
    9.5851  -16.7140   28.4952 O   0  0  0  0  0  0  0  0  0  0  0  0
  2  1  1  1
  3  2  1  0
  4  2  1  0
  5  4  1  0
  5  6  1  6
  7  5  1  0
  7  8  2  0
 10 12  1  0
 10  9  1  0
 11 10  2  0
 13 12  1  6
 13 14  1  0
 14  7  1  0
 15 13  1  0
 16 15  2  0
 18 19  1  0
 18 17  1  0
 19 21  1  0
 19 20  1  6
 21 22  1  6
 21 23  1  0
 22 15  1  0
 23 24  1  0
 25 23  2  0
M  END
$$$$
