LNI.pdb
     RDKit          3D

 25 24  0  0  1  0  0  0  0  0999 V2000
    9.4859  -13.3637   19.3010 C   0  0  0  0  0  0  0  0  0  0  0  0
    8.0140  -13.5326   18.9930 C   0  0  2  0  0  0  0  0  0  0  0  0
    7.4242  -12.1358   18.9251 C   0  0  0  0  0  0  0  0  0  0  0  0
    7.2939  -14.3236   20.0449 C   0  0  0  0  0  0  0  0  0  0  0  0
    7.7725  -15.7309   20.1606 C   0  0  2  0  0  0  0  0  0  0  0  0
    7.3530  -16.5610   19.0601 N   0  0  0  0  0  0  0  0  0  0  0  0
    7.2788  -16.3593   21.4457 C   0  0  0  0  0  0  0  0  0  0  0  0
    6.0775  -16.7200   21.5333 O   0  0  0  0  0  0  0  0  0  0  0  0
    7.8990  -19.5919   26.3299 N   0  0  0  0  0  0  0  0  0  0  0  0
    7.1945  -18.6908   25.5030 C   0  0  0  0  0  0  0  0  0  0  0  0
    6.1951  -18.0815   26.0282 O   0  0  0  0  0  0  0  0  0  0  0  0
    7.5760  -18.4413   24.0787 C   0  0  0  0  0  0  0  0  0  0  0  0
    7.8312  -16.9672   23.8605 C   0  0  2  0  0  0  0  0  0  0  0  0
    8.1329  -16.5488   22.5441 N   0  0  0  0  0  0  0  0  0  0  0  0
    8.5706  -16.2954   24.9297 C   0  0  0  0  0  0  0  0  0  0  0  0
    9.8200  -16.4711   24.9558 O   0  0  0  0  0  0  0  0  0  0  0  0
    6.5367  -11.6129   26.8965 C   0  0  0  0  0  0  0  0  0  0  0  0
    7.4311  -12.6864   26.3331 C   0  0  0  0  0  0  0  0  0  0  0  0
    8.1397  -13.4827   27.3967 C   0  0  2  0  0  0  0  0  0  0  0  0
    9.0779  -12.6005   28.2098 C   0  0  0  0  0  0  0  0  0  0  0  0
    8.8074  -14.7147   26.8951 C   0  0  2  0  0  0  0  0  0  0  0  0
    8.0370  -15.4653   25.9429 N   0  0  0  0  0  0  0  0  0  0  0  0
    9.4327  -15.5247   27.9457 C   0  0  0  0  0  0  0  0  0  0  0  0
   10.6657  -15.2593   28.5155 O   0  0  0  0  0  0  0  0  0  0  0  0
    8.8228  -16.5454   28.3792 O   0  0  0  0  0  0  0  0  0  0  0  0
  2  1  1  1
  3  2  1  0
  4  2  1  0
  5  4  1  0
  5  6  1  6
  7  5  1  0
  7  8  2  0
 10 12  1  0
 10  9  1  0
 11 10  2  0
 13 12  1  6
 13 14  1  0
 14  7  1  0
 15 13  1  0
 16 15  2  0
 18 19  1  0
 18 17  1  0
 19 21  1  0
 19 20  1  6
 21 22  1  1
 21 23  1  0
 22 15  1  0
 23 24  1  0
 25 23  2  0
M  END
$$$$
