LNI.pdb
     RDKit          3D

 25 24  0  0  1  0  0  0  0  0999 V2000
    8.9905  -12.6239   18.5586 C   0  0  0  0  0  0  0  0  0  0  0  0
    7.7591  -13.4617   18.8262 C   0  0  2  0  0  0  0  0  0  0  0  0
    6.5627  -12.5575   18.5923 C   0  0  0  0  0  0  0  0  0  0  0  0
    7.7157  -13.9872   20.2307 C   0  0  0  0  0  0  0  0  0  0  0  0
    8.9298  -14.7643   20.6113 C   0  0  2  0  0  0  0  0  0  0  0  0
    9.2061  -15.8548   19.7109 N   0  0  0  0  0  0  0  0  0  0  0  0
    8.7883  -15.3259   22.0094 C   0  0  0  0  0  0  0  0  0  0  0  0
    7.9408  -14.8252   22.7917 O   0  0  0  0  0  0  0  0  0  0  0  0
   12.3767  -18.6497   22.4243 N   0  0  0  0  0  0  0  0  0  0  0  0
   10.9701  -18.7053   22.5262 C   0  0  0  0  0  0  0  0  0  0  0  0
   10.3244  -19.0368   21.4682 O   0  0  0  0  0  0  0  0  0  0  0  0
   10.2438  -18.3966   23.7965 C   0  0  0  0  0  0  0  0  0  0  0  0
    9.6344  -17.0150   23.7232 C   0  0  2  0  0  0  0  0  0  0  0  0
    9.5833  -16.3948   22.4536 N   0  0  0  0  0  0  0  0  0  0  0  0
    9.9407  -16.1356   24.8520 C   0  0  0  0  0  0  0  0  0  0  0  0
   11.0187  -15.4825   24.7892 O   0  0  0  0  0  0  0  0  0  0  0  0
    6.6883  -12.5217   26.5586 C   0  0  0  0  0  0  0  0  0  0  0  0
    7.9292  -13.3169   26.2460 C   0  0  0  0  0  0  0  0  0  0  0  0
    8.4769  -14.0508   27.4414 C   0  0  2  0  0  0  0  0  0  0  0  0
    8.9484  -13.0781   28.5144 C   0  0  0  0  0  0  0  0  0  0  0  0
    9.5031  -15.0770   27.1115 C   0  0  2  0  0  0  0  0  0  0  0  0
    9.1573  -15.9348   26.0123 N   0  0  0  0  0  0  0  0  0  0  0  0
   10.0462  -15.7757   28.2810 C   0  0  0  0  0  0  0  0  0  0  0  0
   10.9377  -15.2235   29.1842 O   0  0  0  0  0  0  0  0  0  0  0  0
    9.6914  -16.9702   28.5024 O   0  0  0  0  0  0  0  0  0  0  0  0
  2  1  1  1
  3  2  1  0
  4  2  1  0
  5  4  1  0
  5  6  1  6
  7  5  1  0
  7  8  2  0
 10 12  1  0
 10  9  1  0
 11 10  2  0
 13 12  1  6
 13 14  1  0
 14  7  1  0
 15 13  1  0
 16 15  2  0
 18 19  1  0
 18 17  1  0
 19 21  1  0
 19 20  1  1
 21 22  1  6
 21 23  1  0
 22 15  1  0
 23 24  1  0
 25 23  2  0
M  END
$$$$
