LNI.pdb
     RDKit          3D

 25 24  0  0  1  0  0  0  0  0999 V2000
    3.3694  -20.3577   21.9179 C   0  0  0  0  0  0  0  0  0  0  0  0
    3.6881  -19.4694   20.7350 C   0  0  2  0  0  0  0  0  0  0  0  0
    3.3870  -20.2839   19.4901 C   0  0  0  0  0  0  0  0  0  0  0  0
    5.1251  -19.0393   20.7099 C   0  0  0  0  0  0  0  0  0  0  0  0
    5.5997  -18.4798   22.0077 C   0  0  2  0  0  0  0  0  0  0  0  0
    4.6670  -17.5525   22.5964 N   0  0  0  0  0  0  0  0  0  0  0  0
    6.9262  -17.7730   21.8318 C   0  0  0  0  0  0  0  0  0  0  0  0
    7.9355  -18.4355   21.4805 O   0  0  0  0  0  0  0  0  0  0  0  0
    7.2076  -12.4721   20.1620 N   0  0  0  0  0  0  0  0  0  0  0  0
    7.1385  -13.7915   20.6583 C   0  0  0  0  0  0  0  0  0  0  0  0
    5.9802  -14.2213   21.0043 O   0  0  0  0  0  0  0  0  0  0  0  0
    8.3446  -14.6665   20.7845 C   0  0  0  0  0  0  0  0  0  0  0  0
    8.2054  -15.5718   21.9874 C   0  0  2  0  0  0  0  0  0  0  0  0
    7.0558  -16.3923   22.0524 N   0  0  0  0  0  0  0  0  0  0  0  0
    8.6538  -14.9985   23.2569 C   0  0  0  0  0  0  0  0  0  0  0  0
    9.7403  -14.3568   23.2400 O   0  0  0  0  0  0  0  0  0  0  0  0
    6.1030  -11.7749   26.2845 C   0  0  0  0  0  0  0  0  0  0  0  0
    7.1764  -12.5840   25.6041 C   0  0  0  0  0  0  0  0  0  0  0  0
    7.7667  -13.6471   26.4922 C   0  0  2  0  0  0  0  0  0  0  0  0
    8.5360  -13.0289   27.6523 C   0  0  0  0  0  0  0  0  0  0  0  0
    8.5587  -14.6784   25.7681 C   0  0  2  0  0  0  0  0  0  0  0  0
    8.0002  -15.0838   24.5082 N   0  0  0  0  0  0  0  0  0  0  0  0
    9.0147  -15.7850   26.6157 C   0  0  0  0  0  0  0  0  0  0  0  0
   10.2347  -15.8260   27.2680 O   0  0  0  0  0  0  0  0  0  0  0  0
    8.2582  -16.7865   26.7779 O   0  0  0  0  0  0  0  0  0  0  0  0
  2  1  1  1
  3  2  1  0
  4  2  1  0
  5  4  1  0
  5  6  1  6
  7  5  1  0
  7  8  2  0
 10 12  1  0
 10  9  1  0
 11 10  2  0
 13 12  1  6
 13 14  1  0
 14  7  1  0
 15 13  1  0
 16 15  2  0
 18 19  1  0
 18 17  1  0
 19 21  1  0
 19 20  1  1
 21 22  1  6
 21 23  1  0
 22 15  1  0
 23 24  1  0
 25 23  2  0
M  END
$$$$
