LNI.pdb
     RDKit          3D

 25 24  0  0  1  0  0  0  0  0999 V2000
    9.0873  -12.9029   18.3101 C   0  0  0  0  0  0  0  0  0  0  0  0
    7.7101  -13.5033   18.4904 C   0  0  2  0  0  0  0  0  0  0  0  0
    6.7169  -12.4495   18.0356 C   0  0  0  0  0  0  0  0  0  0  0  0
    7.4250  -13.8696   19.9170 C   0  0  0  0  0  0  0  0  0  0  0  0
    8.4183  -14.8190   20.4957 C   0  0  2  0  0  0  0  0  0  0  0  0
    8.5812  -16.0140   19.7072 N   0  0  0  0  0  0  0  0  0  0  0  0
    8.0161  -15.2248   21.8969 C   0  0  0  0  0  0  0  0  0  0  0  0
    7.5400  -14.3604   22.6760 O   0  0  0  0  0  0  0  0  0  0  0  0
    6.0650  -19.1647   25.6099 N   0  0  0  0  0  0  0  0  0  0  0  0
    7.3640  -19.0260   25.0755 C   0  0  0  0  0  0  0  0  0  0  0  0
    8.3450  -19.2854   25.8605 O   0  0  0  0  0  0  0  0  0  0  0  0
    7.6104  -18.5982   23.6640 C   0  0  0  0  0  0  0  0  0  0  0  0
    7.8629  -17.1085   23.6099 C   0  0  2  0  0  0  0  0  0  0  0  0
    8.1631  -16.5466   22.3477 N   0  0  0  0  0  0  0  0  0  0  0  0
    8.6018  -16.5577   24.7466 C   0  0  0  0  0  0  0  0  0  0  0  0
    9.8609  -16.6244   24.6938 O   0  0  0  0  0  0  0  0  0  0  0  0
    6.3203  -12.2542   26.9425 C   0  0  0  0  0  0  0  0  0  0  0  0
    7.3099  -13.2246   26.3519 C   0  0  0  0  0  0  0  0  0  0  0  0
    8.0740  -13.9967   27.3948 C   0  0  2  0  0  0  0  0  0  0  0  0
    8.9775  -13.0776   28.2064 C   0  0  0  0  0  0  0  0  0  0  0  0
    8.7966  -15.1863   26.8675 C   0  0  2  0  0  0  0  0  0  0  0  0
    8.0579  -15.9546   25.9045 N   0  0  0  0  0  0  0  0  0  0  0  0
    9.4645  -15.9852   27.9002 C   0  0  0  0  0  0  0  0  0  0  0  0
   10.7023  -15.6913   28.4451 O   0  0  0  0  0  0  0  0  0  0  0  0
    8.8899  -17.0230   28.3411 O   0  0  0  0  0  0  0  0  0  0  0  0
  2  1  1  1
  3  2  1  0
  4  2  1  0
  5  4  1  0
  5  6  1  6
  7  5  1  0
  7  8  2  0
 10 12  1  0
 10  9  1  0
 11 10  2  0
 13 12  1  6
 13 14  1  0
 14  7  1  0
 15 13  1  0
 16 15  2  0
 18 19  1  0
 18 17  1  0
 19 21  1  0
 19 20  1  6
 21 22  1  1
 21 23  1  0
 22 15  1  0
 23 24  1  0
 25 23  2  0
M  END
$$$$
