LNI.pdb
     RDKit          3D

 25 24  0  0  1  0  0  0  0  0999 V2000
    9.4699  -13.9194   19.5643 C   0  0  0  0  0  0  0  0  0  0  0  0
    8.0341  -13.8907   19.0872 C   0  0  2  0  0  0  0  0  0  0  0  0
    7.6856  -12.4318   18.8549 C   0  0  0  0  0  0  0  0  0  0  0  0
    7.0833  -14.4732   20.0908 C   0  0  0  0  0  0  0  0  0  0  0  0
    7.3799  -15.8933   20.4345 C   0  0  2  0  0  0  0  0  0  0  0  0
    6.9624  -16.8195   19.4126 N   0  0  0  0  0  0  0  0  0  0  0  0
    6.7053  -16.2811   21.7324 C   0  0  0  0  0  0  0  0  0  0  0  0
    5.4674  -16.5013   21.7416 O   0  0  0  0  0  0  0  0  0  0  0  0
    8.0702  -19.2120   23.5479 N   0  0  0  0  0  0  0  0  0  0  0  0
    6.7251  -19.1799   23.9743 C   0  0  0  0  0  0  0  0  0  0  0  0
    6.1079  -20.3031   24.0322 O   0  0  0  0  0  0  0  0  0  0  0  0
    6.0305  -17.9089   24.3463 C   0  0  0  0  0  0  0  0  0  0  0  0
    6.9841  -16.7419   24.2256 C   0  0  2  0  0  0  0  0  0  0  0  0
    7.4313  -16.4008   22.9284 N   0  0  0  0  0  0  0  0  0  0  0  0
    7.9789  -16.6341   25.2934 C   0  0  0  0  0  0  0  0  0  0  0  0
    9.1265  -17.1000   25.0519 O   0  0  0  0  0  0  0  0  0  0  0  0
    6.3108  -12.0181   27.0733 C   0  0  0  0  0  0  0  0  0  0  0  0
    7.1328  -13.1687   26.5534 C   0  0  0  0  0  0  0  0  0  0  0  0
    7.9501  -13.8417   27.6242 C   0  0  2  0  0  0  0  0  0  0  0  0
    8.8888  -12.8522   28.3020 C   0  0  0  0  0  0  0  0  0  0  0  0
    8.6505  -15.0754   27.1740 C   0  0  2  0  0  0  0  0  0  0  0  0
    7.7957  -16.0614   26.5735 N   0  0  0  0  0  0  0  0  0  0  0  0
    9.6041  -15.6108   28.1512 C   0  0  0  0  0  0  0  0  0  0  0  0
    9.5680  -16.8957   28.6641 O   0  0  0  0  0  0  0  0  0  0  0  0
   10.5356  -14.8649   28.5726 O   0  0  0  0  0  0  0  0  0  0  0  0
  2  1  1  1
  3  2  1  0
  4  2  1  0
  5  4  1  0
  5  6  1  6
  7  5  1  0
  7  8  2  0
 10 12  1  0
 10  9  1  0
 11 10  2  0
 13 12  1  6
 13 14  1  0
 14  7  1  0
 15 13  1  0
 16 15  2  0
 18 19  1  0
 18 17  1  0
 19 21  1  0
 19 20  1  6
 21 22  1  1
 21 23  1  0
 22 15  1  0
 23 24  1  0
 25 23  2  0
M  END
$$$$
