LNI.pdb
     RDKit          3D

 25 24  0  0  1  0  0  0  0  0999 V2000
    9.4433  -13.0790   18.5320 C   0  0  0  0  0  0  0  0  0  0  0  0
    7.9810  -13.4676   18.5465 C   0  0  2  0  0  0  0  0  0  0  0  0
    7.1899  -12.1734   18.4927 C   0  0  0  0  0  0  0  0  0  0  0  0
    7.6009  -14.2294   19.7818 C   0  0  0  0  0  0  0  0  0  0  0  0
    8.5852  -15.2855   20.1540 C   0  0  2  0  0  0  0  0  0  0  0  0
    8.4581  -16.4799   19.3580 N   0  0  0  0  0  0  0  0  0  0  0  0
    8.4350  -15.6665   21.6108 C   0  0  0  0  0  0  0  0  0  0  0  0
    7.4524  -15.2313   22.2634 O   0  0  0  0  0  0  0  0  0  0  0  0
   10.2404  -19.8669   21.8455 N   0  0  0  0  0  0  0  0  0  0  0  0
    9.4909  -19.3240   22.9111 C   0  0  0  0  0  0  0  0  0  0  0  0
    8.2895  -19.7515   23.0523 O   0  0  0  0  0  0  0  0  0  0  0  0
   10.0490  -18.2978   23.8448 C   0  0  0  0  0  0  0  0  0  0  0  0
    9.4015  -16.9559   23.5880 C   0  0  2  0  0  0  0  0  0  0  0  0
    9.3696  -16.4960   22.2514 N   0  0  0  0  0  0  0  0  0  0  0  0
    9.6483  -15.9368   24.6087 C   0  0  0  0  0  0  0  0  0  0  0  0
   10.7775  -15.3735   24.5899 O   0  0  0  0  0  0  0  0  0  0  0  0
    5.9302  -12.3802   27.3544 C   0  0  0  0  0  0  0  0  0  0  0  0
    6.6999  -13.6146   26.9626 C   0  0  0  0  0  0  0  0  0  0  0  0
    8.1127  -13.3181   26.5340 C   0  0  2  0  0  0  0  0  0  0  0  0
    8.1413  -12.6235   25.1789 C   0  0  0  0  0  0  0  0  0  0  0  0
    9.0284  -14.4899   26.5935 C   0  0  2  0  0  0  0  0  0  0  0  0
    8.7560  -15.5101   25.6196 N   0  0  0  0  0  0  0  0  0  0  0  0
    9.2675  -14.9924   27.9504 C   0  0  0  0  0  0  0  0  0  0  0  0
    9.8566  -14.2624   28.9680 O   0  0  0  0  0  0  0  0  0  0  0  0
    8.9208  -16.1753   28.2373 O   0  0  0  0  0  0  0  0  0  0  0  0
  2  1  1  1
  3  2  1  0
  4  2  1  0
  5  4  1  0
  5  6  1  6
  7  5  1  0
  7  8  2  0
 10 12  1  0
 10  9  1  0
 11 10  2  0
 13 12  1  6
 13 14  1  0
 14  7  1  0
 15 13  1  0
 16 15  2  0
 18 19  1  0
 18 17  1  0
 19 21  1  0
 19 20  1  6
 21 22  1  6
 21 23  1  0
 22 15  1  0
 23 24  1  0
 25 23  2  0
M  END
$$$$
