LNI.pdb
     RDKit          3D

 25 24  0  0  1  0  0  0  0  0999 V2000
    9.1545  -12.8691   18.5439 C   0  0  0  0  0  0  0  0  0  0  0  0
    7.7798  -13.4368   18.8221 C   0  0  2  0  0  0  0  0  0  0  0  0
    6.8101  -12.2709   18.7574 C   0  0  0  0  0  0  0  0  0  0  0  0
    7.6875  -14.0833   20.1727 C   0  0  0  0  0  0  0  0  0  0  0  0
    8.7139  -15.1414   20.3955 C   0  0  2  0  0  0  0  0  0  0  0  0
    8.5762  -16.2583   19.4954 N   0  0  0  0  0  0  0  0  0  0  0  0
    8.6449  -15.6627   21.8145 C   0  0  0  0  0  0  0  0  0  0  0  0
    7.6990  -15.2994   22.5590 O   0  0  0  0  0  0  0  0  0  0  0  0
    9.2643  -20.2129   22.5166 N   0  0  0  0  0  0  0  0  0  0  0  0
   10.2916  -19.2459   22.5575 C   0  0  0  0  0  0  0  0  0  0  0  0
   11.0283  -19.1375   21.5128 O   0  0  0  0  0  0  0  0  0  0  0  0
   10.5297  -18.3769   23.7510 C   0  0  0  0  0  0  0  0  0  0  0  0
    9.7520  -17.0873   23.6174 C   0  0  2  0  0  0  0  0  0  0  0  0
    9.6145  -16.5439   22.3194 N   0  0  0  0  0  0  0  0  0  0  0  0
    9.9543  -16.1202   24.6968 C   0  0  0  0  0  0  0  0  0  0  0  0
   11.0267  -15.4554   24.6725 O   0  0  0  0  0  0  0  0  0  0  0  0
    6.1913  -12.8133   26.3025 C   0  0  0  0  0  0  0  0  0  0  0  0
    7.5184  -13.4449   25.9714 C   0  0  0  0  0  0  0  0  0  0  0  0
    8.2164  -14.0181   27.1762 C   0  0  2  0  0  0  0  0  0  0  0  0
    8.6237  -12.9196   28.1494 C   0  0  0  0  0  0  0  0  0  0  0  0
    9.3407  -14.9378   26.8515 C   0  0  2  0  0  0  0  0  0  0  0  0
    9.0755  -15.8459   25.7705 N   0  0  0  0  0  0  0  0  0  0  0  0
    9.9647  -15.5558   28.0261 C   0  0  0  0  0  0  0  0  0  0  0  0
    9.9846  -16.9155   28.2832 O   0  0  0  0  0  0  0  0  0  0  0  0
   10.5314  -14.8150   28.8816 O   0  0  0  0  0  0  0  0  0  0  0  0
  2  1  1  1
  3  2  1  0
  4  2  1  0
  5  4  1  0
  5  6  1  6
  7  5  1  0
  7  8  2  0
 10 12  1  0
 10  9  1  0
 11 10  2  0
 13 12  1  6
 13 14  1  0
 14  7  1  0
 15 13  1  0
 16 15  2  0
 18 19  1  0
 18 17  1  0
 19 21  1  0
 19 20  1  1
 21 22  1  6
 21 23  1  0
 22 15  1  0
 23 24  1  0
 25 23  2  0
M  END
$$$$
