LNI.pdb
     RDKit          3D

 25 24  0  0  1  0  0  0  0  0999 V2000
    7.0489  -12.5826   18.7415 C   0  0  0  0  0  0  0  0  0  0  0  0
    7.8032  -13.6180   19.5470 C   0  0  2  0  0  0  0  0  0  0  0  0
    9.1344  -12.9904   19.9180 C   0  0  0  0  0  0  0  0  0  0  0  0
    8.0491  -14.8801   18.7740 C   0  0  0  0  0  0  0  0  0  0  0  0
    8.6207  -15.9807   19.6014 C   0  0  2  0  0  0  0  0  0  0  0  0
    8.8077  -17.2030   18.8615 N   0  0  0  0  0  0  0  0  0  0  0  0
    7.7298  -16.2749   20.7887 C   0  0  0  0  0  0  0  0  0  0  0  0
    6.5611  -16.6954   20.5929 O   0  0  0  0  0  0  0  0  0  0  0  0
    7.1776  -19.4968   25.3670 N   0  0  0  0  0  0  0  0  0  0  0  0
    6.6243  -18.4417   24.6102 C   0  0  0  0  0  0  0  0  0  0  0  0
    5.6283  -17.8184   25.1255 O   0  0  0  0  0  0  0  0  0  0  0  0
    7.1563  -18.0504   23.2685 C   0  0  0  0  0  0  0  0  0  0  0  0
    7.6873  -16.6356   23.3134 C   0  0  2  0  0  0  0  0  0  0  0  0
    8.1791  -16.0884   22.1060 N   0  0  0  0  0  0  0  0  0  0  0  0
    8.4314  -16.2849   24.5236 C   0  0  0  0  0  0  0  0  0  0  0  0
    9.6778  -16.4809   24.5029 O   0  0  0  0  0  0  0  0  0  0  0  0
    6.0855  -12.0259   26.8258 C   0  0  0  0  0  0  0  0  0  0  0  0
    6.9927  -13.0548   26.2029 C   0  0  0  0  0  0  0  0  0  0  0  0
    7.8313  -13.7916   27.2135 C   0  0  2  0  0  0  0  0  0  0  0  0
    8.6849  -12.8273   28.0267 C   0  0  0  0  0  0  0  0  0  0  0  0
    8.6245  -14.9161   26.6465 C   0  0  2  0  0  0  0  0  0  0  0  0
    7.9053  -15.7466   25.7210 N   0  0  0  0  0  0  0  0  0  0  0  0
    9.4108  -15.6532   27.6412 C   0  0  0  0  0  0  0  0  0  0  0  0
   10.5805  -15.1917   28.2194 O   0  0  0  0  0  0  0  0  0  0  0  0
    9.0140  -16.7957   28.0139 O   0  0  0  0  0  0  0  0  0  0  0  0
  2  1  1  6
  3  2  1  0
  4  2  1  0
  5  4  1  0
  5  6  1  6
  7  5  1  0
  7  8  2  0
 10 12  1  0
 10  9  1  0
 11 10  2  0
 13 12  1  6
 13 14  1  0
 14  7  1  0
 15 13  1  0
 16 15  2  0
 18 19  1  0
 18 17  1  0
 19 21  1  0
 19 20  1  6
 21 22  1  1
 21 23  1  0
 22 15  1  0
 23 24  1  0
 25 23  2  0
M  END
$$$$
