LNI.pdb
     RDKit          3D

 25 24  0  0  1  0  0  0  0  0999 V2000
    8.0782  -12.8586   18.3045 C   0  0  0  0  0  0  0  0  0  0  0  0
    7.5455  -13.5410   19.5456 C   0  0  2  0  0  0  0  0  0  0  0  0
    7.6847  -12.5427   20.6805 C   0  0  0  0  0  0  0  0  0  0  0  0
    8.3061  -14.7882   19.8871 C   0  0  0  0  0  0  0  0  0  0  0  0
    7.5056  -15.7774   20.6640 C   0  0  2  0  0  0  0  0  0  0  0  0
    6.5332  -15.1598   21.5298 N   0  0  0  0  0  0  0  0  0  0  0  0
    8.4084  -16.6500   21.5087 C   0  0  0  0  0  0  0  0  0  0  0  0
    8.7623  -17.7748   21.0722 O   0  0  0  0  0  0  0  0  0  0  0  0
   10.6886  -19.3468   21.1863 N   0  0  0  0  0  0  0  0  0  0  0  0
   10.5211  -18.9058   22.5166 C   0  0  0  0  0  0  0  0  0  0  0  0
    9.9585  -19.7213   23.3316 O   0  0  0  0  0  0  0  0  0  0  0  0
   10.9699  -17.5559   22.9779 C   0  0  0  0  0  0  0  0  0  0  0  0
    9.8194  -16.8203   23.6267 C   0  0  2  0  0  0  0  0  0  0  0  0
    8.8603  -16.2317   22.7707 N   0  0  0  0  0  0  0  0  0  0  0  0
   10.1635  -16.0528   24.8242 C   0  0  0  0  0  0  0  0  0  0  0  0
   11.1915  -15.3238   24.7577 O   0  0  0  0  0  0  0  0  0  0  0  0
    7.0431  -12.6850   26.6967 C   0  0  0  0  0  0  0  0  0  0  0  0
    8.2902  -13.4629   26.3661 C   0  0  0  0  0  0  0  0  0  0  0  0
    8.8715  -14.1801   27.5558 C   0  0  2  0  0  0  0  0  0  0  0  0
    9.4434  -13.1941   28.5659 C   0  0  0  0  0  0  0  0  0  0  0  0
    9.8326  -15.2620   27.2080 C   0  0  2  0  0  0  0  0  0  0  0  0
    9.4671  -16.0369   26.0550 N   0  0  0  0  0  0  0  0  0  0  0  0
   10.2801  -16.0553   28.3574 C   0  0  0  0  0  0  0  0  0  0  0  0
   10.0228  -17.4040   28.5313 O   0  0  0  0  0  0  0  0  0  0  0  0
   10.9502  -15.4902   29.2703 O   0  0  0  0  0  0  0  0  0  0  0  0
  2  1  1  6
  3  2  1  0
  4  2  1  0
  5  4  1  0
  5  6  1  1
  7  5  1  0
  7  8  2  0
 10 12  1  0
 10  9  1  0
 11 10  2  0
 13 12  1  6
 13 14  1  0
 14  7  1  0
 15 13  1  0
 16 15  2  0
 18 19  1  0
 18 17  1  0
 19 21  1  0
 19 20  1  1
 21 22  1  6
 21 23  1  0
 22 15  1  0
 23 24  1  0
 25 23  2  0
M  END
$$$$
