LNI.pdb
     RDKit          3D

 25 24  0  0  1  0  0  0  0  0999 V2000
    9.5831  -13.1559   19.5582 C   0  0  0  0  0  0  0  0  0  0  0  0
    8.1988  -13.4036   18.9996 C   0  0  2  0  0  0  0  0  0  0  0  0
    7.5021  -12.0558   18.9592 C   0  0  0  0  0  0  0  0  0  0  0  0
    7.3986  -14.3496   19.8455 C   0  0  0  0  0  0  0  0  0  0  0  0
    8.0387  -15.6861   20.0088 C   0  0  2  0  0  0  0  0  0  0  0  0
    7.8100  -16.5613   18.8871 N   0  0  0  0  0  0  0  0  0  0  0  0
    7.5318  -16.3723   21.2587 C   0  0  0  0  0  0  0  0  0  0  0  0
    6.5541  -17.1586   21.1765 O   0  0  0  0  0  0  0  0  0  0  0  0
    6.0667  -18.6002   25.8506 N   0  0  0  0  0  0  0  0  0  0  0  0
    7.3106  -18.6765   25.1881 C   0  0  0  0  0  0  0  0  0  0  0  0
    8.2915  -19.1711   25.8508 O   0  0  0  0  0  0  0  0  0  0  0  0
    7.5010  -18.2092   23.7804 C   0  0  0  0  0  0  0  0  0  0  0  0
    7.8413  -16.7362   23.7642 C   0  0  2  0  0  0  0  0  0  0  0  0
    8.1291  -16.1504   22.5100 N   0  0  0  0  0  0  0  0  0  0  0  0
    8.6531  -16.2694   24.8888 C   0  0  0  0  0  0  0  0  0  0  0  0
    9.9059  -16.3074   24.7415 O   0  0  0  0  0  0  0  0  0  0  0  0
    6.1253  -12.3828   27.3348 C   0  0  0  0  0  0  0  0  0  0  0  0
    7.2810  -13.0843   26.6700 C   0  0  0  0  0  0  0  0  0  0  0  0
    8.1533  -13.8353   27.6409 C   0  0  2  0  0  0  0  0  0  0  0  0
    9.0256  -12.8816   28.4468 C   0  0  0  0  0  0  0  0  0  0  0  0
    8.9353  -14.9441   27.0291 C   0  0  2  0  0  0  0  0  0  0  0  0
    8.1864  -15.7769   26.1296 N   0  0  0  0  0  0  0  0  0  0  0  0
    9.7754  -15.6782   27.9810 C   0  0  0  0  0  0  0  0  0  0  0  0
   10.9488  -15.1936   28.5321 O   0  0  0  0  0  0  0  0  0  0  0  0
    9.4255  -16.8403   28.3398 O   0  0  0  0  0  0  0  0  0  0  0  0
  2  1  1  1
  3  2  1  0
  4  2  1  0
  5  4  1  0
  5  6  1  6
  7  5  1  0
  7  8  2  0
 10 12  1  0
 10  9  1  0
 11 10  2  0
 13 12  1  6
 13 14  1  0
 14  7  1  0
 15 13  1  0
 16 15  2  0
 18 19  1  0
 18 17  1  0
 19 21  1  0
 19 20  1  6
 21 22  1  1
 21 23  1  0
 22 15  1  0
 23 24  1  0
 25 23  2  0
M  END
$$$$
